
     RDKit          3D

  6  5  0  0  0  0  0  0  0  0999 V2000
    1.3543    1.0529    0.1454 O   0  0  0  0  0  0  0  0  0  0  0  0
    0.7621    0.0240   -0.0005 C   0  0  0  0  0  0  0  0  0  0  0  0
   -0.7621   -0.0240    0.0005 C   0  0  0  0  0  0  0  0  0  0  0  0
   -1.3543   -1.0529   -0.1454 O   0  0  0  0  0  0  0  0  0  0  0  0
    1.2588   -0.9541   -0.1447 H   0  0  0  0  0  0  0  0  0  0  0  0
   -1.2588    0.9541    0.1447 H   0  0  0  0  0  0  0  0  0  0  0  0
  1  2  2  0
  2  3  1  0
  2  5  1  0
  3  4  2  0
  3  6  1  0
M  END
>  <reaction>  (1) 
kfir_rxn_11663

>  <mol_properties>  (1) 
{"2": {"label": "donator", "atom_type": "CO"}, "5": {"label": "d_hydrogen", "atom_type": "H0"}}

>  <type>  (1) 
r1h

$$$$

     RDKit          3D

  7  7  0  0  0  0  0  0  0  0999 V2000
    2.1173    0.2159   -0.7465 F   0  0  0  0  0  0  0  0  0  0  0  0
    0.8958    0.1038   -0.3131 C   0  0  0  0  0  0  0  0  0  0  0  0
    0.1698    1.1809    0.1961 C   0  0  0  0  0  0  0  0  0  0  0  0
   -1.0053    0.9932    0.5955 N   0  0  0  0  0  0  0  0  0  0  0  0
   -1.5959   -0.2293    0.5481 N   0  0  0  0  0  2  0  0  0  0  0  0
   -0.9111   -1.2019    0.0773 N   0  0  0  0  0  0  0  0  0  0  0  0
    0.3295   -1.0627   -0.3573 N   0  0  0  0  0  0  0  0  0  0  0  0
  1  2  1  0
  2  3  2  0
  2  7  1  0
  3  4  2  0
  4  5  1  0
  5  6  1  0
  6  7  2  0
M  RAD  1   5   2
M  END
>  <reaction>  (2) 
kfir_rxn_11663

>  <mol_properties>  (2) 
{"4": {"label": "acceptor", "atom_type": "N3s"}}

>  <type>  (2) 
r2

$$$$

     RDKit          3D

  8  8  0  0  0  0  0  0  0  0999 V2000
   -2.5077    0.0854    0.0624 F   0  0  0  0  0  0  0  0  0  0  0  0
   -1.2046    0.0034    0.0286 C   0  0  0  0  0  0  0  0  0  0  0  0
   -0.6220   -1.2943   -0.0333 C   0  0  0  0  0  0  0  0  0  0  0  0
    0.7206   -1.1981   -0.0615 N   0  0  0  0  0  0  0  0  0  0  0  0
    1.2572    0.0138   -0.0292 N   0  0  0  0  0  0  0  0  0  0  0  0
    0.6978    1.1668    0.0268 N   0  0  0  0  0  0  0  0  0  0  0  0
   -0.6110    1.1780    0.0581 N   0  0  0  0  0  0  0  0  0  0  0  0
    2.2698    0.0451   -0.0519 H   0  0  0  0  0  0  0  0  0  0  0  0
  1  2  1  0
  2  3  2  0
  2  7  1  0
  3  4  2  0
  4  5  1  0
  5  6  1  0
  5  8  1  0
  6  7  2  0
M  END
>  <reaction>  (3) 
kfir_rxn_11663

>  <mol_properties>  (3) 
{"4": {"label": "acceptor", "atom_type": "N3s"}, "7": {"label": "a_hydrogen", "atom_type": "H0"}}

>  <type>  (3) 
r2h

$$$$

     RDKit          3D

 13 12  0  0  0  0  0  0  0  0999 V2000
   -0.3047    3.2748   -1.9228 F   0  0  0  0  0  0  0  0  0  0  0  0
   -0.1228    2.2044   -1.1964 C   0  0  0  0  0  0  0  0  0  0  0  0
    0.8468    1.2581   -1.6167 C   0  0  0  0  0  0  0  0  0  0  0  0
    0.9755    0.2141   -0.8331 N   0  0  0  0  0  0  0  0  0  0  0  0
    0.1438    0.1877    0.2539 N   0  0  0  0  0  0  0  0  0  0  0  0
   -0.7131    1.0375    0.5938 N   0  0  0  0  0  0  0  0  0  0  0  0
   -0.8789    2.1332   -0.1330 N   0  0  0  0  0  0  0  0  0  0  0  0
   -1.1114   -3.0198   -0.0461 O   0  0  0  0  0  1  0  0  0  0  0  0
   -0.3613   -3.2501    0.8414 C   0  0  0  0  0  0  0  0  0  0  0  0
    0.3986   -2.0919    1.5891 C   0  0  0  0  0  0  0  0  0  0  0  0
    1.0112   -2.2813    2.5749 O   0  0  0  0  0  0  0  0  0  0  0  0
   -0.1289   -4.2610    1.2273 H   0  0  0  0  0  0  0  0  0  0  0  0
    0.2452   -0.8805    0.9497 H   0  0  0  0  0  0  0  0  0  0  0  0
  1  2  1  0
  2  3  2  0
  2  7  1  0
  3  4  2  0
  4  5  1  0
  5  6  1  0
  5 13  1  0
  6  7  2  0
  8  9  1  0
  9 10  2  0
  9 12  1  0
 10 11  2  0
M  RAD  1   8   2
M  END
>  <reaction>  (4) 
kfir_rxn_11663

>  <mol_properties>  (4) 
{"4": {"label": "*1", "atom_type": "N3s"}, "5": {"label": "*0", "atom_type": "N3d"}, "8": {"label": "*4", "atom_type": "Cd"}, "9": {"label": "*3", "atom_type": "Cdd"}, "12": {"label": "*2", "atom_type": "H0"}}

>  <type>  (4) 
ts

$$$$
