
     RDKit          3D

  7  6  0  0  0  0  0  0  0  0999 V2000
   -2.1655    1.0146    0.0087 N   0  0  0  0  0  0  0  0  0  0  0  0
   -1.2095    0.3846    0.0054 C   0  0  0  0  0  0  0  0  0  0  0  0
   -0.0101   -0.4520    0.0013 C   0  0  0  0  0  0  0  0  0  0  0  0
    1.2256    0.3300   -0.0075 C   0  0  0  0  0  0  0  0  0  0  0  0
    2.2088    0.9164   -0.0144 N   0  0  0  0  0  0  0  0  0  0  0  0
   -0.0199   -1.0943    0.8846 H   0  0  0  0  0  0  0  0  0  0  0  0
   -0.0293   -1.0993   -0.8781 H   0  0  0  0  0  0  0  0  0  0  0  0
  1  2  3  0
  2  3  1  0
  3  4  1  0
  3  6  1  0
  3  7  1  0
  4  5  3  0
M  END
>  <reaction>  (1) 
kfir_rxn_5389

>  <mol_properties>  (1) 
{"2": {"label": "donator", "atom_type": "Cs"}, "5": {"label": "d_hydrogen", "atom_type": "H0"}}

>  <type>  (1) 
r1h

$$$$

     RDKit          3D

  7  6  0  0  0  0  0  0  0  0999 V2000
   -1.0387    1.3506    0.9579 O   0  0  0  0  0  1  0  0  0  0  0  0
   -0.6359    0.3874    0.3330 C   0  0  0  0  0  0  0  0  0  0  0  0
   -1.4681   -0.3013   -0.5161 N   0  0  0  0  0  0  0  0  0  0  0  0
    0.7504   -0.0303    0.3305 C   0  0  0  0  0  0  0  0  0  0  0  0
    1.8917   -0.3888    0.3665 C   0  0  0  0  0  0  0  0  0  0  0  0
   -2.4085   -0.3164   -0.1139 H   0  0  0  0  0  0  0  0  0  0  0  0
    2.9090   -0.7013    0.3966 H   0  0  0  0  0  0  0  0  0  0  0  0
  1  2  1  0
  2  4  1  0
  2  3  2  3
  3  6  1  0
  4  5  3  0
  5  7  1  0
M  RAD  1   1   2
M  END
>  <reaction>  (2) 
kfir_rxn_5389

>  <mol_properties>  (2) 
{"0": {"label": "acceptor", "atom_type": "O2s"}}

>  <type>  (2) 
r2

$$$$

     RDKit          3D

  8  7  0  0  0  0  0  0  0  0999 V2000
   -1.4545    0.2849   -0.8995 O   0  0  0  0  0  0  0  0  0  0  0  0
   -0.6036   -0.0148    0.0909 C   0  0  0  0  0  0  0  0  0  0  0  0
   -1.0225   -0.3359    1.2385 N   0  0  0  0  0  0  0  0  0  0  0  0
    0.7770    0.0753   -0.3133 C   0  0  0  0  0  0  0  0  0  0  0  0
    1.9372    0.1355   -0.5987 C   0  0  0  0  0  0  0  0  0  0  0  0
   -2.3428    0.1962   -0.5321 H   0  0  0  0  0  0  0  0  0  0  0  0
   -0.2583   -0.5323    1.8737 H   0  0  0  0  0  0  0  0  0  0  0  0
    2.9675    0.1911   -0.8595 H   0  0  0  0  0  0  0  0  0  0  0  0
  1  2  1  0
  1  6  1  0
  2  4  1  0
  2  3  2  3
  3  7  1  0
  4  5  3  0
  5  8  1  0
M  END
>  <reaction>  (3) 
kfir_rxn_5389

>  <mol_properties>  (3) 
{"0": {"label": "acceptor", "atom_type": "O2s"}, "7": {"label": "a_hydrogen", "atom_type": "H0"}}

>  <type>  (3) 
r2h

$$$$

     RDKit          3D

 14 12  0  0  0  0  0  0  0  0999 V2000
    0.7279    0.3397    0.8844 O   0  0  0  0  0  1  0  0  0  0  0  0
    0.4371    1.5714    0.4752 C   0  0  0  0  0  0  0  0  0  0  0  0
   -0.5454    1.8562   -0.2673 N   0  0  0  0  0  0  0  0  0  0  0  0
    1.4166    2.4824    1.0188 C   0  0  0  0  0  0  0  0  0  0  0  0
    2.2206    3.2486    1.4646 C   0  0  0  0  0  0  0  0  0  0  0  0
   -0.5754    2.8493   -0.4649 H   0  0  0  0  0  0  0  0  0  0  0  0
    2.9331    3.9363    1.8564 H   0  0  0  0  0  0  0  0  0  0  0  0
   -0.0144   -1.5124   -2.6872 N   0  0  0  0  0  0  0  0  0  0  0  0
   -0.4548   -1.3593   -1.6393 C   0  0  0  0  0  0  0  0  0  0  0  0
   -0.9924   -1.1368   -0.3179 C   0  0  0  0  0  0  0  0  0  0  0  0
   -1.2347   -2.3304    0.4577 C   0  0  0  0  0  0  0  0  0  0  0  0
   -1.4267   -3.2567    1.1070 N   0  0  0  0  0  0  0  0  0  0  0  0
   -0.1604   -0.5086    0.2846 H   0  0  0  0  0  0  0  0  0  0  0  0
   -1.8416   -0.4549   -0.3327 H   0  0  0  0  0  0  0  0  0  0  0  0
  1  2  1  0
  2  4  1  0
  2  3  2  3
  3  6  1  0
  4  5  3  0
  5  7  1  0
  8  9  3  0
  9 10  1  0
 10 11  1  0
 10 13  1  0
 10 14  1  0
 11 12  3  0
M  RAD  1   1   2
M  END
>  <reaction>  (4) 
kfir_rxn_5389

>  <mol_properties>  (4) 
{"0": {"label": "*3", "atom_type": "O2s"}, "1": {"label": "*4", "atom_type": "Cd"}, "8": {"label": "*0", "atom_type": "Ct"}, "9": {"label": "*1", "atom_type": "Cs"}, "12": {"label": "*2", "atom_type": "H0"}}

>  <type>  (4) 
ts

$$$$
