
     RDKit          3D

  7  7  0  0  0  0  0  0  0  0999 V2000
   -0.2697    0.7649    0.0640 C   0  0  0  0  0  0  0  0  0  0  0  0
   -0.5205   -0.6227   -0.0575 C   0  0  0  0  0  0  0  0  0  0  0  0
    0.6182   -1.2406   -0.1024 N   0  0  0  0  0  0  0  0  0  0  0  0
    1.5618   -0.2812   -0.0128 O   0  0  0  0  0  0  0  0  0  0  0  0
    1.0136    0.9469    0.0891 N   0  0  0  0  0  0  0  0  0  0  0  0
   -0.9525    1.5949    0.1305 H   0  0  0  0  0  0  0  0  0  0  0  0
   -1.4508   -1.1622   -0.1109 H   0  0  0  0  0  0  0  0  0  0  0  0
  1  2  1  0
  1  5  2  0
  1  6  1  0
  2  3  2  0
  2  7  1  0
  3  4  1  0
  4  5  1  0
M  END
>  <reaction>  (1) 
kfir_rxn_13108

>  <mol_properties>  (1) 
{"0": {"label": "donator", "atom_type": "Cd"}, "5": {"label": "d_hydrogen", "atom_type": "H0"}}

>  <type>  (1) 
r1h

$$$$

     RDKit          3D

  7  6  0  0  0  0  0  0  0  0999 V2000
    3.3502   -0.4762    0.0152 O   0  0  0  0  0  0  0  0  0  0  0  0
    2.2075   -0.3145    0.0868 C   0  0  0  0  0  3  0  0  0  0  0  0
    0.9276   -0.1341    0.1700 C   0  0  0  0  0  0  0  0  0  0  0  0
   -0.3032    0.0437    0.2323 C   0  0  0  0  0  0  0  0  0  0  0  0
   -1.6911    0.2397    0.3206 C   0  0  0  0  0  0  0  0  0  0  0  0
   -2.3837    0.5831   -0.6231 O   0  0  0  0  0  0  0  0  0  0  0  0
   -2.1071    0.0549    1.3269 H   0  0  0  0  0  0  0  0  0  0  0  0
  1  2  2  0
  2  3  1  0
  3  4  3  0
  4  5  1  0
  5  6  2  0
  5  7  1  0
M  RAD  1   2   2
M  END
>  <reaction>  (2) 
kfir_rxn_13108

>  <mol_properties>  (2) 
{"1": {"label": "acceptor", "atom_type": "CO"}}

>  <type>  (2) 
r2

$$$$

     RDKit          3D

  8  7  0  0  0  0  0  0  0  0999 V2000
    2.8741   -0.2718    0.4288 O   0  0  0  0  0  0  0  0  0  0  0  0
    1.9458    0.4693    0.5915 C   0  0  0  0  0  0  0  0  0  0  0  0
    0.5775    0.1174    0.2611 C   0  0  0  0  0  0  0  0  0  0  0  0
   -0.5670   -0.1294   -0.0152 C   0  0  0  0  0  0  0  0  0  0  0  0
   -1.9461   -0.4690   -0.3120 C   0  0  0  0  0  0  0  0  0  0  0  0
   -2.4958   -0.1596   -1.3316 O   0  0  0  0  0  0  0  0  0  0  0  0
    2.0665    1.4839    1.0090 H   0  0  0  0  0  0  0  0  0  0  0  0
   -2.4551   -1.0409    0.4831 H   0  0  0  0  0  0  0  0  0  0  0  0
  1  2  2  0
  2  3  1  0
  2  7  1  0
  3  4  3  0
  4  5  1  0
  5  6  2  0
  5  8  1  0
M  END
>  <reaction>  (3) 
kfir_rxn_13108

>  <mol_properties>  (3) 
{"1": {"label": "acceptor", "atom_type": "CO"}, "7": {"label": "a_hydrogen", "atom_type": "H0"}}

>  <type>  (3) 
r2h

$$$$

     RDKit          3D

 14 13  0  0  0  0  0  0  0  0999 V2000
    0.7739    0.0238    2.6096 O   0  0  0  0  0  0  0  0  0  0  0  0
    0.4777   -0.3250    1.5088 C   0  0  0  0  0  0  0  0  0  0  0  0
    0.4106   -1.6834    1.0361 C   0  0  0  0  0  0  0  0  0  0  0  0
    0.3432   -2.7822    0.5513 C   0  0  0  0  0  0  0  0  0  0  0  0
    0.2237   -4.1182   -0.0064 C   0  0  0  0  0  0  0  0  0  0  0  0
    1.1395   -4.6966   -0.5186 O   0  0  0  0  0  0  0  0  0  0  0  0
   -0.7844   -4.5584    0.0795 H   0  0  0  0  0  0  0  0  0  0  0  0
   -0.3363    1.4889   -0.6263 C   0  0  0  0  0  0  0  0  0  0  0  0
   -0.2715    2.8808   -0.8866 C   0  0  0  0  0  0  0  0  0  0  0  0
   -0.8487    3.0765   -2.0306 N   0  0  0  0  0  2  0  0  0  0  0  0
   -1.2588    1.8652   -2.4710 O   0  0  0  0  0  0  0  0  0  0  0  0
   -0.9292    0.8793   -1.5769 N   0  0  0  0  0  0  0  0  0  0  0  0
    0.2005    0.4420    0.6895 H   0  0  0  0  0  0  0  0  0  0  0  0
    0.1495    3.6876   -0.3129 H   0  0  0  0  0  0  0  0  0  0  0  0
  1  2  2  0
  2  3  1  0
  2 13  1  0
  3  4  3  0
  4  5  1  0
  5  6  2  0
  5  7  1  0
  8  9  2  0
  8 12  2  0
  9 10  1  0
  9 14  1  0
 10 11  1  0
 11 12  1  0
M  RAD  1  10   2
M  END
>  <reaction>  (4) 
kfir_rxn_13108

>  <mol_properties>  (4) 
{"1": {"label": "*1", "atom_type": "CO"}, "2": {"label": "*0", "atom_type": "Ct"}, "7": {"label": "*3", "atom_type": "Cdd"}, "11": {"label": "*4", "atom_type": "N3d"}, "12": {"label": "*2", "atom_type": "H0"}}

>  <type>  (4) 
ts

$$$$
