
     RDKit          3D

  4  3  0  0  0  0  0  0  0  0999 V2000
   -0.0057    0.0001   -0.0008 C   0  0  0  0  0  0  0  0  0  0  0  0
    1.1789   -0.0174    0.1563 O   0  0  0  0  0  0  0  0  0  0  0  0
   -0.5891    0.9399    0.0445 H   0  0  0  0  0  0  0  0  0  0  0  0
   -0.5841   -0.9226   -0.2001 H   0  0  0  0  0  0  0  0  0  0  0  0
  1  2  2  0
  1  3  1  0
  1  4  1  0
M  END
>  <reaction>  (1) 
kfir_rxn_5172

>  <mol_properties>  (1) 
{"0": {"label": "donator", "atom_type": "CO"}, "2": {"label": "d_hydrogen", "atom_type": "H0"}}

>  <type>  (1) 
r1h

$$$$

     RDKit          3D

  7  6  0  0  0  0  0  0  0  0999 V2000
    1.7224   -0.1968    0.0913 C   0  0  0  0  0  0  0  0  0  0  0  0
    0.5629    0.1599    0.0147 C   0  0  0  0  0  0  0  0  0  0  0  0
   -0.7537    0.5416   -0.0706 C   0  0  0  0  0  3  0  0  0  0  0  0
   -1.7777   -0.3424   -0.0575 O   0  0  0  0  0  0  0  0  0  0  0  0
    2.7397   -0.4988    0.1577 H   0  0  0  0  0  0  0  0  0  0  0  0
   -1.0677    1.5700   -0.1541 H   0  0  0  0  0  0  0  0  0  0  0  0
   -1.4259   -1.2335    0.0185 H   0  0  0  0  0  0  0  0  0  0  0  0
  1  2  3  0
  1  5  1  0
  2  3  1  0
  3  4  1  0
  3  6  1  0
  4  7  1  0
M  RAD  1   3   2
M  END
>  <reaction>  (2) 
kfir_rxn_5172

>  <mol_properties>  (2) 
{"0": {"label": "acceptor", "atom_type": "Cd"}}

>  <type>  (2) 
r2

$$$$

     RDKit          3D

  8  7  0  0  0  0  0  0  0  0999 V2000
    1.5028    0.0716   -0.1675 C   0  0  0  0  0  0  0  0  0  0  0  0
    0.2621   -0.1973    0.1184 C   0  0  0  0  0  0  0  0  0  0  0  0
   -0.9791   -0.4754    0.4035 C   0  0  0  0  0  0  0  0  0  0  0  0
   -1.9487    0.4175    0.7524 O   0  0  0  0  0  0  0  0  0  0  0  0
    1.8169    0.2882   -1.1840 H   0  0  0  0  0  0  0  0  0  0  0  0
    2.2718    0.0854    0.5988 H   0  0  0  0  0  0  0  0  0  0  0  0
   -1.3524   -1.4912    0.3832 H   0  0  0  0  0  0  0  0  0  0  0  0
   -1.5734    1.3013    0.7572 H   0  0  0  0  0  0  0  0  0  0  0  0
  1  2  2  0
  1  5  1  0
  1  6  1  0
  2  3  2  0
  3  4  1  0
  3  7  1  0
  4  8  1  0
M  END
>  <reaction>  (3) 
kfir_rxn_5172

>  <mol_properties>  (3) 
{"0": {"label": "acceptor", "atom_type": "Cd"}, "7": {"label": "a_hydrogen", "atom_type": "H0"}}

>  <type>  (3) 
r2h

$$$$

     RDKit          3D

 11  9  0  0  0  0  0  0  0  0999 V2000
    0.2292   -0.2855    1.4956 C   0  0  0  0  0  0  0  0  0  0  0  0
    0.2370    0.8112    0.8481 C   0  0  0  0  0  0  0  0  0  0  0  0
    0.2474    1.8535    0.0344 C   0  0  0  0  0  3  0  0  0  0  0  0
   -0.8499    2.4877   -0.4466 O   0  0  0  0  0  0  0  0  0  0  0  0
    0.2292   -0.4782    2.5603 H   0  0  0  0  0  0  0  0  0  0  0  0
    1.1683    2.3143   -0.2965 H   0  0  0  0  0  0  0  0  0  0  0  0
   -1.6374    2.0178   -0.1597 H   0  0  0  0  0  0  0  0  0  0  0  0
    0.1779   -2.4051   -0.1892 C   0  0  0  0  0  0  0  0  0  0  0  0
   -0.0081   -2.1225   -1.3207 O   0  0  0  0  0  0  0  0  0  0  0  0
    0.2127   -1.4157    0.7405 H   0  0  0  0  0  0  0  0  0  0  0  0
    0.3419   -3.4525    0.1618 H   0  0  0  0  0  0  0  0  0  0  0  0
  1  2  3  0
  1  5  1  0
  2  3  1  0
  3  4  1  0
  3  6  1  0
  4  7  1  0
  8  9  2  0
  8 10  1  0
  8 11  1  0
M  RAD  1   3   2
M  END
>  <reaction>  (4) 
kfir_rxn_5172

>  <mol_properties>  (4) 
{"0": {"label": "*3", "atom_type": "Ct"}, "1": {"label": "*4", "atom_type": "Ct"}, "7": {"label": "*1", "atom_type": "CO"}, "8": {"label": "*0", "atom_type": "O2d"}, "9": {"label": "*2", "atom_type": "H0"}}

>  <type>  (4) 
ts

$$$$
