
     RDKit          3D

  7  7  0  0  0  0  0  0  0  0999 V2000
   -0.7268   -0.0467    0.0634 C   0  0  0  0  0  0  0  0  0  0  0  0
    0.7235    0.1046    0.0109 C   0  0  0  0  0  0  0  0  0  0  0  0
    0.0414   -0.7158   -0.9186 O   0  0  0  0  0  0  0  0  0  0  0  0
   -1.3615    0.7523   -0.3079 H   0  0  0  0  0  0  0  0  0  0  0  0
   -1.1708   -0.6854    0.8209 H   0  0  0  0  0  0  0  0  0  0  0  0
    1.1518    1.0144   -0.3988 H   0  0  0  0  0  0  0  0  0  0  0  0
    1.3425   -0.4233    0.7300 H   0  0  0  0  0  0  0  0  0  0  0  0
  1  2  1  0
  1  3  1  0
  1  4  1  0
  1  5  1  0
  2  3  1  0
  2  6  1  0
  2  7  1  0
M  END
>  <reaction>  (1) 
kfir_rxn_10218

>  <mol_properties>  (1) 
{"0": {"label": "donator", "atom_type": "Cs"}, "3": {"label": "d_hydrogen", "atom_type": "H0"}}

>  <type>  (1) 
r1h

$$$$

     RDKit          3D

  7  6  0  0  0  0  0  0  0  0999 V2000
    0.2957    1.7744   -0.2652 O   0  0  0  0  0  1  0  0  0  0  0  0
    0.1775    0.5509   -0.0655 C   0  0  0  0  0  0  0  0  0  0  0  0
    1.3133   -0.2016    0.2938 C   0  0  0  0  0  0  0  0  0  0  0  0
    2.2819   -0.7248    0.5787 O   0  0  0  0  0  0  0  0  0  0  0  0
   -1.0599   -0.2683   -0.1587 C   0  0  0  0  0  0  0  0  0  0  0  0
   -1.0578   -1.4528    0.0574 O   0  0  0  0  0  0  0  0  0  0  0  0
   -1.9632    0.3007   -0.4391 H   0  0  0  0  0  0  0  0  0  0  0  0
  1  2  1  0
  2  5  1  0
  2  3  2  0
  3  4  2  0
  5  6  2  0
  5  7  1  0
M  RAD  1   1   2
M  END
>  <reaction>  (2) 
kfir_rxn_10218

>  <mol_properties>  (2) 
{"0": {"label": "acceptor", "atom_type": "O2s"}}

>  <type>  (2) 
r2

$$$$

     RDKit          3D

  8  7  0  0  0  0  0  0  0  0999 V2000
    2.5239   -0.6612   -0.4708 O   0  0  0  0  0  0  0  0  0  0  0  0
    1.4827   -0.1964   -0.3180 C   0  0  0  0  0  0  0  0  0  0  0  0
    0.2520    0.2657   -0.1185 C   0  0  0  0  0  0  0  0  0  0  0  0
   -0.0747    1.5717   -0.3208 O   0  0  0  0  0  0  0  0  0  0  0  0
   -0.7746   -0.6510    0.3287 C   0  0  0  0  0  0  0  0  0  0  0  0
   -1.9008   -0.2423    0.5142 O   0  0  0  0  0  0  0  0  0  0  0  0
   -1.0178    1.6170   -0.1014 H   0  0  0  0  0  0  0  0  0  0  0  0
   -0.4907   -1.7035    0.4866 H   0  0  0  0  0  0  0  0  0  0  0  0
  1  2  2  0
  2  3  2  0
  3  5  1  0
  3  4  1  0
  4  7  1  0
  5  6  2  0
  5  8  1  0
M  END
>  <reaction>  (3) 
kfir_rxn_10218

>  <mol_properties>  (3) 
{"0": {"label": "acceptor", "atom_type": "O2s"}, "7": {"label": "a_hydrogen", "atom_type": "H0"}}

>  <type>  (3) 
r2h

$$$$

     RDKit          3D

 14 13  0  0  0  0  0  0  0  0999 V2000
    0.5019   -1.3194    0.3236 O   0  0  0  0  0  0  0  0  0  0  0  0
    0.8932   -0.0504    0.4622 C   0  0  0  0  0  0  0  0  0  0  0  0
    0.9116    0.4870    1.6988 C   0  0  0  0  0  0  0  0  0  0  0  0
    0.9632    0.9323    2.7531 O   0  0  0  0  0  0  0  0  0  0  0  0
    1.2708    0.8224   -0.6440 C   0  0  0  0  0  0  0  0  0  0  0  0
    1.1988    0.4975   -1.8034 O   0  0  0  0  0  0  0  0  0  0  0  0
    1.6271    1.8286   -0.3448 H   0  0  0  0  0  0  0  0  0  0  0  0
   -1.8651   -1.1085   -0.5093 C   0  0  0  0  0  3  0  0  0  0  0  0
   -1.9290   -0.4846   -1.8172 C   0  0  0  0  0  0  0  0  0  0  0  0
   -2.1118    0.2317   -0.5669 O   0  0  0  0  0  0  0  0  0  0  0  0
   -0.5743   -1.3450   -0.0686 H   0  0  0  0  0  0  0  0  0  0  0  0
   -2.5831   -1.7683   -0.0266 H   0  0  0  0  0  0  0  0  0  0  0  0
   -1.0005   -0.2610   -2.3288 H   0  0  0  0  0  0  0  0  0  0  0  0
   -2.8314   -0.5502   -2.4148 H   0  0  0  0  0  0  0  0  0  0  0  0
  1  2  1  0
  1 11  1  0
  2  5  1  0
  2  3  2  0
  3  4  2  0
  5  6  2  0
  5  7  1  0
  8  9  1  0
  8 10  1  0
  8 12  1  0
  9 10  1  0
  9 13  1  0
  9 14  1  0
M  RAD  1   8   2
M  END
>  <reaction>  (4) 
kfir_rxn_10218

>  <mol_properties>  (4) 
{"0": {"label": "*1", "atom_type": "O2s"}, "1": {"label": "*0", "atom_type": "Cd"}, "7": {"label": "*3", "atom_type": "Cs"}, "9": {"label": "*4", "atom_type": "O2s"}, "10": {"label": "*2", "atom_type": "H0"}}

>  <type>  (4) 
ts

$$$$
