
     RDKit          3D

  7  6  0  0  0  0  0  0  0  0999 V2000
   -1.0240    0.8044   -0.4204 O   0  0  0  0  0  0  0  0  0  0  0  0
   -0.3365   -0.3409    0.0003 C   0  0  0  0  0  0  0  0  0  0  0  0
    1.1270   -0.1767   -0.0328 C   0  0  0  0  0  0  0  0  0  0  0  0
    2.2637   -0.0259   -0.0358 N   0  0  0  0  0  0  0  0  0  0  0  0
   -0.8050    1.5374    0.1584 H   0  0  0  0  0  0  0  0  0  0  0  0
   -0.6168   -0.6523    1.0127 H   0  0  0  0  0  0  0  0  0  0  0  0
   -0.6084   -1.1459   -0.6824 H   0  0  0  0  0  0  0  0  0  0  0  0
  1  2  1  0
  1  5  1  0
  2  3  1  0
  2  6  1  0
  2  7  1  0
  3  4  3  0
M  END
>  <reaction>  (1) 
kfir_rxn_5989

>  <mol_properties>  (1) 
{"0": {"label": "donator", "atom_type": "O2s"}, "4": {"label": "d_hydrogen", "atom_type": "H0"}}

>  <type>  (1) 
r1h

$$$$

     RDKit          3D

  7  6  0  0  0  0  0  0  0  0999 V2000
   -0.0135    1.4609   -0.8713 O   0  0  0  0  0  1  0  0  0  0  0  0
   -0.0044    0.4379    0.0216 C   0  0  0  0  0  0  0  0  0  0  0  0
   -1.2167   -0.4085   -0.0253 C   0  0  0  0  0  0  0  0  0  0  0  0
   -2.1632   -1.0518   -0.0561 N   0  0  0  0  0  0  0  0  0  0  0  0
    1.2246   -0.3841   -0.0223 C   0  0  0  0  0  0  0  0  0  0  0  0
    2.1839   -1.0084   -0.0506 N   0  0  0  0  0  0  0  0  0  0  0  0
   -0.0108    0.9540    1.0041 H   0  0  0  0  0  0  0  0  0  0  0  0
  1  2  1  0
  2  3  1  0
  2  5  1  0
  2  7  1  0
  3  4  3  0
  5  6  3  0
M  RAD  1   1   2
M  END
>  <reaction>  (2) 
kfir_rxn_5989

>  <mol_properties>  (2) 
{"0": {"label": "acceptor", "atom_type": "O2s"}}

>  <type>  (2) 
r2

$$$$

     RDKit          3D

  8  7  0  0  0  0  0  0  0  0999 V2000
   -0.1887    1.4678    0.1798 O   0  0  0  0  0  0  0  0  0  0  0  0
    0.0057    0.1070    0.4091 C   0  0  0  0  0  0  0  0  0  0  0  0
   -1.0979   -0.7231   -0.1204 C   0  0  0  0  0  0  0  0  0  0  0  0
   -1.9715   -1.3372   -0.5347 N   0  0  0  0  0  0  0  0  0  0  0  0
    1.2954   -0.3819   -0.1245 C   0  0  0  0  0  0  0  0  0  0  0  0
    2.3044   -0.7276   -0.5420 N   0  0  0  0  0  0  0  0  0  0  0  0
   -0.2148    1.6393   -0.7660 H   0  0  0  0  0  0  0  0  0  0  0  0
    0.0261   -0.0232    1.4939 H   0  0  0  0  0  0  0  0  0  0  0  0
  1  2  1  0
  1  7  1  0
  2  3  1  0
  2  5  1  0
  2  8  1  0
  3  4  3  0
  5  6  3  0
M  END
>  <reaction>  (3) 
kfir_rxn_5989

>  <mol_properties>  (3) 
{"0": {"label": "acceptor", "atom_type": "O2s"}, "7": {"label": "a_hydrogen", "atom_type": "H0"}}

>  <type>  (3) 
r2h

$$$$

     RDKit          3D

 14 12  0  0  0  0  0  0  0  0999 V2000
   -0.0502    0.7871   -0.9598 O   0  0  0  0  0  1  0  0  0  0  0  0
   -0.6916    1.4153    0.0857 C   0  0  0  0  0  0  0  0  0  0  0  0
   -2.0956    0.9924    0.2712 C   0  0  0  0  0  0  0  0  0  0  0  0
   -3.1893    0.6753    0.3915 N   0  0  0  0  0  0  0  0  0  0  0  0
    0.0595    1.2736    1.3526 C   0  0  0  0  0  0  0  0  0  0  0  0
    0.6869    1.1274    2.2999 N   0  0  0  0  0  0  0  0  0  0  0  0
   -0.7024    2.4853   -0.1693 H   0  0  0  0  0  0  0  0  0  0  0  0
    0.0634   -1.4005   -0.3551 O   0  0  0  0  0  0  0  0  0  0  0  0
    1.3682   -1.6417    0.0488 C   0  0  0  0  0  0  0  0  0  0  0  0
    2.3462   -1.6092   -1.0465 C   0  0  0  0  0  0  0  0  0  0  0  0
    3.1123   -1.5761   -1.8980 N   0  0  0  0  0  0  0  0  0  0  0  0
   -0.0545   -0.4350   -0.8889 H   0  0  0  0  0  0  0  0  0  0  0  0
    1.6783   -0.9433    0.8368 H   0  0  0  0  0  0  0  0  0  0  0  0
    1.3654   -2.6369    0.5071 H   0  0  0  0  0  0  0  0  0  0  0  0
  1  2  1  0
  2  3  1  0
  2  5  1  0
  2  7  1  0
  3  4  3  0
  5  6  3  0
  8  9  1  0
  8 12  1  0
  9 10  1  0
  9 13  1  0
  9 14  1  0
 10 11  3  0
M  RAD  1   1   2
M  END
>  <reaction>  (4) 
kfir_rxn_5989

>  <mol_properties>  (4) 
{"0": {"label": "*3", "atom_type": "O2s"}, "1": {"label": "*4", "atom_type": "Cs"}, "7": {"label": "*1", "atom_type": "O2s"}, "8": {"label": "*0", "atom_type": "Cs"}, "11": {"label": "*2", "atom_type": "H0"}}

>  <type>  (4) 
ts

$$$$
