
     RDKit          3D

  6  5  0  0  0  0  0  0  0  0999 V2000
   -0.6819   -0.1027   -0.0106 N   0  0  0  0  0  0  0  0  0  0  0  0
    0.6339    0.2147    0.0079 C   0  0  0  0  0  0  0  0  0  0  0  0
    1.0720    1.3374   -0.0025 O   0  0  0  0  0  0  0  0  0  0  0  0
   -1.3651    0.6341   -0.0350 H   0  0  0  0  0  0  0  0  0  0  0  0
   -0.9875   -1.0572   -0.0005 H   0  0  0  0  0  0  0  0  0  0  0  0
    1.2840   -0.6787    0.0343 H   0  0  0  0  0  0  0  0  0  0  0  0
  1  2  1  0
  1  4  1  0
  1  5  1  0
  2  3  2  0
  2  6  1  0
M  END
>  <reaction>  (1) 
kfir_rxn_1315

>  <mol_properties>  (1) 
{"0": {"label": "donator", "atom_type": "N3s"}, "3": {"label": "d_hydrogen", "atom_type": "H0"}}

>  <type>  (1) 
r1h

$$$$

     RDKit          3D

  7  6  0  0  0  0  0  0  0  0999 V2000
   -1.3409    1.0234    0.1140 O   0  0  0  0  0  1  0  0  0  0  0  0
   -0.6348   -0.1183    0.0484 C   0  0  0  0  0  0  0  0  0  0  0  0
    0.8807    0.1187    0.0062 C   0  0  0  0  0  0  0  0  0  0  0  0
    1.6671   -0.6528    0.4626 O   0  0  0  0  0  0  0  0  0  0  0  0
   -0.8526   -0.5621   -0.9466 H   0  0  0  0  0  0  0  0  0  0  0  0
   -0.8955   -0.8746    0.8021 H   0  0  0  0  0  0  0  0  0  0  0  0
    1.1760    1.0657   -0.4867 H   0  0  0  0  0  0  0  0  0  0  0  0
  1  2  1  0
  2  3  1  0
  2  5  1  0
  2  6  1  0
  3  4  2  0
  3  7  1  0
M  RAD  1   1   2
M  END
>  <reaction>  (2) 
kfir_rxn_1315

>  <mol_properties>  (2) 
{"0": {"label": "acceptor", "atom_type": "O2s"}}

>  <type>  (2) 
r2

$$$$

     RDKit          3D

  8  7  0  0  0  0  0  0  0  0999 V2000
    1.5069    0.8506    0.0871 O   0  0  0  0  0  0  0  0  0  0  0  0
    0.9333   -0.1960   -0.0499 C   0  0  0  0  0  0  0  0  0  0  0  0
   -0.5657   -0.2889   -0.0563 C   0  0  0  0  0  0  0  0  0  0  0  0
   -1.1748    0.9483    0.1107 O   0  0  0  0  0  0  0  0  0  0  0  0
    1.4850   -1.1460   -0.1785 H   0  0  0  0  0  0  0  0  0  0  0  0
   -0.8639   -0.7569   -1.0057 H   0  0  0  0  0  0  0  0  0  0  0  0
   -0.8570   -0.9892    0.7399 H   0  0  0  0  0  0  0  0  0  0  0  0
   -0.4646    1.5972    0.1942 H   0  0  0  0  0  0  0  0  0  0  0  0
  1  2  2  0
  2  3  1  0
  2  5  1  0
  3  4  1  0
  3  6  1  0
  3  7  1  0
  4  8  1  0
M  END
>  <reaction>  (3) 
kfir_rxn_1315

>  <mol_properties>  (3) 
{"0": {"label": "acceptor", "atom_type": "O2s"}, "7": {"label": "a_hydrogen", "atom_type": "H0"}}

>  <type>  (3) 
r2h

$$$$

     RDKit          3D

 13 11  0  0  0  0  0  0  0  0999 V2000
    1.2415    1.3682    0.4616 O   0  0  0  0  0  0  0  0  0  0  0  0
   -0.0276    1.8137    0.2137 C   0  0  0  0  0  0  0  0  0  0  0  0
   -1.1302    1.1622    1.0334 C   0  0  0  0  0  0  0  0  0  0  0  0
   -0.9827    0.2502    1.7929 O   0  0  0  0  0  0  0  0  0  0  0  0
   -0.3326    1.7241   -0.8401 H   0  0  0  0  0  0  0  0  0  0  0  0
   -0.0686    2.8799    0.4808 H   0  0  0  0  0  0  0  0  0  0  0  0
   -2.1294    1.6068    0.8533 H   0  0  0  0  0  0  0  0  0  0  0  0
    1.2128   -0.9930    0.3199 N   0  0  0  0  0  0  0  0  0  0  0  0
    0.1831   -1.4920   -0.4267 C   0  0  0  0  0  0  0  0  0  0  0  0
   -0.3451   -0.9091   -1.3430 O   0  0  0  0  0  1  0  0  0  0  0  0
    1.3865    0.2660    0.2421 H   0  0  0  0  0  0  0  0  0  0  0  0
    1.2217   -1.3455    1.2717 H   0  0  0  0  0  0  0  0  0  0  0  0
   -0.1012   -2.5254   -0.1516 H   0  0  0  0  0  0  0  0  0  0  0  0
  1  2  1  0
  1 11  1  0
  2  3  1  0
  2  5  1  0
  2  6  1  0
  3  4  2  0
  3  7  1  0
  8  9  2  3
  8 12  1  0
  9 10  1  0
  9 13  1  0
M  RAD  1  10   2
M  END
>  <reaction>  (4) 
kfir_rxn_1315

>  <mol_properties>  (4) 
{"0": {"label": "*1", "atom_type": "O2s"}, "1": {"label": "*0", "atom_type": "Cs"}, "7": {"label": "*3", "atom_type": "N3d"}, "8": {"label": "*4", "atom_type": "Cd"}, "10": {"label": "*2", "atom_type": "H0"}}

>  <type>  (4) 
ts

$$$$
