
     RDKit          3D

  7  6  0  0  0  0  0  0  0  0999 V2000
   -1.0240    0.8044   -0.4204 O   0  0  0  0  0  0  0  0  0  0  0  0
   -0.3365   -0.3409    0.0003 C   0  0  0  0  0  0  0  0  0  0  0  0
    1.1270   -0.1767   -0.0328 C   0  0  0  0  0  0  0  0  0  0  0  0
    2.2637   -0.0259   -0.0358 N   0  0  0  0  0  0  0  0  0  0  0  0
   -0.8050    1.5374    0.1584 H   0  0  0  0  0  0  0  0  0  0  0  0
   -0.6168   -0.6523    1.0127 H   0  0  0  0  0  0  0  0  0  0  0  0
   -0.6084   -1.1459   -0.6824 H   0  0  0  0  0  0  0  0  0  0  0  0
  1  2  1  0
  1  5  1  0
  2  3  1  0
  2  6  1  0
  2  7  1  0
  3  4  3  0
M  END
>  <reaction>  (1) 
kfir_rxn_9248

>  <mol_properties>  (1) 
{"1": {"label": "donator", "atom_type": "Cs"}, "5": {"label": "d_hydrogen", "atom_type": "H0"}}

>  <type>  (1) 
r1h

$$$$

     RDKit          3D

  7  7  0  0  0  0  0  0  0  0999 V2000
   -0.6451    1.1128   -0.1044 N   0  0  0  0  0  0  0  0  0  0  0  0
    0.6410    1.0758    0.0539 N   0  0  0  0  0  0  0  0  0  0  0  0
    1.0708   -0.2117    0.1359 C   0  0  0  0  0  0  0  0  0  0  0  0
   -0.0416   -0.9878    0.0175 C   0  0  0  0  0  3  0  0  0  0  0  0
   -1.0762   -0.1574   -0.1281 N   0  0  0  0  0  0  0  0  0  0  0  0
    2.1044   -0.4725    0.2684 H   0  0  0  0  0  0  0  0  0  0  0  0
   -2.0533   -0.3591   -0.2431 H   0  0  0  0  0  0  0  0  0  0  0  0
  1  2  2  0
  1  5  1  0
  2  3  1  0
  3  4  2  0
  3  6  1  0
  4  5  1  0
  5  7  1  0
M  RAD  1   4   2
M  END
>  <reaction>  (2) 
kfir_rxn_9248

>  <mol_properties>  (2) 
{"1": {"label": "acceptor", "atom_type": "N3s"}}

>  <type>  (2) 
r2

$$$$

     RDKit          3D

  8  8  0  0  0  0  0  0  0  0999 V2000
    0.4276   -1.1164   -0.5198 N   0  0  0  0  0  2  0  0  0  0  0  0
   -0.7321   -0.5944   -0.2494 N   0  0  0  0  0  0  0  0  0  0  0  0
   -0.6674    0.7414   -0.0172 C   0  0  0  0  0  0  0  0  0  0  0  0
    0.6571    1.1541   -0.1434 C   0  0  0  0  0  3  0  0  0  0  0  0
    1.2135   -0.0539   -0.4466 N   0  0  0  0  0  0  0  0  0  0  0  0
   -1.5302   -1.2079   -0.2394 H   0  0  0  0  0  0  0  0  0  0  0  0
   -1.5585    1.2976    0.2187 H   0  0  0  0  0  0  0  0  0  0  0  0
    2.1900   -0.2205   -0.6249 H   0  0  0  0  0  0  0  0  0  0  0  0
  1  2  1  0
  1  5  1  0
  2  3  1  0
  2  6  1  0
  3  4  2  0
  3  7  1  0
  4  5  1  0
  5  8  1  0
M  CHG  2   1  -1   4   1
M  END
>  <reaction>  (3) 
kfir_rxn_9248

>  <mol_properties>  (3) 
{"1": {"label": "acceptor", "atom_type": "N3s"}, "7": {"label": "a_hydrogen", "atom_type": "H0"}}

>  <type>  (3) 
r2h

$$$$

     RDKit          3D

 14 13  0  0  0  0  0  0  0  0999 V2000
   -1.0958   -0.5413   -0.3219 N   0  0  0  0  0  2  0  0  0  0  0  0
   -0.1883   -0.6520    0.6053 N   0  0  0  0  0  0  0  0  0  0  0  0
   -0.6156   -1.3533    1.6841 C   0  0  0  0  0  0  0  0  0  0  0  0
   -1.9131   -1.7291    1.4125 C   0  0  0  0  0  3  0  0  0  0  0  0
   -2.1203   -1.1937    0.1848 N   0  0  0  0  0  0  0  0  0  0  0  0
    0.0175   -1.5288    2.5344 H   0  0  0  0  0  0  0  0  0  0  0  0
   -2.9653   -1.2492   -0.3587 H   0  0  0  0  0  0  0  0  0  0  0  0
    1.5617    0.1142   -1.9085 O   0  0  0  0  0  0  0  0  0  0  0  0
    1.6665    0.6684   -0.6572 C   0  0  0  0  0  0  0  0  0  0  0  0
    1.2257    2.0354   -0.5130 C   0  0  0  0  0  0  0  0  0  0  0  0
    0.8151    3.0992   -0.3623 N   0  0  0  0  0  2  0  0  0  0  0  0
    0.6627    0.2311   -2.2326 H   0  0  0  0  0  0  0  0  0  0  0  0
    0.8502   -0.0130    0.1662 H   0  0  0  0  0  0  0  0  0  0  0  0
    2.6596    0.4946   -0.2484 H   0  0  0  0  0  0  0  0  0  0  0  0
  1  2  1  0
  1  5  1  0
  2  3  1  0
  2 13  1  0
  3  4  2  0
  3  6  1  0
  4  5  1  0
  5  7  1  0
  8  9  1  0
  8 12  1  0
  9 10  2  0
  9 14  1  0
 10 11  2  0
M  CHG  2   1  -1   4   1
M  RAD  1  11   2
M  END
>  <reaction>  (4) 
kfir_rxn_9248

>  <mol_properties>  (4) 
{"1": {"label": "*1", "atom_type": "N3s"}, "2": {"label": "*0", "atom_type": "Cd"}, "8": {"label": "*3", "atom_type": "Cd"}, "9": {"label": "*4", "atom_type": "Cdd"}, "12": {"label": "*2", "atom_type": "H0"}}

>  <type>  (4) 
ts

$$$$
