
     RDKit          3D

  6  5  0  0  0  0  0  0  0  0999 V2000
   -0.4901    0.0045    0.0014 C   0  0  0  0  0  0  0  0  0  0  0  0
    0.9645   -0.0089   -0.0027 C   0  0  0  0  0  0  0  0  0  0  0  0
    2.1108   -0.0195   -0.0059 N   0  0  0  0  0  0  0  0  0  0  0  0
   -0.8700   -0.6407   -0.7900 H   0  0  0  0  0  0  0  0  0  0  0  0
   -0.8625   -0.3540    0.9604 H   0  0  0  0  0  0  0  0  0  0  0  0
   -0.8530    1.0185   -0.1631 H   0  0  0  0  0  0  0  0  0  0  0  0
  1  2  1  0
  1  4  1  0
  1  5  1  0
  1  6  1  0
  2  3  3  0
M  END
>  <reaction>  (1) 
kfir_rxn_4303

>  <mol_properties>  (1) 
{"0": {"label": "donator", "atom_type": "Cs"}, "3": {"label": "d_hydrogen", "atom_type": "H0"}}

>  <type>  (1) 
r1h

$$$$

     RDKit          3D

  7  7  0  0  0  0  0  0  0  0999 V2000
   -0.0087   -0.9771    0.4985 N   0  0  0  0  0  0  0  0  0  0  0  0
   -1.0258   -0.2095    0.3773 N   0  0  0  0  0  0  0  0  0  0  0  0
   -0.7499    1.0803   -0.0055 N   0  0  0  0  0  0  0  0  0  0  0  0
    0.4942    1.1558   -0.1387 N   0  0  0  0  0  0  0  0  0  0  0  0
    1.0454   -0.1234    0.1664 C   0  0  0  0  0  0  0  0  0  0  0  0
    2.2188   -0.4176    0.1422 O   0  0  0  0  0  1  0  0  0  0  0  0
   -1.9740   -0.5085    0.5459 H   0  0  0  0  0  0  0  0  0  0  0  0
  1  5  2  0
  1  2  1  0
  2  3  1  0
  2  7  1  0
  3  4  2  0
  4  5  1  0
  5  6  1  0
M  RAD  1   6   2
M  END
>  <reaction>  (2) 
kfir_rxn_4303

>  <mol_properties>  (2) 
{"0": {"label": "acceptor", "atom_type": "N3s"}}

>  <type>  (2) 
r2

$$$$

     RDKit          3D

  8  8  0  0  0  0  0  0  0  0999 V2000
    2.2321    0.2415    0.0351 O   0  0  0  0  0  0  0  0  0  0  0  0
    1.0810   -0.0777    0.0301 C   0  0  0  0  0  0  0  0  0  0  0  0
    0.5306   -1.3900   -0.1173 N   0  0  0  0  0  0  0  0  0  0  0  0
   -0.7189   -1.3072   -0.1622 N   0  0  0  0  0  0  0  0  0  0  0  0
   -1.1242   -0.0254   -0.1420 N   0  0  0  0  0  0  0  0  0  0  0  0
   -0.0292    0.7513    0.1702 N   0  0  0  0  0  0  0  0  0  0  0  0
   -1.9681    0.1232    0.3952 H   0  0  0  0  0  0  0  0  0  0  0  0
   -0.0033    1.6843   -0.2093 H   0  0  0  0  0  0  0  0  0  0  0  0
  1  2  2  0
  2  6  1  0
  2  3  1  0
  3  4  2  0
  4  5  1  0
  5  6  1  0
  5  7  1  0
  6  8  1  0
M  END
>  <reaction>  (3) 
kfir_rxn_4303

>  <mol_properties>  (3) 
{"0": {"label": "acceptor", "atom_type": "N3s"}, "7": {"label": "a_hydrogen", "atom_type": "H0"}}

>  <type>  (3) 
r2h

$$$$

     RDKit          3D

 13 12  0  0  0  0  0  0  0  0999 V2000
    0.2101   -0.1412    1.2126 N   0  0  0  0  0  0  0  0  0  0  0  0
   -0.9266    0.5262    0.9925 N   0  0  0  0  0  0  0  0  0  0  0  0
   -1.8898   -0.2418    0.4835 N   0  0  0  0  0  0  0  0  0  0  0  0
   -1.4423   -1.4020    0.2755 N   0  0  0  0  0  0  0  0  0  0  0  0
   -0.0823   -1.4312    0.6771 C   0  0  0  0  0  0  0  0  0  0  0  0
    0.6998   -2.3311    0.5796 O   0  0  0  0  0  0  0  0  0  0  0  0
   -1.1233    1.4372    1.3710 H   0  0  0  0  0  0  0  0  0  0  0  0
    2.0056    0.9185   -0.3515 C   0  0  0  0  0  0  0  0  0  0  0  0
    1.2662    2.0911   -0.6106 C   0  0  0  0  0  0  0  0  0  0  0  0
    0.5703    3.0044   -0.7337 N   0  0  0  0  0  2  0  0  0  0  0  0
    1.1391    0.3232    0.6259 H   0  0  0  0  0  0  0  0  0  0  0  0
    2.0456    0.1850   -1.1497 H   0  0  0  0  0  0  0  0  0  0  0  0
    2.9174    1.0430    0.2234 H   0  0  0  0  0  0  0  0  0  0  0  0
  1  5  1  0
  1  2  1  0
  1 11  1  0
  2  3  1  0
  2  7  1  0
  3  4  2  0
  4  5  1  0
  5  6  2  0
  8  9  2  0
  8 12  1  0
  8 13  1  0
  9 10  2  0
M  RAD  1  10   2
M  END
>  <reaction>  (4) 
kfir_rxn_4303

>  <mol_properties>  (4) 
{"0": {"label": "*1", "atom_type": "N3s"}, "1": {"label": "*0", "atom_type": "N3s"}, "7": {"label": "*3", "atom_type": "Cd"}, "8": {"label": "*4", "atom_type": "Cdd"}, "10": {"label": "*2", "atom_type": "H0"}}

>  <type>  (4) 
ts

$$$$
