
     RDKit          3D

  7  6  0  0  0  0  0  0  0  0999 V2000
    1.3572   -0.1671    1.3611 O   0  0  0  0  0  0  0  0  0  0  0  0
    0.9236    0.0526    0.2798 C   0  0  0  0  0  0  0  0  0  0  0  0
   -0.5771   -0.0341   -0.0851 C   0  0  0  0  0  0  0  0  0  0  0  0
   -1.0319    1.5740   -0.6898 Cl  0  0  0  0  0  0  0  0  0  0  0  0
   -1.5652   -0.4943    1.2822 Cl  0  0  0  0  0  0  0  0  0  0  0  0
   -0.6988   -1.2311   -1.3932 Cl  0  0  0  0  0  0  0  0  0  0  0  0
    1.5409    0.3436   -0.5884 H   0  0  0  0  0  0  0  0  0  0  0  0
  1  2  2  0
  2  3  1  0
  2  7  1  0
  3  4  1  0
  3  5  1  0
  3  6  1  0
M  END
>  <reaction>  (1) 
kfir_rxn_11797

>  <mol_properties>  (1) 
{"1": {"label": "donator", "atom_type": "CO"}, "6": {"label": "d_hydrogen", "atom_type": "H0"}}

>  <type>  (1) 
r1h

$$$$

     RDKit          3D

  7  7  0  0  0  0  0  0  0  0999 V2000
    2.1173    0.2159   -0.7465 F   0  0  0  0  0  0  0  0  0  0  0  0
    0.8958    0.1038   -0.3131 C   0  0  0  0  0  0  0  0  0  0  0  0
    0.1698    1.1809    0.1961 C   0  0  0  0  0  0  0  0  0  0  0  0
   -1.0053    0.9932    0.5955 N   0  0  0  0  0  0  0  0  0  0  0  0
   -1.5959   -0.2293    0.5481 N   0  0  0  0  0  2  0  0  0  0  0  0
   -0.9111   -1.2019    0.0773 N   0  0  0  0  0  0  0  0  0  0  0  0
    0.3295   -1.0627   -0.3573 N   0  0  0  0  0  0  0  0  0  0  0  0
  1  2  1  0
  2  3  2  0
  2  7  1  0
  3  4  2  0
  4  5  1  0
  5  6  1  0
  6  7  2  0
M  RAD  1   5   2
M  END
>  <reaction>  (2) 
kfir_rxn_11797

>  <mol_properties>  (2) 
{"3": {"label": "acceptor", "atom_type": "N5dc"}}

>  <type>  (2) 
r2

$$$$

     RDKit          3D

  8  8  0  0  0  0  0  0  0  0999 V2000
    2.4207   -0.2830    0.0534 F   0  0  0  0  0  0  0  0  0  0  0  0
    1.1361   -0.0236    0.0359 C   0  0  0  0  0  0  0  0  0  0  0  0
    0.2566   -1.1485   -0.1050 C   0  0  0  0  0  0  0  0  0  0  0  0
   -0.9661   -0.6536   -0.0972 N   0  0  0  0  0  4  0  0  0  0  0  0
   -1.3879    0.6371    0.0164 N   0  0  0  0  0  2  0  0  0  0  0  0
   -0.5116    1.5274    0.1339 N   0  0  0  0  0  0  0  0  0  0  0  0
    0.8130    1.2180    0.1479 N   0  0  0  0  0  0  0  0  0  0  0  0
   -1.7608   -1.2739   -0.1853 H   0  0  0  0  0  0  0  0  0  0  0  0
  1  2  1  0
  2  3  2  0
  2  7  1  0
  3  4  2  0
  4  5  1  0
  4  8  1  0
  5  6  1  0
  6  7  2  0
M  CHG  2   4   1   5  -1
M  END
>  <reaction>  (3) 
kfir_rxn_11797

>  <mol_properties>  (3) 
{"3": {"label": "acceptor", "atom_type": "N5dc"}, "7": {"label": "a_hydrogen", "atom_type": "H0"}}

>  <type>  (3) 
r2h

$$$$

     RDKit          3D

 14 13  0  0  0  0  0  0  0  0999 V2000
    0.8718   -4.5511    1.3516 F   0  0  0  0  0  0  0  0  0  0  0  0
    0.3001   -3.3760    1.3262 C   0  0  0  0  0  0  0  0  0  0  0  0
    0.6652   -2.4578    0.3061 C   0  0  0  0  0  0  0  0  0  0  0  0
   -0.0025   -1.3742    0.4558 N   0  0  0  0  0  4  0  0  0  0  0  0
   -0.9212   -1.0567    1.3905 N   0  0  0  0  0  2  0  0  0  0  0  0
   -1.1806   -1.9428    2.2604 N   0  0  0  0  0  0  0  0  0  0  0  0
   -0.5712   -3.1387    2.2522 N   0  0  0  0  0  0  0  0  0  0  0  0
    1.3314    0.1348   -2.1247 O   0  0  0  0  0  0  0  0  0  0  0  0
    0.5273    0.4662   -1.3398 C   0  0  0  0  0  3  0  0  0  0  0  0
   -0.2054    1.8342   -1.2867 C   0  0  0  0  0  0  0  0  0  0  0  0
   -1.9296    1.4602   -1.4134 Cl  0  0  0  0  0  0  0  0  0  0  0  0
    0.3020    2.9105   -2.5802 Cl  0  0  0  0  0  0  0  0  0  0  0  0
    0.1777    2.5224    0.2970 Cl  0  0  0  0  0  0  0  0  0  0  0  0
    0.1677   -0.4225   -0.3449 H   0  0  0  0  0  0  0  0  0  0  0  0
  1  2  1  0
  2  3  2  0
  2  7  1  0
  3  4  2  0
  4  5  1  0
  4 14  1  0
  5  6  1  0
  6  7  2  0
  8  9  2  0
  9 10  1  0
 10 11  1  0
 10 12  1  0
 10 13  1  0
M  CHG  2   4   1   5  -1
M  RAD  1   9   2
M  END
>  <reaction>  (4) 
kfir_rxn_11797

>  <mol_properties>  (4) 
{"3": {"label": "*1", "atom_type": "N5dc"}, "4": {"label": "*0", "atom_type": "N1sc"}, "7": {"label": "*4", "atom_type": "O2d"}, "8": {"label": "*3", "atom_type": "CO"}, "13": {"label": "*2", "atom_type": "H0"}}

>  <type>  (4) 
ts

$$$$
