
     RDKit          3D

  7  6  0  0  0  0  0  0  0  0999 V2000
    1.6899   -0.1839   -0.0115 C   0  0  0  0  0  0  0  0  0  0  0  0
    0.5000   -0.0544   -0.0034 C   0  0  0  0  0  0  0  0  0  0  0  0
   -0.9469    0.1030    0.0064 C   0  0  0  0  0  0  0  0  0  0  0  0
    2.7470   -0.2989   -0.0186 H   0  0  0  0  0  0  0  0  0  0  0  0
   -1.4140   -0.5835   -0.7010 H   0  0  0  0  0  0  0  0  0  0  0  0
   -1.2257    1.1206   -0.2707 H   0  0  0  0  0  0  0  0  0  0  0  0
   -1.3502   -0.1030    0.9988 H   0  0  0  0  0  0  0  0  0  0  0  0
  1  2  3  0
  1  4  1  0
  2  3  1  0
  3  5  1  0
  3  6  1  0
  3  7  1  0
M  END
>  <reaction>  (1) 
kfir_rxn_13651

>  <mol_properties>  (1) 
{"2": {"label": "donator", "atom_type": "Cs"}, "4": {"label": "d_hydrogen", "atom_type": "H0"}}

>  <type>  (1) 
r1h

$$$$

     RDKit          3D

  7  7  0  0  0  0  0  0  0  0999 V2000
    1.6410   -0.1736   -0.2133 O   0  0  0  0  0  0  0  0  0  0  0  0
    0.7709   -1.1009    0.0372 C   0  0  0  0  0  3  0  0  0  0  0  0
   -0.5127   -0.6809    0.0426 C   0  0  0  0  0  0  0  0  0  0  0  0
   -0.3286    0.6963   -0.2510 C   0  0  0  0  0  0  0  0  0  0  0  0
    0.9226    1.0285   -0.4073 N   0  0  0  0  0  0  0  0  0  0  0  0
   -1.4145   -1.2355    0.2195 H   0  0  0  0  0  0  0  0  0  0  0  0
   -1.0786    1.4661   -0.3546 H   0  0  0  0  0  0  0  0  0  0  0  0
  1  2  1  0
  1  5  1  0
  2  3  2  0
  3  4  1  0
  3  6  1  0
  4  5  2  0
  4  7  1  0
M  RAD  1   2   2
M  END
>  <reaction>  (2) 
kfir_rxn_13651

>  <mol_properties>  (2) 
{"1": {"label": "acceptor", "atom_type": "Cd"}}

>  <type>  (2) 
r2

$$$$

     RDKit          3D

  8  8  0  0  0  0  0  0  0  0999 V2000
    1.0625    0.1000    0.1457 C   0  0  0  0  0  0  0  0  0  0  0  0
   -0.0198    0.6562    0.7303 C   0  0  0  0  0  0  0  0  0  0  0  0
   -1.0600   -0.2414    0.3817 C   0  0  0  0  0  0  0  0  0  0  0  0
   -0.6257   -1.2322   -0.3409 N   0  0  0  0  0  0  0  0  0  0  0  0
    0.7230   -1.0184   -0.4928 O   0  0  0  0  0  0  0  0  0  0  0  0
    2.1030    0.3758    0.0990 H   0  0  0  0  0  0  0  0  0  0  0  0
   -0.0747    1.5569    1.3147 H   0  0  0  0  0  0  0  0  0  0  0  0
   -2.1082   -0.1970    0.6337 H   0  0  0  0  0  0  0  0  0  0  0  0
  1  2  2  0
  1  5  1  0
  1  6  1  0
  2  3  1  0
  2  7  1  0
  3  4  2  0
  3  8  1  0
  4  5  1  0
M  END
>  <reaction>  (3) 
kfir_rxn_13651

>  <mol_properties>  (3) 
{"1": {"label": "acceptor", "atom_type": "Cd"}, "7": {"label": "a_hydrogen", "atom_type": "H0"}}

>  <type>  (3) 
r2h

$$$$

     RDKit          3D

 14 13  0  0  0  0  0  0  0  0999 V2000
   -1.2831    0.6635    1.7278 O   0  0  0  0  0  0  0  0  0  0  0  0
   -0.4237    0.2193    0.8426 C   0  0  0  0  0  3  0  0  0  0  0  0
    0.6478    1.0295    0.7019 C   0  0  0  0  0  0  0  0  0  0  0  0
    0.3432    2.0585    1.6310 C   0  0  0  0  0  0  0  0  0  0  0  0
   -0.7883    1.8651    2.2471 N   0  0  0  0  0  0  0  0  0  0  0  0
    1.4987    0.9163    0.0560 H   0  0  0  0  0  0  0  0  0  0  0  0
    0.9168    2.9406    1.8723 H   0  0  0  0  0  0  0  0  0  0  0  0
    1.0918   -2.5261   -2.1038 C   0  0  0  0  0  0  0  0  0  0  0  0
    0.1584   -2.3641   -1.3686 C   0  0  0  0  0  0  0  0  0  0  0  0
   -0.9422   -2.1344   -0.4744 C   0  0  0  0  0  0  0  0  0  0  0  0
    1.9129   -2.6836   -2.7612 H   0  0  0  0  0  0  0  0  0  0  0  0
   -0.7451   -1.1151    0.1142 H   0  0  0  0  0  0  0  0  0  0  0  0
   -1.0328   -2.8951    0.2997 H   0  0  0  0  0  0  0  0  0  0  0  0
   -1.8902   -1.9850   -0.9893 H   0  0  0  0  0  0  0  0  0  0  0  0
  1  2  1  0
  1  5  1  0
  2  3  2  0
  3  4  1  0
  3  6  1  0
  4  5  2  0
  4  7  1  0
  8  9  3  0
  8 11  1  0
  9 10  1  0
 10 12  1  0
 10 13  1  0
 10 14  1  0
M  RAD  1   2   2
M  END
>  <reaction>  (4) 
kfir_rxn_13651

>  <mol_properties>  (4) 
{"0": {"label": "*4", "atom_type": "O2s"}, "1": {"label": "*3", "atom_type": "Cd"}, "8": {"label": "*0", "atom_type": "Ct"}, "9": {"label": "*1", "atom_type": "Cs"}, "11": {"label": "*2", "atom_type": "H0"}}

>  <type>  (4) 
ts

$$$$
