
     RDKit          3D

  7  7  0  0  0  0  0  0  0  0999 V2000
    0.0194   -0.9489   -0.0769 O   0  0  0  0  0  0  0  0  0  0  0  0
    1.0462   -0.0829    0.0216 C   0  0  0  0  0  0  0  0  0  0  0  0
    0.6724    1.1224    0.2360 N   0  0  0  0  0  0  0  0  0  0  0  0
   -0.7174    1.0852    0.2894 N   0  0  0  0  0  0  0  0  0  0  0  0
   -1.0417   -0.1388    0.1018 C   0  0  0  0  0  0  0  0  0  0  0  0
    2.0476   -0.4640   -0.0840 H   0  0  0  0  0  0  0  0  0  0  0  0
   -2.0264   -0.5731    0.0725 H   0  0  0  0  0  0  0  0  0  0  0  0
  1  2  1  0
  1  5  1  0
  2  3  2  0
  2  6  1  0
  3  4  1  0
  4  5  2  0
  5  7  1  0
M  END
>  <reaction>  (1) 
kfir_rxn_8536

>  <mol_properties>  (1) 
{"1": {"label": "donator", "atom_type": "Cd"}, "5": {"label": "d_hydrogen", "atom_type": "H0"}}

>  <type>  (1) 
r1h

$$$$

     RDKit          3D

  7  7  0  0  0  0  0  0  0  0999 V2000
   -1.7673   -0.6497   -0.0905 O   0  0  0  0  0  0  0  0  0  0  0  0
   -0.5040   -1.0286   -0.3333 N   0  0  0  0  0  2  0  0  0  0  0  0
    0.2497   -0.0019   -0.0549 C   0  0  0  0  0  0  0  0  0  0  0  0
   -0.6211    1.0349    0.3744 C   0  0  0  0  0  0  0  0  0  0  0  0
   -1.8282    0.6552    0.3559 N   0  0  0  0  0  0  0  0  0  0  0  0
    1.6645   -0.0151   -0.1880 C   0  0  0  0  0  0  0  0  0  0  0  0
    2.8064    0.0052   -0.2849 N   0  0  0  0  0  0  0  0  0  0  0  0
  1  5  1  0
  1  2  1  0
  2  3  1  0
  3  6  1  0
  3  4  2  0
  4  5  2  0
  6  7  3  0
M  RAD  1   2   2
M  END
>  <reaction>  (2) 
kfir_rxn_8536

>  <mol_properties>  (2) 
{"3": {"label": "acceptor", "atom_type": "Cd"}}

>  <type>  (2) 
r2

$$$$

     RDKit          3D

  8  8  0  0  0  0  0  0  0  0999 V2000
   -0.6103    0.8141    0.0329 C   0  0  0  0  0  0  0  0  0  0  0  0
   -1.7842    0.3099    0.2352 N   0  0  0  0  0  0  0  0  0  0  0  0
   -1.6273   -1.0317    0.1738 O   0  0  0  0  0  0  0  0  0  0  0  0
   -0.3598   -1.3798   -0.0664 N   0  0  0  0  0  0  0  0  0  0  0  0
    0.2983   -0.2585   -0.1594 C   0  0  0  0  0  0  0  0  0  0  0  0
    1.6978   -0.2097   -0.4140 C   0  0  0  0  0  0  0  0  0  0  0  0
    2.8226   -0.1211   -0.6175 N   0  0  0  0  0  0  0  0  0  0  0  0
   -0.4370    1.8768    0.0271 H   0  0  0  0  0  0  0  0  0  0  0  0
  1  5  1  0
  1  2  2  0
  1  8  1  0
  2  3  1  0
  3  4  1  0
  4  5  2  0
  5  6  1  0
  6  7  3  0
M  END
>  <reaction>  (3) 
kfir_rxn_8536

>  <mol_properties>  (3) 
{"3": {"label": "acceptor", "atom_type": "Cd"}, "7": {"label": "a_hydrogen", "atom_type": "H0"}}

>  <type>  (3) 
r2h

$$$$

     RDKit          3D

 14 14  0  0  0  0  0  0  0  0999 V2000
    1.1937   -2.1301    2.0424 O   0  0  0  0  0  0  0  0  0  0  0  0
    0.0988   -2.7140    1.5398 N   0  0  0  0  0  2  0  0  0  0  0  0
   -0.3734   -1.8860    0.6509 C   0  0  0  0  0  0  0  0  0  0  0  0
    0.4821   -0.7536    0.6225 C   0  0  0  0  0  0  0  0  0  0  0  0
    1.4283   -0.9143    1.4717 N   0  0  0  0  0  0  0  0  0  0  0  0
   -1.5489   -2.1460   -0.1062 C   0  0  0  0  0  0  0  0  0  0  0  0
   -2.4946   -2.3118   -0.7324 N   0  0  0  0  0  0  0  0  0  0  0  0
   -0.2672    2.4849   -0.3519 O   0  0  0  0  0  0  0  0  0  0  0  0
    0.3599    1.4133   -0.8546 C   0  0  0  0  0  0  0  0  0  0  0  0
    0.8435    1.5627   -2.0196 N   0  0  0  0  0  0  0  0  0  0  0  0
    0.5204    2.8815   -2.3687 N   0  0  0  0  0  0  0  0  0  0  0  0
   -0.1196    3.3646   -1.3700 C   0  0  0  0  0  0  0  0  0  0  0  0
    0.4126    0.3324   -0.1201 H   0  0  0  0  0  0  0  0  0  0  0  0
   -0.5356    4.3511   -1.2557 H   0  0  0  0  0  0  0  0  0  0  0  0
  1  5  1  0
  1  2  1  0
  2  3  1  0
  3  6  1  0
  3  4  2  0
  4  5  2  0
  6  7  3  0
  8  9  1  0
  8 12  1  0
  9 10  2  0
  9 13  1  0
 10 11  1  0
 11 12  2  0
 12 14  1  0
M  RAD  1   2   2
M  END
>  <reaction>  (4) 
kfir_rxn_8536

>  <mol_properties>  (4) 
{"3": {"label": "*3", "atom_type": "Cdd"}, "4": {"label": "*4", "atom_type": "N3d"}, "7": {"label": "*0", "atom_type": "O2s"}, "8": {"label": "*1", "atom_type": "Cd"}, "12": {"label": "*2", "atom_type": "H0"}}

>  <type>  (4) 
ts

$$$$
