
     RDKit          3D

  7  6  0  0  0  0  0  0  0  0999 V2000
   -0.2485    1.7413   -0.3992 O   0  0  0  0  0  0  0  0  0  0  0  0
    0.0502    0.5901   -0.2826 C   0  0  0  0  0  0  0  0  0  0  0  0
    1.4448    0.1264   -0.3338 C   0  0  0  0  0  0  0  0  0  0  0  0
    2.5364   -0.2222   -0.3757 N   0  0  0  0  0  0  0  0  0  0  0  0
   -1.0118   -0.4953   -0.0692 C   0  0  0  0  0  0  0  0  0  0  0  0
   -0.7311   -1.6469    0.0488 O   0  0  0  0  0  0  0  0  0  0  0  0
   -2.0400   -0.0934   -0.0387 H   0  0  0  0  0  0  0  0  0  0  0  0
  1  2  2  0
  2  3  1  0
  2  5  1  0
  3  4  3  0
  5  6  2  0
  5  7  1  0
M  END
>  <reaction>  (1) 
kfir_rxn_12959

>  <mol_properties>  (1) 
{"4": {"label": "donator", "atom_type": "CO"}, "6": {"label": "d_hydrogen", "atom_type": "H0"}}

>  <type>  (1) 
r1h

$$$$

     RDKit          3D

  6  5  0  0  0  0  0  0  0  0999 V2000
   -0.4438    0.0161   -0.1392 C   0  0  0  0  0  0  0  0  0  0  0  0
    1.0624    0.0236   -0.1405 C   0  0  0  0  0  3  0  0  0  0  0  0
    1.7977   -0.0922    0.7680 O   0  0  0  0  0  0  0  0  0  0  0  0
   -0.8370   -0.1185    0.8708 H   0  0  0  0  0  0  0  0  0  0  0  0
   -0.7939    0.9566   -0.5651 H   0  0  0  0  0  0  0  0  0  0  0  0
   -0.7855   -0.7857   -0.7940 H   0  0  0  0  0  0  0  0  0  0  0  0
  1  2  1  0
  1  4  1  0
  1  5  1  0
  1  6  1  0
  2  3  2  0
M  RAD  1   2   2
M  END
>  <reaction>  (2) 
kfir_rxn_12959

>  <mol_properties>  (2) 
{"1": {"label": "acceptor", "atom_type": "CO"}}

>  <type>  (2) 
r2

$$$$

     RDKit          3D

  7  6  0  0  0  0  0  0  0  0999 V2000
   -0.6468   -0.0443   -0.0231 C   0  0  0  0  0  0  0  0  0  0  0  0
    0.8470    0.0371    0.0688 C   0  0  0  0  0  0  0  0  0  0  0  0
    1.4866   -0.2280    1.0479 O   0  0  0  0  0  0  0  0  0  0  0  0
   -1.0466    0.9363   -0.2943 H   0  0  0  0  0  0  0  0  0  0  0  0
   -0.9229   -0.7318   -0.8269 H   0  0  0  0  0  0  0  0  0  0  0  0
   -1.0759   -0.3772    0.9198 H   0  0  0  0  0  0  0  0  0  0  0  0
    1.3584    0.3712   -0.8589 H   0  0  0  0  0  0  0  0  0  0  0  0
  1  2  1  0
  1  4  1  0
  1  5  1  0
  1  6  1  0
  2  3  2  0
  2  7  1  0
M  END
>  <reaction>  (3) 
kfir_rxn_12959

>  <mol_properties>  (3) 
{"1": {"label": "acceptor", "atom_type": "CO"}, "6": {"label": "a_hydrogen", "atom_type": "H0"}}

>  <type>  (3) 
r2h

$$$$

     RDKit          3D

 13 11  0  0  0  0  0  0  0  0999 V2000
   -0.8504   -2.8786   -0.4167 C   0  0  0  0  0  0  0  0  0  0  0  0
    0.4402   -2.2273   -0.7595 C   0  0  0  0  0  3  0  0  0  0  0  0
    1.2591   -2.4209   -1.5650 O   0  0  0  0  0  0  0  0  0  0  0  0
   -1.0013   -3.7712   -1.0238 H   0  0  0  0  0  0  0  0  0  0  0  0
   -0.8524   -3.1219    0.6461 H   0  0  0  0  0  0  0  0  0  0  0  0
   -1.6374   -2.1457   -0.6000 H   0  0  0  0  0  0  0  0  0  0  0  0
   -0.8640    0.3794   -0.9738 O   0  0  0  0  0  0  0  0  0  0  0  0
   -0.3489    0.7817    0.0496 C   0  0  0  0  0  0  0  0  0  0  0  0
   -0.3137    2.1957    0.4121 C   0  0  0  0  0  0  0  0  0  0  0  0
   -0.3079    3.2972    0.7349 N   0  0  0  0  0  0  0  0  0  0  0  0
    0.4396   -0.1403    0.9205 C   0  0  0  0  0  0  0  0  0  0  0  0
    0.5211   -0.2121    2.1052 O   0  0  0  0  0  0  0  0  0  0  0  0
    0.7626   -1.0753    0.1738 H   0  0  0  0  0  0  0  0  0  0  0  0
  1  2  1  0
  1  4  1  0
  1  5  1  0
  1  6  1  0
  2  3  2  0
  7  8  2  0
  8  9  1  0
  8 11  1  0
  9 10  3  0
 11 12  2  0
 11 13  1  0
M  RAD  1   2   2
M  END
>  <reaction>  (4) 
kfir_rxn_12959

>  <mol_properties>  (4) 
{"1": {"label": "*3", "atom_type": "CO"}, "2": {"label": "*4", "atom_type": "O2d"}, "7": {"label": "*0", "atom_type": "CO"}, "10": {"label": "*1", "atom_type": "CO"}, "12": {"label": "*2", "atom_type": "H0"}}

>  <type>  (4) 
ts

$$$$
