
     RDKit          3D

  5  4  0  0  0  0  0  0  0  0999 V2000
    0.0000    0.0000    0.0000 C   0  0  0  0  0  0  0  0  0  0  0  0
   -0.6486   -0.7720   -0.4113 H   0  0  0  0  0  0  0  0  0  0  0  0
   -0.3482    0.9787   -0.3267 H   0  0  0  0  0  0  0  0  0  0  0  0
   -0.0223   -0.0487    1.0876 H   0  0  0  0  0  0  0  0  0  0  0  0
    1.0191   -0.1580   -0.3496 H   0  0  0  0  0  0  0  0  0  0  0  0
  1  2  1  0
  1  3  1  0
  1  4  1  0
  1  5  1  0
M  END
>  <reaction>  (1) 
kfir_rxn_5161

>  <mol_properties>  (1) 
{"0": {"label": "donator", "atom_type": "Cs"}, "1": {"label": "d_hydrogen", "atom_type": "H0"}}

>  <type>  (1) 
r1h

$$$$

     RDKit          3D

  7  6  0  0  0  0  0  0  0  0999 V2000
    1.7226   -0.1951    0.0912 C   0  0  0  0  0  0  0  0  0  0  0  0
    0.5628    0.1604    0.0147 C   0  0  0  0  0  0  0  0  0  0  0  0
   -0.7543    0.5408   -0.0706 C   0  0  0  0  0  3  0  0  0  0  0  0
   -1.7774   -0.3442   -0.0573 O   0  0  0  0  0  0  0  0  0  0  0  0
    2.7403   -0.4960    0.1575 H   0  0  0  0  0  0  0  0  0  0  0  0
   -1.0692    1.5689   -0.1540 H   0  0  0  0  0  0  0  0  0  0  0  0
   -1.4248   -1.2349    0.0186 H   0  0  0  0  0  0  0  0  0  0  0  0
  1  2  3  0
  1  5  1  0
  2  3  1  0
  3  4  1  0
  3  6  1  0
  4  7  1  0
M  RAD  1   3   2
M  END
>  <reaction>  (2) 
kfir_rxn_5161

>  <mol_properties>  (2) 
{"2": {"label": "acceptor", "atom_type": "Cs"}}

>  <type>  (2) 
r2

$$$$

     RDKit          3D

  8  7  0  0  0  0  0  0  0  0999 V2000
    1.8755    0.0087   -0.3125 C   0  0  0  0  0  0  0  0  0  0  0  0
    0.6942   -0.1768   -0.2515 C   0  0  0  0  0  0  0  0  0  0  0  0
   -0.7557   -0.3636   -0.1629 C   0  0  0  0  0  0  0  0  0  0  0  0
   -1.4886    0.6056   -0.8787 O   0  0  0  0  0  0  0  0  0  0  0  0
    2.9260    0.1640   -0.3742 H   0  0  0  0  0  0  0  0  0  0  0  0
   -1.0251   -1.3300   -0.5912 H   0  0  0  0  0  0  0  0  0  0  0  0
   -1.0444   -0.3826    0.8950 H   0  0  0  0  0  0  0  0  0  0  0  0
   -1.1818    1.4746   -0.6137 H   0  0  0  0  0  0  0  0  0  0  0  0
  1  2  3  0
  1  5  1  0
  2  3  1  0
  3  4  1  0
  3  6  1  0
  3  7  1  0
  4  8  1  0
M  END
>  <reaction>  (3) 
kfir_rxn_5161

>  <mol_properties>  (3) 
{"2": {"label": "acceptor", "atom_type": "Cs"}, "7": {"label": "a_hydrogen", "atom_type": "H0"}}

>  <type>  (3) 
r2h

$$$$

     RDKit          3D

 12 10  0  0  0  0  0  0  0  0999 V2000
   -1.1475    1.6163   -1.0721 C   0  0  0  0  0  0  0  0  0  0  0  0
   -0.5323    0.9393   -0.2953 C   0  0  0  0  0  0  0  0  0  0  0  0
    0.2135    0.0556    0.5680 C   0  0  0  0  0  0  0  0  0  0  0  0
    1.5977    0.2146    0.5388 O   0  0  0  0  0  0  0  0  0  0  0  0
   -1.6964    2.2332   -1.7426 H   0  0  0  0  0  0  0  0  0  0  0  0
   -0.1168    0.0968    1.6046 H   0  0  0  0  0  0  0  0  0  0  0  0
    1.8705    0.3615   -0.3692 H   0  0  0  0  0  0  0  0  0  0  0  0
   -0.2565   -2.5031   -0.2440 C   0  0  0  0  0  3  0  0  0  0  0  0
   -0.0676   -1.1121    0.2048 H   0  0  0  0  0  0  0  0  0  0  0  0
   -0.3885   -2.3893   -1.3146 H   0  0  0  0  0  0  0  0  0  0  0  0
    0.6700   -2.9759    0.0629 H   0  0  0  0  0  0  0  0  0  0  0  0
   -1.1410   -2.8253    0.2947 H   0  0  0  0  0  0  0  0  0  0  0  0
  1  2  3  0
  1  5  1  0
  2  3  1  0
  3  4  1  0
  3  6  1  0
  3  9  1  0
  4  7  1  0
  8 10  1  0
  8 11  1  0
  8 12  1  0
M  RAD  1   8   2
M  END
>  <reaction>  (4) 
kfir_rxn_5161

>  <mol_properties>  (4) 
{"1": {"label": "*0", "atom_type": "Ct"}, "2": {"label": "*1", "atom_type": "Cs"}, "7": {"label": "*3", "atom_type": "Cs"}, "8": {"label": "*2", "atom_type": "H0"}, "9": {"label": "*4", "atom_type": "H0"}}

>  <type>  (4) 
ts

$$$$
