
     RDKit          3D

  7  7  0  0  0  0  0  0  0  0999 V2000
    1.6064   -0.4313    0.1905 N   0  0  0  0  0  0  0  0  0  0  0  0
    0.3982   -0.1725    0.0701 C   0  0  0  0  0  0  0  0  0  0  0  0
   -0.6051   -1.0481    0.3497 O   0  0  0  0  0  0  0  0  0  0  0  0
   -1.7906   -0.4044    0.0958 N   0  0  0  0  0  0  0  0  0  0  0  0
   -1.5819    0.7348   -0.2956 N   0  0  0  0  0  0  0  0  0  0  0  0
   -0.2229    0.9708   -0.3436 O   0  0  0  0  0  0  0  0  0  0  0  0
    2.1958    0.3506   -0.0669 H   0  0  0  0  0  0  0  0  0  0  0  0
  1  2  2  3
  1  7  1  0
  2  3  1  0
  2  6  1  0
  3  4  1  0
  4  5  2  0
  5  6  1  0
M  END
>  <reaction>  (1) 
kfir_rxn_13897

>  <mol_properties>  (1) 
{"0": {"label": "donator", "atom_type": "N3d"}, "6": {"label": "d_hydrogen", "atom_type": "H0"}}

>  <type>  (1) 
r1h

$$$$

     RDKit          3D

  7  7  0  0  0  0  0  0  0  0999 V2000
   -0.3098    0.7589    0.0547 N   0  0  0  0  0  0  0  0  0  0  0  0
   -0.5126   -0.5888   -0.0325 C   0  0  0  0  0  0  0  0  0  0  0  0
    0.6202   -1.2226   -0.0897 N   0  0  0  0  0  0  0  0  0  0  0  0
    1.6333   -0.2545   -0.0386 N   0  0  0  0  0  0  0  0  0  0  0  0
    1.0411    0.8615    0.0437 C   0  0  0  0  0  3  0  0  0  0  0  0
   -0.9860    1.4967    0.1129 H   0  0  0  0  0  0  0  0  0  0  0  0
   -1.4862   -1.0511   -0.0505 H   0  0  0  0  0  0  0  0  0  0  0  0
  1  2  1  0
  1  5  1  0
  1  6  1  0
  2  3  2  0
  2  7  1  0
  3  4  1  0
  4  5  2  0
M  RAD  1   5   2
M  END
>  <reaction>  (2) 
kfir_rxn_13897

>  <mol_properties>  (2) 
{"4": {"label": "acceptor", "atom_type": "Cd"}}

>  <type>  (2) 
r2

$$$$

     RDKit          3D

  8  8  0  0  0  0  0  0  0  0999 V2000
    0.0034    0.7224   -0.0235 N   0  0  0  0  0  0  0  0  0  0  0  0
    1.0702   -0.1167   -0.0872 C   0  0  0  0  0  0  0  0  0  0  0  0
    0.6770   -1.3528   -0.0140 N   0  0  0  0  0  0  0  0  0  0  0  0
   -0.6897   -1.3426    0.1018 N   0  0  0  0  0  0  0  0  0  0  0  0
   -1.0712   -0.1007    0.0943 C   0  0  0  0  0  0  0  0  0  0  0  0
    0.0081    1.7250   -0.0562 H   0  0  0  0  0  0  0  0  0  0  0  0
    2.0900    0.2170   -0.1846 H   0  0  0  0  0  0  0  0  0  0  0  0
   -2.0878    0.2483    0.1694 H   0  0  0  0  0  0  0  0  0  0  0  0
  1  2  1  0
  1  5  1  0
  1  6  1  0
  2  3  2  0
  2  7  1  0
  3  4  1  0
  4  5  2  0
  5  8  1  0
M  END
>  <reaction>  (3) 
kfir_rxn_13897

>  <mol_properties>  (3) 
{"4": {"label": "acceptor", "atom_type": "Cd"}, "7": {"label": "a_hydrogen", "atom_type": "H0"}}

>  <type>  (3) 
r2h

$$$$

     RDKit          3D

 14 14  0  0  0  0  0  0  0  0999 V2000
   -0.0017   -1.8854    0.6822 N   0  0  0  0  0  0  0  0  0  0  0  0
   -0.0024   -2.9527    1.5264 C   0  0  0  0  0  0  0  0  0  0  0  0
   -0.0003   -2.5564    2.7647 N   0  0  0  0  0  0  0  0  0  0  0  0
    0.0019   -1.1678    2.7518 N   0  0  0  0  0  0  0  0  0  0  0  0
    0.0010   -0.8186    1.5206 C   0  0  0  0  0  3  0  0  0  0  0  0
   -0.0029   -1.8722   -0.3212 H   0  0  0  0  0  0  0  0  0  0  0  0
   -0.0044   -3.9792    1.1985 H   0  0  0  0  0  0  0  0  0  0  0  0
    0.0037    1.5752    0.6001 N   0  0  0  0  0  0  0  0  0  0  0  0
    0.0020    1.4623   -0.6411 C   0  0  0  0  0  0  0  0  0  0  0  0
    0.0026    2.5093   -1.5121 O   0  0  0  0  0  0  0  0  0  0  0  0
    0.0002    1.9830   -2.7806 N   0  0  0  0  0  0  0  0  0  0  0  0
   -0.0017    0.7641   -2.7411 N   0  0  0  0  0  0  0  0  0  0  0  0
   -0.0008    0.3398   -1.4204 O   0  0  0  0  0  0  0  0  0  0  0  0
    0.0027    0.5092    1.1125 H   0  0  0  0  0  0  0  0  0  0  0  0
  1  2  1  0
  1  5  1  0
  1  6  1  0
  2  3  2  0
  2  7  1  0
  3  4  1  0
  4  5  2  0
  8  9  2  3
  8 14  1  0
  9 10  1  0
  9 13  1  0
 10 11  1  0
 11 12  2  0
 12 13  1  0
M  RAD  1   5   2
M  END
>  <reaction>  (4) 
kfir_rxn_13897

>  <mol_properties>  (4) 
{"0": {"label": "*4", "atom_type": "N3s"}, "4": {"label": "*3", "atom_type": "Cd"}, "7": {"label": "*1", "atom_type": "N3d"}, "8": {"label": "*0", "atom_type": "Cd"}, "13": {"label": "*2", "atom_type": "H0"}}

>  <type>  (4) 
ts

$$$$
