
     RDKit          3D

  7  7  0  0  0  0  0  0  0  0999 V2000
   -0.3014    0.7418   -0.0767 C   0  0  0  0  0  0  0  0  0  0  0  0
   -0.5526   -0.5795    0.0073 C   0  0  0  0  0  0  0  0  0  0  0  0
    0.6639   -1.2070   -0.0901 N   0  0  0  0  0  0  0  0  0  0  0  0
    1.5781   -0.3685   -0.2209 N   0  0  0  0  0  0  0  0  0  0  0  0
    1.0038    0.9119   -0.2183 O   0  0  0  0  0  0  0  0  0  0  0  0
   -0.9190    1.6226   -0.0521 H   0  0  0  0  0  0  0  0  0  0  0  0
   -1.4728   -1.1212    0.1257 H   0  0  0  0  0  0  0  0  0  0  0  0
  1  2  2  0
  1  5  1  0
  1  6  1  0
  2  3  1  0
  2  7  1  0
  3  4  2  0
  4  5  1  0
M  END
>  <reaction>  (1) 
kfir_rxn_8057

>  <mol_properties>  (1) 
{"1": {"label": "donator", "atom_type": "Cd"}, "6": {"label": "d_hydrogen", "atom_type": "H0"}}

>  <type>  (1) 
r1h

$$$$

     RDKit          3D

  7  6  0  0  0  0  0  0  0  0999 V2000
   -0.7275    1.0670   -0.1727 N   0  0  0  0  0  0  0  0  0  0  0  0
   -0.1657   -0.1205   -0.0568 C   0  0  0  0  0  0  0  0  0  0  0  0
   -0.8152   -1.2421   -0.3106 N   0  0  0  0  0  2  0  0  0  0  0  0
    1.2245   -0.2499    0.3650 C   0  0  0  0  0  0  0  0  0  0  0  0
    2.3205   -0.2835    0.7007 N   0  0  0  0  0  0  0  0  0  0  0  0
   -0.0719    1.8120    0.0648 H   0  0  0  0  0  0  0  0  0  0  0  0
   -1.7647   -0.9830   -0.5904 H   0  0  0  0  0  0  0  0  0  0  0  0
  1  2  2  3
  1  6  1  0
  2  4  1  0
  2  3  1  0
  3  7  1  0
  4  5  3  0
M  RAD  1   3   2
M  END
>  <reaction>  (2) 
kfir_rxn_8057

>  <mol_properties>  (2) 
{"0": {"label": "acceptor", "atom_type": "N3s"}}

>  <type>  (2) 
r2

$$$$

     RDKit          3D

  8  7  0  0  0  0  0  0  0  0999 V2000
   -1.1291   -0.3823    0.4003 N   0  0  0  0  0  0  0  0  0  0  0  0
    0.1759   -0.1441    0.0995 C   0  0  0  0  0  0  0  0  0  0  0  0
    1.1163   -0.9238    0.4406 N   0  0  0  0  0  0  0  0  0  0  0  0
    0.4005    1.1061   -0.6210 C   0  0  0  0  0  0  0  0  0  0  0  0
    0.6143    2.0747   -1.1970 N   0  0  0  0  0  0  0  0  0  0  0  0
   -1.8553    0.1184   -0.0761 H   0  0  0  0  0  0  0  0  0  0  0  0
   -1.3455   -1.2858    0.7840 H   0  0  0  0  0  0  0  0  0  0  0  0
    2.0230   -0.5632    0.1698 H   0  0  0  0  0  0  0  0  0  0  0  0
  1  2  1  0
  1  6  1  0
  1  7  1  0
  2  4  1  0
  2  3  2  3
  3  8  1  0
  4  5  3  0
M  END
>  <reaction>  (3) 
kfir_rxn_8057

>  <mol_properties>  (3) 
{"0": {"label": "acceptor", "atom_type": "N3s"}, "7": {"label": "a_hydrogen", "atom_type": "H0"}}

>  <type>  (3) 
r2h

$$$$

     RDKit          3D

 14 13  0  0  0  0  0  0  0  0999 V2000
   -0.4760   -0.6137    1.3776 N   0  0  0  0  0  0  0  0  0  0  0  0
   -0.1519   -1.7780    0.7206 C   0  0  0  0  0  0  0  0  0  0  0  0
   -0.3835   -1.9630   -0.5131 N   0  0  0  0  0  0  0  0  0  0  0  0
    0.4175   -2.8071    1.5840 C   0  0  0  0  0  0  0  0  0  0  0  0
    0.8769   -3.6272    2.2416 N   0  0  0  0  0  0  0  0  0  0  0  0
    0.1501   -0.3829    2.1429 H   0  0  0  0  0  0  0  0  0  0  0  0
   -0.1515   -2.9070   -0.8019 H   0  0  0  0  0  0  0  0  0  0  0  0
   -0.1237    1.0877   -1.6532 C   0  0  0  0  0  0  0  0  0  0  0  0
   -0.1529    1.2223   -0.3122 C   0  0  0  0  0  0  0  0  0  0  0  0
    0.2103    2.4898   -0.0100 N   0  0  0  0  0  0  0  0  0  0  0  0
    0.4405    3.1269   -1.0666 N   0  0  0  0  0  2  0  0  0  0  0  0
    0.2351    2.2614   -2.1525 O   0  0  0  0  0  0  0  0  0  0  0  0
   -0.3285    0.2704   -2.3207 H   0  0  0  0  0  0  0  0  0  0  0  0
   -0.5104    0.3069    0.6057 H   0  0  0  0  0  0  0  0  0  0  0  0
  1  2  1  0
  1  6  1  0
  1 14  1  0
  2  4  1  0
  2  3  2  3
  3  7  1  0
  4  5  3  0
  8  9  2  0
  8 12  1  0
  8 13  1  0
  9 10  2  0
 10 11  1  0
 11 12  1  0
M  RAD  1  11   2
M  END
>  <reaction>  (4) 
kfir_rxn_8057

>  <mol_properties>  (4) 
{"0": {"label": "*1", "atom_type": "N3s"}, "1": {"label": "*0", "atom_type": "Cd"}, "7": {"label": "*4", "atom_type": "Cd"}, "8": {"label": "*3", "atom_type": "Cdd"}, "13": {"label": "*2", "atom_type": "H0"}}

>  <type>  (4) 
ts

$$$$
