
     RDKit          3D

  7  7  0  0  0  0  0  0  0  0999 V2000
    2.2162   -0.4702   -0.0767 O   0  0  0  0  0  0  0  0  0  0  0  0
    1.0900   -0.1272   -0.0403 C   0  0  0  0  0  0  0  0  0  0  0  0
    0.6125    1.1345   -0.0526 O   0  0  0  0  0  0  0  0  0  0  0  0
   -0.7870    1.1033    0.0040 N   0  0  0  0  0  0  0  0  0  0  0  0
   -1.0656   -0.1341    0.0458 C   0  0  0  0  0  0  0  0  0  0  0  0
   -0.0073   -0.9572    0.0240 O   0  0  0  0  0  0  0  0  0  0  0  0
   -2.0587   -0.5492    0.0957 H   0  0  0  0  0  0  0  0  0  0  0  0
  1  2  2  0
  2  6  1  0
  2  3  1  0
  3  4  1  0
  4  5  2  0
  5  6  1  0
  5  7  1  0
M  END
>  <reaction>  (1) 
kfir_rxn_7531

>  <mol_properties>  (1) 
{"4": {"label": "donator", "atom_type": "Cd"}, "6": {"label": "d_hydrogen", "atom_type": "H0"}}

>  <type>  (1) 
r1h

$$$$

     RDKit          3D

  7  6  0  0  0  0  0  0  0  0999 V2000
   -0.8091   -0.2139    0.0047 C   0  0  0  0  0  0  0  0  0  0  0  0
    0.4816   -0.7996   -0.2919 O   0  0  0  0  0  0  0  0  0  0  0  0
    0.7879   -1.8806    0.3763 C   0  0  0  0  0  3  0  0  0  0  0  0
    0.1844   -2.4785    1.1986 O   0  0  0  0  0  0  0  0  0  0  0  0
   -0.8513    0.0697    1.0553 H   0  0  0  0  0  0  0  0  0  0  0  0
   -0.8872    0.6598   -0.6347 H   0  0  0  0  0  0  0  0  0  0  0  0
   -1.5981   -0.9302   -0.2198 H   0  0  0  0  0  0  0  0  0  0  0  0
  1  2  1  0
  1  5  1  0
  1  6  1  0
  1  7  1  0
  2  3  1  0
  3  4  2  0
M  RAD  1   3   2
M  END
>  <reaction>  (2) 
kfir_rxn_7531

>  <mol_properties>  (2) 
{"2": {"label": "acceptor", "atom_type": "CO"}}

>  <type>  (2) 
r2

$$$$

     RDKit          3D

  8  7  0  0  0  0  0  0  0  0999 V2000
   -1.0419   -0.0932    0.0396 C   0  0  0  0  0  0  0  0  0  0  0  0
    0.2033   -0.7930    0.0195 O   0  0  0  0  0  0  0  0  0  0  0  0
    0.3626   -1.6613   -0.9752 C   0  0  0  0  0  0  0  0  0  0  0  0
   -0.4360   -1.8963   -1.8332 O   0  0  0  0  0  0  0  0  0  0  0  0
   -1.8714   -0.7939    0.1322 H   0  0  0  0  0  0  0  0  0  0  0  0
   -0.9989    0.5623    0.9047 H   0  0  0  0  0  0  0  0  0  0  0  0
   -1.1675    0.4876   -0.8739 H   0  0  0  0  0  0  0  0  0  0  0  0
    1.3491   -2.1357   -0.8892 H   0  0  0  0  0  0  0  0  0  0  0  0
  1  2  1  0
  1  5  1  0
  1  6  1  0
  1  7  1  0
  2  3  1  0
  3  4  2  0
  3  8  1  0
M  END
>  <reaction>  (3) 
kfir_rxn_7531

>  <mol_properties>  (3) 
{"2": {"label": "acceptor", "atom_type": "CO"}, "7": {"label": "a_hydrogen", "atom_type": "H0"}}

>  <type>  (3) 
r2h

$$$$

     RDKit          3D

 14 13  0  0  0  0  0  0  0  0999 V2000
   -0.2297    3.9078    1.2086 C   0  0  0  0  0  0  0  0  0  0  0  0
   -0.2588    2.5072    0.8854 O   0  0  0  0  0  0  0  0  0  0  0  0
    0.4118    2.1508   -0.1885 C   0  0  0  0  0  0  0  0  0  0  0  0
    1.0443    2.8298   -0.9295 O   0  0  0  0  0  0  0  0  0  0  0  0
   -0.8266    4.0104    2.1092 H   0  0  0  0  0  0  0  0  0  0  0  0
    0.7958    4.2283    1.3861 H   0  0  0  0  0  0  0  0  0  0  0  0
   -0.6593    4.4873    0.3927 H   0  0  0  0  0  0  0  0  0  0  0  0
    0.6635   -3.7441    0.5359 O   0  0  0  0  0  0  0  0  0  0  0  0
    0.2377   -2.7337    0.1089 C   0  0  0  0  0  0  0  0  0  0  0  0
   -0.8445   -2.5519   -0.6589 O   0  0  0  0  0  0  0  0  0  0  0  0
   -0.9890   -1.1523   -0.9406 N   0  0  0  0  0  0  0  0  0  0  0  0
   -0.0081   -0.6463   -0.3369 C   0  0  0  0  0  3  0  0  0  0  0  0
    0.7954   -1.4717    0.3245 O   0  0  0  0  0  0  0  0  0  0  0  0
    0.2901    0.9919   -0.3199 H   0  0  0  0  0  0  0  0  0  0  0  0
  1  2  1  0
  1  5  1  0
  1  6  1  0
  1  7  1  0
  2  3  1  0
  3  4  2  0
  3 14  1  0
  8  9  2  0
  9 13  1  0
  9 10  1  0
 10 11  1  0
 11 12  2  0
 12 13  1  0
M  RAD  1  12   2
M  END
>  <reaction>  (4) 
kfir_rxn_7531

>  <mol_properties>  (4) 
{"1": {"label": "*0", "atom_type": "O2s"}, "2": {"label": "*1", "atom_type": "CO"}, "11": {"label": "*3", "atom_type": "Cd"}, "12": {"label": "*4", "atom_type": "O2s"}, "13": {"label": "*2", "atom_type": "H0"}}

>  <type>  (4) 
ts

$$$$
