
     RDKit          3D

  7  6  0  0  0  0  0  0  0  0999 V2000
    1.3572   -0.1671    1.3611 O   0  0  0  0  0  0  0  0  0  0  0  0
    0.9236    0.0526    0.2798 C   0  0  0  0  0  0  0  0  0  0  0  0
   -0.5771   -0.0341   -0.0851 C   0  0  0  0  0  0  0  0  0  0  0  0
   -1.0319    1.5740   -0.6898 Cl  0  0  0  0  0  0  0  0  0  0  0  0
   -1.5652   -0.4943    1.2822 Cl  0  0  0  0  0  0  0  0  0  0  0  0
   -0.6988   -1.2311   -1.3932 Cl  0  0  0  0  0  0  0  0  0  0  0  0
    1.5409    0.3436   -0.5884 H   0  0  0  0  0  0  0  0  0  0  0  0
  1  2  2  0
  2  3  1  0
  2  7  1  0
  3  4  1  0
  3  5  1  0
  3  6  1  0
M  END
>  <reaction>  (1) 
kfir_rxn_13503

>  <mol_properties>  (1) 
{"1": {"label": "donator", "atom_type": "CO"}, "6": {"label": "d_hydrogen", "atom_type": "H0"}}

>  <type>  (1) 
r1h

$$$$

     RDKit          3D

  7  7  0  0  0  0  0  0  0  0999 V2000
   -0.6974   -0.5128    0.1087 C   0  0  0  0  0  0  0  0  0  0  0  0
   -0.2270    0.7561    0.0879 C   0  0  0  0  0  0  0  0  0  0  0  0
    1.1544    0.8516    0.0891 N   0  0  0  0  0  0  0  0  0  0  0  0
    1.6899   -0.2788    0.1096 C   0  0  0  0  0  3  0  0  0  0  0  0
    0.6275   -1.6248    0.1306 S   0  0  0  0  0  0  0  0  0  0  0  0
   -1.7227   -0.8458    0.1123 H   0  0  0  0  0  0  0  0  0  0  0  0
   -0.8247    1.6546    0.0713 H   0  0  0  0  0  0  0  0  0  0  0  0
  1  2  2  0
  1  5  1  0
  1  6  1  0
  2  3  1  0
  2  7  1  0
  3  4  2  0
  4  5  1  0
M  RAD  1   4   2
M  END
>  <reaction>  (2) 
kfir_rxn_13503

>  <mol_properties>  (2) 
{"0": {"label": "acceptor", "atom_type": "Cs"}}

>  <type>  (2) 
r2

$$$$

     RDKit          3D

  8  8  0  0  0  0  0  0  0  0999 V2000
   -0.7388   -0.3611    0.0063 C   0  0  0  0  0  0  0  0  0  0  0  0
    0.1080    0.8604    0.0055 C   0  0  0  0  0  0  0  0  0  0  0  0
    1.3808    0.7339   -0.0114 N   0  0  0  0  0  0  0  0  0  0  0  0
    1.8376   -0.6121   -0.0278 C   0  0  0  0  0  0  0  0  0  0  0  0
    0.5116   -1.6580   -0.0196 S   0  0  0  0  0  4  0  0  0  0  0  0
   -1.3671   -0.4136    0.8986 H   0  0  0  0  0  0  0  0  0  0  0  0
   -1.3892   -0.3996   -0.8707 H   0  0  0  0  0  0  0  0  0  0  0  0
   -0.3429    1.8502    0.0190 H   0  0  0  0  0  0  0  0  0  0  0  0
  1  2  1  0
  1  5  1  0
  1  6  1  0
  1  7  1  0
  2  3  2  0
  2  8  1  0
  3  4  1  0
  4  5  3  0
M  END
>  <reaction>  (3) 
kfir_rxn_13503

>  <mol_properties>  (3) 
{"0": {"label": "acceptor", "atom_type": "Cs"}, "7": {"label": "a_hydrogen", "atom_type": "H0"}}

>  <type>  (3) 
r2h

$$$$

     RDKit          3D

 14 13  0  0  0  0  0  0  0  0999 V2000
   -0.4644   -2.4260   -0.0777 C   0  0  0  0  0  0  0  0  0  0  0  0
    0.9884   -2.5176   -0.0989 C   0  0  0  0  0  0  0  0  0  0  0  0
    1.5999   -2.6515    1.0366 N   0  0  0  0  0  0  0  0  0  0  0  0
    0.7509   -2.8981    2.0944 C   0  0  0  0  0  0  0  0  0  0  0  0
   -0.8852   -2.7181    1.6107 S   0  0  0  0  0  4  0  0  0  0  0  0
   -1.0392   -2.9728   -0.8224 H   0  0  0  0  0  0  0  0  0  0  0  0
    1.5548   -2.4006   -1.0177 H   0  0  0  0  0  0  0  0  0  0  0  0
   -2.3327    0.3106   -1.0822 O   0  0  0  0  0  0  0  0  0  0  0  0
   -1.2116    0.1280   -0.8094 C   0  0  0  0  0  3  0  0  0  0  0  0
   -0.0708    1.1741   -0.7418 C   0  0  0  0  0  0  0  0  0  0  0  0
    0.6302    1.0346    0.8721 Cl  0  0  0  0  0  0  0  0  0  0  0  0
   -0.6441    2.8087   -1.0467 Cl  0  0  0  0  0  0  0  0  0  0  0  0
    1.0947    0.6755   -1.9833 Cl  0  0  0  0  0  0  0  0  0  0  0  0
   -0.7273   -1.2210   -0.4094 H   0  0  0  0  0  0  0  0  0  0  0  0
  1  2  1  0
  1  5  1  0
  1  6  1  0
  1 14  1  0
  2  3  2  0
  2  7  1  0
  3  4  1  0
  4  5  3  0
  8  9  2  0
  9 10  1  0
 10 11  1  0
 10 12  1  0
 10 13  1  0
M  RAD  1   9   2
M  END
>  <reaction>  (4) 
kfir_rxn_13503

>  <mol_properties>  (4) 
{"0": {"label": "*1", "atom_type": "Cs"}, "4": {"label": "*0", "atom_type": "S4t"}, "7": {"label": "*4", "atom_type": "O2d"}, "8": {"label": "*3", "atom_type": "CO"}, "13": {"label": "*2", "atom_type": "H0"}}

>  <type>  (4) 
ts

$$$$
