
     RDKit          3D

  6  5  0  0  0  0  0  0  0  0999 V2000
    1.5050   -0.1493    0.2580 C   0  0  0  0  0  0  0  0  0  0  0  0
    0.3282   -0.0584    0.0516 C   0  0  0  0  0  0  0  0  0  0  0  0
   -1.0939    0.1069   -0.1804 C   0  0  0  0  0  0  0  0  0  0  0  0
   -1.8068   -0.7644   -0.5961 O   0  0  0  0  0  0  0  0  0  0  0  0
    2.5502   -0.2472    0.4359 H   0  0  0  0  0  0  0  0  0  0  0  0
   -1.4827    1.1125    0.0574 H   0  0  0  0  0  0  0  0  0  0  0  0
  1  2  3  0
  1  5  1  0
  2  3  1  0
  3  4  2  0
  3  6  1  0
M  END
>  <reaction>  (1) 
kfir_rxn_9409

>  <mol_properties>  (1) 
{"2": {"label": "donator", "atom_type": "CO"}, "5": {"label": "d_hydrogen", "atom_type": "H0"}}

>  <type>  (1) 
r1h

$$$$

     RDKit          3D

  7  7  0  0  0  0  0  0  0  0999 V2000
   -1.0451   -1.0587    0.4139 N   0  0  0  0  0  2  0  0  0  0  0  0
    0.2233   -1.1484    0.1757 N   0  0  0  0  0  0  0  0  0  0  0  0
    0.8848   -0.0376   -0.1355 C   0  0  0  0  0  0  0  0  0  0  0  0
    2.1546   -0.1742   -0.3664 F   0  0  0  0  0  0  0  0  0  0  0  0
    0.3610    1.1601   -0.2246 N   0  0  0  0  0  0  0  0  0  0  0  0
   -0.9111    1.1355    0.0328 C   0  0  0  0  0  0  0  0  0  0  0  0
   -1.6675    0.1234    0.3469 N   0  0  0  0  0  0  0  0  0  0  0  0
  1  7  1  0
  1  2  1  0
  2  3  2  0
  3  4  1  0
  3  5  1  0
  5  6  2  0
  6  7  2  0
M  RAD  1   1   2
M  END
>  <reaction>  (2) 
kfir_rxn_9409

>  <mol_properties>  (2) 
{"4": {"label": "acceptor", "atom_type": "N5dc"}}

>  <type>  (2) 
r2

$$$$

     RDKit          3D

  8  8  0  0  0  0  0  0  0  0999 V2000
   -1.0045    1.4719    0.0960 N   0  0  0  0  0  2  0  0  0  0  0  0
    0.3503    1.3964    0.0137 N   0  0  0  0  0  0  0  0  0  0  0  0
    0.8438    0.2170   -0.0447 C   0  0  0  0  0  0  0  0  0  0  0  0
    2.1379    0.0493   -0.1257 F   0  0  0  0  0  0  0  0  0  0  0  0
    0.1027   -0.8952   -0.0282 N   0  0  0  0  0  4  0  0  0  0  0  0
   -1.2566   -0.8762    0.0530 C   0  0  0  0  0  0  0  0  0  0  0  0
   -1.7407    0.4302    0.1140 N   0  0  0  0  0  0  0  0  0  0  0  0
    0.5669   -1.7934   -0.0780 H   0  0  0  0  0  0  0  0  0  0  0  0
  1  7  1  0
  1  2  1  0
  2  3  2  0
  3  4  1  0
  3  5  1  0
  5  6  2  0
  5  8  1  0
  6  7  2  0
M  CHG  2   1  -1   5   1
M  END
>  <reaction>  (3) 
kfir_rxn_9409

>  <mol_properties>  (3) 
{"4": {"label": "acceptor", "atom_type": "N5dc"}, "7": {"label": "a_hydrogen", "atom_type": "H0"}}

>  <type>  (3) 
r2h

$$$$

     RDKit          3D

 13 12  0  0  0  0  0  0  0  0999 V2000
    0.0377    2.5304    1.8506 N   0  0  0  0  0  2  0  0  0  0  0  0
    0.0382    2.6132    0.5151 N   0  0  0  0  0  0  0  0  0  0  0  0
    0.0233    1.4956   -0.1343 C   0  0  0  0  0  0  0  0  0  0  0  0
    0.0231    1.5183   -1.4407 F   0  0  0  0  0  0  0  0  0  0  0  0
    0.0080    0.3127    0.4561 N   0  0  0  0  0  4  0  0  0  0  0  0
    0.0072    0.2125    1.7661 C   0  0  0  0  0  0  0  0  0  0  0  0
    0.0231    1.4001    2.4694 N   0  0  0  0  0  0  0  0  0  0  0  0
   -0.0324   -2.6561   -3.0279 C   0  0  0  0  0  0  0  0  0  0  0  0
   -0.0301   -2.5170   -1.8355 C   0  0  0  0  0  0  0  0  0  0  0  0
   -0.0245   -2.1355   -0.4672 C   0  0  0  0  0  3  0  0  0  0  0  0
   -0.0327   -2.7926    0.5187 O   0  0  0  0  0  0  0  0  0  0  0  0
   -0.0349   -2.8183   -4.0809 H   0  0  0  0  0  0  0  0  0  0  0  0
   -0.0061   -0.7436   -0.1750 H   0  0  0  0  0  0  0  0  0  0  0  0
  1  7  1  0
  1  2  1  0
  2  3  2  0
  3  4  1  0
  3  5  1  0
  5  6  2  0
  5 13  1  0
  6  7  2  0
  8  9  3  0
  8 12  1  0
  9 10  1  0
 10 11  2  0
M  CHG  2   1  -1   5   1
M  RAD  1  10   2
M  END
>  <reaction>  (4) 
kfir_rxn_9409

>  <mol_properties>  (4) 
{"2": {"label": "*0", "atom_type": "Cd"}, "4": {"label": "*1", "atom_type": "N5dc"}, "8": {"label": "*4", "atom_type": "Ct"}, "9": {"label": "*3", "atom_type": "CO"}, "12": {"label": "*2", "atom_type": "H0"}}

>  <type>  (4) 
ts

$$$$
