
     RDKit          3D

  6  5  0  0  0  0  0  0  0  0999 V2000
   -0.6819   -0.1027   -0.0106 N   0  0  0  0  0  0  0  0  0  0  0  0
    0.6339    0.2147    0.0079 C   0  0  0  0  0  0  0  0  0  0  0  0
    1.0720    1.3374   -0.0025 O   0  0  0  0  0  0  0  0  0  0  0  0
   -1.3651    0.6341   -0.0350 H   0  0  0  0  0  0  0  0  0  0  0  0
   -0.9875   -1.0572   -0.0005 H   0  0  0  0  0  0  0  0  0  0  0  0
    1.2840   -0.6787    0.0343 H   0  0  0  0  0  0  0  0  0  0  0  0
  1  2  1  0
  1  4  1  0
  1  5  1  0
  2  3  2  0
  2  6  1  0
M  END
>  <reaction>  (1) 
kfir_rxn_9679

>  <mol_properties>  (1) 
{"1": {"label": "donator", "atom_type": "CO"}, "5": {"label": "d_hydrogen", "atom_type": "H0"}}

>  <type>  (1) 
r1h

$$$$

     RDKit          3D

  6  5  0  0  0  0  0  0  0  0999 V2000
   -1.3751    0.0001    0.0052 O   0  0  0  0  0  0  0  0  0  0  0  0
   -0.1413    0.5256    0.0693 C   0  0  0  0  0  0  0  0  0  0  0  0
    1.0028   -0.2496   -0.0364 C   0  0  0  0  0  0  0  0  0  0  0  0
    1.9485   -0.9172   -0.1273 N   0  0  0  0  0  2  0  0  0  0  0  0
   -1.3298   -0.9523   -0.1196 H   0  0  0  0  0  0  0  0  0  0  0  0
   -0.1050    1.5934    0.2088 H   0  0  0  0  0  0  0  0  0  0  0  0
  1  2  1  0
  1  5  1  0
  2  3  2  0
  2  6  1  0
  3  4  2  0
M  RAD  1   4   2
M  END
>  <reaction>  (2) 
kfir_rxn_9679

>  <mol_properties>  (2) 
{"3": {"label": "acceptor", "atom_type": "N3d"}}

>  <type>  (2) 
r2

$$$$

     RDKit          3D

  7  6  0  0  0  0  0  0  0  0999 V2000
   -1.7433   -0.2181   -0.0082 O   0  0  0  0  0  0  0  0  0  0  0  0
   -0.5919    0.5155    0.1393 C   0  0  0  0  0  0  0  0  0  0  0  0
    0.6277    0.0643   -0.0052 C   0  0  0  0  0  0  0  0  0  0  0  0
    1.7685   -0.3888    0.0258 N   0  0  0  0  0  0  0  0  0  0  0  0
   -1.5390   -1.1538    0.0381 H   0  0  0  0  0  0  0  0  0  0  0  0
   -0.7623    1.5611    0.3482 H   0  0  0  0  0  0  0  0  0  0  0  0
    2.2403   -0.3802   -0.8787 H   0  0  0  0  0  0  0  0  0  0  0  0
  1  2  1  0
  1  5  1  0
  2  3  2  0
  2  6  1  0
  3  4  2  0
  4  7  1  0
M  END
>  <reaction>  (3) 
kfir_rxn_9679

>  <mol_properties>  (3) 
{"3": {"label": "acceptor", "atom_type": "N3d"}, "6": {"label": "a_hydrogen", "atom_type": "H0"}}

>  <type>  (3) 
r2h

$$$$

     RDKit          3D

 12 10  0  0  0  0  0  0  0  0999 V2000
    2.1962   -1.9559    1.4601 O   0  0  0  0  0  0  0  0  0  0  0  0
    1.5225   -2.0205    0.2746 C   0  0  0  0  0  0  0  0  0  0  0  0
    0.2991   -1.5713    0.0632 C   0  0  0  0  0  0  0  0  0  0  0  0
   -0.8349   -1.1838   -0.1248 N   0  0  0  0  0  0  0  0  0  0  0  0
    1.7015   -1.4262    2.0886 H   0  0  0  0  0  0  0  0  0  0  0  0
    2.0729   -2.5059   -0.5165 H   0  0  0  0  0  0  0  0  0  0  0  0
   -1.6464    2.0335   -1.3278 N   0  0  0  0  0  0  0  0  0  0  0  0
   -0.5640    1.3965   -0.8654 C   0  0  0  0  0  3  0  0  0  0  0  0
    0.5461    1.8147   -0.7330 O   0  0  0  0  0  0  0  0  0  0  0  0
   -1.5913    2.9962   -1.6256 H   0  0  0  0  0  0  0  0  0  0  0  0
   -2.5234    1.5525   -1.3885 H   0  0  0  0  0  0  0  0  0  0  0  0
   -0.8383   -0.0953   -0.4590 H   0  0  0  0  0  0  0  0  0  0  0  0
  1  2  1  0
  1  5  1  0
  2  3  2  0
  2  6  1  0
  3  4  2  0
  4 12  1  0
  7  8  1  0
  7 10  1  0
  7 11  1  0
  8  9  2  0
M  RAD  1   8   2
M  END
>  <reaction>  (4) 
kfir_rxn_9679

>  <mol_properties>  (4) 
{"2": {"label": "*0", "atom_type": "Cdd"}, "3": {"label": "*1", "atom_type": "N3d"}, "7": {"label": "*3", "atom_type": "CO"}, "8": {"label": "*4", "atom_type": "O2d"}, "11": {"label": "*2", "atom_type": "H0"}}

>  <type>  (4) 
ts

$$$$
