
     RDKit          3D

  7  7  0  0  0  0  0  0  0  0999 V2000
   -0.7268   -0.0467    0.0634 C   0  0  0  0  0  0  0  0  0  0  0  0
    0.7235    0.1046    0.0109 C   0  0  0  0  0  0  0  0  0  0  0  0
    0.0414   -0.7158   -0.9186 O   0  0  0  0  0  0  0  0  0  0  0  0
   -1.3615    0.7523   -0.3079 H   0  0  0  0  0  0  0  0  0  0  0  0
   -1.1708   -0.6854    0.8209 H   0  0  0  0  0  0  0  0  0  0  0  0
    1.1518    1.0144   -0.3988 H   0  0  0  0  0  0  0  0  0  0  0  0
    1.3425   -0.4233    0.7300 H   0  0  0  0  0  0  0  0  0  0  0  0
  1  2  1  0
  1  3  1  0
  1  4  1  0
  1  5  1  0
  2  3  1  0
  2  6  1  0
  2  7  1  0
M  END
>  <reaction>  (1) 
kfir_rxn_679

>  <mol_properties>  (1) 
{"0": {"label": "donator", "atom_type": "Cs"}, "3": {"label": "d_hydrogen", "atom_type": "H0"}}

>  <type>  (1) 
r1h

$$$$

     RDKit          3D

  7  7  0  0  0  0  0  0  0  0999 V2000
   -1.0734   -1.1219   -0.4060 N   0  0  0  0  0  2  0  0  0  0  0  0
    0.2044   -1.1420   -0.2116 N   0  0  0  0  0  0  0  0  0  0  0  0
    0.8470    0.0138   -0.0144 C   0  0  0  0  0  0  0  0  0  0  0  0
    2.5288   -0.0766    0.2360 Cl  0  0  0  0  0  0  0  0  0  0  0  0
    0.2573    1.1926   -0.0044 N   0  0  0  0  0  0  0  0  0  0  0  0
   -1.0196    1.0979   -0.2084 C   0  0  0  0  0  0  0  0  0  0  0  0
   -1.7445    0.0362   -0.4102 N   0  0  0  0  0  0  0  0  0  0  0  0
  1  7  1  0
  1  2  1  0
  2  3  2  0
  3  4  1  0
  3  5  1  0
  5  6  2  0
  6  7  2  0
M  RAD  1   1   2
M  END
>  <reaction>  (2) 
kfir_rxn_679

>  <mol_properties>  (2) 
{"4": {"label": "acceptor", "atom_type": "N5dc"}}

>  <type>  (2) 
r2

$$$$

     RDKit          3D

  8  8  0  0  0  0  0  0  0  0999 V2000
   -1.3253   -1.2351   -0.2287 N   0  0  0  0  0  2  0  0  0  0  0  0
   -0.0202   -1.4195    0.1109 N   0  0  0  0  0  0  0  0  0  0  0  0
    0.7198   -0.3689    0.1568 C   0  0  0  0  0  0  0  0  0  0  0  0
    2.3763   -0.4961    0.5743 Cl  0  0  0  0  0  0  0  0  0  0  0  0
    0.2371    0.8566   -0.1158 N   0  0  0  0  0  4  0  0  0  0  0  0
   -1.0528    1.0967   -0.4588 C   0  0  0  0  0  0  0  0  0  0  0  0
   -1.7999   -0.0820   -0.4902 N   0  0  0  0  0  0  0  0  0  0  0  0
    0.8651    1.6483   -0.0642 H   0  0  0  0  0  0  0  0  0  0  0  0
  1  7  1  0
  1  2  1  0
  2  3  2  0
  3  4  1  0
  3  5  1  0
  5  6  2  0
  5  8  1  0
  6  7  2  0
M  CHG  2   1  -1   5   1
M  END
>  <reaction>  (3) 
kfir_rxn_679

>  <mol_properties>  (3) 
{"4": {"label": "acceptor", "atom_type": "N5dc"}, "7": {"label": "a_hydrogen", "atom_type": "H0"}}

>  <type>  (3) 
r2h

$$$$

     RDKit          3D

 14 14  0  0  0  0  0  0  0  0999 V2000
    1.7227   -1.5072    1.5848 N   0  0  0  0  0  2  0  0  0  0  0  0
    1.2390   -0.3067    1.9404 N   0  0  0  0  0  0  0  0  0  0  0  0
    0.3266    0.2111    1.1771 C   0  0  0  0  0  0  0  0  0  0  0  0
   -0.3397    1.7400    1.5762 Cl  0  0  0  0  0  0  0  0  0  0  0  0
   -0.1138   -0.4102    0.0873 N   0  0  0  0  0  4  0  0  0  0  0  0
    0.3422   -1.5873   -0.2912 C   0  0  0  0  0  0  0  0  0  0  0  0
    1.3123   -2.1315    0.5418 N   0  0  0  0  0  0  0  0  0  0  0  0
   -1.7602    0.4943   -1.7140 C   0  0  0  0  0  3  0  0  0  0  0  0
   -2.0432   -0.6769   -2.5192 C   0  0  0  0  0  0  0  0  0  0  0  0
   -1.0815    0.3506   -2.8814 O   0  0  0  0  0  0  0  0  0  0  0  0
   -0.9422    0.1293   -0.6472 H   0  0  0  0  0  0  0  0  0  0  0  0
   -2.3603    1.3821   -1.5274 H   0  0  0  0  0  0  0  0  0  0  0  0
   -1.5893   -1.6209   -2.2371 H   0  0  0  0  0  0  0  0  0  0  0  0
   -2.9198   -0.7053   -3.1565 H   0  0  0  0  0  0  0  0  0  0  0  0
  1  7  1  0
  1  2  1  0
  2  3  2  0
  3  4  1  0
  3  5  1  0
  5  6  2  0
  5 11  1  0
  6  7  2  0
  8  9  1  0
  8 10  1  0
  8 12  1  0
  9 10  1  0
  9 13  1  0
  9 14  1  0
M  CHG  2   1  -1   5   1
M  RAD  1   8   2
M  END
>  <reaction>  (4) 
kfir_rxn_679

>  <mol_properties>  (4) 
{"2": {"label": "*0", "atom_type": "Cd"}, "4": {"label": "*1", "atom_type": "N5dc"}, "7": {"label": "*3", "atom_type": "Cs"}, "9": {"label": "*4", "atom_type": "O2s"}, "10": {"label": "*2", "atom_type": "H0"}}

>  <type>  (4) 
ts

$$$$
