
     RDKit          3D

  4  3  0  0  0  0  0  0  0  0999 V2000
    0.0006   -0.0009    0.2762 N   0  0  0  0  0  0  0  0  0  0  0  0
   -0.4188    0.8439   -0.0883 H   0  0  0  0  0  0  0  0  0  0  0  0
   -0.5215   -0.7840   -0.0936 H   0  0  0  0  0  0  0  0  0  0  0  0
    0.9397   -0.0590   -0.0943 H   0  0  0  0  0  0  0  0  0  0  0  0
  1  2  1  0
  1  3  1  0
  1  4  1  0
M  END
>  <reaction>  (1) 
kfir_rxn_9652

>  <mol_properties>  (1) 
{"0": {"label": "donator", "atom_type": "N3s"}, "1": {"label": "d_hydrogen", "atom_type": "H0"}}

>  <type>  (1) 
r1h

$$$$

     RDKit          3D

  6  5  0  0  0  0  0  0  0  0999 V2000
   -1.3694    0.1235    0.0213 O   0  0  0  0  0  0  0  0  0  0  0  0
   -0.0928    0.5362    0.0705 C   0  0  0  0  0  0  0  0  0  0  0  0
    0.9758   -0.3386   -0.0479 C   0  0  0  0  0  0  0  0  0  0  0  0
    1.8567   -1.0882   -0.1493 N   0  0  0  0  0  2  0  0  0  0  0  0
   -1.4112   -0.8292   -0.1032 H   0  0  0  0  0  0  0  0  0  0  0  0
    0.0408    1.5963    0.2086 H   0  0  0  0  0  0  0  0  0  0  0  0
  1  2  1  0
  1  5  1  0
  2  3  2  0
  2  6  1  0
  3  4  2  0
M  RAD  1   4   2
M  END
>  <reaction>  (2) 
kfir_rxn_9652

>  <mol_properties>  (2) 
{"1": {"label": "acceptor", "atom_type": "Cs"}}

>  <type>  (2) 
r2

$$$$

     RDKit          3D

  7  6  0  0  0  0  0  0  0  0999 V2000
   -1.0240    0.8044   -0.4204 O   0  0  0  0  0  0  0  0  0  0  0  0
   -0.3365   -0.3409    0.0003 C   0  0  0  0  0  0  0  0  0  0  0  0
    1.1270   -0.1767   -0.0328 C   0  0  0  0  0  0  0  0  0  0  0  0
    2.2637   -0.0259   -0.0358 N   0  0  0  0  0  0  0  0  0  0  0  0
   -0.8050    1.5374    0.1584 H   0  0  0  0  0  0  0  0  0  0  0  0
   -0.6168   -0.6523    1.0127 H   0  0  0  0  0  0  0  0  0  0  0  0
   -0.6084   -1.1459   -0.6824 H   0  0  0  0  0  0  0  0  0  0  0  0
  1  2  1  0
  1  5  1  0
  2  3  1  0
  2  6  1  0
  2  7  1  0
  3  4  3  0
M  END
>  <reaction>  (3) 
kfir_rxn_9652

>  <mol_properties>  (3) 
{"1": {"label": "acceptor", "atom_type": "Cs"}, "6": {"label": "a_hydrogen", "atom_type": "H0"}}

>  <type>  (3) 
r2h

$$$$

     RDKit          3D

 10  8  0  0  0  0  0  0  0  0999 V2000
   -1.1897    0.1028    1.4132 O   0  0  0  0  0  0  0  0  0  0  0  0
   -0.0484   -0.2026    0.6980 C   0  0  0  0  0  0  0  0  0  0  0  0
    0.4420    0.8539   -0.1759 C   0  0  0  0  0  0  0  0  0  0  0  0
    0.8040    1.6504   -0.9201 N   0  0  0  0  0  0  0  0  0  0  0  0
   -1.8946    0.3423    0.8057 H   0  0  0  0  0  0  0  0  0  0  0  0
    0.7251   -0.5400    1.3844 H   0  0  0  0  0  0  0  0  0  0  0  0
   -0.5951   -2.1919   -0.9172 N   0  0  0  0  0  2  0  0  0  0  0  0
   -0.3048   -1.1504   -0.0620 H   0  0  0  0  0  0  0  0  0  0  0  0
    0.0850   -2.0054   -1.6585 H   0  0  0  0  0  0  0  0  0  0  0  0
   -0.1961   -2.9756   -0.3952 H   0  0  0  0  0  0  0  0  0  0  0  0
  1  2  1  0
  1  5  1  0
  2  3  1  0
  2  6  1  0
  2  8  1  0
  3  4  3  0
  7  9  1  0
  7 10  1  0
M  RAD  1   7   2
M  END
>  <reaction>  (4) 
kfir_rxn_9652

>  <mol_properties>  (4) 
{"1": {"label": "*1", "atom_type": "Cs"}, "2": {"label": "*0", "atom_type": "Ct"}, "6": {"label": "*3", "atom_type": "N3s"}, "7": {"label": "*2", "atom_type": "H0"}, "8": {"label": "*4", "atom_type": "H0"}}

>  <type>  (4) 
ts

$$$$
