
     RDKit          3D

  7  6  0  0  0  0  0  0  0  0999 V2000
    1.3572   -0.1671    1.3611 O   0  0  0  0  0  0  0  0  0  0  0  0
    0.9236    0.0526    0.2798 C   0  0  0  0  0  0  0  0  0  0  0  0
   -0.5771   -0.0341   -0.0851 C   0  0  0  0  0  0  0  0  0  0  0  0
   -1.0319    1.5740   -0.6898 Cl  0  0  0  0  0  0  0  0  0  0  0  0
   -1.5652   -0.4943    1.2822 Cl  0  0  0  0  0  0  0  0  0  0  0  0
   -0.6988   -1.2311   -1.3932 Cl  0  0  0  0  0  0  0  0  0  0  0  0
    1.5409    0.3436   -0.5884 H   0  0  0  0  0  0  0  0  0  0  0  0
  1  2  2  0
  2  3  1  0
  2  7  1  0
  3  4  1  0
  3  5  1  0
  3  6  1  0
M  END
>  <reaction>  (1) 
kfir_rxn_7125

>  <mol_properties>  (1) 
{"1": {"label": "donator", "atom_type": "CO"}, "6": {"label": "d_hydrogen", "atom_type": "H0"}}

>  <type>  (1) 
r1h

$$$$

     RDKit          3D

  7  7  0  0  0  0  0  0  0  0999 V2000
   -1.6593    0.0222    0.2207 N   0  0  0  0  0  2  0  0  0  0  0  0
   -1.0243   -1.0789    0.0349 N   0  0  0  0  0  0  0  0  0  0  0  0
    0.2818   -1.1356   -0.1424 N   0  0  0  0  0  0  0  0  0  0  0  0
    0.9942   -0.0298   -0.1337 C   0  0  0  0  0  0  0  0  0  0  0  0
    0.2985    1.1587    0.0681 C   0  0  0  0  0  0  0  0  0  0  0  0
   -0.9530    1.1776    0.2348 N   0  0  0  0  0  0  0  0  0  0  0  0
    2.0621   -0.1142   -0.2823 H   0  0  0  0  0  0  0  0  0  0  0  0
  1  6  1  0
  1  2  1  0
  2  3  2  0
  3  4  1  0
  4  5  2  0
  4  7  1  0
  5  6  2  0
M  RAD  1   1   2
M  END
>  <reaction>  (2) 
kfir_rxn_7125

>  <mol_properties>  (2) 
{"5": {"label": "acceptor", "atom_type": "N3s"}}

>  <type>  (2) 
r2

$$$$

     RDKit          3D

  8  8  0  0  0  0  0  0  0  0999 V2000
    1.0724    1.0382    0.1636 N   0  0  0  0  0  2  0  0  0  0  0  0
   -0.0492    1.6004    0.0832 N   0  0  0  0  0  0  0  0  0  0  0  0
   -1.1900    0.8712   -0.0702 N   0  0  0  0  0  0  0  0  0  0  0  0
   -1.0970   -0.4218   -0.1321 C   0  0  0  0  0  0  0  0  0  0  0  0
    0.1255   -1.1869   -0.0529 C   0  0  0  0  0  3  0  0  0  0  0  0
    1.1111   -0.3161    0.0929 N   0  0  0  0  0  0  0  0  0  0  0  0
   -2.0394   -0.9449   -0.2545 H   0  0  0  0  0  0  0  0  0  0  0  0
    2.0665   -0.6400    0.1700 H   0  0  0  0  0  0  0  0  0  0  0  0
  1  6  1  0
  1  2  1  0
  2  3  2  0
  3  4  1  0
  4  5  2  0
  4  7  1  0
  5  6  1  0
  6  8  1  0
M  CHG  2   1  -1   5   1
M  END
>  <reaction>  (3) 
kfir_rxn_7125

>  <mol_properties>  (3) 
{"5": {"label": "acceptor", "atom_type": "N3s"}, "7": {"label": "a_hydrogen", "atom_type": "H0"}}

>  <type>  (3) 
r2h

$$$$

     RDKit          3D

 14 13  0  0  0  0  0  0  0  0999 V2000
    0.2836   -1.3364    1.7230 N   0  0  0  0  0  2  0  0  0  0  0  0
    0.2913   -2.2404    2.6169 N   0  0  0  0  0  0  0  0  0  0  0  0
   -0.2898   -3.4334    2.4128 N   0  0  0  0  0  0  0  0  0  0  0  0
   -0.8759   -3.6730    1.2732 C   0  0  0  0  0  0  0  0  0  0  0  0
   -0.9288   -2.7116    0.2180 C   0  0  0  0  0  3  0  0  0  0  0  0
   -0.3322   -1.6292    0.5656 N   0  0  0  0  0  0  0  0  0  0  0  0
   -1.3270   -4.6524    1.1666 H   0  0  0  0  0  0  0  0  0  0  0  0
   -0.8809   -0.0466   -2.2518 O   0  0  0  0  0  0  0  0  0  0  0  0
   -0.3308    0.2624   -1.2637 C   0  0  0  0  0  3  0  0  0  0  0  0
    0.3542    1.6292   -0.9850 C   0  0  0  0  0  0  0  0  0  0  0  0
   -0.4575    2.2929    0.4400 Cl  0  0  0  0  0  0  0  0  0  0  0  0
    0.2281    2.7328   -2.3494 Cl  0  0  0  0  0  0  0  0  0  0  0  0
    2.0468    1.2561   -0.6301 Cl  0  0  0  0  0  0  0  0  0  0  0  0
   -0.2694   -0.6785   -0.2087 H   0  0  0  0  0  0  0  0  0  0  0  0
  1  6  1  0
  1  2  1  0
  2  3  2  0
  3  4  1  0
  4  5  2  0
  4  7  1  0
  5  6  1  0
  6 14  1  0
  8  9  2  0
  9 10  1  0
 10 11  1  0
 10 12  1  0
 10 13  1  0
M  CHG  2   1  -1   5   1
M  RAD  1   9   2
M  END
>  <reaction>  (4) 
kfir_rxn_7125

>  <mol_properties>  (4) 
{"0": {"label": "*0", "atom_type": "N1sc"}, "5": {"label": "*1", "atom_type": "N3s"}, "7": {"label": "*4", "atom_type": "O2d"}, "8": {"label": "*3", "atom_type": "CO"}, "13": {"label": "*2", "atom_type": "H0"}}

>  <type>  (4) 
ts

$$$$
