
     RDKit          3D

  7  7  0  0  0  0  0  0  0  0999 V2000
    1.6064   -0.4313    0.1905 N   0  0  0  0  0  0  0  0  0  0  0  0
    0.3982   -0.1725    0.0701 C   0  0  0  0  0  0  0  0  0  0  0  0
   -0.6051   -1.0481    0.3497 O   0  0  0  0  0  0  0  0  0  0  0  0
   -1.7906   -0.4044    0.0958 N   0  0  0  0  0  0  0  0  0  0  0  0
   -1.5819    0.7348   -0.2956 N   0  0  0  0  0  0  0  0  0  0  0  0
   -0.2229    0.9708   -0.3436 O   0  0  0  0  0  0  0  0  0  0  0  0
    2.1958    0.3506   -0.0669 H   0  0  0  0  0  0  0  0  0  0  0  0
  1  2  2  3
  1  7  1  0
  2  3  1  0
  2  6  1  0
  3  4  1  0
  4  5  2  0
  5  6  1  0
M  END
>  <reaction>  (1) 
kfir_rxn_8008

>  <mol_properties>  (1) 
{"0": {"label": "donator", "atom_type": "N3d"}, "6": {"label": "d_hydrogen", "atom_type": "H0"}}

>  <type>  (1) 
r1h

$$$$

     RDKit          3D

  7  6  0  0  0  0  0  0  0  0999 V2000
    1.5908   -0.4705   -0.0314 N   0  0  0  0  0  2  0  0  0  0  0  0
    0.4296    0.2954    0.0888 C   0  0  0  0  0  0  0  0  0  0  0  0
   -0.6441   -0.1234   -0.3027 O   0  0  0  0  0  0  0  0  0  0  0  0
    0.6092    1.4698    0.7362 N   0  0  0  0  0  0  0  0  0  0  0  0
    1.5173   -0.9809   -0.9127 H   0  0  0  0  0  0  0  0  0  0  0  0
   -0.1983    2.0227    0.9586 H   0  0  0  0  0  0  0  0  0  0  0  0
    1.4791    1.6542    1.2001 H   0  0  0  0  0  0  0  0  0  0  0  0
  1  2  1  0
  1  5  1  0
  2  4  1  0
  2  3  2  0
  4  6  1  0
  4  7  1  0
M  RAD  1   1   2
M  END
>  <reaction>  (2) 
kfir_rxn_8008

>  <mol_properties>  (2) 
{"0": {"label": "acceptor", "atom_type": "N3s"}}

>  <type>  (2) 
r2

$$$$

     RDKit          3D

  8  7  0  0  0  0  0  0  0  0999 V2000
    1.1554   -0.2577    0.1712 N   0  0  0  0  0  0  0  0  0  0  0  0
    0.0272    0.4243   -0.2312 C   0  0  0  0  0  0  0  0  0  0  0  0
    0.0718    1.4846   -0.8131 O   0  0  0  0  0  0  0  0  0  0  0  0
   -1.1563   -0.2067    0.0868 N   0  0  0  0  0  0  0  0  0  0  0  0
    1.9990    0.2851    0.1089 H   0  0  0  0  0  0  0  0  0  0  0  0
    1.0907   -0.8628    0.9709 H   0  0  0  0  0  0  0  0  0  0  0  0
   -1.9603    0.1907   -0.3668 H   0  0  0  0  0  0  0  0  0  0  0  0
   -1.1592   -1.2083    0.1688 H   0  0  0  0  0  0  0  0  0  0  0  0
  1  2  1  0
  1  5  1  0
  1  6  1  0
  2  4  1  0
  2  3  2  0
  4  7  1  0
  4  8  1  0
M  END
>  <reaction>  (3) 
kfir_rxn_8008

>  <mol_properties>  (3) 
{"0": {"label": "acceptor", "atom_type": "N3s"}, "7": {"label": "a_hydrogen", "atom_type": "H0"}}

>  <type>  (3) 
r2h

$$$$

     RDKit          3D

 14 13  0  0  0  0  0  0  0  0999 V2000
    0.3509   -1.9814    0.8724 N   0  0  0  0  0  2  0  0  0  0  0  0
    0.0828   -1.3940    2.1098 C   0  0  0  0  0  0  0  0  0  0  0  0
   -0.8544   -1.7706    2.7838 O   0  0  0  0  0  0  0  0  0  0  0  0
    0.9721   -0.4484    2.5013 N   0  0  0  0  0  0  0  0  0  0  0  0
   -0.5173   -2.3335    0.4797 H   0  0  0  0  0  0  0  0  0  0  0  0
    0.9052   -0.1122    3.4439 H   0  0  0  0  0  0  0  0  0  0  0  0
    1.8112   -0.2767    1.9780 H   0  0  0  0  0  0  0  0  0  0  0  0
    1.3175   -0.3461   -0.6596 N   0  0  0  0  0  0  0  0  0  0  0  0
    0.3877    0.4062   -1.0044 C   0  0  0  0  0  0  0  0  0  0  0  0
    0.5307    1.5091   -1.7913 O   0  0  0  0  0  0  0  0  0  0  0  0
   -0.7206    2.0635   -1.9424 N   0  0  0  0  0  0  0  0  0  0  0  0
   -1.5517    1.4070   -1.3362 N   0  0  0  0  0  0  0  0  0  0  0  0
   -0.9434    0.3366   -0.7116 O   0  0  0  0  0  0  0  0  0  0  0  0
    0.9891   -1.2802    0.0570 H   0  0  0  0  0  0  0  0  0  0  0  0
  1  2  1  0
  1  5  1  0
  2  4  1  0
  2  3  2  0
  4  6  1  0
  4  7  1  0
  8  9  2  3
  8 14  1  0
  9 10  1  0
  9 13  1  0
 10 11  1  0
 11 12  2  0
 12 13  1  0
M  RAD  1   1   2
M  END
>  <reaction>  (4) 
kfir_rxn_8008

>  <mol_properties>  (4) 
{"0": {"label": "*3", "atom_type": "N3s"}, "1": {"label": "*4", "atom_type": "CO"}, "7": {"label": "*1", "atom_type": "N3d"}, "8": {"label": "*0", "atom_type": "Cd"}, "13": {"label": "*2", "atom_type": "H0"}}

>  <type>  (4) 
ts

$$$$
