
     RDKit          3D

  7  6  0  0  0  0  0  0  0  0999 V2000
   -0.6468   -0.0443   -0.0231 C   0  0  0  0  0  0  0  0  0  0  0  0
    0.8470    0.0371    0.0688 C   0  0  0  0  0  0  0  0  0  0  0  0
    1.4866   -0.2280    1.0479 O   0  0  0  0  0  0  0  0  0  0  0  0
   -1.0466    0.9363   -0.2943 H   0  0  0  0  0  0  0  0  0  0  0  0
   -0.9229   -0.7318   -0.8269 H   0  0  0  0  0  0  0  0  0  0  0  0
   -1.0759   -0.3772    0.9198 H   0  0  0  0  0  0  0  0  0  0  0  0
    1.3584    0.3712   -0.8589 H   0  0  0  0  0  0  0  0  0  0  0  0
  1  2  1  0
  1  4  1  0
  1  5  1  0
  1  6  1  0
  2  3  2  0
  2  7  1  0
M  END
>  <reaction>  (1) 
kfir_rxn_9885

>  <mol_properties>  (1) 
{"1": {"label": "donator", "atom_type": "CO"}, "6": {"label": "d_hydrogen", "atom_type": "H0"}}

>  <type>  (1) 
r1h

$$$$

     RDKit          3D

  6  6  0  0  0  0  0  0  0  0999 V2000
    0.8244   -0.2363   -0.2765 C   0  0  0  0  0  3  0  0  0  0  0  0
   -0.5734    0.0492   -0.0604 C   0  0  0  0  0  0  0  0  0  0  0  0
    0.2695   -0.6651    0.8832 O   0  0  0  0  0  0  0  0  0  0  0  0
    1.7087    0.3935   -0.2928 H   0  0  0  0  0  0  0  0  0  0  0  0
   -0.9043    1.0205    0.2951 H   0  0  0  0  0  0  0  0  0  0  0  0
   -1.3249   -0.5618   -0.5486 H   0  0  0  0  0  0  0  0  0  0  0  0
  1  2  1  0
  1  3  1  0
  1  4  1  0
  2  3  1  0
  2  5  1  0
  2  6  1  0
M  RAD  1   1   2
M  END
>  <reaction>  (2) 
kfir_rxn_9885

>  <mol_properties>  (2) 
{"0": {"label": "acceptor", "atom_type": "Cs"}}

>  <type>  (2) 
r2

$$$$

     RDKit          3D

  7  7  0  0  0  0  0  0  0  0999 V2000
   -0.7268   -0.0467    0.0634 C   0  0  0  0  0  0  0  0  0  0  0  0
    0.7235    0.1046    0.0109 C   0  0  0  0  0  0  0  0  0  0  0  0
    0.0414   -0.7158   -0.9186 O   0  0  0  0  0  0  0  0  0  0  0  0
   -1.3615    0.7523   -0.3079 H   0  0  0  0  0  0  0  0  0  0  0  0
   -1.1708   -0.6854    0.8209 H   0  0  0  0  0  0  0  0  0  0  0  0
    1.1518    1.0144   -0.3988 H   0  0  0  0  0  0  0  0  0  0  0  0
    1.3425   -0.4233    0.7300 H   0  0  0  0  0  0  0  0  0  0  0  0
  1  2  1  0
  1  3  1  0
  1  4  1  0
  1  5  1  0
  2  3  1  0
  2  6  1  0
  2  7  1  0
M  END
>  <reaction>  (3) 
kfir_rxn_9885

>  <mol_properties>  (3) 
{"0": {"label": "acceptor", "atom_type": "Cs"}, "6": {"label": "a_hydrogen", "atom_type": "H0"}}

>  <type>  (3) 
r2h

$$$$

     RDKit          3D

 13 12  0  0  0  0  0  0  0  0999 V2000
   -0.1460   -1.1714    0.7001 C   0  0  0  0  0  3  0  0  0  0  0  0
    0.7465   -2.2097    0.2241 C   0  0  0  0  0  0  0  0  0  0  0  0
   -0.5291   -1.9513   -0.3809 O   0  0  0  0  0  0  0  0  0  0  0  0
   -0.7417   -1.2142    1.6096 H   0  0  0  0  0  0  0  0  0  0  0  0
    1.6055   -1.9349   -0.3812 H   0  0  0  0  0  0  0  0  0  0  0  0
    0.8172   -3.1615    0.7410 H   0  0  0  0  0  0  0  0  0  0  0  0
   -0.2488    1.4924   -1.5893 C   0  0  0  0  0  0  0  0  0  0  0  0
    0.5704    1.2554   -0.3551 C   0  0  0  0  0  0  0  0  0  0  0  0
    1.4601    1.9305    0.0524 O   0  0  0  0  0  0  0  0  0  0  0  0
   -0.1970    0.6034   -2.2210 H   0  0  0  0  0  0  0  0  0  0  0  0
   -1.2947    1.6065   -1.2953 H   0  0  0  0  0  0  0  0  0  0  0  0
    0.0931    2.3746   -2.1290 H   0  0  0  0  0  0  0  0  0  0  0  0
    0.2307    0.1838    0.2534 H   0  0  0  0  0  0  0  0  0  0  0  0
  1  2  1  0
  1  3  1  0
  1  4  1  0
  2  3  1  0
  2  5  1  0
  2  6  1  0
  7  8  1  0
  7 10  1  0
  7 11  1  0
  7 12  1  0
  8  9  2  0
  8 13  1  0
M  RAD  1   1   2
M  END
>  <reaction>  (4) 
kfir_rxn_9885

>  <mol_properties>  (4) 
{"0": {"label": "*3", "atom_type": "Cs"}, "2": {"label": "*4", "atom_type": "O2s"}, "7": {"label": "*1", "atom_type": "CO"}, "8": {"label": "*0", "atom_type": "O2d"}, "12": {"label": "*2", "atom_type": "H0"}}

>  <type>  (4) 
ts

$$$$
