
     RDKit          3D

  7  6  0  0  0  0  0  0  0  0999 V2000
   -2.1655    1.0146    0.0087 N   0  0  0  0  0  0  0  0  0  0  0  0
   -1.2095    0.3846    0.0054 C   0  0  0  0  0  0  0  0  0  0  0  0
   -0.0101   -0.4520    0.0013 C   0  0  0  0  0  0  0  0  0  0  0  0
    1.2256    0.3300   -0.0075 C   0  0  0  0  0  0  0  0  0  0  0  0
    2.2088    0.9164   -0.0144 N   0  0  0  0  0  0  0  0  0  0  0  0
   -0.0199   -1.0943    0.8846 H   0  0  0  0  0  0  0  0  0  0  0  0
   -0.0293   -1.0993   -0.8781 H   0  0  0  0  0  0  0  0  0  0  0  0
  1  2  3  0
  2  3  1  0
  3  4  1  0
  3  6  1  0
  3  7  1  0
  4  5  3  0
M  END
>  <reaction>  (1) 
kfir_rxn_13712

>  <mol_properties>  (1) 
{"2": {"label": "donator", "atom_type": "Cs"}, "5": {"label": "d_hydrogen", "atom_type": "H0"}}

>  <type>  (1) 
r1h

$$$$

     RDKit          3D

  7  7  0  0  0  0  0  0  0  0999 V2000
   -1.2563   -0.1887   -0.1652 C   0  0  0  0  0  3  0  0  0  0  0  0
   -0.8762    0.2757    1.0458 O   0  0  0  0  0  0  0  0  0  0  0  0
    0.0069    0.5193   -0.0759 C   0  0  0  0  0  0  0  0  0  0  0  0
    1.2682   -0.1856   -0.0305 C   0  0  0  0  0  0  0  0  0  0  0  0
    2.2734   -0.7380   -0.0315 N   0  0  0  0  0  0  0  0  0  0  0  0
   -1.4852   -1.2346   -0.3436 H   0  0  0  0  0  0  0  0  0  0  0  0
    0.0691    1.5520   -0.3991 H   0  0  0  0  0  0  0  0  0  0  0  0
  1  3  1  0
  1  2  1  0
  1  6  1  0
  2  3  1  0
  3  4  1  0
  3  7  1  0
  4  5  3  0
M  RAD  1   1   2
M  END
>  <reaction>  (2) 
kfir_rxn_13712

>  <mol_properties>  (2) 
{"0": {"label": "acceptor", "atom_type": "Cs"}}

>  <type>  (2) 
r2

$$$$

     RDKit          3D

  8  8  0  0  0  0  0  0  0  0999 V2000
   -1.0326   -0.2211    0.1256 C   0  0  0  0  0  0  0  0  0  0  0  0
   -0.6806    0.6423   -0.9351 O   0  0  0  0  0  0  0  0  0  0  0  0
    0.2609    0.4685    0.1012 C   0  0  0  0  0  0  0  0  0  0  0  0
    1.4683   -0.2600   -0.2326 C   0  0  0  0  0  0  0  0  0  0  0  0
    2.4332   -0.8311   -0.4724 N   0  0  0  0  0  0  0  0  0  0  0  0
   -1.8016    0.1476    0.7963 H   0  0  0  0  0  0  0  0  0  0  0  0
   -1.0701   -1.2763   -0.1236 H   0  0  0  0  0  0  0  0  0  0  0  0
    0.4225    1.3301    0.7407 H   0  0  0  0  0  0  0  0  0  0  0  0
  1  3  1  0
  1  2  1  0
  1  6  1  0
  1  7  1  0
  2  3  1  0
  3  4  1  0
  3  8  1  0
  4  5  3  0
M  END
>  <reaction>  (3) 
kfir_rxn_13712

>  <mol_properties>  (3) 
{"0": {"label": "acceptor", "atom_type": "Cs"}, "7": {"label": "a_hydrogen", "atom_type": "H0"}}

>  <type>  (3) 
r2h

$$$$

     RDKit          3D

 14 13  0  0  0  0  0  0  0  0999 V2000
    1.2721    0.1815    1.0432 C   0  0  0  0  0  3  0  0  0  0  0  0
    1.2674    1.3577    1.7313 O   0  0  0  0  0  0  0  0  0  0  0  0
    1.7348    1.3893    0.3722 C   0  0  0  0  0  0  0  0  0  0  0  0
    0.8638    2.0469   -0.5783 C   0  0  0  0  0  0  0  0  0  0  0  0
    0.1616    2.5454   -1.3349 N   0  0  0  0  0  0  0  0  0  0  0  0
    1.8712   -0.6614    1.3780 H   0  0  0  0  0  0  0  0  0  0  0  0
    2.7926    1.5954    0.2569 H   0  0  0  0  0  0  0  0  0  0  0  0
   -0.5831   -2.3355   -1.6616 N   0  0  0  0  0  0  0  0  0  0  0  0
   -0.8831   -1.5764   -0.8546 C   0  0  0  0  0  0  0  0  0  0  0  0
   -1.1671   -0.5961    0.1612 C   0  0  0  0  0  0  0  0  0  0  0  0
   -1.9108   -1.0693    1.2989 C   0  0  0  0  0  0  0  0  0  0  0  0
   -2.4606   -1.4177    2.2443 N   0  0  0  0  0  0  0  0  0  0  0  0
   -0.0089   -0.2473    0.6175 H   0  0  0  0  0  0  0  0  0  0  0  0
   -1.5616    0.3328   -0.2494 H   0  0  0  0  0  0  0  0  0  0  0  0
  1  3  1  0
  1  2  1  0
  1  6  1  0
  2  3  1  0
  3  4  1  0
  3  7  1  0
  4  5  3  0
  8  9  3  0
  9 10  1  0
 10 11  1  0
 10 13  1  0
 10 14  1  0
 11 12  3  0
M  RAD  1   1   2
M  END
>  <reaction>  (4) 
kfir_rxn_13712

>  <mol_properties>  (4) 
{"0": {"label": "*3", "atom_type": "Cs"}, "1": {"label": "*4", "atom_type": "O2s"}, "8": {"label": "*0", "atom_type": "Ct"}, "9": {"label": "*1", "atom_type": "Cs"}, "12": {"label": "*2", "atom_type": "H0"}}

>  <type>  (4) 
ts

$$$$
