
     RDKit          3D

  6  5  0  0  0  0  0  0  0  0999 V2000
    1.3543    1.0529    0.1454 O   0  0  0  0  0  0  0  0  0  0  0  0
    0.7621    0.0240   -0.0005 C   0  0  0  0  0  0  0  0  0  0  0  0
   -0.7621   -0.0240    0.0005 C   0  0  0  0  0  0  0  0  0  0  0  0
   -1.3543   -1.0529   -0.1454 O   0  0  0  0  0  0  0  0  0  0  0  0
    1.2588   -0.9541   -0.1447 H   0  0  0  0  0  0  0  0  0  0  0  0
   -1.2588    0.9541    0.1447 H   0  0  0  0  0  0  0  0  0  0  0  0
  1  2  2  0
  2  3  1  0
  2  5  1  0
  3  4  2  0
  3  6  1  0
M  END
>  <reaction>  (1) 
kfir_rxn_11197

>  <mol_properties>  (1) 
{"2": {"label": "donator", "atom_type": "CO"}, "5": {"label": "d_hydrogen", "atom_type": "H0"}}

>  <type>  (1) 
r1h

$$$$

     RDKit          3D

  6  5  0  0  0  0  0  0  0  0999 V2000
   -1.0578    1.1910   -0.1492 O   0  0  0  0  0  1  0  0  0  0  0  0
   -0.4642   -0.0130    0.0051 C   0  0  0  0  0  0  0  0  0  0  0  0
    1.0136   -0.0026   -0.0071 C   0  0  0  0  0  0  0  0  0  0  0  0
    2.1596   -0.0104   -0.0146 N   0  0  0  0  0  0  0  0  0  0  0  0
   -0.8305   -0.6957   -0.7795 H   0  0  0  0  0  0  0  0  0  0  0  0
   -0.8178   -0.4685    0.9451 H   0  0  0  0  0  0  0  0  0  0  0  0
  1  2  1  0
  2  3  1  0
  2  5  1  0
  2  6  1  0
  3  4  3  0
M  RAD  1   1   2
M  END
>  <reaction>  (2) 
kfir_rxn_11197

>  <mol_properties>  (2) 
{"0": {"label": "acceptor", "atom_type": "O2s"}}

>  <type>  (2) 
r2

$$$$

     RDKit          3D

  7  6  0  0  0  0  0  0  0  0999 V2000
   -1.0240    0.8044   -0.4204 O   0  0  0  0  0  0  0  0  0  0  0  0
   -0.3365   -0.3409    0.0003 C   0  0  0  0  0  0  0  0  0  0  0  0
    1.1270   -0.1767   -0.0328 C   0  0  0  0  0  0  0  0  0  0  0  0
    2.2637   -0.0259   -0.0358 N   0  0  0  0  0  0  0  0  0  0  0  0
   -0.8050    1.5374    0.1584 H   0  0  0  0  0  0  0  0  0  0  0  0
   -0.6168   -0.6523    1.0127 H   0  0  0  0  0  0  0  0  0  0  0  0
   -0.6084   -1.1459   -0.6824 H   0  0  0  0  0  0  0  0  0  0  0  0
  1  2  1  0
  1  5  1  0
  2  3  1  0
  2  6  1  0
  2  7  1  0
  3  4  3  0
M  END
>  <reaction>  (3) 
kfir_rxn_11197

>  <mol_properties>  (3) 
{"0": {"label": "acceptor", "atom_type": "O2s"}, "6": {"label": "a_hydrogen", "atom_type": "H0"}}

>  <type>  (3) 
r2h

$$$$

     RDKit          3D

 12 10  0  0  0  0  0  0  0  0999 V2000
    0.6795    1.3649   -0.3147 O   0  0  0  0  0  1  0  0  0  0  0  0
   -0.5731    1.9053   -0.1550 C   0  0  0  0  0  0  0  0  0  0  0  0
   -1.5384    1.4910   -1.1941 C   0  0  0  0  0  0  0  0  0  0  0  0
   -2.2866    1.1463   -1.9916 N   0  0  0  0  0  0  0  0  0  0  0  0
   -0.4763    2.9986   -0.1747 H   0  0  0  0  0  0  0  0  0  0  0  0
   -1.0052    1.6591    0.8277 H   0  0  0  0  0  0  0  0  0  0  0  0
    2.0766   -2.1693    0.0963 O   0  0  0  0  0  0  0  0  0  0  0  0
    1.0832   -2.1402    0.7465 C   0  0  0  0  0  0  0  0  0  0  0  0
    0.2328   -0.8527    0.8775 C   0  0  0  0  0  0  0  0  0  0  0  0
   -0.7217   -0.7848    1.5732 O   0  0  0  0  0  0  0  0  0  0  0  0
    0.6785   -2.9995    1.3128 H   0  0  0  0  0  0  0  0  0  0  0  0
    0.6136    0.0827    0.2259 H   0  0  0  0  0  0  0  0  0  0  0  0
  1  2  1  0
  2  3  1  0
  2  5  1  0
  2  6  1  0
  3  4  3  0
  7  8  2  0
  8  9  1  0
  8 11  1  0
  9 10  2  0
  9 12  1  0
M  RAD  1   1   2
M  END
>  <reaction>  (4) 
kfir_rxn_11197

>  <mol_properties>  (4) 
{"0": {"label": "*3", "atom_type": "O2s"}, "1": {"label": "*4", "atom_type": "Cs"}, "7": {"label": "*0", "atom_type": "CO"}, "8": {"label": "*1", "atom_type": "CO"}, "11": {"label": "*2", "atom_type": "H0"}}

>  <type>  (4) 
ts

$$$$
