
     RDKit          3D

  7  6  0  0  0  0  0  0  0  0999 V2000
    1.6899   -0.1839   -0.0115 C   0  0  0  0  0  0  0  0  0  0  0  0
    0.5000   -0.0544   -0.0034 C   0  0  0  0  0  0  0  0  0  0  0  0
   -0.9469    0.1030    0.0064 C   0  0  0  0  0  0  0  0  0  0  0  0
    2.7470   -0.2989   -0.0186 H   0  0  0  0  0  0  0  0  0  0  0  0
   -1.4140   -0.5835   -0.7010 H   0  0  0  0  0  0  0  0  0  0  0  0
   -1.2257    1.1206   -0.2707 H   0  0  0  0  0  0  0  0  0  0  0  0
   -1.3502   -0.1030    0.9988 H   0  0  0  0  0  0  0  0  0  0  0  0
  1  2  3  0
  1  4  1  0
  2  3  1  0
  3  5  1  0
  3  6  1  0
  3  7  1  0
M  END
>  <reaction>  (1) 
kfir_rxn_10391

>  <mol_properties>  (1) 
{"2": {"label": "donator", "atom_type": "Cs"}, "4": {"label": "d_hydrogen", "atom_type": "H0"}}

>  <type>  (1) 
r1h

$$$$

     RDKit          3D

  7  7  0  0  0  0  0  0  0  0999 V2000
    2.2415   -0.3638    0.0188 O   0  0  0  0  0  1  0  0  0  0  0  0
    1.0665   -0.1070    0.0046 C   0  0  0  0  0  0  0  0  0  0  0  0
    0.5711    1.2135   -0.0799 N   0  0  0  0  0  0  0  0  0  0  0  0
   -0.7552    1.0761   -0.0681 O   0  0  0  0  0  0  0  0  0  0  0  0
   -1.0291   -0.2708    0.0198 C   0  0  0  0  0  0  0  0  0  0  0  0
   -0.0170   -1.0196    0.0661 N   0  0  0  0  0  0  0  0  0  0  0  0
   -2.0778   -0.5284    0.0387 H   0  0  0  0  0  0  0  0  0  0  0  0
  1  2  1  0
  2  6  1  0
  2  3  2  0
  3  4  1  0
  4  5  1  0
  5  6  2  0
  5  7  1  0
M  RAD  1   1   2
M  END
>  <reaction>  (2) 
kfir_rxn_10391

>  <mol_properties>  (2) 
{"0": {"label": "acceptor", "atom_type": "O2s"}}

>  <type>  (2) 
r2

$$$$

     RDKit          3D

  8  8  0  0  0  0  0  0  0  0999 V2000
    1.9174   -0.4552    0.1616 O   0  0  0  0  0  0  0  0  0  0  0  0
    0.6481   -0.1001    0.0411 C   0  0  0  0  0  0  0  0  0  0  0  0
    0.2591    1.1026   -0.2704 N   0  0  0  0  0  0  0  0  0  0  0  0
   -1.1256    0.9842   -0.2749 O   0  0  0  0  0  0  0  0  0  0  0  0
   -1.3900   -0.2729    0.0342 C   0  0  0  0  0  0  0  0  0  0  0  0
   -0.3517   -1.0058    0.2439 N   0  0  0  0  0  0  0  0  0  0  0  0
    2.4705    0.3119   -0.0173 H   0  0  0  0  0  0  0  0  0  0  0  0
   -2.4279   -0.5647    0.0818 H   0  0  0  0  0  0  0  0  0  0  0  0
  1  2  1  0
  1  7  1  0
  2  6  1  0
  2  3  2  0
  3  4  1  0
  4  5  1  0
  5  6  2  0
  5  8  1  0
M  END
>  <reaction>  (3) 
kfir_rxn_10391

>  <mol_properties>  (3) 
{"0": {"label": "acceptor", "atom_type": "O2s"}, "7": {"label": "a_hydrogen", "atom_type": "H0"}}

>  <type>  (3) 
r2h

$$$$

     RDKit          3D

 14 13  0  0  0  0  0  0  0  0999 V2000
   -1.5030    0.7443    0.4936 O   0  0  0  0  0  0  0  0  0  0  0  0
   -0.2186    0.7239    0.5151 C   0  0  0  0  0  0  0  0  0  0  0  0
    0.5215    1.2721   -0.4402 N   0  0  0  0  0  0  0  0  0  0  0  0
    1.8086    1.0499   -0.0233 O   0  0  0  0  0  0  0  0  0  0  0  0
    1.7281    0.3805    1.1297 C   0  0  0  0  0  0  0  0  0  0  0  0
    0.5350    0.1399    1.5212 N   0  0  0  0  0  0  0  0  0  0  0  0
    2.6603    0.1165    1.6058 H   0  0  0  0  0  0  0  0  0  0  0  0
    0.1505   -1.5538   -2.0555 C   0  0  0  0  0  0  0  0  0  0  0  0
   -0.9227   -1.5217   -1.5036 C   0  0  0  0  0  0  0  0  0  0  0  0
   -2.1263   -1.3544   -0.7952 C   0  0  0  0  0  3  0  0  0  0  0  0
    1.0836   -1.5966   -2.5650 H   0  0  0  0  0  0  0  0  0  0  0  0
   -1.9110   -0.2805   -0.1151 H   0  0  0  0  0  0  0  0  0  0  0  0
   -2.3275   -2.0976   -0.0271 H   0  0  0  0  0  0  0  0  0  0  0  0
   -2.9920   -1.0925   -1.3993 H   0  0  0  0  0  0  0  0  0  0  0  0
  1  2  1  0
  1 12  1  0
  2  6  1  0
  2  3  2  0
  3  4  1  0
  4  5  1  0
  5  6  2  0
  5  7  1  0
  8  9  3  0
  8 11  1  0
  9 10  1  0
 10 13  1  0
 10 14  1  0
M  RAD  1  10   2
M  END
>  <reaction>  (4) 
kfir_rxn_10391

>  <mol_properties>  (4) 
{"0": {"label": "*1", "atom_type": "O2s"}, "1": {"label": "*0", "atom_type": "Cd"}, "8": {"label": "*4", "atom_type": "Ct"}, "9": {"label": "*3", "atom_type": "Cs"}, "11": {"label": "*2", "atom_type": "H0"}}

>  <type>  (4) 
ts

$$$$
