
     RDKit          3D

  3  2  0  0  0  0  0  0  0  0999 V2000
   -0.0003    0.3867    0.0000 O   0  0  0  0  0  0  0  0  0  0  0  0
   -0.7617   -0.1940    0.0000 H   0  0  0  0  0  0  0  0  0  0  0  0
    0.7620   -0.1927    0.0000 H   0  0  0  0  0  0  0  0  0  0  0  0
  1  2  1  0
  1  3  1  0
M  END
>  <reaction>  (1) 
kfir_rxn_9205

>  <mol_properties>  (1) 
{"0": {"label": "donator", "atom_type": "O2s"}, "1": {"label": "d_hydrogen", "atom_type": "H0"}}

>  <type>  (1) 
r1h

$$$$

     RDKit          3D

  7  7  0  0  0  0  0  0  0  0999 V2000
   -1.0777   -0.1882    0.2036 N   0  0  0  0  0  0  0  0  0  0  0  0
   -0.0154   -0.9855    0.0732 C   0  0  0  0  0  3  0  0  0  0  0  0
    1.0822   -0.1798    0.0731 C   0  0  0  0  0  0  0  0  0  0  0  0
    0.6156    1.0906    0.2064 N   0  0  0  0  0  0  0  0  0  0  0  0
   -0.6783    1.0900    0.2849 N   0  0  0  0  0  0  0  0  0  0  0  0
   -2.0547   -0.4176    0.2440 H   0  0  0  0  0  0  0  0  0  0  0  0
    2.1283   -0.4095   -0.0094 H   0  0  0  0  0  0  0  0  0  0  0  0
  1  2  1  0
  1  5  1  0
  1  6  1  0
  2  3  2  0
  3  4  1  0
  3  7  1  0
  4  5  2  0
M  RAD  1   2   2
M  END
>  <reaction>  (2) 
kfir_rxn_9205

>  <mol_properties>  (2) 
{"1": {"label": "acceptor", "atom_type": "Cd"}}

>  <type>  (2) 
r2

$$$$

     RDKit          3D

  8  8  0  0  0  0  0  0  0  0999 V2000
    0.0136    0.7458    0.1412 C   0  0  0  0  0  0  0  0  0  0  0  0
    1.0787   -0.0972   -0.0037 C   0  0  0  0  0  0  0  0  0  0  0  0
    0.6088   -1.3473   -0.2464 N   0  0  0  0  0  0  0  0  0  0  0  0
   -0.6812   -1.3199   -0.2588 N   0  0  0  0  0  0  0  0  0  0  0  0
   -1.0519   -0.0605   -0.0258 N   0  0  0  0  0  0  0  0  0  0  0  0
   -0.0710    1.7993    0.3392 H   0  0  0  0  0  0  0  0  0  0  0  0
    2.1327    0.1122    0.0503 H   0  0  0  0  0  0  0  0  0  0  0  0
   -2.0298    0.1677    0.0040 H   0  0  0  0  0  0  0  0  0  0  0  0
  1  2  2  0
  1  5  1  0
  1  6  1  0
  2  3  1  0
  2  7  1  0
  3  4  2  0
  4  5  1  0
  5  8  1  0
M  END
>  <reaction>  (3) 
kfir_rxn_9205

>  <mol_properties>  (3) 
{"1": {"label": "acceptor", "atom_type": "Cd"}, "7": {"label": "a_hydrogen", "atom_type": "H0"}}

>  <type>  (3) 
r2h

$$$$

     RDKit          3D

 10  9  0  0  0  0  0  0  0  0999 V2000
    0.0648   -0.0815    0.9670 N   0  0  0  0  0  0  0  0  0  0  0  0
   -0.1660   -0.3678   -0.3219 C   0  0  0  0  0  3  0  0  0  0  0  0
   -0.1139    0.8307   -0.9724 C   0  0  0  0  0  0  0  0  0  0  0  0
    0.1220    1.7826   -0.0337 N   0  0  0  0  0  0  0  0  0  0  0  0
    0.2292    1.2315    1.1340 N   0  0  0  0  0  0  0  0  0  0  0  0
    0.0938   -0.7029    1.7565 H   0  0  0  0  0  0  0  0  0  0  0  0
   -0.2388    1.0652   -2.0139 H   0  0  0  0  0  0  0  0  0  0  0  0
   -0.2377   -2.7191   -0.8909 O   0  0  0  0  0  0  0  0  0  0  0  0
   -0.4062   -1.6027   -0.7047 H   0  0  0  0  0  0  0  0  0  0  0  0
    0.6527   -2.7379   -1.2652 H   0  0  0  0  0  0  0  0  0  0  0  0
  1  2  1  0
  1  5  1  0
  1  6  1  0
  2  3  2  0
  3  4  1  0
  3  7  1  0
  4  5  2  0
  8  9  1  0
  8 10  1  0
M  RAD  1   2   2
M  END
>  <reaction>  (4) 
kfir_rxn_9205

>  <mol_properties>  (4) 
{"0": {"label": "*4", "atom_type": "N3s"}, "1": {"label": "*3", "atom_type": "Cd"}, "7": {"label": "*1", "atom_type": "O2s"}, "8": {"label": "*2", "atom_type": "H0"}, "9": {"label": "*0", "atom_type": "H0"}}

>  <type>  (4) 
ts

$$$$
