
     RDKit          3D

  7  6  0  0  0  0  0  0  0  0999 V2000
   -0.6468   -0.0443   -0.0231 C   0  0  0  0  0  0  0  0  0  0  0  0
    0.8470    0.0371    0.0688 C   0  0  0  0  0  0  0  0  0  0  0  0
    1.4866   -0.2280    1.0479 O   0  0  0  0  0  0  0  0  0  0  0  0
   -1.0466    0.9363   -0.2943 H   0  0  0  0  0  0  0  0  0  0  0  0
   -0.9229   -0.7318   -0.8269 H   0  0  0  0  0  0  0  0  0  0  0  0
   -1.0759   -0.3772    0.9198 H   0  0  0  0  0  0  0  0  0  0  0  0
    1.3584    0.3712   -0.8589 H   0  0  0  0  0  0  0  0  0  0  0  0
  1  2  1  0
  1  4  1  0
  1  5  1  0
  1  6  1  0
  2  3  2  0
  2  7  1  0
M  END
>  <reaction>  (1) 
kfir_rxn_7559

>  <mol_properties>  (1) 
{"0": {"label": "donator", "atom_type": "Cs"}, "3": {"label": "d_hydrogen", "atom_type": "H0"}}

>  <type>  (1) 
r1h

$$$$

     RDKit          3D

  7  6  0  0  0  0  0  0  0  0999 V2000
   -0.9673   -0.4220   -0.0861 N   0  0  0  0  0  0  0  0  0  0  0  0
    0.0644    0.4819   -0.0689 C   0  0  0  0  0  0  0  0  0  0  0  0
    1.2979    0.2151    0.0008 N   0  0  0  0  0  2  0  0  0  0  0  0
   -0.3128    1.8792   -0.1935 C   0  0  0  0  0  0  0  0  0  0  0  0
   -0.6166    2.9819   -0.2750 N   0  0  0  0  0  0  0  0  0  0  0  0
   -0.7341   -1.3660    0.1717 H   0  0  0  0  0  0  0  0  0  0  0  0
   -1.8696   -0.0956    0.2138 H   0  0  0  0  0  0  0  0  0  0  0  0
  1  2  1  0
  1  6  1  0
  1  7  1  0
  2  4  1  0
  2  3  2  0
  4  5  3  0
M  RAD  1   3   2
M  END
>  <reaction>  (2) 
kfir_rxn_7559

>  <mol_properties>  (2) 
{"2": {"label": "acceptor", "atom_type": "N3d"}}

>  <type>  (2) 
r2

$$$$

     RDKit          3D

  8  7  0  0  0  0  0  0  0  0999 V2000
   -1.1291   -0.3823    0.4003 N   0  0  0  0  0  0  0  0  0  0  0  0
    0.1759   -0.1441    0.0995 C   0  0  0  0  0  0  0  0  0  0  0  0
    1.1163   -0.9238    0.4406 N   0  0  0  0  0  0  0  0  0  0  0  0
    0.4005    1.1061   -0.6210 C   0  0  0  0  0  0  0  0  0  0  0  0
    0.6143    2.0747   -1.1970 N   0  0  0  0  0  0  0  0  0  0  0  0
   -1.8553    0.1184   -0.0761 H   0  0  0  0  0  0  0  0  0  0  0  0
   -1.3455   -1.2858    0.7840 H   0  0  0  0  0  0  0  0  0  0  0  0
    2.0230   -0.5632    0.1698 H   0  0  0  0  0  0  0  0  0  0  0  0
  1  2  1  0
  1  6  1  0
  1  7  1  0
  2  4  1  0
  2  3  2  3
  3  8  1  0
  4  5  3  0
M  END
>  <reaction>  (3) 
kfir_rxn_7559

>  <mol_properties>  (3) 
{"2": {"label": "acceptor", "atom_type": "N3d"}, "7": {"label": "a_hydrogen", "atom_type": "H0"}}

>  <type>  (3) 
r2h

$$$$

     RDKit          3D

 14 12  0  0  0  0  0  0  0  0999 V2000
   -2.3297   -0.0271    1.7709 N   0  0  0  0  0  0  0  0  0  0  0  0
   -1.1235    0.1240    1.1495 C   0  0  0  0  0  0  0  0  0  0  0  0
   -0.6813    1.2477    0.7548 N   0  0  0  0  0  2  0  0  0  0  0  0
   -0.3675   -1.1144    1.0144 C   0  0  0  0  0  0  0  0  0  0  0  0
    0.2287   -2.0863    0.8917 N   0  0  0  0  0  0  0  0  0  0  0  0
   -2.9446    0.7688    1.7583 H   0  0  0  0  0  0  0  0  0  0  0  0
   -2.7560   -0.9364    1.7855 H   0  0  0  0  0  0  0  0  0  0  0  0
    1.7160    0.9376   -0.1849 C   0  0  0  0  0  0  0  0  0  0  0  0
    1.5520    0.3797   -1.5410 C   0  0  0  0  0  0  0  0  0  0  0  0
    1.5722    1.0440   -2.5464 O   0  0  0  0  0  0  0  0  0  0  0  0
    0.5163    1.1235    0.2467 H   0  0  0  0  0  0  0  0  0  0  0  0
    2.1561    0.2584    0.5417 H   0  0  0  0  0  0  0  0  0  0  0  0
    2.1118    1.9500   -0.1635 H   0  0  0  0  0  0  0  0  0  0  0  0
    1.3783   -0.7129   -1.5908 H   0  0  0  0  0  0  0  0  0  0  0  0
  1  2  1  0
  1  6  1  0
  1  7  1  0
  2  4  1  0
  2  3  2  0
  4  5  3  0
  8  9  1  0
  8 11  1  0
  8 12  1  0
  8 13  1  0
  9 10  2  0
  9 14  1  0
M  RAD  1   3   2
M  END
>  <reaction>  (4) 
kfir_rxn_7559

>  <mol_properties>  (4) 
{"1": {"label": "*4", "atom_type": "Cd"}, "2": {"label": "*3", "atom_type": "N3d"}, "7": {"label": "*1", "atom_type": "Cs"}, "8": {"label": "*0", "atom_type": "CO"}, "10": {"label": "*2", "atom_type": "H0"}}

>  <type>  (4) 
ts

$$$$
