
     RDKit          3D

  7  6  0  0  0  0  0  0  0  0999 V2000
   -1.0240    0.8044   -0.4204 O   0  0  0  0  0  0  0  0  0  0  0  0
   -0.3365   -0.3409    0.0003 C   0  0  0  0  0  0  0  0  0  0  0  0
    1.1270   -0.1767   -0.0328 C   0  0  0  0  0  0  0  0  0  0  0  0
    2.2637   -0.0259   -0.0358 N   0  0  0  0  0  0  0  0  0  0  0  0
   -0.8050    1.5374    0.1584 H   0  0  0  0  0  0  0  0  0  0  0  0
   -0.6168   -0.6523    1.0127 H   0  0  0  0  0  0  0  0  0  0  0  0
   -0.6084   -1.1459   -0.6824 H   0  0  0  0  0  0  0  0  0  0  0  0
  1  2  1  0
  1  5  1  0
  2  3  1  0
  2  6  1  0
  2  7  1  0
  3  4  3  0
M  END
>  <reaction>  (1) 
kfir_rxn_11915

>  <mol_properties>  (1) 
{"0": {"label": "donator", "atom_type": "O2s"}, "4": {"label": "d_hydrogen", "atom_type": "H0"}}

>  <type>  (1) 
r1h

$$$$

     RDKit          3D

  7  7  0  0  0  0  0  0  0  0999 V2000
   -0.5795   -0.9546    0.3448 C   0  0  0  0  0  0  0  0  0  0  0  0
   -1.2349    0.1340   -0.1073 C   0  0  0  0  0  0  0  0  0  0  0  0
   -0.0385    1.1836   -0.7712 S   0  0  0  0  0  0  0  0  0  0  0  0
    1.1783    0.0506   -0.3673 C   0  0  0  0  0  3  0  0  0  0  0  0
    0.7366   -1.0298    0.2176 N   0  0  0  0  0  0  0  0  0  0  0  0
   -2.2819    0.3808   -0.0978 H   0  0  0  0  0  0  0  0  0  0  0  0
    2.2200    0.2353   -0.5878 H   0  0  0  0  0  0  0  0  0  0  0  0
  1  2  2  0
  1  5  2  0
  2  3  1  0
  2  6  1  0
  3  4  1  0
  4  5  1  0
  4  7  1  0
M  RAD  1   4   2
M  END
>  <reaction>  (2) 
kfir_rxn_11915

>  <mol_properties>  (2) 
{"0": {"label": "acceptor", "atom_type": "Cd"}}

>  <type>  (2) 
r2

$$$$

     RDKit          3D

  8  8  0  0  0  0  0  0  0  0999 V2000
    1.3723   -0.0859    0.4324 C   0  0  0  0  0  0  0  0  0  0  0  0
    0.6856    1.0074    0.5303 N   0  0  0  0  0  0  0  0  0  0  0  0
   -0.6515    0.7383    0.4368 C   0  0  0  0  0  0  0  0  0  0  0  0
   -0.9797   -0.5682    0.2669 C   0  0  0  0  0  0  0  0  0  0  0  0
    0.4418   -1.5119    0.2206 S   0  0  0  0  0  0  0  0  0  0  0  0
    2.4514   -0.1248    0.4776 H   0  0  0  0  0  0  0  0  0  0  0  0
   -1.3608    1.5508    0.5003 H   0  0  0  0  0  0  0  0  0  0  0  0
   -1.9592   -1.0058    0.1699 H   0  0  0  0  0  0  0  0  0  0  0  0
  1  2  2  0
  1  5  1  0
  1  6  1  0
  2  3  1  0
  3  4  2  0
  3  7  1  0
  4  5  1  0
  4  8  1  0
M  END
>  <reaction>  (3) 
kfir_rxn_11915

>  <mol_properties>  (3) 
{"0": {"label": "acceptor", "atom_type": "Cd"}, "7": {"label": "a_hydrogen", "atom_type": "H0"}}

>  <type>  (3) 
r2h

$$$$

     RDKit          3D

 14 13  0  0  0  0  0  0  0  0999 V2000
   -0.3018    0.2694    0.6095 C   0  0  0  0  0  0  0  0  0  0  0  0
   -1.4291    1.0141    0.5515 C   0  0  0  0  0  0  0  0  0  0  0  0
   -1.0219    2.4980   -0.2047 S   0  0  0  0  0  0  0  0  0  0  0  0
    0.5972    1.9717   -0.3677 C   0  0  0  0  0  3  0  0  0  0  0  0
    0.8246    0.7802    0.1059 N   0  0  0  0  0  0  0  0  0  0  0  0
   -2.4253    0.7849    0.8879 H   0  0  0  0  0  0  0  0  0  0  0  0
    1.3517    2.5916   -0.8298 H   0  0  0  0  0  0  0  0  0  0  0  0
    0.0779   -2.0244    1.4167 O   0  0  0  0  0  0  0  0  0  0  0  0
    1.1228   -2.4008    0.5817 C   0  0  0  0  0  0  0  0  0  0  0  0
    0.6754   -2.8077   -0.7639 C   0  0  0  0  0  0  0  0  0  0  0  0
    0.3267   -3.1114   -1.8132 N   0  0  0  0  0  0  0  0  0  0  0  0
   -0.2355   -0.9484    1.1188 H   0  0  0  0  0  0  0  0  0  0  0  0
    1.8671   -1.6038    0.4668 H   0  0  0  0  0  0  0  0  0  0  0  0
    1.6220   -3.2512    1.0558 H   0  0  0  0  0  0  0  0  0  0  0  0
  1  2  2  0
  1  5  2  0
  2  3  1  0
  2  6  1  0
  3  4  1  0
  4  5  1  0
  4  7  1  0
  8  9  1  0
  8 12  1  0
  9 10  1  0
  9 13  1  0
  9 14  1  0
 10 11  3  0
M  RAD  1   4   2
M  END
>  <reaction>  (4) 
kfir_rxn_11915

>  <mol_properties>  (4) 
{"0": {"label": "*3", "atom_type": "Cdd"}, "4": {"label": "*4", "atom_type": "N3d"}, "7": {"label": "*1", "atom_type": "O2s"}, "8": {"label": "*0", "atom_type": "Cs"}, "11": {"label": "*2", "atom_type": "H0"}}

>  <type>  (4) 
ts

$$$$
