
     RDKit          3D

  9  8  0  0  0  0  0  0  0  0999 V2000
   -1.2461    0.5037    0.0950 C   0  0  0  0  0  0  0  0  0  0  0  0
   -0.0155   -0.3334    0.0640 C   0  0  0  0  0  0  0  0  0  0  0  0
    1.0697    0.1457   -0.3733 N   0  0  0  0  0  0  0  0  0  0  0  0
    2.1001   -0.7834   -0.3224 O   0  0  0  0  0  0  0  0  0  0  0  0
   -2.0357    0.0440   -0.5039 H   0  0  0  0  0  0  0  0  0  0  0  0
   -1.6237    0.5897    1.1166 H   0  0  0  0  0  0  0  0  0  0  0  0
   -1.0397    1.4998   -0.2929 H   0  0  0  0  0  0  0  0  0  0  0  0
   -0.0537   -1.3634    0.4205 H   0  0  0  0  0  0  0  0  0  0  0  0
    2.8478   -0.2985   -0.6758 H   0  0  0  0  0  0  0  0  0  0  0  0
  1  2  1  0
  1  5  1  0
  1  6  1  0
  1  7  1  0
  2  3  2  3
  2  8  1  0
  3  4  1  0
  4  9  1  0
M  END
>  <reaction>  (1) 
rmg_rxn_323

>  <mol_properties>  (1) 
{"3": {"label": "donator", "atom_type": "O2s"}, "8": {"label": "d_hydrogen", "atom_type": "H0"}}

>  <type>  (1) 
r1h

$$$$

     RDKit          3D

 17 16  0  0  0  0  0  0  0  0999 V2000
   -2.5196    0.7765    0.6863 C   0  0  0  0  0  0  0  0  0  0  0  0
   -1.7832    0.2264   -0.5439 C   0  0  0  0  0  0  0  0  0  0  0  0
   -0.5364   -0.5090   -0.2164 C   0  0  0  0  0  3  0  0  0  0  0  0
   -0.7195   -1.6896    0.4220 O   0  0  0  0  0  0  0  0  0  0  0  0
    0.4618   -2.3470    0.8423 C   0  0  0  0  0  0  0  0  0  0  0  0
    0.0797   -3.6206    1.5573 C   0  0  0  0  0  0  0  0  0  0  0  0
   -1.8902    1.4809    1.2340 H   0  0  0  0  0  0  0  0  0  0  0  0
   -3.4347    1.2951    0.3937 H   0  0  0  0  0  0  0  0  0  0  0  0
   -2.7882   -0.0345    1.3642 H   0  0  0  0  0  0  0  0  0  0  0  0
   -2.4551   -0.4399   -1.0937 H   0  0  0  0  0  0  0  0  0  0  0  0
   -1.5294    1.0480   -1.2176 H   0  0  0  0  0  0  0  0  0  0  0  0
    0.3864    0.0229    0.0104 H   0  0  0  0  0  0  0  0  0  0  0  0
    1.0871   -2.5604   -0.0319 H   0  0  0  0  0  0  0  0  0  0  0  0
    1.0283   -1.6824    1.5065 H   0  0  0  0  0  0  0  0  0  0  0  0
   -0.4799   -4.2803    0.8934 H   0  0  0  0  0  0  0  0  0  0  0  0
    0.9764   -4.1449    1.8908 H   0  0  0  0  0  0  0  0  0  0  0  0
   -0.5383   -3.4025    2.4289 H   0  0  0  0  0  0  0  0  0  0  0  0
  1  2  1  0
  1  7  1  0
  1  8  1  0
  1  9  1  0
  2  3  1  0
  2 10  1  0
  2 11  1  0
  3  4  1  0
  3 12  1  0
  4  5  1  0
  5  6  1  0
  5 13  1  0
  5 14  1  0
  6 15  1  0
  6 16  1  0
  6 17  1  0
M  RAD  1   3   2
M  END
>  <reaction>  (2) 
rmg_rxn_323

>  <mol_properties>  (2) 
{"2": {"label": "acceptor", "atom_type": "Cs"}}

>  <type>  (2) 
r2

$$$$

     RDKit          3D

 18 17  0  0  0  0  0  0  0  0999 V2000
    2.2026   -0.7213   -0.2612 C   0  0  0  0  0  0  0  0  0  0  0  0
    1.5384    0.2638    0.6915 C   0  0  0  0  0  0  0  0  0  0  0  0
    2.2584    1.5946    0.7694 C   0  0  0  0  0  0  0  0  0  0  0  0
    2.2212    2.2185   -0.4893 O   0  0  0  0  0  0  0  0  0  0  0  0
    2.8988    3.4488   -0.5204 C   0  0  0  0  0  0  0  0  0  0  0  0
    2.7981    4.0296   -1.9118 C   0  0  0  0  0  0  0  0  0  0  0  0
    3.2294   -0.9309    0.0486 H   0  0  0  0  0  0  0  0  0  0  0  0
    2.2338   -0.3181   -1.2734 H   0  0  0  0  0  0  0  0  0  0  0  0
    1.6610   -1.6680   -0.2875 H   0  0  0  0  0  0  0  0  0  0  0  0
    1.4990   -0.1566    1.7002 H   0  0  0  0  0  0  0  0  0  0  0  0
    0.5055    0.4455    0.3835 H   0  0  0  0  0  0  0  0  0  0  0  0
    3.3038    1.4410    1.0808 H   0  0  0  0  0  0  0  0  0  0  0  0
    1.7844    2.2410    1.5226 H   0  0  0  0  0  0  0  0  0  0  0  0
    2.4596    4.1376    0.2164 H   0  0  0  0  0  0  0  0  0  0  0  0
    3.9524    3.3035   -0.2397 H   0  0  0  0  0  0  0  0  0  0  0  0
    1.7543    4.1869   -2.1856 H   0  0  0  0  0  0  0  0  0  0  0  0
    3.2472    3.3545   -2.6411 H   0  0  0  0  0  0  0  0  0  0  0  0
    3.3178    4.9878   -1.9600 H   0  0  0  0  0  0  0  0  0  0  0  0
  1  2  1  0
  1  7  1  0
  1  8  1  0
  1  9  1  0
  2  3  1  0
  2 10  1  0
  2 11  1  0
  3  4  1  0
  3 12  1  0
  3 13  1  0
  4  5  1  0
  5  6  1  0
  5 14  1  0
  5 15  1  0
  6 16  1  0
  6 17  1  0
  6 18  1  0
M  END
>  <reaction>  (3) 
rmg_rxn_323

>  <mol_properties>  (3) 
{"0": {"label": "a_hydrogen", "atom_type": "H0"}, "3": {"label": "acceptor", "atom_type": "Cs"}}

>  <type>  (3) 
r2h

$$$$

     RDKit          3D

 26 24  0  0  0  0  0  0  0  0999 V2000
    0.6866   -2.7899   -2.0595 C   0  0  0  0  0  0  0  0  0  0  0  0
   -0.5665   -2.0862   -1.6648 C   0  0  0  0  0  3  0  0  0  0  0  0
   -0.5202   -1.0866   -0.8839 N   0  0  0  0  0  2  0  0  0  0  0  0
   -1.6792   -0.5192   -0.5778 O   0  0  0  0  0  1  0  0  0  0  0  0
    0.6576   -3.8381   -1.7513 H   0  0  0  0  0  0  0  0  0  0  0  0
    0.8127   -2.7767   -3.1449 H   0  0  0  0  0  0  0  0  0  0  0  0
    1.5496   -2.3102   -1.5997 H   0  0  0  0  0  0  0  0  0  0  0  0
   -1.5240   -2.4362   -2.0520 H   0  0  0  0  0  0  0  0  0  0  0  0
   -1.3467    0.4722    0.1615 H   0  0  0  0  0  0  0  0  0  0  0  0
   -0.1652    2.5807   -1.2779 C   0  0  0  0  0  0  0  0  0  0  0  0
   -0.9227    2.6642    0.0420 C   0  0  0  0  0  0  0  0  0  0  0  0
   -0.8344    1.4050    0.8628 C   0  0  0  0  0  0  0  0  0  0  0  0
    0.4530    1.0392    1.1201 O   0  0  0  0  0  0  0  0  0  0  0  0
    0.6003   -0.0258    2.0484 C   0  0  0  0  0  0  0  0  0  0  0  0
    2.0256   -0.5159    1.9929 C   0  0  0  0  0  0  0  0  0  0  0  0
   -0.5550    1.7696   -1.8944 H   0  0  0  0  0  0  0  0  0  0  0  0
   -0.2616    3.5135   -1.8349 H   0  0  0  0  0  0  0  0  0  0  0  0
    0.8940    2.3912   -1.1066 H   0  0  0  0  0  0  0  0  0  0  0  0
   -0.5414    3.4977    0.6428 H   0  0  0  0  0  0  0  0  0  0  0  0
   -1.9809    2.8654   -0.1407 H   0  0  0  0  0  0  0  0  0  0  0  0
   -1.4712    1.3964    1.7578 H   0  0  0  0  0  0  0  0  0  0  0  0
    0.3426    0.3405    3.0500 H   0  0  0  0  0  0  0  0  0  0  0  0
   -0.0942   -0.8288    1.7865 H   0  0  0  0  0  0  0  0  0  0  0  0
    2.7223    0.2895    2.2285 H   0  0  0  0  0  0  0  0  0  0  0  0
    2.1716   -1.3219    2.7134 H   0  0  0  0  0  0  0  0  0  0  0  0
    2.2498   -0.8929    0.9950 H   0  0  0  0  0  0  0  0  0  0  0  0
  1  7  1  0
  1  5  1  0
  1  2  1  0
  1  6  1  0
  2  3  1  0
  2  8  1  0
  3  4  1  0
  9 12  1  0
 10 18  1  0
 10 16  1  0
 10 17  1  0
 10 11  1  0
 11 20  1  0
 11 19  1  0
 11 12  1  0
 12 21  1  0
 12 13  1  0
 13 14  1  0
 14 15  1  0
 14 22  1  0
 14 23  1  0
 15 25  1  0
 15 26  1  0
 15 24  1  0
M  RAD  3   2   2   3   2   4   2
M  END
>  <reaction>  (4) 
rmg_rxn_323

>  <mol_properties>  (4) 
{"2": {"label": "*4", "atom_type": "N3s"}, "3": {"label": "*3", "atom_type": "O2s"}, "8": {"label": "*2", "atom_type": "H0"}, "11": {"label": "*1", "atom_type": "Cs"}, "12": {"label": "*0", "atom_type": "O2s"}}

>  <type>  (4) 
ts

$$$$
