
     RDKit          3D

  8  7  0  0  0  0  0  0  0  0999 V2000
    0.9548    0.1194   -0.0790 C   0  0  0  0  0  0  0  0  0  0  0  0
   -0.4838   -0.2649    0.0193 C   0  0  0  0  0  0  0  0  0  0  0  0
   -0.8933   -1.1081    0.8664 N   0  0  0  0  0  0  0  0  0  0  0  0
    1.3360   -0.0983   -1.0800 H   0  0  0  0  0  0  0  0  0  0  0  0
    1.0698    1.1948    0.0786 H   0  0  0  0  0  0  0  0  0  0  0  0
    1.5426   -0.4219    0.6602 H   0  0  0  0  0  0  0  0  0  0  0  0
   -1.1575    0.2324   -0.6905 H   0  0  0  0  0  0  0  0  0  0  0  0
   -1.8989   -1.2455    0.7886 H   0  0  0  0  0  0  0  0  0  0  0  0
  1  2  1  0
  1  4  1  0
  1  5  1  0
  1  6  1  0
  2  3  2  3
  2  7  1  0
  3  8  1  0
M  END
>  <reaction>  (1) 
rmg_rxn_16731

>  <mol_properties>  (1) 
{"2": {"label": "donator", "atom_type": "N3d"}, "7": {"label": "d_hydrogen", "atom_type": "H0"}}

>  <type>  (1) 
r1h

$$$$

     RDKit          3D

 13 12  0  0  0  0  0  0  0  0999 V2000
    2.6140   -0.1760    0.1061 C   0  0  0  0  0  3  0  0  0  0  0  0
    1.7369    0.6015    0.7849 O   0  0  0  0  0  0  0  0  0  0  0  0
    0.3829    0.2955    0.5984 C   0  0  0  0  0  0  0  0  0  0  0  0
    0.0214   -0.9610    1.0915 O   0  0  0  0  0  0  0  0  0  0  0  0
   -0.0421   -1.1265    2.4384 C   0  0  0  0  0  0  0  0  0  0  0  0
    0.3542   -0.2893    3.3854 C   0  0  0  0  0  0  0  0  0  0  0  0
    3.6468    0.0574    0.3129 H   0  0  0  0  0  0  0  0  0  0  0  0
    2.2997   -1.1687   -0.1909 H   0  0  0  0  0  0  0  0  0  0  0  0
    0.1461    0.2666   -0.4670 H   0  0  0  0  0  0  0  0  0  0  0  0
   -0.1746    1.0839    1.1083 H   0  0  0  0  0  0  0  0  0  0  0  0
   -0.4863   -2.0871    2.6674 H   0  0  0  0  0  0  0  0  0  0  0  0
    0.8422    0.6530    3.1826 H   0  0  0  0  0  0  0  0  0  0  0  0
    0.2043   -0.5722    4.4170 H   0  0  0  0  0  0  0  0  0  0  0  0
  1  2  1  0
  1  7  1  0
  1  8  1  0
  2  3  1  0
  3  4  1  0
  3  9  1  0
  3 10  1  0
  4  5  1  0
  5  6  2  3
  5 11  1  0
  6 12  1  0
  6 13  1  0
M  RAD  1   1   2
M  END
>  <reaction>  (2) 
rmg_rxn_16731

>  <mol_properties>  (2) 
{"0": {"label": "acceptor", "atom_type": "Cs"}}

>  <type>  (2) 
r2

$$$$

     RDKit          3D

 14 13  0  0  0  0  0  0  0  0999 V2000
    2.5054    0.2488   -0.1285 C   0  0  0  0  0  0  0  0  0  0  0  0
    1.6536   -0.7670   -0.1134 C   0  0  0  0  0  0  0  0  0  0  0  0
    0.3356   -0.7549    0.2027 O   0  0  0  0  0  0  0  0  0  0  0  0
   -0.2915    0.4928    0.3821 C   0  0  0  0  0  0  0  0  0  0  0  0
    0.0856    1.1552    1.5361 O   0  0  0  0  0  0  0  0  0  0  0  0
   -0.2716    0.4873    2.7263 C   0  0  0  0  0  0  0  0  0  0  0  0
    2.2401    1.2518    0.1721 H   0  0  0  0  0  0  0  0  0  0  0  0
    3.5238    0.0603   -0.4356 H   0  0  0  0  0  0  0  0  0  0  0  0
    1.9585   -1.7731   -0.3755 H   0  0  0  0  0  0  0  0  0  0  0  0
   -1.3614    0.2581    0.3922 H   0  0  0  0  0  0  0  0  0  0  0  0
   -0.0461    1.1566   -0.4508 H   0  0  0  0  0  0  0  0  0  0  0  0
    0.2742   -0.4533    2.8364 H   0  0  0  0  0  0  0  0  0  0  0  0
   -0.0163    1.1503    3.5504 H   0  0  0  0  0  0  0  0  0  0  0  0
   -1.3482    0.2791    2.7513 H   0  0  0  0  0  0  0  0  0  0  0  0
  1  2  2  3
  1  7  1  0
  1  8  1  0
  2  3  1  0
  2  9  1  0
  3  4  1  0
  4  5  1  0
  4 10  1  0
  4 11  1  0
  5  6  1  0
  6 12  1  0
  6 13  1  0
  6 14  1  0
M  END
>  <reaction>  (3) 
rmg_rxn_16731

>  <mol_properties>  (3) 
{"0": {"label": "a_hydrogen", "atom_type": "H0"}, "1": {"label": "acceptor", "atom_type": "Cs"}}

>  <type>  (3) 
r2h

$$$$

     RDKit          3D

 21 19  0  0  0  0  0  0  0  0999 V2000
   -0.7646    0.9535   -2.9591 C   0  0  0  0  0  0  0  0  0  0  0  0
   -0.5928    1.0969   -1.4778 C   0  0  0  0  0  0  0  0  0  0  0  0
    0.3086    1.8063   -0.9666 N   0  0  0  0  0  0  0  0  0  0  0  0
   -0.6722   -0.0993   -3.2363 H   0  0  0  0  0  0  0  0  0  0  0  0
   -1.7646    1.2808   -3.2534 H   0  0  0  0  0  0  0  0  0  0  0  0
   -0.0186    1.5387   -3.4938 H   0  0  0  0  0  0  0  0  0  0  0  0
   -1.2958    0.5268   -0.8567 H   0  0  0  0  0  0  0  0  0  0  0  0
    0.2079    1.6887    0.2572 H   0  0  0  0  0  0  0  0  0  0  0  0
   -0.1205    1.4164    1.5594 C   0  0  0  0  0  3  0  0  0  0  0  0
   -0.4741    0.0886    1.7122 O   0  0  0  0  0  0  0  0  0  0  0  0
    0.5886   -0.7977    1.8731 C   0  0  0  0  0  0  0  0  0  0  0  0
    1.3622   -0.9710    0.7193 O   0  0  0  0  0  0  0  0  0  0  0  0
    0.8622   -1.7325   -0.2820 C   0  0  0  0  0  0  0  0  0  0  0  0
   -0.3542   -2.2488   -0.3934 C   0  0  0  0  0  0  0  0  0  0  0  0
   -0.9840    2.0478    1.7526 H   0  0  0  0  0  0  0  0  0  0  0  0
    0.7755    1.7028    2.1168 H   0  0  0  0  0  0  0  0  0  0  0  0
    0.1506   -1.7485    2.1849 H   0  0  0  0  0  0  0  0  0  0  0  0
    1.2865   -0.4228    2.6267 H   0  0  0  0  0  0  0  0  0  0  0  0
    1.6210   -1.8851   -1.0393 H   0  0  0  0  0  0  0  0  0  0  0  0
   -0.5752   -2.8647   -1.2529 H   0  0  0  0  0  0  0  0  0  0  0  0
   -1.1452   -2.0743    0.3219 H   0  0  0  0  0  0  0  0  0  0  0  0
  1  2  1  0
  1  4  1  0
  1  5  1  0
  1  6  1  0
  2  3  2  3
  2  7  1  0
  3  8  1  0
  9 10  1  0
  9 15  1  0
  9 16  1  0
 10 11  1  0
 11 12  1  0
 11 17  1  0
 11 18  1  0
 12 13  1  0
 13 14  2  3
 13 19  1  0
 14 20  1  0
 14 21  1  0
M  RAD  1   9   2
M  END
>  <reaction>  (4) 
rmg_rxn_16731

>  <mol_properties>  (4) 
{"1": {"label": "*0", "atom_type": "Cd"}, "2": {"label": "*1", "atom_type": "N3d"}, "7": {"label": "*2", "atom_type": "H0"}, "8": {"label": "*3", "atom_type": "Cs"}, "9": {"label": "*4", "atom_type": "O2s"}}

>  <type>  (4) 
ts

$$$$
