
     RDKit          3D

 14 13  0  0  0  0  0  0  0  0999 V2000
    2.5054    0.2488   -0.1285 C   0  0  0  0  0  0  0  0  0  0  0  0
    1.6536   -0.7670   -0.1134 C   0  0  0  0  0  0  0  0  0  0  0  0
    0.3356   -0.7549    0.2027 O   0  0  0  0  0  0  0  0  0  0  0  0
   -0.2915    0.4928    0.3821 C   0  0  0  0  0  0  0  0  0  0  0  0
    0.0856    1.1552    1.5361 O   0  0  0  0  0  0  0  0  0  0  0  0
   -0.2716    0.4873    2.7263 C   0  0  0  0  0  0  0  0  0  0  0  0
    2.2401    1.2518    0.1721 H   0  0  0  0  0  0  0  0  0  0  0  0
    3.5238    0.0603   -0.4356 H   0  0  0  0  0  0  0  0  0  0  0  0
    1.9585   -1.7731   -0.3755 H   0  0  0  0  0  0  0  0  0  0  0  0
   -1.3614    0.2581    0.3922 H   0  0  0  0  0  0  0  0  0  0  0  0
   -0.0461    1.1566   -0.4508 H   0  0  0  0  0  0  0  0  0  0  0  0
    0.2742   -0.4533    2.8364 H   0  0  0  0  0  0  0  0  0  0  0  0
   -0.0163    1.1503    3.5504 H   0  0  0  0  0  0  0  0  0  0  0  0
   -1.3482    0.2791    2.7513 H   0  0  0  0  0  0  0  0  0  0  0  0
  1  2  2  3
  1  7  1  0
  1  8  1  0
  2  3  1  0
  2  9  1  0
  3  4  1  0
  4  5  1  0
  4 10  1  0
  4 11  1  0
  5  6  1  0
  6 12  1  0
  6 13  1  0
  6 14  1  0
M  END
>  <reaction>  (1) 
rmg_rxn_15477

>  <mol_properties>  (1) 
{"5": {"label": "donator", "atom_type": "Cs"}, "11": {"label": "d_hydrogen", "atom_type": "H0"}}

>  <type>  (1) 
r1h

$$$$

     RDKit          3D

  5  4  0  0  0  0  0  0  0  0999 V2000
    0.8934    0.3742    0.4948 O   0  0  0  0  0  0  0  0  0  0  0  0
    0.1582   -0.1610   -0.5904 N   0  0  0  0  0  0  0  0  0  0  0  0
   -1.0297   -0.3739   -0.4689 C   0  0  0  0  0  3  0  0  0  0  0  0
    1.7805    0.4382    0.1306 H   0  0  0  0  0  0  0  0  0  0  0  0
   -1.8023   -0.2775    0.2859 H   0  0  0  0  0  0  0  0  0  0  0  0
  1  2  1  0
  1  4  1  0
  2  3  2  3
  3  5  1  0
M  RAD  1   3   2
M  END
>  <reaction>  (2) 
rmg_rxn_15477

>  <mol_properties>  (2) 
{"2": {"label": "acceptor", "atom_type": "Cd"}}

>  <type>  (2) 
r2

$$$$

     RDKit          3D

  6  5  0  0  0  0  0  0  0  0999 V2000
    1.2314    0.0428    0.5088 O   0  0  0  0  0  0  0  0  0  0  0  0
    0.2987    0.2341   -0.4915 N   0  0  0  0  0  0  0  0  0  0  0  0
   -0.8599   -0.1122   -0.1290 C   0  0  0  0  0  0  0  0  0  0  0  0
    2.0507    0.3401    0.1082 H   0  0  0  0  0  0  0  0  0  0  0  0
   -1.0700   -0.5112    0.8610 H   0  0  0  0  0  0  0  0  0  0  0  0
   -1.6509    0.0064   -0.8574 H   0  0  0  0  0  0  0  0  0  0  0  0
  1  2  1  0
  1  4  1  0
  2  3  2  3
  3  5  1  0
  3  6  1  0
M  END
>  <reaction>  (3) 
rmg_rxn_15477

>  <mol_properties>  (3) 
{"2": {"label": "acceptor", "atom_type": "Cd"}, "5": {"label": "a_hydrogen", "atom_type": "H0"}}

>  <type>  (3) 
r2h

$$$$

     RDKit          3D

 19 17  0  0  0  0  0  0  0  0999 V2000
    3.3057   -1.6346    1.0845 O   0  0  0  0  0  0  0  0  0  0  0  0
    2.6688   -0.4010    0.8706 N   0  0  0  0  0  0  0  0  0  0  0  0
    1.6401   -0.4747    0.1780 C   0  0  0  0  0  3  0  0  0  0  0  0
    4.0601   -1.3903    1.6253 H   0  0  0  0  0  0  0  0  0  0  0  0
    1.1815   -1.3547   -0.2720 H   0  0  0  0  0  0  0  0  0  0  0  0
   -1.9351   -1.0953   -1.3974 C   0  0  0  0  0  0  0  0  0  0  0  0
   -1.7806   -1.0365   -0.0822 C   0  0  0  0  0  0  0  0  0  0  0  0
   -1.6147    0.0633    0.6941 O   0  0  0  0  0  0  0  0  0  0  0  0
   -1.8264    1.3226    0.1162 C   0  0  0  0  0  0  0  0  0  0  0  0
   -0.8316    1.7120   -0.7754 O   0  0  0  0  0  0  0  0  0  0  0  0
    0.4202    1.8996   -0.2145 C   0  0  0  0  0  0  0  0  0  0  0  0
   -1.9042   -0.2269   -2.0393 H   0  0  0  0  0  0  0  0  0  0  0  0
   -2.0830   -2.0627   -1.8547 H   0  0  0  0  0  0  0  0  0  0  0  0
   -1.7691   -1.9259    0.5359 H   0  0  0  0  0  0  0  0  0  0  0  0
   -1.8754    2.0125    0.9638 H   0  0  0  0  0  0  0  0  0  0  0  0
   -2.7605    1.3275   -0.4503 H   0  0  0  0  0  0  0  0  0  0  0  0
    0.9893    0.7836   -0.0263 H   0  0  0  0  0  0  0  0  0  0  0  0
    1.0540    2.4277   -0.9226 H   0  0  0  0  0  0  0  0  0  0  0  0
    0.3926    2.3736    0.7716 H   0  0  0  0  0  0  0  0  0  0  0  0
  1  2  1  0
  1  4  1  0
  2  3  2  3
  3  5  1  0
  6  7  2  3
  6 12  1  0
  6 13  1  0
  7  8  1  0
  7 14  1  0
  8  9  1  0
  9 10  1  0
  9 15  1  0
  9 16  1  0
 10 11  1  0
 11 17  1  0
 11 18  1  0
 11 19  1  0
M  RAD  1   3   2
M  END
>  <reaction>  (4) 
rmg_rxn_15477

>  <mol_properties>  (4) 
{"1": {"label": "*4", "atom_type": "N3d"}, "2": {"label": "*3", "atom_type": "Cd"}, "9": {"label": "*0", "atom_type": "O2s"}, "10": {"label": "*1", "atom_type": "Cs"}, "16": {"label": "*2", "atom_type": "H0"}}

>  <type>  (4) 
ts

$$$$
