
     RDKit          3D

 14 14  0  0  0  0  0  0  0  0999 V2000
   -1.1778    0.2241    0.1818 C   0  0  0  0  0  0  0  0  0  0  0  0
   -0.5633   -1.1636    0.0678 C   0  0  0  0  0  0  0  0  0  0  0  0
    0.6943   -1.1996    0.7146 O   0  0  0  0  0  0  0  0  0  0  0  0
    1.5547   -0.2288    0.2011 C   0  0  0  0  0  0  0  0  0  0  0  0
    1.0729    1.0696    0.3698 O   0  0  0  0  0  0  0  0  0  0  0  0
   -0.1607    1.2493   -0.2989 C   0  0  0  0  0  0  0  0  0  0  0  0
   -2.0927    0.2866   -0.4117 H   0  0  0  0  0  0  0  0  0  0  0  0
   -1.4303    0.4248    1.2248 H   0  0  0  0  0  0  0  0  0  0  0  0
   -1.1822   -1.9235    0.5431 H   0  0  0  0  0  0  0  0  0  0  0  0
   -0.4389   -1.4347   -0.9919 H   0  0  0  0  0  0  0  0  0  0  0  0
    1.7250   -0.4207   -0.8742 H   0  0  0  0  0  0  0  0  0  0  0  0
    2.4896   -0.3010    0.7524 H   0  0  0  0  0  0  0  0  0  0  0  0
   -0.0080    1.1481   -1.3844 H   0  0  0  0  0  0  0  0  0  0  0  0
   -0.4826    2.2695   -0.0942 H   0  0  0  0  0  0  0  0  0  0  0  0
  1  2  1  0
  1  6  1  0
  1  7  1  0
  1  8  1  0
  2  3  1  0
  2  9  1  0
  2 10  1  0
  3  4  1  0
  4  5  1  0
  4 11  1  0
  4 12  1  0
  5  6  1  0
  6 13  1  0
  6 14  1  0
M  END
>  <reaction>  (1) 
rmg_rxn_265

>  <mol_properties>  (1) 
{"1": {"label": "donator", "atom_type": "Cs"}, "8": {"label": "d_hydrogen", "atom_type": "H0"}}

>  <type>  (1) 
r1h

$$$$

     RDKit          3D

 17 16  0  0  0  0  0  0  0  0999 V2000
    3.3619    0.3511   -1.0290 C   0  0  0  0  0  3  0  0  0  0  0  0
    2.1806    1.0643   -0.5073 C   0  0  0  0  0  0  0  0  0  0  0  0
    1.4028    0.1998    0.2757 O   0  0  0  0  0  0  0  0  0  0  0  0
    0.2433    0.8081    0.7885 C   0  0  0  0  0  0  0  0  0  0  0  0
   -0.5040   -0.1878    1.6510 C   0  0  0  0  0  0  0  0  0  0  0  0
    0.2852   -0.6298    2.8762 C   0  0  0  0  0  0  0  0  0  0  0  0
    4.1174    0.8902   -1.5820 H   0  0  0  0  0  0  0  0  0  0  0  0
    3.4399   -0.7198   -0.9141 H   0  0  0  0  0  0  0  0  0  0  0  0
    1.5724    1.4684   -1.3398 H   0  0  0  0  0  0  0  0  0  0  0  0
    2.4896    1.9442    0.0856 H   0  0  0  0  0  0  0  0  0  0  0  0
    0.5169    1.6937    1.3835 H   0  0  0  0  0  0  0  0  0  0  0  0
   -0.3954    1.1528   -0.0379 H   0  0  0  0  0  0  0  0  0  0  0  0
   -0.7611   -1.0545    1.0367 H   0  0  0  0  0  0  0  0  0  0  0  0
   -1.4466    0.2743    1.9571 H   0  0  0  0  0  0  0  0  0  0  0  0
    0.5263    0.2245    3.5136 H   0  0  0  0  0  0  0  0  0  0  0  0
    1.2220   -1.1033    2.5825 H   0  0  0  0  0  0  0  0  0  0  0  0
   -0.2849   -1.3427    3.4737 H   0  0  0  0  0  0  0  0  0  0  0  0
  1  2  1  0
  1  7  1  0
  1  8  1  0
  2  3  1  0
  2  9  1  0
  2 10  1  0
  3  4  1  0
  4  5  1  0
  4 11  1  0
  4 12  1  0
  5  6  1  0
  5 13  1  0
  5 14  1  0
  6 15  1  0
  6 16  1  0
  6 17  1  0
M  RAD  1   1   2
M  END
>  <reaction>  (2) 
rmg_rxn_265

>  <mol_properties>  (2) 
{"0": {"label": "acceptor", "atom_type": "Cs"}}

>  <type>  (2) 
r2

$$$$

     RDKit          3D

 18 17  0  0  0  0  0  0  0  0999 V2000
    2.2026   -0.7213   -0.2612 C   0  0  0  0  0  0  0  0  0  0  0  0
    1.5384    0.2638    0.6915 C   0  0  0  0  0  0  0  0  0  0  0  0
    2.2584    1.5946    0.7694 C   0  0  0  0  0  0  0  0  0  0  0  0
    2.2212    2.2185   -0.4893 O   0  0  0  0  0  0  0  0  0  0  0  0
    2.8988    3.4488   -0.5204 C   0  0  0  0  0  0  0  0  0  0  0  0
    2.7981    4.0296   -1.9118 C   0  0  0  0  0  0  0  0  0  0  0  0
    3.2294   -0.9309    0.0486 H   0  0  0  0  0  0  0  0  0  0  0  0
    2.2338   -0.3181   -1.2734 H   0  0  0  0  0  0  0  0  0  0  0  0
    1.6610   -1.6680   -0.2875 H   0  0  0  0  0  0  0  0  0  0  0  0
    1.4990   -0.1566    1.7002 H   0  0  0  0  0  0  0  0  0  0  0  0
    0.5055    0.4455    0.3835 H   0  0  0  0  0  0  0  0  0  0  0  0
    3.3038    1.4410    1.0808 H   0  0  0  0  0  0  0  0  0  0  0  0
    1.7844    2.2410    1.5226 H   0  0  0  0  0  0  0  0  0  0  0  0
    2.4596    4.1376    0.2164 H   0  0  0  0  0  0  0  0  0  0  0  0
    3.9524    3.3035   -0.2397 H   0  0  0  0  0  0  0  0  0  0  0  0
    1.7543    4.1869   -2.1856 H   0  0  0  0  0  0  0  0  0  0  0  0
    3.2472    3.3545   -2.6411 H   0  0  0  0  0  0  0  0  0  0  0  0
    3.3178    4.9878   -1.9600 H   0  0  0  0  0  0  0  0  0  0  0  0
  1  2  1  0
  1  7  1  0
  1  8  1  0
  1  9  1  0
  2  3  1  0
  2 10  1  0
  2 11  1  0
  3  4  1  0
  3 12  1  0
  3 13  1  0
  4  5  1  0
  5  6  1  0
  5 14  1  0
  5 15  1  0
  6 16  1  0
  6 17  1  0
  6 18  1  0
M  END
>  <reaction>  (3) 
rmg_rxn_265

>  <mol_properties>  (3) 
{"0": {"label": "a_hydrogen", "atom_type": "H0"}, "1": {"label": "acceptor", "atom_type": "Cs"}}

>  <type>  (3) 
r2h

$$$$

     RDKit          3D

 31 30  0  0  0  0  0  0  0  0999 V2000
    1.7205    2.1679   -0.7881 C   0  0  0  0  0  0  0  0  0  0  0  0
    0.7556    1.9895    0.3569 C   0  0  0  0  0  0  0  0  0  0  0  0
   -0.5740    1.9984   -0.0703 O   0  0  0  0  0  0  0  0  0  0  0  0
   -0.8752    3.1480   -0.8178 C   0  0  0  0  0  0  0  0  0  0  0  0
   -0.0781    3.2744   -1.9511 O   0  0  0  0  0  0  0  0  0  0  0  0
    1.2908    3.3807   -1.6097 C   0  0  0  0  0  0  0  0  0  0  0  0
    2.7385    2.2958   -0.4155 H   0  0  0  0  0  0  0  0  0  0  0  0
    1.6966    1.2802   -1.4254 H   0  0  0  0  0  0  0  0  0  0  0  0
    0.9192    0.7758    0.8475 H   0  0  0  0  0  0  0  0  0  0  0  0
    0.9192    2.6739    1.1987 H   0  0  0  0  0  0  0  0  0  0  0  0
   -0.7559    4.0380   -0.1757 H   0  0  0  0  0  0  0  0  0  0  0  0
   -1.9059    3.0513   -1.1512 H   0  0  0  0  0  0  0  0  0  0  0  0
    1.4574    4.3047   -1.0368 H   0  0  0  0  0  0  0  0  0  0  0  0
    1.8425    3.4524   -2.5462 H   0  0  0  0  0  0  0  0  0  0  0  0
    0.9816   -0.5443    1.1833 C   0  0  0  0  0  3  0  0  0  0  0  0
   -0.0055   -1.2175    0.2801 C   0  0  0  0  0  0  0  0  0  0  0  0
    0.0171   -2.6093    0.5140 O   0  0  0  0  0  0  0  0  0  0  0  0
   -0.8945   -3.3152   -0.2912 C   0  0  0  0  0  0  0  0  0  0  0  0
   -0.8343   -4.7884    0.0569 C   0  0  0  0  0  0  0  0  0  0  0  0
   -1.2583   -5.0826    1.4897 C   0  0  0  0  0  0  0  0  0  0  0  0
    0.7233   -0.5687    2.2394 H   0  0  0  0  0  0  0  0  0  0  0  0
    2.0198   -0.8139    0.9997 H   0  0  0  0  0  0  0  0  0  0  0  0
    0.2391   -1.0131   -0.7727 H   0  0  0  0  0  0  0  0  0  0  0  0
   -1.0140   -0.8209    0.4563 H   0  0  0  0  0  0  0  0  0  0  0  0
   -1.9136   -2.9297   -0.1303 H   0  0  0  0  0  0  0  0  0  0  0  0
   -0.6523   -3.1639   -1.3534 H   0  0  0  0  0  0  0  0  0  0  0  0
    0.1852   -5.1443   -0.1132 H   0  0  0  0  0  0  0  0  0  0  0  0
   -1.4788   -5.3262   -0.6440 H   0  0  0  0  0  0  0  0  0  0  0  0
   -2.2849   -4.7526    1.6675 H   0  0  0  0  0  0  0  0  0  0  0  0
   -0.6125   -4.5631    2.1976 H   0  0  0  0  0  0  0  0  0  0  0  0
   -1.2086   -6.1515    1.7026 H   0  0  0  0  0  0  0  0  0  0  0  0
  1  2  1  0
  1  6  1  0
  1  7  1  0
  1  8  1  0
  2  3  1  0
  2  9  1  0
  2 10  1  0
  3  4  1  0
  4  5  1  0
  4 11  1  0
  4 12  1  0
  5  6  1  0
  6 13  1  0
  6 14  1  0
 15 16  1  0
 15 21  1  0
 15 22  1  0
 16 17  1  0
 16 23  1  0
 16 24  1  0
 17 18  1  0
 18 19  1  0
 18 25  1  0
 18 26  1  0
 19 20  1  0
 19 27  1  0
 19 28  1  0
 20 29  1  0
 20 30  1  0
 20 31  1  0
M  RAD  1  15   2
M  END
>  <reaction>  (4) 
rmg_rxn_265

>  <mol_properties>  (4) 
{"1": {"label": "*1", "atom_type": "Cs"}, "2": {"label": "*0", "atom_type": "O2s"}, "8": {"label": "*2", "atom_type": "H0"}, "14": {"label": "*3", "atom_type": "Cs"}, "15": {"label": "*4", "atom_type": "Cs"}}

>  <type>  (4) 
ts

$$$$
