
     RDKit          3D

  9  8  0  0  0  0  0  0  0  0999 V2000
    1.1303   -0.2933   -0.7510 C   0  0  0  0  0  0  0  0  0  0  0  0
    0.2866    0.4560   -0.0588 C   0  0  0  0  0  0  0  0  0  0  0  0
   -0.9719   -0.0331    0.5823 C   0  0  0  0  0  0  0  0  0  0  0  0
    2.0274    0.1230   -1.1916 H   0  0  0  0  0  0  0  0  0  0  0  0
    0.9532   -1.3530   -0.9023 H   0  0  0  0  0  0  0  0  0  0  0  0
    0.5065    1.5132    0.0659 H   0  0  0  0  0  0  0  0  0  0  0  0
   -0.9526    0.1426    1.6610 H   0  0  0  0  0  0  0  0  0  0  0  0
   -1.1182   -1.1002    0.4106 H   0  0  0  0  0  0  0  0  0  0  0  0
   -1.8412    0.5010    0.1901 H   0  0  0  0  0  0  0  0  0  0  0  0
  1  2  2  3
  1  4  1  0
  1  5  1  0
  2  3  1  0
  2  6  1  0
  3  7  1  0
  3  8  1  0
  3  9  1  0
M  END
>  <reaction>  (1) 
rmg_rxn_545

>  <mol_properties>  (1) 
{"0": {"label": "donator", "atom_type": "Cd"}, "3": {"label": "d_hydrogen", "atom_type": "H0"}}

>  <type>  (1) 
r1h

$$$$

     RDKit          3D

 11 10  0  0  0  0  0  0  0  0999 V2000
    2.2312    0.7411   -0.3115 C   0  0  0  0  0  3  0  0  0  0  0  0
    0.6426    1.1039   -0.7896 S   0  0  0  0  0  0  0  0  0  0  0  0
    0.9085    2.4168   -2.0061 C   0  0  0  0  0  0  0  0  0  0  0  0
    1.5570    1.9429   -3.2967 C   0  0  0  0  0  0  0  0  0  0  0  0
    2.3707   -0.0938    0.3575 H   0  0  0  0  0  0  0  0  0  0  0  0
    3.0432    1.4267   -0.5066 H   0  0  0  0  0  0  0  0  0  0  0  0
    1.4997    3.2005   -1.5289 H   0  0  0  0  0  0  0  0  0  0  0  0
   -0.0844    2.8269   -2.1951 H   0  0  0  0  0  0  0  0  0  0  0  0
    0.9451    1.1830   -3.7838 H   0  0  0  0  0  0  0  0  0  0  0  0
    1.6803    2.7812   -3.9857 H   0  0  0  0  0  0  0  0  0  0  0  0
    2.5399    1.5119   -3.1043 H   0  0  0  0  0  0  0  0  0  0  0  0
  1  2  1  0
  1  5  1  0
  1  6  1  0
  2  3  1  0
  3  4  1  0
  3  7  1  0
  3  8  1  0
  4  9  1  0
  4 10  1  0
  4 11  1  0
M  RAD  1   1   2
M  END
>  <reaction>  (2) 
rmg_rxn_545

>  <mol_properties>  (2) 
{"0": {"label": "acceptor", "atom_type": "Cs"}}

>  <type>  (2) 
r2

$$$$

     RDKit          3D

 12 11  0  0  0  0  0  0  0  0999 V2000
    1.8075    0.1979    0.4695 C   0  0  0  0  0  0  0  0  0  0  0  0
    1.0072   -0.8859   -0.7259 S   0  0  0  0  0  0  0  0  0  0  0  0
   -0.7258   -0.6904   -0.2447 C   0  0  0  0  0  0  0  0  0  0  0  0
   -1.0856   -1.2776    1.1108 C   0  0  0  0  0  0  0  0  0  0  0  0
    1.7126   -0.1777    1.4878 H   0  0  0  0  0  0  0  0  0  0  0  0
    1.4024    1.2089    0.4095 H   0  0  0  0  0  0  0  0  0  0  0  0
    2.8647    0.2298    0.2095 H   0  0  0  0  0  0  0  0  0  0  0  0
   -1.2866   -1.1892   -1.0369 H   0  0  0  0  0  0  0  0  0  0  0  0
   -0.9814    0.3707   -0.2917 H   0  0  0  0  0  0  0  0  0  0  0  0
   -0.5492   -0.7768    1.9180 H   0  0  0  0  0  0  0  0  0  0  0  0
   -0.8418   -2.3397    1.1503 H   0  0  0  0  0  0  0  0  0  0  0  0
   -2.1545   -1.1604    1.3035 H   0  0  0  0  0  0  0  0  0  0  0  0
  1  2  1  0
  1  5  1  0
  1  6  1  0
  1  7  1  0
  2  3  1  0
  3  4  1  0
  3  8  1  0
  3  9  1  0
  4 10  1  0
  4 11  1  0
  4 12  1  0
M  END
>  <reaction>  (3) 
rmg_rxn_545

>  <mol_properties>  (3) 
{"0": {"label": "a_hydrogen", "atom_type": "H0"}, "1": {"label": "acceptor", "atom_type": "Cs"}}

>  <type>  (3) 
r2h

$$$$

     RDKit          3D

 20 18  0  0  0  0  0  0  0  0999 V2000
    0.3700    1.4286   -1.5853 C   0  0  0  0  0  3  0  0  0  0  0  0
    0.7452    0.3500   -2.2343 C   0  0  0  0  0  0  0  0  0  0  0  0
    0.7909    0.1940   -3.7274 C   0  0  0  0  0  0  0  0  0  0  0  0
    0.4403    1.2918   -0.1469 H   0  0  0  0  0  0  0  0  0  0  0  0
    0.0333    2.3804   -1.9819 H   0  0  0  0  0  0  0  0  0  0  0  0
    1.0572   -0.5177   -1.6512 H   0  0  0  0  0  0  0  0  0  0  0  0
    1.8062   -0.0406   -4.0562 H   0  0  0  0  0  0  0  0  0  0  0  0
    0.4639    1.1014   -4.2353 H   0  0  0  0  0  0  0  0  0  0  0  0
    0.1509   -0.6323   -4.0468 H   0  0  0  0  0  0  0  0  0  0  0  0
    0.5530    1.0373    1.0786 C   0  0  0  0  0  0  0  0  0  0  0  0
    0.4900   -0.7119    1.3324 S   0  0  0  0  0  0  0  0  0  0  0  0
   -1.1906   -1.0777    0.7661 C   0  0  0  0  0  0  0  0  0  0  0  0
   -2.2968   -0.5638    1.6731 C   0  0  0  0  0  0  0  0  0  0  0  0
    1.5328    1.4079    1.3726 H   0  0  0  0  0  0  0  0  0  0  0  0
   -0.2416    1.5914    1.5766 H   0  0  0  0  0  0  0  0  0  0  0  0
   -1.2262   -2.1662    0.6986 H   0  0  0  0  0  0  0  0  0  0  0  0
   -1.2946   -0.6831   -0.2465 H   0  0  0  0  0  0  0  0  0  0  0  0
   -2.2872    0.5249    1.7380 H   0  0  0  0  0  0  0  0  0  0  0  0
   -3.2722   -0.8607    1.2814 H   0  0  0  0  0  0  0  0  0  0  0  0
   -2.1933   -0.9650    2.6818 H   0  0  0  0  0  0  0  0  0  0  0  0
  1  2  2  3
  1  5  1  0
  2  3  1  0
  2  6  1  0
  3  7  1  0
  3  8  1  0
  3  9  1  0
  4 10  1  0
 10 11  1  0
 10 14  1  0
 10 15  1  0
 11 12  1  0
 12 13  1  0
 12 16  1  0
 12 17  1  0
 13 18  1  0
 13 19  1  0
 13 20  1  0
M  RAD  1   1   2
M  END
>  <reaction>  (4) 
rmg_rxn_545

>  <mol_properties>  (4) 
{"0": {"label": "*3", "atom_type": "Cd"}, "1": {"label": "*4", "atom_type": "Cd"}, "3": {"label": "*2", "atom_type": "H0"}, "9": {"label": "*1", "atom_type": "Cs"}, "10": {"label": "*0", "atom_type": "S2s"}}

>  <type>  (4) 
ts

$$$$
