
     RDKit          3D

 14 13  0  0  0  0  0  0  0  0999 V2000
    1.8106   -0.5953    0.5577 C   0  0  0  0  0  0  0  0  0  0  0  0
    0.5197    0.2064    0.6554 C   0  0  0  0  0  0  0  0  0  0  0  0
   -0.5206   -0.2080   -0.3788 C   0  0  0  0  0  0  0  0  0  0  0  0
   -1.8114    0.5937   -0.2812 C   0  0  0  0  0  0  0  0  0  0  0  0
    2.2725   -0.4752   -0.4251 H   0  0  0  0  0  0  0  0  0  0  0  0
    1.6214   -1.6612    0.7052 H   0  0  0  0  0  0  0  0  0  0  0  0
    2.5364   -0.2784    1.3084 H   0  0  0  0  0  0  0  0  0  0  0  0
    0.0930    0.0950    1.6574 H   0  0  0  0  0  0  0  0  0  0  0  0
    0.7393    1.2723    0.5354 H   0  0  0  0  0  0  0  0  0  0  0  0
   -0.7402   -1.2739   -0.2588 H   0  0  0  0  0  0  0  0  0  0  0  0
   -0.0938   -0.0965   -1.3808 H   0  0  0  0  0  0  0  0  0  0  0  0
   -1.6222    1.6596   -0.4287 H   0  0  0  0  0  0  0  0  0  0  0  0
   -2.2734    0.4736    0.7017 H   0  0  0  0  0  0  0  0  0  0  0  0
   -2.5373    0.2768   -1.0318 H   0  0  0  0  0  0  0  0  0  0  0  0
  1  2  1  0
  1  5  1  0
  1  6  1  0
  1  7  1  0
  2  3  1  0
  2  8  1  0
  2  9  1  0
  3  4  1  0
  3 10  1  0
  3 11  1  0
  4 12  1  0
  4 13  1  0
  4 14  1  0
M  END
>  <reaction>  (1) 
rmg_rxn_235

>  <mol_properties>  (1) 
{"2": {"label": "donator", "atom_type": "Cs"}, "10": {"label": "d_hydrogen", "atom_type": "H0"}}

>  <type>  (1) 
r1h

$$$$

     RDKit          3D

 17 16  0  0  0  0  0  0  0  0999 V2000
    2.3128   -0.1525    1.1777 C   0  0  0  0  0  3  0  0  0  0  0  0
    1.7469    0.7266    0.1254 C   0  0  0  0  0  0  0  0  0  0  0  0
    1.6374    2.1830    0.5408 C   0  0  0  0  0  0  0  0  0  0  0  0
    2.9245    2.6874    0.7877 O   0  0  0  0  0  0  0  0  0  0  0  0
    2.9227    4.0197    1.2361 C   0  0  0  0  0  0  0  0  0  0  0  0
    4.3491    4.4603    1.4693 C   0  0  0  0  0  0  0  0  0  0  0  0
    2.1393   -1.2196    1.1557 H   0  0  0  0  0  0  0  0  0  0  0  0
    3.0313    0.2400    1.8838 H   0  0  0  0  0  0  0  0  0  0  0  0
    0.7555    0.3746   -0.1764 H   0  0  0  0  0  0  0  0  0  0  0  0
    2.3678    0.6841   -0.7826 H   0  0  0  0  0  0  0  0  0  0  0  0
    1.0170    2.2718    1.4449 H   0  0  0  0  0  0  0  0  0  0  0  0
    1.1499    2.7653   -0.2546 H   0  0  0  0  0  0  0  0  0  0  0  0
    2.4379    4.6655    0.4891 H   0  0  0  0  0  0  0  0  0  0  0  0
    2.3377    4.1015    2.1638 H   0  0  0  0  0  0  0  0  0  0  0  0
    4.9261    4.3920    0.5465 H   0  0  0  0  0  0  0  0  0  0  0  0
    4.3728    5.4939    1.8180 H   0  0  0  0  0  0  0  0  0  0  0  0
    4.8260    3.8299    2.2206 H   0  0  0  0  0  0  0  0  0  0  0  0
  1  2  1  0
  1  7  1  0
  1  8  1  0
  2  3  1  0
  2  9  1  0
  2 10  1  0
  3  4  1  0
  3 11  1  0
  3 12  1  0
  4  5  1  0
  5  6  1  0
  5 13  1  0
  5 14  1  0
  6 15  1  0
  6 16  1  0
  6 17  1  0
M  RAD  1   1   2
M  END
>  <reaction>  (2) 
rmg_rxn_235

>  <mol_properties>  (2) 
{"0": {"label": "acceptor", "atom_type": "Cs"}}

>  <type>  (2) 
r2

$$$$

     RDKit          3D

 18 17  0  0  0  0  0  0  0  0999 V2000
    2.2026   -0.7213   -0.2612 C   0  0  0  0  0  0  0  0  0  0  0  0
    1.5384    0.2638    0.6915 C   0  0  0  0  0  0  0  0  0  0  0  0
    2.2584    1.5946    0.7694 C   0  0  0  0  0  0  0  0  0  0  0  0
    2.2212    2.2185   -0.4893 O   0  0  0  0  0  0  0  0  0  0  0  0
    2.8988    3.4488   -0.5204 C   0  0  0  0  0  0  0  0  0  0  0  0
    2.7981    4.0296   -1.9118 C   0  0  0  0  0  0  0  0  0  0  0  0
    3.2294   -0.9309    0.0486 H   0  0  0  0  0  0  0  0  0  0  0  0
    2.2338   -0.3181   -1.2734 H   0  0  0  0  0  0  0  0  0  0  0  0
    1.6610   -1.6680   -0.2875 H   0  0  0  0  0  0  0  0  0  0  0  0
    1.4990   -0.1566    1.7002 H   0  0  0  0  0  0  0  0  0  0  0  0
    0.5055    0.4455    0.3835 H   0  0  0  0  0  0  0  0  0  0  0  0
    3.3038    1.4410    1.0808 H   0  0  0  0  0  0  0  0  0  0  0  0
    1.7844    2.2410    1.5226 H   0  0  0  0  0  0  0  0  0  0  0  0
    2.4596    4.1376    0.2164 H   0  0  0  0  0  0  0  0  0  0  0  0
    3.9524    3.3035   -0.2397 H   0  0  0  0  0  0  0  0  0  0  0  0
    1.7543    4.1869   -2.1856 H   0  0  0  0  0  0  0  0  0  0  0  0
    3.2472    3.3545   -2.6411 H   0  0  0  0  0  0  0  0  0  0  0  0
    3.3178    4.9878   -1.9600 H   0  0  0  0  0  0  0  0  0  0  0  0
  1  2  1  0
  1  7  1  0
  1  8  1  0
  1  9  1  0
  2  3  1  0
  2 10  1  0
  2 11  1  0
  3  4  1  0
  3 12  1  0
  3 13  1  0
  4  5  1  0
  5  6  1  0
  5 14  1  0
  5 15  1  0
  6 16  1  0
  6 17  1  0
  6 18  1  0
M  END
>  <reaction>  (3) 
rmg_rxn_235

>  <mol_properties>  (3) 
{"0": {"label": "a_hydrogen", "atom_type": "H0"}, "1": {"label": "acceptor", "atom_type": "Cs"}}

>  <type>  (3) 
r2h

$$$$

     RDKit          3D

 31 29  0  0  0  0  0  0  0  0999 V2000
   -1.7576   -2.0523   -1.4889 C   0  0  0  0  0  0  0  0  0  0  0  0
   -0.6697   -2.0287   -0.4230 C   0  0  0  0  0  0  0  0  0  0  0  0
   -1.1662   -1.5414    0.9155 C   0  0  0  0  0  0  0  0  0  0  0  0
   -0.1385   -1.4461    2.0132 C   0  0  0  0  0  0  0  0  0  0  0  0
   -2.1659   -1.0520   -1.6489 H   0  0  0  0  0  0  0  0  0  0  0  0
   -2.5846   -2.7026   -1.1936 H   0  0  0  0  0  0  0  0  0  0  0  0
   -1.3726   -2.4129   -2.4442 H   0  0  0  0  0  0  0  0  0  0  0  0
   -0.2510   -3.0378   -0.3073 H   0  0  0  0  0  0  0  0  0  0  0  0
    0.1520   -1.3860   -0.7474 H   0  0  0  0  0  0  0  0  0  0  0  0
   -2.0786   -2.0536    1.2324 H   0  0  0  0  0  0  0  0  0  0  0  0
   -1.5916   -0.3087    0.7302 H   0  0  0  0  0  0  0  0  0  0  0  0
    0.6631   -0.7638    1.7243 H   0  0  0  0  0  0  0  0  0  0  0  0
    0.3119   -2.4222    2.2260 H   0  0  0  0  0  0  0  0  0  0  0  0
   -0.5789   -1.0768    2.9414 H   0  0  0  0  0  0  0  0  0  0  0  0
   -2.1013    0.9705    0.6392 C   0  0  0  0  0  3  0  0  0  0  0  0
   -1.4046    1.7778   -0.4255 C   0  0  0  0  0  0  0  0  0  0  0  0
    0.0455    2.1016   -0.1250 C   0  0  0  0  0  0  0  0  0  0  0  0
    0.8307    0.9450   -0.2678 O   0  0  0  0  0  0  0  0  0  0  0  0
    2.1852    1.1449    0.0496 C   0  0  0  0  0  0  0  0  0  0  0  0
    2.9510   -0.1244   -0.2460 C   0  0  0  0  0  0  0  0  0  0  0  0
   -1.9635    1.3505    1.6518 H   0  0  0  0  0  0  0  0  0  0  0  0
   -3.1507    0.7706    0.4298 H   0  0  0  0  0  0  0  0  0  0  0  0
   -1.9294    2.7319   -0.5636 H   0  0  0  0  0  0  0  0  0  0  0  0
   -1.4501    1.2643   -1.3905 H   0  0  0  0  0  0  0  0  0  0  0  0
    0.1395    2.4983    0.8977 H   0  0  0  0  0  0  0  0  0  0  0  0
    0.4087    2.8790   -0.8127 H   0  0  0  0  0  0  0  0  0  0  0  0
    2.5884    1.9811   -0.5401 H   0  0  0  0  0  0  0  0  0  0  0  0
    2.2843    1.4187    1.1104 H   0  0  0  0  0  0  0  0  0  0  0  0
    2.8610   -0.3867   -1.3008 H   0  0  0  0  0  0  0  0  0  0  0  0
    4.0078    0.0090   -0.0102 H   0  0  0  0  0  0  0  0  0  0  0  0
    2.5668   -0.9550    0.3472 H   0  0  0  0  0  0  0  0  0  0  0  0
  1  2  1  0
  1  5  1  0
  1  6  1  0
  1  7  1  0
  2  3  1  0
  2  8  1  0
  2  9  1  0
  3  4  1  0
  3 10  1  0
  3 11  1  0
  4 12  1  0
  4 13  1  0
  4 14  1  0
 15 16  1  0
 15 21  1  0
 15 22  1  0
 16 17  1  0
 16 23  1  0
 16 24  1  0
 17 18  1  0
 17 25  1  0
 17 26  1  0
 18 19  1  0
 19 20  1  0
 19 27  1  0
 19 28  1  0
 20 29  1  0
 20 30  1  0
 20 31  1  0
M  RAD  1  15   2
M  END
>  <reaction>  (4) 
rmg_rxn_235

>  <mol_properties>  (4) 
{"1": {"label": "*0", "atom_type": "Cs"}, "2": {"label": "*1", "atom_type": "Cs"}, "10": {"label": "*2", "atom_type": "H0"}, "14": {"label": "*3", "atom_type": "Cs"}, "15": {"label": "*4", "atom_type": "Cs"}}

>  <type>  (4) 
ts

$$$$
