
     RDKit          3D

 18 17  0  0  0  0  0  0  0  0999 V2000
    2.3520    0.9498    0.2303 C   0  0  0  0  0  0  0  0  0  0  0  0
    1.9456   -0.3826   -0.3833 C   0  0  0  0  0  0  0  0  0  0  0  0
    0.6129   -0.8880    0.1586 C   0  0  0  0  0  0  0  0  0  0  0  0
   -0.4216    0.0223   -0.2088 O   0  0  0  0  0  0  0  0  0  0  0  0
   -1.6937   -0.3990    0.2766 C   0  0  0  0  0  0  0  0  0  0  0  0
   -2.7315    0.6179   -0.1548 C   0  0  0  0  0  0  0  0  0  0  0  0
    2.4361    0.8699    1.3188 H   0  0  0  0  0  0  0  0  0  0  0  0
    1.6247    1.7340   -0.0020 H   0  0  0  0  0  0  0  0  0  0  0  0
    3.3238    1.2651   -0.1628 H   0  0  0  0  0  0  0  0  0  0  0  0
    2.7250   -1.1255   -0.1814 H   0  0  0  0  0  0  0  0  0  0  0  0
    1.8763   -0.2576   -1.4701 H   0  0  0  0  0  0  0  0  0  0  0  0
    0.6566   -0.9798    1.2501 H   0  0  0  0  0  0  0  0  0  0  0  0
    0.3966   -1.8732   -0.2699 H   0  0  0  0  0  0  0  0  0  0  0  0
   -1.9410   -1.3825   -0.1378 H   0  0  0  0  0  0  0  0  0  0  0  0
   -1.6694   -0.4651    1.3699 H   0  0  0  0  0  0  0  0  0  0  0  0
   -2.7548    0.7058   -1.2461 H   0  0  0  0  0  0  0  0  0  0  0  0
   -2.4866    1.6097    0.2395 H   0  0  0  0  0  0  0  0  0  0  0  0
   -3.7268    0.3335    0.1978 H   0  0  0  0  0  0  0  0  0  0  0  0
  1  2  1  0
  1  7  1  0
  1  8  1  0
  1  9  1  0
  2  3  1  0
  2 10  1  0
  2 11  1  0
  3  4  1  0
  3 12  1  0
  3 13  1  0
  4  5  1  0
  5  6  1  0
  5 14  1  0
  5 15  1  0
  6 16  1  0
  6 17  1  0
  6 18  1  0
M  END
>  <reaction>  (1) 
rmg_rxn_1157

>  <mol_properties>  (1) 
{"0": {"label": "donator", "atom_type": "Cs"}, "6": {"label": "d_hydrogen", "atom_type": "H0"}}

>  <type>  (1) 
r1h

$$$$

     RDKit          3D

  1  0  0  0  0  0  0  0  0  0999 V2000
    0.0000    0.0000    0.0000 O   0  0  0  0  0 15  0  0  0  0  0  0
M  END
>  <reaction>  (2) 
rmg_rxn_1157

>  <mol_properties>  (2) 
{"0": {"label": "acceptor", "atom_type": "O2s"}}

>  <type>  (2) 
r2

$$$$

     RDKit          3D

  2  1  0  0  0  0  0  0  0  0999 V2000
    0.0000    0.0000    0.1079 O   0  0  0  0  0  1  0  0  0  0  0  0
    0.0000    0.0000   -0.8631 H   0  0  0  0  0  0  0  0  0  0  0  0
  1  2  1  0
M  RAD  1   1   2
M  END
>  <reaction>  (3) 
rmg_rxn_1157

>  <mol_properties>  (3) 
{"0": {"label": "acceptor", "atom_type": "O2s"}, "1": {"label": "a_hydrogen", "atom_type": "H0"}}

>  <type>  (3) 
r2h

$$$$

     RDKit          3D

 19 17  0  0  0  0  0  0  0  0999 V2000
   -2.7591    1.7003   -0.3450 O   0  0  0  0  0  1  0  0  0  0  0  0
   -1.9570   -0.2807    0.9107 C   0  0  0  0  0  3  0  0  0  0  0  0
   -1.3024   -1.2885   -0.0235 C   0  0  0  0  0  0  0  0  0  0  0  0
   -0.1180   -0.6951   -0.7785 C   0  0  0  0  0  0  0  0  0  0  0  0
    0.9008   -0.3329    0.1514 O   0  0  0  0  0  0  0  0  0  0  0  0
    2.0348    0.2333   -0.5005 C   0  0  0  0  0  0  0  0  0  0  0  0
    3.0647    0.5888    0.5531 C   0  0  0  0  0  0  0  0  0  0  0  0
   -2.3820    0.7691    0.2452 H   0  0  0  0  0  0  0  0  0  0  0  0
   -1.2588    0.0602    1.6816 H   0  0  0  0  0  0  0  0  0  0  0  0
   -2.8169   -0.7352    1.4128 H   0  0  0  0  0  0  0  0  0  0  0  0
   -2.0461   -1.6510   -0.7416 H   0  0  0  0  0  0  0  0  0  0  0  0
   -0.9664   -2.1459    0.5713 H   0  0  0  0  0  0  0  0  0  0  0  0
   -0.4332    0.1876   -1.3469 H   0  0  0  0  0  0  0  0  0  0  0  0
    0.2785   -1.4412   -1.4766 H   0  0  0  0  0  0  0  0  0  0  0  0
    2.4573   -0.4916   -1.2048 H   0  0  0  0  0  0  0  0  0  0  0  0
    1.7357    1.1341   -1.0475 H   0  0  0  0  0  0  0  0  0  0  0  0
    3.3605   -0.3009    1.1189 H   0  0  0  0  0  0  0  0  0  0  0  0
    2.6490    1.3008    1.2738 H   0  0  0  0  0  0  0  0  0  0  0  0
    3.9553    1.0286    0.0957 H   0  0  0  0  0  0  0  0  0  0  0  0
  1  8  1  0
  2  3  1  0
  2  9  1  0
  2 10  1  0
  3  4  1  0
  3 11  1  0
  3 12  1  0
  4  5  1  0
  4 13  1  0
  4 14  1  0
  5  6  1  0
  6  7  1  0
  6 15  1  0
  6 16  1  0
  7 17  1  0
  7 18  1  0
  7 19  1  0
M  RAD  2   1   2   2   2
M  END
>  <reaction>  (4) 
rmg_rxn_1157

>  <mol_properties>  (4) 
{"0": {"label": "*1", "atom_type": "O2s"}, "1": {"label": "*3", "atom_type": "Cs"}, "2": {"label": "*4", "atom_type": "Cs"}, "7": {"label": "*2", "atom_type": "H0"}}

>  <type>  (4) 
ts

$$$$
