
     RDKit          3D

 14 13  0  0  0  0  0  0  0  0999 V2000
    1.8106   -0.5953    0.5577 C   0  0  0  0  0  0  0  0  0  0  0  0
    0.5197    0.2064    0.6554 C   0  0  0  0  0  0  0  0  0  0  0  0
   -0.5206   -0.2080   -0.3788 C   0  0  0  0  0  0  0  0  0  0  0  0
   -1.8114    0.5937   -0.2812 C   0  0  0  0  0  0  0  0  0  0  0  0
    2.2725   -0.4752   -0.4251 H   0  0  0  0  0  0  0  0  0  0  0  0
    1.6214   -1.6612    0.7052 H   0  0  0  0  0  0  0  0  0  0  0  0
    2.5364   -0.2784    1.3084 H   0  0  0  0  0  0  0  0  0  0  0  0
    0.0930    0.0950    1.6574 H   0  0  0  0  0  0  0  0  0  0  0  0
    0.7393    1.2723    0.5354 H   0  0  0  0  0  0  0  0  0  0  0  0
   -0.7402   -1.2739   -0.2588 H   0  0  0  0  0  0  0  0  0  0  0  0
   -0.0938   -0.0965   -1.3808 H   0  0  0  0  0  0  0  0  0  0  0  0
   -1.6222    1.6596   -0.4287 H   0  0  0  0  0  0  0  0  0  0  0  0
   -2.2734    0.4736    0.7017 H   0  0  0  0  0  0  0  0  0  0  0  0
   -2.5373    0.2768   -1.0318 H   0  0  0  0  0  0  0  0  0  0  0  0
  1  2  1  0
  1  5  1  0
  1  6  1  0
  1  7  1  0
  2  3  1  0
  2  8  1  0
  2  9  1  0
  3  4  1  0
  3 10  1  0
  3 11  1  0
  4 12  1  0
  4 13  1  0
  4 14  1  0
M  END
>  <reaction>  (1) 
rmg_rxn_371

>  <mol_properties>  (1) 
{"3": {"label": "donator", "atom_type": "Cs"}, "12": {"label": "d_hydrogen", "atom_type": "H0"}}

>  <type>  (1) 
r1h

$$$$

     RDKit          3D

  8  7  0  0  0  0  0  0  0  0999 V2000
   -0.7875    0.0853   -0.1040 C   0  0  0  0  0  0  0  0  0  0  0  0
    0.7204   -0.0938   -0.1477 C   0  0  0  0  0  0  0  0  0  0  0  0
    1.3762    0.6440   -1.0797 O   0  0  0  0  0  1  0  0  0  0  0  0
   -1.2283   -0.5441    0.6718 H   0  0  0  0  0  0  0  0  0  0  0  0
   -1.0408    1.1244    0.1086 H   0  0  0  0  0  0  0  0  0  0  0  0
   -1.2305   -0.1866   -1.0627 H   0  0  0  0  0  0  0  0  0  0  0  0
    1.1856    0.1312    0.8302 H   0  0  0  0  0  0  0  0  0  0  0  0
    1.0001   -1.1507   -0.3151 H   0  0  0  0  0  0  0  0  0  0  0  0
  1  2  1  0
  1  4  1  0
  1  5  1  0
  1  6  1  0
  2  3  1  0
  2  7  1  0
  2  8  1  0
M  RAD  1   3   2
M  END
>  <reaction>  (2) 
rmg_rxn_371

>  <mol_properties>  (2) 
{"2": {"label": "acceptor", "atom_type": "O2s"}}

>  <type>  (2) 
r2

$$$$

     RDKit          3D

  9  8  0  0  0  0  0  0  0  0999 V2000
   -0.9895    0.3048    0.1041 C   0  0  0  0  0  0  0  0  0  0  0  0
    0.3761   -0.3562    0.0721 C   0  0  0  0  0  0  0  0  0  0  0  0
    0.3441   -1.6564   -0.4834 O   0  0  0  0  0  0  0  0  0  0  0  0
   -1.6997   -0.3114    0.6572 H   0  0  0  0  0  0  0  0  0  0  0  0
   -0.9320    1.2848    0.5822 H   0  0  0  0  0  0  0  0  0  0  0  0
   -1.3774    0.4507   -0.9077 H   0  0  0  0  0  0  0  0  0  0  0  0
    0.7581   -0.4813    1.0862 H   0  0  0  0  0  0  0  0  0  0  0  0
    1.0900    0.2787   -0.4681 H   0  0  0  0  0  0  0  0  0  0  0  0
    0.0089   -1.5959   -1.3792 H   0  0  0  0  0  0  0  0  0  0  0  0
  1  2  1  0
  1  4  1  0
  1  5  1  0
  1  6  1  0
  2  3  1  0
  2  7  1  0
  2  8  1  0
  3  9  1  0
M  END
>  <reaction>  (3) 
rmg_rxn_371

>  <mol_properties>  (3) 
{"2": {"label": "acceptor", "atom_type": "O2s"}, "8": {"label": "a_hydrogen", "atom_type": "H0"}}

>  <type>  (3) 
r2h

$$$$

     RDKit          3D

 22 20  0  0  0  0  0  0  0  0999 V2000
   -1.9461    0.9495    1.5020 C   0  0  0  0  0  0  0  0  0  0  0  0
   -1.1394   -0.0157    2.3542 C   0  0  0  0  0  0  0  0  0  0  0  0
   -0.3660   -0.9125    1.6169 O   0  0  0  0  0  0  0  0  0  0  0  0
   -2.5579    0.4019    0.7838 H   0  0  0  0  0  0  0  0  0  0  0  0
   -2.6014    1.5612    2.1258 H   0  0  0  0  0  0  0  0  0  0  0  0
   -1.2854    1.6196    0.9483 H   0  0  0  0  0  0  0  0  0  0  0  0
   -0.5251    0.5329    3.0815 H   0  0  0  0  0  0  0  0  0  0  0  0
   -1.8152   -0.6514    2.9409 H   0  0  0  0  0  0  0  0  0  0  0  0
    0.6209   -0.6035   -3.1204 C   0  0  0  0  0  0  0  0  0  0  0  0
    0.9964   -0.7408   -1.6517 C   0  0  0  0  0  0  0  0  0  0  0  0
    1.0444    0.6003   -0.9274 C   0  0  0  0  0  0  0  0  0  0  0  0
    1.4166    0.4799    0.5261 C   0  0  0  0  0  3  0  0  0  0  0  0
    1.3391    0.0234   -3.6545 H   0  0  0  0  0  0  0  0  0  0  0  0
   -0.3648   -0.1452   -3.2307 H   0  0  0  0  0  0  0  0  0  0  0  0
    0.5930   -1.5752   -3.6156 H   0  0  0  0  0  0  0  0  0  0  0  0
    0.2790   -1.3888   -1.1418 H   0  0  0  0  0  0  0  0  0  0  0  0
    1.9716   -1.2299   -1.5640 H   0  0  0  0  0  0  0  0  0  0  0  0
    0.0737    1.0974   -1.0184 H   0  0  0  0  0  0  0  0  0  0  0  0
    1.7692    1.2576   -1.4261 H   0  0  0  0  0  0  0  0  0  0  0  0
    2.3419   -0.0650    0.7150 H   0  0  0  0  0  0  0  0  0  0  0  0
    0.5558   -0.2564    1.0743 H   0  0  0  0  0  0  0  0  0  0  0  0
    1.3773    1.4101    1.0921 H   0  0  0  0  0  0  0  0  0  0  0  0
  1  2  1  0
  1  4  1  0
  1  5  1  0
  1  6  1  0
  2  3  1  0
  2  7  1  0
  2  8  1  0
  3 21  1  0
  9 10  1  0
  9 13  1  0
  9 14  1  0
  9 15  1  0
 10 11  1  0
 10 16  1  0
 10 17  1  0
 11 12  1  0
 11 18  1  0
 11 19  1  0
 12 20  1  0
 12 22  1  0
M  RAD  1  12   2
M  END
>  <reaction>  (4) 
rmg_rxn_371

>  <mol_properties>  (4) 
{"1": {"label": "*0", "atom_type": "Cs"}, "2": {"label": "*1", "atom_type": "O2s"}, "10": {"label": "*4", "atom_type": "Cs"}, "11": {"label": "*3", "atom_type": "Cs"}, "20": {"label": "*2", "atom_type": "H0"}}

>  <type>  (4) 
ts

$$$$
