
     RDKit          3D

  3  2  0  0  0  0  0  0  0  0999 V2000
   -0.0007    0.6157    0.0000 S   0  0  0  0  0  0  0  0  0  0  0  0
   -0.9686   -0.3090    0.0000 H   0  0  0  0  0  0  0  0  0  0  0  0
    0.9693   -0.3067    0.0000 H   0  0  0  0  0  0  0  0  0  0  0  0
  1  2  1  0
  1  3  1  0
M  END
>  <reaction>  (1) 
rmg_rxn_76

>  <mol_properties>  (1) 
{"0": {"label": "donator", "atom_type": "S2s"}, "1": {"label": "d_hydrogen", "atom_type": "H0"}}

>  <type>  (1) 
r1h

$$$$

     RDKit          3D

  9  8  0  0  0  0  0  0  0  0999 V2000
    1.3246   -0.8124   -0.0809 C   0  0  0  0  0  2  0  0  0  0  0  0
    0.4082    0.3080    0.1518 C   0  0  0  0  0  0  0  0  0  0  0  0
   -1.0545   -0.0277   -0.1520 C   0  0  0  0  0  0  0  0  0  0  0  0
    2.3933   -0.9471    0.0203 H   0  0  0  0  0  0  0  0  0  0  0  0
    0.4898    0.6406    1.1970 H   0  0  0  0  0  0  0  0  0  0  0  0
    0.7134    1.1680   -0.4624 H   0  0  0  0  0  0  0  0  0  0  0  0
   -1.4014   -0.8515    0.4727 H   0  0  0  0  0  0  0  0  0  0  0  0
   -1.1767   -0.3214   -1.1952 H   0  0  0  0  0  0  0  0  0  0  0  0
   -1.6915    0.8372    0.0370 H   0  0  0  0  0  0  0  0  0  0  0  0
  1  2  1  0
  1  4  1  0
  2  3  1  0
  2  5  1  0
  2  6  1  0
  3  7  1  0
  3  8  1  0
  3  9  1  0
M  RAD  1   1   3
M  END
>  <reaction>  (2) 
rmg_rxn_76

>  <mol_properties>  (2) 
{"0": {"label": "acceptor", "atom_type": "Cs"}}

>  <type>  (2) 
r2

$$$$

     RDKit          3D

 10  9  0  0  0  0  0  0  0  0999 V2000
    1.4352    0.2660   -0.1351 C   0  0  0  0  0  3  0  0  0  0  0  0
    0.2236   -0.3243    0.4850 C   0  0  0  0  0  0  0  0  0  0  0  0
   -0.8893    0.6872    0.7364 C   0  0  0  0  0  0  0  0  0  0  0  0
    2.3577   -0.2958   -0.1940 H   0  0  0  0  0  0  0  0  0  0  0  0
    1.3935    1.2286   -0.6287 H   0  0  0  0  0  0  0  0  0  0  0  0
   -0.1633   -1.1318   -0.1556 H   0  0  0  0  0  0  0  0  0  0  0  0
    0.4945   -0.8215    1.4240 H   0  0  0  0  0  0  0  0  0  0  0  0
   -1.1991    1.1627   -0.1967 H   0  0  0  0  0  0  0  0  0  0  0  0
   -1.7660    0.2103    1.1768 H   0  0  0  0  0  0  0  0  0  0  0  0
   -0.5545    1.4732    1.4159 H   0  0  0  0  0  0  0  0  0  0  0  0
  1  2  1  0
  1  4  1  0
  1  5  1  0
  2  3  1  0
  2  6  1  0
  2  7  1  0
  3  8  1  0
  3  9  1  0
  3 10  1  0
M  RAD  1   1   2
M  END
>  <reaction>  (3) 
rmg_rxn_76

>  <mol_properties>  (3) 
{"0": {"label": "a_hydrogen", "atom_type": "H0"}, "1": {"label": "acceptor", "atom_type": "Cs"}}

>  <type>  (3) 
r2h

$$$$

     RDKit          3D

 12 10  0  0  0  0  0  0  0  0999 V2000
    0.8024   -0.9873   -1.6085 S   0  0  0  0  0  0  0  0  0  0  0  0
   -0.0371   -0.4350   -0.6048 H   0  0  0  0  0  0  0  0  0  0  0  0
    0.4982   -0.0054   -2.4668 H   0  0  0  0  0  0  0  0  0  0  0  0
   -1.0021    0.3604    0.4693 C   0  0  0  0  0  2  0  0  0  0  0  0
   -0.3166    1.3658    1.2902 C   0  0  0  0  0  0  0  0  0  0  0  0
    0.5874    2.3076    0.4901 C   0  0  0  0  0  0  0  0  0  0  0  0
   -1.9429   -0.1629    0.5739 H   0  0  0  0  0  0  0  0  0  0  0  0
   -1.0774    1.9497    1.8248 H   0  0  0  0  0  0  0  0  0  0  0  0
    0.2838    0.8684    2.0651 H   0  0  0  0  0  0  0  0  0  0  0  0
    0.0119    2.8599   -0.2538 H   0  0  0  0  0  0  0  0  0  0  0  0
    1.3637    1.7449   -0.0296 H   0  0  0  0  0  0  0  0  0  0  0  0
    1.0697    3.0257    1.1540 H   0  0  0  0  0  0  0  0  0  0  0  0
  1  2  1  0
  1  3  1  0
  4  5  1  0
  4  7  1  0
  5  6  1  0
  5  8  1  0
  5  9  1  0
  6 10  1  0
  6 11  1  0
  6 12  1  0
M  RAD  1   4   3
M  END
>  <reaction>  (4) 
rmg_rxn_76

>  <mol_properties>  (4) 
{"0": {"label": "*1", "atom_type": "S2s"}, "1": {"label": "*2", "atom_type": "H0"}, "2": {"label": "*0", "atom_type": "H0"}, "3": {"label": "*3", "atom_type": "Cs"}, "4": {"label": "*4", "atom_type": "Cs"}}

>  <type>  (4) 
ts

$$$$
