
     RDKit          3D

  9  8  0  0  0  0  0  0  0  0999 V2000
   -1.2461    0.5037    0.0950 C   0  0  0  0  0  0  0  0  0  0  0  0
   -0.0155   -0.3334    0.0640 C   0  0  0  0  0  0  0  0  0  0  0  0
    1.0697    0.1457   -0.3733 N   0  0  0  0  0  0  0  0  0  0  0  0
    2.1001   -0.7834   -0.3224 O   0  0  0  0  0  0  0  0  0  0  0  0
   -2.0357    0.0440   -0.5039 H   0  0  0  0  0  0  0  0  0  0  0  0
   -1.6237    0.5897    1.1166 H   0  0  0  0  0  0  0  0  0  0  0  0
   -1.0397    1.4998   -0.2929 H   0  0  0  0  0  0  0  0  0  0  0  0
   -0.0537   -1.3634    0.4205 H   0  0  0  0  0  0  0  0  0  0  0  0
    2.8478   -0.2985   -0.6758 H   0  0  0  0  0  0  0  0  0  0  0  0
  1  2  1  0
  1  5  1  0
  1  6  1  0
  1  7  1  0
  2  3  2  3
  2  8  1  0
  3  4  1  0
  4  9  1  0
M  END
>  <reaction>  (1) 
rmg_rxn_394

>  <mol_properties>  (1) 
{"3": {"label": "donator", "atom_type": "O2s"}, "8": {"label": "d_hydrogen", "atom_type": "H0"}}

>  <type>  (1) 
r1h

$$$$

     RDKit          3D

  8  7  0  0  0  0  0  0  0  0999 V2000
   -0.7858    0.1030   -0.0954 C   0  0  0  0  0  0  0  0  0  0  0  0
    0.7192   -0.1034   -0.1137 C   0  0  0  0  0  0  0  0  0  0  0  0
    1.3602    0.3217   -1.2323 O   0  0  0  0  0  1  0  0  0  0  0  0
   -1.2146   -0.2670    0.8381 H   0  0  0  0  0  0  0  0  0  0  0  0
   -1.0252    1.1628   -0.1896 H   0  0  0  0  0  0  0  0  0  0  0  0
   -1.2525   -0.4291   -0.9250 H   0  0  0  0  0  0  0  0  0  0  0  0
    1.2081    0.3891    0.7475 H   0  0  0  0  0  0  0  0  0  0  0  0
    0.9858   -1.1674    0.0284 H   0  0  0  0  0  0  0  0  0  0  0  0
  1  2  1  0
  1  4  1  0
  1  5  1  0
  1  6  1  0
  2  3  1  0
  2  7  1  0
  2  8  1  0
M  RAD  1   3   2
M  END
>  <reaction>  (2) 
rmg_rxn_394

>  <mol_properties>  (2) 
{"2": {"label": "acceptor", "atom_type": "O2s"}}

>  <type>  (2) 
r2

$$$$

     RDKit          3D

  9  8  0  0  0  0  0  0  0  0999 V2000
   -0.9895    0.3048    0.1041 C   0  0  0  0  0  0  0  0  0  0  0  0
    0.3761   -0.3562    0.0721 C   0  0  0  0  0  0  0  0  0  0  0  0
    0.3441   -1.6564   -0.4834 O   0  0  0  0  0  0  0  0  0  0  0  0
   -1.6997   -0.3114    0.6572 H   0  0  0  0  0  0  0  0  0  0  0  0
   -0.9320    1.2848    0.5822 H   0  0  0  0  0  0  0  0  0  0  0  0
   -1.3774    0.4507   -0.9077 H   0  0  0  0  0  0  0  0  0  0  0  0
    0.7581   -0.4813    1.0862 H   0  0  0  0  0  0  0  0  0  0  0  0
    1.0900    0.2787   -0.4681 H   0  0  0  0  0  0  0  0  0  0  0  0
    0.0089   -1.5959   -1.3792 H   0  0  0  0  0  0  0  0  0  0  0  0
  1  2  1  0
  1  4  1  0
  1  5  1  0
  1  6  1  0
  2  3  1  0
  2  7  1  0
  2  8  1  0
  3  9  1  0
M  END
>  <reaction>  (3) 
rmg_rxn_394

>  <mol_properties>  (3) 
{"2": {"label": "acceptor", "atom_type": "O2s"}, "8": {"label": "a_hydrogen", "atom_type": "H0"}}

>  <type>  (3) 
r2h

$$$$

     RDKit          3D

 17 15  0  0  0  0  0  0  0  0999 V2000
   -1.9230    1.7932    0.5358 C   0  0  0  0  0  0  0  0  0  0  0  0
   -0.4035    1.7693    0.6004 C   0  0  0  0  0  0  0  0  0  0  0  0
    0.1112    1.1823    1.7063 O   0  0  0  0  0  1  0  0  0  0  0  0
   -2.3272    2.3796    1.3622 H   0  0  0  0  0  0  0  0  0  0  0  0
   -2.2605    2.2363   -0.4030 H   0  0  0  0  0  0  0  0  0  0  0  0
   -2.3195    0.7793    0.6074 H   0  0  0  0  0  0  0  0  0  0  0  0
   -0.0319    1.1439   -0.2681 H   0  0  0  0  0  0  0  0  0  0  0  0
    0.0448    2.7608    0.4396 H   0  0  0  0  0  0  0  0  0  0  0  0
    0.5798   -1.5899   -2.5842 C   0  0  0  0  0  0  0  0  0  0  0  0
    0.6813   -1.7814   -1.1121 C   0  0  0  0  0  0  0  0  0  0  0  0
    0.4892   -0.8117   -0.3192 N   0  0  0  0  0  0  0  0  0  0  0  0
    0.5884   -1.0000    0.9744 O   0  0  0  0  0  0  0  0  0  0  0  0
    1.5241   -1.8466   -3.0695 H   0  0  0  0  0  0  0  0  0  0  0  0
   -0.1878   -2.2443   -3.0036 H   0  0  0  0  0  0  0  0  0  0  0  0
    0.3311   -0.5565   -2.8210 H   0  0  0  0  0  0  0  0  0  0  0  0
    0.9228   -2.7629   -0.7064 H   0  0  0  0  0  0  0  0  0  0  0  0
    0.3361   -0.0285    1.4564 H   0  0  0  0  0  0  0  0  0  0  0  0
  1  2  1  0
  1  4  1  0
  1  5  1  0
  1  6  1  0
  2  3  1  0
  2  7  1  0
  2  8  1  0
  9 10  1  0
  9 13  1  0
  9 14  1  0
  9 15  1  0
 10 11  2  3
 10 16  1  0
 11 12  1  0
 12 17  1  0
M  RAD  1   3   2
M  END
>  <reaction>  (4) 
rmg_rxn_394

>  <mol_properties>  (4) 
{"1": {"label": "*4", "atom_type": "Cs"}, "2": {"label": "*3", "atom_type": "O2s"}, "10": {"label": "*0", "atom_type": "N3d"}, "11": {"label": "*1", "atom_type": "O2s"}, "16": {"label": "*2", "atom_type": "H0"}}

>  <type>  (4) 
ts

$$$$
