
     RDKit          3D

 12 11  0  0  0  0  0  0  0  0999 V2000
    1.8075    0.1979    0.4695 C   0  0  0  0  0  0  0  0  0  0  0  0
    1.0072   -0.8859   -0.7259 S   0  0  0  0  0  0  0  0  0  0  0  0
   -0.7258   -0.6904   -0.2447 C   0  0  0  0  0  0  0  0  0  0  0  0
   -1.0856   -1.2776    1.1108 C   0  0  0  0  0  0  0  0  0  0  0  0
    1.7126   -0.1777    1.4878 H   0  0  0  0  0  0  0  0  0  0  0  0
    1.4024    1.2089    0.4095 H   0  0  0  0  0  0  0  0  0  0  0  0
    2.8647    0.2298    0.2095 H   0  0  0  0  0  0  0  0  0  0  0  0
   -1.2866   -1.1892   -1.0369 H   0  0  0  0  0  0  0  0  0  0  0  0
   -0.9814    0.3707   -0.2917 H   0  0  0  0  0  0  0  0  0  0  0  0
   -0.5492   -0.7768    1.9180 H   0  0  0  0  0  0  0  0  0  0  0  0
   -0.8418   -2.3397    1.1503 H   0  0  0  0  0  0  0  0  0  0  0  0
   -2.1545   -1.1604    1.3035 H   0  0  0  0  0  0  0  0  0  0  0  0
  1  2  1  0
  1  5  1  0
  1  6  1  0
  1  7  1  0
  2  3  1  0
  3  4  1  0
  3  8  1  0
  3  9  1  0
  4 10  1  0
  4 11  1  0
  4 12  1  0
M  END
>  <reaction>  (1) 
rmg_rxn_528

>  <mol_properties>  (1) 
{"0": {"label": "donator", "atom_type": "Cs"}, "4": {"label": "d_hydrogen", "atom_type": "H0"}}

>  <type>  (1) 
r1h

$$$$

     RDKit          3D

 13 13  0  0  0  0  0  0  0  0999 V2000
    0.5794    1.5990    0.2108 C   0  0  0  0  0  3  0  0  0  0  0  0
    1.4528    0.6621   -0.2496 O   0  0  0  0  0  0  0  0  0  0  0  0
    1.0751   -0.6763    0.0423 C   0  0  0  0  0  0  0  0  0  0  0  0
   -0.3579   -0.9282   -0.3924 C   0  0  0  0  0  0  0  0  0  0  0  0
   -1.2426    0.1393    0.2269 C   0  0  0  0  0  0  0  0  0  0  0  0
   -0.7410    1.4341   -0.0749 O   0  0  0  0  0  0  0  0  0  0  0  0
    0.9183    2.6078    0.0084 H   0  0  0  0  0  0  0  0  0  0  0  0
    1.1839   -0.8508    1.1199 H   0  0  0  0  0  0  0  0  0  0  0  0
    1.7816   -1.3130   -0.4874 H   0  0  0  0  0  0  0  0  0  0  0  0
   -0.6818   -1.9210   -0.0736 H   0  0  0  0  0  0  0  0  0  0  0  0
   -0.4271   -0.8785   -1.4810 H   0  0  0  0  0  0  0  0  0  0  0  0
   -1.2832    0.0173    1.3164 H   0  0  0  0  0  0  0  0  0  0  0  0
   -2.2575    0.1083   -0.1657 H   0  0  0  0  0  0  0  0  0  0  0  0
  1  2  1  0
  1  6  1  0
  1  7  1  0
  2  3  1  0
  3  4  1  0
  3  8  1  0
  3  9  1  0
  4  5  1  0
  4 10  1  0
  4 11  1  0
  5  6  1  0
  5 12  1  0
  5 13  1  0
M  RAD  1   1   2
M  END
>  <reaction>  (2) 
rmg_rxn_528

>  <mol_properties>  (2) 
{"0": {"label": "acceptor", "atom_type": "Cs"}}

>  <type>  (2) 
r2

$$$$

     RDKit          3D

 14 14  0  0  0  0  0  0  0  0999 V2000
   -1.1778    0.2241    0.1818 C   0  0  0  0  0  0  0  0  0  0  0  0
   -0.5633   -1.1636    0.0678 C   0  0  0  0  0  0  0  0  0  0  0  0
    0.6943   -1.1996    0.7146 O   0  0  0  0  0  0  0  0  0  0  0  0
    1.5547   -0.2288    0.2011 C   0  0  0  0  0  0  0  0  0  0  0  0
    1.0729    1.0696    0.3698 O   0  0  0  0  0  0  0  0  0  0  0  0
   -0.1607    1.2493   -0.2989 C   0  0  0  0  0  0  0  0  0  0  0  0
   -2.0927    0.2866   -0.4117 H   0  0  0  0  0  0  0  0  0  0  0  0
   -1.4303    0.4248    1.2248 H   0  0  0  0  0  0  0  0  0  0  0  0
   -1.1822   -1.9235    0.5431 H   0  0  0  0  0  0  0  0  0  0  0  0
   -0.4389   -1.4347   -0.9919 H   0  0  0  0  0  0  0  0  0  0  0  0
    1.7250   -0.4207   -0.8742 H   0  0  0  0  0  0  0  0  0  0  0  0
    2.4896   -0.3010    0.7524 H   0  0  0  0  0  0  0  0  0  0  0  0
   -0.0080    1.1481   -1.3844 H   0  0  0  0  0  0  0  0  0  0  0  0
   -0.4826    2.2695   -0.0942 H   0  0  0  0  0  0  0  0  0  0  0  0
  1  2  1  0
  1  6  1  0
  1  7  1  0
  1  8  1  0
  2  3  1  0
  2  9  1  0
  2 10  1  0
  3  4  1  0
  4  5  1  0
  4 11  1  0
  4 12  1  0
  5  6  1  0
  6 13  1  0
  6 14  1  0
M  END
>  <reaction>  (3) 
rmg_rxn_528

>  <mol_properties>  (3) 
{"0": {"label": "a_hydrogen", "atom_type": "H0"}, "1": {"label": "acceptor", "atom_type": "Cs"}}

>  <type>  (3) 
r2h

$$$$

     RDKit          3D

 25 24  0  0  0  0  0  0  0  0999 V2000
    1.0814   -1.8006    1.3955 C   0  0  0  0  0  0  0  0  0  0  0  0
   -0.1774   -1.3320    2.5344 S   0  0  0  0  0  0  0  0  0  0  0  0
   -1.6732   -1.6166    1.5581 C   0  0  0  0  0  0  0  0  0  0  0  0
   -1.8370   -0.7069    0.3515 C   0  0  0  0  0  0  0  0  0  0  0  0
    1.3508   -0.8695    0.5256 H   0  0  0  0  0  0  0  0  0  0  0  0
    0.8275   -2.6737    0.7946 H   0  0  0  0  0  0  0  0  0  0  0  0
    2.0233   -1.9361    1.9239 H   0  0  0  0  0  0  0  0  0  0  0  0
   -2.4880   -1.4677    2.2690 H   0  0  0  0  0  0  0  0  0  0  0  0
   -1.6919   -2.6676    1.2613 H   0  0  0  0  0  0  0  0  0  0  0  0
   -1.0537   -0.8813   -0.3862 H   0  0  0  0  0  0  0  0  0  0  0  0
   -1.7869    0.3415    0.6459 H   0  0  0  0  0  0  0  0  0  0  0  0
   -2.8022   -0.8938   -0.1261 H   0  0  0  0  0  0  0  0  0  0  0  0
    1.6180    0.0743   -0.4707 C   0  0  0  0  0  3  0  0  0  0  0  0
    1.1001   -0.4978   -1.6148 O   0  0  0  0  0  0  0  0  0  0  0  0
    1.0835    0.4023   -2.7156 C   0  0  0  0  0  0  0  0  0  0  0  0
    0.3430    1.6753   -2.3397 C   0  0  0  0  0  0  0  0  0  0  0  0
    0.9416    2.2239   -1.0548 C   0  0  0  0  0  0  0  0  0  0  0  0
    0.9685    1.2119   -0.0566 O   0  0  0  0  0  0  0  0  0  0  0  0
    2.7107    0.2067   -0.5273 H   0  0  0  0  0  0  0  0  0  0  0  0
    2.1171    0.6351   -3.0091 H   0  0  0  0  0  0  0  0  0  0  0  0
    0.6025   -0.1242   -3.5388 H   0  0  0  0  0  0  0  0  0  0  0  0
    0.4216    2.4124   -3.1420 H   0  0  0  0  0  0  0  0  0  0  0  0
   -0.7137    1.4497   -2.1823 H   0  0  0  0  0  0  0  0  0  0  0  0
    0.3541    3.0449   -0.6464 H   0  0  0  0  0  0  0  0  0  0  0  0
    1.9647    2.5846   -1.2346 H   0  0  0  0  0  0  0  0  0  0  0  0
  1  2  1  0
  1  5  1  0
  1  6  1  0
  1  7  1  0
  2  3  1  0
  3  4  1  0
  3  8  1  0
  3  9  1  0
  4 10  1  0
  4 11  1  0
  4 12  1  0
 13 14  1  0
 13 18  1  0
 13 19  1  0
 14 15  1  0
 15 16  1  0
 15 20  1  0
 15 21  1  0
 16 17  1  0
 16 22  1  0
 16 23  1  0
 17 18  1  0
 17 24  1  0
 17 25  1  0
M  RAD  1  13   2
M  END
>  <reaction>  (4) 
rmg_rxn_528

>  <mol_properties>  (4) 
{"0": {"label": "*1", "atom_type": "Cs"}, "1": {"label": "*0", "atom_type": "S2s"}, "4": {"label": "*2", "atom_type": "H0"}, "12": {"label": "*3", "atom_type": "Cs"}, "13": {"label": "*4", "atom_type": "O2s"}}

>  <type>  (4) 
ts

$$$$
