
     RDKit          3D

 15 14  0  0  0  0  0  0  0  0999 V2000
   -2.3835    0.3997    0.0000 C   0  0  0  0  0  0  0  0  0  0  0  0
   -1.1799   -0.5215   -0.0000 C   0  0  0  0  0  0  0  0  0  0  0  0
    0.0000    0.2785    0.0000 O   0  0  0  0  0  0  0  0  0  0  0  0
    1.1799   -0.5215    0.0000 C   0  0  0  0  0  0  0  0  0  0  0  0
    2.3835    0.3997   -0.0000 C   0  0  0  0  0  0  0  0  0  0  0  0
   -2.3702    1.0516   -0.8797 H   0  0  0  0  0  0  0  0  0  0  0  0
   -3.3143   -0.1744   -0.0000 H   0  0  0  0  0  0  0  0  0  0  0  0
   -2.3702    1.0516    0.8797 H   0  0  0  0  0  0  0  0  0  0  0  0
   -1.1967   -1.1561    0.8928 H   0  0  0  0  0  0  0  0  0  0  0  0
   -1.1967   -1.1561   -0.8928 H   0  0  0  0  0  0  0  0  0  0  0  0
    1.1967   -1.1561    0.8928 H   0  0  0  0  0  0  0  0  0  0  0  0
    1.1967   -1.1561   -0.8928 H   0  0  0  0  0  0  0  0  0  0  0  0
    2.3702    1.0516    0.8797 H   0  0  0  0  0  0  0  0  0  0  0  0
    3.3143   -0.1744   -0.0000 H   0  0  0  0  0  0  0  0  0  0  0  0
    2.3702    1.0516   -0.8797 H   0  0  0  0  0  0  0  0  0  0  0  0
  1  2  1  0
  1  6  1  0
  1  7  1  0
  1  8  1  0
  2  3  1  0
  2  9  1  0
  2 10  1  0
  3  4  1  0
  4  5  1  0
  4 11  1  0
  4 12  1  0
  5 13  1  0
  5 14  1  0
  5 15  1  0
M  END
>  <reaction>  (1) 
rmg_rxn_1160

>  <mol_properties>  (1) 
{"0": {"label": "donator", "atom_type": "Cs"}, "5": {"label": "d_hydrogen", "atom_type": "H0"}}

>  <type>  (1) 
r1h

$$$$

     RDKit          3D

  1  0  0  0  0  0  0  0  0  0999 V2000
    0.0000    0.0000    0.0000 O   0  0  0  0  0 15  0  0  0  0  0  0
M  END
>  <reaction>  (2) 
rmg_rxn_1160

>  <mol_properties>  (2) 
{"0": {"label": "acceptor", "atom_type": "O2s"}}

>  <type>  (2) 
r2

$$$$

     RDKit          3D

  2  1  0  0  0  0  0  0  0  0999 V2000
    0.0000    0.0000    0.1079 O   0  0  0  0  0  1  0  0  0  0  0  0
    0.0000    0.0000   -0.8631 H   0  0  0  0  0  0  0  0  0  0  0  0
  1  2  1  0
M  RAD  1   1   2
M  END
>  <reaction>  (3) 
rmg_rxn_1160

>  <mol_properties>  (3) 
{"0": {"label": "acceptor", "atom_type": "O2s"}, "1": {"label": "a_hydrogen", "atom_type": "H0"}}

>  <type>  (3) 
r2h

$$$$

     RDKit          3D

 16 14  0  0  0  0  0  0  0  0999 V2000
   -2.6197    1.5044   -0.2089 O   0  0  0  0  0  1  0  0  0  0  0  0
   -1.8433   -0.7767    0.3748 C   0  0  0  0  0  3  0  0  0  0  0  0
   -0.4935   -1.0584   -0.2546 C   0  0  0  0  0  0  0  0  0  0  0  0
    0.4363   -0.0874    0.2194 O   0  0  0  0  0  0  0  0  0  0  0  0
    1.7356   -0.2881   -0.3315 C   0  0  0  0  0  0  0  0  0  0  0  0
    2.6599    0.7794    0.2193 C   0  0  0  0  0  0  0  0  0  0  0  0
   -2.2548    0.4323    0.0654 H   0  0  0  0  0  0  0  0  0  0  0  0
   -2.5900   -1.5009    0.0374 H   0  0  0  0  0  0  0  0  0  0  0  0
   -1.7763   -0.8206    1.4669 H   0  0  0  0  0  0  0  0  0  0  0  0
   -0.1549   -2.0622    0.0244 H   0  0  0  0  0  0  0  0  0  0  0  0
   -0.5709   -0.9951   -1.3455 H   0  0  0  0  0  0  0  0  0  0  0  0
    2.1061   -1.2809   -0.0536 H   0  0  0  0  0  0  0  0  0  0  0  0
    1.6901   -0.2139   -1.4235 H   0  0  0  0  0  0  0  0  0  0  0  0
    2.7017    0.7268    1.3123 H   0  0  0  0  0  0  0  0  0  0  0  0
    3.6718    0.6628   -0.1787 H   0  0  0  0  0  0  0  0  0  0  0  0
    2.2918    1.7782   -0.0376 H   0  0  0  0  0  0  0  0  0  0  0  0
  1  7  1  0
  2  3  1  0
  2  8  1  0
  2  9  1  0
  3  4  1  0
  3 10  1  0
  3 11  1  0
  4  5  1  0
  5  6  1  0
  5 12  1  0
  5 13  1  0
  6 14  1  0
  6 15  1  0
  6 16  1  0
M  RAD  2   1   2   2   2
M  END
>  <reaction>  (4) 
rmg_rxn_1160

>  <mol_properties>  (4) 
{"0": {"label": "*1", "atom_type": "O2s"}, "1": {"label": "*3", "atom_type": "Cs"}, "2": {"label": "*4", "atom_type": "Cs"}, "6": {"label": "*2", "atom_type": "H0"}}

>  <type>  (4) 
ts

$$$$
