
     RDKit          3D

  9  8  0  0  0  0  0  0  0  0999 V2000
   -1.2461    0.5037    0.0950 C   0  0  0  0  0  0  0  0  0  0  0  0
   -0.0155   -0.3334    0.0640 C   0  0  0  0  0  0  0  0  0  0  0  0
    1.0697    0.1457   -0.3733 N   0  0  0  0  0  0  0  0  0  0  0  0
    2.1001   -0.7834   -0.3224 O   0  0  0  0  0  0  0  0  0  0  0  0
   -2.0357    0.0440   -0.5039 H   0  0  0  0  0  0  0  0  0  0  0  0
   -1.6237    0.5897    1.1166 H   0  0  0  0  0  0  0  0  0  0  0  0
   -1.0397    1.4998   -0.2929 H   0  0  0  0  0  0  0  0  0  0  0  0
   -0.0537   -1.3634    0.4205 H   0  0  0  0  0  0  0  0  0  0  0  0
    2.8478   -0.2985   -0.6758 H   0  0  0  0  0  0  0  0  0  0  0  0
  1  2  1  0
  1  5  1  0
  1  6  1  0
  1  7  1  0
  2  3  2  3
  2  8  1  0
  3  4  1  0
  4  9  1  0
M  END
>  <reaction>  (1) 
rmg_rxn_16501

>  <mol_properties>  (1) 
{"3": {"label": "donator", "atom_type": "O2s"}, "8": {"label": "d_hydrogen", "atom_type": "H0"}}

>  <type>  (1) 
r1h

$$$$

     RDKit          3D

  7  6  0  0  0  0  0  0  0  0999 V2000
   -0.6441   -0.1356    0.0624 C   0  0  0  0  0  0  0  0  0  0  0  0
    0.8523    0.0148   -0.0333 C   0  0  0  0  0  0  0  0  0  0  0  0
    1.6700   -0.6077    0.6603 N   0  0  0  0  0  2  0  0  0  0  0  0
   -1.0940    0.8275    0.3091 H   0  0  0  0  0  0  0  0  0  0  0  0
   -0.9104   -0.8656    0.8237 H   0  0  0  0  0  0  0  0  0  0  0  0
   -1.0427   -0.4545   -0.9022 H   0  0  0  0  0  0  0  0  0  0  0  0
    1.2362    0.7308   -0.7748 H   0  0  0  0  0  0  0  0  0  0  0  0
  1  2  1  0
  1  4  1  0
  1  5  1  0
  1  6  1  0
  2  3  2  0
  2  7  1  0
M  RAD  1   3   2
M  END
>  <reaction>  (2) 
rmg_rxn_16501

>  <mol_properties>  (2) 
{"2": {"label": "acceptor", "atom_type": "N3d"}}

>  <type>  (2) 
r2

$$$$

     RDKit          3D

  8  7  0  0  0  0  0  0  0  0999 V2000
    0.9548    0.1194   -0.0790 C   0  0  0  0  0  0  0  0  0  0  0  0
   -0.4838   -0.2649    0.0193 C   0  0  0  0  0  0  0  0  0  0  0  0
   -0.8933   -1.1081    0.8664 N   0  0  0  0  0  0  0  0  0  0  0  0
    1.3360   -0.0983   -1.0800 H   0  0  0  0  0  0  0  0  0  0  0  0
    1.0698    1.1948    0.0786 H   0  0  0  0  0  0  0  0  0  0  0  0
    1.5426   -0.4219    0.6602 H   0  0  0  0  0  0  0  0  0  0  0  0
   -1.1575    0.2324   -0.6905 H   0  0  0  0  0  0  0  0  0  0  0  0
   -1.8989   -1.2455    0.7886 H   0  0  0  0  0  0  0  0  0  0  0  0
  1  2  1  0
  1  4  1  0
  1  5  1  0
  1  6  1  0
  2  3  2  3
  2  7  1  0
  3  8  1  0
M  END
>  <reaction>  (3) 
rmg_rxn_16501

>  <mol_properties>  (3) 
{"2": {"label": "acceptor", "atom_type": "N3d"}, "7": {"label": "a_hydrogen", "atom_type": "H0"}}

>  <type>  (3) 
r2h

$$$$

     RDKit          3D

 16 14  0  0  0  0  0  0  0  0999 V2000
   -0.8336    2.2893    2.1915 C   0  0  0  0  0  0  0  0  0  0  0  0
   -0.1167    1.1453    1.5396 C   0  0  0  0  0  3  0  0  0  0  0  0
    0.8737    0.5663    2.0191 N   0  0  0  0  0  2  0  0  0  0  0  0
   -0.3722    2.5475    3.1420 H   0  0  0  0  0  0  0  0  0  0  0  0
   -1.8791    2.0195    2.3514 H   0  0  0  0  0  0  0  0  0  0  0  0
   -0.8161    3.1552    1.5270 H   0  0  0  0  0  0  0  0  0  0  0  0
   -0.4940    0.7869    0.5593 H   0  0  0  0  0  0  0  0  0  0  0  0
   -0.6322   -1.3685   -2.5883 C   0  0  0  0  0  0  0  0  0  0  0  0
    0.4152   -1.5988   -1.5551 C   0  0  0  0  0  3  0  0  0  0  0  0
    0.4603   -0.8815   -0.5086 N   0  0  0  0  0  2  0  0  0  0  0  0
    1.3993   -1.1181    0.3762 O   0  0  0  0  0  1  0  0  0  0  0  0
   -0.1774   -1.1315   -3.5532 H   0  0  0  0  0  0  0  0  0  0  0  0
   -1.2392   -2.2660   -2.7297 H   0  0  0  0  0  0  0  0  0  0  0  0
   -1.2838   -0.5462   -2.2956 H   0  0  0  0  0  0  0  0  0  0  0  0
    1.1500   -2.3904   -1.6981 H   0  0  0  0  0  0  0  0  0  0  0  0
    1.2560   -0.3162    1.2962 H   0  0  0  0  0  0  0  0  0  0  0  0
  1  4  1  0
  1  2  1  0
  1  6  1  0
  1  5  1  0
  2  7  1  0
  2  3  1  0
  3 16  1  0
  8 13  1  0
  8  9  1  0
  8 12  1  0
  8 14  1  0
  9 15  1  0
  9 10  1  0
 10 11  1  0
M  RAD  5   2   2   3   2   9   2  10   2  11   2
M  END
>  <reaction>  (4) 
rmg_rxn_16501

>  <mol_properties>  (4) 
{"1": {"label": "*0", "atom_type": "Cs"}, "2": {"label": "*1", "atom_type": "N3s"}, "9": {"label": "*4", "atom_type": "N3s"}, "10": {"label": "*3", "atom_type": "O2s"}, "15": {"label": "*2", "atom_type": "H0"}}

>  <type>  (4) 
ts

$$$$
