
     RDKit          3D

 10  9  0  0  0  0  0  0  0  0999 V2000
    2.0403   -0.0578    0.0121 C   0  0  0  0  0  0  0  0  0  0  0  0
    0.5945   -0.0168    0.1898 C   0  0  0  0  0  0  0  0  0  0  0  0
   -0.5945    0.0169    0.3359 C   0  0  0  0  0  0  0  0  0  0  0  0
   -2.0403    0.0578    0.5136 C   0  0  0  0  0  0  0  0  0  0  0  0
    2.4743    0.9376    0.1205 H   0  0  0  0  0  0  0  0  0  0  0  0
    2.3003   -0.4330   -0.9792 H   0  0  0  0  0  0  0  0  0  0  0  0
    2.5052   -0.7109    0.7526 H   0  0  0  0  0  0  0  0  0  0  0  0
   -2.3746    1.0686    0.7536 H   0  0  0  0  0  0  0  0  0  0  0  0
   -2.3517   -0.6020    1.3252 H   0  0  0  0  0  0  0  0  0  0  0  0
   -2.5535   -0.2603   -0.3954 H   0  0  0  0  0  0  0  0  0  0  0  0
  1  2  1  0
  1  5  1  0
  1  6  1  0
  1  7  1  0
  2  3  3  0
  3  4  1  0
  4  8  1  0
  4  9  1  0
  4 10  1  0
M  END
>  <reaction>  (1) 
rmg_rxn_172

>  <mol_properties>  (1) 
{"3": {"label": "donator", "atom_type": "Cs"}, "9": {"label": "d_hydrogen", "atom_type": "H0"}}

>  <type>  (1) 
r1h

$$$$

     RDKit          3D

  8  7  0  0  0  0  0  0  0  0999 V2000
   -1.0336    0.3440   -0.0356 C   0  0  0  0  0  3  0  0  0  0  0  0
    0.1991   -0.4326   -0.0698 C   0  0  0  0  0  0  0  0  0  0  0  0
    0.9631   -0.0368    1.2269 N   0  0  0  0  0  0  0  0  0  0  0  0
    0.8138   -0.8074    2.1160 O   0  0  0  0  0  0  0  0  0  0  0  0
   -1.0668    1.3490   -0.4321 H   0  0  0  0  0  0  0  0  0  0  0  0
   -1.8598    0.0102    0.5774 H   0  0  0  0  0  0  0  0  0  0  0  0
    0.0447   -1.5108   -0.0264 H   0  0  0  0  0  0  0  0  0  0  0  0
    0.8639   -0.1518   -0.8851 H   0  0  0  0  0  0  0  0  0  0  0  0
  1  2  1  0
  1  5  1  0
  1  6  1  0
  2  3  1  0
  2  7  1  0
  2  8  1  0
  3  4  2  0
M  RAD  1   1   2
M  END
>  <reaction>  (2) 
rmg_rxn_172

>  <mol_properties>  (2) 
{"0": {"label": "acceptor", "atom_type": "Cs"}}

>  <type>  (2) 
r2

$$$$

     RDKit          3D

  9  8  0  0  0  0  0  0  0  0999 V2000
   -1.0314    0.2323   -0.1227 C   0  0  0  0  0  0  0  0  0  0  0  0
    0.3094   -0.4511    0.0063 C   0  0  0  0  0  0  0  0  0  0  0  0
    0.3197   -1.7698    0.6841 N   0  0  0  0  0  0  0  0  0  0  0  0
   -0.7498   -2.1455    1.0557 O   0  0  0  0  0  0  0  0  0  0  0  0
   -1.4744    0.4198    0.8552 H   0  0  0  0  0  0  0  0  0  0  0  0
   -0.9073    1.1865   -0.6350 H   0  0  0  0  0  0  0  0  0  0  0  0
   -1.7319   -0.3778   -0.6927 H   0  0  0  0  0  0  0  0  0  0  0  0
    1.0375    0.1401    0.5713 H   0  0  0  0  0  0  0  0  0  0  0  0
    0.7826   -0.6494   -0.9609 H   0  0  0  0  0  0  0  0  0  0  0  0
  1  2  1  0
  1  5  1  0
  1  6  1  0
  1  7  1  0
  2  3  1  0
  2  8  1  0
  2  9  1  0
  3  4  2  0
M  END
>  <reaction>  (3) 
rmg_rxn_172

>  <mol_properties>  (3) 
{"0": {"label": "acceptor", "atom_type": "Cs"}, "8": {"label": "a_hydrogen", "atom_type": "H0"}}

>  <type>  (3) 
r2h

$$$$

     RDKit          3D

 18 16  0  0  0  0  0  0  0  0999 V2000
   -0.1761    0.3448    1.6522 C   0  0  0  0  0  3  0  0  0  0  0  0
   -0.5116    1.0239    0.3701 C   0  0  0  0  0  0  0  0  0  0  0  0
   -1.1758    2.3625    0.4550 N   0  0  0  0  0  0  0  0  0  0  0  0
   -1.3730    2.7577    1.5610 O   0  0  0  0  0  0  0  0  0  0  0  0
    0.5982    0.8176    2.2498 H   0  0  0  0  0  0  0  0  0  0  0  0
   -1.0220    0.0138    2.2481 H   0  0  0  0  0  0  0  0  0  0  0  0
    0.3681    1.2100   -0.2543 H   0  0  0  0  0  0  0  0  0  0  0  0
   -1.1910    0.4365   -0.2560 H   0  0  0  0  0  0  0  0  0  0  0  0
    0.8028   -1.6158   -3.2936 C   0  0  0  0  0  0  0  0  0  0  0  0
    0.8661   -1.7472   -1.8451 C   0  0  0  0  0  0  0  0  0  0  0  0
    0.9264   -1.8717   -0.6497 C   0  0  0  0  0  0  0  0  0  0  0  0
    0.9605   -1.9442    0.7767 C   0  0  0  0  0  0  0  0  0  0  0  0
    1.8024   -1.6417   -3.7305 H   0  0  0  0  0  0  0  0  0  0  0  0
    0.3348   -0.6715   -3.5794 H   0  0  0  0  0  0  0  0  0  0  0  0
    0.2195   -2.4269   -3.7325 H   0  0  0  0  0  0  0  0  0  0  0  0
    1.9619   -1.9365    1.2034 H   0  0  0  0  0  0  0  0  0  0  0  0
    0.3478   -2.7372    1.2013 H   0  0  0  0  0  0  0  0  0  0  0  0
    0.4231   -0.8620    1.2353 H   0  0  0  0  0  0  0  0  0  0  0  0
  1  2  1  0
  1  5  1  0
  1  6  1  0
  2  3  1  0
  2  7  1  0
  2  8  1  0
  3  4  2  0
  9 10  1  0
  9 13  1  0
  9 14  1  0
  9 15  1  0
 10 11  3  0
 11 12  1  0
 12 16  1  0
 12 17  1  0
 12 18  1  0
M  RAD  1   1   2
M  END
>  <reaction>  (4) 
rmg_rxn_172

>  <mol_properties>  (4) 
{"0": {"label": "*3", "atom_type": "Cs"}, "1": {"label": "*4", "atom_type": "Cs"}, "10": {"label": "*0", "atom_type": "Ct"}, "11": {"label": "*1", "atom_type": "Cs"}, "17": {"label": "*2", "atom_type": "H0"}}

>  <type>  (4) 
ts

$$$$
