
     RDKit          3D

  4  3  0  0  0  0  0  0  0  0999 V2000
   -0.4822    0.3819   -0.0104 N   0  0  0  0  0  0  0  0  0  0  0  0
    0.4822   -0.3819    0.0104 N   0  0  0  0  0  0  0  0  0  0  0  0
   -1.3303   -0.2037    0.0194 H   0  0  0  0  0  0  0  0  0  0  0  0
    1.3303    0.2037   -0.0194 H   0  0  0  0  0  0  0  0  0  0  0  0
  1  2  2  3
  1  3  1  0
  2  4  1  0
M  END
>  <reaction>  (1) 
rmg_rxn_15592

>  <mol_properties>  (1) 
{"1": {"label": "donator", "atom_type": "N3d"}, "3": {"label": "d_hydrogen", "atom_type": "H0"}}

>  <type>  (1) 
r1h

$$$$

     RDKit          3D

  8  7  0  0  0  0  0  0  0  0999 V2000
    1.7077   -0.1964   -0.0607 C   0  0  0  0  0  3  0  0  0  0  0  0
    0.4209   -0.4565    0.2808 O   0  0  0  0  0  0  0  0  0  0  0  0
   -0.4607    0.4385   -0.2968 N   0  0  0  0  0  0  0  0  0  0  0  0
   -1.6584    0.1416   -0.0244 C   0  0  0  0  0  0  0  0  0  0  0  0
    2.4163   -0.7685    0.5170 H   0  0  0  0  0  0  0  0  0  0  0  0
    1.9214    0.7645   -0.5045 H   0  0  0  0  0  0  0  0  0  0  0  0
   -2.4185    0.7953   -0.4307 H   0  0  0  0  0  0  0  0  0  0  0  0
   -1.9286   -0.7185    0.5831 H   0  0  0  0  0  0  0  0  0  0  0  0
  1  2  1  0
  1  5  1  0
  1  6  1  0
  2  3  1  0
  3  4  2  3
  4  7  1  0
  4  8  1  0
M  RAD  1   1   2
M  END
>  <reaction>  (2) 
rmg_rxn_15592

>  <mol_properties>  (2) 
{"0": {"label": "acceptor", "atom_type": "Cs"}}

>  <type>  (2) 
r2

$$$$

     RDKit          3D

  9  8  0  0  0  0  0  0  0  0999 V2000
   -1.5470   -0.0755   -0.1976 C   0  0  0  0  0  0  0  0  0  0  0  0
   -0.2885    0.4507    0.1749 O   0  0  0  0  0  0  0  0  0  0  0  0
   -0.1502    1.7216   -0.3294 N   0  0  0  0  0  0  0  0  0  0  0  0
    0.9626    2.2353   -0.0219 C   0  0  0  0  0  0  0  0  0  0  0  0
   -1.6392   -0.1356   -1.2844 H   0  0  0  0  0  0  0  0  0  0  0  0
   -2.3597    0.5337    0.2044 H   0  0  0  0  0  0  0  0  0  0  0  0
   -1.5879   -1.0750    0.2318 H   0  0  0  0  0  0  0  0  0  0  0  0
    1.1497    3.2381   -0.3820 H   0  0  0  0  0  0  0  0  0  0  0  0
    1.7060    1.7101    0.5739 H   0  0  0  0  0  0  0  0  0  0  0  0
  1  2  1  0
  1  5  1  0
  1  6  1  0
  1  7  1  0
  2  3  1  0
  3  4  2  3
  4  8  1  0
  4  9  1  0
M  END
>  <reaction>  (3) 
rmg_rxn_15592

>  <mol_properties>  (3) 
{"0": {"label": "a_hydrogen", "atom_type": "H0"}, "1": {"label": "acceptor", "atom_type": "Cs"}}

>  <type>  (3) 
r2h

$$$$

     RDKit          3D

 12 10  0  0  0  0  0  0  0  0999 V2000
    0.0530   -1.8690   -0.9889 N   0  0  0  0  0  0  0  0  0  0  0  0
    0.4375   -2.1722    0.1208 N   0  0  0  0  0  0  0  0  0  0  0  0
    0.2908   -2.6352   -1.6436 H   0  0  0  0  0  0  0  0  0  0  0  0
    0.1501   -1.2840    0.8256 H   0  0  0  0  0  0  0  0  0  0  0  0
   -0.3141   -0.0100    1.5097 C   0  0  0  0  0  3  0  0  0  0  0  0
   -0.6648    0.8675    0.5170 O   0  0  0  0  0  0  0  0  0  0  0  0
    0.4454    1.5187    0.0082 N   0  0  0  0  0  0  0  0  0  0  0  0
    0.1484    2.1983   -1.0138 C   0  0  0  0  0  0  0  0  0  0  0  0
    0.5548    0.2926    2.0897 H   0  0  0  0  0  0  0  0  0  0  0  0
   -1.1996   -0.3088    2.0620 H   0  0  0  0  0  0  0  0  0  0  0  0
    0.9546    2.7575   -1.4695 H   0  0  0  0  0  0  0  0  0  0  0  0
   -0.8563    2.2288   -1.4276 H   0  0  0  0  0  0  0  0  0  0  0  0
  1  2  2  3
  1  3  1  0
  2  4  1  0
  5  6  1  0
  5  9  1  0
  5 10  1  0
  6  7  1  0
  7  8  2  3
  8 11  1  0
  8 12  1  0
M  RAD  1   5   2
M  END
>  <reaction>  (4) 
rmg_rxn_15592

>  <mol_properties>  (4) 
{"0": {"label": "*0", "atom_type": "N3d"}, "1": {"label": "*1", "atom_type": "N3d"}, "3": {"label": "*2", "atom_type": "H0"}, "4": {"label": "*3", "atom_type": "Cs"}, "5": {"label": "*4", "atom_type": "O2s"}}

>  <type>  (4) 
ts

$$$$
