
     RDKit          3D

 14 14  0  0  0  0  0  0  0  0999 V2000
   -1.1778    0.2241    0.1818 C   0  0  0  0  0  0  0  0  0  0  0  0
   -0.5633   -1.1636    0.0678 C   0  0  0  0  0  0  0  0  0  0  0  0
    0.6943   -1.1996    0.7146 O   0  0  0  0  0  0  0  0  0  0  0  0
    1.5547   -0.2288    0.2011 C   0  0  0  0  0  0  0  0  0  0  0  0
    1.0729    1.0696    0.3698 O   0  0  0  0  0  0  0  0  0  0  0  0
   -0.1607    1.2493   -0.2989 C   0  0  0  0  0  0  0  0  0  0  0  0
   -2.0927    0.2866   -0.4117 H   0  0  0  0  0  0  0  0  0  0  0  0
   -1.4303    0.4248    1.2248 H   0  0  0  0  0  0  0  0  0  0  0  0
   -1.1822   -1.9235    0.5431 H   0  0  0  0  0  0  0  0  0  0  0  0
   -0.4389   -1.4347   -0.9919 H   0  0  0  0  0  0  0  0  0  0  0  0
    1.7250   -0.4207   -0.8742 H   0  0  0  0  0  0  0  0  0  0  0  0
    2.4896   -0.3010    0.7524 H   0  0  0  0  0  0  0  0  0  0  0  0
   -0.0080    1.1481   -1.3844 H   0  0  0  0  0  0  0  0  0  0  0  0
   -0.4826    2.2695   -0.0942 H   0  0  0  0  0  0  0  0  0  0  0  0
  1  2  1  0
  1  6  1  0
  1  7  1  0
  1  8  1  0
  2  3  1  0
  2  9  1  0
  2 10  1  0
  3  4  1  0
  4  5  1  0
  4 11  1  0
  4 12  1  0
  5  6  1  0
  6 13  1  0
  6 14  1  0
M  END
>  <reaction>  (1) 
rmg_rxn_630

>  <mol_properties>  (1) 
{"3": {"label": "donator", "atom_type": "Cs"}, "10": {"label": "d_hydrogen", "atom_type": "H0"}}

>  <type>  (1) 
r1h

$$$$

     RDKit          3D

 14 13  0  0  0  0  0  0  0  0999 V2000
    2.6694    0.2813   -0.6046 C   0  0  0  0  0  3  0  0  0  0  0  0
    1.5626   -0.5075   -0.0103 C   0  0  0  0  0  0  0  0  0  0  0  0
    0.5522   -0.8487   -0.9278 O   0  0  0  0  0  0  0  0  0  0  0  0
    0.9505   -1.8204   -1.8682 C   0  0  0  0  0  0  0  0  0  0  0  0
   -0.2101   -2.1029   -2.7930 C   0  0  0  0  0  0  0  0  0  0  0  0
    2.4666    0.9443   -1.4355 H   0  0  0  0  0  0  0  0  0  0  0  0
    3.6339    0.3312   -0.1179 H   0  0  0  0  0  0  0  0  0  0  0  0
    1.0573    0.0741    0.7733 H   0  0  0  0  0  0  0  0  0  0  0  0
    1.9580   -1.4106    0.4809 H   0  0  0  0  0  0  0  0  0  0  0  0
    1.8195   -1.4649   -2.4379 H   0  0  0  0  0  0  0  0  0  0  0  0
    1.2587   -2.7372   -1.3440 H   0  0  0  0  0  0  0  0  0  0  0  0
   -0.5051   -1.1971   -3.3238 H   0  0  0  0  0  0  0  0  0  0  0  0
    0.0686   -2.8601   -3.5276 H   0  0  0  0  0  0  0  0  0  0  0  0
   -1.0699   -2.4661   -2.2289 H   0  0  0  0  0  0  0  0  0  0  0  0
  1  2  1  0
  1  6  1  0
  1  7  1  0
  2  3  1  0
  2  8  1  0
  2  9  1  0
  3  4  1  0
  4  5  1  0
  4 10  1  0
  4 11  1  0
  5 12  1  0
  5 13  1  0
  5 14  1  0
M  RAD  1   1   2
M  END
>  <reaction>  (2) 
rmg_rxn_630

>  <mol_properties>  (2) 
{"0": {"label": "acceptor", "atom_type": "Cs"}}

>  <type>  (2) 
r2

$$$$

     RDKit          3D

 15 14  0  0  0  0  0  0  0  0999 V2000
    2.4145    0.0817    0.4065 C   0  0  0  0  0  0  0  0  0  0  0  0
    1.1257   -0.2220   -0.3219 C   0  0  0  0  0  0  0  0  0  0  0  0
    1.0983   -1.5879   -0.6512 O   0  0  0  0  0  0  0  0  0  0  0  0
   -0.0685   -1.9694   -1.3352 C   0  0  0  0  0  0  0  0  0  0  0  0
    0.0024   -3.4478   -1.6403 C   0  0  0  0  0  0  0  0  0  0  0  0
    3.2736   -0.1534   -0.2229 H   0  0  0  0  0  0  0  0  0  0  0  0
    2.4581    1.1389    0.6728 H   0  0  0  0  0  0  0  0  0  0  0  0
    2.4855   -0.5095    1.3201 H   0  0  0  0  0  0  0  0  0  0  0  0
    0.2597    0.0294    0.3083 H   0  0  0  0  0  0  0  0  0  0  0  0
    1.0482    0.3858   -1.2356 H   0  0  0  0  0  0  0  0  0  0  0  0
   -0.9535   -1.7457   -0.7211 H   0  0  0  0  0  0  0  0  0  0  0  0
   -0.1650   -1.3894   -2.2650 H   0  0  0  0  0  0  0  0  0  0  0  0
    0.0831   -4.0247   -0.7183 H   0  0  0  0  0  0  0  0  0  0  0  0
   -0.8950   -3.7674   -2.1724 H   0  0  0  0  0  0  0  0  0  0  0  0
    0.8712   -3.6686   -2.2613 H   0  0  0  0  0  0  0  0  0  0  0  0
  1  2  1  0
  1  6  1  0
  1  7  1  0
  1  8  1  0
  2  3  1  0
  2  9  1  0
  2 10  1  0
  3  4  1  0
  4  5  1  0
  4 11  1  0
  4 12  1  0
  5 13  1  0
  5 14  1  0
  5 15  1  0
M  END
>  <reaction>  (3) 
rmg_rxn_630

>  <mol_properties>  (3) 
{"0": {"label": "a_hydrogen", "atom_type": "H0"}, "1": {"label": "acceptor", "atom_type": "Cs"}}

>  <type>  (3) 
r2h

$$$$

     RDKit          3D

 28 27  0  0  0  0  0  0  0  0999 V2000
   -0.0270   -3.2043   -0.4260 C   0  0  0  0  0  0  0  0  0  0  0  0
   -0.5101   -2.8269    0.9652 C   0  0  0  0  0  0  0  0  0  0  0  0
   -1.4328   -1.7537    0.8909 O   0  0  0  0  0  0  0  0  0  0  0  0
   -0.9220   -0.6627    0.2174 C   0  0  0  0  0  0  0  0  0  0  0  0
   -0.4872   -0.9237   -1.0690 O   0  0  0  0  0  0  0  0  0  0  0  0
    0.4873   -1.9514   -1.1168 C   0  0  0  0  0  0  0  0  0  0  0  0
    0.7630   -3.9559   -0.3643 H   0  0  0  0  0  0  0  0  0  0  0  0
   -0.8561   -3.6239   -0.9993 H   0  0  0  0  0  0  0  0  0  0  0  0
   -1.0313   -3.6491    1.4530 H   0  0  0  0  0  0  0  0  0  0  0  0
    0.3395   -2.5314    1.5956 H   0  0  0  0  0  0  0  0  0  0  0  0
    0.0971   -0.1846    0.8868 H   0  0  0  0  0  0  0  0  0  0  0  0
   -1.6679    0.1263    0.1866 H   0  0  0  0  0  0  0  0  0  0  0  0
    1.4082   -1.6025   -0.6297 H   0  0  0  0  0  0  0  0  0  0  0  0
    0.7009   -2.1248   -2.1705 H   0  0  0  0  0  0  0  0  0  0  0  0
    1.2280    0.4735    1.4306 C   0  0  0  0  0  3  0  0  0  0  0  0
    1.5772    1.4516    0.3547 C   0  0  0  0  0  0  0  0  0  0  0  0
    0.4729    2.2930    0.1308 O   0  0  0  0  0  0  0  0  0  0  0  0
    0.6551    3.1713   -0.9512 C   0  0  0  0  0  0  0  0  0  0  0  0
   -0.5902    4.0114   -1.1135 C   0  0  0  0  0  0  0  0  0  0  0  0
    0.8558    0.9226    2.3485 H   0  0  0  0  0  0  0  0  0  0  0  0
    1.9853   -0.2871    1.6077 H   0  0  0  0  0  0  0  0  0  0  0  0
    1.8354    0.9176   -0.5732 H   0  0  0  0  0  0  0  0  0  0  0  0
    2.4573    2.0582    0.6297 H   0  0  0  0  0  0  0  0  0  0  0  0
    1.5314    3.8119   -0.7719 H   0  0  0  0  0  0  0  0  0  0  0  0
    0.8525    2.5965   -1.8675 H   0  0  0  0  0  0  0  0  0  0  0  0
   -0.7840    4.5878   -0.2082 H   0  0  0  0  0  0  0  0  0  0  0  0
   -0.4726    4.7045   -1.9479 H   0  0  0  0  0  0  0  0  0  0  0  0
   -1.4548    3.3764   -1.3101 H   0  0  0  0  0  0  0  0  0  0  0  0
  1  2  1  0
  1  6  1  0
  1  7  1  0
  1  8  1  0
  2  3  1  0
  2  9  1  0
  2 10  1  0
  3  4  1  0
  4  5  1  0
  4 11  1  0
  4 12  1  0
  5  6  1  0
  6 13  1  0
  6 14  1  0
 15 16  1  0
 15 20  1  0
 15 21  1  0
 16 17  1  0
 16 22  1  0
 16 23  1  0
 17 18  1  0
 18 19  1  0
 18 24  1  0
 18 25  1  0
 19 26  1  0
 19 27  1  0
 19 28  1  0
M  RAD  1  15   2
M  END
>  <reaction>  (4) 
rmg_rxn_630

>  <mol_properties>  (4) 
{"2": {"label": "*0", "atom_type": "O2s"}, "3": {"label": "*1", "atom_type": "Cs"}, "10": {"label": "*2", "atom_type": "H0"}, "14": {"label": "*3", "atom_type": "Cs"}, "15": {"label": "*4", "atom_type": "Cs"}}

>  <type>  (4) 
ts

$$$$
