
     RDKit          3D

 12 11  0  0  0  0  0  0  0  0999 V2000
    1.8075    0.1979    0.4695 C   0  0  0  0  0  0  0  0  0  0  0  0
    1.0072   -0.8859   -0.7259 S   0  0  0  0  0  0  0  0  0  0  0  0
   -0.7258   -0.6904   -0.2447 C   0  0  0  0  0  0  0  0  0  0  0  0
   -1.0856   -1.2776    1.1108 C   0  0  0  0  0  0  0  0  0  0  0  0
    1.7126   -0.1777    1.4878 H   0  0  0  0  0  0  0  0  0  0  0  0
    1.4024    1.2089    0.4095 H   0  0  0  0  0  0  0  0  0  0  0  0
    2.8647    0.2298    0.2095 H   0  0  0  0  0  0  0  0  0  0  0  0
   -1.2866   -1.1892   -1.0369 H   0  0  0  0  0  0  0  0  0  0  0  0
   -0.9814    0.3707   -0.2917 H   0  0  0  0  0  0  0  0  0  0  0  0
   -0.5492   -0.7768    1.9180 H   0  0  0  0  0  0  0  0  0  0  0  0
   -0.8418   -2.3397    1.1503 H   0  0  0  0  0  0  0  0  0  0  0  0
   -2.1545   -1.1604    1.3035 H   0  0  0  0  0  0  0  0  0  0  0  0
  1  2  1  0
  1  5  1  0
  1  6  1  0
  1  7  1  0
  2  3  1  0
  3  4  1  0
  3  8  1  0
  3  9  1  0
  4 10  1  0
  4 11  1  0
  4 12  1  0
M  END
>  <reaction>  (1) 
rmg_rxn_521

>  <mol_properties>  (1) 
{"0": {"label": "donator", "atom_type": "Cs"}, "4": {"label": "d_hydrogen", "atom_type": "H0"}}

>  <type>  (1) 
r1h

$$$$

     RDKit          3D

 17 16  0  0  0  0  0  0  0  0999 V2000
    2.3993   -0.7259   -0.8796 C   0  0  0  0  0  0  0  0  0  0  0  0
    1.8173   -0.7170    0.4851 C   0  0  0  0  0  3  0  0  0  0  0  0
    2.6779   -0.5182    1.6852 C   0  0  0  0  0  0  0  0  0  0  0  0
    3.8710   -1.2723    1.6674 O   0  0  0  0  0  0  0  0  0  0  0  0
    3.6589   -2.6587    1.8015 C   0  0  0  0  0  0  0  0  0  0  0  0
    4.9969   -3.3586    1.7556 C   0  0  0  0  0  0  0  0  0  0  0  0
    3.3755   -1.2152   -0.8894 H   0  0  0  0  0  0  0  0  0  0  0  0
    1.7457   -1.2284   -1.5943 H   0  0  0  0  0  0  0  0  0  0  0  0
    2.5578    0.2962   -1.2545 H   0  0  0  0  0  0  0  0  0  0  0  0
    0.7445   -0.6275    0.6059 H   0  0  0  0  0  0  0  0  0  0  0  0
    2.1057   -0.7316    2.5992 H   0  0  0  0  0  0  0  0  0  0  0  0
    3.0103    0.5272    1.7516 H   0  0  0  0  0  0  0  0  0  0  0  0
    3.0050   -3.0235    0.9977 H   0  0  0  0  0  0  0  0  0  0  0  0
    3.1469   -2.8645    2.7531 H   0  0  0  0  0  0  0  0  0  0  0  0
    5.6430   -3.0039    2.5594 H   0  0  0  0  0  0  0  0  0  0  0  0
    4.8641   -4.4360    1.8660 H   0  0  0  0  0  0  0  0  0  0  0  0
    5.4957   -3.1672    0.8046 H   0  0  0  0  0  0  0  0  0  0  0  0
  1  2  1  0
  1  7  1  0
  1  8  1  0
  1  9  1  0
  2  3  1  0
  2 10  1  0
  3  4  1  0
  3 11  1  0
  3 12  1  0
  4  5  1  0
  5  6  1  0
  5 13  1  0
  5 14  1  0
  6 15  1  0
  6 16  1  0
  6 17  1  0
M  RAD  1   2   2
M  END
>  <reaction>  (2) 
rmg_rxn_521

>  <mol_properties>  (2) 
{"1": {"label": "acceptor", "atom_type": "Cs"}}

>  <type>  (2) 
r2

$$$$

     RDKit          3D

 18 17  0  0  0  0  0  0  0  0999 V2000
    2.2026   -0.7213   -0.2612 C   0  0  0  0  0  0  0  0  0  0  0  0
    1.5384    0.2638    0.6915 C   0  0  0  0  0  0  0  0  0  0  0  0
    2.2584    1.5946    0.7694 C   0  0  0  0  0  0  0  0  0  0  0  0
    2.2212    2.2185   -0.4893 O   0  0  0  0  0  0  0  0  0  0  0  0
    2.8988    3.4488   -0.5204 C   0  0  0  0  0  0  0  0  0  0  0  0
    2.7981    4.0296   -1.9118 C   0  0  0  0  0  0  0  0  0  0  0  0
    3.2294   -0.9309    0.0486 H   0  0  0  0  0  0  0  0  0  0  0  0
    2.2338   -0.3181   -1.2734 H   0  0  0  0  0  0  0  0  0  0  0  0
    1.6610   -1.6680   -0.2875 H   0  0  0  0  0  0  0  0  0  0  0  0
    1.4990   -0.1566    1.7002 H   0  0  0  0  0  0  0  0  0  0  0  0
    0.5055    0.4455    0.3835 H   0  0  0  0  0  0  0  0  0  0  0  0
    3.3038    1.4410    1.0808 H   0  0  0  0  0  0  0  0  0  0  0  0
    1.7844    2.2410    1.5226 H   0  0  0  0  0  0  0  0  0  0  0  0
    2.4596    4.1376    0.2164 H   0  0  0  0  0  0  0  0  0  0  0  0
    3.9524    3.3035   -0.2397 H   0  0  0  0  0  0  0  0  0  0  0  0
    1.7543    4.1869   -2.1856 H   0  0  0  0  0  0  0  0  0  0  0  0
    3.2472    3.3545   -2.6411 H   0  0  0  0  0  0  0  0  0  0  0  0
    3.3178    4.9878   -1.9600 H   0  0  0  0  0  0  0  0  0  0  0  0
  1  2  1  0
  1  7  1  0
  1  8  1  0
  1  9  1  0
  2  3  1  0
  2 10  1  0
  2 11  1  0
  3  4  1  0
  3 12  1  0
  3 13  1  0
  4  5  1  0
  5  6  1  0
  5 14  1  0
  5 15  1  0
  6 16  1  0
  6 17  1  0
  6 18  1  0
M  END
>  <reaction>  (3) 
rmg_rxn_521

>  <mol_properties>  (3) 
{"0": {"label": "a_hydrogen", "atom_type": "H0"}, "2": {"label": "acceptor", "atom_type": "Cs"}}

>  <type>  (3) 
r2h

$$$$

     RDKit          3D

 29 27  0  0  0  0  0  0  0  0999 V2000
   -0.6398    0.9331    1.9349 C   0  0  0  0  0  0  0  0  0  0  0  0
   -2.1110   -0.0148    1.7147 S   0  0  0  0  0  0  0  0  0  0  0  0
   -1.5707   -1.6381    2.3024 C   0  0  0  0  0  0  0  0  0  0  0  0
   -0.5380   -2.3263    1.4252 C   0  0  0  0  0  0  0  0  0  0  0  0
    0.2463    0.7228    0.9743 H   0  0  0  0  0  0  0  0  0  0  0  0
   -0.1177    0.7218    2.8682 H   0  0  0  0  0  0  0  0  0  0  0  0
   -0.8659    1.9927    1.8334 H   0  0  0  0  0  0  0  0  0  0  0  0
   -2.4859   -2.2298    2.3559 H   0  0  0  0  0  0  0  0  0  0  0  0
   -1.2015   -1.5225    3.3237 H   0  0  0  0  0  0  0  0  0  0  0  0
    0.3777   -1.7385    1.3574 H   0  0  0  0  0  0  0  0  0  0  0  0
   -0.9211   -2.4742    0.4150 H   0  0  0  0  0  0  0  0  0  0  0  0
   -0.2800   -3.3029    1.8411 H   0  0  0  0  0  0  0  0  0  0  0  0
    1.8326    1.9962   -0.0970 C   0  0  0  0  0  0  0  0  0  0  0  0
    1.1418    0.6608   -0.0698 C   0  0  0  0  0  3  0  0  0  0  0  0
    0.2597    0.3449   -1.2391 C   0  0  0  0  0  0  0  0  0  0  0  0
    1.0422    0.2266   -2.4091 O   0  0  0  0  0  0  0  0  0  0  0  0
    0.2778   -0.0623   -3.5531 C   0  0  0  0  0  0  0  0  0  0  0  0
    1.2000   -0.1642   -4.7458 C   0  0  0  0  0  0  0  0  0  0  0  0
    1.1109    2.8053   -0.2395 H   0  0  0  0  0  0  0  0  0  0  0  0
    2.3748    2.1843    0.8314 H   0  0  0  0  0  0  0  0  0  0  0  0
    2.5493    2.0489   -0.9216 H   0  0  0  0  0  0  0  0  0  0  0  0
    1.7949   -0.1682    0.2040 H   0  0  0  0  0  0  0  0  0  0  0  0
   -0.4884    1.1425   -1.3709 H   0  0  0  0  0  0  0  0  0  0  0  0
   -0.2934   -0.5875   -1.0609 H   0  0  0  0  0  0  0  0  0  0  0  0
   -0.4716    0.7269   -3.7124 H   0  0  0  0  0  0  0  0  0  0  0  0
   -0.2712   -1.0047   -3.4093 H   0  0  0  0  0  0  0  0  0  0  0  0
    1.9348   -0.9557   -4.5942 H   0  0  0  0  0  0  0  0  0  0  0  0
    0.6286   -0.3892   -5.6478 H   0  0  0  0  0  0  0  0  0  0  0  0
    1.7328    0.7751   -4.8983 H   0  0  0  0  0  0  0  0  0  0  0  0
  1  2  1  0
  1  5  1  0
  1  6  1  0
  1  7  1  0
  2  3  1  0
  3  4  1  0
  3  8  1  0
  3  9  1  0
  4 10  1  0
  4 11  1  0
  4 12  1  0
 13 14  1  0
 13 19  1  0
 13 20  1  0
 13 21  1  0
 14 15  1  0
 14 22  1  0
 15 16  1  0
 15 23  1  0
 15 24  1  0
 16 17  1  0
 17 18  1  0
 17 25  1  0
 17 26  1  0
 18 27  1  0
 18 28  1  0
 18 29  1  0
M  RAD  1  14   2
M  END
>  <reaction>  (4) 
rmg_rxn_521

>  <mol_properties>  (4) 
{"0": {"label": "*1", "atom_type": "Cs"}, "1": {"label": "*0", "atom_type": "S2s"}, "4": {"label": "*2", "atom_type": "H0"}, "13": {"label": "*3", "atom_type": "Cs"}, "14": {"label": "*4", "atom_type": "Cs"}}

>  <type>  (4) 
ts

$$$$
