
     RDKit          3D

  6  5  0  0  0  0  0  0  0  0999 V2000
   -0.4901    0.0045    0.0014 C   0  0  0  0  0  0  0  0  0  0  0  0
    0.9645   -0.0089   -0.0027 C   0  0  0  0  0  0  0  0  0  0  0  0
    2.1108   -0.0195   -0.0059 N   0  0  0  0  0  0  0  0  0  0  0  0
   -0.8700   -0.6407   -0.7900 H   0  0  0  0  0  0  0  0  0  0  0  0
   -0.8625   -0.3540    0.9604 H   0  0  0  0  0  0  0  0  0  0  0  0
   -0.8530    1.0185   -0.1631 H   0  0  0  0  0  0  0  0  0  0  0  0
  1  2  1  0
  1  4  1  0
  1  5  1  0
  1  6  1  0
  2  3  3  0
M  END
>  <reaction>  (1) 
rmg_rxn_94

>  <mol_properties>  (1) 
{"0": {"label": "donator", "atom_type": "Cs"}, "3": {"label": "d_hydrogen", "atom_type": "H0"}}

>  <type>  (1) 
r1h

$$$$

     RDKit          3D

  8  7  0  0  0  0  0  0  0  0999 V2000
   -0.9728    0.1768    0.1542 C   0  0  0  0  0  0  0  0  0  0  0  0
    0.4518   -0.2348    0.0047 C   0  0  0  0  0  3  0  0  0  0  0  0
    1.3116    0.0208    0.9062 N   0  0  0  0  0  2  0  0  0  0  0  0
    2.5018   -0.1901    1.0428 O   0  0  0  0  0  1  0  0  0  0  0  0
   -1.2701    0.8423   -0.6593 H   0  0  0  0  0  0  0  0  0  0  0  0
   -1.6318   -0.6936    0.1212 H   0  0  0  0  0  0  0  0  0  0  0  0
   -1.1258    0.6936    1.1003 H   0  0  0  0  0  0  0  0  0  0  0  0
    0.7882   -0.7655   -0.8838 H   0  0  0  0  0  0  0  0  0  0  0  0
  1  2  1  0
  1  7  1  0
  1  6  1  0
  1  5  1  0
  2  3  1  0
  2  8  1  0
  3  4  1  0
M  RAD  3   2   2   3   2   4   2
M  END
>  <reaction>  (2) 
rmg_rxn_94

>  <mol_properties>  (2) 
{"3": {"label": "acceptor", "atom_type": "O2s"}}

>  <type>  (2) 
r2

$$$$

     RDKit          3D

  9  8  0  0  0  0  0  0  0  0999 V2000
   -1.2461    0.5037    0.0950 C   0  0  0  0  0  0  0  0  0  0  0  0
   -0.0155   -0.3334    0.0640 C   0  0  0  0  0  0  0  0  0  0  0  0
    1.0697    0.1457   -0.3733 N   0  0  0  0  0  0  0  0  0  0  0  0
    2.1001   -0.7834   -0.3224 O   0  0  0  0  0  0  0  0  0  0  0  0
   -2.0357    0.0440   -0.5039 H   0  0  0  0  0  0  0  0  0  0  0  0
   -1.6237    0.5897    1.1166 H   0  0  0  0  0  0  0  0  0  0  0  0
   -1.0397    1.4998   -0.2929 H   0  0  0  0  0  0  0  0  0  0  0  0
   -0.0537   -1.3634    0.4205 H   0  0  0  0  0  0  0  0  0  0  0  0
    2.8478   -0.2985   -0.6758 H   0  0  0  0  0  0  0  0  0  0  0  0
  1  2  1  0
  1  5  1  0
  1  6  1  0
  1  7  1  0
  2  3  2  3
  2  8  1  0
  3  4  1  0
  4  9  1  0
M  END
>  <reaction>  (3) 
rmg_rxn_94

>  <mol_properties>  (3) 
{"0": {"label": "a_hydrogen", "atom_type": "H0"}, "4": {"label": "acceptor", "atom_type": "O2s"}}

>  <type>  (3) 
r2h

$$$$

     RDKit          3D

 14 12  0  0  0  0  0  0  0  0999 V2000
    1.7378    1.4146    0.5802 C   0  0  0  0  0  0  0  0  0  0  0  0
    1.4809    1.2055   -0.7914 C   0  0  0  0  0  0  0  0  0  0  0  0
    1.2357    1.0060   -1.9019 N   0  0  0  0  0  2  0  0  0  0  0  0
    0.7786    0.6338    1.1898 H   0  0  0  0  0  0  0  0  0  0  0  0
    2.6661    0.9882    0.9473 H   0  0  0  0  0  0  0  0  0  0  0  0
    1.5085    2.4102    0.9473 H   0  0  0  0  0  0  0  0  0  0  0  0
   -2.2865   -1.8614   -0.6215 C   0  0  0  0  0  0  0  0  0  0  0  0
   -1.6112   -1.3116    0.5856 C   0  0  0  0  0  0  0  0  0  0  0  0
   -0.6338   -0.5159    0.4584 N   0  0  0  0  0  0  0  0  0  0  0  0
   -0.0674   -0.0548    1.5614 O   0  0  0  0  0  0  0  0  0  0  0  0
   -2.2338   -2.9525   -0.6247 H   0  0  0  0  0  0  0  0  0  0  0  0
   -3.3443   -1.5884   -0.6247 H   0  0  0  0  0  0  0  0  0  0  0  0
   -1.8163   -1.4786   -1.5257 H   0  0  0  0  0  0  0  0  0  0  0  0
   -1.9602   -1.5957    1.5783 H   0  0  0  0  0  0  0  0  0  0  0  0
  1  2  2  0
  1  5  1  0
  1  6  1  0
  2  3  2  0
  4 10  1  0
  7  8  1  0
  7 11  1  0
  7 12  1  0
  7 13  1  0
  8  9  2  3
  8 14  1  0
  9 10  1  0
M  RAD  1   3   2
M  END
>  <reaction>  (4) 
rmg_rxn_94

>  <mol_properties>  (4) 
{"0": {"label": "*3", "atom_type": "Cd"}, "1": {"label": "*4", "atom_type": "Cdd"}, "3": {"label": "*2", "atom_type": "H0"}, "8": {"label": "*0", "atom_type": "N3d"}, "9": {"label": "*1", "atom_type": "O2s"}}

>  <type>  (4) 
ts

$$$$
