
     RDKit          3D

 14 13  0  0  0  0  0  0  0  0999 V2000
    2.6835   -0.4133    0.0000 C   0  0  0  0  0  0  0  0  0  0  0  0
    1.5970    0.5046    0.0000 O   0  0  0  0  0  0  0  0  0  0  0  0
    0.3396   -0.1741   -0.0000 C   0  0  0  0  0  0  0  0  0  0  0  0
   -0.7603    0.8710    0.0000 C   0  0  0  0  0  0  0  0  0  0  0  0
   -2.1280    0.2478    0.0000 C   0  0  0  0  0  0  0  0  0  0  0  0
   -2.3411   -0.9603    0.0000 O   0  0  0  0  0  0  0  0  0  0  0  0
    2.6563   -1.0389   -0.8974 H   0  0  0  0  0  0  0  0  0  0  0  0
    2.6563   -1.0389    0.8974 H   0  0  0  0  0  0  0  0  0  0  0  0
    3.6159    0.1574    0.0000 H   0  0  0  0  0  0  0  0  0  0  0  0
    0.2658   -0.8093   -0.8908 H   0  0  0  0  0  0  0  0  0  0  0  0
    0.2658   -0.8093    0.8908 H   0  0  0  0  0  0  0  0  0  0  0  0
   -0.6740    1.5163   -0.8809 H   0  0  0  0  0  0  0  0  0  0  0  0
   -0.6740    1.5163    0.8809 H   0  0  0  0  0  0  0  0  0  0  0  0
   -2.9678    0.9638   -0.0000 H   0  0  0  0  0  0  0  0  0  0  0  0
  1  2  1  0
  1  7  1  0
  1  8  1  0
  1  9  1  0
  2  3  1  0
  3  4  1  0
  3 10  1  0
  3 11  1  0
  4  5  1  0
  4 12  1  0
  4 13  1  0
  5  6  2  0
  5 14  1  0
M  END
>  <reaction>  (1) 
rmg_rxn_1344

>  <mol_properties>  (1) 
{"0": {"label": "donator", "atom_type": "Cs"}, "6": {"label": "d_hydrogen", "atom_type": "H0"}}

>  <type>  (1) 
r1h

$$$$

     RDKit          3D

  8  7  0  0  0  0  0  0  0  0999 V2000
   -1.2175   -0.3643    0.0005 C   0  0  0  0  0  3  0  0  0  0  0  0
   -0.2018    0.5132    0.0014 C   0  0  0  0  0  0  0  0  0  0  0  0
    1.1283   -0.1797    0.0010 C   0  0  0  0  0  0  0  0  0  0  0  0
   -2.5072   -0.2196   -0.0003 H   0  0  0  0  0  0  0  0  0  0  0  0
   -0.1961    1.5628    0.0026 H   0  0  0  0  0  0  0  0  0  0  0  0
    1.7141    0.0860   -0.8855 H   0  0  0  0  0  0  0  0  0  0  0  0
    1.0028   -1.2905   -0.0222 H   0  0  0  0  0  0  0  0  0  0  0  0
    1.7328    0.0460    0.8882 H   0  0  0  0  0  0  0  0  0  0  0  0
  1  2  2  3
  1  4  1  0
  2  3  1  0
  2  5  1  0
  3  6  1  0
  3  7  1  0
  3  8  1  0
M  RAD  1   1   2
M  END
>  <reaction>  (2) 
rmg_rxn_1344

>  <mol_properties>  (2) 
{"0": {"label": "acceptor", "atom_type": "Cd"}}

>  <type>  (2) 
r2

$$$$

     RDKit          3D

  9  8  0  0  0  0  0  0  0  0999 V2000
   -1.2749   -0.2244    0.0004 C   0  0  0  0  0  0  0  0  0  0  0  0
   -0.1272    0.4645    0.0017 C   0  0  0  0  0  0  0  0  0  0  0  0
    1.2277   -0.1636    0.0010 C   0  0  0  0  0  0  0  0  0  0  0  0
   -2.2311    0.2898    0.0010 H   0  0  0  0  0  0  0  0  0  0  0  0
   -1.2897   -1.3099   -0.0012 H   0  0  0  0  0  0  0  0  0  0  0  0
   -0.1618    1.5518    0.0033 H   0  0  0  0  0  0  0  0  0  0  0  0
    1.7852    0.1535   -0.8856 H   0  0  0  0  0  0  0  0  0  0  0  0
    1.1333   -1.2535   -0.0230 H   0  0  0  0  0  0  0  0  0  0  0  0
    1.8102    0.1094    0.8866 H   0  0  0  0  0  0  0  0  0  0  0  0
  1  2  2  3
  1  4  1  0
  1  5  1  0
  2  3  1  0
  2  6  1  0
  3  7  1  0
  3  8  1  0
  3  9  1  0
M  END
>  <reaction>  (3) 
rmg_rxn_1344

>  <mol_properties>  (3) 
{"0": {"label": "acceptor", "atom_type": "Cd"}, "8": {"label": "a_hydrogen", "atom_type": "H0"}}

>  <type>  (3) 
r2h

$$$$

     RDKit          3D

 22 20  0  0  0  0  0  0  0  0999 V2000
    2.5317    0.5982   -0.0196 C   0  0  0  0  0  0  0  0  0  0  0  0
    2.2941   -0.7020   -0.2310 C   0  0  0  0  0  0  0  0  0  0  0  0
    3.3249   -1.7748   -0.1003 C   0  0  0  0  0  0  0  0  0  0  0  0
    3.5142    0.9603    0.2671 H   0  0  0  0  0  0  0  0  0  0  0  0
    1.2933   -1.0182   -0.5169 H   0  0  0  0  0  0  0  0  0  0  0  0
    3.0138   -2.5003    0.6575 H   0  0  0  0  0  0  0  0  0  0  0  0
    4.2790   -1.3389    0.2113 H   0  0  0  0  0  0  0  0  0  0  0  0
    3.4851   -2.3108   -1.0412 H   0  0  0  0  0  0  0  0  0  0  0  0
    0.5613    2.2678    0.3965 C   0  0  0  0  0  3  0  0  0  0  0  0
   -0.6108    1.8335   -0.2822 O   0  0  0  0  0  0  0  0  0  0  0  0
   -1.0406    0.5532    0.1844 C   0  0  0  0  0  0  0  0  0  0  0  0
   -2.2889    0.1653   -0.5859 C   0  0  0  0  0  0  0  0  0  0  0  0
   -2.8177   -1.1760   -0.1612 C   0  0  0  0  0  0  0  0  0  0  0  0
   -2.3087   -1.8813    0.7040 O   0  0  0  0  0  0  0  0  0  0  0  0
    1.5503    1.4298    0.1876 H   0  0  0  0  0  0  0  0  0  0  0  0
    0.3688    2.3651    1.4693 H   0  0  0  0  0  0  0  0  0  0  0  0
    0.8441    3.2474    0.0020 H   0  0  0  0  0  0  0  0  0  0  0  0
   -0.2444   -0.1828    0.0211 H   0  0  0  0  0  0  0  0  0  0  0  0
   -1.2535    0.6070    1.2587 H   0  0  0  0  0  0  0  0  0  0  0  0
   -2.0791    0.1301   -1.6604 H   0  0  0  0  0  0  0  0  0  0  0  0
   -3.0771    0.9112   -0.4365 H   0  0  0  0  0  0  0  0  0  0  0  0
   -3.7271   -1.5087   -0.6904 H   0  0  0  0  0  0  0  0  0  0  0  0
  1  2  2  3
  1  4  1  0
  1 15  1  0
  2  3  1  0
  2  5  1  0
  3  6  1  0
  3  7  1  0
  3  8  1  0
  9 10  1  0
  9 16  1  0
  9 17  1  0
 10 11  1  0
 11 12  1  0
 11 18  1  0
 11 19  1  0
 12 13  1  0
 12 20  1  0
 12 21  1  0
 13 14  2  0
 13 22  1  0
M  RAD  1   9   2
M  END
>  <reaction>  (4) 
rmg_rxn_1344

>  <mol_properties>  (4) 
{"0": {"label": "*1", "atom_type": "Cd"}, "1": {"label": "*0", "atom_type": "Cd"}, "8": {"label": "*3", "atom_type": "Cs"}, "9": {"label": "*4", "atom_type": "O2s"}, "14": {"label": "*2", "atom_type": "H0"}}

>  <type>  (4) 
ts

$$$$
