
     RDKit          3D

 15 14  0  0  0  0  0  0  0  0999 V2000
    2.4145    0.0817    0.4065 C   0  0  0  0  0  0  0  0  0  0  0  0
    1.1257   -0.2220   -0.3219 C   0  0  0  0  0  0  0  0  0  0  0  0
    1.0983   -1.5879   -0.6512 O   0  0  0  0  0  0  0  0  0  0  0  0
   -0.0685   -1.9694   -1.3352 C   0  0  0  0  0  0  0  0  0  0  0  0
    0.0024   -3.4478   -1.6403 C   0  0  0  0  0  0  0  0  0  0  0  0
    3.2736   -0.1534   -0.2229 H   0  0  0  0  0  0  0  0  0  0  0  0
    2.4581    1.1389    0.6728 H   0  0  0  0  0  0  0  0  0  0  0  0
    2.4855   -0.5095    1.3201 H   0  0  0  0  0  0  0  0  0  0  0  0
    0.2597    0.0294    0.3083 H   0  0  0  0  0  0  0  0  0  0  0  0
    1.0482    0.3858   -1.2356 H   0  0  0  0  0  0  0  0  0  0  0  0
   -0.9535   -1.7457   -0.7211 H   0  0  0  0  0  0  0  0  0  0  0  0
   -0.1650   -1.3894   -2.2650 H   0  0  0  0  0  0  0  0  0  0  0  0
    0.0831   -4.0247   -0.7183 H   0  0  0  0  0  0  0  0  0  0  0  0
   -0.8950   -3.7674   -2.1724 H   0  0  0  0  0  0  0  0  0  0  0  0
    0.8712   -3.6686   -2.2613 H   0  0  0  0  0  0  0  0  0  0  0  0
  1  2  1  0
  1  6  1  0
  1  7  1  0
  1  8  1  0
  2  3  1  0
  2  9  1  0
  2 10  1  0
  3  4  1  0
  4  5  1  0
  4 11  1  0
  4 12  1  0
  5 13  1  0
  5 14  1  0
  5 15  1  0
M  END
>  <reaction>  (1) 
rmg_rxn_15425

>  <mol_properties>  (1) 
{"0": {"label": "donator", "atom_type": "Cs"}, "5": {"label": "d_hydrogen", "atom_type": "H0"}}

>  <type>  (1) 
r1h

$$$$

     RDKit          3D

  5  4  0  0  0  0  0  0  0  0999 V2000
    0.8934    0.3742    0.4948 O   0  0  0  0  0  0  0  0  0  0  0  0
    0.1582   -0.1610   -0.5904 N   0  0  0  0  0  0  0  0  0  0  0  0
   -1.0297   -0.3739   -0.4689 C   0  0  0  0  0  3  0  0  0  0  0  0
    1.7804    0.4382    0.1306 H   0  0  0  0  0  0  0  0  0  0  0  0
   -1.8023   -0.2775    0.2859 H   0  0  0  0  0  0  0  0  0  0  0  0
  1  2  1  0
  1  4  1  0
  2  3  2  3
  3  5  1  0
M  RAD  1   3   2
M  END
>  <reaction>  (2) 
rmg_rxn_15425

>  <mol_properties>  (2) 
{"2": {"label": "acceptor", "atom_type": "Cd"}}

>  <type>  (2) 
r2

$$$$

     RDKit          3D

  6  5  0  0  0  0  0  0  0  0999 V2000
    1.2314    0.0428    0.5088 O   0  0  0  0  0  0  0  0  0  0  0  0
    0.2987    0.2341   -0.4915 N   0  0  0  0  0  0  0  0  0  0  0  0
   -0.8599   -0.1122   -0.1290 C   0  0  0  0  0  0  0  0  0  0  0  0
    2.0507    0.3401    0.1082 H   0  0  0  0  0  0  0  0  0  0  0  0
   -1.0700   -0.5112    0.8610 H   0  0  0  0  0  0  0  0  0  0  0  0
   -1.6509    0.0064   -0.8574 H   0  0  0  0  0  0  0  0  0  0  0  0
  1  2  1  0
  1  4  1  0
  2  3  2  3
  3  5  1  0
  3  6  1  0
M  END
>  <reaction>  (3) 
rmg_rxn_15425

>  <mol_properties>  (3) 
{"2": {"label": "acceptor", "atom_type": "Cd"}, "5": {"label": "a_hydrogen", "atom_type": "H0"}}

>  <type>  (3) 
r2h

$$$$

     RDKit          3D

 20 18  0  0  0  0  0  0  0  0999 V2000
   -3.0591    1.8051    0.0179 O   0  0  0  0  0  0  0  0  0  0  0  0
   -1.9441    1.3465    0.7328 N   0  0  0  0  0  0  0  0  0  0  0  0
   -0.8642    1.8300    0.3477 C   0  0  0  0  0  3  0  0  0  0  0  0
   -3.7865    1.3442    0.4418 H   0  0  0  0  0  0  0  0  0  0  0  0
   -0.7011    2.5379   -0.4641 H   0  0  0  0  0  0  0  0  0  0  0  0
    1.1442    0.6692    1.6574 C   0  0  0  0  0  0  0  0  0  0  0  0
    1.0105   -0.7459    1.1880 C   0  0  0  0  0  0  0  0  0  0  0  0
    1.3171   -0.8011   -0.1810 O   0  0  0  0  0  0  0  0  0  0  0  0
    1.1393   -2.0803   -0.7384 C   0  0  0  0  0  0  0  0  0  0  0  0
    1.4851   -2.0252   -2.2080 C   0  0  0  0  0  0  0  0  0  0  0  0
    0.2332    1.3240    1.0316 H   0  0  0  0  0  0  0  0  0  0  0  0
    0.9032    0.8076    2.7093 H   0  0  0  0  0  0  0  0  0  0  0  0
    2.0833    1.1421    1.3759 H   0  0  0  0  0  0  0  0  0  0  0  0
    1.6884   -1.4059    1.7547 H   0  0  0  0  0  0  0  0  0  0  0  0
   -0.0140   -1.1045    1.3653 H   0  0  0  0  0  0  0  0  0  0  0  0
    1.7803   -2.8076   -0.2188 H   0  0  0  0  0  0  0  0  0  0  0  0
    0.0984   -2.4058   -0.5998 H   0  0  0  0  0  0  0  0  0  0  0  0
    2.5211   -1.7140   -2.3462 H   0  0  0  0  0  0  0  0  0  0  0  0
    1.3542   -3.0079   -2.6637 H   0  0  0  0  0  0  0  0  0  0  0  0
    0.8396   -1.3144   -2.7251 H   0  0  0  0  0  0  0  0  0  0  0  0
  1  2  1  0
  1  4  1  0
  2  3  2  3
  3  5  1  0
  6  7  1  0
  6 11  1  0
  6 12  1  0
  6 13  1  0
  7  8  1  0
  7 14  1  0
  7 15  1  0
  8  9  1  0
  9 10  1  0
  9 16  1  0
  9 17  1  0
 10 18  1  0
 10 19  1  0
 10 20  1  0
M  RAD  1   3   2
M  END
>  <reaction>  (4) 
rmg_rxn_15425

>  <mol_properties>  (4) 
{"1": {"label": "*4", "atom_type": "N3d"}, "2": {"label": "*3", "atom_type": "Cd"}, "5": {"label": "*1", "atom_type": "Cs"}, "6": {"label": "*0", "atom_type": "Cs"}, "10": {"label": "*2", "atom_type": "H0"}}

>  <type>  (4) 
ts

$$$$
