
     RDKit          3D

  9  8  0  0  0  0  0  0  0  0999 V2000
   -1.2461    0.5037    0.0950 C   0  0  0  0  0  0  0  0  0  0  0  0
   -0.0155   -0.3334    0.0640 C   0  0  0  0  0  0  0  0  0  0  0  0
    1.0697    0.1457   -0.3733 N   0  0  0  0  0  0  0  0  0  0  0  0
    2.1001   -0.7834   -0.3224 O   0  0  0  0  0  0  0  0  0  0  0  0
   -2.0357    0.0440   -0.5039 H   0  0  0  0  0  0  0  0  0  0  0  0
   -1.6237    0.5897    1.1166 H   0  0  0  0  0  0  0  0  0  0  0  0
   -1.0397    1.4998   -0.2929 H   0  0  0  0  0  0  0  0  0  0  0  0
   -0.0537   -1.3634    0.4205 H   0  0  0  0  0  0  0  0  0  0  0  0
    2.8478   -0.2985   -0.6758 H   0  0  0  0  0  0  0  0  0  0  0  0
  1  2  1  0
  1  5  1  0
  1  6  1  0
  1  7  1  0
  2  3  2  3
  2  8  1  0
  3  4  1  0
  4  9  1  0
M  END
>  <reaction>  (1) 
rmg_rxn_1446

>  <mol_properties>  (1) 
{"3": {"label": "donator", "atom_type": "O2s"}, "8": {"label": "d_hydrogen", "atom_type": "H0"}}

>  <type>  (1) 
r1h

$$$$

     RDKit          3D

 13 12  0  0  0  0  0  0  0  0999 V2000
   -1.5801    1.1066    0.0514 C   0  0  0  0  0  3  0  0  0  0  0  0
   -0.9927   -0.2392    0.2618 C   0  0  0  0  0  0  0  0  0  0  0  0
   -1.7553   -1.0998    1.2550 C   0  0  0  0  0  0  0  0  0  0  0  0
   -1.8362   -0.4776    2.5484 O   0  0  0  0  0  0  0  0  0  0  0  0
   -0.7919   -0.6298    3.3579 C   0  0  0  0  0  0  0  0  0  0  0  0
    0.2062   -1.2441    3.1188 O   0  0  0  0  0  0  0  0  0  0  0  0
   -1.2814    1.7056   -0.7974 H   0  0  0  0  0  0  0  0  0  0  0  0
   -2.2054    1.5630    0.8065 H   0  0  0  0  0  0  0  0  0  0  0  0
    0.0499   -0.1626    0.6013 H   0  0  0  0  0  0  0  0  0  0  0  0
   -0.9457   -0.7884   -0.6852 H   0  0  0  0  0  0  0  0  0  0  0  0
   -1.2846   -2.0771    1.3590 H   0  0  0  0  0  0  0  0  0  0  0  0
   -2.7927   -1.2238    0.9481 H   0  0  0  0  0  0  0  0  0  0  0  0
   -0.9867   -0.1021    4.3012 H   0  0  0  0  0  0  0  0  0  0  0  0
  1  2  1  0
  1  7  1  0
  1  8  1  0
  2  3  1  0
  2  9  1  0
  2 10  1  0
  3  4  1  0
  3 11  1  0
  3 12  1  0
  4  5  1  0
  5  6  2  0
  5 13  1  0
M  RAD  1   1   2
M  END
>  <reaction>  (2) 
rmg_rxn_1446

>  <mol_properties>  (2) 
{"0": {"label": "acceptor", "atom_type": "Cs"}}

>  <type>  (2) 
r2

$$$$

     RDKit          3D

 14 13  0  0  0  0  0  0  0  0999 V2000
    2.1277    0.0527   -0.0768 C   0  0  0  0  0  0  0  0  0  0  0  0
    0.8550    0.0849    0.7591 C   0  0  0  0  0  0  0  0  0  0  0  0
    0.7150    1.3361    1.5963 C   0  0  0  0  0  0  0  0  0  0  0  0
    0.5975    2.4604    0.7083 O   0  0  0  0  0  0  0  0  0  0  0  0
    0.5113    3.6572    1.2782 C   0  0  0  0  0  0  0  0  0  0  0  0
    0.5224    3.8788    2.4534 O   0  0  0  0  0  0  0  0  0  0  0  0
    3.0138    0.1211    0.5584 H   0  0  0  0  0  0  0  0  0  0  0  0
    2.1544    0.8845   -0.7813 H   0  0  0  0  0  0  0  0  0  0  0  0
    2.1955   -0.8742   -0.6473 H   0  0  0  0  0  0  0  0  0  0  0  0
    0.8361   -0.7663    1.4449 H   0  0  0  0  0  0  0  0  0  0  0  0
   -0.0232   -0.0114    0.1158 H   0  0  0  0  0  0  0  0  0  0  0  0
   -0.1715    1.3001    2.2317 H   0  0  0  0  0  0  0  0  0  0  0  0
    1.5840    1.4884    2.2407 H   0  0  0  0  0  0  0  0  0  0  0  0
    0.4263    4.4265    0.4986 H   0  0  0  0  0  0  0  0  0  0  0  0
  1  2  1  0
  1  7  1  0
  1  8  1  0
  1  9  1  0
  2  3  1  0
  2 10  1  0
  2 11  1  0
  3  4  1  0
  3 12  1  0
  3 13  1  0
  4  5  1  0
  5  6  2  0
  5 14  1  0
M  END
>  <reaction>  (3) 
rmg_rxn_1446

>  <mol_properties>  (3) 
{"0": {"label": "a_hydrogen", "atom_type": "H0"}, "1": {"label": "acceptor", "atom_type": "Cs"}}

>  <type>  (3) 
r2h

$$$$

     RDKit          3D

 22 20  0  0  0  0  0  0  0  0999 V2000
    0.2754   -1.9532   -2.8900 C   0  0  0  0  0  0  0  0  0  0  0  0
   -1.0098   -1.5806   -2.2368 C   0  0  0  0  0  0  0  0  0  0  0  0
   -1.0752   -0.5560   -1.4930 N   0  0  0  0  0  0  0  0  0  0  0  0
   -2.2786   -0.3283   -0.9432 O   0  0  0  0  0  0  0  0  0  0  0  0
    0.5646   -2.9680   -2.6080 H   0  0  0  0  0  0  0  0  0  0  0  0
    0.1742   -1.9345   -3.9780 H   0  0  0  0  0  0  0  0  0  0  0  0
    1.0683   -1.2711   -2.5890 H   0  0  0  0  0  0  0  0  0  0  0  0
   -1.8933   -2.1993   -2.3980 H   0  0  0  0  0  0  0  0  0  0  0  0
   -2.1247    0.6557   -0.2728 H   0  0  0  0  0  0  0  0  0  0  0  0
   -1.8129    1.7171    0.4351 C   0  0  0  0  0  3  0  0  0  0  0  0
   -1.1087    1.2610    1.6821 C   0  0  0  0  0  0  0  0  0  0  0  0
    0.1230    0.4176    1.4206 C   0  0  0  0  0  0  0  0  0  0  0  0
    1.0301    1.1929    0.6249 O   0  0  0  0  0  0  0  0  0  0  0  0
    1.9907    0.5277   -0.0067 C   0  0  0  0  0  0  0  0  0  0  0  0
    2.2102   -0.6451    0.0738 O   0  0  0  0  0  0  0  0  0  0  0  0
   -2.7783    2.1923    0.5957 H   0  0  0  0  0  0  0  0  0  0  0  0
   -1.1895    2.2466   -0.2821 H   0  0  0  0  0  0  0  0  0  0  0  0
   -1.7862    0.6765    2.3091 H   0  0  0  0  0  0  0  0  0  0  0  0
   -0.8246    2.1432    2.2695 H   0  0  0  0  0  0  0  0  0  0  0  0
   -0.1249   -0.4953    0.8814 H   0  0  0  0  0  0  0  0  0  0  0  0
    0.6197    0.1458    2.3539 H   0  0  0  0  0  0  0  0  0  0  0  0
    2.5709    1.2294   -0.6212 H   0  0  0  0  0  0  0  0  0  0  0  0
  1  2  1  0
  1  5  1  0
  1  6  1  0
  1  7  1  0
  2  3  2  3
  2  8  1  0
  3  4  1  0
  4  9  1  0
 10 11  1  0
 10 16  1  0
 10 17  1  0
 11 12  1  0
 11 18  1  0
 11 19  1  0
 12 13  1  0
 12 20  1  0
 12 21  1  0
 13 14  1  0
 14 15  2  0
 14 22  1  0
M  RAD  1  10   2
M  END
>  <reaction>  (4) 
rmg_rxn_1446

>  <mol_properties>  (4) 
{"2": {"label": "*0", "atom_type": "N3d"}, "3": {"label": "*1", "atom_type": "O2s"}, "8": {"label": "*2", "atom_type": "H0"}, "9": {"label": "*3", "atom_type": "Cs"}, "10": {"label": "*4", "atom_type": "Cs"}}

>  <type>  (4) 
ts

$$$$
