
     RDKit          3D

  9  8  0  0  0  0  0  0  0  0999 V2000
    1.8437   -0.0883   -0.0000 C   0  0  0  0  0  0  0  0  0  0  0  0
    0.4169    0.3594   -0.0000 C   0  0  0  0  0  0  0  0  0  0  0  0
   -0.5487   -0.5001    0.0000 N   0  0  0  0  0  0  0  0  0  0  0  0
   -1.7663    0.1898   -0.0000 O   0  0  0  0  0  0  0  0  0  0  0  0
    2.3411    0.3161   -0.8852 H   0  0  0  0  0  0  0  0  0  0  0  0
    2.3384    0.3075    0.8906 H   0  0  0  0  0  0  0  0  0  0  0  0
    1.9129   -1.1787   -0.0052 H   0  0  0  0  0  0  0  0  0  0  0  0
    0.2322    1.4481   -0.0000 H   0  0  0  0  0  0  0  0  0  0  0  0
   -2.4173   -0.5369    0.0000 H   0  0  0  0  0  0  0  0  0  0  0  0
  1  2  1  0
  1  5  1  0
  1  6  1  0
  1  7  1  0
  2  3  2  3
  2  8  1  0
  3  4  1  0
  4  9  1  0
M  END
>  <reaction>  (1) 
rmg_rxn_1137

>  <mol_properties>  (1) 
{"3": {"label": "donator", "atom_type": "O2s"}, "8": {"label": "d_hydrogen", "atom_type": "H0"}}

>  <type>  (1) 
r1h

$$$$

     RDKit          3D

  1  0  0  0  0  0  0  0  0  0999 V2000
    0.0000    0.0000    0.0000 O   0  0  0  0  0 15  0  0  0  0  0  0
M  END
>  <reaction>  (2) 
rmg_rxn_1137

>  <mol_properties>  (2) 
{"0": {"label": "acceptor", "atom_type": "O2s"}}

>  <type>  (2) 
r2

$$$$

     RDKit          3D

  2  1  0  0  0  0  0  0  0  0999 V2000
    0.0000    0.0000    0.1079 O   0  0  0  0  0  1  0  0  0  0  0  0
    0.0000    0.0000   -0.8631 H   0  0  0  0  0  0  0  0  0  0  0  0
  1  2  1  0
M  RAD  1   1   2
M  END
>  <reaction>  (3) 
rmg_rxn_1137

>  <mol_properties>  (3) 
{"0": {"label": "acceptor", "atom_type": "O2s"}, "1": {"label": "a_hydrogen", "atom_type": "H0"}}

>  <type>  (3) 
r2h

$$$$

     RDKit          3D

 10  8  0  0  0  0  0  0  0  0999 V2000
   -2.8838   -0.5206    0.0000 O   0  0  0  0  0  1  0  0  0  0  0  0
    2.4868   -0.4204   -0.0000 C   0  0  0  0  0  0  0  0  0  0  0  0
    1.2206    0.3752   -0.0000 C   0  0  0  0  0  0  0  0  0  0  0  0
    0.0683   -0.2107   -0.0000 N   0  0  0  0  0  0  0  0  0  0  0  0
   -0.9340    0.7659   -0.0000 O   0  0  0  0  0  1  0  0  0  0  0  0
    3.0706   -0.1556   -0.8852 H   0  0  0  0  0  0  0  0  0  0  0  0
    3.0658   -0.1633    0.8906 H   0  0  0  0  0  0  0  0  0  0  0  0
    2.2766   -1.4926   -0.0052 H   0  0  0  0  0  0  0  0  0  0  0  0
    1.3186    1.4751   -0.0000 H   0  0  0  0  0  0  0  0  0  0  0  0
   -1.9112    0.1211    0.0000 H   0  0  0  0  0  0  0  0  0  0  0  0
  1 10  1  0
  2  3  1  0
  2  6  1  0
  2  7  1  0
  2  8  1  0
  3  4  2  3
  3  9  1  0
  4  5  1  0
M  RAD  2   1   2   5   2
M  END
>  <reaction>  (4) 
rmg_rxn_1137

>  <mol_properties>  (4) 
{"0": {"label": "*1", "atom_type": "O2s"}, "3": {"label": "*4", "atom_type": "N3d"}, "4": {"label": "*3", "atom_type": "O2s"}, "9": {"label": "*2", "atom_type": "H0"}}

>  <type>  (4) 
ts

$$$$
