
     RDKit          3D

  8  7  0  0  0  0  0  0  0  0999 V2000
    0.9548    0.1194   -0.0790 C   0  0  0  0  0  0  0  0  0  0  0  0
   -0.4838   -0.2649    0.0193 C   0  0  0  0  0  0  0  0  0  0  0  0
   -0.8933   -1.1081    0.8664 N   0  0  0  0  0  0  0  0  0  0  0  0
    1.3360   -0.0983   -1.0800 H   0  0  0  0  0  0  0  0  0  0  0  0
    1.0698    1.1948    0.0786 H   0  0  0  0  0  0  0  0  0  0  0  0
    1.5426   -0.4219    0.6602 H   0  0  0  0  0  0  0  0  0  0  0  0
   -1.1575    0.2324   -0.6905 H   0  0  0  0  0  0  0  0  0  0  0  0
   -1.8989   -1.2455    0.7886 H   0  0  0  0  0  0  0  0  0  0  0  0
  1  2  1  0
  1  4  1  0
  1  5  1  0
  1  6  1  0
  2  3  2  3
  2  7  1  0
  3  8  1  0
M  END
>  <reaction>  (1) 
rmg_rxn_16533

>  <mol_properties>  (1) 
{"2": {"label": "donator", "atom_type": "N3d"}, "7": {"label": "d_hydrogen", "atom_type": "H0"}}

>  <type>  (1) 
r1h

$$$$

     RDKit          3D

 14 13  0  0  0  0  0  0  0  0999 V2000
   -1.9167    0.6959   -0.2757 C   0  0  0  0  0  3  0  0  0  0  0  0
   -1.2132   -0.5025    0.2432 C   0  0  0  0  0  0  0  0  0  0  0  0
   -2.1451   -1.6324    0.6428 C   0  0  0  0  0  0  0  0  0  0  0  0
   -2.9617   -1.2014    1.7018 O   0  0  0  0  0  0  0  0  0  0  0  0
   -3.8940   -2.1678    2.0979 C   0  0  0  0  0  0  0  0  0  0  0  0
   -2.9039    0.9452    0.0878 H   0  0  0  0  0  0  0  0  0  0  0  0
   -1.3969    1.4143   -0.8945 H   0  0  0  0  0  0  0  0  0  0  0  0
   -0.5037   -0.8823   -0.4987 H   0  0  0  0  0  0  0  0  0  0  0  0
   -0.6099   -0.2396    1.1256 H   0  0  0  0  0  0  0  0  0  0  0  0
   -2.7665   -1.9311   -0.2146 H   0  0  0  0  0  0  0  0  0  0  0  0
   -1.5607   -2.5114    0.9518 H   0  0  0  0  0  0  0  0  0  0  0  0
   -3.4000   -3.0856    2.4446 H   0  0  0  0  0  0  0  0  0  0  0  0
   -4.4753   -1.7487    2.9180 H   0  0  0  0  0  0  0  0  0  0  0  0
   -4.5741   -2.4312    1.2767 H   0  0  0  0  0  0  0  0  0  0  0  0
  1  2  1  0
  1  6  1  0
  1  7  1  0
  2  3  1  0
  2  8  1  0
  2  9  1  0
  3  4  1  0
  3 10  1  0
  3 11  1  0
  4  5  1  0
  5 12  1  0
  5 13  1  0
  5 14  1  0
M  RAD  1   1   2
M  END
>  <reaction>  (2) 
rmg_rxn_16533

>  <mol_properties>  (2) 
{"0": {"label": "acceptor", "atom_type": "Cs"}}

>  <type>  (2) 
r2

$$$$

     RDKit          3D

 15 14  0  0  0  0  0  0  0  0999 V2000
   -1.2811   -0.4129    1.0228 C   0  0  0  0  0  0  0  0  0  0  0  0
   -1.0023   -0.5809   -0.4650 C   0  0  0  0  0  0  0  0  0  0  0  0
   -2.0576    0.0568   -1.3449 C   0  0  0  0  0  0  0  0  0  0  0  0
   -2.0663    1.4464   -1.1307 O   0  0  0  0  0  0  0  0  0  0  0  0
   -3.0424    2.1072   -1.8849 C   0  0  0  0  0  0  0  0  0  0  0  0
   -2.2382   -0.8657    1.2935 H   0  0  0  0  0  0  0  0  0  0  0  0
   -1.3219    0.6426    1.2914 H   0  0  0  0  0  0  0  0  0  0  0  0
   -0.5042   -0.8881    1.6236 H   0  0  0  0  0  0  0  0  0  0  0  0
   -0.0316   -0.1460   -0.7167 H   0  0  0  0  0  0  0  0  0  0  0  0
   -0.9494   -1.6429   -0.7203 H   0  0  0  0  0  0  0  0  0  0  0  0
   -1.8518   -0.1570   -2.4041 H   0  0  0  0  0  0  0  0  0  0  0  0
   -3.0491   -0.3636   -1.1124 H   0  0  0  0  0  0  0  0  0  0  0  0
   -4.0521    1.7545   -1.6343 H   0  0  0  0  0  0  0  0  0  0  0  0
   -2.8850    1.9634   -2.9626 H   0  0  0  0  0  0  0  0  0  0  0  0
   -2.9730    3.1700   -1.6570 H   0  0  0  0  0  0  0  0  0  0  0  0
  1  2  1  0
  1  6  1  0
  1  7  1  0
  1  8  1  0
  2  3  1  0
  2  9  1  0
  2 10  1  0
  3  4  1  0
  3 11  1  0
  3 12  1  0
  4  5  1  0
  5 13  1  0
  5 14  1  0
  5 15  1  0
M  END
>  <reaction>  (3) 
rmg_rxn_16533

>  <mol_properties>  (3) 
{"0": {"label": "a_hydrogen", "atom_type": "H0"}, "1": {"label": "acceptor", "atom_type": "Cs"}}

>  <type>  (3) 
r2h

$$$$

     RDKit          3D

 22 20  0  0  0  0  0  0  0  0999 V2000
   -3.2565    0.2611    0.1355 C   0  0  0  0  0  0  0  0  0  0  0  0
   -1.8978   -0.3611    0.2363 C   0  0  0  0  0  0  0  0  0  0  0  0
   -1.3811   -0.9960   -0.7175 N   0  0  0  0  0  0  0  0  0  0  0  0
   -3.6957    0.0748   -0.8429 H   0  0  0  0  0  0  0  0  0  0  0  0
   -3.9110   -0.1424    0.9118 H   0  0  0  0  0  0  0  0  0  0  0  0
   -3.1826    1.3383    0.3041 H   0  0  0  0  0  0  0  0  0  0  0  0
   -1.3666   -0.2141    1.1836 H   0  0  0  0  0  0  0  0  0  0  0  0
   -0.2852   -1.3795   -0.3632 H   0  0  0  0  0  0  0  0  0  0  0  0
    0.9307   -1.7996    0.1467 C   0  0  0  0  0  3  0  0  0  0  0  0
    2.0023   -0.8457   -0.3040 C   0  0  0  0  0  0  0  0  0  0  0  0
    2.0881    0.4286    0.5278 C   0  0  0  0  0  0  0  0  0  0  0  0
    0.9047    1.1897    0.5678 O   0  0  0  0  0  0  0  0  0  0  0  0
    0.5927    1.8281   -0.6436 C   0  0  0  0  0  0  0  0  0  0  0  0
    0.9754   -2.7890   -0.3033 H   0  0  0  0  0  0  0  0  0  0  0  0
    0.7611   -1.8384    1.2222 H   0  0  0  0  0  0  0  0  0  0  0  0
    2.9843   -1.3323   -0.2388 H   0  0  0  0  0  0  0  0  0  0  0  0
    1.8695   -0.6038   -1.3632 H   0  0  0  0  0  0  0  0  0  0  0  0
    2.3012    0.1681    1.5673 H   0  0  0  0  0  0  0  0  0  0  0  0
    2.9178    1.0503    0.1617 H   0  0  0  0  0  0  0  0  0  0  0  0
    1.4384    2.4296   -1.0024 H   0  0  0  0  0  0  0  0  0  0  0  0
    0.3020    1.1180   -1.4248 H   0  0  0  0  0  0  0  0  0  0  0  0
   -0.2517    2.4890   -0.4505 H   0  0  0  0  0  0  0  0  0  0  0  0
  1  2  1  0
  1  4  1  0
  1  5  1  0
  1  6  1  0
  2  3  2  3
  2  7  1  0
  3  8  1  0
  9 10  1  0
  9 14  1  0
  9 15  1  0
 10 11  1  0
 10 16  1  0
 10 17  1  0
 11 12  1  0
 11 18  1  0
 11 19  1  0
 12 13  1  0
 13 20  1  0
 13 21  1  0
 13 22  1  0
M  RAD  1   9   2
M  END
>  <reaction>  (4) 
rmg_rxn_16533

>  <mol_properties>  (4) 
{"1": {"label": "*0", "atom_type": "Cd"}, "2": {"label": "*1", "atom_type": "N3d"}, "7": {"label": "*2", "atom_type": "H0"}, "8": {"label": "*3", "atom_type": "Cs"}, "9": {"label": "*4", "atom_type": "Cs"}}

>  <type>  (4) 
ts

$$$$
