
     RDKit          3D

 12 11  0  0  0  0  0  0  0  0999 V2000
   -1.4643   -0.2505   -0.5284 C   0  0  0  0  0  0  0  0  0  0  0  0
   -0.3946    0.4302    0.3143 C   0  0  0  0  0  0  0  0  0  0  0  0
   -0.5959    0.2382    1.8102 C   0  0  0  0  0  0  0  0  0  0  0  0
   -0.5633   -1.1190    2.2092 O   0  0  0  0  0  0  0  0  0  0  0  0
   -2.4511    0.1644   -0.3109 H   0  0  0  0  0  0  0  0  0  0  0  0
   -1.5019   -1.3198   -0.3181 H   0  0  0  0  0  0  0  0  0  0  0  0
   -1.2720   -0.1182   -1.5941 H   0  0  0  0  0  0  0  0  0  0  0  0
    0.5965    0.0515    0.0385 H   0  0  0  0  0  0  0  0  0  0  0  0
   -0.3776    1.5047    0.1078 H   0  0  0  0  0  0  0  0  0  0  0  0
   -1.5821    0.6048    2.1034 H   0  0  0  0  0  0  0  0  0  0  0  0
    0.1495    0.8220    2.3649 H   0  0  0  0  0  0  0  0  0  0  0  0
    0.3017   -1.4750    1.9997 H   0  0  0  0  0  0  0  0  0  0  0  0
  1  2  1  0
  1  5  1  0
  1  6  1  0
  1  7  1  0
  2  3  1  0
  2  8  1  0
  2  9  1  0
  3  4  1  0
  3 10  1  0
  3 11  1  0
  4 12  1  0
M  END
>  <reaction>  (1) 
rmg_rxn_293

>  <mol_properties>  (1) 
{"3": {"label": "donator", "atom_type": "O2s"}, "11": {"label": "d_hydrogen", "atom_type": "H0"}}

>  <type>  (1) 
r1h

$$$$

     RDKit          3D

  9  8  0  0  0  0  0  0  0  0999 V2000
    1.3246   -0.8124   -0.0809 C   0  0  0  0  0  2  0  0  0  0  0  0
    0.4082    0.3080    0.1518 C   0  0  0  0  0  0  0  0  0  0  0  0
   -1.0545   -0.0277   -0.1520 C   0  0  0  0  0  0  0  0  0  0  0  0
    2.3933   -0.9471    0.0203 H   0  0  0  0  0  0  0  0  0  0  0  0
    0.4898    0.6406    1.1970 H   0  0  0  0  0  0  0  0  0  0  0  0
    0.7134    1.1680   -0.4624 H   0  0  0  0  0  0  0  0  0  0  0  0
   -1.4014   -0.8515    0.4727 H   0  0  0  0  0  0  0  0  0  0  0  0
   -1.1767   -0.3214   -1.1952 H   0  0  0  0  0  0  0  0  0  0  0  0
   -1.6915    0.8372    0.0370 H   0  0  0  0  0  0  0  0  0  0  0  0
  1  2  1  0
  1  4  1  0
  2  3  1  0
  2  5  1  0
  2  6  1  0
  3  7  1  0
  3  8  1  0
  3  9  1  0
M  RAD  1   1   3
M  END
>  <reaction>  (2) 
rmg_rxn_293

>  <mol_properties>  (2) 
{"0": {"label": "acceptor", "atom_type": "Cs"}}

>  <type>  (2) 
r2

$$$$

     RDKit          3D

 10  9  0  0  0  0  0  0  0  0999 V2000
    1.4352    0.2660   -0.1351 C   0  0  0  0  0  3  0  0  0  0  0  0
    0.2236   -0.3243    0.4850 C   0  0  0  0  0  0  0  0  0  0  0  0
   -0.8893    0.6872    0.7364 C   0  0  0  0  0  0  0  0  0  0  0  0
    2.3577   -0.2958   -0.1940 H   0  0  0  0  0  0  0  0  0  0  0  0
    1.3935    1.2286   -0.6287 H   0  0  0  0  0  0  0  0  0  0  0  0
   -0.1633   -1.1318   -0.1556 H   0  0  0  0  0  0  0  0  0  0  0  0
    0.4945   -0.8215    1.4240 H   0  0  0  0  0  0  0  0  0  0  0  0
   -1.1991    1.1627   -0.1967 H   0  0  0  0  0  0  0  0  0  0  0  0
   -1.7660    0.2103    1.1768 H   0  0  0  0  0  0  0  0  0  0  0  0
   -0.5545    1.4732    1.4159 H   0  0  0  0  0  0  0  0  0  0  0  0
  1  2  1  0
  1  4  1  0
  1  5  1  0
  2  3  1  0
  2  6  1  0
  2  7  1  0
  3  8  1  0
  3  9  1  0
  3 10  1  0
M  RAD  1   1   2
M  END
>  <reaction>  (3) 
rmg_rxn_293

>  <mol_properties>  (3) 
{"0": {"label": "acceptor", "atom_type": "Cs"}, "9": {"label": "a_hydrogen", "atom_type": "H0"}}

>  <type>  (3) 
r2h

$$$$

     RDKit          3D

 21 19  0  0  0  0  0  0  0  0999 V2000
   -1.1396   -0.0847    1.6327 C   0  0  0  0  0  2  0  0  0  0  0  0
   -2.3435    0.3002    0.8726 C   0  0  0  0  0  0  0  0  0  0  0  0
   -2.0681    0.6378   -0.5919 C   0  0  0  0  0  0  0  0  0  0  0  0
   -1.1064   -0.6062    2.5818 H   0  0  0  0  0  0  0  0  0  0  0  0
   -3.0764   -0.5141    0.9357 H   0  0  0  0  0  0  0  0  0  0  0  0
   -2.8206    1.1660    1.3554 H   0  0  0  0  0  0  0  0  0  0  0  0
   -1.6536   -0.2228   -1.1188 H   0  0  0  0  0  0  0  0  0  0  0  0
   -1.3471    1.4523   -0.6686 H   0  0  0  0  0  0  0  0  0  0  0  0
   -2.9859    0.9396   -1.0975 H   0  0  0  0  0  0  0  0  0  0  0  0
    1.4050   -0.3143   -1.8445 C   0  0  0  0  0  0  0  0  0  0  0  0
    1.3822   -1.1180   -0.5528 C   0  0  0  0  0  0  0  0  0  0  0  0
    1.8276   -0.3148    0.6614 C   0  0  0  0  0  0  0  0  0  0  0  0
    1.0521    0.8215    0.9128 O   0  0  0  0  0  0  0  0  0  0  0  0
    2.4204    0.0099   -2.0847 H   0  0  0  0  0  0  0  0  0  0  0  0
    0.7840    0.5773   -1.7546 H   0  0  0  0  0  0  0  0  0  0  0  0
    1.0346   -0.9043   -2.6843 H   0  0  0  0  0  0  0  0  0  0  0  0
    0.3716   -1.4929   -0.3595 H   0  0  0  0  0  0  0  0  0  0  0  0
    2.0298   -1.9957   -0.6403 H   0  0  0  0  0  0  0  0  0  0  0  0
    2.8405    0.0775    0.4968 H   0  0  0  0  0  0  0  0  0  0  0  0
    1.8796   -0.9602    1.5477 H   0  0  0  0  0  0  0  0  0  0  0  0
   -0.0310    0.4511    1.2962 H   0  0  0  0  0  0  0  0  0  0  0  0
  1  2  1  0
  1  4  1  0
  2  3  1  0
  2  5  1  0
  2  6  1  0
  3  7  1  0
  3  8  1  0
  3  9  1  0
 10 11  1  0
 10 14  1  0
 10 15  1  0
 10 16  1  0
 11 12  1  0
 11 17  1  0
 11 18  1  0
 12 13  1  0
 12 19  1  0
 12 20  1  0
 13 21  1  0
M  RAD  1   1   3
M  END
>  <reaction>  (4) 
rmg_rxn_293

>  <mol_properties>  (4) 
{"0": {"label": "*3", "atom_type": "Cs"}, "1": {"label": "*4", "atom_type": "Cs"}, "11": {"label": "*0", "atom_type": "Cs"}, "12": {"label": "*1", "atom_type": "O2s"}, "20": {"label": "*2", "atom_type": "H0"}}

>  <type>  (4) 
ts

$$$$
