
     RDKit          3D

 18 17  0  0  0  0  0  0  0  0999 V2000
    2.2026   -0.7213   -0.2612 C   0  0  0  0  0  0  0  0  0  0  0  0
    1.5384    0.2638    0.6915 C   0  0  0  0  0  0  0  0  0  0  0  0
    2.2584    1.5946    0.7694 C   0  0  0  0  0  0  0  0  0  0  0  0
    2.2212    2.2185   -0.4893 O   0  0  0  0  0  0  0  0  0  0  0  0
    2.8988    3.4488   -0.5204 C   0  0  0  0  0  0  0  0  0  0  0  0
    2.7981    4.0296   -1.9118 C   0  0  0  0  0  0  0  0  0  0  0  0
    3.2294   -0.9309    0.0486 H   0  0  0  0  0  0  0  0  0  0  0  0
    2.2338   -0.3181   -1.2734 H   0  0  0  0  0  0  0  0  0  0  0  0
    1.6610   -1.6680   -0.2875 H   0  0  0  0  0  0  0  0  0  0  0  0
    1.4990   -0.1566    1.7002 H   0  0  0  0  0  0  0  0  0  0  0  0
    0.5055    0.4455    0.3835 H   0  0  0  0  0  0  0  0  0  0  0  0
    3.3038    1.4410    1.0808 H   0  0  0  0  0  0  0  0  0  0  0  0
    1.7844    2.2410    1.5226 H   0  0  0  0  0  0  0  0  0  0  0  0
    2.4596    4.1376    0.2164 H   0  0  0  0  0  0  0  0  0  0  0  0
    3.9524    3.3035   -0.2397 H   0  0  0  0  0  0  0  0  0  0  0  0
    1.7543    4.1869   -2.1856 H   0  0  0  0  0  0  0  0  0  0  0  0
    3.2472    3.3545   -2.6411 H   0  0  0  0  0  0  0  0  0  0  0  0
    3.3178    4.9878   -1.9600 H   0  0  0  0  0  0  0  0  0  0  0  0
  1  2  1  0
  1  7  1  0
  1  8  1  0
  1  9  1  0
  2  3  1  0
  2 10  1  0
  2 11  1  0
  3  4  1  0
  3 12  1  0
  3 13  1  0
  4  5  1  0
  5  6  1  0
  5 14  1  0
  5 15  1  0
  6 16  1  0
  6 17  1  0
  6 18  1  0
M  END
>  <reaction>  (1) 
rmg_rxn_348

>  <mol_properties>  (1) 
{"0": {"label": "donator", "atom_type": "Cs"}, "6": {"label": "d_hydrogen", "atom_type": "H0"}}

>  <type>  (1) 
r1h

$$$$

     RDKit          3D

  8  7  0  0  0  0  0  0  0  0999 V2000
    1.3778   -0.6812    0.2772 C   0  0  0  0  0  3  0  0  0  0  0  0
    0.4890    0.2108   -0.0590 C   0  0  0  0  0  0  0  0  0  0  0  0
   -1.0010    0.0286   -0.0323 C   0  0  0  0  0  0  0  0  0  0  0  0
    2.4535   -0.7507    0.3287 H   0  0  0  0  0  0  0  0  0  0  0  0
    0.8447    1.1899   -0.3945 H   0  0  0  0  0  0  0  0  0  0  0  0
   -1.4635    0.7638    0.6301 H   0  0  0  0  0  0  0  0  0  0  0  0
   -1.2709   -0.9687    0.3117 H   0  0  0  0  0  0  0  0  0  0  0  0
   -1.4218    0.1801   -1.0289 H   0  0  0  0  0  0  0  0  0  0  0  0
  1  2  2  3
  1  4  1  0
  2  3  1  0
  2  5  1  0
  3  6  1  0
  3  7  1  0
  3  8  1  0
M  RAD  1   1   2
M  END
>  <reaction>  (2) 
rmg_rxn_348

>  <mol_properties>  (2) 
{"0": {"label": "acceptor", "atom_type": "Cd"}}

>  <type>  (2) 
r2

$$$$

     RDKit          3D

  9  8  0  0  0  0  0  0  0  0999 V2000
    1.1303   -0.2933   -0.7510 C   0  0  0  0  0  0  0  0  0  0  0  0
    0.2866    0.4560   -0.0588 C   0  0  0  0  0  0  0  0  0  0  0  0
   -0.9719   -0.0331    0.5823 C   0  0  0  0  0  0  0  0  0  0  0  0
    2.0274    0.1230   -1.1916 H   0  0  0  0  0  0  0  0  0  0  0  0
    0.9532   -1.3530   -0.9023 H   0  0  0  0  0  0  0  0  0  0  0  0
    0.5065    1.5132    0.0659 H   0  0  0  0  0  0  0  0  0  0  0  0
   -0.9526    0.1426    1.6610 H   0  0  0  0  0  0  0  0  0  0  0  0
   -1.1182   -1.1002    0.4106 H   0  0  0  0  0  0  0  0  0  0  0  0
   -1.8412    0.5010    0.1901 H   0  0  0  0  0  0  0  0  0  0  0  0
  1  2  2  3
  1  4  1  0
  1  5  1  0
  2  3  1  0
  2  6  1  0
  3  7  1  0
  3  8  1  0
  3  9  1  0
M  END
>  <reaction>  (3) 
rmg_rxn_348

>  <mol_properties>  (3) 
{"0": {"label": "acceptor", "atom_type": "Cd"}, "8": {"label": "a_hydrogen", "atom_type": "H0"}}

>  <type>  (3) 
r2h

$$$$

     RDKit          3D

 26 24  0  0  0  0  0  0  0  0999 V2000
   -1.6681    1.1551    1.2918 C   0  0  0  0  0  3  0  0  0  0  0  0
   -2.0621    0.3427    0.3352 C   0  0  0  0  0  0  0  0  0  0  0  0
   -3.3584   -0.4121    0.3013 C   0  0  0  0  0  0  0  0  0  0  0  0
   -2.1967    1.4209    2.2015 H   0  0  0  0  0  0  0  0  0  0  0  0
   -1.3946    0.1921   -0.5131 H   0  0  0  0  0  0  0  0  0  0  0  0
   -3.9389   -0.1405   -0.5840 H   0  0  0  0  0  0  0  0  0  0  0  0
   -3.9632   -0.2103    1.1857 H   0  0  0  0  0  0  0  0  0  0  0  0
   -3.1754   -1.4885    0.2461 H   0  0  0  0  0  0  0  0  0  0  0  0
    0.7156    2.1905    0.6738 C   0  0  0  0  0  0  0  0  0  0  0  0
    1.7970    1.2297    1.1080 C   0  0  0  0  0  0  0  0  0  0  0  0
    1.4998   -0.2156    0.7558 C   0  0  0  0  0  0  0  0  0  0  0  0
    1.2619   -0.3234   -0.6266 O   0  0  0  0  0  0  0  0  0  0  0  0
    0.8925   -1.6205   -1.0211 C   0  0  0  0  0  0  0  0  0  0  0  0
    0.5819   -1.6128   -2.4998 C   0  0  0  0  0  0  0  0  0  0  0  0
   -0.4233    1.7495    1.0735 H   0  0  0  0  0  0  0  0  0  0  0  0
    0.5863    2.2416   -0.4052 H   0  0  0  0  0  0  0  0  0  0  0  0
    0.8001    3.1840    1.1111 H   0  0  0  0  0  0  0  0  0  0  0  0
    1.9426    1.2840    2.1902 H   0  0  0  0  0  0  0  0  0  0  0  0
    2.7491    1.5180    0.6482 H   0  0  0  0  0  0  0  0  0  0  0  0
    0.6148   -0.5583    1.3096 H   0  0  0  0  0  0  0  0  0  0  0  0
    2.3449   -0.8572    1.0442 H   0  0  0  0  0  0  0  0  0  0  0  0
    1.7060   -2.3270   -0.8005 H   0  0  0  0  0  0  0  0  0  0  0  0
    0.0141   -1.9482   -0.4452 H   0  0  0  0  0  0  0  0  0  0  0  0
    1.4517   -1.2885   -3.0719 H   0  0  0  0  0  0  0  0  0  0  0  0
   -0.2427   -0.9312   -2.7140 H   0  0  0  0  0  0  0  0  0  0  0  0
    0.2999   -2.6128   -2.8328 H   0  0  0  0  0  0  0  0  0  0  0  0
  1  2  2  3
  1  4  1  0
  2  3  1  0
  2  5  1  0
  3  6  1  0
  3  7  1  0
  3  8  1  0
  9 10  1  0
  9 15  1  0
  9 16  1  0
  9 17  1  0
 10 11  1  0
 10 18  1  0
 10 19  1  0
 11 12  1  0
 11 20  1  0
 11 21  1  0
 12 13  1  0
 13 14  1  0
 13 22  1  0
 13 23  1  0
 14 24  1  0
 14 25  1  0
 14 26  1  0
M  RAD  1   1   2
M  END
>  <reaction>  (4) 
rmg_rxn_348

>  <mol_properties>  (4) 
{"0": {"label": "*3", "atom_type": "Cd"}, "1": {"label": "*4", "atom_type": "Cd"}, "8": {"label": "*1", "atom_type": "Cs"}, "9": {"label": "*0", "atom_type": "Cs"}, "14": {"label": "*2", "atom_type": "H0"}}

>  <type>  (4) 
ts

$$$$
