
     RDKit          3D

  9  8  0  0  0  0  0  0  0  0999 V2000
    1.1890   -0.2426   -0.0202 C   0  0  0  0  0  0  0  0  0  0  0  0
   -0.0825    0.5777    0.0465 C   0  0  0  0  0  0  0  0  0  0  0  0
   -1.2134   -0.2664   -0.1128 O   0  0  0  0  0  0  0  0  0  0  0  0
    1.2515   -0.7796   -0.9723 H   0  0  0  0  0  0  0  0  0  0  0  0
    2.0707    0.3958    0.0844 H   0  0  0  0  0  0  0  0  0  0  0  0
    1.2046   -0.9975    0.7728 H   0  0  0  0  0  0  0  0  0  0  0  0
   -0.0988    1.3243   -0.7528 H   0  0  0  0  0  0  0  0  0  0  0  0
   -0.1645    1.0974    1.0059 H   0  0  0  0  0  0  0  0  0  0  0  0
   -1.1953   -0.9198    0.6071 H   0  0  0  0  0  0  0  0  0  0  0  0
  1  2  1  0
  1  4  1  0
  1  5  1  0
  1  6  1  0
  2  3  1  0
  2  7  1  0
  2  8  1  0
  3  9  1  0
M  END
>  <reaction>  (1) 
rmg_rxn_1153

>  <mol_properties>  (1) 
{"2": {"label": "donator", "atom_type": "O2s"}, "8": {"label": "d_hydrogen", "atom_type": "H0"}}

>  <type>  (1) 
r1h

$$$$

     RDKit          3D

  1  0  0  0  0  0  0  0  0  0999 V2000
    0.0000    0.0000    0.0000 O   0  0  0  0  0 15  0  0  0  0  0  0
M  END
>  <reaction>  (2) 
rmg_rxn_1153

>  <mol_properties>  (2) 
{"0": {"label": "acceptor", "atom_type": "O2s"}}

>  <type>  (2) 
r2

$$$$

     RDKit          3D

  2  1  0  0  0  0  0  0  0  0999 V2000
    0.0000    0.0000    0.1079 O   0  0  0  0  0  1  0  0  0  0  0  0
    0.0000    0.0000   -0.8631 H   0  0  0  0  0  0  0  0  0  0  0  0
  1  2  1  0
M  RAD  1   1   2
M  END
>  <reaction>  (3) 
rmg_rxn_1153

>  <mol_properties>  (3) 
{"0": {"label": "acceptor", "atom_type": "O2s"}, "1": {"label": "a_hydrogen", "atom_type": "H0"}}

>  <type>  (3) 
r2h

$$$$

     RDKit          3D

 10  8  0  0  0  0  0  0  0  0999 V2000
    1.9971    0.5154    0.1183 O   0  0  0  0  0  1  0  0  0  0  0  0
   -1.2549    0.8660   -0.1395 C   0  0  0  0  0  0  0  0  0  0  0  0
   -0.8881   -0.5240    0.3374 C   0  0  0  0  0  0  0  0  0  0  0  0
    0.2700   -0.9814   -0.3457 O   0  0  0  0  0  1  0  0  0  0  0  0
   -1.4300    0.8688   -1.2203 H   0  0  0  0  0  0  0  0  0  0  0  0
   -2.1554    1.2264    0.3656 H   0  0  0  0  0  0  0  0  0  0  0  0
   -0.4379    1.5692    0.0526 H   0  0  0  0  0  0  0  0  0  0  0  0
   -1.7027   -1.2255    0.1353 H   0  0  0  0  0  0  0  0  0  0  0  0
   -0.6866   -0.5297    1.4128 H   0  0  0  0  0  0  0  0  0  0  0  0
    1.1342   -0.2325   -0.1136 H   0  0  0  0  0  0  0  0  0  0  0  0
  1 10  1  0
  2  3  1  0
  2  5  1  0
  2  6  1  0
  2  7  1  0
  3  4  1  0
  3  8  1  0
  3  9  1  0
M  RAD  2   1   2   4   2
M  END
>  <reaction>  (4) 
rmg_rxn_1153

>  <mol_properties>  (4) 
{"0": {"label": "*1", "atom_type": "O2s"}, "2": {"label": "*4", "atom_type": "Cs"}, "3": {"label": "*3", "atom_type": "O2s"}, "9": {"label": "*2", "atom_type": "H0"}}

>  <type>  (4) 
ts

$$$$
