
     RDKit          3D

 10  9  0  0  0  0  0  0  0  0999 V2000
    2.0403   -0.0577    0.0121 C   0  0  0  0  0  0  0  0  0  0  0  0
    0.5945   -0.0168    0.1898 C   0  0  0  0  0  0  0  0  0  0  0  0
   -0.5945    0.0168    0.3360 C   0  0  0  0  0  0  0  0  0  0  0  0
   -2.0403    0.0577    0.5137 C   0  0  0  0  0  0  0  0  0  0  0  0
    2.4764    0.9347    0.1388 H   0  0  0  0  0  0  0  0  0  0  0  0
    2.3000   -0.4153   -0.9858 H   0  0  0  0  0  0  0  0  0  0  0  0
    2.5035   -0.7252    0.7407 H   0  0  0  0  0  0  0  0  0  0  0  0
   -2.3768    1.0719    0.7353 H   0  0  0  0  0  0  0  0  0  0  0  0
   -2.3498   -0.5879    1.3374 H   0  0  0  0  0  0  0  0  0  0  0  0
   -2.5532   -0.2782   -0.3891 H   0  0  0  0  0  0  0  0  0  0  0  0
  1  2  1  0
  1  5  1  0
  1  6  1  0
  1  7  1  0
  2  3  3  0
  3  4  1  0
  4  8  1  0
  4  9  1  0
  4 10  1  0
M  END
>  <reaction>  (1) 
rmg_rxn_251

>  <mol_properties>  (1) 
{"3": {"label": "donator", "atom_type": "Cs"}, "9": {"label": "d_hydrogen", "atom_type": "H0"}}

>  <type>  (1) 
r1h

$$$$

     RDKit          3D

 13 13  0  0  0  0  0  0  0  0999 V2000
   -0.9087    1.0135    0.2744 C   0  0  0  0  0  3  0  0  0  0  0  0
   -1.1528   -0.4306   -0.0132 C   0  0  0  0  0  0  0  0  0  0  0  0
    0.1597   -1.1985    0.0580 C   0  0  0  0  0  0  0  0  0  0  0  0
    1.1497   -0.5125   -0.6902 O   0  0  0  0  0  0  0  0  0  0  0  0
    1.3593    0.7608   -0.1866 C   0  0  0  0  0  0  0  0  0  0  0  0
    0.2092    1.5798   -0.2538 O   0  0  0  0  0  0  0  0  0  0  0  0
   -1.7260    1.7182    0.3534 H   0  0  0  0  0  0  0  0  0  0  0  0
   -1.8796   -0.8393    0.6913 H   0  0  0  0  0  0  0  0  0  0  0  0
   -1.5725   -0.5507   -1.0227 H   0  0  0  0  0  0  0  0  0  0  0  0
    0.4914   -1.2968    1.1007 H   0  0  0  0  0  0  0  0  0  0  0  0
    0.0732   -2.1931   -0.3758 H   0  0  0  0  0  0  0  0  0  0  0  0
    1.6805    0.7077    0.8652 H   0  0  0  0  0  0  0  0  0  0  0  0
    2.1167    1.2415   -0.8007 H   0  0  0  0  0  0  0  0  0  0  0  0
  1  2  1  0
  1  6  1  0
  1  7  1  0
  2  3  1  0
  2  8  1  0
  2  9  1  0
  3  4  1  0
  3 10  1  0
  3 11  1  0
  4  5  1  0
  5  6  1  0
  5 12  1  0
  5 13  1  0
M  RAD  1   1   2
M  END
>  <reaction>  (2) 
rmg_rxn_251

>  <mol_properties>  (2) 
{"0": {"label": "acceptor", "atom_type": "Cs"}}

>  <type>  (2) 
r2

$$$$

     RDKit          3D

 14 14  0  0  0  0  0  0  0  0999 V2000
   -1.1778    0.2241    0.1818 C   0  0  0  0  0  0  0  0  0  0  0  0
   -0.5633   -1.1636    0.0678 C   0  0  0  0  0  0  0  0  0  0  0  0
    0.6943   -1.1996    0.7146 O   0  0  0  0  0  0  0  0  0  0  0  0
    1.5547   -0.2288    0.2011 C   0  0  0  0  0  0  0  0  0  0  0  0
    1.0729    1.0696    0.3698 O   0  0  0  0  0  0  0  0  0  0  0  0
   -0.1607    1.2493   -0.2989 C   0  0  0  0  0  0  0  0  0  0  0  0
   -2.0927    0.2866   -0.4117 H   0  0  0  0  0  0  0  0  0  0  0  0
   -1.4303    0.4248    1.2248 H   0  0  0  0  0  0  0  0  0  0  0  0
   -1.1822   -1.9235    0.5431 H   0  0  0  0  0  0  0  0  0  0  0  0
   -0.4389   -1.4347   -0.9919 H   0  0  0  0  0  0  0  0  0  0  0  0
    1.7250   -0.4207   -0.8742 H   0  0  0  0  0  0  0  0  0  0  0  0
    2.4896   -0.3010    0.7524 H   0  0  0  0  0  0  0  0  0  0  0  0
   -0.0080    1.1481   -1.3844 H   0  0  0  0  0  0  0  0  0  0  0  0
   -0.4826    2.2695   -0.0942 H   0  0  0  0  0  0  0  0  0  0  0  0
  1  2  1  0
  1  6  1  0
  1  7  1  0
  1  8  1  0
  2  3  1  0
  2  9  1  0
  2 10  1  0
  3  4  1  0
  4  5  1  0
  4 11  1  0
  4 12  1  0
  5  6  1  0
  6 13  1  0
  6 14  1  0
M  END
>  <reaction>  (3) 
rmg_rxn_251

>  <mol_properties>  (3) 
{"0": {"label": "a_hydrogen", "atom_type": "H0"}, "1": {"label": "acceptor", "atom_type": "Cs"}}

>  <type>  (3) 
r2h

$$$$

     RDKit          3D

 23 22  0  0  0  0  0  0  0  0999 V2000
   -1.3836    2.2175   -3.5056 C   0  0  0  0  0  0  0  0  0  0  0  0
   -1.4983    1.0356   -2.6633 C   0  0  0  0  0  0  0  0  0  0  0  0
   -1.6101    0.0561   -1.9724 C   0  0  0  0  0  0  0  0  0  0  0  0
   -1.6739   -1.0845   -1.1180 C   0  0  0  0  0  0  0  0  0  0  0  0
   -0.5523    2.8483   -3.1835 H   0  0  0  0  0  0  0  0  0  0  0  0
   -2.2950    2.8166   -3.4627 H   0  0  0  0  0  0  0  0  0  0  0  0
   -1.2107    1.9392   -4.5467 H   0  0  0  0  0  0  0  0  0  0  0  0
   -1.6330   -2.0414   -1.6348 H   0  0  0  0  0  0  0  0  0  0  0  0
   -2.4689   -1.0537   -0.3758 H   0  0  0  0  0  0  0  0  0  0  0  0
   -0.5975   -1.0848   -0.3778 H   0  0  0  0  0  0  0  0  0  0  0  0
    0.4733   -0.9603    0.4901 C   0  0  0  0  0  3  0  0  0  0  0  0
    1.0073    0.4311    0.2900 C   0  0  0  0  0  0  0  0  0  0  0  0
    1.8872    0.7961    1.4849 C   0  0  0  0  0  0  0  0  0  0  0  0
    1.1909    0.5487    2.6917 O   0  0  0  0  0  0  0  0  0  0  0  0
    0.7848   -0.7773    2.7806 C   0  0  0  0  0  0  0  0  0  0  0  0
   -0.0937   -1.1462    1.7452 O   0  0  0  0  0  0  0  0  0  0  0  0
    1.1519   -1.7746    0.2104 H   0  0  0  0  0  0  0  0  0  0  0  0
    1.5705    0.4953   -0.6421 H   0  0  0  0  0  0  0  0  0  0  0  0
    0.1731    1.1348    0.2310 H   0  0  0  0  0  0  0  0  0  0  0  0
    2.8160    0.2073    1.4679 H   0  0  0  0  0  0  0  0  0  0  0  0
    2.1491    1.8534    1.4856 H   0  0  0  0  0  0  0  0  0  0  0  0
    1.6658   -1.4418    2.7580 H   0  0  0  0  0  0  0  0  0  0  0  0
    0.2405   -0.8931    3.7150 H   0  0  0  0  0  0  0  0  0  0  0  0
  1  2  1  0
  1  5  1  0
  1  6  1  0
  1  7  1  0
  2  3  3  0
  3  4  1  0
  4  8  1  0
  4  9  1  0
  4 10  1  0
 11 12  1  0
 11 16  1  0
 11 17  1  0
 12 13  1  0
 12 18  1  0
 12 19  1  0
 13 14  1  0
 13 20  1  0
 13 21  1  0
 14 15  1  0
 15 16  1  0
 15 22  1  0
 15 23  1  0
M  RAD  1  11   2
M  END
>  <reaction>  (4) 
rmg_rxn_251

>  <mol_properties>  (4) 
{"2": {"label": "*0", "atom_type": "Ct"}, "3": {"label": "*1", "atom_type": "Cs"}, "9": {"label": "*2", "atom_type": "H0"}, "10": {"label": "*3", "atom_type": "Cs"}, "15": {"label": "*4", "atom_type": "O2s"}}

>  <type>  (4) 
ts

$$$$
