
     RDKit          3D

  8  7  0  0  0  0  0  0  0  0999 V2000
    0.9548    0.1194   -0.0790 C   0  0  0  0  0  0  0  0  0  0  0  0
   -0.4838   -0.2649    0.0193 C   0  0  0  0  0  0  0  0  0  0  0  0
   -0.8933   -1.1081    0.8664 N   0  0  0  0  0  0  0  0  0  0  0  0
    1.3360   -0.0983   -1.0800 H   0  0  0  0  0  0  0  0  0  0  0  0
    1.0698    1.1948    0.0786 H   0  0  0  0  0  0  0  0  0  0  0  0
    1.5426   -0.4219    0.6602 H   0  0  0  0  0  0  0  0  0  0  0  0
   -1.1575    0.2324   -0.6905 H   0  0  0  0  0  0  0  0  0  0  0  0
   -1.8989   -1.2455    0.7886 H   0  0  0  0  0  0  0  0  0  0  0  0
  1  2  1  0
  1  4  1  0
  1  5  1  0
  1  6  1  0
  2  3  2  3
  2  7  1  0
  3  8  1  0
M  END
>  <reaction>  (1) 
rmg_rxn_16463

>  <mol_properties>  (1) 
{"2": {"label": "donator", "atom_type": "N3d"}, "7": {"label": "d_hydrogen", "atom_type": "H0"}}

>  <type>  (1) 
r1h

$$$$

     RDKit          3D

 17 16  0  0  0  0  0  0  0  0999 V2000
   -2.5795    0.1959    0.4034 C   0  0  0  0  0  0  0  0  0  0  0  0
   -1.5336    0.7406   -0.5804 C   0  0  0  0  0  0  0  0  0  0  0  0
   -0.1611    0.2303   -0.3387 C   0  0  0  0  0  3  0  0  0  0  0  0
    0.0150   -1.0861   -0.6052 O   0  0  0  0  0  0  0  0  0  0  0  0
    1.2861   -1.6127   -0.2717 C   0  0  0  0  0  0  0  0  0  0  0  0
    1.3024   -3.0858   -0.6020 C   0  0  0  0  0  0  0  0  0  0  0  0
   -2.3313    0.4751    1.4294 H   0  0  0  0  0  0  0  0  0  0  0  0
   -3.5721    0.5891    0.1750 H   0  0  0  0  0  0  0  0  0  0  0  0
   -2.6226   -0.8925    0.3503 H   0  0  0  0  0  0  0  0  0  0  0  0
   -1.8345    0.4824   -1.6005 H   0  0  0  0  0  0  0  0  0  0  0  0
   -1.5087    1.8312   -0.5230 H   0  0  0  0  0  0  0  0  0  0  0  0
    0.4638    0.6500    0.4483 H   0  0  0  0  0  0  0  0  0  0  0  0
    2.0583   -1.0760   -0.8340 H   0  0  0  0  0  0  0  0  0  0  0  0
    1.4751   -1.4511    0.7969 H   0  0  0  0  0  0  0  0  0  0  0  0
    1.1179   -3.2427   -1.6651 H   0  0  0  0  0  0  0  0  0  0  0  0
    2.2746   -3.5135   -0.3525 H   0  0  0  0  0  0  0  0  0  0  0  0
    0.5355   -3.6159   -0.0363 H   0  0  0  0  0  0  0  0  0  0  0  0
  1  2  1  0
  1  7  1  0
  1  8  1  0
  1  9  1  0
  2  3  1  0
  2 10  1  0
  2 11  1  0
  3  4  1  0
  3 12  1  0
  4  5  1  0
  5  6  1  0
  5 13  1  0
  5 14  1  0
  6 15  1  0
  6 16  1  0
  6 17  1  0
M  RAD  1   3   2
M  END
>  <reaction>  (2) 
rmg_rxn_16463

>  <mol_properties>  (2) 
{"2": {"label": "acceptor", "atom_type": "Cs"}}

>  <type>  (2) 
r2

$$$$

     RDKit          3D

 18 17  0  0  0  0  0  0  0  0999 V2000
    2.2026   -0.7213   -0.2612 C   0  0  0  0  0  0  0  0  0  0  0  0
    1.5384    0.2638    0.6915 C   0  0  0  0  0  0  0  0  0  0  0  0
    2.2584    1.5946    0.7694 C   0  0  0  0  0  0  0  0  0  0  0  0
    2.2212    2.2185   -0.4893 O   0  0  0  0  0  0  0  0  0  0  0  0
    2.8988    3.4488   -0.5204 C   0  0  0  0  0  0  0  0  0  0  0  0
    2.7981    4.0296   -1.9118 C   0  0  0  0  0  0  0  0  0  0  0  0
    3.2294   -0.9309    0.0486 H   0  0  0  0  0  0  0  0  0  0  0  0
    2.2338   -0.3181   -1.2734 H   0  0  0  0  0  0  0  0  0  0  0  0
    1.6610   -1.6680   -0.2875 H   0  0  0  0  0  0  0  0  0  0  0  0
    1.4990   -0.1566    1.7002 H   0  0  0  0  0  0  0  0  0  0  0  0
    0.5055    0.4455    0.3835 H   0  0  0  0  0  0  0  0  0  0  0  0
    3.3038    1.4410    1.0808 H   0  0  0  0  0  0  0  0  0  0  0  0
    1.7844    2.2410    1.5226 H   0  0  0  0  0  0  0  0  0  0  0  0
    2.4596    4.1376    0.2164 H   0  0  0  0  0  0  0  0  0  0  0  0
    3.9524    3.3035   -0.2397 H   0  0  0  0  0  0  0  0  0  0  0  0
    1.7543    4.1869   -2.1856 H   0  0  0  0  0  0  0  0  0  0  0  0
    3.2472    3.3545   -2.6411 H   0  0  0  0  0  0  0  0  0  0  0  0
    3.3178    4.9878   -1.9600 H   0  0  0  0  0  0  0  0  0  0  0  0
  1  2  1  0
  1  7  1  0
  1  8  1  0
  1  9  1  0
  2  3  1  0
  2 10  1  0
  2 11  1  0
  3  4  1  0
  3 12  1  0
  3 13  1  0
  4  5  1  0
  5  6  1  0
  5 14  1  0
  5 15  1  0
  6 16  1  0
  6 17  1  0
  6 18  1  0
M  END
>  <reaction>  (3) 
rmg_rxn_16463

>  <mol_properties>  (3) 
{"0": {"label": "a_hydrogen", "atom_type": "H0"}, "3": {"label": "acceptor", "atom_type": "Cs"}}

>  <type>  (3) 
r2h

$$$$

     RDKit          3D

 25 23  0  0  0  0  0  0  0  0999 V2000
   -0.3393   -0.4527   -3.3643 C   0  0  0  0  0  0  0  0  0  0  0  0
    0.0392   -0.1332   -1.9484 C   0  0  0  0  0  0  0  0  0  0  0  0
    0.8823    0.7486   -1.6517 N   0  0  0  0  0  0  0  0  0  0  0  0
   -0.1258   -1.5028   -3.5781 H   0  0  0  0  0  0  0  0  0  0  0  0
   -1.4128   -0.3059   -3.5060 H   0  0  0  0  0  0  0  0  0  0  0  0
    0.2086    0.1783   -4.0616 H   0  0  0  0  0  0  0  0  0  0  0  0
   -0.4667   -0.7236   -1.1689 H   0  0  0  0  0  0  0  0  0  0  0  0
    0.9583    0.7597   -0.3793 H   0  0  0  0  0  0  0  0  0  0  0  0
    1.9241   -1.6991    0.7605 C   0  0  0  0  0  0  0  0  0  0  0  0
    1.9808   -0.3085    1.3827 C   0  0  0  0  0  0  0  0  0  0  0  0
    0.8609    0.5986    0.9518 C   0  0  0  0  0  3  0  0  0  0  0  0
   -0.3784    0.0581    1.2230 O   0  0  0  0  0  0  0  0  0  0  0  0
   -1.4549    0.9659    1.0822 C   0  0  0  0  0  0  0  0  0  0  0  0
   -2.7501    0.2168    1.2829 C   0  0  0  0  0  0  0  0  0  0  0  0
    2.0090   -1.6418   -0.3257 H   0  0  0  0  0  0  0  0  0  0  0  0
    2.7408   -2.3200    1.1309 H   0  0  0  0  0  0  0  0  0  0  0  0
    0.9841   -2.1956    1.0030 H   0  0  0  0  0  0  0  0  0  0  0  0
    1.9640   -0.3932    2.4757 H   0  0  0  0  0  0  0  0  0  0  0  0
    2.9213    0.1817    1.1201 H   0  0  0  0  0  0  0  0  0  0  0  0
    0.9569    1.6295    1.3142 H   0  0  0  0  0  0  0  0  0  0  0  0
   -1.3485    1.7694    1.8221 H   0  0  0  0  0  0  0  0  0  0  0  0
   -1.4192    1.4250    0.0874 H   0  0  0  0  0  0  0  0  0  0  0  0
   -2.7777   -0.2472    2.2693 H   0  0  0  0  0  0  0  0  0  0  0  0
   -3.5955    0.9009    1.1975 H   0  0  0  0  0  0  0  0  0  0  0  0
   -2.8620   -0.5657    0.5311 H   0  0  0  0  0  0  0  0  0  0  0  0
  1  2  1  0
  1  4  1  0
  1  5  1  0
  1  6  1  0
  2  3  2  3
  2  7  1  0
  3  8  1  0
  9 10  1  0
  9 15  1  0
  9 16  1  0
  9 17  1  0
 10 11  1  0
 10 18  1  0
 10 19  1  0
 11 12  1  0
 11 20  1  0
 12 13  1  0
 13 14  1  0
 13 21  1  0
 13 22  1  0
 14 23  1  0
 14 24  1  0
 14 25  1  0
M  RAD  1  11   2
M  END
>  <reaction>  (4) 
rmg_rxn_16463

>  <mol_properties>  (4) 
{"1": {"label": "*0", "atom_type": "Cd"}, "2": {"label": "*1", "atom_type": "N3d"}, "7": {"label": "*2", "atom_type": "H0"}, "10": {"label": "*3", "atom_type": "Cs"}, "11": {"label": "*4", "atom_type": "O2s"}}

>  <type>  (4) 
ts

$$$$
