
     RDKit          3D

  8  7  0  0  0  0  0  0  0  0999 V2000
    0.9548    0.1194   -0.0790 C   0  0  0  0  0  0  0  0  0  0  0  0
   -0.4838   -0.2649    0.0193 C   0  0  0  0  0  0  0  0  0  0  0  0
   -0.8933   -1.1081    0.8664 N   0  0  0  0  0  0  0  0  0  0  0  0
    1.3360   -0.0983   -1.0800 H   0  0  0  0  0  0  0  0  0  0  0  0
    1.0698    1.1948    0.0786 H   0  0  0  0  0  0  0  0  0  0  0  0
    1.5426   -0.4219    0.6602 H   0  0  0  0  0  0  0  0  0  0  0  0
   -1.1575    0.2324   -0.6905 H   0  0  0  0  0  0  0  0  0  0  0  0
   -1.8989   -1.2455    0.7886 H   0  0  0  0  0  0  0  0  0  0  0  0
  1  2  1  0
  1  4  1  0
  1  5  1  0
  1  6  1  0
  2  3  2  3
  2  7  1  0
  3  8  1  0
M  END
>  <reaction>  (1) 
rmg_rxn_16523

>  <mol_properties>  (1) 
{"2": {"label": "donator", "atom_type": "N3d"}, "7": {"label": "d_hydrogen", "atom_type": "H0"}}

>  <type>  (1) 
r1h

$$$$

     RDKit          3D

 11 10  0  0  0  0  0  0  0  0999 V2000
   -2.0988   -0.3145   -0.2868 C   0  0  0  0  0  0  0  0  0  0  0  0
   -0.7126   -0.0625   -1.4056 S   0  0  0  0  0  0  0  0  0  0  0  0
    0.5890    0.0878   -0.3019 C   0  0  0  0  0  3  0  0  0  0  0  0
    1.9588    0.3511   -0.8202 C   0  0  0  0  0  0  0  0  0  0  0  0
   -2.2228    0.5468    0.3682 H   0  0  0  0  0  0  0  0  0  0  0  0
   -1.9535   -1.2167    0.3068 H   0  0  0  0  0  0  0  0  0  0  0  0
   -2.9906   -0.4323   -0.8998 H   0  0  0  0  0  0  0  0  0  0  0  0
    0.4439   -0.2864    0.7037 H   0  0  0  0  0  0  0  0  0  0  0  0
    2.5745    0.8210   -0.0507 H   0  0  0  0  0  0  0  0  0  0  0  0
    1.9374    1.0182   -1.6853 H   0  0  0  0  0  0  0  0  0  0  0  0
    2.4745   -0.5669   -1.1316 H   0  0  0  0  0  0  0  0  0  0  0  0
  1  2  1  0
  1  5  1  0
  1  6  1  0
  1  7  1  0
  2  3  1  0
  3  4  1  0
  3  8  1  0
  4  9  1  0
  4 10  1  0
  4 11  1  0
M  RAD  1   3   2
M  END
>  <reaction>  (2) 
rmg_rxn_16523

>  <mol_properties>  (2) 
{"2": {"label": "acceptor", "atom_type": "Cs"}}

>  <type>  (2) 
r2

$$$$

     RDKit          3D

 12 11  0  0  0  0  0  0  0  0999 V2000
    1.8075    0.1979    0.4695 C   0  0  0  0  0  0  0  0  0  0  0  0
    1.0072   -0.8859   -0.7259 S   0  0  0  0  0  0  0  0  0  0  0  0
   -0.7258   -0.6904   -0.2447 C   0  0  0  0  0  0  0  0  0  0  0  0
   -1.0856   -1.2776    1.1108 C   0  0  0  0  0  0  0  0  0  0  0  0
    1.7126   -0.1777    1.4878 H   0  0  0  0  0  0  0  0  0  0  0  0
    1.4024    1.2089    0.4095 H   0  0  0  0  0  0  0  0  0  0  0  0
    2.8647    0.2298    0.2095 H   0  0  0  0  0  0  0  0  0  0  0  0
   -1.2866   -1.1892   -1.0369 H   0  0  0  0  0  0  0  0  0  0  0  0
   -0.9814    0.3707   -0.2917 H   0  0  0  0  0  0  0  0  0  0  0  0
   -0.5492   -0.7768    1.9180 H   0  0  0  0  0  0  0  0  0  0  0  0
   -0.8418   -2.3397    1.1503 H   0  0  0  0  0  0  0  0  0  0  0  0
   -2.1545   -1.1604    1.3035 H   0  0  0  0  0  0  0  0  0  0  0  0
  1  2  1  0
  1  5  1  0
  1  6  1  0
  1  7  1  0
  2  3  1  0
  3  4  1  0
  3  8  1  0
  3  9  1  0
  4 10  1  0
  4 11  1  0
  4 12  1  0
M  END
>  <reaction>  (3) 
rmg_rxn_16523

>  <mol_properties>  (3) 
{"0": {"label": "a_hydrogen", "atom_type": "H0"}, "3": {"label": "acceptor", "atom_type": "Cs"}}

>  <type>  (3) 
r2h

$$$$

     RDKit          3D

 19 17  0  0  0  0  0  0  0  0999 V2000
    0.3335   -0.1538   -3.1099 C   0  0  0  0  0  0  0  0  0  0  0  0
    0.1090    0.1241   -1.6527 C   0  0  0  0  0  0  0  0  0  0  0  0
    0.6210    1.1011   -1.0567 N   0  0  0  0  0  0  0  0  0  0  0  0
    0.7749   -1.1451   -3.2360 H   0  0  0  0  0  0  0  0  0  0  0  0
   -0.6229   -0.1560   -3.6380 H   0  0  0  0  0  0  0  0  0  0  0  0
    0.9893    0.5954   -3.5494 H   0  0  0  0  0  0  0  0  0  0  0  0
   -0.5400   -0.5892   -1.1165 H   0  0  0  0  0  0  0  0  0  0  0  0
    0.2183    1.0403    0.1444 H   0  0  0  0  0  0  0  0  0  0  0  0
    0.9545   -1.4566    1.6756 C   0  0  0  0  0  0  0  0  0  0  0  0
   -0.7172   -0.7917    1.6217 S   0  0  0  0  0  0  0  0  0  0  0  0
   -0.3587    0.9120    1.3464 C   0  0  0  0  0  3  0  0  0  0  0  0
   -1.5819    1.7921    1.3030 C   0  0  0  0  0  0  0  0  0  0  0  0
    1.5127   -1.0272    2.5073 H   0  0  0  0  0  0  0  0  0  0  0  0
    1.4752   -1.2527    0.7401 H   0  0  0  0  0  0  0  0  0  0  0  0
    0.8744   -2.5329    1.8181 H   0  0  0  0  0  0  0  0  0  0  0  0
    0.4307    1.2757    2.0063 H   0  0  0  0  0  0  0  0  0  0  0  0
   -1.2995    2.8000    0.9956 H   0  0  0  0  0  0  0  0  0  0  0  0
   -2.0730    1.8592    2.2776 H   0  0  0  0  0  0  0  0  0  0  0  0
   -2.3105    1.4151    0.5825 H   0  0  0  0  0  0  0  0  0  0  0  0
  1  2  1  0
  1  4  1  0
  1  5  1  0
  1  6  1  0
  2  3  2  3
  2  7  1  0
  3  8  1  0
  9 10  1  0
  9 13  1  0
  9 14  1  0
  9 15  1  0
 10 11  1  0
 11 12  1  0
 11 16  1  0
 12 17  1  0
 12 18  1  0
 12 19  1  0
M  RAD  1  11   2
M  END
>  <reaction>  (4) 
rmg_rxn_16523

>  <mol_properties>  (4) 
{"1": {"label": "*0", "atom_type": "Cd"}, "2": {"label": "*1", "atom_type": "N3d"}, "7": {"label": "*2", "atom_type": "H0"}, "9": {"label": "*4", "atom_type": "S2s"}, "10": {"label": "*3", "atom_type": "Cs"}}

>  <type>  (4) 
ts

$$$$
