
     RDKit          3D

 10  9  0  0  0  0  0  0  0  0999 V2000
    2.0403   -0.0578    0.0121 C   0  0  0  0  0  0  0  0  0  0  0  0
    0.5945   -0.0168    0.1898 C   0  0  0  0  0  0  0  0  0  0  0  0
   -0.5945    0.0169    0.3360 C   0  0  0  0  0  0  0  0  0  0  0  0
   -2.0403    0.0578    0.5137 C   0  0  0  0  0  0  0  0  0  0  0  0
    2.4762    0.9349    0.1366 H   0  0  0  0  0  0  0  0  0  0  0  0
    2.3000   -0.4176   -0.9850 H   0  0  0  0  0  0  0  0  0  0  0  0
    2.5036   -0.7236    0.7422 H   0  0  0  0  0  0  0  0  0  0  0  0
   -2.3765    1.0716    0.7378 H   0  0  0  0  0  0  0  0  0  0  0  0
   -2.3500   -0.5897    1.3358 H   0  0  0  0  0  0  0  0  0  0  0  0
   -2.5533   -0.2757   -0.3900 H   0  0  0  0  0  0  0  0  0  0  0  0
  1  2  1  0
  1  5  1  0
  1  6  1  0
  1  7  1  0
  2  3  3  0
  3  4  1  0
  4  8  1  0
  4  9  1  0
  4 10  1  0
M  END
>  <reaction>  (1) 
rmg_rxn_388

>  <mol_properties>  (1) 
{"3": {"label": "donator", "atom_type": "Cs"}, "9": {"label": "d_hydrogen", "atom_type": "H0"}}

>  <type>  (1) 
r1h

$$$$

     RDKit          3D

  8  7  0  0  0  0  0  0  0  0999 V2000
   -0.7873    0.0891   -0.0873 C   0  0  0  0  0  0  0  0  0  0  0  0
    0.7223   -0.0637   -0.0109 C   0  0  0  0  0  0  0  0  0  0  0  0
    1.2867   -0.8404   -0.9706 O   0  0  0  0  0  1  0  0  0  0  0  0
   -1.2724   -0.8840   -0.0044 H   0  0  0  0  0  0  0  0  0  0  0  0
   -1.1517    0.7274    0.7201 H   0  0  0  0  0  0  0  0  0  0  0  0
   -1.0763    0.5365   -1.0389 H   0  0  0  0  0  0  0  0  0  0  0  0
    1.2329    0.9169   -0.0453 H   0  0  0  0  0  0  0  0  0  0  0  0
    1.0411   -0.4722    0.9662 H   0  0  0  0  0  0  0  0  0  0  0  0
  1  2  1  0
  1  4  1  0
  1  5  1  0
  1  6  1  0
  2  3  1  0
  2  7  1  0
  2  8  1  0
M  RAD  1   3   2
M  END
>  <reaction>  (2) 
rmg_rxn_388

>  <mol_properties>  (2) 
{"2": {"label": "acceptor", "atom_type": "O2s"}}

>  <type>  (2) 
r2

$$$$

     RDKit          3D

  9  8  0  0  0  0  0  0  0  0999 V2000
   -0.9895    0.3048    0.1041 C   0  0  0  0  0  0  0  0  0  0  0  0
    0.3761   -0.3562    0.0721 C   0  0  0  0  0  0  0  0  0  0  0  0
    0.3441   -1.6564   -0.4834 O   0  0  0  0  0  0  0  0  0  0  0  0
   -1.6997   -0.3114    0.6572 H   0  0  0  0  0  0  0  0  0  0  0  0
   -0.9320    1.2848    0.5822 H   0  0  0  0  0  0  0  0  0  0  0  0
   -1.3774    0.4507   -0.9077 H   0  0  0  0  0  0  0  0  0  0  0  0
    0.7581   -0.4813    1.0862 H   0  0  0  0  0  0  0  0  0  0  0  0
    1.0900    0.2787   -0.4681 H   0  0  0  0  0  0  0  0  0  0  0  0
    0.0089   -1.5959   -1.3792 H   0  0  0  0  0  0  0  0  0  0  0  0
  1  2  1  0
  1  4  1  0
  1  5  1  0
  1  6  1  0
  2  3  1  0
  2  7  1  0
  2  8  1  0
  3  9  1  0
M  END
>  <reaction>  (3) 
rmg_rxn_388

>  <mol_properties>  (3) 
{"2": {"label": "acceptor", "atom_type": "O2s"}, "8": {"label": "a_hydrogen", "atom_type": "H0"}}

>  <type>  (3) 
r2h

$$$$

     RDKit          3D

 18 16  0  0  0  0  0  0  0  0999 V2000
   -1.1394   -1.9605    0.5103 C   0  0  0  0  0  0  0  0  0  0  0  0
   -1.5413   -0.5322    0.8351 C   0  0  0  0  0  0  0  0  0  0  0  0
   -0.9135   -0.0123    1.9570 O   0  0  0  0  0  1  0  0  0  0  0  0
   -1.3155   -2.6114    1.3677 H   0  0  0  0  0  0  0  0  0  0  0  0
   -1.7106   -2.3400   -0.3400 H   0  0  0  0  0  0  0  0  0  0  0  0
   -0.0791   -2.0054    0.2536 H   0  0  0  0  0  0  0  0  0  0  0  0
   -1.3741    0.1207   -0.0362 H   0  0  0  0  0  0  0  0  0  0  0  0
   -2.6183   -0.4682    1.0474 H   0  0  0  0  0  0  0  0  0  0  0  0
    0.8780    0.6815   -2.9447 C   0  0  0  0  0  0  0  0  0  0  0  0
    1.0701    0.6782   -1.5029 C   0  0  0  0  0  0  0  0  0  0  0  0
    1.2461    0.6789   -0.3113 C   0  0  0  0  0  0  0  0  0  0  0  0
    1.3788    0.6467    1.1068 C   0  0  0  0  0  0  0  0  0  0  0  0
    1.8120    0.4483   -3.4590 H   0  0  0  0  0  0  0  0  0  0  0  0
    0.5321    1.6565   -3.2908 H   0  0  0  0  0  0  0  0  0  0  0  0
    0.1386   -0.0666   -3.2367 H   0  0  0  0  0  0  0  0  0  0  0  0
    1.5720    1.6178    1.5596 H   0  0  0  0  0  0  0  0  0  0  0  0
    2.0614   -0.1184    1.4733 H   0  0  0  0  0  0  0  0  0  0  0  0
    0.2850    0.3225    1.5917 H   0  0  0  0  0  0  0  0  0  0  0  0
  1  2  1  0
  1  4  1  0
  1  5  1  0
  1  6  1  0
  2  3  1  0
  2  7  1  0
  2  8  1  0
  9 10  1  0
  9 13  1  0
  9 14  1  0
  9 15  1  0
 10 11  3  0
 11 12  1  0
 12 16  1  0
 12 17  1  0
 12 18  1  0
M  RAD  1   3   2
M  END
>  <reaction>  (4) 
rmg_rxn_388

>  <mol_properties>  (4) 
{"1": {"label": "*4", "atom_type": "Cs"}, "2": {"label": "*3", "atom_type": "O2s"}, "10": {"label": "*0", "atom_type": "Ct"}, "11": {"label": "*1", "atom_type": "Cs"}, "17": {"label": "*2", "atom_type": "H0"}}

>  <type>  (4) 
ts

$$$$
