
     RDKit          3D

  9  8  0  0  0  0  0  0  0  0999 V2000
   -1.5470   -0.0755   -0.1976 C   0  0  0  0  0  0  0  0  0  0  0  0
   -0.2885    0.4507    0.1749 O   0  0  0  0  0  0  0  0  0  0  0  0
   -0.1502    1.7216   -0.3294 N   0  0  0  0  0  0  0  0  0  0  0  0
    0.9626    2.2353   -0.0219 C   0  0  0  0  0  0  0  0  0  0  0  0
   -1.6392   -0.1356   -1.2844 H   0  0  0  0  0  0  0  0  0  0  0  0
   -2.3597    0.5337    0.2044 H   0  0  0  0  0  0  0  0  0  0  0  0
   -1.5879   -1.0750    0.2318 H   0  0  0  0  0  0  0  0  0  0  0  0
    1.1497    3.2381   -0.3820 H   0  0  0  0  0  0  0  0  0  0  0  0
    1.7060    1.7101    0.5739 H   0  0  0  0  0  0  0  0  0  0  0  0
  1  2  1  0
  1  5  1  0
  1  6  1  0
  1  7  1  0
  2  3  1  0
  3  4  2  3
  4  8  1  0
  4  9  1  0
M  END
>  <reaction>  (1) 
rmg_rxn_15616

>  <mol_properties>  (1) 
{"0": {"label": "donator", "atom_type": "Cs"}, "4": {"label": "d_hydrogen", "atom_type": "H0"}}

>  <type>  (1) 
r1h

$$$$

     RDKit          3D

 17 16  0  0  0  0  0  0  0  0999 V2000
    2.3128   -0.1525    1.1776 C   0  0  0  0  0  3  0  0  0  0  0  0
    1.7469    0.7266    0.1254 C   0  0  0  0  0  0  0  0  0  0  0  0
    1.6374    2.1830    0.5408 C   0  0  0  0  0  0  0  0  0  0  0  0
    2.9244    2.6874    0.7877 O   0  0  0  0  0  0  0  0  0  0  0  0
    2.9227    4.0197    1.2361 C   0  0  0  0  0  0  0  0  0  0  0  0
    4.3491    4.4603    1.4693 C   0  0  0  0  0  0  0  0  0  0  0  0
    2.1394   -1.2196    1.1556 H   0  0  0  0  0  0  0  0  0  0  0  0
    3.0314    0.2400    1.8837 H   0  0  0  0  0  0  0  0  0  0  0  0
    0.7555    0.3746   -0.1763 H   0  0  0  0  0  0  0  0  0  0  0  0
    2.3677    0.6841   -0.7826 H   0  0  0  0  0  0  0  0  0  0  0  0
    1.0170    2.2718    1.4450 H   0  0  0  0  0  0  0  0  0  0  0  0
    1.1498    2.7653   -0.2545 H   0  0  0  0  0  0  0  0  0  0  0  0
    2.4378    4.6655    0.4892 H   0  0  0  0  0  0  0  0  0  0  0  0
    2.3377    4.1014    2.1639 H   0  0  0  0  0  0  0  0  0  0  0  0
    4.9260    4.3921    0.5464 H   0  0  0  0  0  0  0  0  0  0  0  0
    4.3728    5.4939    1.8180 H   0  0  0  0  0  0  0  0  0  0  0  0
    4.8260    3.8299    2.2206 H   0  0  0  0  0  0  0  0  0  0  0  0
  1  2  1  0
  1  7  1  0
  1  8  1  0
  2  3  1  0
  2  9  1  0
  2 10  1  0
  3  4  1  0
  3 11  1  0
  3 12  1  0
  4  5  1  0
  5  6  1  0
  5 13  1  0
  5 14  1  0
  6 15  1  0
  6 16  1  0
  6 17  1  0
M  RAD  1   1   2
M  END
>  <reaction>  (2) 
rmg_rxn_15616

>  <mol_properties>  (2) 
{"0": {"label": "acceptor", "atom_type": "Cs"}}

>  <type>  (2) 
r2

$$$$

     RDKit          3D

 18 17  0  0  0  0  0  0  0  0999 V2000
    2.2026   -0.7213   -0.2612 C   0  0  0  0  0  0  0  0  0  0  0  0
    1.5384    0.2638    0.6915 C   0  0  0  0  0  0  0  0  0  0  0  0
    2.2584    1.5946    0.7694 C   0  0  0  0  0  0  0  0  0  0  0  0
    2.2212    2.2185   -0.4893 O   0  0  0  0  0  0  0  0  0  0  0  0
    2.8988    3.4488   -0.5204 C   0  0  0  0  0  0  0  0  0  0  0  0
    2.7981    4.0296   -1.9118 C   0  0  0  0  0  0  0  0  0  0  0  0
    3.2294   -0.9309    0.0486 H   0  0  0  0  0  0  0  0  0  0  0  0
    2.2338   -0.3181   -1.2734 H   0  0  0  0  0  0  0  0  0  0  0  0
    1.6610   -1.6680   -0.2875 H   0  0  0  0  0  0  0  0  0  0  0  0
    1.4990   -0.1566    1.7002 H   0  0  0  0  0  0  0  0  0  0  0  0
    0.5055    0.4455    0.3835 H   0  0  0  0  0  0  0  0  0  0  0  0
    3.3038    1.4410    1.0808 H   0  0  0  0  0  0  0  0  0  0  0  0
    1.7844    2.2410    1.5226 H   0  0  0  0  0  0  0  0  0  0  0  0
    2.4596    4.1376    0.2164 H   0  0  0  0  0  0  0  0  0  0  0  0
    3.9524    3.3035   -0.2397 H   0  0  0  0  0  0  0  0  0  0  0  0
    1.7543    4.1869   -2.1856 H   0  0  0  0  0  0  0  0  0  0  0  0
    3.2472    3.3545   -2.6411 H   0  0  0  0  0  0  0  0  0  0  0  0
    3.3178    4.9878   -1.9600 H   0  0  0  0  0  0  0  0  0  0  0  0
  1  2  1  0
  1  7  1  0
  1  8  1  0
  1  9  1  0
  2  3  1  0
  2 10  1  0
  2 11  1  0
  3  4  1  0
  3 12  1  0
  3 13  1  0
  4  5  1  0
  5  6  1  0
  5 14  1  0
  5 15  1  0
  6 16  1  0
  6 17  1  0
  6 18  1  0
M  END
>  <reaction>  (3) 
rmg_rxn_15616

>  <mol_properties>  (3) 
{"0": {"label": "a_hydrogen", "atom_type": "H0"}, "1": {"label": "acceptor", "atom_type": "Cs"}}

>  <type>  (3) 
r2h

$$$$

     RDKit          3D

 26 24  0  0  0  0  0  0  0  0999 V2000
   -2.5011   -0.3993   -0.7998 C   0  0  0  0  0  0  0  0  0  0  0  0
   -2.4139    0.6673    0.0906 O   0  0  0  0  0  0  0  0  0  0  0  0
   -1.2261    1.3413   -0.0704 N   0  0  0  0  0  0  0  0  0  0  0  0
   -1.0884    2.2705    0.7749 C   0  0  0  0  0  0  0  0  0  0  0  0
   -1.7620   -1.4122   -0.3455 H   0  0  0  0  0  0  0  0  0  0  0  0
   -2.1196   -0.1549   -1.7908 H   0  0  0  0  0  0  0  0  0  0  0  0
   -3.5287   -0.7537   -0.7964 H   0  0  0  0  0  0  0  0  0  0  0  0
   -0.1790    2.8524    0.7041 H   0  0  0  0  0  0  0  0  0  0  0  0
   -1.8338    2.4872    1.5363 H   0  0  0  0  0  0  0  0  0  0  0  0
   -0.9972   -2.4000    0.2187 C   0  0  0  0  0  3  0  0  0  0  0  0
    0.2879   -1.7713    0.6881 C   0  0  0  0  0  0  0  0  0  0  0  0
    1.1253   -1.2469   -0.4718 C   0  0  0  0  0  0  0  0  0  0  0  0
    2.3771   -0.7404   -0.0657 O   0  0  0  0  0  0  0  0  0  0  0  0
    2.3596    0.5746    0.4437 C   0  0  0  0  0  0  0  0  0  0  0  0
    2.2839    1.6355   -0.6421 C   0  0  0  0  0  0  0  0  0  0  0  0
   -0.8858   -3.1289   -0.5844 H   0  0  0  0  0  0  0  0  0  0  0  0
   -1.6421   -2.7715    1.0125 H   0  0  0  0  0  0  0  0  0  0  0  0
    0.8900   -2.4996    1.2440 H   0  0  0  0  0  0  0  0  0  0  0  0
    0.0632   -0.9577    1.3838 H   0  0  0  0  0  0  0  0  0  0  0  0
    0.5545   -0.4928   -1.0254 H   0  0  0  0  0  0  0  0  0  0  0  0
    1.3440   -2.0670   -1.1603 H   0  0  0  0  0  0  0  0  0  0  0  0
    1.5334    0.7055    1.1537 H   0  0  0  0  0  0  0  0  0  0  0  0
    3.2896    0.6826    1.0050 H   0  0  0  0  0  0  0  0  0  0  0  0
    1.3352    1.5925   -1.1791 H   0  0  0  0  0  0  0  0  0  0  0  0
    2.3748    2.6301   -0.1982 H   0  0  0  0  0  0  0  0  0  0  0  0
    3.0977    1.5051   -1.3566 H   0  0  0  0  0  0  0  0  0  0  0  0
  1  2  1  0
  1  5  1  0
  1  6  1  0
  1  7  1  0
  2  3  1  0
  3  4  2  3
  4  8  1  0
  4  9  1  0
 10 11  1  0
 10 16  1  0
 10 17  1  0
 11 12  1  0
 11 18  1  0
 11 19  1  0
 12 13  1  0
 12 20  1  0
 12 21  1  0
 13 14  1  0
 14 15  1  0
 14 22  1  0
 14 23  1  0
 15 24  1  0
 15 25  1  0
 15 26  1  0
M  RAD  1  10   2
M  END
>  <reaction>  (4) 
rmg_rxn_15616

>  <mol_properties>  (4) 
{"0": {"label": "*1", "atom_type": "Cs"}, "1": {"label": "*0", "atom_type": "O2s"}, "4": {"label": "*2", "atom_type": "H0"}, "9": {"label": "*3", "atom_type": "Cs"}, "10": {"label": "*4", "atom_type": "Cs"}}

>  <type>  (4) 
ts

$$$$
