
     RDKit          3D

  5  4  0  0  0  0  0  0  0  0999 V2000
   -1.2140    0.4407   -0.1412 O   0  0  0  0  0  0  0  0  0  0  0  0
    0.1185    0.5703   -0.2937 N   0  0  0  0  0  0  0  0  0  0  0  0
    0.7309   -0.3922    0.1486 N   0  0  0  0  0  0  0  0  0  0  0  0
   -1.3561   -0.4179    0.2986 H   0  0  0  0  0  0  0  0  0  0  0  0
    1.7208   -0.2009   -0.0123 H   0  0  0  0  0  0  0  0  0  0  0  0
  1  2  1  0
  1  4  1  0
  2  3  2  3
  3  5  1  0
M  END
>  <reaction>  (1) 
rmg_rxn_15383

>  <mol_properties>  (1) 
{"0": {"label": "donator", "atom_type": "O2s"}, "3": {"label": "d_hydrogen", "atom_type": "H0"}}

>  <type>  (1) 
r1h

$$$$

     RDKit          3D

  5  4  0  0  0  0  0  0  0  0999 V2000
    0.8934    0.3742    0.4948 O   0  0  0  0  0  0  0  0  0  0  0  0
    0.1582   -0.1610   -0.5904 N   0  0  0  0  0  0  0  0  0  0  0  0
   -1.0297   -0.3739   -0.4689 C   0  0  0  0  0  3  0  0  0  0  0  0
    1.7804    0.4382    0.1306 H   0  0  0  0  0  0  0  0  0  0  0  0
   -1.8023   -0.2775    0.2859 H   0  0  0  0  0  0  0  0  0  0  0  0
  1  2  1  0
  1  4  1  0
  2  3  2  3
  3  5  1  0
M  RAD  1   3   2
M  END
>  <reaction>  (2) 
rmg_rxn_15383

>  <mol_properties>  (2) 
{"2": {"label": "acceptor", "atom_type": "Cd"}}

>  <type>  (2) 
r2

$$$$

     RDKit          3D

  6  5  0  0  0  0  0  0  0  0999 V2000
    1.2314    0.0428    0.5088 O   0  0  0  0  0  0  0  0  0  0  0  0
    0.2987    0.2341   -0.4915 N   0  0  0  0  0  0  0  0  0  0  0  0
   -0.8599   -0.1122   -0.1290 C   0  0  0  0  0  0  0  0  0  0  0  0
    2.0507    0.3401    0.1082 H   0  0  0  0  0  0  0  0  0  0  0  0
   -1.0700   -0.5112    0.8610 H   0  0  0  0  0  0  0  0  0  0  0  0
   -1.6509    0.0064   -0.8574 H   0  0  0  0  0  0  0  0  0  0  0  0
  1  2  1  0
  1  4  1  0
  2  3  2  3
  3  5  1  0
  3  6  1  0
M  END
>  <reaction>  (3) 
rmg_rxn_15383

>  <mol_properties>  (3) 
{"0": {"label": "a_hydrogen", "atom_type": "H0"}, "3": {"label": "acceptor", "atom_type": "Cd"}}

>  <type>  (3) 
r2h

$$$$

     RDKit          3D

 10  8  0  0  0  0  0  0  0  0999 V2000
   -1.2251   -1.1273    0.7202 O   0  0  0  0  0  0  0  0  0  0  0  0
   -0.3566   -1.5202    1.5981 N   0  0  0  0  0  0  0  0  0  0  0  0
    0.8105   -1.1864    1.4112 N   0  0  0  0  0  0  0  0  0  0  0  0
   -0.7016   -0.5074   -0.0647 H   0  0  0  0  0  0  0  0  0  0  0  0
    1.3524   -1.5700    2.1860 H   0  0  0  0  0  0  0  0  0  0  0  0
    0.1376    2.3016   -2.0218 O   0  0  0  0  0  0  0  0  0  0  0  0
   -0.4180    1.4596   -1.0633 N   0  0  0  0  0  0  0  0  0  0  0  0
   -0.0253    0.2947   -1.0454 C   0  0  0  0  0  3  0  0  0  0  0  0
   -0.3007    3.1395   -1.8524 H   0  0  0  0  0  0  0  0  0  0  0  0
    0.7269   -0.2302   -1.6294 H   0  0  0  0  0  0  0  0  0  0  0  0
  1  2  1  0
  1  4  1  0
  2  3  2  3
  3  5  1  0
  6  7  1  0
  6  9  1  0
  7  8  2  3
  8 10  1  0
M  RAD  1   8   2
M  END
>  <reaction>  (4) 
rmg_rxn_15383

>  <mol_properties>  (4) 
{"0": {"label": "*1", "atom_type": "O2s"}, "1": {"label": "*0", "atom_type": "N3d"}, "3": {"label": "*2", "atom_type": "H0"}, "6": {"label": "*4", "atom_type": "N3d"}, "7": {"label": "*3", "atom_type": "Cd"}}

>  <type>  (4) 
ts

$$$$
