
     RDKit          3D

  5  4  0  0  0  0  0  0  0  0999 V2000
    0.7361   -0.2872    0.4035 N   0  0  0  0  0  2  0  0  0  0  0  0
   -0.3891   -0.1505   -0.3131 N   0  0  0  0  0  0  0  0  0  0  0  0
    1.4909    0.0686   -0.1831 H   0  0  0  0  0  0  0  0  0  0  0  0
   -1.1819   -0.6340    0.0744 H   0  0  0  0  0  0  0  0  0  0  0  0
   -0.3592   -0.1189   -1.3223 H   0  0  0  0  0  0  0  0  0  0  0  0
  1  2  1  0
  1  3  1  0
  2  4  1  0
  2  5  1  0
M  RAD  1   1   2
M  END
>  <reaction>  (1) 
rmg_rxn_16571

>  <mol_properties>  (1) 
{"0": {"label": "donator", "atom_type": "N3s"}, "2": {"label": "d_hydrogen", "atom_type": "H0"}}

>  <type>  (1) 
r1h

$$$$

     RDKit          3D

  7  6  0  0  0  0  0  0  0  0999 V2000
   -0.8795   -0.0543   -0.1090 C   0  0  0  0  0  0  0  0  0  0  0  0
    0.2563    0.5049    0.6648 C   0  0  0  0  0  3  0  0  0  0  0  0
    1.4650    0.3007    0.5496 N   0  0  0  0  0  0  0  0  0  0  0  0
   -0.5274   -0.7435   -0.8820 H   0  0  0  0  0  0  0  0  0  0  0  0
   -1.5593   -0.5772    0.5650 H   0  0  0  0  0  0  0  0  0  0  0  0
   -1.4422    0.7576   -0.5717 H   0  0  0  0  0  0  0  0  0  0  0  0
    2.0861    0.7906    1.1888 H   0  0  0  0  0  0  0  0  0  0  0  0
  1  2  1  0
  1  4  1  0
  1  5  1  0
  1  6  1  0
  2  3  2  3
  3  7  1  0
M  RAD  1   2   2
M  END
>  <reaction>  (2) 
rmg_rxn_16571

>  <mol_properties>  (2) 
{"1": {"label": "acceptor", "atom_type": "Cd"}}

>  <type>  (2) 
r2

$$$$

     RDKit          3D

  8  7  0  0  0  0  0  0  0  0999 V2000
    0.9548    0.1194   -0.0790 C   0  0  0  0  0  0  0  0  0  0  0  0
   -0.4838   -0.2649    0.0193 C   0  0  0  0  0  0  0  0  0  0  0  0
   -0.8933   -1.1081    0.8664 N   0  0  0  0  0  0  0  0  0  0  0  0
    1.3360   -0.0983   -1.0800 H   0  0  0  0  0  0  0  0  0  0  0  0
    1.0698    1.1948    0.0786 H   0  0  0  0  0  0  0  0  0  0  0  0
    1.5426   -0.4219    0.6602 H   0  0  0  0  0  0  0  0  0  0  0  0
   -1.1575    0.2324   -0.6905 H   0  0  0  0  0  0  0  0  0  0  0  0
   -1.8989   -1.2455    0.7886 H   0  0  0  0  0  0  0  0  0  0  0  0
  1  2  1  0
  1  4  1  0
  1  5  1  0
  1  6  1  0
  2  3  2  3
  2  7  1  0
  3  8  1  0
M  END
>  <reaction>  (3) 
rmg_rxn_16571

>  <mol_properties>  (3) 
{"0": {"label": "a_hydrogen", "atom_type": "H0"}, "2": {"label": "acceptor", "atom_type": "Cd"}}

>  <type>  (3) 
r2h

$$$$

     RDKit          3D

 12 10  0  0  0  0  0  0  0  0999 V2000
   -0.5088   -1.6545   -0.3936 N   0  0  0  0  0  2  0  0  0  0  0  0
    0.2230   -1.5253   -1.5099 N   0  0  0  0  0  0  0  0  0  0  0  0
   -0.4663   -0.5258    0.0987 H   0  0  0  0  0  0  0  0  0  0  0  0
    0.4926   -2.4048   -1.9264 H   0  0  0  0  0  0  0  0  0  0  0  0
    0.9567   -0.8246   -1.5224 H   0  0  0  0  0  0  0  0  0  0  0  0
    0.1181    0.9841    1.8613 C   0  0  0  0  0  0  0  0  0  0  0  0
   -0.2093    0.7869    0.4223 C   0  0  0  0  0  3  0  0  0  0  0  0
   -0.2329    1.6695   -0.4566 N   0  0  0  0  0  0  0  0  0  0  0  0
    0.3565    2.0291    2.0640 H   0  0  0  0  0  0  0  0  0  0  0  0
   -0.7304    0.6736    2.4738 H   0  0  0  0  0  0  0  0  0  0  0  0
    0.9617    0.3494    2.1384 H   0  0  0  0  0  0  0  0  0  0  0  0
   -0.5019    1.3293   -1.3792 H   0  0  0  0  0  0  0  0  0  0  0  0
  1  2  1  0
  1  3  1  0
  2  4  1  0
  2  5  1  0
  6  7  1  0
  6  9  1  0
  6 10  1  0
  6 11  1  0
  7  8  2  3
  8 12  1  0
M  RAD  2   1   2   7   2
M  END
>  <reaction>  (4) 
rmg_rxn_16571

>  <mol_properties>  (4) 
{"0": {"label": "*1", "atom_type": "N3s"}, "1": {"label": "*0", "atom_type": "N3s"}, "2": {"label": "*2", "atom_type": "H0"}, "6": {"label": "*3", "atom_type": "Cd"}, "7": {"label": "*4", "atom_type": "N3d"}}

>  <type>  (4) 
ts

$$$$
