
     RDKit          3D

 18 17  0  0  0  0  0  0  0  0999 V2000
    2.2026   -0.7213   -0.2612 C   0  0  0  0  0  0  0  0  0  0  0  0
    1.5384    0.2638    0.6915 C   0  0  0  0  0  0  0  0  0  0  0  0
    2.2584    1.5946    0.7694 C   0  0  0  0  0  0  0  0  0  0  0  0
    2.2212    2.2185   -0.4893 O   0  0  0  0  0  0  0  0  0  0  0  0
    2.8988    3.4488   -0.5204 C   0  0  0  0  0  0  0  0  0  0  0  0
    2.7981    4.0296   -1.9118 C   0  0  0  0  0  0  0  0  0  0  0  0
    3.2294   -0.9309    0.0486 H   0  0  0  0  0  0  0  0  0  0  0  0
    2.2338   -0.3181   -1.2734 H   0  0  0  0  0  0  0  0  0  0  0  0
    1.6610   -1.6680   -0.2875 H   0  0  0  0  0  0  0  0  0  0  0  0
    1.4990   -0.1566    1.7002 H   0  0  0  0  0  0  0  0  0  0  0  0
    0.5055    0.4455    0.3835 H   0  0  0  0  0  0  0  0  0  0  0  0
    3.3038    1.4410    1.0808 H   0  0  0  0  0  0  0  0  0  0  0  0
    1.7844    2.2410    1.5226 H   0  0  0  0  0  0  0  0  0  0  0  0
    2.4596    4.1376    0.2164 H   0  0  0  0  0  0  0  0  0  0  0  0
    3.9524    3.3035   -0.2397 H   0  0  0  0  0  0  0  0  0  0  0  0
    1.7543    4.1869   -2.1856 H   0  0  0  0  0  0  0  0  0  0  0  0
    3.2472    3.3545   -2.6411 H   0  0  0  0  0  0  0  0  0  0  0  0
    3.3178    4.9878   -1.9600 H   0  0  0  0  0  0  0  0  0  0  0  0
  1  2  1  0
  1  7  1  0
  1  8  1  0
  1  9  1  0
  2  3  1  0
  2 10  1  0
  2 11  1  0
  3  4  1  0
  3 12  1  0
  3 13  1  0
  4  5  1  0
  5  6  1  0
  5 14  1  0
  5 15  1  0
  6 16  1  0
  6 17  1  0
  6 18  1  0
M  END
>  <reaction>  (1) 
rmg_rxn_207

>  <mol_properties>  (1) 
{"1": {"label": "donator", "atom_type": "Cs"}, "9": {"label": "d_hydrogen", "atom_type": "H0"}}

>  <type>  (1) 
r1h

$$$$

     RDKit          3D

  9  8  0  0  0  0  0  0  0  0999 V2000
    1.3246   -0.8124   -0.0809 C   0  0  0  0  0  2  0  0  0  0  0  0
    0.4082    0.3080    0.1518 C   0  0  0  0  0  0  0  0  0  0  0  0
   -1.0545   -0.0277   -0.1520 C   0  0  0  0  0  0  0  0  0  0  0  0
    2.3933   -0.9471    0.0203 H   0  0  0  0  0  0  0  0  0  0  0  0
    0.4898    0.6406    1.1970 H   0  0  0  0  0  0  0  0  0  0  0  0
    0.7134    1.1680   -0.4624 H   0  0  0  0  0  0  0  0  0  0  0  0
   -1.4014   -0.8515    0.4727 H   0  0  0  0  0  0  0  0  0  0  0  0
   -1.1767   -0.3214   -1.1952 H   0  0  0  0  0  0  0  0  0  0  0  0
   -1.6915    0.8372    0.0370 H   0  0  0  0  0  0  0  0  0  0  0  0
  1  2  1  0
  1  4  1  0
  2  3  1  0
  2  5  1  0
  2  6  1  0
  3  7  1  0
  3  8  1  0
  3  9  1  0
M  RAD  1   1   3
M  END
>  <reaction>  (2) 
rmg_rxn_207

>  <mol_properties>  (2) 
{"0": {"label": "acceptor", "atom_type": "Cs"}}

>  <type>  (2) 
r2

$$$$

     RDKit          3D

 10  9  0  0  0  0  0  0  0  0999 V2000
    1.4352    0.2660   -0.1351 C   0  0  0  0  0  3  0  0  0  0  0  0
    0.2236   -0.3243    0.4850 C   0  0  0  0  0  0  0  0  0  0  0  0
   -0.8893    0.6872    0.7364 C   0  0  0  0  0  0  0  0  0  0  0  0
    2.3577   -0.2958   -0.1940 H   0  0  0  0  0  0  0  0  0  0  0  0
    1.3935    1.2286   -0.6287 H   0  0  0  0  0  0  0  0  0  0  0  0
   -0.1633   -1.1318   -0.1556 H   0  0  0  0  0  0  0  0  0  0  0  0
    0.4945   -0.8215    1.4240 H   0  0  0  0  0  0  0  0  0  0  0  0
   -1.1991    1.1627   -0.1967 H   0  0  0  0  0  0  0  0  0  0  0  0
   -1.7660    0.2103    1.1768 H   0  0  0  0  0  0  0  0  0  0  0  0
   -0.5545    1.4732    1.4159 H   0  0  0  0  0  0  0  0  0  0  0  0
  1  2  1  0
  1  4  1  0
  1  5  1  0
  2  3  1  0
  2  6  1  0
  2  7  1  0
  3  8  1  0
  3  9  1  0
  3 10  1  0
M  RAD  1   1   2
M  END
>  <reaction>  (3) 
rmg_rxn_207

>  <mol_properties>  (3) 
{"0": {"label": "acceptor", "atom_type": "Cs"}, "9": {"label": "a_hydrogen", "atom_type": "H0"}}

>  <type>  (3) 
r2h

$$$$

     RDKit          3D

 27 25  0  0  0  0  0  0  0  0999 V2000
    2.1998   -1.9023   -0.4938 C   0  0  0  0  0  2  0  0  0  0  0  0
    2.3027   -2.8412    0.6428 C   0  0  0  0  0  0  0  0  0  0  0  0
    0.9992   -3.0133    1.4200 C   0  0  0  0  0  0  0  0  0  0  0  0
    2.9974   -1.6900   -1.1973 H   0  0  0  0  0  0  0  0  0  0  0  0
    2.6401   -3.8225    0.2801 H   0  0  0  0  0  0  0  0  0  0  0  0
    3.0911   -2.5021    1.3306 H   0  0  0  0  0  0  0  0  0  0  0  0
    0.2091   -3.3977    0.7730 H   0  0  0  0  0  0  0  0  0  0  0  0
    0.6605   -2.0591    1.8281 H   0  0  0  0  0  0  0  0  0  0  0  0
    1.1278   -3.7092    2.2498 H   0  0  0  0  0  0  0  0  0  0  0  0
   -0.1240   -0.2248   -2.3664 C   0  0  0  0  0  0  0  0  0  0  0  0
   -0.0737   -0.5594   -0.8979 C   0  0  0  0  0  0  0  0  0  0  0  0
    0.0384    0.6122    0.0368 C   0  0  0  0  0  0  0  0  0  0  0  0
   -1.1358    1.3882   -0.0350 O   0  0  0  0  0  0  0  0  0  0  0  0
   -1.1018    2.5193    0.7992 C   0  0  0  0  0  0  0  0  0  0  0  0
   -2.3983    3.2802    0.6463 C   0  0  0  0  0  0  0  0  0  0  0  0
    0.7371    0.3821   -2.6574 H   0  0  0  0  0  0  0  0  0  0  0  0
   -1.0261    0.3452   -2.6028 H   0  0  0  0  0  0  0  0  0  0  0  0
   -0.1240   -1.1288   -2.9772 H   0  0  0  0  0  0  0  0  0  0  0  0
    1.0149   -1.2246   -0.7029 H   0  0  0  0  0  0  0  0  0  0  0  0
   -0.8552   -1.2538   -0.5870 H   0  0  0  0  0  0  0  0  0  0  0  0
    0.9110    1.2262   -0.2351 H   0  0  0  0  0  0  0  0  0  0  0  0
    0.1942    0.2627    1.0680 H   0  0  0  0  0  0  0  0  0  0  0  0
   -0.9584    2.2095    1.8450 H   0  0  0  0  0  0  0  0  0  0  0  0
   -0.2470    3.1573    0.5304 H   0  0  0  0  0  0  0  0  0  0  0  0
   -3.2450    2.6523    0.9258 H   0  0  0  0  0  0  0  0  0  0  0  0
   -2.5338    3.6004   -0.3873 H   0  0  0  0  0  0  0  0  0  0  0  0
   -2.3957    4.1642    1.2860 H   0  0  0  0  0  0  0  0  0  0  0  0
  1  2  1  0
  1  4  1  0
  2  3  1  0
  2  5  1  0
  2  6  1  0
  3  7  1  0
  3  8  1  0
  3  9  1  0
 10 11  1  0
 10 16  1  0
 10 17  1  0
 10 18  1  0
 11 12  1  0
 11 19  1  0
 11 20  1  0
 12 13  1  0
 12 21  1  0
 12 22  1  0
 13 14  1  0
 14 15  1  0
 14 23  1  0
 14 24  1  0
 15 25  1  0
 15 26  1  0
 15 27  1  0
M  RAD  1   1   3
M  END
>  <reaction>  (4) 
rmg_rxn_207

>  <mol_properties>  (4) 
{"0": {"label": "*3", "atom_type": "Cs"}, "1": {"label": "*4", "atom_type": "Cs"}, "10": {"label": "*1", "atom_type": "Cs"}, "11": {"label": "*0", "atom_type": "Cs"}, "18": {"label": "*2", "atom_type": "H0"}}

>  <type>  (4) 
ts

$$$$
