
     RDKit          3D

  9  8  0  0  0  0  0  0  0  0999 V2000
   -1.5470   -0.0755   -0.1976 C   0  0  0  0  0  0  0  0  0  0  0  0
   -0.2885    0.4507    0.1749 O   0  0  0  0  0  0  0  0  0  0  0  0
   -0.1502    1.7216   -0.3294 N   0  0  0  0  0  0  0  0  0  0  0  0
    0.9626    2.2353   -0.0219 C   0  0  0  0  0  0  0  0  0  0  0  0
   -1.6392   -0.1356   -1.2844 H   0  0  0  0  0  0  0  0  0  0  0  0
   -2.3597    0.5337    0.2044 H   0  0  0  0  0  0  0  0  0  0  0  0
   -1.5879   -1.0750    0.2318 H   0  0  0  0  0  0  0  0  0  0  0  0
    1.1497    3.2381   -0.3820 H   0  0  0  0  0  0  0  0  0  0  0  0
    1.7060    1.7101    0.5739 H   0  0  0  0  0  0  0  0  0  0  0  0
  1  2  1  0
  1  5  1  0
  1  6  1  0
  1  7  1  0
  2  3  1  0
  3  4  2  3
  4  8  1  0
  4  9  1  0
M  END
>  <reaction>  (1) 
rmg_rxn_15710

>  <mol_properties>  (1) 
{"0": {"label": "donator", "atom_type": "Cs"}, "4": {"label": "d_hydrogen", "atom_type": "H0"}}

>  <type>  (1) 
r1h

$$$$

     RDKit          3D

 11 10  0  0  0  0  0  0  0  0999 V2000
   -1.3338    0.1639    0.5181 C   0  0  0  0  0  0  0  0  0  0  0  0
   -0.3239    0.1101   -0.5684 C   0  0  0  0  0  3  0  0  0  0  0  0
    0.9657   -0.6072   -0.3852 C   0  0  0  0  0  0  0  0  0  0  0  0
    1.6686   -0.2149    0.7868 O   0  0  0  0  0  0  0  0  0  0  0  0
   -0.8577    0.1686    1.5000 H   0  0  0  0  0  0  0  0  0  0  0  0
   -1.9752    1.0431    0.4339 H   0  0  0  0  0  0  0  0  0  0  0  0
   -1.9957   -0.7141    0.4872 H   0  0  0  0  0  0  0  0  0  0  0  0
   -0.6101    0.4054   -1.5710 H   0  0  0  0  0  0  0  0  0  0  0  0
    0.7976   -1.6846   -0.2560 H   0  0  0  0  0  0  0  0  0  0  0  0
    1.5948   -0.4872   -1.2750 H   0  0  0  0  0  0  0  0  0  0  0  0
    1.7856    0.7366    0.7517 H   0  0  0  0  0  0  0  0  0  0  0  0
  1  2  1  0
  1  5  1  0
  1  6  1  0
  1  7  1  0
  2  3  1  0
  2  8  1  0
  3  4  1  0
  3  9  1  0
  3 10  1  0
  4 11  1  0
M  RAD  1   2   2
M  END
>  <reaction>  (2) 
rmg_rxn_15710

>  <mol_properties>  (2) 
{"1": {"label": "acceptor", "atom_type": "Cs"}}

>  <type>  (2) 
r2

$$$$

     RDKit          3D

 12 11  0  0  0  0  0  0  0  0999 V2000
   -1.4643   -0.2505   -0.5284 C   0  0  0  0  0  0  0  0  0  0  0  0
   -0.3946    0.4302    0.3143 C   0  0  0  0  0  0  0  0  0  0  0  0
   -0.5959    0.2382    1.8102 C   0  0  0  0  0  0  0  0  0  0  0  0
   -0.5633   -1.1190    2.2092 O   0  0  0  0  0  0  0  0  0  0  0  0
   -2.4511    0.1644   -0.3109 H   0  0  0  0  0  0  0  0  0  0  0  0
   -1.5019   -1.3198   -0.3181 H   0  0  0  0  0  0  0  0  0  0  0  0
   -1.2720   -0.1182   -1.5941 H   0  0  0  0  0  0  0  0  0  0  0  0
    0.5965    0.0515    0.0385 H   0  0  0  0  0  0  0  0  0  0  0  0
   -0.3776    1.5047    0.1078 H   0  0  0  0  0  0  0  0  0  0  0  0
   -1.5821    0.6048    2.1034 H   0  0  0  0  0  0  0  0  0  0  0  0
    0.1495    0.8220    2.3649 H   0  0  0  0  0  0  0  0  0  0  0  0
    0.3017   -1.4750    1.9997 H   0  0  0  0  0  0  0  0  0  0  0  0
  1  2  1  0
  1  5  1  0
  1  6  1  0
  1  7  1  0
  2  3  1  0
  2  8  1  0
  2  9  1  0
  3  4  1  0
  3 10  1  0
  3 11  1  0
  4 12  1  0
M  END
>  <reaction>  (3) 
rmg_rxn_15710

>  <mol_properties>  (3) 
{"0": {"label": "a_hydrogen", "atom_type": "H0"}, "2": {"label": "acceptor", "atom_type": "Cs"}}

>  <type>  (3) 
r2h

$$$$

     RDKit          3D

 20 18  0  0  0  0  0  0  0  0999 V2000
   -0.4229   -1.4985   -0.8492 C   0  0  0  0  0  3  0  0  0  0  0  0
   -1.3873   -1.1568    0.0985 O   0  0  0  0  0  0  0  0  0  0  0  0
   -1.7527    0.1606   -0.0318 N   0  0  0  0  0  0  0  0  0  0  0  0
   -2.6805    0.4863    0.7618 C   0  0  0  0  0  0  0  0  0  0  0  0
    0.7325   -0.8278   -0.5798 H   0  0  0  0  0  0  0  0  0  0  0  0
   -0.6993   -1.2097   -1.8633 H   0  0  0  0  0  0  0  0  0  0  0  0
   -0.2066   -2.5564   -0.7320 H   0  0  0  0  0  0  0  0  0  0  0  0
   -3.0113    1.5154    0.7230 H   0  0  0  0  0  0  0  0  0  0  0  0
   -3.1304   -0.2212    1.4536 H   0  0  0  0  0  0  0  0  0  0  0  0
    2.5721   -0.9719    0.7563 C   0  0  0  0  0  0  0  0  0  0  0  0
    1.8417   -0.1408   -0.2653 C   0  0  0  0  0  0  0  0  0  0  0  0
    1.3626    1.2073    0.2115 C   0  0  0  0  0  0  0  0  0  0  0  0
    0.5728    1.8859   -0.7356 O   0  0  0  0  0  0  0  0  0  0  0  0
    1.9568   -1.1316    1.6456 H   0  0  0  0  0  0  0  0  0  0  0  0
    2.8436   -1.9497    0.3554 H   0  0  0  0  0  0  0  0  0  0  0  0
    3.4970   -0.4839    1.0828 H   0  0  0  0  0  0  0  0  0  0  0  0
    2.3467   -0.0751   -1.2302 H   0  0  0  0  0  0  0  0  0  0  0  0
    0.8250    1.0881    1.1637 H   0  0  0  0  0  0  0  0  0  0  0  0
    2.2244    1.8534    0.4167 H   0  0  0  0  0  0  0  0  0  0  0  0
   -0.2782    1.4306   -0.7711 H   0  0  0  0  0  0  0  0  0  0  0  0
  1  2  1  0
  1  6  1  0
  1  7  1  0
  2  3  1  0
  3  4  2  3
  4  8  1  0
  4  9  1  0
  5 11  1  0
 10 11  1  0
 10 14  1  0
 10 15  1  0
 10 16  1  0
 11 12  1  0
 11 17  1  0
 12 13  1  0
 12 18  1  0
 12 19  1  0
 13 20  1  0
M  RAD  1   1   2
M  END
>  <reaction>  (4) 
rmg_rxn_15710

>  <mol_properties>  (4) 
{"0": {"label": "*3", "atom_type": "Cs"}, "1": {"label": "*4", "atom_type": "O2s"}, "4": {"label": "*2", "atom_type": "H0"}, "10": {"label": "*1", "atom_type": "Cs"}, "11": {"label": "*0", "atom_type": "Cs"}}

>  <type>  (4) 
ts

$$$$
