
     RDKit          3D

  4  3  0  0  0  0  0  0  0  0999 V2000
    0.0000    0.0000    0.8837 N   0  0  0  0  0  1  0  0  0  0  0  0
    0.0000    0.0000   -0.5697 N   0  0  0  0  0  0  0  0  0  0  0  0
    0.0000    0.8720   -1.0992 H   0  0  0  0  0  0  0  0  0  0  0  0
    0.0000   -0.8720   -1.0992 H   0  0  0  0  0  0  0  0  0  0  0  0
  1  2  1  0
  2  3  1  0
  2  4  1  0
M  RAD  1   1   3
M  END
>  <reaction>  (1) 
rmg_rxn_1066

>  <mol_properties>  (1) 
{"1": {"label": "donator", "atom_type": "N3s"}, "2": {"label": "d_hydrogen", "atom_type": "H0"}}

>  <type>  (1) 
r1h

$$$$

     RDKit          3D

  5  4  0  0  0  0  0  0  0  0999 V2000
    1.0414   -0.2152    0.0000 C   0  0  0  0  0  0  0  0  0  0  0  0
    0.0000    0.5432    0.0000 N   0  0  0  0  0  0  0  0  0  0  0  0
   -1.1618   -0.1793    0.0000 O   0  0  0  0  0  1  0  0  0  0  0  0
    2.0423    0.2423    0.0000 H   0  0  0  0  0  0  0  0  0  0  0  0
    1.0038   -1.3196    0.0000 H   0  0  0  0  0  0  0  0  0  0  0  0
  1  2  2  3
  1  4  1  0
  1  5  1  0
  2  3  1  0
M  RAD  1   3   2
M  END
>  <reaction>  (2) 
rmg_rxn_1066

>  <mol_properties>  (2) 
{"0": {"label": "acceptor", "atom_type": "Cs"}}

>  <type>  (2) 
r2

$$$$

     RDKit          3D

  6  5  0  0  0  0  0  0  0  0999 V2000
   -1.0966    0.1399   -0.0008 C   0  0  0  0  0  0  0  0  0  0  0  0
    0.2172   -0.5441   -0.0038 N   0  0  0  0  0  0  0  0  0  0  0  0
    1.1593    0.2558   -0.0001 O   0  0  0  0  0  0  0  0  0  0  0  0
   -1.6805   -0.1384   -0.8813 H   0  0  0  0  0  0  0  0  0  0  0  0
   -0.9115    1.2159    0.0041 H   0  0  0  0  0  0  0  0  0  0  0  0
   -1.6230   -0.1547    0.9092 H   0  0  0  0  0  0  0  0  0  0  0  0
  1  2  1  0
  1  4  1  0
  1  5  1  0
  1  6  1  0
  2  3  2  0
M  END
>  <reaction>  (3) 
rmg_rxn_1066

>  <mol_properties>  (3) 
{"0": {"label": "a_hydrogen", "atom_type": "H0"}, "1": {"label": "acceptor", "atom_type": "Cs"}}

>  <type>  (3) 
r2h

$$$$

     RDKit          3D

  9  7  0  0  0  0  0  0  0  0999 V2000
    1.2892   -0.8095    0.2938 N   0  0  0  0  0  1  0  0  0  0  0  0
    1.6534    0.1896   -0.2233 N   0  0  0  0  0  0  0  0  0  0  0  0
    0.7223    1.0329   -0.3177 H   0  0  0  0  0  0  0  0  0  0  0  0
    2.6158    0.3205   -0.5715 H   0  0  0  0  0  0  0  0  0  0  0  0
   -0.6679    1.2085    0.0365 C   0  0  0  0  0  0  0  0  0  0  0  0
   -0.8853   -0.0748    0.3479 N   0  0  0  0  0  0  0  0  0  0  0  0
   -1.5009   -0.8994   -0.2882 O   0  0  0  0  0  1  0  0  0  0  0  0
   -0.5516    1.8621    0.8930 H   0  0  0  0  0  0  0  0  0  0  0  0
   -1.1729    1.5917   -0.8457 H   0  0  0  0  0  0  0  0  0  0  0  0
  1  2  1  0
  2  3  1  0
  2  4  1  0
  5  6  2  3
  5  8  1  0
  5  9  1  0
  6  7  1  0
M  RAD  2   1   3   7   2
M  END
>  <reaction>  (4) 
rmg_rxn_1066

>  <mol_properties>  (4) 
{"0": {"label": "*0", "atom_type": "N3s"}, "1": {"label": "*1", "atom_type": "N3s"}, "2": {"label": "*2", "atom_type": "H0"}, "4": {"label": "*3", "atom_type": "Cd"}, "5": {"label": "*4", "atom_type": "N3d"}}

>  <type>  (4) 
ts

$$$$
