
     RDKit          3D

 10  9  0  0  0  0  0  0  0  0999 V2000
    2.0403   -0.0576    0.0117 C   0  0  0  0  0  0  0  0  0  0  0  0
    0.5945   -0.0168    0.1897 C   0  0  0  0  0  0  0  0  0  0  0  0
   -0.5945    0.0168    0.3361 C   0  0  0  0  0  0  0  0  0  0  0  0
   -2.0403    0.0576    0.5141 C   0  0  0  0  0  0  0  0  0  0  0  0
    2.4704    0.9425    0.0886 H   0  0  0  0  0  0  0  0  0  0  0  0
    2.3007   -0.4623   -0.9678 H   0  0  0  0  0  0  0  0  0  0  0  0
    2.5086   -0.6855    0.7715 H   0  0  0  0  0  0  0  0  0  0  0  0
   -2.3710    1.0616    0.7853 H   0  0  0  0  0  0  0  0  0  0  0  0
   -2.3547   -0.6262    1.3045 H   0  0  0  0  0  0  0  0  0  0  0  0
   -2.5540   -0.2301   -0.4048 H   0  0  0  0  0  0  0  0  0  0  0  0
  1  2  1  0
  1  5  1  0
  1  6  1  0
  1  7  1  0
  2  3  3  0
  3  4  1  0
  4  8  1  0
  4  9  1  0
  4 10  1  0
M  END
>  <reaction>  (1) 
rmg_rxn_50

>  <mol_properties>  (1) 
{"3": {"label": "donator", "atom_type": "Cs"}, "9": {"label": "d_hydrogen", "atom_type": "H0"}}

>  <type>  (1) 
r1h

$$$$

     RDKit          3D

  8  7  0  0  0  0  0  0  0  0999 V2000
   -0.9728    0.1768    0.1542 C   0  0  0  0  0  0  0  0  0  0  0  0
    0.4518   -0.2348    0.0047 C   0  0  0  0  0  3  0  0  0  0  0  0
    1.3116    0.0208    0.9062 N   0  0  0  0  0  2  0  0  0  0  0  0
    2.5018   -0.1901    1.0428 O   0  0  0  0  0  1  0  0  0  0  0  0
   -1.2701    0.8423   -0.6593 H   0  0  0  0  0  0  0  0  0  0  0  0
   -1.6318   -0.6936    0.1212 H   0  0  0  0  0  0  0  0  0  0  0  0
   -1.1258    0.6936    1.1003 H   0  0  0  0  0  0  0  0  0  0  0  0
    0.7882   -0.7655   -0.8838 H   0  0  0  0  0  0  0  0  0  0  0  0
  1  2  1  0
  1  7  1  0
  1  6  1  0
  1  5  1  0
  2  3  1  0
  2  8  1  0
  3  4  1  0
M  RAD  3   2   2   3   2   4   2
M  END
>  <reaction>  (2) 
rmg_rxn_50

>  <mol_properties>  (2) 
{"3": {"label": "acceptor", "atom_type": "O2s"}}

>  <type>  (2) 
r2

$$$$

     RDKit          3D

  9  8  0  0  0  0  0  0  0  0999 V2000
   -1.2461    0.5037    0.0950 C   0  0  0  0  0  0  0  0  0  0  0  0
   -0.0155   -0.3334    0.0640 C   0  0  0  0  0  0  0  0  0  0  0  0
    1.0697    0.1457   -0.3733 N   0  0  0  0  0  0  0  0  0  0  0  0
    2.1001   -0.7834   -0.3224 O   0  0  0  0  0  0  0  0  0  0  0  0
   -2.0357    0.0440   -0.5039 H   0  0  0  0  0  0  0  0  0  0  0  0
   -1.6237    0.5897    1.1166 H   0  0  0  0  0  0  0  0  0  0  0  0
   -1.0397    1.4998   -0.2929 H   0  0  0  0  0  0  0  0  0  0  0  0
   -0.0537   -1.3634    0.4205 H   0  0  0  0  0  0  0  0  0  0  0  0
    2.8478   -0.2985   -0.6758 H   0  0  0  0  0  0  0  0  0  0  0  0
  1  2  1  0
  1  5  1  0
  1  6  1  0
  1  7  1  0
  2  3  2  3
  2  8  1  0
  3  4  1  0
  4  9  1  0
M  END
>  <reaction>  (3) 
rmg_rxn_50

>  <mol_properties>  (3) 
{"3": {"label": "acceptor", "atom_type": "O2s"}, "8": {"label": "a_hydrogen", "atom_type": "H0"}}

>  <type>  (3) 
r2h

$$$$

     RDKit          3D

 18 16  0  0  0  0  0  0  0  0999 V2000
   -2.1688    1.8820    0.1523 C   0  0  0  0  0  0  0  0  0  0  0  0
   -1.2747    1.4328    1.2565 C   0  0  0  0  0  0  0  0  0  0  0  0
   -0.3985    0.5398    1.0461 N   0  0  0  0  0  0  0  0  0  0  0  0
    0.3691    0.1713    2.0432 O   0  0  0  0  0  0  0  0  0  0  0  0
   -3.2173    1.7088    0.4072 H   0  0  0  0  0  0  0  0  0  0  0  0
   -2.0533    2.9535   -0.0288 H   0  0  0  0  0  0  0  0  0  0  0  0
   -1.9348    1.3422   -0.7643 H   0  0  0  0  0  0  0  0  0  0  0  0
   -1.3772    1.8757    2.2472 H   0  0  0  0  0  0  0  0  0  0  0  0
    0.0261   -1.1880   -2.7526 C   0  0  0  0  0  0  0  0  0  0  0  0
    0.6861   -1.3559   -1.4701 C   0  0  0  0  0  3  0  0  0  0  0  0
    1.2405   -1.5014   -0.4055 C   0  0  0  0  0  0  0  0  0  0  0  0
    1.8002   -1.5738    0.8819 C   0  0  0  0  0  0  0  0  0  0  0  0
    0.1335   -0.1631   -3.1115 H   0  0  0  0  0  0  0  0  0  0  0  0
   -1.0380   -1.4163   -2.6727 H   0  0  0  0  0  0  0  0  0  0  0  0
    0.4594   -1.8551   -3.5009 H   0  0  0  0  0  0  0  0  0  0  0  0
    2.8209   -1.2093    0.9752 H   0  0  0  0  0  0  0  0  0  0  0  0
    1.6163   -2.4975    1.4264 H   0  0  0  0  0  0  0  0  0  0  0  0
    1.1010   -0.6842    1.5548 H   0  0  0  0  0  0  0  0  0  0  0  0
  1  2  1  0
  1  5  1  0
  1  6  1  0
  1  7  1  0
  2  3  2  3
  2  8  1  0
  3  4  1  0
  4 18  1  0
  9 10  1  0
  9 13  1  0
  9 14  1  0
  9 15  1  0
 10 11  2  0
 11 12  2  0
 12 16  1  0
 12 17  1  0
M  RAD  1  10   2
M  END
>  <reaction>  (4) 
rmg_rxn_50

>  <mol_properties>  (4) 
{"2": {"label": "*0", "atom_type": "N3d"}, "3": {"label": "*1", "atom_type": "O2s"}, "10": {"label": "*4", "atom_type": "Cdd"}, "11": {"label": "*3", "atom_type": "Cd"}, "17": {"label": "*2", "atom_type": "H0"}}

>  <type>  (4) 
ts

$$$$
