
     RDKit          3D

 18 17  0  0  0  0  0  0  0  0999 V2000
    2.3520    0.9498    0.2303 C   0  0  0  0  0  0  0  0  0  0  0  0
    1.9456   -0.3826   -0.3833 C   0  0  0  0  0  0  0  0  0  0  0  0
    0.6129   -0.8880    0.1586 C   0  0  0  0  0  0  0  0  0  0  0  0
   -0.4216    0.0223   -0.2088 O   0  0  0  0  0  0  0  0  0  0  0  0
   -1.6937   -0.3990    0.2766 C   0  0  0  0  0  0  0  0  0  0  0  0
   -2.7315    0.6179   -0.1548 C   0  0  0  0  0  0  0  0  0  0  0  0
    2.4361    0.8699    1.3188 H   0  0  0  0  0  0  0  0  0  0  0  0
    1.6247    1.7340   -0.0020 H   0  0  0  0  0  0  0  0  0  0  0  0
    3.3238    1.2651   -0.1628 H   0  0  0  0  0  0  0  0  0  0  0  0
    2.7250   -1.1255   -0.1814 H   0  0  0  0  0  0  0  0  0  0  0  0
    1.8763   -0.2576   -1.4701 H   0  0  0  0  0  0  0  0  0  0  0  0
    0.6566   -0.9798    1.2501 H   0  0  0  0  0  0  0  0  0  0  0  0
    0.3966   -1.8732   -0.2699 H   0  0  0  0  0  0  0  0  0  0  0  0
   -1.9410   -1.3825   -0.1378 H   0  0  0  0  0  0  0  0  0  0  0  0
   -1.6694   -0.4651    1.3699 H   0  0  0  0  0  0  0  0  0  0  0  0
   -2.7548    0.7058   -1.2461 H   0  0  0  0  0  0  0  0  0  0  0  0
   -2.4866    1.6097    0.2395 H   0  0  0  0  0  0  0  0  0  0  0  0
   -3.7268    0.3335    0.1978 H   0  0  0  0  0  0  0  0  0  0  0  0
  1  2  1  0
  1  7  1  0
  1  8  1  0
  1  9  1  0
  2  3  1  0
  2 10  1  0
  2 11  1  0
  3  4  1  0
  3 12  1  0
  3 13  1  0
  4  5  1  0
  5  6  1  0
  5 14  1  0
  5 15  1  0
  6 16  1  0
  6 17  1  0
  6 18  1  0
M  END
>  <reaction>  (1) 
rmg_rxn_1162

>  <mol_properties>  (1) 
{"2": {"label": "donator", "atom_type": "Cs"}, "11": {"label": "d_hydrogen", "atom_type": "H0"}}

>  <type>  (1) 
r1h

$$$$

     RDKit          3D

  1  0  0  0  0  0  0  0  0  0999 V2000
    0.0000    0.0000    0.0000 O   0  0  0  0  0 15  0  0  0  0  0  0
M  END
>  <reaction>  (2) 
rmg_rxn_1162

>  <mol_properties>  (2) 
{"0": {"label": "acceptor", "atom_type": "O2s"}}

>  <type>  (2) 
r2

$$$$

     RDKit          3D

  2  1  0  0  0  0  0  0  0  0999 V2000
    0.0000    0.0000    0.1079 O   0  0  0  0  0  1  0  0  0  0  0  0
    0.0000    0.0000   -0.8631 H   0  0  0  0  0  0  0  0  0  0  0  0
  1  2  1  0
M  RAD  1   1   2
M  END
>  <reaction>  (3) 
rmg_rxn_1162

>  <mol_properties>  (3) 
{"0": {"label": "acceptor", "atom_type": "O2s"}, "1": {"label": "a_hydrogen", "atom_type": "H0"}}

>  <type>  (3) 
r2h

$$$$

     RDKit          3D

 19 17  0  0  0  0  0  0  0  0999 V2000
    0.6326    2.4177   -0.3953 O   0  0  0  0  0 15  0  0  0  0  0  0
    2.1900   -0.8687   -0.8763 C   0  0  0  0  0  0  0  0  0  0  0  0
    1.8211   -0.6719    0.5897 C   0  0  0  0  0  0  0  0  0  0  0  0
    0.5355    0.0993    0.7807 C   0  0  0  0  0  0  0  0  0  0  0  0
   -0.5224   -0.5145    0.1651 O   0  0  0  0  0  0  0  0  0  0  0  0
   -1.7625    0.1405    0.3258 C   0  0  0  0  0  0  0  0  0  0  0  0
   -2.8094   -0.5798   -0.4925 C   0  0  0  0  0  0  0  0  0  0  0  0
    2.3307    0.1034   -1.3736 H   0  0  0  0  0  0  0  0  0  0  0  0
    1.3947   -1.4096   -1.4077 H   0  0  0  0  0  0  0  0  0  0  0  0
    3.1235   -1.4408   -0.9769 H   0  0  0  0  0  0  0  0  0  0  0  0
    2.6204   -0.1319    1.1212 H   0  0  0  0  0  0  0  0  0  0  0  0
    1.7112   -1.6488    1.0919 H   0  0  0  0  0  0  0  0  0  0  0  0
    0.6871    1.1824    0.2824 H   0  0  0  0  0  0  0  0  0  0  0  0
    0.3248    0.3454    1.8418 H   0  0  0  0  0  0  0  0  0  0  0  0
   -2.0393    0.1517    1.3986 H   0  0  0  0  0  0  0  0  0  0  0  0
   -1.6521    1.1916    0.0021 H   0  0  0  0  0  0  0  0  0  0  0  0
   -2.8995   -1.6280   -0.1728 H   0  0  0  0  0  0  0  0  0  0  0  0
   -2.5432   -0.5641   -1.5590 H   0  0  0  0  0  0  0  0  0  0  0  0
   -3.7879   -0.0936   -0.3705 H   0  0  0  0  0  0  0  0  0  0  0  0
  2  3  1  0
  2  8  1  0
  2  9  1  0
  2 10  1  0
  3  4  1  0
  3 11  1  0
  3 12  1  0
  4  5  1  0
  4 13  1  0
  4 14  1  0
  5  6  1  0
  6  7  1  0
  6 15  1  0
  6 16  1  0
  7 17  1  0
  7 18  1  0
  7 19  1  0
M  END
>  <reaction>  (4) 
rmg_rxn_1162

>  <mol_properties>  (4) 
{"0": {"label": "*3", "atom_type": "O2s"}, "3": {"label": "*1", "atom_type": "Cs"}, "4": {"label": "*0", "atom_type": "O2s"}, "12": {"label": "*2", "atom_type": "H0"}}

>  <type>  (4) 
ts

$$$$
