
     RDKit          3D

 10  9  0  0  0  0  0  0  0  0999 V2000
    2.0403   -0.0572    0.0117 C   0  0  0  0  0  0  0  0  0  0  0  0
    0.5945   -0.0167    0.1897 C   0  0  0  0  0  0  0  0  0  0  0  0
   -0.5945    0.0167    0.3360 C   0  0  0  0  0  0  0  0  0  0  0  0
   -2.0403    0.0572    0.5140 C   0  0  0  0  0  0  0  0  0  0  0  0
    2.4740    0.9384    0.1199 H   0  0  0  0  0  0  0  0  0  0  0  0
    2.3002   -0.4325   -0.9795 H   0  0  0  0  0  0  0  0  0  0  0  0
    2.5055   -0.7101    0.7522 H   0  0  0  0  0  0  0  0  0  0  0  0
   -2.5536   -0.2605   -0.3952 H   0  0  0  0  0  0  0  0  0  0  0  0
   -2.3748    1.0678    0.7547 H   0  0  0  0  0  0  0  0  0  0  0  0
   -2.3514   -0.6032    1.3253 H   0  0  0  0  0  0  0  0  0  0  0  0
  1  2  1  0
  1  5  1  0
  1  6  1  0
  1  7  1  0
  2  3  3  0
  3  4  1  0
  4  8  1  0
  4  9  1  0
  4 10  1  0
M  END
>  <reaction>  (1) 
rmg_rxn_230

>  <mol_properties>  (1) 
{"3": {"label": "donator", "atom_type": "Cs"}, "9": {"label": "d_hydrogen", "atom_type": "H0"}}

>  <type>  (1) 
r1h

$$$$

     RDKit          3D

 17 16  0  0  0  0  0  0  0  0999 V2000
    2.3128   -0.1525    1.1777 C   0  0  0  0  0  3  0  0  0  0  0  0
    1.7469    0.7266    0.1254 C   0  0  0  0  0  0  0  0  0  0  0  0
    1.6374    2.1830    0.5408 C   0  0  0  0  0  0  0  0  0  0  0  0
    2.9245    2.6874    0.7877 O   0  0  0  0  0  0  0  0  0  0  0  0
    2.9227    4.0197    1.2361 C   0  0  0  0  0  0  0  0  0  0  0  0
    4.3491    4.4603    1.4693 C   0  0  0  0  0  0  0  0  0  0  0  0
    2.1393   -1.2196    1.1557 H   0  0  0  0  0  0  0  0  0  0  0  0
    3.0313    0.2400    1.8838 H   0  0  0  0  0  0  0  0  0  0  0  0
    0.7555    0.3746   -0.1764 H   0  0  0  0  0  0  0  0  0  0  0  0
    2.3678    0.6841   -0.7826 H   0  0  0  0  0  0  0  0  0  0  0  0
    1.0170    2.2718    1.4449 H   0  0  0  0  0  0  0  0  0  0  0  0
    1.1499    2.7653   -0.2546 H   0  0  0  0  0  0  0  0  0  0  0  0
    2.4379    4.6655    0.4891 H   0  0  0  0  0  0  0  0  0  0  0  0
    2.3377    4.1015    2.1638 H   0  0  0  0  0  0  0  0  0  0  0  0
    4.9261    4.3920    0.5465 H   0  0  0  0  0  0  0  0  0  0  0  0
    4.3728    5.4939    1.8180 H   0  0  0  0  0  0  0  0  0  0  0  0
    4.8260    3.8299    2.2206 H   0  0  0  0  0  0  0  0  0  0  0  0
  1  2  1  0
  1  7  1  0
  1  8  1  0
  2  3  1  0
  2  9  1  0
  2 10  1  0
  3  4  1  0
  3 11  1  0
  3 12  1  0
  4  5  1  0
  5  6  1  0
  5 13  1  0
  5 14  1  0
  6 15  1  0
  6 16  1  0
  6 17  1  0
M  RAD  1   1   2
M  END
>  <reaction>  (2) 
rmg_rxn_230

>  <mol_properties>  (2) 
{"0": {"label": "acceptor", "atom_type": "Cs"}}

>  <type>  (2) 
r2

$$$$

     RDKit          3D

 18 17  0  0  0  0  0  0  0  0999 V2000
    2.2026   -0.7213   -0.2612 C   0  0  0  0  0  0  0  0  0  0  0  0
    1.5384    0.2638    0.6915 C   0  0  0  0  0  0  0  0  0  0  0  0
    2.2584    1.5946    0.7694 C   0  0  0  0  0  0  0  0  0  0  0  0
    2.2212    2.2185   -0.4893 O   0  0  0  0  0  0  0  0  0  0  0  0
    2.8988    3.4488   -0.5204 C   0  0  0  0  0  0  0  0  0  0  0  0
    2.7981    4.0296   -1.9118 C   0  0  0  0  0  0  0  0  0  0  0  0
    3.2294   -0.9309    0.0486 H   0  0  0  0  0  0  0  0  0  0  0  0
    2.2338   -0.3181   -1.2734 H   0  0  0  0  0  0  0  0  0  0  0  0
    1.6610   -1.6680   -0.2875 H   0  0  0  0  0  0  0  0  0  0  0  0
    1.4990   -0.1566    1.7002 H   0  0  0  0  0  0  0  0  0  0  0  0
    0.5055    0.4455    0.3835 H   0  0  0  0  0  0  0  0  0  0  0  0
    3.3038    1.4410    1.0808 H   0  0  0  0  0  0  0  0  0  0  0  0
    1.7844    2.2410    1.5226 H   0  0  0  0  0  0  0  0  0  0  0  0
    2.4596    4.1376    0.2164 H   0  0  0  0  0  0  0  0  0  0  0  0
    3.9524    3.3035   -0.2397 H   0  0  0  0  0  0  0  0  0  0  0  0
    1.7543    4.1869   -2.1856 H   0  0  0  0  0  0  0  0  0  0  0  0
    3.2472    3.3545   -2.6411 H   0  0  0  0  0  0  0  0  0  0  0  0
    3.3178    4.9878   -1.9600 H   0  0  0  0  0  0  0  0  0  0  0  0
  1  2  1  0
  1  7  1  0
  1  8  1  0
  1  9  1  0
  2  3  1  0
  2 10  1  0
  2 11  1  0
  3  4  1  0
  3 12  1  0
  3 13  1  0
  4  5  1  0
  5  6  1  0
  5 14  1  0
  5 15  1  0
  6 16  1  0
  6 17  1  0
  6 18  1  0
M  END
>  <reaction>  (3) 
rmg_rxn_230

>  <mol_properties>  (3) 
{"0": {"label": "a_hydrogen", "atom_type": "H0"}, "1": {"label": "acceptor", "atom_type": "Cs"}}

>  <type>  (3) 
r2h

$$$$

     RDKit          3D

 27 25  0  0  0  0  0  0  0  0999 V2000
    1.4856    2.4520   -3.8550 C   0  0  0  0  0  0  0  0  0  0  0  0
    0.9074    2.7123   -2.5441 C   0  0  0  0  0  0  0  0  0  0  0  0
    0.4241    2.9423   -1.4663 C   0  0  0  0  0  0  0  0  0  0  0  0
   -0.1337    3.1419   -0.1663 C   0  0  0  0  0  0  0  0  0  0  0  0
    0.8332    2.8197   -4.6491 H   0  0  0  0  0  0  0  0  0  0  0  0
    1.6341    1.3816   -4.0119 H   0  0  0  0  0  0  0  0  0  0  0  0
    2.4541    2.9444   -3.9586 H   0  0  0  0  0  0  0  0  0  0  0  0
   -1.2079    3.3177   -0.1625 H   0  0  0  0  0  0  0  0  0  0  0  0
    0.3956    3.8736    0.4413 H   0  0  0  0  0  0  0  0  0  0  0  0
    0.0003    2.0342    0.5009 H   0  0  0  0  0  0  0  0  0  0  0  0
    0.1585    0.7873    1.1102 C   0  0  0  0  0  3  0  0  0  0  0  0
   -0.0414   -0.2001   -0.0042 C   0  0  0  0  0  0  0  0  0  0  0  0
    0.2018   -1.6403    0.4163 C   0  0  0  0  0  0  0  0  0  0  0  0
   -0.7315   -1.9993    1.4026 O   0  0  0  0  0  0  0  0  0  0  0  0
   -0.5683   -3.3147    1.8689 C   0  0  0  0  0  0  0  0  0  0  0  0
   -1.6159   -3.5953    2.9213 C   0  0  0  0  0  0  0  0  0  0  0  0
   -0.5966    0.7765    1.8915 H   0  0  0  0  0  0  0  0  0  0  0  0
    1.1721    0.8458    1.5041 H   0  0  0  0  0  0  0  0  0  0  0  0
    0.6375    0.0319   -0.8300 H   0  0  0  0  0  0  0  0  0  0  0  0
   -1.0578   -0.1210   -0.3981 H   0  0  0  0  0  0  0  0  0  0  0  0
    1.2252   -1.7528    0.8059 H   0  0  0  0  0  0  0  0  0  0  0  0
    0.1059   -2.3064   -0.4542 H   0  0  0  0  0  0  0  0  0  0  0  0
   -0.6634   -4.0236    1.0330 H   0  0  0  0  0  0  0  0  0  0  0  0
    0.4409   -3.4412    2.2876 H   0  0  0  0  0  0  0  0  0  0  0  0
   -2.6169   -3.4837    2.5033 H   0  0  0  0  0  0  0  0  0  0  0  0
   -1.5090   -4.6133    3.2991 H   0  0  0  0  0  0  0  0  0  0  0  0
   -1.5127   -2.9025    3.7571 H   0  0  0  0  0  0  0  0  0  0  0  0
  1  2  1  0
  1  5  1  0
  1  6  1  0
  1  7  1  0
  2  3  3  0
  3  4  1  0
  4  8  1  0
  4  9  1  0
  4 10  1  0
 11 12  1  0
 11 17  1  0
 11 18  1  0
 12 13  1  0
 12 19  1  0
 12 20  1  0
 13 14  1  0
 13 21  1  0
 13 22  1  0
 14 15  1  0
 15 16  1  0
 15 23  1  0
 15 24  1  0
 16 25  1  0
 16 26  1  0
 16 27  1  0
M  RAD  1  11   2
M  END
>  <reaction>  (4) 
rmg_rxn_230

>  <mol_properties>  (4) 
{"2": {"label": "*0", "atom_type": "Ct"}, "3": {"label": "*1", "atom_type": "Cs"}, "9": {"label": "*2", "atom_type": "H0"}, "10": {"label": "*3", "atom_type": "Cs"}, "11": {"label": "*4", "atom_type": "Cs"}}

>  <type>  (4) 
ts

$$$$
