
     RDKit          3D

 10  9  0  0  0  0  0  0  0  0999 V2000
    2.0861   -0.0291   -0.2114 C   0  0  0  0  0  0  0  0  0  0  0  0
    0.8590   -0.0801    0.2151 C   0  0  0  0  0  0  0  0  0  0  0  0
   -0.3701   -0.1299    0.6360 C   0  0  0  0  0  0  0  0  0  0  0  0
   -1.5792    0.1084   -0.2228 C   0  0  0  0  0  0  0  0  0  0  0  0
    2.6495    0.8968   -0.1902 H   0  0  0  0  0  0  0  0  0  0  0  0
    2.5830   -0.9114   -0.5982 H   0  0  0  0  0  0  0  0  0  0  0  0
   -0.5397   -0.3602    1.6844 H   0  0  0  0  0  0  0  0  0  0  0  0
   -2.2286   -0.7700   -0.2248 H   0  0  0  0  0  0  0  0  0  0  0  0
   -1.2946    0.3298   -1.2505 H   0  0  0  0  0  0  0  0  0  0  0  0
   -2.1655    0.9457    0.1623 H   0  0  0  0  0  0  0  0  0  0  0  0
  1  2  2  0
  1  5  1  0
  1  6  1  0
  2  3  2  0
  3  4  1  0
  3  7  1  0
  4  8  1  0
  4  9  1  0
  4 10  1  0
M  END
>  <reaction>  (1) 
rmg_rxn_15392

>  <mol_properties>  (1) 
{"2": {"label": "donator", "atom_type": "Cd"}, "6": {"label": "d_hydrogen", "atom_type": "H0"}}

>  <type>  (1) 
r1h

$$$$

     RDKit          3D

  5  4  0  0  0  0  0  0  0  0999 V2000
    0.8934    0.3742    0.4948 O   0  0  0  0  0  0  0  0  0  0  0  0
    0.1582   -0.1610   -0.5904 N   0  0  0  0  0  0  0  0  0  0  0  0
   -1.0297   -0.3739   -0.4689 C   0  0  0  0  0  3  0  0  0  0  0  0
    1.7804    0.4382    0.1306 H   0  0  0  0  0  0  0  0  0  0  0  0
   -1.8023   -0.2775    0.2859 H   0  0  0  0  0  0  0  0  0  0  0  0
  1  2  1  0
  1  4  1  0
  2  3  2  3
  3  5  1  0
M  RAD  1   3   2
M  END
>  <reaction>  (2) 
rmg_rxn_15392

>  <mol_properties>  (2) 
{"2": {"label": "acceptor", "atom_type": "Cd"}}

>  <type>  (2) 
r2

$$$$

     RDKit          3D

  6  5  0  0  0  0  0  0  0  0999 V2000
    1.2314    0.0428    0.5088 O   0  0  0  0  0  0  0  0  0  0  0  0
    0.2987    0.2341   -0.4915 N   0  0  0  0  0  0  0  0  0  0  0  0
   -0.8599   -0.1122   -0.1290 C   0  0  0  0  0  0  0  0  0  0  0  0
    2.0507    0.3401    0.1082 H   0  0  0  0  0  0  0  0  0  0  0  0
   -1.0700   -0.5112    0.8610 H   0  0  0  0  0  0  0  0  0  0  0  0
   -1.6509    0.0064   -0.8574 H   0  0  0  0  0  0  0  0  0  0  0  0
  1  2  1  0
  1  4  1  0
  2  3  2  3
  3  5  1  0
  3  6  1  0
M  END
>  <reaction>  (3) 
rmg_rxn_15392

>  <mol_properties>  (3) 
{"2": {"label": "acceptor", "atom_type": "Cd"}, "5": {"label": "a_hydrogen", "atom_type": "H0"}}

>  <type>  (3) 
r2h

$$$$

     RDKit          3D

 15 13  0  0  0  0  0  0  0  0999 V2000
   -3.4469    0.4590   -0.0140 O   0  0  0  0  0  0  0  0  0  0  0  0
   -2.1480   -0.0654   -0.0087 N   0  0  0  0  0  0  0  0  0  0  0  0
   -1.2451    0.7825   -0.0066 C   0  0  0  0  0  3  0  0  0  0  0  0
   -3.9938   -0.3302   -0.0149 H   0  0  0  0  0  0  0  0  0  0  0  0
   -1.3064    1.8698   -0.0082 H   0  0  0  0  0  0  0  0  0  0  0  0
    3.2535    1.0802    0.0090 C   0  0  0  0  0  0  0  0  0  0  0  0
    2.2110    0.2888    0.0063 C   0  0  0  0  0  0  0  0  0  0  0  0
    1.1500   -0.4331    0.0034 C   0  0  0  0  0  0  0  0  0  0  0  0
    0.9231   -1.9052    0.0043 C   0  0  0  0  0  0  0  0  0  0  0  0
    3.7076    1.4119   -0.9174 H   0  0  0  0  0  0  0  0  0  0  0  0
    3.7010    1.4141    0.9378 H   0  0  0  0  0  0  0  0  0  0  0  0
    0.0910    0.2027   -0.0012 H   0  0  0  0  0  0  0  0  0  0  0  0
    1.8694   -2.4469    0.0083 H   0  0  0  0  0  0  0  0  0  0  0  0
    0.3502   -2.2023   -0.8760 H   0  0  0  0  0  0  0  0  0  0  0  0
    0.3440   -2.2002    0.8813 H   0  0  0  0  0  0  0  0  0  0  0  0
  1  2  1  0
  1  4  1  0
  2  3  2  3
  3  5  1  0
  6  7  2  0
  6 10  1  0
  6 11  1  0
  7  8  2  0
  8  9  1  0
  8 12  1  0
  9 13  1  0
  9 14  1  0
  9 15  1  0
M  RAD  1   3   2
M  END
>  <reaction>  (4) 
rmg_rxn_15392

>  <mol_properties>  (4) 
{"1": {"label": "*4", "atom_type": "N3d"}, "2": {"label": "*3", "atom_type": "Cd"}, "6": {"label": "*0", "atom_type": "Cdd"}, "7": {"label": "*1", "atom_type": "Cd"}, "11": {"label": "*2", "atom_type": "H0"}}

>  <type>  (4) 
ts

$$$$
