
     RDKit          3D

  5  4  0  0  0  0  0  0  0  0999 V2000
    0.7361   -0.2872    0.4035 N   0  0  0  0  0  2  0  0  0  0  0  0
   -0.3891   -0.1505   -0.3131 N   0  0  0  0  0  0  0  0  0  0  0  0
    1.4909    0.0686   -0.1831 H   0  0  0  0  0  0  0  0  0  0  0  0
   -1.1819   -0.6340    0.0744 H   0  0  0  0  0  0  0  0  0  0  0  0
   -0.3592   -0.1189   -1.3223 H   0  0  0  0  0  0  0  0  0  0  0  0
  1  2  1  0
  1  3  1  0
  2  4  1  0
  2  5  1  0
M  RAD  1   1   2
M  END
>  <reaction>  (1) 
rmg_rxn_16489

>  <mol_properties>  (1) 
{"0": {"label": "donator", "atom_type": "N3s"}, "2": {"label": "d_hydrogen", "atom_type": "H0"}}

>  <type>  (1) 
r1h

$$$$

     RDKit          3D

  7  6  0  0  0  0  0  0  0  0999 V2000
   -0.6441   -0.1356    0.0624 C   0  0  0  0  0  0  0  0  0  0  0  0
    0.8523    0.0148   -0.0333 C   0  0  0  0  0  0  0  0  0  0  0  0
    1.6700   -0.6077    0.6603 N   0  0  0  0  0  2  0  0  0  0  0  0
   -1.0940    0.8275    0.3091 H   0  0  0  0  0  0  0  0  0  0  0  0
   -0.9104   -0.8656    0.8237 H   0  0  0  0  0  0  0  0  0  0  0  0
   -1.0427   -0.4545   -0.9022 H   0  0  0  0  0  0  0  0  0  0  0  0
    1.2362    0.7308   -0.7748 H   0  0  0  0  0  0  0  0  0  0  0  0
  1  2  1  0
  1  4  1  0
  1  5  1  0
  1  6  1  0
  2  3  2  0
  2  7  1  0
M  RAD  1   3   2
M  END
>  <reaction>  (2) 
rmg_rxn_16489

>  <mol_properties>  (2) 
{"2": {"label": "acceptor", "atom_type": "N3d"}}

>  <type>  (2) 
r2

$$$$

     RDKit          3D

  8  7  0  0  0  0  0  0  0  0999 V2000
    0.9548    0.1194   -0.0790 C   0  0  0  0  0  0  0  0  0  0  0  0
   -0.4838   -0.2649    0.0193 C   0  0  0  0  0  0  0  0  0  0  0  0
   -0.8933   -1.1081    0.8664 N   0  0  0  0  0  0  0  0  0  0  0  0
    1.3360   -0.0983   -1.0800 H   0  0  0  0  0  0  0  0  0  0  0  0
    1.0698    1.1948    0.0786 H   0  0  0  0  0  0  0  0  0  0  0  0
    1.5426   -0.4219    0.6602 H   0  0  0  0  0  0  0  0  0  0  0  0
   -1.1575    0.2324   -0.6905 H   0  0  0  0  0  0  0  0  0  0  0  0
   -1.8989   -1.2455    0.7886 H   0  0  0  0  0  0  0  0  0  0  0  0
  1  2  1  0
  1  4  1  0
  1  5  1  0
  1  6  1  0
  2  3  2  3
  2  7  1  0
  3  8  1  0
M  END
>  <reaction>  (3) 
rmg_rxn_16489

>  <mol_properties>  (3) 
{"0": {"label": "a_hydrogen", "atom_type": "H0"}, "3": {"label": "acceptor", "atom_type": "N3d"}}

>  <type>  (3) 
r2h

$$$$

     RDKit          3D

 12 10  0  0  0  0  0  0  0  0999 V2000
   -0.6267   -1.7374   -0.4798 N   0  0  0  0  0  2  0  0  0  0  0  0
    0.5128   -2.2000   -1.0006 N   0  0  0  0  0  0  0  0  0  0  0  0
   -0.2667   -0.7249    0.0938 H   0  0  0  0  0  0  0  0  0  0  0  0
    0.5078   -3.1900   -1.2007 H   0  0  0  0  0  0  0  0  0  0  0  0
    1.3792   -1.8545   -0.6009 H   0  0  0  0  0  0  0  0  0  0  0  0
   -0.0047    2.7385    0.1303 C   0  0  0  0  0  0  0  0  0  0  0  0
   -0.3455    1.2948   -0.0877 C   0  0  0  0  0  0  0  0  0  0  0  0
    0.2885    0.3594    0.4546 N   0  0  0  0  0  2  0  0  0  0  0  0
    0.2246    3.2123   -0.8268 H   0  0  0  0  0  0  0  0  0  0  0  0
    0.8473    2.8379    0.8000 H   0  0  0  0  0  0  0  0  0  0  0  0
   -0.8651    3.2604    0.5548 H   0  0  0  0  0  0  0  0  0  0  0  0
   -1.1928    1.0876   -0.7552 H   0  0  0  0  0  0  0  0  0  0  0  0
  1  2  1  0
  1  3  1  0
  2  4  1  0
  2  5  1  0
  6  7  1  0
  6  9  1  0
  6 10  1  0
  6 11  1  0
  7  8  2  0
  7 12  1  0
M  RAD  2   1   2   8   2
M  END
>  <reaction>  (4) 
rmg_rxn_16489

>  <mol_properties>  (4) 
{"0": {"label": "*1", "atom_type": "N3s"}, "1": {"label": "*0", "atom_type": "N3s"}, "2": {"label": "*2", "atom_type": "H0"}, "6": {"label": "*4", "atom_type": "Cd"}, "7": {"label": "*3", "atom_type": "N3d"}}

>  <type>  (4) 
ts

$$$$
