
     RDKit          3D

 18 17  0  0  0  0  0  0  0  0999 V2000
    2.2026   -0.7213   -0.2612 C   0  0  0  0  0  0  0  0  0  0  0  0
    1.5384    0.2638    0.6915 C   0  0  0  0  0  0  0  0  0  0  0  0
    2.2584    1.5946    0.7694 C   0  0  0  0  0  0  0  0  0  0  0  0
    2.2212    2.2185   -0.4893 O   0  0  0  0  0  0  0  0  0  0  0  0
    2.8988    3.4488   -0.5204 C   0  0  0  0  0  0  0  0  0  0  0  0
    2.7981    4.0296   -1.9118 C   0  0  0  0  0  0  0  0  0  0  0  0
    3.2294   -0.9309    0.0486 H   0  0  0  0  0  0  0  0  0  0  0  0
    2.2338   -0.3181   -1.2734 H   0  0  0  0  0  0  0  0  0  0  0  0
    1.6610   -1.6680   -0.2875 H   0  0  0  0  0  0  0  0  0  0  0  0
    1.4990   -0.1566    1.7002 H   0  0  0  0  0  0  0  0  0  0  0  0
    0.5055    0.4455    0.3835 H   0  0  0  0  0  0  0  0  0  0  0  0
    3.3038    1.4410    1.0808 H   0  0  0  0  0  0  0  0  0  0  0  0
    1.7844    2.2410    1.5226 H   0  0  0  0  0  0  0  0  0  0  0  0
    2.4596    4.1376    0.2164 H   0  0  0  0  0  0  0  0  0  0  0  0
    3.9524    3.3035   -0.2397 H   0  0  0  0  0  0  0  0  0  0  0  0
    1.7543    4.1869   -2.1856 H   0  0  0  0  0  0  0  0  0  0  0  0
    3.2472    3.3545   -2.6411 H   0  0  0  0  0  0  0  0  0  0  0  0
    3.3178    4.9878   -1.9600 H   0  0  0  0  0  0  0  0  0  0  0  0
  1  2  1  0
  1  7  1  0
  1  8  1  0
  1  9  1  0
  2  3  1  0
  2 10  1  0
  2 11  1  0
  3  4  1  0
  3 12  1  0
  3 13  1  0
  4  5  1  0
  5  6  1  0
  5 14  1  0
  5 15  1  0
  6 16  1  0
  6 17  1  0
  6 18  1  0
M  END
>  <reaction>  (1) 
rmg_rxn_247

>  <mol_properties>  (1) 
{"1": {"label": "donator", "atom_type": "Cs"}, "9": {"label": "d_hydrogen", "atom_type": "H0"}}

>  <type>  (1) 
r1h

$$$$

     RDKit          3D

 17 16  0  0  0  0  0  0  0  0999 V2000
    2.3128   -0.1525    1.1777 C   0  0  0  0  0  3  0  0  0  0  0  0
    1.7469    0.7266    0.1254 C   0  0  0  0  0  0  0  0  0  0  0  0
    1.6374    2.1830    0.5408 C   0  0  0  0  0  0  0  0  0  0  0  0
    2.9245    2.6874    0.7877 O   0  0  0  0  0  0  0  0  0  0  0  0
    2.9227    4.0197    1.2361 C   0  0  0  0  0  0  0  0  0  0  0  0
    4.3491    4.4603    1.4693 C   0  0  0  0  0  0  0  0  0  0  0  0
    2.1393   -1.2196    1.1557 H   0  0  0  0  0  0  0  0  0  0  0  0
    3.0313    0.2400    1.8838 H   0  0  0  0  0  0  0  0  0  0  0  0
    0.7555    0.3746   -0.1764 H   0  0  0  0  0  0  0  0  0  0  0  0
    2.3678    0.6841   -0.7826 H   0  0  0  0  0  0  0  0  0  0  0  0
    1.0170    2.2718    1.4449 H   0  0  0  0  0  0  0  0  0  0  0  0
    1.1499    2.7653   -0.2546 H   0  0  0  0  0  0  0  0  0  0  0  0
    2.4379    4.6655    0.4891 H   0  0  0  0  0  0  0  0  0  0  0  0
    2.3377    4.1015    2.1638 H   0  0  0  0  0  0  0  0  0  0  0  0
    4.9261    4.3920    0.5465 H   0  0  0  0  0  0  0  0  0  0  0  0
    4.3728    5.4939    1.8180 H   0  0  0  0  0  0  0  0  0  0  0  0
    4.8260    3.8299    2.2206 H   0  0  0  0  0  0  0  0  0  0  0  0
  1  2  1  0
  1  7  1  0
  1  8  1  0
  2  3  1  0
  2  9  1  0
  2 10  1  0
  3  4  1  0
  3 11  1  0
  3 12  1  0
  4  5  1  0
  5  6  1  0
  5 13  1  0
  5 14  1  0
  6 15  1  0
  6 16  1  0
  6 17  1  0
M  RAD  1   1   2
M  END
>  <reaction>  (2) 
rmg_rxn_247

>  <mol_properties>  (2) 
{"0": {"label": "acceptor", "atom_type": "Cs"}}

>  <type>  (2) 
r2

$$$$

     RDKit          3D

 18 17  0  0  0  0  0  0  0  0999 V2000
    2.2026   -0.7213   -0.2612 C   0  0  0  0  0  0  0  0  0  0  0  0
    1.5384    0.2638    0.6915 C   0  0  0  0  0  0  0  0  0  0  0  0
    2.2584    1.5946    0.7694 C   0  0  0  0  0  0  0  0  0  0  0  0
    2.2212    2.2185   -0.4893 O   0  0  0  0  0  0  0  0  0  0  0  0
    2.8988    3.4488   -0.5204 C   0  0  0  0  0  0  0  0  0  0  0  0
    2.7981    4.0296   -1.9118 C   0  0  0  0  0  0  0  0  0  0  0  0
    3.2294   -0.9309    0.0486 H   0  0  0  0  0  0  0  0  0  0  0  0
    2.2338   -0.3181   -1.2734 H   0  0  0  0  0  0  0  0  0  0  0  0
    1.6610   -1.6680   -0.2875 H   0  0  0  0  0  0  0  0  0  0  0  0
    1.4990   -0.1566    1.7002 H   0  0  0  0  0  0  0  0  0  0  0  0
    0.5055    0.4455    0.3835 H   0  0  0  0  0  0  0  0  0  0  0  0
    3.3038    1.4410    1.0808 H   0  0  0  0  0  0  0  0  0  0  0  0
    1.7844    2.2410    1.5226 H   0  0  0  0  0  0  0  0  0  0  0  0
    2.4596    4.1376    0.2164 H   0  0  0  0  0  0  0  0  0  0  0  0
    3.9524    3.3035   -0.2397 H   0  0  0  0  0  0  0  0  0  0  0  0
    1.7543    4.1869   -2.1856 H   0  0  0  0  0  0  0  0  0  0  0  0
    3.2472    3.3545   -2.6411 H   0  0  0  0  0  0  0  0  0  0  0  0
    3.3178    4.9878   -1.9600 H   0  0  0  0  0  0  0  0  0  0  0  0
  1  2  1  0
  1  7  1  0
  1  8  1  0
  1  9  1  0
  2  3  1  0
  2 10  1  0
  2 11  1  0
  3  4  1  0
  3 12  1  0
  3 13  1  0
  4  5  1  0
  5  6  1  0
  5 14  1  0
  5 15  1  0
  6 16  1  0
  6 17  1  0
  6 18  1  0
M  END
>  <reaction>  (3) 
rmg_rxn_247

>  <mol_properties>  (3) 
{"0": {"label": "acceptor", "atom_type": "Cs"}, "17": {"label": "a_hydrogen", "atom_type": "H0"}}

>  <type>  (3) 
r2h

$$$$

     RDKit          3D

 35 33  0  0  0  0  0  0  0  0999 V2000
   -0.1029   -0.2382    1.4985 C   0  0  0  0  0  3  0  0  0  0  0  0
    1.1347   -0.4501    0.6669 C   0  0  0  0  0  0  0  0  0  0  0  0
    2.2380   -1.1977    1.3978 C   0  0  0  0  0  0  0  0  0  0  0  0
    1.7917   -2.4927    1.7063 O   0  0  0  0  0  0  0  0  0  0  0  0
    2.7376   -3.2527    2.4150 C   0  0  0  0  0  0  0  0  0  0  0  0
    2.1584   -4.6203    2.6935 C   0  0  0  0  0  0  0  0  0  0  0  0
   -0.6060   -1.1540    1.7992 H   0  0  0  0  0  0  0  0  0  0  0  0
    0.0189    0.4542    2.3309 H   0  0  0  0  0  0  0  0  0  0  0  0
    1.5411    0.5129    0.3441 H   0  0  0  0  0  0  0  0  0  0  0  0
    0.8857   -1.0107   -0.2388 H   0  0  0  0  0  0  0  0  0  0  0  0
    2.5107   -0.6618    2.3199 H   0  0  0  0  0  0  0  0  0  0  0  0
    3.1391   -1.2498    0.7683 H   0  0  0  0  0  0  0  0  0  0  0  0
    3.6643   -3.3397    1.8286 H   0  0  0  0  0  0  0  0  0  0  0  0
    2.9962   -2.7456    3.3562 H   0  0  0  0  0  0  0  0  0  0  0  0
    1.9143   -5.1292    1.7603 H   0  0  0  0  0  0  0  0  0  0  0  0
    2.8766   -5.2300    3.2438 H   0  0  0  0  0  0  0  0  0  0  0  0
    1.2479   -4.5357    3.2877 H   0  0  0  0  0  0  0  0  0  0  0  0
   -2.3638   -0.2427   -1.0264 C   0  0  0  0  0  0  0  0  0  0  0  0
   -1.8330    0.9043   -0.2075 C   0  0  0  0  0  0  0  0  0  0  0  0
   -0.9814    1.8971   -0.9431 C   0  0  0  0  0  0  0  0  0  0  0  0
   -1.7657    2.5995   -1.8821 O   0  0  0  0  0  0  0  0  0  0  0  0
   -1.0259    3.5294   -2.6328 C   0  0  0  0  0  0  0  0  0  0  0  0
   -1.9517    4.2221   -3.6057 C   0  0  0  0  0  0  0  0  0  0  0  0
   -1.5490   -0.7749   -1.5249 H   0  0  0  0  0  0  0  0  0  0  0  0
   -3.0486    0.1119   -1.8015 H   0  0  0  0  0  0  0  0  0  0  0  0
   -2.9015   -0.9587   -0.4028 H   0  0  0  0  0  0  0  0  0  0  0  0
   -1.0104    0.3711    0.6890 H   0  0  0  0  0  0  0  0  0  0  0  0
   -2.5914    1.3890    0.4078 H   0  0  0  0  0  0  0  0  0  0  0  0
   -0.1615    1.3758   -1.4623 H   0  0  0  0  0  0  0  0  0  0  0  0
   -0.5232    2.6054   -0.2365 H   0  0  0  0  0  0  0  0  0  0  0  0
   -0.5543    4.2630   -1.9620 H   0  0  0  0  0  0  0  0  0  0  0  0
   -0.2157    3.0162   -3.1718 H   0  0  0  0  0  0  0  0  0  0  0  0
   -2.7470    4.7430   -3.0715 H   0  0  0  0  0  0  0  0  0  0  0  0
   -2.4082    3.4971   -4.2805 H   0  0  0  0  0  0  0  0  0  0  0  0
   -1.3987    4.9503   -4.2012 H   0  0  0  0  0  0  0  0  0  0  0  0
  1  2  1  0
  1  7  1  0
  1  8  1  0
  2  3  1  0
  2  9  1  0
  2 10  1  0
  3  4  1  0
  3 11  1  0
  3 12  1  0
  4  5  1  0
  5  6  1  0
  5 13  1  0
  5 14  1  0
  6 15  1  0
  6 16  1  0
  6 17  1  0
 18 19  1  0
 18 24  1  0
 18 25  1  0
 18 26  1  0
 19 20  1  0
 19 27  1  0
 19 28  1  0
 20 21  1  0
 20 29  1  0
 20 30  1  0
 21 22  1  0
 22 23  1  0
 22 31  1  0
 22 32  1  0
 23 33  1  0
 23 34  1  0
 23 35  1  0
M  RAD  1   1   2
M  END
>  <reaction>  (4) 
rmg_rxn_247

>  <mol_properties>  (4) 
{"0": {"label": "*3", "atom_type": "Cs"}, "1": {"label": "*4", "atom_type": "Cs"}, "18": {"label": "*1", "atom_type": "Cs"}, "19": {"label": "*0", "atom_type": "Cs"}, "26": {"label": "*2", "atom_type": "H0"}}

>  <type>  (4) 
ts

$$$$
