
     RDKit          3D

  9  8  0  0  0  0  0  0  0  0999 V2000
   -1.0314    0.2323   -0.1227 C   0  0  0  0  0  0  0  0  0  0  0  0
    0.3094   -0.4511    0.0063 C   0  0  0  0  0  0  0  0  0  0  0  0
    0.3197   -1.7698    0.6841 N   0  0  0  0  0  0  0  0  0  0  0  0
   -0.7498   -2.1455    1.0557 O   0  0  0  0  0  0  0  0  0  0  0  0
   -1.4744    0.4198    0.8552 H   0  0  0  0  0  0  0  0  0  0  0  0
   -0.9073    1.1865   -0.6350 H   0  0  0  0  0  0  0  0  0  0  0  0
   -1.7319   -0.3778   -0.6927 H   0  0  0  0  0  0  0  0  0  0  0  0
    1.0375    0.1401    0.5713 H   0  0  0  0  0  0  0  0  0  0  0  0
    0.7826   -0.6494   -0.9609 H   0  0  0  0  0  0  0  0  0  0  0  0
  1  2  1  0
  1  5  1  0
  1  6  1  0
  1  7  1  0
  2  3  1  0
  2  8  1  0
  2  9  1  0
  3  4  2  0
M  END
>  <reaction>  (1) 
rmg_rxn_254

>  <mol_properties>  (1) 
{"1": {"label": "donator", "atom_type": "Cs"}, "7": {"label": "d_hydrogen", "atom_type": "H0"}}

>  <type>  (1) 
r1h

$$$$

     RDKit          3D

 13 13  0  0  0  0  0  0  0  0999 V2000
   -0.9087    1.0135    0.2744 C   0  0  0  0  0  3  0  0  0  0  0  0
   -1.1528   -0.4306   -0.0132 C   0  0  0  0  0  0  0  0  0  0  0  0
    0.1597   -1.1985    0.0580 C   0  0  0  0  0  0  0  0  0  0  0  0
    1.1497   -0.5125   -0.6902 O   0  0  0  0  0  0  0  0  0  0  0  0
    1.3593    0.7608   -0.1866 C   0  0  0  0  0  0  0  0  0  0  0  0
    0.2092    1.5798   -0.2538 O   0  0  0  0  0  0  0  0  0  0  0  0
   -1.7260    1.7182    0.3534 H   0  0  0  0  0  0  0  0  0  0  0  0
   -1.8796   -0.8393    0.6913 H   0  0  0  0  0  0  0  0  0  0  0  0
   -1.5725   -0.5507   -1.0227 H   0  0  0  0  0  0  0  0  0  0  0  0
    0.4914   -1.2968    1.1007 H   0  0  0  0  0  0  0  0  0  0  0  0
    0.0732   -2.1931   -0.3758 H   0  0  0  0  0  0  0  0  0  0  0  0
    1.6805    0.7077    0.8652 H   0  0  0  0  0  0  0  0  0  0  0  0
    2.1167    1.2415   -0.8007 H   0  0  0  0  0  0  0  0  0  0  0  0
  1  2  1  0
  1  6  1  0
  1  7  1  0
  2  3  1  0
  2  8  1  0
  2  9  1  0
  3  4  1  0
  3 10  1  0
  3 11  1  0
  4  5  1  0
  5  6  1  0
  5 12  1  0
  5 13  1  0
M  RAD  1   1   2
M  END
>  <reaction>  (2) 
rmg_rxn_254

>  <mol_properties>  (2) 
{"0": {"label": "acceptor", "atom_type": "Cs"}}

>  <type>  (2) 
r2

$$$$

     RDKit          3D

 14 14  0  0  0  0  0  0  0  0999 V2000
   -1.1778    0.2241    0.1818 C   0  0  0  0  0  0  0  0  0  0  0  0
   -0.5633   -1.1636    0.0678 C   0  0  0  0  0  0  0  0  0  0  0  0
    0.6943   -1.1996    0.7146 O   0  0  0  0  0  0  0  0  0  0  0  0
    1.5547   -0.2288    0.2011 C   0  0  0  0  0  0  0  0  0  0  0  0
    1.0729    1.0696    0.3698 O   0  0  0  0  0  0  0  0  0  0  0  0
   -0.1607    1.2493   -0.2989 C   0  0  0  0  0  0  0  0  0  0  0  0
   -2.0927    0.2866   -0.4117 H   0  0  0  0  0  0  0  0  0  0  0  0
   -1.4303    0.4248    1.2248 H   0  0  0  0  0  0  0  0  0  0  0  0
   -1.1822   -1.9235    0.5431 H   0  0  0  0  0  0  0  0  0  0  0  0
   -0.4389   -1.4347   -0.9919 H   0  0  0  0  0  0  0  0  0  0  0  0
    1.7250   -0.4207   -0.8742 H   0  0  0  0  0  0  0  0  0  0  0  0
    2.4896   -0.3010    0.7524 H   0  0  0  0  0  0  0  0  0  0  0  0
   -0.0080    1.1481   -1.3844 H   0  0  0  0  0  0  0  0  0  0  0  0
   -0.4826    2.2695   -0.0942 H   0  0  0  0  0  0  0  0  0  0  0  0
  1  2  1  0
  1  6  1  0
  1  7  1  0
  1  8  1  0
  2  3  1  0
  2  9  1  0
  2 10  1  0
  3  4  1  0
  4  5  1  0
  4 11  1  0
  4 12  1  0
  5  6  1  0
  6 13  1  0
  6 14  1  0
M  END
>  <reaction>  (3) 
rmg_rxn_254

>  <mol_properties>  (3) 
{"0": {"label": "a_hydrogen", "atom_type": "H0"}, "1": {"label": "acceptor", "atom_type": "Cs"}}

>  <type>  (3) 
r2h

$$$$

     RDKit          3D

 22 21  0  0  0  0  0  0  0  0999 V2000
   -2.1832    1.7034   -0.8348 C   0  0  0  0  0  0  0  0  0  0  0  0
   -1.6417    0.4464   -1.4644 C   0  0  0  0  0  0  0  0  0  0  0  0
   -2.4742   -0.7102   -1.5209 N   0  0  0  0  0  0  0  0  0  0  0  0
   -3.3322   -0.7657   -0.6643 O   0  0  0  0  0  0  0  0  0  0  0  0
   -2.5634    1.5035    0.1660 H   0  0  0  0  0  0  0  0  0  0  0  0
   -1.3954    2.4546   -0.7756 H   0  0  0  0  0  0  0  0  0  0  0  0
   -3.0035    2.1108   -1.4291 H   0  0  0  0  0  0  0  0  0  0  0  0
   -0.7189    0.0560   -0.7190 H   0  0  0  0  0  0  0  0  0  0  0  0
   -1.1315    0.5685   -2.4182 H   0  0  0  0  0  0  0  0  0  0  0  0
    0.3659   -0.3201    0.1826 C   0  0  0  0  0  3  0  0  0  0  0  0
    0.2209   -1.8092    0.2929 C   0  0  0  0  0  0  0  0  0  0  0  0
    1.5555   -2.4019    0.7455 C   0  0  0  0  0  0  0  0  0  0  0  0
    2.5952   -1.9162   -0.0825 O   0  0  0  0  0  0  0  0  0  0  0  0
    2.6759   -0.5357   -0.0331 C   0  0  0  0  0  0  0  0  0  0  0  0
    1.4917    0.0986   -0.4855 O   0  0  0  0  0  0  0  0  0  0  0  0
    0.1256    0.2834    1.0623 H   0  0  0  0  0  0  0  0  0  0  0  0
   -0.5800   -2.0647    0.9869 H   0  0  0  0  0  0  0  0  0  0  0  0
   -0.0332   -2.2249   -0.6857 H   0  0  0  0  0  0  0  0  0  0  0  0
    1.7611   -2.1364    1.7920 H   0  0  0  0  0  0  0  0  0  0  0  0
    1.5608   -3.4868    0.6555 H   0  0  0  0  0  0  0  0  0  0  0  0
    2.8790   -0.2017    0.9975 H   0  0  0  0  0  0  0  0  0  0  0  0
    3.4701   -0.2208   -0.7050 H   0  0  0  0  0  0  0  0  0  0  0  0
  1  2  1  0
  1  5  1  0
  1  6  1  0
  1  7  1  0
  2  3  1  0
  2  8  1  0
  2  9  1  0
  3  4  2  0
 10 11  1  0
 10 15  1  0
 10 16  1  0
 11 12  1  0
 11 17  1  0
 11 18  1  0
 12 13  1  0
 12 19  1  0
 12 20  1  0
 13 14  1  0
 14 15  1  0
 14 21  1  0
 14 22  1  0
M  RAD  1  10   2
M  END
>  <reaction>  (4) 
rmg_rxn_254

>  <mol_properties>  (4) 
{"1": {"label": "*1", "atom_type": "Cs"}, "2": {"label": "*0", "atom_type": "N3d"}, "7": {"label": "*2", "atom_type": "H0"}, "9": {"label": "*3", "atom_type": "Cs"}, "14": {"label": "*4", "atom_type": "O2s"}}

>  <type>  (4) 
ts

$$$$
