
     RDKit          3D

 14 13  0  0  0  0  0  0  0  0999 V2000
   -2.1430    0.4492    0.2556 C   0  0  0  0  0  0  0  0  0  0  0  0
   -0.8980   -0.1952    0.2757 O   0  0  0  0  0  0  0  0  0  0  0  0
   -0.3667   -0.3041    1.5713 C   0  0  0  0  0  0  0  0  0  0  0  0
    0.9667   -1.0099    1.4715 C   0  0  0  0  0  0  0  0  0  0  0  0
    1.6584   -1.1995    2.7884 C   0  0  0  0  0  0  0  0  0  0  0  0
    1.2262   -0.8381    3.8485 O   0  0  0  0  0  0  0  0  0  0  0  0
   -2.0716    1.4724    0.6470 H   0  0  0  0  0  0  0  0  0  0  0  0
   -2.8872   -0.0973    0.8495 H   0  0  0  0  0  0  0  0  0  0  0  0
   -2.4755    0.4883   -0.7805 H   0  0  0  0  0  0  0  0  0  0  0  0
   -0.2382    0.6884    2.0233 H   0  0  0  0  0  0  0  0  0  0  0  0
   -1.0467   -0.8675    2.2240 H   0  0  0  0  0  0  0  0  0  0  0  0
    1.6454   -0.4596    0.8107 H   0  0  0  0  0  0  0  0  0  0  0  0
    0.8471   -1.9957    1.0089 H   0  0  0  0  0  0  0  0  0  0  0  0
    2.6387   -1.7165    2.7294 H   0  0  0  0  0  0  0  0  0  0  0  0
  1  2  1  0
  1  7  1  0
  1  8  1  0
  1  9  1  0
  2  3  1  0
  3  4  1  0
  3 10  1  0
  3 11  1  0
  4  5  1  0
  4 12  1  0
  4 13  1  0
  5  6  2  0
  5 14  1  0
M  END
>  <reaction>  (1) 
rmg_rxn_15637

>  <mol_properties>  (1) 
{"0": {"label": "donator", "atom_type": "Cs"}, "6": {"label": "d_hydrogen", "atom_type": "H0"}}

>  <type>  (1) 
r1h

$$$$

     RDKit          3D

  8  7  0  0  0  0  0  0  0  0999 V2000
    1.7077   -0.1964   -0.0607 C   0  0  0  0  0  3  0  0  0  0  0  0
    0.4209   -0.4565    0.2808 O   0  0  0  0  0  0  0  0  0  0  0  0
   -0.4607    0.4385   -0.2968 N   0  0  0  0  0  0  0  0  0  0  0  0
   -1.6584    0.1416   -0.0244 C   0  0  0  0  0  0  0  0  0  0  0  0
    2.4163   -0.7685    0.5170 H   0  0  0  0  0  0  0  0  0  0  0  0
    1.9214    0.7645   -0.5045 H   0  0  0  0  0  0  0  0  0  0  0  0
   -2.4185    0.7953   -0.4307 H   0  0  0  0  0  0  0  0  0  0  0  0
   -1.9286   -0.7185    0.5831 H   0  0  0  0  0  0  0  0  0  0  0  0
  1  2  1  0
  1  5  1  0
  1  6  1  0
  2  3  1  0
  3  4  2  3
  4  7  1  0
  4  8  1  0
M  RAD  1   1   2
M  END
>  <reaction>  (2) 
rmg_rxn_15637

>  <mol_properties>  (2) 
{"0": {"label": "acceptor", "atom_type": "Cs"}}

>  <type>  (2) 
r2

$$$$

     RDKit          3D

  9  8  0  0  0  0  0  0  0  0999 V2000
   -1.5470   -0.0755   -0.1976 C   0  0  0  0  0  0  0  0  0  0  0  0
   -0.2885    0.4507    0.1749 O   0  0  0  0  0  0  0  0  0  0  0  0
   -0.1502    1.7216   -0.3294 N   0  0  0  0  0  0  0  0  0  0  0  0
    0.9626    2.2353   -0.0219 C   0  0  0  0  0  0  0  0  0  0  0  0
   -1.6392   -0.1356   -1.2844 H   0  0  0  0  0  0  0  0  0  0  0  0
   -2.3597    0.5337    0.2044 H   0  0  0  0  0  0  0  0  0  0  0  0
   -1.5879   -1.0750    0.2318 H   0  0  0  0  0  0  0  0  0  0  0  0
    1.1497    3.2381   -0.3820 H   0  0  0  0  0  0  0  0  0  0  0  0
    1.7060    1.7101    0.5739 H   0  0  0  0  0  0  0  0  0  0  0  0
  1  2  1  0
  1  5  1  0
  1  6  1  0
  1  7  1  0
  2  3  1  0
  3  4  2  3
  4  8  1  0
  4  9  1  0
M  END
>  <reaction>  (3) 
rmg_rxn_15637

>  <mol_properties>  (3) 
{"0": {"label": "acceptor", "atom_type": "Cs"}, "8": {"label": "a_hydrogen", "atom_type": "H0"}}

>  <type>  (3) 
r2h

$$$$

     RDKit          3D

 22 20  0  0  0  0  0  0  0  0999 V2000
   -1.2225    2.0957    0.1201 C   0  0  0  0  0  3  0  0  0  0  0  0
   -1.5942    1.4111   -1.0321 O   0  0  0  0  0  0  0  0  0  0  0  0
   -1.4083    0.0557   -0.8676 N   0  0  0  0  0  0  0  0  0  0  0  0
   -1.6504   -0.5934   -1.9244 C   0  0  0  0  0  0  0  0  0  0  0  0
   -1.4696    3.1446   -0.0190 H   0  0  0  0  0  0  0  0  0  0  0  0
   -1.6340    1.6600    1.0313 H   0  0  0  0  0  0  0  0  0  0  0  0
   -1.5179   -1.6659   -1.8687 H   0  0  0  0  0  0  0  0  0  0  0  0
   -1.9659   -0.1113   -2.8468 H   0  0  0  0  0  0  0  0  0  0  0  0
    1.4970    1.9428    0.1151 C   0  0  0  0  0  0  0  0  0  0  0  0
    2.0480    0.9564    0.9009 O   0  0  0  0  0  0  0  0  0  0  0  0
    1.7060   -0.3663    0.5316 C   0  0  0  0  0  0  0  0  0  0  0  0
    0.6413   -0.9195    1.4611 C   0  0  0  0  0  0  0  0  0  0  0  0
    0.0265   -2.2034    0.9948 C   0  0  0  0  0  0  0  0  0  0  0  0
    0.3217   -2.7846   -0.0150 O   0  0  0  0  0  0  0  0  0  0  0  0
    0.1617    2.0232    0.2202 H   0  0  0  0  0  0  0  0  0  0  0  0
    1.6419    1.7825   -0.9593 H   0  0  0  0  0  0  0  0  0  0  0  0
    1.8605    2.9132    0.4479 H   0  0  0  0  0  0  0  0  0  0  0  0
    1.3483   -0.3989   -0.5004 H   0  0  0  0  0  0  0  0  0  0  0  0
    2.6145   -0.9680    0.5895 H   0  0  0  0  0  0  0  0  0  0  0  0
   -0.1799   -0.2041    1.5582 H   0  0  0  0  0  0  0  0  0  0  0  0
    1.0346   -1.0713    2.4717 H   0  0  0  0  0  0  0  0  0  0  0  0
   -0.7635   -2.6080    1.6608 H   0  0  0  0  0  0  0  0  0  0  0  0
  1  2  1  0
  1  5  1  0
  1  6  1  0
  2  3  1  0
  3  4  2  3
  4  7  1  0
  4  8  1  0
  9 10  1  0
  9 15  1  0
  9 16  1  0
  9 17  1  0
 10 11  1  0
 11 12  1  0
 11 18  1  0
 11 19  1  0
 12 13  1  0
 12 20  1  0
 12 21  1  0
 13 14  2  0
 13 22  1  0
M  RAD  1   1   2
M  END
>  <reaction>  (4) 
rmg_rxn_15637

>  <mol_properties>  (4) 
{"0": {"label": "*3", "atom_type": "Cs"}, "1": {"label": "*4", "atom_type": "O2s"}, "8": {"label": "*1", "atom_type": "Cs"}, "9": {"label": "*0", "atom_type": "O2s"}, "14": {"label": "*2", "atom_type": "H0"}}

>  <type>  (4) 
ts

$$$$
