
     RDKit          3D

  8  7  0  0  0  0  0  0  0  0999 V2000
    0.9548    0.1194   -0.0790 C   0  0  0  0  0  0  0  0  0  0  0  0
   -0.4838   -0.2649    0.0193 C   0  0  0  0  0  0  0  0  0  0  0  0
   -0.8933   -1.1081    0.8664 N   0  0  0  0  0  0  0  0  0  0  0  0
    1.3360   -0.0983   -1.0800 H   0  0  0  0  0  0  0  0  0  0  0  0
    1.0698    1.1948    0.0786 H   0  0  0  0  0  0  0  0  0  0  0  0
    1.5426   -0.4219    0.6602 H   0  0  0  0  0  0  0  0  0  0  0  0
   -1.1575    0.2324   -0.6905 H   0  0  0  0  0  0  0  0  0  0  0  0
   -1.8989   -1.2455    0.7886 H   0  0  0  0  0  0  0  0  0  0  0  0
  1  2  1  0
  1  4  1  0
  1  5  1  0
  1  6  1  0
  2  3  2  3
  2  7  1  0
  3  8  1  0
M  END
>  <reaction>  (1) 
rmg_rxn_16505

>  <mol_properties>  (1) 
{"2": {"label": "donator", "atom_type": "N3d"}, "7": {"label": "d_hydrogen", "atom_type": "H0"}}

>  <type>  (1) 
r1h

$$$$

     RDKit          3D

 11 10  0  0  0  0  0  0  0  0999 V2000
   -1.2539    0.3276   -0.3920 C   0  0  0  0  0  0  0  0  0  0  0  0
   -0.2906   -0.4393    0.5264 C   0  0  0  0  0  0  0  0  0  0  0  0
    1.1244   -0.0144    0.4020 C   0  0  0  0  0  3  0  0  0  0  0  0
    1.3877    1.2382    0.8815 O   0  0  0  0  0  0  0  0  0  0  0  0
   -0.9932    0.1784   -1.4417 H   0  0  0  0  0  0  0  0  0  0  0  0
   -2.2818   -0.0101   -0.2464 H   0  0  0  0  0  0  0  0  0  0  0  0
   -1.2124    1.3968   -0.1817 H   0  0  0  0  0  0  0  0  0  0  0  0
   -0.6088   -0.3094    1.5657 H   0  0  0  0  0  0  0  0  0  0  0  0
   -0.3483   -1.5082    0.3078 H   0  0  0  0  0  0  0  0  0  0  0  0
    1.7380   -0.3574   -0.4276 H   0  0  0  0  0  0  0  0  0  0  0  0
    2.2967    1.4723    0.6918 H   0  0  0  0  0  0  0  0  0  0  0  0
  1  2  1  0
  1  5  1  0
  1  6  1  0
  1  7  1  0
  2  3  1  0
  2  8  1  0
  2  9  1  0
  3  4  1  0
  3 10  1  0
  4 11  1  0
M  RAD  1   3   2
M  END
>  <reaction>  (2) 
rmg_rxn_16505

>  <mol_properties>  (2) 
{"2": {"label": "acceptor", "atom_type": "Cs"}}

>  <type>  (2) 
r2

$$$$

     RDKit          3D

 12 11  0  0  0  0  0  0  0  0999 V2000
   -1.4643   -0.2505   -0.5284 C   0  0  0  0  0  0  0  0  0  0  0  0
   -0.3946    0.4302    0.3143 C   0  0  0  0  0  0  0  0  0  0  0  0
   -0.5959    0.2382    1.8102 C   0  0  0  0  0  0  0  0  0  0  0  0
   -0.5633   -1.1190    2.2092 O   0  0  0  0  0  0  0  0  0  0  0  0
   -2.4511    0.1644   -0.3109 H   0  0  0  0  0  0  0  0  0  0  0  0
   -1.5019   -1.3198   -0.3181 H   0  0  0  0  0  0  0  0  0  0  0  0
   -1.2720   -0.1182   -1.5941 H   0  0  0  0  0  0  0  0  0  0  0  0
    0.5965    0.0515    0.0385 H   0  0  0  0  0  0  0  0  0  0  0  0
   -0.3776    1.5047    0.1078 H   0  0  0  0  0  0  0  0  0  0  0  0
   -1.5821    0.6048    2.1034 H   0  0  0  0  0  0  0  0  0  0  0  0
    0.1495    0.8220    2.3649 H   0  0  0  0  0  0  0  0  0  0  0  0
    0.3017   -1.4750    1.9997 H   0  0  0  0  0  0  0  0  0  0  0  0
  1  2  1  0
  1  5  1  0
  1  6  1  0
  1  7  1  0
  2  3  1  0
  2  8  1  0
  2  9  1  0
  3  4  1  0
  3 10  1  0
  3 11  1  0
  4 12  1  0
M  END
>  <reaction>  (3) 
rmg_rxn_16505

>  <mol_properties>  (3) 
{"0": {"label": "a_hydrogen", "atom_type": "H0"}, "3": {"label": "acceptor", "atom_type": "Cs"}}

>  <type>  (3) 
r2h

$$$$

     RDKit          3D

 19 17  0  0  0  0  0  0  0  0999 V2000
   -0.4753   -0.1370   -3.1843 C   0  0  0  0  0  0  0  0  0  0  0  0
   -0.3004    0.0789   -1.7101 C   0  0  0  0  0  0  0  0  0  0  0  0
    0.4776    0.9442   -1.2382 N   0  0  0  0  0  0  0  0  0  0  0  0
   -0.2114   -1.1653   -3.4424 H   0  0  0  0  0  0  0  0  0  0  0  0
   -1.5222    0.0073   -3.4620 H   0  0  0  0  0  0  0  0  0  0  0  0
    0.1492    0.5510   -3.7513 H   0  0  0  0  0  0  0  0  0  0  0  0
   -0.8949   -0.5729   -1.0523 H   0  0  0  0  0  0  0  0  0  0  0  0
    0.3745    0.8718    0.0238 H   0  0  0  0  0  0  0  0  0  0  0  0
    1.2684   -1.5849    1.1875 C   0  0  0  0  0  0  0  0  0  0  0  0
    1.1636   -0.2292    1.8776 C   0  0  0  0  0  0  0  0  0  0  0  0
    0.0842    0.6543    1.3181 C   0  0  0  0  0  3  0  0  0  0  0  0
   -1.1646    0.0474    1.3938 O   0  0  0  0  0  0  0  0  0  0  0  0
    1.5196   -1.4643    0.1326 H   0  0  0  0  0  0  0  0  0  0  0  0
    2.0445   -2.1940    1.6524 H   0  0  0  0  0  0  0  0  0  0  0  0
    0.3262   -2.1296    1.2532 H   0  0  0  0  0  0  0  0  0  0  0  0
    0.9792   -0.3740    2.9488 H   0  0  0  0  0  0  0  0  0  0  0  0
    2.1100    0.3100    1.7911 H   0  0  0  0  0  0  0  0  0  0  0  0
    0.0886    1.6709    1.7244 H   0  0  0  0  0  0  0  0  0  0  0  0
   -1.8385    0.6864    1.1578 H   0  0  0  0  0  0  0  0  0  0  0  0
  1  2  1  0
  1  4  1  0
  1  5  1  0
  1  6  1  0
  2  3  2  3
  2  7  1  0
  3  8  1  0
  9 10  1  0
  9 13  1  0
  9 14  1  0
  9 15  1  0
 10 11  1  0
 10 16  1  0
 10 17  1  0
 11 12  1  0
 11 18  1  0
 12 19  1  0
M  RAD  1  11   2
M  END
>  <reaction>  (4) 
rmg_rxn_16505

>  <mol_properties>  (4) 
{"1": {"label": "*0", "atom_type": "Cd"}, "2": {"label": "*1", "atom_type": "N3d"}, "7": {"label": "*2", "atom_type": "H0"}, "9": {"label": "*4", "atom_type": "Cs"}, "10": {"label": "*3", "atom_type": "Cs"}}

>  <type>  (4) 
ts

$$$$
