
     RDKit          3D

  9  8  0  0  0  0  0  0  0  0999 V2000
   -0.9895    0.3048    0.1041 C   0  0  0  0  0  0  0  0  0  0  0  0
    0.3761   -0.3562    0.0721 C   0  0  0  0  0  0  0  0  0  0  0  0
    0.3441   -1.6564   -0.4834 O   0  0  0  0  0  0  0  0  0  0  0  0
   -1.6997   -0.3114    0.6572 H   0  0  0  0  0  0  0  0  0  0  0  0
   -0.9320    1.2848    0.5822 H   0  0  0  0  0  0  0  0  0  0  0  0
   -1.3774    0.4507   -0.9077 H   0  0  0  0  0  0  0  0  0  0  0  0
    0.7581   -0.4813    1.0862 H   0  0  0  0  0  0  0  0  0  0  0  0
    1.0900    0.2787   -0.4681 H   0  0  0  0  0  0  0  0  0  0  0  0
    0.0089   -1.5959   -1.3792 H   0  0  0  0  0  0  0  0  0  0  0  0
  1  2  1  0
  1  4  1  0
  1  5  1  0
  1  6  1  0
  2  3  1  0
  2  7  1  0
  2  8  1  0
  3  9  1  0
M  END
>  <reaction>  (1) 
rmg_rxn_15690

>  <mol_properties>  (1) 
{"1": {"label": "donator", "atom_type": "Cs"}, "6": {"label": "d_hydrogen", "atom_type": "H0"}}

>  <type>  (1) 
r1h

$$$$

     RDKit          3D

  8  7  0  0  0  0  0  0  0  0999 V2000
    1.7077   -0.1964   -0.0607 C   0  0  0  0  0  3  0  0  0  0  0  0
    0.4209   -0.4565    0.2808 O   0  0  0  0  0  0  0  0  0  0  0  0
   -0.4607    0.4385   -0.2968 N   0  0  0  0  0  0  0  0  0  0  0  0
   -1.6584    0.1416   -0.0244 C   0  0  0  0  0  0  0  0  0  0  0  0
    2.4163   -0.7685    0.5170 H   0  0  0  0  0  0  0  0  0  0  0  0
    1.9214    0.7645   -0.5045 H   0  0  0  0  0  0  0  0  0  0  0  0
   -2.4185    0.7953   -0.4307 H   0  0  0  0  0  0  0  0  0  0  0  0
   -1.9286   -0.7185    0.5831 H   0  0  0  0  0  0  0  0  0  0  0  0
  1  2  1  0
  1  5  1  0
  1  6  1  0
  2  3  1  0
  3  4  2  3
  4  7  1  0
  4  8  1  0
M  RAD  1   1   2
M  END
>  <reaction>  (2) 
rmg_rxn_15690

>  <mol_properties>  (2) 
{"0": {"label": "acceptor", "atom_type": "Cs"}}

>  <type>  (2) 
r2

$$$$

     RDKit          3D

  9  8  0  0  0  0  0  0  0  0999 V2000
   -1.5470   -0.0755   -0.1976 C   0  0  0  0  0  0  0  0  0  0  0  0
   -0.2885    0.4507    0.1749 O   0  0  0  0  0  0  0  0  0  0  0  0
   -0.1502    1.7216   -0.3294 N   0  0  0  0  0  0  0  0  0  0  0  0
    0.9626    2.2353   -0.0219 C   0  0  0  0  0  0  0  0  0  0  0  0
   -1.6392   -0.1356   -1.2844 H   0  0  0  0  0  0  0  0  0  0  0  0
   -2.3597    0.5337    0.2044 H   0  0  0  0  0  0  0  0  0  0  0  0
   -1.5879   -1.0750    0.2318 H   0  0  0  0  0  0  0  0  0  0  0  0
    1.1497    3.2381   -0.3820 H   0  0  0  0  0  0  0  0  0  0  0  0
    1.7060    1.7101    0.5739 H   0  0  0  0  0  0  0  0  0  0  0  0
  1  2  1  0
  1  5  1  0
  1  6  1  0
  1  7  1  0
  2  3  1  0
  3  4  2  3
  4  8  1  0
  4  9  1  0
M  END
>  <reaction>  (3) 
rmg_rxn_15690

>  <mol_properties>  (3) 
{"0": {"label": "acceptor", "atom_type": "Cs"}, "8": {"label": "a_hydrogen", "atom_type": "H0"}}

>  <type>  (3) 
r2h

$$$$

     RDKit          3D

 17 15  0  0  0  0  0  0  0  0999 V2000
    0.4524    1.6386   -0.2721 C   0  0  0  0  0  3  0  0  0  0  0  0
    1.3877    0.7607    0.2779 O   0  0  0  0  0  0  0  0  0  0  0  0
    1.3022   -0.4828   -0.3018 N   0  0  0  0  0  0  0  0  0  0  0  0
    2.2258   -1.2550    0.0847 C   0  0  0  0  0  0  0  0  0  0  0  0
    0.5186    2.5754    0.2721 H   0  0  0  0  0  0  0  0  0  0  0  0
    0.5369    1.7338   -1.3547 H   0  0  0  0  0  0  0  0  0  0  0  0
    2.2198   -2.2591   -0.3173 H   0  0  0  0  0  0  0  0  0  0  0  0
    2.9941   -0.9382    0.7855 H   0  0  0  0  0  0  0  0  0  0  0  0
   -1.7788   -0.3871    1.3501 C   0  0  0  0  0  0  0  0  0  0  0  0
   -1.8218    0.2272   -0.0258 C   0  0  0  0  0  0  0  0  0  0  0  0
   -1.6230   -0.6492   -1.0813 O   0  0  0  0  0  0  0  0  0  0  0  0
   -2.5601   -1.1447    1.4598 H   0  0  0  0  0  0  0  0  0  0  0  0
   -0.8143   -0.8658    1.5332 H   0  0  0  0  0  0  0  0  0  0  0  0
   -1.9291    0.3781    2.1141 H   0  0  0  0  0  0  0  0  0  0  0  0
   -0.8213    1.0789   -0.0778 H   0  0  0  0  0  0  0  0  0  0  0  0
   -2.7218    0.8115   -0.2186 H   0  0  0  0  0  0  0  0  0  0  0  0
   -0.7057   -0.9485   -1.0339 H   0  0  0  0  0  0  0  0  0  0  0  0
  1  2  1  0
  1  5  1  0
  1  6  1  0
  2  3  1  0
  3  4  2  3
  4  7  1  0
  4  8  1  0
  9 10  1  0
  9 12  1  0
  9 13  1  0
  9 14  1  0
 10 11  1  0
 10 15  1  0
 10 16  1  0
 11 17  1  0
M  RAD  1   1   2
M  END
>  <reaction>  (4) 
rmg_rxn_15690

>  <mol_properties>  (4) 
{"0": {"label": "*3", "atom_type": "Cs"}, "1": {"label": "*4", "atom_type": "O2s"}, "9": {"label": "*1", "atom_type": "Cs"}, "10": {"label": "*0", "atom_type": "O2s"}, "14": {"label": "*2", "atom_type": "H0"}}

>  <type>  (4) 
ts

$$$$
