
     RDKit          3D

 10  9  0  0  0  0  0  0  0  0999 V2000
    1.9281   -0.2104    0.0000 C   0  0  0  0  0  0  0  0  0  0  0  0
    0.6881    0.1708    0.0000 C   0  0  0  0  0  0  0  0  0  0  0  0
   -0.5547    0.5538   -0.0000 C   0  0  0  0  0  0  0  0  0  0  0  0
   -1.7319   -0.3629    0.0000 C   0  0  0  0  0  0  0  0  0  0  0  0
    2.4558   -0.3741   -0.9324 H   0  0  0  0  0  0  0  0  0  0  0  0
    2.4558   -0.3741    0.9324 H   0  0  0  0  0  0  0  0  0  0  0  0
   -0.7657    1.6194   -0.0000 H   0  0  0  0  0  0  0  0  0  0  0  0
   -2.3467   -0.1819    0.8869 H   0  0  0  0  0  0  0  0  0  0  0  0
   -1.4304   -1.4153    0.0000 H   0  0  0  0  0  0  0  0  0  0  0  0
   -2.3467   -0.1819   -0.8869 H   0  0  0  0  0  0  0  0  0  0  0  0
  1  2  2  0
  1  5  1  0
  1  6  1  0
  2  3  2  0
  3  4  1  0
  3  7  1  0
  4  8  1  0
  4  9  1  0
  4 10  1  0
M  END
>  <reaction>  (1) 
rmg_rxn_16806

>  <mol_properties>  (1) 
{"3": {"label": "donator", "atom_type": "Cs"}, "7": {"label": "d_hydrogen", "atom_type": "H0"}}

>  <type>  (1) 
r1h

$$$$

     RDKit          3D

  7  6  0  0  0  0  0  0  0  0999 V2000
    1.1980    0.1044   -0.0001 C   0  0  0  0  0  0  0  0  0  0  0  0
   -0.1891   -0.4252    0.0002 C   0  0  0  0  0  3  0  0  0  0  0  0
   -1.3234    0.0281   -0.0002 N   0  0  0  0  0  0  0  0  0  0  0  0
    1.7318   -0.2602   -0.8784 H   0  0  0  0  0  0  0  0  0  0  0  0
    1.2067    1.2008   -0.0009 H   0  0  0  0  0  0  0  0  0  0  0  0
    1.7300   -0.2581    0.8800 H   0  0  0  0  0  0  0  0  0  0  0  0
   -1.4574    1.0456    0.0003 H   0  0  0  0  0  0  0  0  0  0  0  0
  1  2  1  0
  1  4  1  0
  1  5  1  0
  1  6  1  0
  2  3  2  3
  3  7  1  0
M  RAD  1   2   2
M  END
>  <reaction>  (2) 
rmg_rxn_16806

>  <mol_properties>  (2) 
{"1": {"label": "acceptor", "atom_type": "Cd"}}

>  <type>  (2) 
r2

$$$$

     RDKit          3D

  8  7  0  0  0  0  0  0  0  0999 V2000
    1.2099   -0.1388    0.0025 C   0  0  0  0  0  0  0  0  0  0  0  0
   -0.1788    0.4141    0.0007 C   0  0  0  0  0  0  0  0  0  0  0  0
   -1.2100   -0.3603    0.0013 N   0  0  0  0  0  0  0  0  0  0  0  0
    1.7355    0.2223   -0.8851 H   0  0  0  0  0  0  0  0  0  0  0  0
    1.7521    0.1663    0.9007 H   0  0  0  0  0  0  0  0  0  0  0  0
    1.1564   -1.2296   -0.0424 H   0  0  0  0  0  0  0  0  0  0  0  0
   -0.2911    1.5112   -0.0010 H   0  0  0  0  0  0  0  0  0  0  0  0
   -2.0699    0.2005   -0.0002 H   0  0  0  0  0  0  0  0  0  0  0  0
  1  2  1  0
  1  4  1  0
  1  5  1  0
  1  6  1  0
  2  3  2  3
  2  7  1  0
  3  8  1  0
M  END
>  <reaction>  (3) 
rmg_rxn_16806

>  <mol_properties>  (3) 
{"1": {"label": "acceptor", "atom_type": "Cd"}, "7": {"label": "a_hydrogen", "atom_type": "H0"}}

>  <type>  (3) 
r2h

$$$$

     RDKit          3D

 17 15  0  0  0  0  0  0  0  0999 V2000
    3.1438   -0.5878   -0.4512 C   0  0  0  0  0  0  0  0  0  0  0  0
    1.9501    0.2079   -0.0314 C   0  0  0  0  0  3  0  0  0  0  0  0
    2.0272    1.4795    0.1692 N   0  0  0  0  0  0  0  0  0  0  0  0
    2.9833   -1.0490   -1.4286 H   0  0  0  0  0  0  0  0  0  0  0  0
    4.0125    0.0740   -0.4947 H   0  0  0  0  0  0  0  0  0  0  0  0
    3.3321   -1.3635    0.2953 H   0  0  0  0  0  0  0  0  0  0  0  0
    1.1104    1.8467    0.4497 H   0  0  0  0  0  0  0  0  0  0  0  0
   -3.5934    0.3079   -0.6136 C   0  0  0  0  0  0  0  0  0  0  0  0
   -2.4970    0.0879    0.0441 C   0  0  0  0  0  0  0  0  0  0  0  0
   -1.3980   -0.1327    0.7035 C   0  0  0  0  0  0  0  0  0  0  0  0
   -0.3265   -1.0835    0.2859 C   0  0  0  0  0  0  0  0  0  0  0  0
   -4.4815   -0.2825   -0.4205 H   0  0  0  0  0  0  0  0  0  0  0  0
   -3.6384    1.0840   -1.3687 H   0  0  0  0  0  0  0  0  0  0  0  0
   -1.2357    0.4092    1.6308 H   0  0  0  0  0  0  0  0  0  0  0  0
    0.8073   -0.4403    0.1279 H   0  0  0  0  0  0  0  0  0  0  0  0
   -0.5704   -1.5863   -0.6555 H   0  0  0  0  0  0  0  0  0  0  0  0
   -0.1837   -1.8474    1.0562 H   0  0  0  0  0  0  0  0  0  0  0  0
  1  2  1  0
  1  4  1  0
  1  5  1  0
  1  6  1  0
  2  3  2  3
  3  7  1  0
  8  9  2  0
  8 12  1  0
  8 13  1  0
  9 10  2  0
 10 11  1  0
 10 14  1  0
 11 15  1  0
 11 16  1  0
 11 17  1  0
M  RAD  1   2   2
M  END
>  <reaction>  (4) 
rmg_rxn_16806

>  <mol_properties>  (4) 
{"1": {"label": "*3", "atom_type": "Cd"}, "2": {"label": "*4", "atom_type": "N3d"}, "9": {"label": "*0", "atom_type": "Cd"}, "10": {"label": "*1", "atom_type": "Cs"}, "14": {"label": "*2", "atom_type": "H0"}}

>  <type>  (4) 
ts

$$$$
