
     RDKit          3D

  5  4  0  0  0  0  0  0  0  0999 V2000
   -0.4583    0.0384    0.1517 N   0  0  0  0  0  0  0  0  0  0  0  0
    0.7454   -0.3487    0.5322 N   0  0  0  0  0  0  0  0  0  0  0  0
    0.7566   -1.0388    1.5193 O   0  0  0  0  0  0  0  0  0  0  0  0
   -1.2688   -0.2521    0.6850 H   0  0  0  0  0  0  0  0  0  0  0  0
   -0.5137    0.6154   -0.6670 H   0  0  0  0  0  0  0  0  0  0  0  0
  1  2  1  0
  1  4  1  0
  1  5  1  0
  2  3  2  0
M  END
>  <reaction>  (1) 
rmg_rxn_1563

>  <mol_properties>  (1) 
{"0": {"label": "donator", "atom_type": "N3s"}, "3": {"label": "d_hydrogen", "atom_type": "H0"}}

>  <type>  (1) 
r1h

$$$$

     RDKit          3D

 13 12  0  0  0  0  0  0  0  0999 V2000
    2.4430   -0.3849    0.0540 C   0  0  0  0  0  0  0  0  0  0  0  0
    1.2567   -0.6322    0.5818 C   0  0  0  0  0  0  0  0  0  0  0  0
    0.0753    0.2775    0.5273 C   0  0  0  0  0  0  0  0  0  0  0  0
    0.3842    1.4616   -0.1714 O   0  0  0  0  0  0  0  0  0  0  0  0
   -0.6866    2.3343   -0.3126 C   0  0  0  0  0  0  0  0  0  0  0  0
   -1.2216    2.8361    0.7984 O   0  0  0  0  0  1  0  0  0  0  0  0
    3.2507   -1.0998    0.1431 H   0  0  0  0  0  0  0  0  0  0  0  0
    2.6411    0.5367   -0.4774 H   0  0  0  0  0  0  0  0  0  0  0  0
    1.0785   -1.5620    1.1139 H   0  0  0  0  0  0  0  0  0  0  0  0
   -0.2540    0.5126    1.5468 H   0  0  0  0  0  0  0  0  0  0  0  0
   -0.7614   -0.2409    0.0324 H   0  0  0  0  0  0  0  0  0  0  0  0
   -1.5299    1.8457   -0.8558 H   0  0  0  0  0  0  0  0  0  0  0  0
   -0.3398    3.1546   -0.9632 H   0  0  0  0  0  0  0  0  0  0  0  0
  1  2  2  3
  1  7  1  0
  1  8  1  0
  2  3  1  0
  2  9  1  0
  3  4  1  0
  3 10  1  0
  3 11  1  0
  4  5  1  0
  5  6  1  0
  5 12  1  0
  5 13  1  0
M  RAD  1   6   2
M  END
>  <reaction>  (2) 
rmg_rxn_1563

>  <mol_properties>  (2) 
{"5": {"label": "acceptor", "atom_type": "O2s"}}

>  <type>  (2) 
r2

$$$$

     RDKit          3D

 14 13  0  0  0  0  0  0  0  0999 V2000
   -2.6591   -0.0450    0.7000 C   0  0  0  0  0  0  0  0  0  0  0  0
   -1.3737    0.0499    0.9953 C   0  0  0  0  0  0  0  0  0  0  0  0
   -0.2409   -0.3751    0.1081 C   0  0  0  0  0  0  0  0  0  0  0  0
   -0.6541   -1.0253   -1.0741 O   0  0  0  0  0  0  0  0  0  0  0  0
   -0.8556   -2.4003   -0.9287 C   0  0  0  0  0  0  0  0  0  0  0  0
    0.3393   -3.1125   -0.7901 O   0  0  0  0  0  0  0  0  0  0  0  0
   -2.9891   -0.4550   -0.2467 H   0  0  0  0  0  0  0  0  0  0  0  0
   -3.4198    0.2910    1.3925 H   0  0  0  0  0  0  0  0  0  0  0  0
   -1.0669    0.4739    1.9478 H   0  0  0  0  0  0  0  0  0  0  0  0
    0.4535   -1.0117    0.6689 H   0  0  0  0  0  0  0  0  0  0  0  0
    0.3247    0.5078   -0.2023 H   0  0  0  0  0  0  0  0  0  0  0  0
   -1.4079   -2.7062   -1.8216 H   0  0  0  0  0  0  0  0  0  0  0  0
   -1.4388   -2.6266   -0.0318 H   0  0  0  0  0  0  0  0  0  0  0  0
    0.8543   -2.9921   -1.5911 H   0  0  0  0  0  0  0  0  0  0  0  0
  1  2  2  3
  1  7  1  0
  1  8  1  0
  2  3  1  0
  2  9  1  0
  3  4  1  0
  3 10  1  0
  3 11  1  0
  4  5  1  0
  5  6  1  0
  5 12  1  0
  5 13  1  0
  6 14  1  0
M  END
>  <reaction>  (3) 
rmg_rxn_1563

>  <mol_properties>  (3) 
{"0": {"label": "a_hydrogen", "atom_type": "H0"}, "6": {"label": "acceptor", "atom_type": "O2s"}}

>  <type>  (3) 
r2h

$$$$

     RDKit          3D

 18 16  0  0  0  0  0  0  0  0999 V2000
    0.3160   -2.4005    0.3153 N   0  0  0  0  0  0  0  0  0  0  0  0
    1.4948   -2.8509    0.4966 N   0  0  0  0  0  0  0  0  0  0  0  0
    2.4241   -2.3190   -0.0409 O   0  0  0  0  0  0  0  0  0  0  0  0
    0.1988   -1.4706   -0.3208 H   0  0  0  0  0  0  0  0  0  0  0  0
   -0.4032   -2.8567    0.8557 H   0  0  0  0  0  0  0  0  0  0  0  0
   -0.6635    3.7645    0.4240 C   0  0  0  0  0  0  0  0  0  0  0  0
   -1.6098    2.9031    0.0897 C   0  0  0  0  0  0  0  0  0  0  0  0
   -1.5478    1.4183    0.2976 C   0  0  0  0  0  0  0  0  0  0  0  0
   -0.3053    0.9595    0.7783 O   0  0  0  0  0  0  0  0  0  0  0  0
    0.6443    0.7155   -0.2280 C   0  0  0  0  0  0  0  0  0  0  0  0
    0.3555   -0.3342   -1.0335 O   0  0  0  0  0  1  0  0  0  0  0  0
   -0.7829    4.8253    0.2468 H   0  0  0  0  0  0  0  0  0  0  0  0
    0.2554    3.4350    0.8935 H   0  0  0  0  0  0  0  0  0  0  0  0
   -2.5286    3.2586   -0.3690 H   0  0  0  0  0  0  0  0  0  0  0  0
   -1.8079    0.9021   -0.6351 H   0  0  0  0  0  0  0  0  0  0  0  0
   -2.2997    1.1261    1.0363 H   0  0  0  0  0  0  0  0  0  0  0  0
    1.5991    0.5848    0.2970 H   0  0  0  0  0  0  0  0  0  0  0  0
    0.7424    1.5957   -0.8907 H   0  0  0  0  0  0  0  0  0  0  0  0
  1  2  1  0
  1  4  1  0
  1  5  1  0
  2  3  2  0
  6  7  2  3
  6 12  1  0
  6 13  1  0
  7  8  1  0
  7 14  1  0
  8  9  1  0
  8 15  1  0
  8 16  1  0
  9 10  1  0
 10 11  1  0
 10 17  1  0
 10 18  1  0
M  RAD  1  11   2
M  END
>  <reaction>  (4) 
rmg_rxn_1563

>  <mol_properties>  (4) 
{"0": {"label": "*1", "atom_type": "N3s"}, "1": {"label": "*0", "atom_type": "N3d"}, "3": {"label": "*2", "atom_type": "H0"}, "9": {"label": "*4", "atom_type": "Cs"}, "10": {"label": "*3", "atom_type": "O2s"}}

>  <type>  (4) 
ts

$$$$
