
     RDKit          3D

 18 17  0  0  0  0  0  0  0  0999 V2000
    2.3520    0.9498    0.2303 C   0  0  0  0  0  0  0  0  0  0  0  0
    1.9456   -0.3826   -0.3833 C   0  0  0  0  0  0  0  0  0  0  0  0
    0.6129   -0.8880    0.1586 C   0  0  0  0  0  0  0  0  0  0  0  0
   -0.4216    0.0223   -0.2088 O   0  0  0  0  0  0  0  0  0  0  0  0
   -1.6937   -0.3990    0.2766 C   0  0  0  0  0  0  0  0  0  0  0  0
   -2.7315    0.6179   -0.1548 C   0  0  0  0  0  0  0  0  0  0  0  0
    2.4361    0.8699    1.3188 H   0  0  0  0  0  0  0  0  0  0  0  0
    1.6247    1.7340   -0.0020 H   0  0  0  0  0  0  0  0  0  0  0  0
    3.3238    1.2651   -0.1628 H   0  0  0  0  0  0  0  0  0  0  0  0
    2.7250   -1.1255   -0.1814 H   0  0  0  0  0  0  0  0  0  0  0  0
    1.8763   -0.2576   -1.4701 H   0  0  0  0  0  0  0  0  0  0  0  0
    0.6566   -0.9798    1.2501 H   0  0  0  0  0  0  0  0  0  0  0  0
    0.3966   -1.8732   -0.2699 H   0  0  0  0  0  0  0  0  0  0  0  0
   -1.9410   -1.3825   -0.1378 H   0  0  0  0  0  0  0  0  0  0  0  0
   -1.6694   -0.4651    1.3699 H   0  0  0  0  0  0  0  0  0  0  0  0
   -2.7548    0.7058   -1.2461 H   0  0  0  0  0  0  0  0  0  0  0  0
   -2.4866    1.6097    0.2395 H   0  0  0  0  0  0  0  0  0  0  0  0
   -3.7268    0.3335    0.1978 H   0  0  0  0  0  0  0  0  0  0  0  0
  1  2  1  0
  1  7  1  0
  1  8  1  0
  1  9  1  0
  2  3  1  0
  2 10  1  0
  2 11  1  0
  3  4  1  0
  3 12  1  0
  3 13  1  0
  4  5  1  0
  5  6  1  0
  5 14  1  0
  5 15  1  0
  6 16  1  0
  6 17  1  0
  6 18  1  0
M  END
>  <reaction>  (1) 
rmg_rxn_1152

>  <mol_properties>  (1) 
{"5": {"label": "donator", "atom_type": "Cs"}, "15": {"label": "d_hydrogen", "atom_type": "H0"}}

>  <type>  (1) 
r1h

$$$$

     RDKit          3D

  1  0  0  0  0  0  0  0  0  0999 V2000
    0.0000    0.0000    0.0000 O   0  0  0  0  0 15  0  0  0  0  0  0
M  END
>  <reaction>  (2) 
rmg_rxn_1152

>  <mol_properties>  (2) 
{"0": {"label": "acceptor", "atom_type": "O2s"}}

>  <type>  (2) 
r2

$$$$

     RDKit          3D

  2  1  0  0  0  0  0  0  0  0999 V2000
    0.0000    0.0000    0.1079 O   0  0  0  0  0  1  0  0  0  0  0  0
    0.0000    0.0000   -0.8631 H   0  0  0  0  0  0  0  0  0  0  0  0
  1  2  1  0
M  RAD  1   1   2
M  END
>  <reaction>  (3) 
rmg_rxn_1152

>  <mol_properties>  (3) 
{"0": {"label": "acceptor", "atom_type": "O2s"}, "1": {"label": "a_hydrogen", "atom_type": "H0"}}

>  <type>  (3) 
r2h

$$$$

     RDKit          3D

 19 17  0  0  0  0  0  0  0  0999 V2000
   -3.0204    1.5193   -0.2240 O   0  0  0  0  0  1  0  0  0  0  0  0
    2.7716    0.3868    0.9332 C   0  0  0  0  0  0  0  0  0  0  0  0
    2.2502    0.5253   -0.4909 C   0  0  0  0  0  0  0  0  0  0  0  0
    1.1355   -0.4470   -0.8157 C   0  0  0  0  0  0  0  0  0  0  0  0
    0.0290   -0.1784    0.0132 O   0  0  0  0  0  0  0  0  0  0  0  0
   -1.0442   -1.0513   -0.1924 C   0  0  0  0  0  0  0  0  0  0  0  0
   -2.1781   -0.6555    0.6964 C   0  0  0  0  0  3  0  0  0  0  0  0
    3.1522   -0.6217    1.1135 H   0  0  0  0  0  0  0  0  0  0  0  0
    1.9799    0.5815    1.6565 H   0  0  0  0  0  0  0  0  0  0  0  0
    3.5844    1.0891    1.1231 H   0  0  0  0  0  0  0  0  0  0  0  0
    3.0591    0.3549   -1.2064 H   0  0  0  0  0  0  0  0  0  0  0  0
    1.8849    1.5411   -0.6608 H   0  0  0  0  0  0  0  0  0  0  0  0
    1.4768   -1.4820   -0.6580 H   0  0  0  0  0  0  0  0  0  0  0  0
    0.8418   -0.3525   -1.8705 H   0  0  0  0  0  0  0  0  0  0  0  0
   -1.3604   -1.0404   -1.2455 H   0  0  0  0  0  0  0  0  0  0  0  0
   -0.7459   -2.0885    0.0413 H   0  0  0  0  0  0  0  0  0  0  0  0
   -2.6049    0.4772    0.2694 H   0  0  0  0  0  0  0  0  0  0  0  0
   -1.8932   -0.4413    1.7241 H   0  0  0  0  0  0  0  0  0  0  0  0
   -3.0545   -1.2951    0.6168 H   0  0  0  0  0  0  0  0  0  0  0  0
  1 17  1  0
  2  3  1  0
  2  8  1  0
  2  9  1  0
  2 10  1  0
  3  4  1  0
  3 11  1  0
  3 12  1  0
  4  5  1  0
  4 13  1  0
  4 14  1  0
  5  6  1  0
  6  7  1  0
  6 15  1  0
  6 16  1  0
  7 18  1  0
  7 19  1  0
M  RAD  2   1   2   7   2
M  END
>  <reaction>  (4) 
rmg_rxn_1152

>  <mol_properties>  (4) 
{"0": {"label": "*1", "atom_type": "O2s"}, "5": {"label": "*4", "atom_type": "Cs"}, "6": {"label": "*3", "atom_type": "Cs"}, "16": {"label": "*2", "atom_type": "H0"}}

>  <type>  (4) 
ts

$$$$
