
     RDKit          3D

 18 17  0  0  0  0  0  0  0  0999 V2000
    2.2026   -0.7213   -0.2612 C   0  0  0  0  0  0  0  0  0  0  0  0
    1.5384    0.2638    0.6915 C   0  0  0  0  0  0  0  0  0  0  0  0
    2.2584    1.5946    0.7694 C   0  0  0  0  0  0  0  0  0  0  0  0
    2.2212    2.2185   -0.4893 O   0  0  0  0  0  0  0  0  0  0  0  0
    2.8988    3.4488   -0.5204 C   0  0  0  0  0  0  0  0  0  0  0  0
    2.7981    4.0296   -1.9118 C   0  0  0  0  0  0  0  0  0  0  0  0
    3.2294   -0.9309    0.0486 H   0  0  0  0  0  0  0  0  0  0  0  0
    2.2338   -0.3181   -1.2734 H   0  0  0  0  0  0  0  0  0  0  0  0
    1.6610   -1.6680   -0.2875 H   0  0  0  0  0  0  0  0  0  0  0  0
    1.4990   -0.1566    1.7002 H   0  0  0  0  0  0  0  0  0  0  0  0
    0.5055    0.4455    0.3835 H   0  0  0  0  0  0  0  0  0  0  0  0
    3.3038    1.4410    1.0808 H   0  0  0  0  0  0  0  0  0  0  0  0
    1.7844    2.2410    1.5226 H   0  0  0  0  0  0  0  0  0  0  0  0
    2.4596    4.1376    0.2164 H   0  0  0  0  0  0  0  0  0  0  0  0
    3.9524    3.3035   -0.2397 H   0  0  0  0  0  0  0  0  0  0  0  0
    1.7543    4.1869   -2.1856 H   0  0  0  0  0  0  0  0  0  0  0  0
    3.2472    3.3545   -2.6411 H   0  0  0  0  0  0  0  0  0  0  0  0
    3.3178    4.9878   -1.9600 H   0  0  0  0  0  0  0  0  0  0  0  0
  1  2  1  0
  1  7  1  0
  1  8  1  0
  1  9  1  0
  2  3  1  0
  2 10  1  0
  2 11  1  0
  3  4  1  0
  3 12  1  0
  3 13  1  0
  4  5  1  0
  5  6  1  0
  5 14  1  0
  5 15  1  0
  6 16  1  0
  6 17  1  0
  6 18  1  0
M  END
>  <reaction>  (1) 
rmg_rxn_15417

>  <mol_properties>  (1) 
{"5": {"label": "donator", "atom_type": "Cs"}, "15": {"label": "d_hydrogen", "atom_type": "H0"}}

>  <type>  (1) 
r1h

$$$$

     RDKit          3D

  5  4  0  0  0  0  0  0  0  0999 V2000
    0.8934    0.3742    0.4948 O   0  0  0  0  0  0  0  0  0  0  0  0
    0.1582   -0.1610   -0.5904 N   0  0  0  0  0  0  0  0  0  0  0  0
   -1.0297   -0.3739   -0.4689 C   0  0  0  0  0  3  0  0  0  0  0  0
    1.7804    0.4382    0.1306 H   0  0  0  0  0  0  0  0  0  0  0  0
   -1.8023   -0.2775    0.2859 H   0  0  0  0  0  0  0  0  0  0  0  0
  1  2  1  0
  1  4  1  0
  2  3  2  3
  3  5  1  0
M  RAD  1   3   2
M  END
>  <reaction>  (2) 
rmg_rxn_15417

>  <mol_properties>  (2) 
{"2": {"label": "acceptor", "atom_type": "Cd"}}

>  <type>  (2) 
r2

$$$$

     RDKit          3D

  6  5  0  0  0  0  0  0  0  0999 V2000
    1.2314    0.0428    0.5088 O   0  0  0  0  0  0  0  0  0  0  0  0
    0.2987    0.2341   -0.4915 N   0  0  0  0  0  0  0  0  0  0  0  0
   -0.8599   -0.1122   -0.1290 C   0  0  0  0  0  0  0  0  0  0  0  0
    2.0507    0.3401    0.1082 H   0  0  0  0  0  0  0  0  0  0  0  0
   -1.0700   -0.5112    0.8610 H   0  0  0  0  0  0  0  0  0  0  0  0
   -1.6509    0.0064   -0.8574 H   0  0  0  0  0  0  0  0  0  0  0  0
  1  2  1  0
  1  4  1  0
  2  3  2  3
  3  5  1  0
  3  6  1  0
M  END
>  <reaction>  (3) 
rmg_rxn_15417

>  <mol_properties>  (3) 
{"2": {"label": "acceptor", "atom_type": "Cd"}, "5": {"label": "a_hydrogen", "atom_type": "H0"}}

>  <type>  (3) 
r2h

$$$$

     RDKit          3D

 23 21  0  0  0  0  0  0  0  0999 V2000
   -3.1299   -0.1349    2.3507 O   0  0  0  0  0  0  0  0  0  0  0  0
   -2.2139    0.7129    1.7132 N   0  0  0  0  0  0  0  0  0  0  0  0
   -2.2579    0.6603    0.4708 C   0  0  0  0  0  3  0  0  0  0  0  0
   -2.9637    0.0347    3.2806 H   0  0  0  0  0  0  0  0  0  0  0  0
   -2.9031    0.0386   -0.1488 H   0  0  0  0  0  0  0  0  0  0  0  0
    2.2851   -1.8243   -2.3757 C   0  0  0  0  0  0  0  0  0  0  0  0
    2.0302   -1.9600   -0.8805 C   0  0  0  0  0  0  0  0  0  0  0  0
    2.0292   -0.6319   -0.1522 C   0  0  0  0  0  0  0  0  0  0  0  0
    0.9730    0.1616   -0.6354 O   0  0  0  0  0  0  0  0  0  0  0  0
    0.9058    1.4259   -0.0299 C   0  0  0  0  0  0  0  0  0  0  0  0
   -0.2980    2.1481   -0.5498 C   0  0  0  0  0  0  0  0  0  0  0  0
    3.2534   -1.3545   -2.5652 H   0  0  0  0  0  0  0  0  0  0  0  0
    1.5170   -1.2093   -2.8447 H   0  0  0  0  0  0  0  0  0  0  0  0
    2.2854   -2.8000   -2.8637 H   0  0  0  0  0  0  0  0  0  0  0  0
    2.7971   -2.5920   -0.4242 H   0  0  0  0  0  0  0  0  0  0  0  0
    1.0698   -2.4516   -0.7057 H   0  0  0  0  0  0  0  0  0  0  0  0
    2.9883   -0.1134   -0.3081 H   0  0  0  0  0  0  0  0  0  0  0  0
    1.9120   -0.7896    0.9293 H   0  0  0  0  0  0  0  0  0  0  0  0
    0.8385    1.3234    1.0631 H   0  0  0  0  0  0  0  0  0  0  0  0
    1.8230    1.9984   -0.2470 H   0  0  0  0  0  0  0  0  0  0  0  0
   -1.3072    1.4656   -0.1419 H   0  0  0  0  0  0  0  0  0  0  0  0
   -0.3753    2.1554   -1.6355 H   0  0  0  0  0  0  0  0  0  0  0  0
   -0.4421    3.1336   -0.1121 H   0  0  0  0  0  0  0  0  0  0  0  0
  1  2  1  0
  1  4  1  0
  2  3  2  3
  3  5  1  0
  6  7  1  0
  6 12  1  0
  6 13  1  0
  6 14  1  0
  7  8  1  0
  7 15  1  0
  7 16  1  0
  8  9  1  0
  8 17  1  0
  8 18  1  0
  9 10  1  0
 10 11  1  0
 10 19  1  0
 10 20  1  0
 11 21  1  0
 11 22  1  0
 11 23  1  0
M  RAD  1   3   2
M  END
>  <reaction>  (4) 
rmg_rxn_15417

>  <mol_properties>  (4) 
{"1": {"label": "*4", "atom_type": "N3d"}, "2": {"label": "*3", "atom_type": "Cd"}, "9": {"label": "*0", "atom_type": "Cs"}, "10": {"label": "*1", "atom_type": "Cs"}, "20": {"label": "*2", "atom_type": "H0"}}

>  <type>  (4) 
ts

$$$$
