
     RDKit          3D

 13 12  0  0  0  0  0  0  0  0999 V2000
   -2.5787    0.3845    0.5363 N   0  0  0  0  0  1  0  0  0  0  0  0
   -2.0448   -0.2878   -0.3016 N   0  0  0  0  0  0  0  0  0  0  0  0
   -0.5705   -0.4119   -0.5708 C   0  0  0  0  0  0  0  0  0  0  0  0
    0.2772    0.2247    0.5075 C   0  0  0  0  0  0  0  0  0  0  0  0
    0.2957   -0.5646    1.8104 C   0  0  0  0  0  0  0  0  0  0  0  0
   -2.5889   -0.8713   -0.9748 H   0  0  0  0  0  0  0  0  0  0  0  0
   -0.3659   -1.4815   -0.6747 H   0  0  0  0  0  0  0  0  0  0  0  0
   -0.4043    0.0541   -1.5457 H   0  0  0  0  0  0  0  0  0  0  0  0
    1.2919    0.3223    0.1145 H   0  0  0  0  0  0  0  0  0  0  0  0
   -0.0978    1.2330    0.6915 H   0  0  0  0  0  0  0  0  0  0  0  0
    0.6693   -1.5792    1.6503 H   0  0  0  0  0  0  0  0  0  0  0  0
   -0.7042   -0.6287    2.2395 H   0  0  0  0  0  0  0  0  0  0  0  0
    0.9431   -0.0833    2.5443 H   0  0  0  0  0  0  0  0  0  0  0  0
  1  2  1  0
  2  3  1  0
  2  6  1  0
  3  4  1  0
  3  7  1  0
  3  8  1  0
  4  5  1  0
  4  9  1  0
  4 10  1  0
  5 11  1  0
  5 12  1  0
  5 13  1  0
M  RAD  1   1   3
M  END
>  <reaction>  (1) 
rmg_rxn_16705

>  <mol_properties>  (1) 
{"2": {"label": "donator", "atom_type": "Cs"}, "6": {"label": "d_hydrogen", "atom_type": "H0"}}

>  <type>  (1) 
r1h

$$$$

     RDKit          3D

  7  6  0  0  0  0  0  0  0  0999 V2000
   -0.6441   -0.1356    0.0624 C   0  0  0  0  0  0  0  0  0  0  0  0
    0.8523    0.0148   -0.0333 C   0  0  0  0  0  0  0  0  0  0  0  0
    1.6700   -0.6077    0.6603 N   0  0  0  0  0  2  0  0  0  0  0  0
   -1.0940    0.8275    0.3091 H   0  0  0  0  0  0  0  0  0  0  0  0
   -0.9104   -0.8656    0.8237 H   0  0  0  0  0  0  0  0  0  0  0  0
   -1.0427   -0.4545   -0.9022 H   0  0  0  0  0  0  0  0  0  0  0  0
    1.2362    0.7308   -0.7748 H   0  0  0  0  0  0  0  0  0  0  0  0
  1  2  1  0
  1  4  1  0
  1  5  1  0
  1  6  1  0
  2  3  2  0
  2  7  1  0
M  RAD  1   3   2
M  END
>  <reaction>  (2) 
rmg_rxn_16705

>  <mol_properties>  (2) 
{"2": {"label": "acceptor", "atom_type": "N3d"}}

>  <type>  (2) 
r2

$$$$

     RDKit          3D

  8  7  0  0  0  0  0  0  0  0999 V2000
    0.9548    0.1194   -0.0790 C   0  0  0  0  0  0  0  0  0  0  0  0
   -0.4838   -0.2649    0.0193 C   0  0  0  0  0  0  0  0  0  0  0  0
   -0.8933   -1.1081    0.8664 N   0  0  0  0  0  0  0  0  0  0  0  0
    1.3360   -0.0983   -1.0800 H   0  0  0  0  0  0  0  0  0  0  0  0
    1.0698    1.1948    0.0786 H   0  0  0  0  0  0  0  0  0  0  0  0
    1.5426   -0.4219    0.6602 H   0  0  0  0  0  0  0  0  0  0  0  0
   -1.1575    0.2324   -0.6905 H   0  0  0  0  0  0  0  0  0  0  0  0
   -1.8989   -1.2455    0.7886 H   0  0  0  0  0  0  0  0  0  0  0  0
  1  2  1  0
  1  4  1  0
  1  5  1  0
  1  6  1  0
  2  3  2  3
  2  7  1  0
  3  8  1  0
M  END
>  <reaction>  (3) 
rmg_rxn_16705

>  <mol_properties>  (3) 
{"2": {"label": "acceptor", "atom_type": "N3d"}, "7": {"label": "a_hydrogen", "atom_type": "H0"}}

>  <type>  (3) 
r2h

$$$$

     RDKit          3D

 20 18  0  0  0  0  0  0  0  0999 V2000
    3.5931    0.5913   -0.2377 C   0  0  0  0  0  0  0  0  0  0  0  0
    2.1331    0.3410    0.0195 C   0  0  0  0  0  0  0  0  0  0  0  0
    1.6022   -0.7880   -0.0100 N   0  0  0  0  0  2  0  0  0  0  0  0
    4.1126   -0.3428   -0.4421 H   0  0  0  0  0  0  0  0  0  0  0  0
    4.0459    1.0777    0.6293 H   0  0  0  0  0  0  0  0  0  0  0  0
    3.7079    1.2655   -1.0892 H   0  0  0  0  0  0  0  0  0  0  0  0
    1.5330    1.2451    0.2391 H   0  0  0  0  0  0  0  0  0  0  0  0
   -1.2722    1.6187   -1.2082 N   0  0  0  0  0  1  0  0  0  0  0  0
   -1.0719    1.2199    0.0108 N   0  0  0  0  0  0  0  0  0  0  0  0
   -0.9439   -0.1292    0.4122 C   0  0  0  0  0  0  0  0  0  0  0  0
   -1.7395   -1.1062   -0.4288 C   0  0  0  0  0  0  0  0  0  0  0  0
   -1.5774   -2.5296    0.0852 C   0  0  0  0  0  0  0  0  0  0  0  0
   -0.8471    1.9457    0.6823 H   0  0  0  0  0  0  0  0  0  0  0  0
    0.2227   -0.4923    0.2743 H   0  0  0  0  0  0  0  0  0  0  0  0
   -1.1503   -0.2025    1.4809 H   0  0  0  0  0  0  0  0  0  0  0  0
   -2.7938   -0.8128   -0.4330 H   0  0  0  0  0  0  0  0  0  0  0  0
   -1.3918   -1.0422   -1.4627 H   0  0  0  0  0  0  0  0  0  0  0  0
   -0.5273   -2.8253    0.0789 H   0  0  0  0  0  0  0  0  0  0  0  0
   -2.1327   -3.2310   -0.5380 H   0  0  0  0  0  0  0  0  0  0  0  0
   -1.9504   -2.6244    1.1078 H   0  0  0  0  0  0  0  0  0  0  0  0
  1  2  1  0
  1  4  1  0
  1  5  1  0
  1  6  1  0
  2  3  2  0
  2  7  1  0
  8  9  1  0
  9 10  1  0
  9 13  1  0
 10 11  1  0
 10 14  1  0
 10 15  1  0
 11 12  1  0
 11 16  1  0
 11 17  1  0
 12 18  1  0
 12 19  1  0
 12 20  1  0
M  RAD  2   3   2   8   3
M  END
>  <reaction>  (4) 
rmg_rxn_16705

>  <mol_properties>  (4) 
{"1": {"label": "*4", "atom_type": "Cd"}, "2": {"label": "*3", "atom_type": "N3d"}, "8": {"label": "*0", "atom_type": "N3s"}, "9": {"label": "*1", "atom_type": "Cs"}, "13": {"label": "*2", "atom_type": "H0"}}

>  <type>  (4) 
ts

$$$$
