
     RDKit          3D

  9  8  0  0  0  0  0  0  0  0999 V2000
    1.0366    1.3666   -1.0040 O   0  0  0  0  0  1  0  0  0  0  0  0
    0.8763    0.9651    0.1786 N   0  0  0  0  0  0  0  0  0  0  0  0
    0.0999    0.0100    0.5787 C   0  0  0  0  0  3  0  0  0  0  0  0
   -0.7197   -0.7380   -0.4015 C   0  0  0  0  0  0  0  0  0  0  0  0
    1.4193    1.4472    0.9012 H   0  0  0  0  0  0  0  0  0  0  0  0
    0.0997   -0.1874    1.6410 H   0  0  0  0  0  0  0  0  0  0  0  0
   -1.3136   -1.5037    0.0930 H   0  0  0  0  0  0  0  0  0  0  0  0
   -1.3825   -0.0572   -0.9424 H   0  0  0  0  0  0  0  0  0  0  0  0
   -0.0802   -1.2049   -1.1555 H   0  0  0  0  0  0  0  0  0  0  0  0
  1  2  1  0
  2  3  1  0
  2  5  1  0
  3  4  1  0
  3  6  1  0
  4  7  1  0
  4  8  1  0
  4  9  1  0
M  CHG  2   1  -1   3   1
M  END
>  <reaction>  (1) 
rmg_rxn_15486

>  <mol_properties>  (1) 
{"3": {"label": "donator", "atom_type": "Cs"}, "6": {"label": "d_hydrogen", "atom_type": "H0"}}

>  <type>  (1) 
r1h

$$$$

     RDKit          3D

  5  4  0  0  0  0  0  0  0  0999 V2000
    0.8934    0.3742    0.4948 O   0  0  0  0  0  0  0  0  0  0  0  0
    0.1582   -0.1610   -0.5904 N   0  0  0  0  0  0  0  0  0  0  0  0
   -1.0297   -0.3739   -0.4689 C   0  0  0  0  0  3  0  0  0  0  0  0
    1.7804    0.4382    0.1306 H   0  0  0  0  0  0  0  0  0  0  0  0
   -1.8023   -0.2775    0.2859 H   0  0  0  0  0  0  0  0  0  0  0  0
  1  2  1  0
  1  4  1  0
  2  3  2  3
  3  5  1  0
M  RAD  1   3   2
M  END
>  <reaction>  (2) 
rmg_rxn_15486

>  <mol_properties>  (2) 
{"2": {"label": "acceptor", "atom_type": "Cd"}}

>  <type>  (2) 
r2

$$$$

     RDKit          3D

  6  5  0  0  0  0  0  0  0  0999 V2000
    1.2314    0.0428    0.5088 O   0  0  0  0  0  0  0  0  0  0  0  0
    0.2987    0.2341   -0.4915 N   0  0  0  0  0  0  0  0  0  0  0  0
   -0.8599   -0.1122   -0.1290 C   0  0  0  0  0  0  0  0  0  0  0  0
    2.0507    0.3401    0.1082 H   0  0  0  0  0  0  0  0  0  0  0  0
   -1.0700   -0.5112    0.8610 H   0  0  0  0  0  0  0  0  0  0  0  0
   -1.6509    0.0064   -0.8574 H   0  0  0  0  0  0  0  0  0  0  0  0
  1  2  1  0
  1  4  1  0
  2  3  2  3
  3  5  1  0
  3  6  1  0
M  END
>  <reaction>  (3) 
rmg_rxn_15486

>  <mol_properties>  (3) 
{"2": {"label": "acceptor", "atom_type": "Cd"}, "5": {"label": "a_hydrogen", "atom_type": "H0"}}

>  <type>  (3) 
r2h

$$$$

     RDKit          3D

 14 12  0  0  0  0  0  0  0  0999 V2000
    0.4856    2.6007    2.0755 O   0  0  0  0  0  0  0  0  0  0  0  0
    0.0368    1.6365    1.1595 N   0  0  0  0  0  0  0  0  0  0  0  0
    0.5541    1.6794    0.0399 C   0  0  0  0  0  3  0  0  0  0  0  0
   -0.0186    2.3922    2.8655 H   0  0  0  0  0  0  0  0  0  0  0  0
    1.3201    2.3331   -0.3717 H   0  0  0  0  0  0  0  0  0  0  0  0
    1.5871   -1.9476   -0.0066 O   0  0  0  0  0  1  0  0  0  0  0  0
    0.3829   -2.0530    0.3450 N   0  0  0  0  0  0  0  0  0  0  0  0
   -0.6428   -1.4498   -0.1949 C   0  0  0  0  0  3  0  0  0  0  0  0
   -0.4537   -0.5175   -1.2832 C   0  0  0  0  0  0  0  0  0  0  0  0
    0.1901   -2.6746    1.1337 H   0  0  0  0  0  0  0  0  0  0  0  0
   -1.5950   -1.6270    0.2839 H   0  0  0  0  0  0  0  0  0  0  0  0
   -0.0028    0.4983   -0.8053 H   0  0  0  0  0  0  0  0  0  0  0  0
    0.3278   -0.8235   -1.9771 H   0  0  0  0  0  0  0  0  0  0  0  0
   -1.3775   -0.2360   -1.7803 H   0  0  0  0  0  0  0  0  0  0  0  0
  1  2  1  0
  1  4  1  0
  2  3  2  3
  3  5  1  0
  6  7  1  0
  7  8  1  0
  7 10  1  0
  8  9  1  0
  8 11  1  0
  9 12  1  0
  9 13  1  0
  9 14  1  0
M  CHG  2   6  -1   8   1
M  RAD  1   3   2
M  END
>  <reaction>  (4) 
rmg_rxn_15486

>  <mol_properties>  (4) 
{"1": {"label": "*4", "atom_type": "N3d"}, "2": {"label": "*3", "atom_type": "Cd"}, "7": {"label": "*0", "atom_type": "Csc"}, "8": {"label": "*1", "atom_type": "Cs"}, "11": {"label": "*2", "atom_type": "H0"}}

>  <type>  (4) 
ts

$$$$
