
     RDKit          3D

 10  9  0  0  0  0  0  0  0  0999 V2000
    2.0404   -0.0577    0.0124 C   0  0  0  0  0  0  0  0  0  0  0  0
    0.5946   -0.0169    0.1900 C   0  0  0  0  0  0  0  0  0  0  0  0
   -0.5945    0.0167    0.3359 C   0  0  0  0  0  0  0  0  0  0  0  0
   -2.0404    0.0576    0.5134 C   0  0  0  0  0  0  0  0  0  0  0  0
    2.4763    0.9348    0.1391 H   0  0  0  0  0  0  0  0  0  0  0  0
    2.3001   -0.4153   -0.9854 H   0  0  0  0  0  0  0  0  0  0  0  0
    2.5035   -0.7251    0.7411 H   0  0  0  0  0  0  0  0  0  0  0  0
   -2.5531   -0.2778   -0.3897 H   0  0  0  0  0  0  0  0  0  0  0  0
   -2.3768    1.0718    0.7353 H   0  0  0  0  0  0  0  0  0  0  0  0
   -2.3500   -0.5882    1.3368 H   0  0  0  0  0  0  0  0  0  0  0  0
  1  2  1  0
  1  5  1  0
  1  6  1  0
  1  7  1  0
  2  3  3  0
  3  4  1  0
  4  8  1  0
  4  9  1  0
  4 10  1  0
M  END
>  <reaction>  (1) 
rmg_rxn_321

>  <mol_properties>  (1) 
{"3": {"label": "donator", "atom_type": "Cs"}, "9": {"label": "d_hydrogen", "atom_type": "H0"}}

>  <type>  (1) 
r1h

$$$$

     RDKit          3D

 17 16  0  0  0  0  0  0  0  0999 V2000
   -2.5196    0.7765    0.6863 C   0  0  0  0  0  0  0  0  0  0  0  0
   -1.7832    0.2264   -0.5439 C   0  0  0  0  0  0  0  0  0  0  0  0
   -0.5364   -0.5090   -0.2164 C   0  0  0  0  0  3  0  0  0  0  0  0
   -0.7195   -1.6896    0.4220 O   0  0  0  0  0  0  0  0  0  0  0  0
    0.4618   -2.3470    0.8423 C   0  0  0  0  0  0  0  0  0  0  0  0
    0.0797   -3.6206    1.5573 C   0  0  0  0  0  0  0  0  0  0  0  0
   -1.8902    1.4809    1.2340 H   0  0  0  0  0  0  0  0  0  0  0  0
   -3.4347    1.2951    0.3937 H   0  0  0  0  0  0  0  0  0  0  0  0
   -2.7882   -0.0345    1.3642 H   0  0  0  0  0  0  0  0  0  0  0  0
   -2.4551   -0.4399   -1.0937 H   0  0  0  0  0  0  0  0  0  0  0  0
   -1.5294    1.0480   -1.2176 H   0  0  0  0  0  0  0  0  0  0  0  0
    0.3864    0.0229    0.0104 H   0  0  0  0  0  0  0  0  0  0  0  0
    1.0871   -2.5604   -0.0319 H   0  0  0  0  0  0  0  0  0  0  0  0
    1.0283   -1.6824    1.5065 H   0  0  0  0  0  0  0  0  0  0  0  0
   -0.4799   -4.2803    0.8934 H   0  0  0  0  0  0  0  0  0  0  0  0
    0.9764   -4.1449    1.8908 H   0  0  0  0  0  0  0  0  0  0  0  0
   -0.5383   -3.4025    2.4289 H   0  0  0  0  0  0  0  0  0  0  0  0
  1  2  1  0
  1  7  1  0
  1  8  1  0
  1  9  1  0
  2  3  1  0
  2 10  1  0
  2 11  1  0
  3  4  1  0
  3 12  1  0
  4  5  1  0
  5  6  1  0
  5 13  1  0
  5 14  1  0
  6 15  1  0
  6 16  1  0
  6 17  1  0
M  RAD  1   3   2
M  END
>  <reaction>  (2) 
rmg_rxn_321

>  <mol_properties>  (2) 
{"2": {"label": "acceptor", "atom_type": "Cs"}}

>  <type>  (2) 
r2

$$$$

     RDKit          3D

 18 17  0  0  0  0  0  0  0  0999 V2000
    2.2026   -0.7213   -0.2612 C   0  0  0  0  0  0  0  0  0  0  0  0
    1.5384    0.2638    0.6915 C   0  0  0  0  0  0  0  0  0  0  0  0
    2.2584    1.5946    0.7694 C   0  0  0  0  0  0  0  0  0  0  0  0
    2.2212    2.2185   -0.4893 O   0  0  0  0  0  0  0  0  0  0  0  0
    2.8988    3.4488   -0.5204 C   0  0  0  0  0  0  0  0  0  0  0  0
    2.7981    4.0296   -1.9118 C   0  0  0  0  0  0  0  0  0  0  0  0
    3.2294   -0.9309    0.0486 H   0  0  0  0  0  0  0  0  0  0  0  0
    2.2338   -0.3181   -1.2734 H   0  0  0  0  0  0  0  0  0  0  0  0
    1.6610   -1.6680   -0.2875 H   0  0  0  0  0  0  0  0  0  0  0  0
    1.4990   -0.1566    1.7002 H   0  0  0  0  0  0  0  0  0  0  0  0
    0.5055    0.4455    0.3835 H   0  0  0  0  0  0  0  0  0  0  0  0
    3.3038    1.4410    1.0808 H   0  0  0  0  0  0  0  0  0  0  0  0
    1.7844    2.2410    1.5226 H   0  0  0  0  0  0  0  0  0  0  0  0
    2.4596    4.1376    0.2164 H   0  0  0  0  0  0  0  0  0  0  0  0
    3.9524    3.3035   -0.2397 H   0  0  0  0  0  0  0  0  0  0  0  0
    1.7543    4.1869   -2.1856 H   0  0  0  0  0  0  0  0  0  0  0  0
    3.2472    3.3545   -2.6411 H   0  0  0  0  0  0  0  0  0  0  0  0
    3.3178    4.9878   -1.9600 H   0  0  0  0  0  0  0  0  0  0  0  0
  1  2  1  0
  1  7  1  0
  1  8  1  0
  1  9  1  0
  2  3  1  0
  2 10  1  0
  2 11  1  0
  3  4  1  0
  3 12  1  0
  3 13  1  0
  4  5  1  0
  5  6  1  0
  5 14  1  0
  5 15  1  0
  6 16  1  0
  6 17  1  0
  6 18  1  0
M  END
>  <reaction>  (3) 
rmg_rxn_321

>  <mol_properties>  (3) 
{"0": {"label": "a_hydrogen", "atom_type": "H0"}, "3": {"label": "acceptor", "atom_type": "Cs"}}

>  <type>  (3) 
r2h

$$$$

     RDKit          3D

 27 25  0  0  0  0  0  0  0  0999 V2000
    0.9388   -0.7482   -3.2157 C   0  0  0  0  0  0  0  0  0  0  0  0
    0.6423   -1.2565   -1.8841 C   0  0  0  0  0  3  0  0  0  0  0  0
    0.3926   -1.6854   -0.7864 C   0  0  0  0  0  0  0  0  0  0  0  0
    0.0784   -2.0811    0.5436 C   0  0  0  0  0  0  0  0  0  0  0  0
    2.0089   -0.5686   -3.3356 H   0  0  0  0  0  0  0  0  0  0  0  0
    0.4165    0.1936   -3.3979 H   0  0  0  0  0  0  0  0  0  0  0  0
    0.6289   -1.4574   -3.9858 H   0  0  0  0  0  0  0  0  0  0  0  0
    0.9098   -2.4950    1.1105 H   0  0  0  0  0  0  0  0  0  0  0  0
   -0.8242   -2.6805    0.6443 H   0  0  0  0  0  0  0  0  0  0  0  0
   -0.2343   -0.9354    1.2150 H   0  0  0  0  0  0  0  0  0  0  0  0
   -2.6815    0.2386    0.3755 C   0  0  0  0  0  0  0  0  0  0  0  0
   -2.0360    0.3748    1.7503 C   0  0  0  0  0  0  0  0  0  0  0  0
   -0.5359    0.2883    1.7158 C   0  0  0  0  0  0  0  0  0  0  0  0
    0.0158    1.1974    0.8488 O   0  0  0  0  0  0  0  0  0  0  0  0
    1.4296    1.2313    0.8547 C   0  0  0  0  0  0  0  0  0  0  0  0
    1.8949    2.0937   -0.2929 C   0  0  0  0  0  0  0  0  0  0  0  0
   -2.4145   -0.7103   -0.0928 H   0  0  0  0  0  0  0  0  0  0  0  0
   -3.7685    0.2873    0.4534 H   0  0  0  0  0  0  0  0  0  0  0  0
   -2.3490    1.0365   -0.2878 H   0  0  0  0  0  0  0  0  0  0  0  0
   -2.3301    1.3291    2.2030 H   0  0  0  0  0  0  0  0  0  0  0  0
   -2.3977   -0.4113    2.4187 H   0  0  0  0  0  0  0  0  0  0  0  0
   -0.0552    0.2884    2.7024 H   0  0  0  0  0  0  0  0  0  0  0  0
    1.7787    1.6290    1.8172 H   0  0  0  0  0  0  0  0  0  0  0  0
    1.8206    0.2138    0.7469 H   0  0  0  0  0  0  0  0  0  0  0  0
    1.4891    3.1025   -0.2083 H   0  0  0  0  0  0  0  0  0  0  0  0
    2.9841    2.1567   -0.2981 H   0  0  0  0  0  0  0  0  0  0  0  0
    1.5663    1.6627   -1.2392 H   0  0  0  0  0  0  0  0  0  0  0  0
  1  2  1  0
  1  5  1  0
  1  6  1  0
  1  7  1  0
  2  3  2  0
  3  4  2  0
  4  8  1  0
  4  9  1  0
 10 13  1  0
 11 12  1  0
 11 17  1  0
 11 18  1  0
 11 19  1  0
 12 13  1  0
 12 20  1  0
 12 21  1  0
 13 14  1  0
 13 22  1  0
 14 15  1  0
 15 16  1  0
 15 23  1  0
 15 24  1  0
 16 25  1  0
 16 26  1  0
 16 27  1  0
M  RAD  1   2   2
M  END
>  <reaction>  (4) 
rmg_rxn_321

>  <mol_properties>  (4) 
{"2": {"label": "*4", "atom_type": "Cdd"}, "3": {"label": "*3", "atom_type": "Cd"}, "9": {"label": "*2", "atom_type": "H0"}, "12": {"label": "*1", "atom_type": "Cs"}, "13": {"label": "*0", "atom_type": "O2s"}}

>  <type>  (4) 
ts

$$$$
