
     RDKit          3D

  5  4  0  0  0  0  0  0  0  0999 V2000
    0.7361   -0.2872    0.4035 N   0  0  0  0  0  2  0  0  0  0  0  0
   -0.3891   -0.1505   -0.3131 N   0  0  0  0  0  0  0  0  0  0  0  0
    1.4909    0.0686   -0.1831 H   0  0  0  0  0  0  0  0  0  0  0  0
   -1.1819   -0.6340    0.0744 H   0  0  0  0  0  0  0  0  0  0  0  0
   -0.3592   -0.1189   -1.3223 H   0  0  0  0  0  0  0  0  0  0  0  0
  1  2  1  0
  1  3  1  0
  2  4  1  0
  2  5  1  0
M  RAD  1   1   2
M  END
>  <reaction>  (1) 
rmg_rxn_390

>  <mol_properties>  (1) 
{"0": {"label": "donator", "atom_type": "N3s"}, "2": {"label": "d_hydrogen", "atom_type": "H0"}}

>  <type>  (1) 
r1h

$$$$

     RDKit          3D

  8  7  0  0  0  0  0  0  0  0999 V2000
   -0.7877    0.0858   -0.0844 C   0  0  0  0  0  0  0  0  0  0  0  0
    0.7225   -0.0625   -0.0124 C   0  0  0  0  0  0  0  0  0  0  0  0
    1.2936   -0.7834   -1.0109 O   0  0  0  0  0  1  0  0  0  0  0  0
   -1.2676   -0.8930   -0.0533 H   0  0  0  0  0  0  0  0  0  0  0  0
   -1.1575    0.6792    0.7543 H   0  0  0  0  0  0  0  0  0  0  0  0
   -1.0772    0.5805   -1.0122 H   0  0  0  0  0  0  0  0  0  0  0  0
    1.2273    0.9216    0.0046 H   0  0  0  0  0  0  0  0  0  0  0  0
    1.0419   -0.5186    0.9432 H   0  0  0  0  0  0  0  0  0  0  0  0
  1  2  1  0
  1  4  1  0
  1  5  1  0
  1  6  1  0
  2  3  1  0
  2  7  1  0
  2  8  1  0
M  RAD  1   3   2
M  END
>  <reaction>  (2) 
rmg_rxn_390

>  <mol_properties>  (2) 
{"2": {"label": "acceptor", "atom_type": "O2s"}}

>  <type>  (2) 
r2

$$$$

     RDKit          3D

  9  8  0  0  0  0  0  0  0  0999 V2000
   -0.9895    0.3048    0.1041 C   0  0  0  0  0  0  0  0  0  0  0  0
    0.3761   -0.3562    0.0721 C   0  0  0  0  0  0  0  0  0  0  0  0
    0.3441   -1.6564   -0.4834 O   0  0  0  0  0  0  0  0  0  0  0  0
   -1.6997   -0.3114    0.6572 H   0  0  0  0  0  0  0  0  0  0  0  0
   -0.9320    1.2848    0.5822 H   0  0  0  0  0  0  0  0  0  0  0  0
   -1.3774    0.4507   -0.9077 H   0  0  0  0  0  0  0  0  0  0  0  0
    0.7581   -0.4813    1.0862 H   0  0  0  0  0  0  0  0  0  0  0  0
    1.0900    0.2787   -0.4681 H   0  0  0  0  0  0  0  0  0  0  0  0
    0.0089   -1.5959   -1.3792 H   0  0  0  0  0  0  0  0  0  0  0  0
  1  2  1  0
  1  4  1  0
  1  5  1  0
  1  6  1  0
  2  3  1  0
  2  7  1  0
  2  8  1  0
  3  9  1  0
M  END
>  <reaction>  (3) 
rmg_rxn_390

>  <mol_properties>  (3) 
{"0": {"label": "a_hydrogen", "atom_type": "H0"}, "3": {"label": "acceptor", "atom_type": "O2s"}}

>  <type>  (3) 
r2h

$$$$

     RDKit          3D

 13 11  0  0  0  0  0  0  0  0999 V2000
   -0.1991   -1.7275   -0.2660 N   0  0  0  0  0  2  0  0  0  0  0  0
    1.0768   -1.9024   -0.6061 N   0  0  0  0  0  0  0  0  0  0  0  0
   -0.2437   -0.7662    0.2733 H   0  0  0  0  0  0  0  0  0  0  0  0
    1.3225   -2.8543   -0.8310 H   0  0  0  0  0  0  0  0  0  0  0  0
    1.7729   -1.3729   -0.0953 H   0  0  0  0  0  0  0  0  0  0  0  0
   -1.3671    1.6726   -0.6247 C   0  0  0  0  0  0  0  0  0  0  0  0
    0.0857    1.3655   -0.3075 C   0  0  0  0  0  0  0  0  0  0  0  0
    0.2587    0.4450    0.7144 O   0  0  0  0  0  1  0  0  0  0  0  0
   -1.8875    2.0193    0.2688 H   0  0  0  0  0  0  0  0  0  0  0  0
   -1.4377    2.4443   -1.3939 H   0  0  0  0  0  0  0  0  0  0  0  0
   -1.8702    0.7767   -0.9922 H   0  0  0  0  0  0  0  0  0  0  0  0
    0.6275    1.0496   -1.2116 H   0  0  0  0  0  0  0  0  0  0  0  0
    0.6007    2.2723    0.0464 H   0  0  0  0  0  0  0  0  0  0  0  0
  1  2  1  0
  1  3  1  0
  2  4  1  0
  2  5  1  0
  6  7  1  0
  6  9  1  0
  6 10  1  0
  6 11  1  0
  7  8  1  0
  7 12  1  0
  7 13  1  0
M  RAD  2   1   2   8   2
M  END
>  <reaction>  (4) 
rmg_rxn_390

>  <mol_properties>  (4) 
{"0": {"label": "*1", "atom_type": "N3s"}, "1": {"label": "*0", "atom_type": "N3s"}, "2": {"label": "*2", "atom_type": "H0"}, "6": {"label": "*4", "atom_type": "Cs"}, "7": {"label": "*3", "atom_type": "O2s"}}

>  <type>  (4) 
ts

$$$$
