
     RDKit          3D

 12 11  0  0  0  0  0  0  0  0999 V2000
    1.8075    0.1979    0.4695 C   0  0  0  0  0  0  0  0  0  0  0  0
    1.0072   -0.8859   -0.7259 S   0  0  0  0  0  0  0  0  0  0  0  0
   -0.7258   -0.6904   -0.2447 C   0  0  0  0  0  0  0  0  0  0  0  0
   -1.0856   -1.2776    1.1108 C   0  0  0  0  0  0  0  0  0  0  0  0
    1.7126   -0.1777    1.4878 H   0  0  0  0  0  0  0  0  0  0  0  0
    1.4024    1.2089    0.4095 H   0  0  0  0  0  0  0  0  0  0  0  0
    2.8647    0.2298    0.2095 H   0  0  0  0  0  0  0  0  0  0  0  0
   -1.2866   -1.1892   -1.0369 H   0  0  0  0  0  0  0  0  0  0  0  0
   -0.9814    0.3707   -0.2917 H   0  0  0  0  0  0  0  0  0  0  0  0
   -0.5492   -0.7768    1.9180 H   0  0  0  0  0  0  0  0  0  0  0  0
   -0.8418   -2.3397    1.1503 H   0  0  0  0  0  0  0  0  0  0  0  0
   -2.1545   -1.1604    1.3035 H   0  0  0  0  0  0  0  0  0  0  0  0
  1  2  1  0
  1  5  1  0
  1  6  1  0
  1  7  1  0
  2  3  1  0
  3  4  1  0
  3  8  1  0
  3  9  1  0
  4 10  1  0
  4 11  1  0
  4 12  1  0
M  END
>  <reaction>  (1) 
rmg_rxn_520

>  <mol_properties>  (1) 
{"0": {"label": "donator", "atom_type": "Cs"}, "4": {"label": "d_hydrogen", "atom_type": "H0"}}

>  <type>  (1) 
r1h

$$$$

     RDKit          3D

 13 12  0  0  0  0  0  0  0  0999 V2000
    2.0654   -0.2739   -0.0844 C   0  0  0  0  0  3  0  0  0  0  0  0
    0.6326   -0.4110   -0.4406 C   0  0  0  0  0  0  0  0  0  0  0  0
   -0.3055    0.4151    0.4359 C   0  0  0  0  0  0  0  0  0  0  0  0
   -1.7714    0.2357    0.0671 C   0  0  0  0  0  0  0  0  0  0  0  0
    2.3610    0.0676    0.8995 H   0  0  0  0  0  0  0  0  0  0  0  0
    2.8408   -0.6127   -0.7582 H   0  0  0  0  0  0  0  0  0  0  0  0
    0.3313   -1.4695   -0.3768 H   0  0  0  0  0  0  0  0  0  0  0  0
    0.4826   -0.1432   -1.4940 H   0  0  0  0  0  0  0  0  0  0  0  0
   -0.1518    0.1351    1.4826 H   0  0  0  0  0  0  0  0  0  0  0  0
   -0.0303    1.4705    0.3565 H   0  0  0  0  0  0  0  0  0  0  0  0
   -2.0768   -0.8084    0.1692 H   0  0  0  0  0  0  0  0  0  0  0  0
   -1.9546    0.5339   -0.9679 H   0  0  0  0  0  0  0  0  0  0  0  0
   -2.4194    0.8370    0.7066 H   0  0  0  0  0  0  0  0  0  0  0  0
  1  2  1  0
  1  5  1  0
  1  6  1  0
  2  3  1  0
  2  7  1  0
  2  8  1  0
  3  4  1  0
  3  9  1  0
  3 10  1  0
  4 11  1  0
  4 12  1  0
  4 13  1  0
M  RAD  1   1   2
M  END
>  <reaction>  (2) 
rmg_rxn_520

>  <mol_properties>  (2) 
{"0": {"label": "acceptor", "atom_type": "Cs"}}

>  <type>  (2) 
r2

$$$$

     RDKit          3D

 14 13  0  0  0  0  0  0  0  0999 V2000
    1.8106   -0.5953    0.5577 C   0  0  0  0  0  0  0  0  0  0  0  0
    0.5197    0.2064    0.6554 C   0  0  0  0  0  0  0  0  0  0  0  0
   -0.5206   -0.2080   -0.3788 C   0  0  0  0  0  0  0  0  0  0  0  0
   -1.8114    0.5937   -0.2812 C   0  0  0  0  0  0  0  0  0  0  0  0
    2.2725   -0.4752   -0.4251 H   0  0  0  0  0  0  0  0  0  0  0  0
    1.6214   -1.6612    0.7052 H   0  0  0  0  0  0  0  0  0  0  0  0
    2.5364   -0.2784    1.3084 H   0  0  0  0  0  0  0  0  0  0  0  0
    0.0930    0.0950    1.6574 H   0  0  0  0  0  0  0  0  0  0  0  0
    0.7393    1.2723    0.5354 H   0  0  0  0  0  0  0  0  0  0  0  0
   -0.7402   -1.2739   -0.2588 H   0  0  0  0  0  0  0  0  0  0  0  0
   -0.0938   -0.0965   -1.3808 H   0  0  0  0  0  0  0  0  0  0  0  0
   -1.6222    1.6596   -0.4287 H   0  0  0  0  0  0  0  0  0  0  0  0
   -2.2734    0.4736    0.7017 H   0  0  0  0  0  0  0  0  0  0  0  0
   -2.5373    0.2768   -1.0318 H   0  0  0  0  0  0  0  0  0  0  0  0
  1  2  1  0
  1  5  1  0
  1  6  1  0
  1  7  1  0
  2  3  1  0
  2  8  1  0
  2  9  1  0
  3  4  1  0
  3 10  1  0
  3 11  1  0
  4 12  1  0
  4 13  1  0
  4 14  1  0
M  END
>  <reaction>  (3) 
rmg_rxn_520

>  <mol_properties>  (3) 
{"0": {"label": "a_hydrogen", "atom_type": "H0"}, "1": {"label": "acceptor", "atom_type": "Cs"}}

>  <type>  (3) 
r2h

$$$$

     RDKit          3D

 25 23  0  0  0  0  0  0  0  0999 V2000
    0.8117    0.6412    1.7152 C   0  0  0  0  0  0  0  0  0  0  0  0
   -0.7793   -0.0651    2.0103 S   0  0  0  0  0  0  0  0  0  0  0  0
   -0.4031   -1.8317    1.9194 C   0  0  0  0  0  0  0  0  0  0  0  0
   -0.0292   -2.3376    0.5360 C   0  0  0  0  0  0  0  0  0  0  0  0
    1.1413    0.6376    0.4452 H   0  0  0  0  0  0  0  0  0  0  0  0
    1.6193    0.1235    2.2333 H   0  0  0  0  0  0  0  0  0  0  0  0
    0.7912    1.6994    1.9683 H   0  0  0  0  0  0  0  0  0  0  0  0
   -1.3086   -2.3244    2.2770 H   0  0  0  0  0  0  0  0  0  0  0  0
    0.3875   -2.0478    2.6413 H   0  0  0  0  0  0  0  0  0  0  0  0
    0.8717   -1.8467    0.1671 H   0  0  0  0  0  0  0  0  0  0  0  0
   -0.8328   -2.1504   -0.1770 H   0  0  0  0  0  0  0  0  0  0  0  0
    0.1614   -3.4128    0.5654 H   0  0  0  0  0  0  0  0  0  0  0  0
    1.4347    0.7383   -0.9093 C   0  0  0  0  0  3  0  0  0  0  0  0
    0.1048    0.8682   -1.5975 C   0  0  0  0  0  0  0  0  0  0  0  0
    0.2119    0.9507   -3.1223 C   0  0  0  0  0  0  0  0  0  0  0  0
   -1.1462    1.0793   -3.7997 C   0  0  0  0  0  0  0  0  0  0  0  0
    2.0753    1.6175   -0.9665 H   0  0  0  0  0  0  0  0  0  0  0  0
    1.9846   -0.1758   -1.1324 H   0  0  0  0  0  0  0  0  0  0  0  0
   -0.4147    1.7583   -1.2277 H   0  0  0  0  0  0  0  0  0  0  0  0
   -0.5309    0.0181   -1.3308 H   0  0  0  0  0  0  0  0  0  0  0  0
    0.8424    1.8031   -3.3926 H   0  0  0  0  0  0  0  0  0  0  0  0
    0.7267    0.0591   -3.4929 H   0  0  0  0  0  0  0  0  0  0  0  0
   -1.6670    1.9791   -3.4644 H   0  0  0  0  0  0  0  0  0  0  0  0
   -1.7828    0.2231   -3.5648 H   0  0  0  0  0  0  0  0  0  0  0  0
   -1.0472    1.1349   -4.8851 H   0  0  0  0  0  0  0  0  0  0  0  0
  1  2  1  0
  1  5  1  0
  1  6  1  0
  1  7  1  0
  2  3  1  0
  3  4  1  0
  3  8  1  0
  3  9  1  0
  4 10  1  0
  4 11  1  0
  4 12  1  0
 13 14  1  0
 13 17  1  0
 13 18  1  0
 14 15  1  0
 14 19  1  0
 14 20  1  0
 15 16  1  0
 15 21  1  0
 15 22  1  0
 16 23  1  0
 16 24  1  0
 16 25  1  0
M  RAD  1  13   2
M  END
>  <reaction>  (4) 
rmg_rxn_520

>  <mol_properties>  (4) 
{"0": {"label": "*1", "atom_type": "Cs"}, "1": {"label": "*0", "atom_type": "S2s"}, "4": {"label": "*2", "atom_type": "H0"}, "12": {"label": "*3", "atom_type": "Cs"}, "13": {"label": "*4", "atom_type": "Cs"}}

>  <type>  (4) 
ts

$$$$
