
     RDKit          3D

  9  8  0  0  0  0  0  0  0  0999 V2000
    1.1303   -0.2933   -0.7510 C   0  0  0  0  0  0  0  0  0  0  0  0
    0.2866    0.4560   -0.0588 C   0  0  0  0  0  0  0  0  0  0  0  0
   -0.9719   -0.0331    0.5823 C   0  0  0  0  0  0  0  0  0  0  0  0
    2.0274    0.1230   -1.1916 H   0  0  0  0  0  0  0  0  0  0  0  0
    0.9532   -1.3530   -0.9023 H   0  0  0  0  0  0  0  0  0  0  0  0
    0.5065    1.5132    0.0659 H   0  0  0  0  0  0  0  0  0  0  0  0
   -0.9526    0.1426    1.6610 H   0  0  0  0  0  0  0  0  0  0  0  0
   -1.1182   -1.1002    0.4106 H   0  0  0  0  0  0  0  0  0  0  0  0
   -1.8412    0.5010    0.1901 H   0  0  0  0  0  0  0  0  0  0  0  0
  1  2  2  3
  1  4  1  0
  1  5  1  0
  2  3  1  0
  2  6  1  0
  3  7  1  0
  3  8  1  0
  3  9  1  0
M  END
>  <reaction>  (1) 
rmg_rxn_354

>  <mol_properties>  (1) 
{"0": {"label": "donator", "atom_type": "Cd"}, "3": {"label": "d_hydrogen", "atom_type": "H0"}}

>  <type>  (1) 
r1h

$$$$

     RDKit          3D

 14 13  0  0  0  0  0  0  0  0999 V2000
    2.6194    0.1388   -0.2451 C   0  0  0  0  0  0  0  0  0  0  0  0
    1.2416   -0.4914   -0.3670 C   0  0  0  0  0  0  0  0  0  0  0  0
    0.9567   -1.8675    0.7732 S   0  0  0  0  0  0  0  0  0  0  0  0
    1.9992   -3.0673    0.1320 C   0  0  0  0  0  3  0  0  0  0  0  0
    2.1769   -4.3519    0.8615 C   0  0  0  0  0  0  0  0  0  0  0  0
    3.4009   -0.5920   -0.4552 H   0  0  0  0  0  0  0  0  0  0  0  0
    2.7219    0.9635   -0.9540 H   0  0  0  0  0  0  0  0  0  0  0  0
    2.7821    0.5262    0.7612 H   0  0  0  0  0  0  0  0  0  0  0  0
    1.0587   -0.8507   -1.3815 H   0  0  0  0  0  0  0  0  0  0  0  0
    0.4587    0.2313   -0.1333 H   0  0  0  0  0  0  0  0  0  0  0  0
    2.2677   -2.9922   -0.9152 H   0  0  0  0  0  0  0  0  0  0  0  0
    1.3745   -5.0711    0.6500 H   0  0  0  0  0  0  0  0  0  0  0  0
    3.1173   -4.8269    0.5747 H   0  0  0  0  0  0  0  0  0  0  0  0
    2.1945   -4.1971    1.9428 H   0  0  0  0  0  0  0  0  0  0  0  0
  1  2  1  0
  1  6  1  0
  1  7  1  0
  1  8  1  0
  2  3  1  0
  2  9  1  0
  2 10  1  0
  3  4  1  0
  4  5  1  0
  4 11  1  0
  5 12  1  0
  5 13  1  0
  5 14  1  0
M  RAD  1   4   2
M  END
>  <reaction>  (2) 
rmg_rxn_354

>  <mol_properties>  (2) 
{"3": {"label": "acceptor", "atom_type": "Cs"}}

>  <type>  (2) 
r2

$$$$

     RDKit          3D

 15 14  0  0  0  0  0  0  0  0999 V2000
   -2.0554    0.0723   -0.4910 C   0  0  0  0  0  0  0  0  0  0  0  0
   -0.7461   -0.6266   -0.8178 C   0  0  0  0  0  0  0  0  0  0  0  0
    0.3249    0.2591   -1.9782 S   0  0  0  0  0  0  0  0  0  0  0  0
   -0.7172    0.3642   -3.4551 C   0  0  0  0  0  0  0  0  0  0  0  0
   -1.1375   -0.9737   -4.0409 C   0  0  0  0  0  0  0  0  0  0  0  0
   -2.7005    0.1427   -1.3684 H   0  0  0  0  0  0  0  0  0  0  0  0
   -2.6016   -0.4848    0.2733 H   0  0  0  0  0  0  0  0  0  0  0  0
   -1.8758    1.0825   -0.1213 H   0  0  0  0  0  0  0  0  0  0  0  0
   -0.1320   -0.7246    0.0789 H   0  0  0  0  0  0  0  0  0  0  0  0
   -0.9254   -1.6374   -1.1879 H   0  0  0  0  0  0  0  0  0  0  0  0
   -1.5873    0.9874   -3.2422 H   0  0  0  0  0  0  0  0  0  0  0  0
   -0.1021    0.9161   -4.1678 H   0  0  0  0  0  0  0  0  0  0  0  0
   -1.7876   -1.5224   -3.3574 H   0  0  0  0  0  0  0  0  0  0  0  0
   -0.2676   -1.5962   -4.2534 H   0  0  0  0  0  0  0  0  0  0  0  0
   -1.6916   -0.8229   -4.9700 H   0  0  0  0  0  0  0  0  0  0  0  0
  1  2  1  0
  1  6  1  0
  1  7  1  0
  1  8  1  0
  2  3  1  0
  2  9  1  0
  2 10  1  0
  3  4  1  0
  4  5  1  0
  4 11  1  0
  4 12  1  0
  5 13  1  0
  5 14  1  0
  5 15  1  0
M  END
>  <reaction>  (3) 
rmg_rxn_354

>  <mol_properties>  (3) 
{"0": {"label": "a_hydrogen", "atom_type": "H0"}, "4": {"label": "acceptor", "atom_type": "Cs"}}

>  <type>  (3) 
r2h

$$$$

     RDKit          3D

 23 21  0  0  0  0  0  0  0  0999 V2000
    0.9200    0.8359   -1.3522 C   0  0  0  0  0  3  0  0  0  0  0  0
    0.3528   -0.2060   -1.9151 C   0  0  0  0  0  0  0  0  0  0  0  0
    0.7693   -0.8404   -3.2114 C   0  0  0  0  0  0  0  0  0  0  0  0
    0.2634    1.2445   -0.0989 H   0  0  0  0  0  0  0  0  0  0  0  0
    1.7602    1.4272   -1.7009 H   0  0  0  0  0  0  0  0  0  0  0  0
   -0.4950   -0.6662   -1.4062 H   0  0  0  0  0  0  0  0  0  0  0  0
    1.0419   -1.8873   -3.0558 H   0  0  0  0  0  0  0  0  0  0  0  0
    1.6206   -0.3237   -3.6548 H   0  0  0  0  0  0  0  0  0  0  0  0
   -0.0562   -0.8263   -3.9275 H   0  0  0  0  0  0  0  0  0  0  0  0
    0.8377   -1.3660    1.5953 C   0  0  0  0  0  0  0  0  0  0  0  0
   -0.2576   -0.6816    2.3961 C   0  0  0  0  0  0  0  0  0  0  0  0
   -1.4531    0.2578    1.4149 S   0  0  0  0  0  0  0  0  0  0  0  0
   -0.4526    1.6162    0.8431 C   0  0  0  0  0  0  0  0  0  0  0  0
   -1.2894    2.7518    0.2970 C   0  0  0  0  0  0  0  0  0  0  0  0
    1.4456   -0.6429    1.0516 H   0  0  0  0  0  0  0  0  0  0  0  0
    1.4930   -1.9308    2.2626 H   0  0  0  0  0  0  0  0  0  0  0  0
    0.4128   -2.0545    0.8641 H   0  0  0  0  0  0  0  0  0  0  0  0
    0.1660   -0.0105    3.1463 H   0  0  0  0  0  0  0  0  0  0  0  0
   -0.8619   -1.4172    2.9295 H   0  0  0  0  0  0  0  0  0  0  0  0
    0.2436    1.9358    1.6213 H   0  0  0  0  0  0  0  0  0  0  0  0
   -1.9081    3.2059    1.0738 H   0  0  0  0  0  0  0  0  0  0  0  0
   -0.6408    3.5229   -0.1222 H   0  0  0  0  0  0  0  0  0  0  0  0
   -1.9457    2.4006   -0.5014 H   0  0  0  0  0  0  0  0  0  0  0  0
  1  2  2  3
  1  5  1  0
  2  3  1  0
  2  6  1  0
  3  7  1  0
  3  8  1  0
  3  9  1  0
  4 13  1  0
 10 11  1  0
 10 15  1  0
 10 16  1  0
 10 17  1  0
 11 12  1  0
 11 18  1  0
 11 19  1  0
 12 13  1  0
 13 14  1  0
 13 20  1  0
 14 21  1  0
 14 22  1  0
 14 23  1  0
M  RAD  1   1   2
M  END
>  <reaction>  (4) 
rmg_rxn_354

>  <mol_properties>  (4) 
{"0": {"label": "*3", "atom_type": "Cd"}, "1": {"label": "*4", "atom_type": "Cd"}, "3": {"label": "*2", "atom_type": "H0"}, "11": {"label": "*0", "atom_type": "S2s"}, "12": {"label": "*1", "atom_type": "Cs"}}

>  <type>  (4) 
ts

$$$$
