
     RDKit          3D

 10  9  0  0  0  0  0  0  0  0999 V2000
   -1.1906   -0.0419   -0.0385 C   0  0  0  0  0  0  0  0  0  0  0  0
    0.2513    0.4500    0.0348 C   0  0  0  0  0  0  0  0  0  0  0  0
    1.2500   -0.5694    0.3278 N   0  0  0  0  0  0  0  0  0  0  0  0
   -1.4965   -0.4905    0.9100 H   0  0  0  0  0  0  0  0  0  0  0  0
   -1.3035   -0.7985   -0.8190 H   0  0  0  0  0  0  0  0  0  0  0  0
   -1.8789    0.7769   -0.2612 H   0  0  0  0  0  0  0  0  0  0  0  0
    0.3352    1.2278    0.7979 H   0  0  0  0  0  0  0  0  0  0  0  0
    0.5259    0.9233   -0.9113 H   0  0  0  0  0  0  0  0  0  0  0  0
    1.2298   -1.2971   -0.3752 H   0  0  0  0  0  0  0  0  0  0  0  0
    1.0523   -1.0138    1.2153 H   0  0  0  0  0  0  0  0  0  0  0  0
  1  2  1  0
  1  4  1  0
  1  5  1  0
  1  6  1  0
  2  3  1  0
  2  7  1  0
  2  8  1  0
  3  9  1  0
  3 10  1  0
M  END
>  <reaction>  (1) 
rmg_rxn_15390

>  <mol_properties>  (1) 
{"2": {"label": "donator", "atom_type": "N3s"}, "8": {"label": "d_hydrogen", "atom_type": "H0"}}

>  <type>  (1) 
r1h

$$$$

     RDKit          3D

  5  4  0  0  0  0  0  0  0  0999 V2000
    0.8934    0.3742    0.4948 O   0  0  0  0  0  0  0  0  0  0  0  0
    0.1582   -0.1610   -0.5904 N   0  0  0  0  0  0  0  0  0  0  0  0
   -1.0297   -0.3739   -0.4689 C   0  0  0  0  0  3  0  0  0  0  0  0
    1.7804    0.4382    0.1306 H   0  0  0  0  0  0  0  0  0  0  0  0
   -1.8023   -0.2775    0.2859 H   0  0  0  0  0  0  0  0  0  0  0  0
  1  2  1  0
  1  4  1  0
  2  3  2  3
  3  5  1  0
M  RAD  1   3   2
M  END
>  <reaction>  (2) 
rmg_rxn_15390

>  <mol_properties>  (2) 
{"2": {"label": "acceptor", "atom_type": "Cd"}}

>  <type>  (2) 
r2

$$$$

     RDKit          3D

  6  5  0  0  0  0  0  0  0  0999 V2000
    1.2314    0.0428    0.5088 O   0  0  0  0  0  0  0  0  0  0  0  0
    0.2987    0.2341   -0.4915 N   0  0  0  0  0  0  0  0  0  0  0  0
   -0.8599   -0.1122   -0.1290 C   0  0  0  0  0  0  0  0  0  0  0  0
    2.0507    0.3401    0.1082 H   0  0  0  0  0  0  0  0  0  0  0  0
   -1.0700   -0.5112    0.8610 H   0  0  0  0  0  0  0  0  0  0  0  0
   -1.6509    0.0064   -0.8574 H   0  0  0  0  0  0  0  0  0  0  0  0
  1  2  1  0
  1  4  1  0
  2  3  2  3
  3  5  1  0
  3  6  1  0
M  END
>  <reaction>  (3) 
rmg_rxn_15390

>  <mol_properties>  (3) 
{"2": {"label": "acceptor", "atom_type": "Cd"}, "5": {"label": "a_hydrogen", "atom_type": "H0"}}

>  <type>  (3) 
r2h

$$$$

     RDKit          3D

 15 13  0  0  0  0  0  0  0  0999 V2000
   -2.4286    1.1874   -0.6374 O   0  0  0  0  0  0  0  0  0  0  0  0
   -1.3015    0.4908   -0.1869 N   0  0  0  0  0  0  0  0  0  0  0  0
   -0.4974    1.1804    0.4643 C   0  0  0  0  0  3  0  0  0  0  0  0
   -2.9273    0.5100   -1.0999 H   0  0  0  0  0  0  0  0  0  0  0  0
   -0.5786    2.2428    0.6986 H   0  0  0  0  0  0  0  0  0  0  0  0
    1.5535   -1.4382   -1.0103 C   0  0  0  0  0  0  0  0  0  0  0  0
    1.3619   -1.4542    0.5003 C   0  0  0  0  0  0  0  0  0  0  0  0
    1.5524   -0.1815    1.1776 N   0  0  0  0  0  0  0  0  0  0  0  0
    2.5601   -1.0998   -1.2695 H   0  0  0  0  0  0  0  0  0  0  0  0
    0.8311   -0.7695   -1.4796 H   0  0  0  0  0  0  0  0  0  0  0  0
    1.4185   -2.4369   -1.4300 H   0  0  0  0  0  0  0  0  0  0  0  0
    2.0682   -2.1595    0.9551 H   0  0  0  0  0  0  0  0  0  0  0  0
    0.3626   -1.8164    0.7513 H   0  0  0  0  0  0  0  0  0  0  0  0
    0.5884    0.4834    0.9975 H   0  0  0  0  0  0  0  0  0  0  0  0
    2.2897    0.3389    0.7020 H   0  0  0  0  0  0  0  0  0  0  0  0
  1  2  1  0
  1  4  1  0
  2  3  2  3
  3  5  1  0
  6  7  1  0
  6  9  1  0
  6 10  1  0
  6 11  1  0
  7  8  1  0
  7 12  1  0
  7 13  1  0
  8 14  1  0
  8 15  1  0
M  RAD  1   3   2
M  END
>  <reaction>  (4) 
rmg_rxn_15390

>  <mol_properties>  (4) 
{"1": {"label": "*4", "atom_type": "N3d"}, "2": {"label": "*3", "atom_type": "Cd"}, "6": {"label": "*0", "atom_type": "Cs"}, "7": {"label": "*1", "atom_type": "N3s"}, "13": {"label": "*2", "atom_type": "H0"}}

>  <type>  (4) 
ts

$$$$
