
     RDKit          3D

 14 13  0  0  0  0  0  0  0  0999 V2000
    2.6835   -0.4133    0.0000 C   0  0  0  0  0  0  0  0  0  0  0  0
    1.5970    0.5046    0.0000 O   0  0  0  0  0  0  0  0  0  0  0  0
    0.3396   -0.1741   -0.0000 C   0  0  0  0  0  0  0  0  0  0  0  0
   -0.7603    0.8710    0.0000 C   0  0  0  0  0  0  0  0  0  0  0  0
   -2.1280    0.2478    0.0000 C   0  0  0  0  0  0  0  0  0  0  0  0
   -2.3411   -0.9603    0.0000 O   0  0  0  0  0  0  0  0  0  0  0  0
    2.6563   -1.0389   -0.8974 H   0  0  0  0  0  0  0  0  0  0  0  0
    2.6563   -1.0389    0.8974 H   0  0  0  0  0  0  0  0  0  0  0  0
    3.6159    0.1574    0.0000 H   0  0  0  0  0  0  0  0  0  0  0  0
    0.2658   -0.8093   -0.8908 H   0  0  0  0  0  0  0  0  0  0  0  0
    0.2658   -0.8093    0.8908 H   0  0  0  0  0  0  0  0  0  0  0  0
   -0.6740    1.5163   -0.8809 H   0  0  0  0  0  0  0  0  0  0  0  0
   -0.6740    1.5163    0.8809 H   0  0  0  0  0  0  0  0  0  0  0  0
   -2.9678    0.9638   -0.0000 H   0  0  0  0  0  0  0  0  0  0  0  0
  1  2  1  0
  1  7  1  0
  1  8  1  0
  1  9  1  0
  2  3  1  0
  3  4  1  0
  3 10  1  0
  3 11  1  0
  4  5  1  0
  4 12  1  0
  4 13  1  0
  5  6  2  0
  5 14  1  0
M  END
>  <reaction>  (1) 
rmg_rxn_1345

>  <mol_properties>  (1) 
{"0": {"label": "donator", "atom_type": "Cs"}, "6": {"label": "d_hydrogen", "atom_type": "H0"}}

>  <type>  (1) 
r1h

$$$$

     RDKit          3D

  8  7  0  0  0  0  0  0  0  0999 V2000
   -1.1207   -0.2113   -0.0024 C   0  0  0  0  0  0  0  0  0  0  0  0
    0.2278    0.5304   -0.0026 C   0  0  0  0  0  0  0  0  0  0  0  0
    1.1758   -0.3927    0.0010 O   0  0  0  0  0  1  0  0  0  0  0  0
   -1.2050   -0.8270    0.9007 H   0  0  0  0  0  0  0  0  0  0  0  0
   -1.9706    0.4828   -0.0053 H   0  0  0  0  0  0  0  0  0  0  0  0
   -1.2203   -0.8816   -0.8654 H   0  0  0  0  0  0  0  0  0  0  0  0
    0.1749    1.2243   -0.8560 H   0  0  0  0  0  0  0  0  0  0  0  0
    0.1727    1.2287    0.8472 H   0  0  0  0  0  0  0  0  0  0  0  0
  1  2  1  0
  1  4  1  0
  1  5  1  0
  1  6  1  0
  2  3  1  0
  2  7  1  0
  2  8  1  0
M  RAD  1   3   2
M  END
>  <reaction>  (2) 
rmg_rxn_1345

>  <mol_properties>  (2) 
{"2": {"label": "acceptor", "atom_type": "O2s"}}

>  <type>  (2) 
r2

$$$$

     RDKit          3D

  9  8  0  0  0  0  0  0  0  0999 V2000
    1.1890   -0.2426   -0.0202 C   0  0  0  0  0  0  0  0  0  0  0  0
   -0.0825    0.5777    0.0465 C   0  0  0  0  0  0  0  0  0  0  0  0
   -1.2134   -0.2664   -0.1128 O   0  0  0  0  0  0  0  0  0  0  0  0
    1.2515   -0.7796   -0.9723 H   0  0  0  0  0  0  0  0  0  0  0  0
    2.0707    0.3958    0.0844 H   0  0  0  0  0  0  0  0  0  0  0  0
    1.2046   -0.9975    0.7728 H   0  0  0  0  0  0  0  0  0  0  0  0
   -0.0988    1.3243   -0.7528 H   0  0  0  0  0  0  0  0  0  0  0  0
   -0.1645    1.0974    1.0059 H   0  0  0  0  0  0  0  0  0  0  0  0
   -1.1953   -0.9198    0.6071 H   0  0  0  0  0  0  0  0  0  0  0  0
  1  2  1  0
  1  4  1  0
  1  5  1  0
  1  6  1  0
  2  3  1  0
  2  7  1  0
  2  8  1  0
  3  9  1  0
M  END
>  <reaction>  (3) 
rmg_rxn_1345

>  <mol_properties>  (3) 
{"2": {"label": "acceptor", "atom_type": "O2s"}, "8": {"label": "a_hydrogen", "atom_type": "H0"}}

>  <type>  (3) 
r2h

$$$$

     RDKit          3D

 22 20  0  0  0  0  0  0  0  0999 V2000
   -1.2936   -1.6166    1.0219 C   0  0  0  0  0  0  0  0  0  0  0  0
   -1.7400   -1.3627   -0.4030 C   0  0  0  0  0  0  0  0  0  0  0  0
   -2.6907   -0.3081   -0.4330 O   0  0  0  0  0  0  0  0  0  0  0  0
   -2.1511   -1.8651    1.6558 H   0  0  0  0  0  0  0  0  0  0  0  0
   -0.5728   -2.4379    1.0641 H   0  0  0  0  0  0  0  0  0  0  0  0
   -0.8315   -0.7202    1.4483 H   0  0  0  0  0  0  0  0  0  0  0  0
   -2.2095   -2.2573   -0.8223 H   0  0  0  0  0  0  0  0  0  0  0  0
   -0.8915   -1.0887   -1.0373 H   0  0  0  0  0  0  0  0  0  0  0  0
   -1.4406    1.8296   -0.2991 C   0  0  0  0  0  3  0  0  0  0  0  0
   -0.2364    1.6567    0.4377 O   0  0  0  0  0  0  0  0  0  0  0  0
    0.6266    0.7048   -0.1876 C   0  0  0  0  0  0  0  0  0  0  0  0
    1.8811    0.5797    0.6566 C   0  0  0  0  0  0  0  0  0  0  0  0
    2.8548   -0.4059    0.0742 C   0  0  0  0  0  0  0  0  0  0  0  0
    2.6679   -1.0392   -0.9597 O   0  0  0  0  0  0  0  0  0  0  0  0
   -2.1025    0.6977   -0.3700 H   0  0  0  0  0  0  0  0  0  0  0  0
   -1.2242    2.2042   -1.3042 H   0  0  0  0  0  0  0  0  0  0  0  0
   -2.0600    2.5646    0.2218 H   0  0  0  0  0  0  0  0  0  0  0  0
    0.1146   -0.2621   -0.2602 H   0  0  0  0  0  0  0  0  0  0  0  0
    0.8769    1.0459   -1.1992 H   0  0  0  0  0  0  0  0  0  0  0  0
    1.6274    0.2568    1.6721 H   0  0  0  0  0  0  0  0  0  0  0  0
    2.3813    1.5504    0.7435 H   0  0  0  0  0  0  0  0  0  0  0  0
    3.7877   -0.5368    0.6492 H   0  0  0  0  0  0  0  0  0  0  0  0
  1  2  1  0
  1  4  1  0
  1  5  1  0
  1  6  1  0
  2  3  1  0
  2  7  1  0
  2  8  1  0
  3 15  1  0
  9 10  1  0
  9 16  1  0
  9 17  1  0
 10 11  1  0
 11 12  1  0
 11 18  1  0
 11 19  1  0
 12 13  1  0
 12 20  1  0
 12 21  1  0
 13 14  2  0
 13 22  1  0
M  RAD  1   9   2
M  END
>  <reaction>  (4) 
rmg_rxn_1345

>  <mol_properties>  (4) 
{"1": {"label": "*0", "atom_type": "Cs"}, "2": {"label": "*1", "atom_type": "O2s"}, "8": {"label": "*3", "atom_type": "Cs"}, "9": {"label": "*4", "atom_type": "O2s"}, "14": {"label": "*2", "atom_type": "H0"}}

>  <type>  (4) 
ts

$$$$
