
     RDKit          3D

  8  7  0  0  0  0  0  0  0  0999 V2000
    0.9548    0.1194   -0.0790 C   0  0  0  0  0  0  0  0  0  0  0  0
   -0.4838   -0.2649    0.0193 C   0  0  0  0  0  0  0  0  0  0  0  0
   -0.8933   -1.1081    0.8664 N   0  0  0  0  0  0  0  0  0  0  0  0
    1.3360   -0.0983   -1.0800 H   0  0  0  0  0  0  0  0  0  0  0  0
    1.0698    1.1948    0.0786 H   0  0  0  0  0  0  0  0  0  0  0  0
    1.5426   -0.4219    0.6602 H   0  0  0  0  0  0  0  0  0  0  0  0
   -1.1575    0.2324   -0.6905 H   0  0  0  0  0  0  0  0  0  0  0  0
   -1.8989   -1.2455    0.7886 H   0  0  0  0  0  0  0  0  0  0  0  0
  1  2  1  0
  1  4  1  0
  1  5  1  0
  1  6  1  0
  2  3  2  3
  2  7  1  0
  3  8  1  0
M  END
>  <reaction>  (1) 
rmg_rxn_16648

>  <mol_properties>  (1) 
{"1": {"label": "donator", "atom_type": "Cd"}, "6": {"label": "d_hydrogen", "atom_type": "H0"}}

>  <type>  (1) 
r1h

$$$$

     RDKit          3D

 13 12  0  0  0  0  0  0  0  0999 V2000
   -1.5801    1.1066    0.0514 C   0  0  0  0  0  3  0  0  0  0  0  0
   -0.9927   -0.2392    0.2618 C   0  0  0  0  0  0  0  0  0  0  0  0
   -1.7553   -1.0998    1.2550 C   0  0  0  0  0  0  0  0  0  0  0  0
   -1.8362   -0.4776    2.5484 O   0  0  0  0  0  0  0  0  0  0  0  0
   -0.7919   -0.6298    3.3579 C   0  0  0  0  0  0  0  0  0  0  0  0
    0.2062   -1.2441    3.1188 O   0  0  0  0  0  0  0  0  0  0  0  0
   -1.2814    1.7056   -0.7974 H   0  0  0  0  0  0  0  0  0  0  0  0
   -2.2054    1.5630    0.8065 H   0  0  0  0  0  0  0  0  0  0  0  0
    0.0499   -0.1626    0.6013 H   0  0  0  0  0  0  0  0  0  0  0  0
   -0.9457   -0.7884   -0.6852 H   0  0  0  0  0  0  0  0  0  0  0  0
   -1.2846   -2.0771    1.3590 H   0  0  0  0  0  0  0  0  0  0  0  0
   -2.7927   -1.2238    0.9481 H   0  0  0  0  0  0  0  0  0  0  0  0
   -0.9867   -0.1021    4.3012 H   0  0  0  0  0  0  0  0  0  0  0  0
  1  2  1  0
  1  7  1  0
  1  8  1  0
  2  3  1  0
  2  9  1  0
  2 10  1  0
  3  4  1  0
  3 11  1  0
  3 12  1  0
  4  5  1  0
  5  6  2  0
  5 13  1  0
M  RAD  1   1   2
M  END
>  <reaction>  (2) 
rmg_rxn_16648

>  <mol_properties>  (2) 
{"0": {"label": "acceptor", "atom_type": "Cs"}}

>  <type>  (2) 
r2

$$$$

     RDKit          3D

 14 13  0  0  0  0  0  0  0  0999 V2000
    2.1277    0.0527   -0.0768 C   0  0  0  0  0  0  0  0  0  0  0  0
    0.8550    0.0849    0.7591 C   0  0  0  0  0  0  0  0  0  0  0  0
    0.7150    1.3361    1.5963 C   0  0  0  0  0  0  0  0  0  0  0  0
    0.5975    2.4604    0.7083 O   0  0  0  0  0  0  0  0  0  0  0  0
    0.5113    3.6572    1.2782 C   0  0  0  0  0  0  0  0  0  0  0  0
    0.5224    3.8788    2.4534 O   0  0  0  0  0  0  0  0  0  0  0  0
    3.0138    0.1211    0.5584 H   0  0  0  0  0  0  0  0  0  0  0  0
    2.1544    0.8845   -0.7813 H   0  0  0  0  0  0  0  0  0  0  0  0
    2.1955   -0.8742   -0.6473 H   0  0  0  0  0  0  0  0  0  0  0  0
    0.8361   -0.7663    1.4449 H   0  0  0  0  0  0  0  0  0  0  0  0
   -0.0232   -0.0114    0.1158 H   0  0  0  0  0  0  0  0  0  0  0  0
   -0.1715    1.3001    2.2317 H   0  0  0  0  0  0  0  0  0  0  0  0
    1.5840    1.4884    2.2407 H   0  0  0  0  0  0  0  0  0  0  0  0
    0.4263    4.4265    0.4986 H   0  0  0  0  0  0  0  0  0  0  0  0
  1  2  1  0
  1  7  1  0
  1  8  1  0
  1  9  1  0
  2  3  1  0
  2 10  1  0
  2 11  1  0
  3  4  1  0
  3 12  1  0
  3 13  1  0
  4  5  1  0
  5  6  2  0
  5 14  1  0
M  END
>  <reaction>  (3) 
rmg_rxn_16648

>  <mol_properties>  (3) 
{"0": {"label": "a_hydrogen", "atom_type": "H0"}, "1": {"label": "acceptor", "atom_type": "Cs"}}

>  <type>  (3) 
r2h

$$$$

     RDKit          3D

 21 19  0  0  0  0  0  0  0  0999 V2000
   -3.4479   -0.4138   -0.0445 C   0  0  0  0  0  0  0  0  0  0  0  0
   -2.1290    0.2565    0.1445 C   0  0  0  0  0  0  0  0  0  0  0  0
   -1.8881    1.4612   -0.0702 N   0  0  0  0  0  0  0  0  0  0  0  0
   -3.3483   -1.2390   -0.7534 H   0  0  0  0  0  0  0  0  0  0  0  0
   -3.7836   -0.8432    0.9020 H   0  0  0  0  0  0  0  0  0  0  0  0
   -4.1926    0.2942   -0.4094 H   0  0  0  0  0  0  0  0  0  0  0  0
   -1.1995   -0.5568    0.5641 H   0  0  0  0  0  0  0  0  0  0  0  0
   -0.9190    1.7159    0.1274 H   0  0  0  0  0  0  0  0  0  0  0  0
   -0.1759   -1.4692    0.9235 C   0  0  0  0  0  3  0  0  0  0  0  0
    0.5486   -1.8069   -0.3516 C   0  0  0  0  0  0  0  0  0  0  0  0
    1.2341   -0.6238   -1.0088 C   0  0  0  0  0  0  0  0  0  0  0  0
    2.3272   -0.1547   -0.1960 O   0  0  0  0  0  0  0  0  0  0  0  0
    2.1814    0.9758    0.4787 C   0  0  0  0  0  0  0  0  0  0  0  0
    1.2144    1.6833    0.5021 O   0  0  0  0  0  0  0  0  0  0  0  0
    0.4028   -0.9209    1.6637 H   0  0  0  0  0  0  0  0  0  0  0  0
   -0.7215   -2.2987    1.3674 H   0  0  0  0  0  0  0  0  0  0  0  0
   -0.1559   -2.2154   -1.0835 H   0  0  0  0  0  0  0  0  0  0  0  0
    1.2968   -2.5899   -0.1792 H   0  0  0  0  0  0  0  0  0  0  0  0
    0.5381    0.1956   -1.1839 H   0  0  0  0  0  0  0  0  0  0  0  0
    1.6902   -0.9173   -1.9533 H   0  0  0  0  0  0  0  0  0  0  0  0
    3.1055    1.1861    1.0326 H   0  0  0  0  0  0  0  0  0  0  0  0
  1  2  1  0
  1  4  1  0
  1  5  1  0
  1  6  1  0
  2  3  2  3
  2  7  1  0
  3  8  1  0
  9 10  1  0
  9 15  1  0
  9 16  1  0
 10 11  1  0
 10 17  1  0
 10 18  1  0
 11 12  1  0
 11 19  1  0
 11 20  1  0
 12 13  1  0
 13 14  2  0
 13 21  1  0
M  RAD  1   9   2
M  END
>  <reaction>  (4) 
rmg_rxn_16648

>  <mol_properties>  (4) 
{"1": {"label": "*1", "atom_type": "Cd"}, "2": {"label": "*0", "atom_type": "N3d"}, "6": {"label": "*2", "atom_type": "H0"}, "8": {"label": "*3", "atom_type": "Cs"}, "9": {"label": "*4", "atom_type": "Cs"}}

>  <type>  (4) 
ts

$$$$
