
     RDKit          3D

  9  9  0  0  0  0  0  0  0  0999 V2000
    1.1178    0.0251    0.0062 C   0  0  0  0  0  0  0  0  0  0  0  0
   -0.3279   -0.3139    0.1785 C   0  0  0  0  0  0  0  0  0  0  0  0
   -0.7053   -1.0901    1.3173 N   0  0  0  0  0  0  0  0  0  0  0  0
   -1.0350    0.3361    1.1839 O   0  0  0  0  0  0  0  0  0  0  0  0
    1.6209   -0.7545   -0.5686 H   0  0  0  0  0  0  0  0  0  0  0  0
    1.5927    0.1144    0.9820 H   0  0  0  0  0  0  0  0  0  0  0  0
    1.2207    0.9683   -0.5327 H   0  0  0  0  0  0  0  0  0  0  0  0
   -0.8945   -0.4615   -0.7417 H   0  0  0  0  0  0  0  0  0  0  0  0
   -1.5832   -1.5647    1.1026 H   0  0  0  0  0  0  0  0  0  0  0  0
  1  2  1  0
  1  5  1  0
  1  6  1  0
  1  7  1  0
  2  3  1  0
  2  4  1  0
  2  8  1  0
  3  4  1  0
  3  9  1  0
M  END
>  <reaction>  (1) 
rmg_rxn_15701

>  <mol_properties>  (1) 
{"2": {"label": "donator", "atom_type": "N3s"}, "8": {"label": "d_hydrogen", "atom_type": "H0"}}

>  <type>  (1) 
r1h

$$$$

     RDKit          3D

  8  7  0  0  0  0  0  0  0  0999 V2000
    1.7077   -0.1964   -0.0607 C   0  0  0  0  0  3  0  0  0  0  0  0
    0.4209   -0.4565    0.2808 O   0  0  0  0  0  0  0  0  0  0  0  0
   -0.4607    0.4385   -0.2968 N   0  0  0  0  0  0  0  0  0  0  0  0
   -1.6584    0.1416   -0.0244 C   0  0  0  0  0  0  0  0  0  0  0  0
    2.4163   -0.7685    0.5170 H   0  0  0  0  0  0  0  0  0  0  0  0
    1.9214    0.7645   -0.5045 H   0  0  0  0  0  0  0  0  0  0  0  0
   -2.4185    0.7953   -0.4307 H   0  0  0  0  0  0  0  0  0  0  0  0
   -1.9286   -0.7185    0.5831 H   0  0  0  0  0  0  0  0  0  0  0  0
  1  2  1  0
  1  5  1  0
  1  6  1  0
  2  3  1  0
  3  4  2  3
  4  7  1  0
  4  8  1  0
M  RAD  1   1   2
M  END
>  <reaction>  (2) 
rmg_rxn_15701

>  <mol_properties>  (2) 
{"0": {"label": "acceptor", "atom_type": "Cs"}}

>  <type>  (2) 
r2

$$$$

     RDKit          3D

  9  8  0  0  0  0  0  0  0  0999 V2000
   -1.5470   -0.0755   -0.1976 C   0  0  0  0  0  0  0  0  0  0  0  0
   -0.2885    0.4507    0.1749 O   0  0  0  0  0  0  0  0  0  0  0  0
   -0.1502    1.7216   -0.3294 N   0  0  0  0  0  0  0  0  0  0  0  0
    0.9626    2.2353   -0.0219 C   0  0  0  0  0  0  0  0  0  0  0  0
   -1.6392   -0.1356   -1.2844 H   0  0  0  0  0  0  0  0  0  0  0  0
   -2.3597    0.5337    0.2044 H   0  0  0  0  0  0  0  0  0  0  0  0
   -1.5879   -1.0750    0.2318 H   0  0  0  0  0  0  0  0  0  0  0  0
    1.1497    3.2381   -0.3820 H   0  0  0  0  0  0  0  0  0  0  0  0
    1.7060    1.7101    0.5739 H   0  0  0  0  0  0  0  0  0  0  0  0
  1  2  1  0
  1  5  1  0
  1  6  1  0
  1  7  1  0
  2  3  1  0
  3  4  2  3
  4  8  1  0
  4  9  1  0
M  END
>  <reaction>  (3) 
rmg_rxn_15701

>  <mol_properties>  (3) 
{"0": {"label": "acceptor", "atom_type": "Cs"}, "8": {"label": "a_hydrogen", "atom_type": "H0"}}

>  <type>  (3) 
r2h

$$$$

     RDKit          3D

 17 16  0  0  0  0  0  0  0  0999 V2000
    0.6829    1.2809    1.1211 C   0  0  0  0  0  3  0  0  0  0  0  0
    1.2364    0.0342    1.3065 O   0  0  0  0  0  0  0  0  0  0  0  0
    0.5072   -0.7055    2.2244 N   0  0  0  0  0  0  0  0  0  0  0  0
    0.8915   -1.9071    2.2547 C   0  0  0  0  0  0  0  0  0  0  0  0
    0.1399    1.6507    1.9882 H   0  0  0  0  0  0  0  0  0  0  0  0
    1.4338    1.9496    0.7081 H   0  0  0  0  0  0  0  0  0  0  0  0
    0.3877   -2.5543    2.9600 H   0  0  0  0  0  0  0  0  0  0  0  0
    1.6809   -2.2899    1.6126 H   0  0  0  0  0  0  0  0  0  0  0  0
   -0.6271   -0.0436   -3.1019 C   0  0  0  0  0  0  0  0  0  0  0  0
   -0.2828    0.0346   -1.6484 C   0  0  0  0  0  0  0  0  0  0  0  0
   -1.0471    0.8882   -0.8007 N   0  0  0  0  0  0  0  0  0  0  0  0
   -1.1617   -0.5441   -0.7299 O   0  0  0  0  0  0  0  0  0  0  0  0
   -0.0702    0.7128   -3.6581 H   0  0  0  0  0  0  0  0  0  0  0  0
   -1.6940    0.1239   -3.2415 H   0  0  0  0  0  0  0  0  0  0  0  0
   -0.3617   -1.0242   -3.5012 H   0  0  0  0  0  0  0  0  0  0  0  0
    0.7693   -0.0993   -1.3927 H   0  0  0  0  0  0  0  0  0  0  0  0
   -0.3138    1.1733    0.1227 H   0  0  0  0  0  0  0  0  0  0  0  0
  1  2  1  0
  1  5  1  0
  1  6  1  0
  2  3  1  0
  3  4  2  3
  4  7  1  0
  4  8  1  0
  9 10  1  0
  9 13  1  0
  9 14  1  0
  9 15  1  0
 10 11  1  0
 10 12  1  0
 10 16  1  0
 11 12  1  0
 11 17  1  0
M  RAD  1   1   2
M  END
>  <reaction>  (4) 
rmg_rxn_15701

>  <mol_properties>  (4) 
{"0": {"label": "*3", "atom_type": "Cs"}, "1": {"label": "*4", "atom_type": "O2s"}, "10": {"label": "*1", "atom_type": "N3s"}, "11": {"label": "*0", "atom_type": "O2s"}, "16": {"label": "*2", "atom_type": "H0"}}

>  <type>  (4) 
ts

$$$$
