
     RDKit          3D

  9  8  0  0  0  0  0  0  0  0999 V2000
   -1.0314    0.2323   -0.1227 C   0  0  0  0  0  0  0  0  0  0  0  0
    0.3094   -0.4511    0.0063 C   0  0  0  0  0  0  0  0  0  0  0  0
    0.3197   -1.7698    0.6841 N   0  0  0  0  0  0  0  0  0  0  0  0
   -0.7498   -2.1455    1.0557 O   0  0  0  0  0  0  0  0  0  0  0  0
   -1.4744    0.4198    0.8552 H   0  0  0  0  0  0  0  0  0  0  0  0
   -0.9073    1.1865   -0.6350 H   0  0  0  0  0  0  0  0  0  0  0  0
   -1.7319   -0.3778   -0.6927 H   0  0  0  0  0  0  0  0  0  0  0  0
    1.0375    0.1401    0.5713 H   0  0  0  0  0  0  0  0  0  0  0  0
    0.7826   -0.6494   -0.9609 H   0  0  0  0  0  0  0  0  0  0  0  0
  1  2  1  0
  1  5  1  0
  1  6  1  0
  1  7  1  0
  2  3  1  0
  2  8  1  0
  2  9  1  0
  3  4  2  0
M  END
>  <reaction>  (1) 
rmg_rxn_16555

>  <mol_properties>  (1) 
{"1": {"label": "donator", "atom_type": "Cs"}, "7": {"label": "d_hydrogen", "atom_type": "H0"}}

>  <type>  (1) 
r1h

$$$$

     RDKit          3D

  7  6  0  0  0  0  0  0  0  0999 V2000
   -0.8428   -0.0590   -0.1880 C   0  0  0  0  0  0  0  0  0  0  0  0
    0.5046    0.4746    0.1305 C   0  0  0  0  0  3  0  0  0  0  0  0
    1.1881    0.3350    1.1450 N   0  0  0  0  0  0  0  0  0  0  0  0
   -0.7902   -0.6717   -1.0889 H   0  0  0  0  0  0  0  0  0  0  0  0
   -1.2347   -0.6570    0.6398 H   0  0  0  0  0  0  0  0  0  0  0  0
   -1.5237    0.7672   -0.3967 H   0  0  0  0  0  0  0  0  0  0  0  0
    2.0976    0.7897    1.1637 H   0  0  0  0  0  0  0  0  0  0  0  0
  1  2  1  0
  1  4  1  0
  1  5  1  0
  1  6  1  0
  2  3  2  3
  3  7  1  0
M  RAD  1   2   2
M  END
>  <reaction>  (2) 
rmg_rxn_16555

>  <mol_properties>  (2) 
{"1": {"label": "acceptor", "atom_type": "Cd"}}

>  <type>  (2) 
r2

$$$$

     RDKit          3D

  8  7  0  0  0  0  0  0  0  0999 V2000
    0.9548    0.1194   -0.0790 C   0  0  0  0  0  0  0  0  0  0  0  0
   -0.4838   -0.2649    0.0193 C   0  0  0  0  0  0  0  0  0  0  0  0
   -0.8933   -1.1081    0.8664 N   0  0  0  0  0  0  0  0  0  0  0  0
    1.3360   -0.0983   -1.0800 H   0  0  0  0  0  0  0  0  0  0  0  0
    1.0698    1.1948    0.0786 H   0  0  0  0  0  0  0  0  0  0  0  0
    1.5426   -0.4219    0.6602 H   0  0  0  0  0  0  0  0  0  0  0  0
   -1.1575    0.2324   -0.6905 H   0  0  0  0  0  0  0  0  0  0  0  0
   -1.8989   -1.2455    0.7886 H   0  0  0  0  0  0  0  0  0  0  0  0
  1  2  1  0
  1  4  1  0
  1  5  1  0
  1  6  1  0
  2  3  2  3
  2  7  1  0
  3  8  1  0
M  END
>  <reaction>  (3) 
rmg_rxn_16555

>  <mol_properties>  (3) 
{"1": {"label": "acceptor", "atom_type": "Cd"}, "7": {"label": "a_hydrogen", "atom_type": "H0"}}

>  <type>  (3) 
r2h

$$$$

     RDKit          3D

 16 14  0  0  0  0  0  0  0  0999 V2000
    1.9407   -1.9573   -0.2261 C   0  0  0  0  0  0  0  0  0  0  0  0
    1.1485   -1.0200    0.6053 C   0  0  0  0  0  3  0  0  0  0  0  0
    1.4043   -0.4942    1.6880 N   0  0  0  0  0  0  0  0  0  0  0  0
    2.1258   -1.5095   -1.2037 H   0  0  0  0  0  0  0  0  0  0  0  0
    2.8906   -2.1894    0.2581 H   0  0  0  0  0  0  0  0  0  0  0  0
    1.3746   -2.8760   -0.3869 H   0  0  0  0  0  0  0  0  0  0  0  0
    0.6921    0.1327    2.0642 H   0  0  0  0  0  0  0  0  0  0  0  0
   -0.9323    0.3034   -1.8141 C   0  0  0  0  0  0  0  0  0  0  0  0
   -1.2123   -0.1325   -0.3999 C   0  0  0  0  0  0  0  0  0  0  0  0
   -1.4284    0.8457    0.6022 N   0  0  0  0  0  0  0  0  0  0  0  0
   -1.0100    1.9575    0.3266 O   0  0  0  0  0  0  0  0  0  0  0  0
   -0.0813    0.9820   -1.8520 H   0  0  0  0  0  0  0  0  0  0  0  0
   -0.7265   -0.5661   -2.4391 H   0  0  0  0  0  0  0  0  0  0  0  0
   -1.7923    0.8308   -2.2318 H   0  0  0  0  0  0  0  0  0  0  0  0
   -0.1364   -0.6512    0.0376 H   0  0  0  0  0  0  0  0  0  0  0  0
   -1.9245   -0.9462   -0.2717 H   0  0  0  0  0  0  0  0  0  0  0  0
  1  2  1  0
  1  4  1  0
  1  5  1  0
  1  6  1  0
  2  3  2  3
  3  7  1  0
  8  9  1  0
  8 12  1  0
  8 13  1  0
  8 14  1  0
  9 10  1  0
  9 15  1  0
  9 16  1  0
 10 11  2  0
M  RAD  1   2   2
M  END
>  <reaction>  (4) 
rmg_rxn_16555

>  <mol_properties>  (4) 
{"1": {"label": "*3", "atom_type": "Cd"}, "2": {"label": "*4", "atom_type": "N3d"}, "8": {"label": "*1", "atom_type": "Cs"}, "9": {"label": "*0", "atom_type": "N3d"}, "14": {"label": "*2", "atom_type": "H0"}}

>  <type>  (4) 
ts

$$$$
