
     RDKit          3D

  9  8  0  0  0  0  0  0  0  0999 V2000
   -1.2461    0.5037    0.0950 C   0  0  0  0  0  0  0  0  0  0  0  0
   -0.0155   -0.3334    0.0640 C   0  0  0  0  0  0  0  0  0  0  0  0
    1.0697    0.1457   -0.3733 N   0  0  0  0  0  0  0  0  0  0  0  0
    2.1001   -0.7834   -0.3224 O   0  0  0  0  0  0  0  0  0  0  0  0
   -2.0357    0.0440   -0.5039 H   0  0  0  0  0  0  0  0  0  0  0  0
   -1.6237    0.5897    1.1166 H   0  0  0  0  0  0  0  0  0  0  0  0
   -1.0397    1.4998   -0.2929 H   0  0  0  0  0  0  0  0  0  0  0  0
   -0.0537   -1.3634    0.4205 H   0  0  0  0  0  0  0  0  0  0  0  0
    2.8478   -0.2985   -0.6758 H   0  0  0  0  0  0  0  0  0  0  0  0
  1  2  1  0
  1  5  1  0
  1  6  1  0
  1  7  1  0
  2  3  2  3
  2  8  1  0
  3  4  1  0
  4  9  1  0
M  END
>  <reaction>  (1) 
rmg_rxn_52

>  <mol_properties>  (1) 
{"3": {"label": "donator", "atom_type": "O2s"}, "8": {"label": "d_hydrogen", "atom_type": "H0"}}

>  <type>  (1) 
r1h

$$$$

     RDKit          3D

  4  3  0  0  0  0  0  0  0  0999 V2000
    1.2191   -0.0447   -0.0369 N   0  0  0  0  0  1  0  0  0  0  0  0
   -0.0876   -0.0060    0.2202 N   0  0  0  0  0  0  0  0  0  0  0  0
   -0.5966   -0.8143   -0.1273 H   0  0  0  0  0  0  0  0  0  0  0  0
   -0.5329    0.8649   -0.0563 H   0  0  0  0  0  0  0  0  0  0  0  0
  1  2  1  0
  2  3  1  0
  2  4  1  0
M  RAD  1   1   3
M  END
>  <reaction>  (2) 
rmg_rxn_52

>  <mol_properties>  (2) 
{"0": {"label": "acceptor", "atom_type": "N3s"}}

>  <type>  (2) 
r2

$$$$

     RDKit          3D

  5  4  0  0  0  0  0  0  0  0999 V2000
    0.7361   -0.2872    0.4035 N   0  0  0  0  0  2  0  0  0  0  0  0
   -0.3891   -0.1505   -0.3131 N   0  0  0  0  0  0  0  0  0  0  0  0
    1.4909    0.0686   -0.1831 H   0  0  0  0  0  0  0  0  0  0  0  0
   -1.1819   -0.6340    0.0744 H   0  0  0  0  0  0  0  0  0  0  0  0
   -0.3592   -0.1189   -1.3223 H   0  0  0  0  0  0  0  0  0  0  0  0
  1  2  1  0
  1  3  1  0
  2  4  1  0
  2  5  1  0
M  RAD  1   1   2
M  END
>  <reaction>  (3) 
rmg_rxn_52

>  <mol_properties>  (3) 
{"0": {"label": "acceptor", "atom_type": "N3s"}, "4": {"label": "a_hydrogen", "atom_type": "H0"}}

>  <type>  (3) 
r2h

$$$$

     RDKit          3D

 13 11  0  0  0  0  0  0  0  0999 V2000
   -0.0814    1.6308    1.8086 N   0  0  0  0  0  2  0  0  0  0  0  0
    0.1025    2.1360    0.6056 N   0  0  0  0  0  0  0  0  0  0  0  0
   -0.3262    3.0372    0.4433 H   0  0  0  0  0  0  0  0  0  0  0  0
    0.0201    1.4416   -0.1576 H   0  0  0  0  0  0  0  0  0  0  0  0
   -0.0359   -1.3085   -2.4093 C   0  0  0  0  0  0  0  0  0  0  0  0
   -0.0018   -1.4934   -0.9327 C   0  0  0  0  0  3  0  0  0  0  0  0
   -0.0147   -0.4920   -0.1520 N   0  0  0  0  0  2  0  0  0  0  0  0
    0.0212   -0.6866    1.1424 O   0  0  0  0  0  1  0  0  0  0  0  0
    0.8479   -1.7529   -2.8730 H   0  0  0  0  0  0  0  0  0  0  0  0
   -0.9096   -1.8037   -2.8393 H   0  0  0  0  0  0  0  0  0  0  0  0
   -0.0710   -0.2503   -2.6650 H   0  0  0  0  0  0  0  0  0  0  0  0
    0.0355   -2.4976   -0.5137 H   0  0  0  0  0  0  0  0  0  0  0  0
   -0.0555    0.4704    1.6934 H   0  0  0  0  0  0  0  0  0  0  0  0
  1  2  1  0
  1 13  1  0
  2  3  1  0
  2  4  1  0
  5 11  1  0
  5  9  1  0
  5  6  1  0
  5 10  1  0
  6  7  1  0
  6 12  1  0
  7  8  1  0
M  RAD  4   1   2   6   2   7   2   8   2
M  END
>  <reaction>  (4) 
rmg_rxn_52

>  <mol_properties>  (4) 
{"0": {"label": "*1", "atom_type": "N3s"}, "1": {"label": "*0", "atom_type": "N3s"}, "6": {"label": "*4", "atom_type": "N3s"}, "7": {"label": "*3", "atom_type": "O2s"}, "12": {"label": "*2", "atom_type": "H0"}}

>  <type>  (4) 
ts

$$$$
