
     RDKit          3D

  9  8  0  0  0  0  0  0  0  0999 V2000
   -0.8818   -0.3578    0.1297 C   0  0  0  0  0  0  0  0  0  0  0  0
    0.6153   -0.3021   -0.1188 C   0  0  0  0  0  0  0  0  0  0  0  0
    1.5354   -1.7170    0.5545 S   0  0  0  0  0  0  0  0  0  0  0  0
   -1.1018   -0.3317    1.1984 H   0  0  0  0  0  0  0  0  0  0  0  0
   -1.3114   -1.2723   -0.2799 H   0  0  0  0  0  0  0  0  0  0  0  0
   -1.3767    0.4976   -0.3363 H   0  0  0  0  0  0  0  0  0  0  0  0
    1.0467    0.6194    0.2718 H   0  0  0  0  0  0  0  0  0  0  0  0
    0.8295   -0.3275   -1.1882 H   0  0  0  0  0  0  0  0  0  0  0  0
    1.2306   -1.5077    1.8423 H   0  0  0  0  0  0  0  0  0  0  0  0
  1  2  1  0
  1  4  1  0
  1  5  1  0
  1  6  1  0
  2  3  1  0
  2  7  1  0
  2  8  1  0
  3  9  1  0
M  END
>  <reaction>  (1) 
rmg_rxn_392

>  <mol_properties>  (1) 
{"2": {"label": "donator", "atom_type": "S2s"}, "8": {"label": "d_hydrogen", "atom_type": "H0"}}

>  <type>  (1) 
r1h

$$$$

     RDKit          3D

  8  7  0  0  0  0  0  0  0  0999 V2000
   -0.7870    0.0933   -0.0806 C   0  0  0  0  0  0  0  0  0  0  0  0
    0.7222   -0.0685   -0.0164 C   0  0  0  0  0  0  0  0  0  0  0  0
    1.2804   -0.8027   -1.0125 O   0  0  0  0  0  1  0  0  0  0  0  0
   -1.2757   -0.8808   -0.0406 H   0  0  0  0  0  0  0  0  0  0  0  0
   -1.1463    0.6954    0.7565 H   0  0  0  0  0  0  0  0  0  0  0  0
   -1.0774    0.5849   -1.0097 H   0  0  0  0  0  0  0  0  0  0  0  0
    1.2365    0.9106   -0.0076 H   0  0  0  0  0  0  0  0  0  0  0  0
    1.0425   -0.5225    0.9399 H   0  0  0  0  0  0  0  0  0  0  0  0
  1  2  1  0
  1  4  1  0
  1  5  1  0
  1  6  1  0
  2  3  1  0
  2  7  1  0
  2  8  1  0
M  RAD  1   3   2
M  END
>  <reaction>  (2) 
rmg_rxn_392

>  <mol_properties>  (2) 
{"2": {"label": "acceptor", "atom_type": "O2s"}}

>  <type>  (2) 
r2

$$$$

     RDKit          3D

  9  8  0  0  0  0  0  0  0  0999 V2000
   -0.9895    0.3048    0.1041 C   0  0  0  0  0  0  0  0  0  0  0  0
    0.3761   -0.3562    0.0721 C   0  0  0  0  0  0  0  0  0  0  0  0
    0.3441   -1.6564   -0.4834 O   0  0  0  0  0  0  0  0  0  0  0  0
   -1.6997   -0.3114    0.6572 H   0  0  0  0  0  0  0  0  0  0  0  0
   -0.9320    1.2848    0.5822 H   0  0  0  0  0  0  0  0  0  0  0  0
   -1.3774    0.4507   -0.9077 H   0  0  0  0  0  0  0  0  0  0  0  0
    0.7581   -0.4813    1.0862 H   0  0  0  0  0  0  0  0  0  0  0  0
    1.0900    0.2787   -0.4681 H   0  0  0  0  0  0  0  0  0  0  0  0
    0.0089   -1.5959   -1.3792 H   0  0  0  0  0  0  0  0  0  0  0  0
  1  2  1  0
  1  4  1  0
  1  5  1  0
  1  6  1  0
  2  3  1  0
  2  7  1  0
  2  8  1  0
  3  9  1  0
M  END
>  <reaction>  (3) 
rmg_rxn_392

>  <mol_properties>  (3) 
{"2": {"label": "acceptor", "atom_type": "O2s"}, "8": {"label": "a_hydrogen", "atom_type": "H0"}}

>  <type>  (3) 
r2h

$$$$

     RDKit          3D

 17 15  0  0  0  0  0  0  0  0999 V2000
    1.3565    2.1812    1.0807 C   0  0  0  0  0  0  0  0  0  0  0  0
    1.5724    1.2273   -0.0784 C   0  0  0  0  0  0  0  0  0  0  0  0
    1.6777   -0.1046    0.2829 O   0  0  0  0  0  0  0  0  0  0  0  0
    2.1283    2.0456    1.8388 H   0  0  0  0  0  0  0  0  0  0  0  0
    1.3835    3.2154    0.7328 H   0  0  0  0  0  0  0  0  0  0  0  0
    0.3821    2.0006    1.5382 H   0  0  0  0  0  0  0  0  0  0  0  0
    0.8088    1.3604   -0.8564 H   0  0  0  0  0  0  0  0  0  0  0  0
    2.5378    1.4326   -0.5701 H   0  0  0  0  0  0  0  0  0  0  0  0
   -0.9855   -1.2296   -1.6272 C   0  0  0  0  0  0  0  0  0  0  0  0
   -1.0984   -1.9356   -0.2868 C   0  0  0  0  0  0  0  0  0  0  0  0
   -0.8521   -0.8573    1.1489 S   0  0  0  0  0  1  0  0  0  0  0  0
    0.0249   -0.8459   -1.7718 H   0  0  0  0  0  0  0  0  0  0  0  0
   -1.6850   -0.3952   -1.6898 H   0  0  0  0  0  0  0  0  0  0  0  0
   -1.2032   -1.9258   -2.4406 H   0  0  0  0  0  0  0  0  0  0  0  0
   -0.3994   -2.7689   -0.2216 H   0  0  0  0  0  0  0  0  0  0  0  0
   -2.1020   -2.3441   -0.1485 H   0  0  0  0  0  0  0  0  0  0  0  0
    0.5374   -0.5650    0.9066 H   0  0  0  0  0  0  0  0  0  0  0  0
  1  2  1  0
  1  4  1  0
  1  5  1  0
  1  6  1  0
  2  3  1  0
  2  7  1  0
  2  8  1  0
  3 17  1  0
  9 10  1  0
  9 12  1  0
  9 13  1  0
  9 14  1  0
 10 11  1  0
 10 15  1  0
 10 16  1  0
M  RAD  1  11   2
M  END
>  <reaction>  (4) 
rmg_rxn_392

>  <mol_properties>  (4) 
{"1": {"label": "*0", "atom_type": "Cs"}, "2": {"label": "*1", "atom_type": "O2s"}, "9": {"label": "*4", "atom_type": "Cs"}, "10": {"label": "*3", "atom_type": "S2s"}, "16": {"label": "*2", "atom_type": "H0"}}

>  <type>  (4) 
ts

$$$$
