
     RDKit          3D

 15 14  0  0  0  0  0  0  0  0999 V2000
   -1.2811   -0.4129    1.0228 C   0  0  0  0  0  0  0  0  0  0  0  0
   -1.0023   -0.5809   -0.4650 C   0  0  0  0  0  0  0  0  0  0  0  0
   -2.0576    0.0568   -1.3449 C   0  0  0  0  0  0  0  0  0  0  0  0
   -2.0663    1.4464   -1.1307 O   0  0  0  0  0  0  0  0  0  0  0  0
   -3.0424    2.1072   -1.8849 C   0  0  0  0  0  0  0  0  0  0  0  0
   -2.2382   -0.8657    1.2935 H   0  0  0  0  0  0  0  0  0  0  0  0
   -1.3219    0.6426    1.2914 H   0  0  0  0  0  0  0  0  0  0  0  0
   -0.5042   -0.8881    1.6236 H   0  0  0  0  0  0  0  0  0  0  0  0
   -0.0316   -0.1460   -0.7167 H   0  0  0  0  0  0  0  0  0  0  0  0
   -0.9494   -1.6429   -0.7203 H   0  0  0  0  0  0  0  0  0  0  0  0
   -1.8518   -0.1570   -2.4041 H   0  0  0  0  0  0  0  0  0  0  0  0
   -3.0491   -0.3636   -1.1124 H   0  0  0  0  0  0  0  0  0  0  0  0
   -4.0521    1.7545   -1.6343 H   0  0  0  0  0  0  0  0  0  0  0  0
   -2.8850    1.9634   -2.9626 H   0  0  0  0  0  0  0  0  0  0  0  0
   -2.9730    3.1700   -1.6570 H   0  0  0  0  0  0  0  0  0  0  0  0
  1  2  1  0
  1  6  1  0
  1  7  1  0
  1  8  1  0
  2  3  1  0
  2  9  1  0
  2 10  1  0
  3  4  1  0
  3 11  1  0
  3 12  1  0
  4  5  1  0
  5 13  1  0
  5 14  1  0
  5 15  1  0
M  END
>  <reaction>  (1) 
rmg_rxn_669

>  <mol_properties>  (1) 
{"4": {"label": "donator", "atom_type": "Cs"}, "12": {"label": "d_hydrogen", "atom_type": "H0"}}

>  <type>  (1) 
r1h

$$$$

     RDKit          3D

 14 13  0  0  0  0  0  0  0  0999 V2000
    2.5796   -0.5432    0.2329 C   0  0  0  0  0  3  0  0  0  0  0  0
    1.2594    0.0982    0.3029 C   0  0  0  0  0  0  0  0  0  0  0  0
   -0.0483   -1.0244    0.9576 S   0  0  0  0  0  0  0  0  0  0  0  0
   -0.0049   -2.3732   -0.2491 C   0  0  0  0  0  0  0  0  0  0  0  0
   -0.3891   -1.9781   -1.6653 C   0  0  0  0  0  0  0  0  0  0  0  0
    2.9359   -0.9798   -0.6903 H   0  0  0  0  0  0  0  0  0  0  0  0
    3.1327   -0.7454    1.1400 H   0  0  0  0  0  0  0  0  0  0  0  0
    0.9347    0.4858   -0.6621 H   0  0  0  0  0  0  0  0  0  0  0  0
    1.2442    0.9220    1.0193 H   0  0  0  0  0  0  0  0  0  0  0  0
    0.9819   -2.8380   -0.2257 H   0  0  0  0  0  0  0  0  0  0  0  0
   -0.7110   -3.1037    0.1493 H   0  0  0  0  0  0  0  0  0  0  0  0
    0.3274   -1.2737   -2.0913 H   0  0  0  0  0  0  0  0  0  0  0  0
   -0.4075   -2.8581   -2.3121 H   0  0  0  0  0  0  0  0  0  0  0  0
   -1.3749   -1.5123   -1.6865 H   0  0  0  0  0  0  0  0  0  0  0  0
  1  2  1  0
  1  6  1  0
  1  7  1  0
  2  3  1  0
  2  8  1  0
  2  9  1  0
  3  4  1  0
  4  5  1  0
  4 10  1  0
  4 11  1  0
  5 12  1  0
  5 13  1  0
  5 14  1  0
M  RAD  1   1   2
M  END
>  <reaction>  (2) 
rmg_rxn_669

>  <mol_properties>  (2) 
{"0": {"label": "acceptor", "atom_type": "Cs"}}

>  <type>  (2) 
r2

$$$$

     RDKit          3D

 15 14  0  0  0  0  0  0  0  0999 V2000
   -2.0554    0.0723   -0.4910 C   0  0  0  0  0  0  0  0  0  0  0  0
   -0.7461   -0.6266   -0.8178 C   0  0  0  0  0  0  0  0  0  0  0  0
    0.3249    0.2591   -1.9782 S   0  0  0  0  0  0  0  0  0  0  0  0
   -0.7172    0.3642   -3.4551 C   0  0  0  0  0  0  0  0  0  0  0  0
   -1.1375   -0.9737   -4.0409 C   0  0  0  0  0  0  0  0  0  0  0  0
   -2.7005    0.1427   -1.3684 H   0  0  0  0  0  0  0  0  0  0  0  0
   -2.6016   -0.4848    0.2733 H   0  0  0  0  0  0  0  0  0  0  0  0
   -1.8758    1.0825   -0.1213 H   0  0  0  0  0  0  0  0  0  0  0  0
   -0.1320   -0.7246    0.0789 H   0  0  0  0  0  0  0  0  0  0  0  0
   -0.9254   -1.6374   -1.1879 H   0  0  0  0  0  0  0  0  0  0  0  0
   -1.5873    0.9874   -3.2422 H   0  0  0  0  0  0  0  0  0  0  0  0
   -0.1021    0.9161   -4.1678 H   0  0  0  0  0  0  0  0  0  0  0  0
   -1.7876   -1.5224   -3.3574 H   0  0  0  0  0  0  0  0  0  0  0  0
   -0.2676   -1.5962   -4.2534 H   0  0  0  0  0  0  0  0  0  0  0  0
   -1.6916   -0.8229   -4.9700 H   0  0  0  0  0  0  0  0  0  0  0  0
  1  2  1  0
  1  6  1  0
  1  7  1  0
  1  8  1  0
  2  3  1  0
  2  9  1  0
  2 10  1  0
  3  4  1  0
  4  5  1  0
  4 11  1  0
  4 12  1  0
  5 13  1  0
  5 14  1  0
  5 15  1  0
M  END
>  <reaction>  (3) 
rmg_rxn_669

>  <mol_properties>  (3) 
{"0": {"label": "acceptor", "atom_type": "Cs"}, "14": {"label": "a_hydrogen", "atom_type": "H0"}}

>  <type>  (3) 
r2h

$$$$

     RDKit          3D

 29 27  0  0  0  0  0  0  0  0999 V2000
   -0.2757    2.0389    0.3182 C   0  0  0  0  0  3  0  0  0  0  0  0
    0.3313    1.1149   -0.7021 C   0  0  0  0  0  0  0  0  0  0  0  0
    1.6736    0.0596   -0.1005 S   0  0  0  0  0  0  0  0  0  0  0  0
    2.9543    1.2688    0.3186 C   0  0  0  0  0  0  0  0  0  0  0  0
    3.4649    2.0952   -0.8498 C   0  0  0  0  0  0  0  0  0  0  0  0
    0.4040    2.4426    1.0648 H   0  0  0  0  0  0  0  0  0  0  0  0
   -0.9053    2.8148   -0.1159 H   0  0  0  0  0  0  0  0  0  0  0  0
    0.6858    1.6623   -1.5802 H   0  0  0  0  0  0  0  0  0  0  0  0
   -0.4180    0.4078   -1.0698 H   0  0  0  0  0  0  0  0  0  0  0  0
    2.5960    1.9131    1.1231 H   0  0  0  0  0  0  0  0  0  0  0  0
    3.7578    0.6602    0.7368 H   0  0  0  0  0  0  0  0  0  0  0  0
    2.6853    2.7458   -1.2488 H   0  0  0  0  0  0  0  0  0  0  0  0
    4.2907    2.7335   -0.5278 H   0  0  0  0  0  0  0  0  0  0  0  0
    3.8184    1.4528   -1.6570 H   0  0  0  0  0  0  0  0  0  0  0  0
   -1.2002   -2.5010   -1.0769 C   0  0  0  0  0  0  0  0  0  0  0  0
   -1.5968   -2.7963    0.3637 C   0  0  0  0  0  0  0  0  0  0  0  0
   -1.4528   -1.6006    1.2802 C   0  0  0  0  0  0  0  0  0  0  0  0
   -2.3551   -0.5884    0.8696 O   0  0  0  0  0  0  0  0  0  0  0  0
   -2.2123    0.5988    1.5479 C   0  0  0  0  0  0  0  0  0  0  0  0
   -0.1574   -2.1793   -1.1368 H   0  0  0  0  0  0  0  0  0  0  0  0
   -1.8251   -1.7115   -1.4962 H   0  0  0  0  0  0  0  0  0  0  0  0
   -1.3120   -3.3868   -1.7038 H   0  0  0  0  0  0  0  0  0  0  0  0
   -2.6310   -3.1482    0.4050 H   0  0  0  0  0  0  0  0  0  0  0  0
   -0.9726   -3.5987    0.7659 H   0  0  0  0  0  0  0  0  0  0  0  0
   -1.6774   -1.8807    2.3180 H   0  0  0  0  0  0  0  0  0  0  0  0
   -0.4263   -1.2141    1.2502 H   0  0  0  0  0  0  0  0  0  0  0  0
   -1.2160    1.2902    1.0451 H   0  0  0  0  0  0  0  0  0  0  0  0
   -1.9832    0.4787    2.6125 H   0  0  0  0  0  0  0  0  0  0  0  0
   -3.0860    1.2260    1.3780 H   0  0  0  0  0  0  0  0  0  0  0  0
  1  2  1  0
  1  6  1  0
  1  7  1  0
  2  3  1  0
  2  8  1  0
  2  9  1  0
  3  4  1  0
  4  5  1  0
  4 10  1  0
  4 11  1  0
  5 12  1  0
  5 13  1  0
  5 14  1  0
 15 16  1  0
 15 20  1  0
 15 21  1  0
 15 22  1  0
 16 17  1  0
 16 23  1  0
 16 24  1  0
 17 18  1  0
 17 25  1  0
 17 26  1  0
 18 19  1  0
 19 27  1  0
 19 28  1  0
 19 29  1  0
M  RAD  1   1   2
M  END
>  <reaction>  (4) 
rmg_rxn_669

>  <mol_properties>  (4) 
{"0": {"label": "*3", "atom_type": "Cs"}, "1": {"label": "*4", "atom_type": "Cs"}, "17": {"label": "*0", "atom_type": "O2s"}, "18": {"label": "*1", "atom_type": "Cs"}, "26": {"label": "*2", "atom_type": "H0"}}

>  <type>  (4) 
ts

$$$$
