
     RDKit          3D

 21 21  0  0  0  0  0  0  0  0999 V2000
    3.6139   -0.5397    0.5515 C   0  0  0  0  0  0  0  0  0  0  0  0
    2.4070    0.0144   -0.1347 C   0  0  0  0  0  0  0  0  0  0  0  0
    1.2506    0.2815    0.4543 C   0  0  0  0  0  0  0  0  0  0  0  0
    0.0329    0.8410   -0.2403 C   0  0  0  0  0  0  0  0  0  0  0  0
   -0.3303    2.1844    0.3346 C   0  0  0  0  0  0  0  0  0  0  0  0
   -1.4891    2.4542    0.9169 C   0  0  0  0  0  0  0  0  0  0  0  0
   -2.5984    1.4582    1.0549 C   0  0  0  0  0  0  0  0  0  0  0  0
   -2.2735    0.1387    0.4267 C   0  0  0  0  0  0  0  0  0  0  0  0
   -1.1144   -0.1302   -0.1554 C   0  0  0  0  0  0  0  0  0  0  0  0
    3.9135   -1.4925    0.1073 H   0  0  0  0  0  0  0  0  0  0  0  0
    4.4659    0.1380    0.4525 H   0  0  0  0  0  0  0  0  0  0  0  0
    3.4280   -0.7016    1.6140 H   0  0  0  0  0  0  0  0  0  0  0  0
    2.5048    0.2071   -1.2014 H   0  0  0  0  0  0  0  0  0  0  0  0
    1.1320    0.0961    1.5201 H   0  0  0  0  0  0  0  0  0  0  0  0
    0.2973    0.9752   -1.2970 H   0  0  0  0  0  0  0  0  0  0  0  0
    0.4331    2.9524    0.2684 H   0  0  0  0  0  0  0  0  0  0  0  0
   -1.6674    3.4467    1.3169 H   0  0  0  0  0  0  0  0  0  0  0  0
   -2.8393    1.3154    2.1155 H   0  0  0  0  0  0  0  0  0  0  0  0
   -3.5159    1.8630    0.6112 H   0  0  0  0  0  0  0  0  0  0  0  0
   -3.0459   -0.6226    0.4555 H   0  0  0  0  0  0  0  0  0  0  0  0
   -0.9427   -1.1088   -0.5913 H   0  0  0  0  0  0  0  0  0  0  0  0
  1  2  1  0
  1 10  1  0
  1 11  1  0
  1 12  1  0
  2  3  2  3
  2 13  1  0
  3  4  1  0
  3 14  1  0
  4  5  1  0
  4  9  1  0
  4 15  1  0
  5  6  2  0
  5 16  1  0
  6  7  1  0
  6 17  1  0
  7  8  1  0
  7 18  1  0
  7 19  1  0
  8  9  2  0
  8 20  1  0
  9 21  1  0
M  END
>  <reaction>  (1) 
rmg_rxn_15724

>  <mol_properties>  (1) 
{"6": {"label": "donator", "atom_type": "Cs"}, "17": {"label": "d_hydrogen", "atom_type": "H0"}}

>  <type>  (1) 
r1h

$$$$

     RDKit          3D

  8  7  0  0  0  0  0  0  0  0999 V2000
    1.7077   -0.1964   -0.0607 C   0  0  0  0  0  3  0  0  0  0  0  0
    0.4209   -0.4565    0.2808 O   0  0  0  0  0  0  0  0  0  0  0  0
   -0.4607    0.4385   -0.2968 N   0  0  0  0  0  0  0  0  0  0  0  0
   -1.6584    0.1416   -0.0244 C   0  0  0  0  0  0  0  0  0  0  0  0
    2.4163   -0.7685    0.5170 H   0  0  0  0  0  0  0  0  0  0  0  0
    1.9214    0.7645   -0.5045 H   0  0  0  0  0  0  0  0  0  0  0  0
   -2.4185    0.7953   -0.4307 H   0  0  0  0  0  0  0  0  0  0  0  0
   -1.9286   -0.7185    0.5831 H   0  0  0  0  0  0  0  0  0  0  0  0
  1  2  1  0
  1  5  1  0
  1  6  1  0
  2  3  1  0
  3  4  2  3
  4  7  1  0
  4  8  1  0
M  RAD  1   1   2
M  END
>  <reaction>  (2) 
rmg_rxn_15724

>  <mol_properties>  (2) 
{"0": {"label": "acceptor", "atom_type": "Cs"}}

>  <type>  (2) 
r2

$$$$

     RDKit          3D

  9  8  0  0  0  0  0  0  0  0999 V2000
   -1.5470   -0.0755   -0.1976 C   0  0  0  0  0  0  0  0  0  0  0  0
   -0.2885    0.4507    0.1749 O   0  0  0  0  0  0  0  0  0  0  0  0
   -0.1502    1.7216   -0.3294 N   0  0  0  0  0  0  0  0  0  0  0  0
    0.9626    2.2353   -0.0219 C   0  0  0  0  0  0  0  0  0  0  0  0
   -1.6392   -0.1356   -1.2844 H   0  0  0  0  0  0  0  0  0  0  0  0
   -2.3597    0.5337    0.2044 H   0  0  0  0  0  0  0  0  0  0  0  0
   -1.5879   -1.0750    0.2318 H   0  0  0  0  0  0  0  0  0  0  0  0
    1.1497    3.2381   -0.3820 H   0  0  0  0  0  0  0  0  0  0  0  0
    1.7060    1.7101    0.5739 H   0  0  0  0  0  0  0  0  0  0  0  0
  1  2  1  0
  1  5  1  0
  1  6  1  0
  1  7  1  0
  2  3  1  0
  3  4  2  3
  4  8  1  0
  4  9  1  0
M  END
>  <reaction>  (3) 
rmg_rxn_15724

>  <mol_properties>  (3) 
{"0": {"label": "acceptor", "atom_type": "Cs"}, "8": {"label": "a_hydrogen", "atom_type": "H0"}}

>  <type>  (3) 
r2h

$$$$

     RDKit          3D

 29 28  0  0  0  0  0  0  0  0999 V2000
    1.2341    2.2877    0.4663 C   0  0  0  0  0  3  0  0  0  0  0  0
    0.2803    1.9908   -0.4797 O   0  0  0  0  0  0  0  0  0  0  0  0
   -0.9823    2.3653   -0.0557 N   0  0  0  0  0  0  0  0  0  0  0  0
   -1.8792    1.9037   -0.8157 C   0  0  0  0  0  0  0  0  0  0  0  0
    2.2192    2.2342    0.0134 H   0  0  0  0  0  0  0  0  0  0  0  0
    1.0116    3.1734    1.0564 H   0  0  0  0  0  0  0  0  0  0  0  0
   -2.8992    2.1653   -0.5676 H   0  0  0  0  0  0  0  0  0  0  0  0
   -1.6602    1.2692   -1.6708 H   0  0  0  0  0  0  0  0  0  0  0  0
   -0.7843   -1.6569   -3.6057 C   0  0  0  0  0  0  0  0  0  0  0  0
   -0.5600   -2.1662   -2.2174 C   0  0  0  0  0  0  0  0  0  0  0  0
   -0.0542   -1.4521   -1.2223 C   0  0  0  0  0  0  0  0  0  0  0  0
    0.1682   -1.9524    0.1868 C   0  0  0  0  0  0  0  0  0  0  0  0
   -0.7386   -1.2179    1.1394 C   0  0  0  0  0  0  0  0  0  0  0  0
   -0.3007   -0.2981    1.9952 C   0  0  0  0  0  0  0  0  0  0  0  0
    1.1187    0.0831    2.0815 C   0  0  0  0  0  0  0  0  0  0  0  0
    2.0376   -0.8697    1.4336 C   0  0  0  0  0  0  0  0  0  0  0  0
    1.6153   -1.7918    0.5719 C   0  0  0  0  0  0  0  0  0  0  0  0
   -0.2275   -2.2495   -4.3362 H   0  0  0  0  0  0  0  0  0  0  0  0
   -1.8397   -1.7231   -3.8837 H   0  0  0  0  0  0  0  0  0  0  0  0
   -0.4683   -0.6170   -3.7023 H   0  0  0  0  0  0  0  0  0  0  0  0
   -0.8379   -3.2018   -2.0314 H   0  0  0  0  0  0  0  0  0  0  0  0
    0.2327   -0.4156   -1.3852 H   0  0  0  0  0  0  0  0  0  0  0  0
   -0.0887   -3.0182    0.2002 H   0  0  0  0  0  0  0  0  0  0  0  0
   -1.7961   -1.4495    1.0772 H   0  0  0  0  0  0  0  0  0  0  0  0
   -1.0049    0.2246    2.6323 H   0  0  0  0  0  0  0  0  0  0  0  0
    1.2243    1.1686    1.4207 H   0  0  0  0  0  0  0  0  0  0  0  0
    1.4354    0.4053    3.0734 H   0  0  0  0  0  0  0  0  0  0  0  0
    3.0955   -0.7867    1.6574 H   0  0  0  0  0  0  0  0  0  0  0  0
    2.3236   -2.4570    0.0907 H   0  0  0  0  0  0  0  0  0  0  0  0
  1  2  1  0
  1  5  1  0
  1  6  1  0
  2  3  1  0
  3  4  2  3
  4  7  1  0
  4  8  1  0
  9 10  1  0
  9 18  1  0
  9 19  1  0
  9 20  1  0
 10 11  2  3
 10 21  1  0
 11 12  1  0
 11 22  1  0
 12 13  1  0
 12 17  1  0
 12 23  1  0
 13 14  2  0
 13 24  1  0
 14 15  1  0
 14 25  1  0
 15 16  1  0
 15 26  1  0
 15 27  1  0
 16 17  2  0
 16 28  1  0
 17 29  1  0
M  RAD  1   1   2
M  END
>  <reaction>  (4) 
rmg_rxn_15724

>  <mol_properties>  (4) 
{"0": {"label": "*3", "atom_type": "Cs"}, "1": {"label": "*4", "atom_type": "O2s"}, "13": {"label": "*0", "atom_type": "Cd"}, "14": {"label": "*1", "atom_type": "Cs"}, "25": {"label": "*2", "atom_type": "H0"}}

>  <type>  (4) 
ts

$$$$
