
     RDKit          3D

 14 13  0  0  0  0  0  0  0  0999 V2000
    2.0971    0.1613   -0.6223 C   0  0  0  0  0  0  0  0  0  0  0  0
    1.5428   -0.7797    0.1293 C   0  0  0  0  0  0  0  0  0  0  0  0
    0.3488   -0.7496    0.7703 O   0  0  0  0  0  0  0  0  0  0  0  0
   -0.3508    0.4714    0.8111 C   0  0  0  0  0  0  0  0  0  0  0  0
   -0.8890    0.8565   -0.4033 O   0  0  0  0  0  0  0  0  0  0  0  0
   -1.8791   -0.0185   -0.8977 C   0  0  0  0  0  0  0  0  0  0  0  0
    1.6101    1.0955   -0.8606 H   0  0  0  0  0  0  0  0  0  0  0  0
    3.0772   -0.0240   -1.0369 H   0  0  0  0  0  0  0  0  0  0  0  0
    2.0343   -1.7274    0.3141 H   0  0  0  0  0  0  0  0  0  0  0  0
    0.3209    1.2758    1.1216 H   0  0  0  0  0  0  0  0  0  0  0  0
   -1.1355    0.3080    1.5577 H   0  0  0  0  0  0  0  0  0  0  0  0
   -2.6811   -0.1588   -0.1626 H   0  0  0  0  0  0  0  0  0  0  0  0
   -2.2911    0.4428   -1.7929 H   0  0  0  0  0  0  0  0  0  0  0  0
   -1.4587   -0.9943   -1.1544 H   0  0  0  0  0  0  0  0  0  0  0  0
  1  2  2  3
  1  7  1  0
  1  8  1  0
  2  3  1  0
  2  9  1  0
  3  4  1  0
  4  5  1  0
  4 10  1  0
  4 11  1  0
  5  6  1  0
  6 12  1  0
  6 13  1  0
  6 14  1  0
M  END
>  <reaction>  (1) 
rmg_rxn_15671

>  <mol_properties>  (1) 
{"5": {"label": "donator", "atom_type": "Cs"}, "11": {"label": "d_hydrogen", "atom_type": "H0"}}

>  <type>  (1) 
r1h

$$$$

     RDKit          3D

  8  7  0  0  0  0  0  0  0  0999 V2000
    1.7077   -0.1964   -0.0607 C   0  0  0  0  0  3  0  0  0  0  0  0
    0.4209   -0.4565    0.2808 O   0  0  0  0  0  0  0  0  0  0  0  0
   -0.4607    0.4385   -0.2968 N   0  0  0  0  0  0  0  0  0  0  0  0
   -1.6584    0.1416   -0.0244 C   0  0  0  0  0  0  0  0  0  0  0  0
    2.4163   -0.7685    0.5170 H   0  0  0  0  0  0  0  0  0  0  0  0
    1.9214    0.7645   -0.5045 H   0  0  0  0  0  0  0  0  0  0  0  0
   -2.4185    0.7953   -0.4307 H   0  0  0  0  0  0  0  0  0  0  0  0
   -1.9286   -0.7185    0.5831 H   0  0  0  0  0  0  0  0  0  0  0  0
  1  2  1  0
  1  5  1  0
  1  6  1  0
  2  3  1  0
  3  4  2  3
  4  7  1  0
  4  8  1  0
M  RAD  1   1   2
M  END
>  <reaction>  (2) 
rmg_rxn_15671

>  <mol_properties>  (2) 
{"0": {"label": "acceptor", "atom_type": "Cs"}}

>  <type>  (2) 
r2

$$$$

     RDKit          3D

  9  8  0  0  0  0  0  0  0  0999 V2000
   -1.5470   -0.0755   -0.1976 C   0  0  0  0  0  0  0  0  0  0  0  0
   -0.2885    0.4507    0.1749 O   0  0  0  0  0  0  0  0  0  0  0  0
   -0.1502    1.7216   -0.3294 N   0  0  0  0  0  0  0  0  0  0  0  0
    0.9626    2.2353   -0.0219 C   0  0  0  0  0  0  0  0  0  0  0  0
   -1.6392   -0.1356   -1.2844 H   0  0  0  0  0  0  0  0  0  0  0  0
   -2.3597    0.5337    0.2044 H   0  0  0  0  0  0  0  0  0  0  0  0
   -1.5879   -1.0750    0.2318 H   0  0  0  0  0  0  0  0  0  0  0  0
    1.1497    3.2381   -0.3820 H   0  0  0  0  0  0  0  0  0  0  0  0
    1.7060    1.7101    0.5739 H   0  0  0  0  0  0  0  0  0  0  0  0
  1  2  1  0
  1  5  1  0
  1  6  1  0
  1  7  1  0
  2  3  1  0
  3  4  2  3
  4  8  1  0
  4  9  1  0
M  END
>  <reaction>  (3) 
rmg_rxn_15671

>  <mol_properties>  (3) 
{"0": {"label": "acceptor", "atom_type": "Cs"}, "8": {"label": "a_hydrogen", "atom_type": "H0"}}

>  <type>  (3) 
r2h

$$$$

     RDKit          3D

 22 20  0  0  0  0  0  0  0  0999 V2000
   -2.3325    1.4227   -0.2495 C   0  0  0  0  0  3  0  0  0  0  0  0
   -2.8955    0.2686    0.2841 O   0  0  0  0  0  0  0  0  0  0  0  0
   -2.3264   -0.8522   -0.2754 N   0  0  0  0  0  0  0  0  0  0  0  0
   -2.7850   -1.9176    0.2265 C   0  0  0  0  0  0  0  0  0  0  0  0
   -2.2391    1.3932   -1.3352 H   0  0  0  0  0  0  0  0  0  0  0  0
   -2.8911    2.2743    0.1288 H   0  0  0  0  0  0  0  0  0  0  0  0
   -2.3877   -2.8451   -0.1632 H   0  0  0  0  0  0  0  0  0  0  0  0
   -3.5385   -1.9189    1.0105 H   0  0  0  0  0  0  0  0  0  0  0  0
    3.8181   -0.0511   -0.0618 C   0  0  0  0  0  0  0  0  0  0  0  0
    2.9181   -0.9239    0.3694 C   0  0  0  0  0  0  0  0  0  0  0  0
    1.5835   -0.9418    0.1348 O   0  0  0  0  0  0  0  0  0  0  0  0
    1.0641   -0.0407   -0.8106 C   0  0  0  0  0  0  0  0  0  0  0  0
    1.0706    1.2846   -0.3770 O   0  0  0  0  0  0  0  0  0  0  0  0
    0.2156    1.5517    0.6795 C   0  0  0  0  0  0  0  0  0  0  0  0
    3.5670    0.8231   -0.6445 H   0  0  0  0  0  0  0  0  0  0  0  0
    4.8537   -0.2079    0.2023 H   0  0  0  0  0  0  0  0  0  0  0  0
    3.1922   -1.7665    0.9929 H   0  0  0  0  0  0  0  0  0  0  0  0
    0.0441   -0.3853   -0.9943 H   0  0  0  0  0  0  0  0  0  0  0  0
    1.6677   -0.0642   -1.7209 H   0  0  0  0  0  0  0  0  0  0  0  0
   -1.0554    1.5364    0.2305 H   0  0  0  0  0  0  0  0  0  0  0  0
    0.2497    0.8071    1.4769 H   0  0  0  0  0  0  0  0  0  0  0  0
    0.3876    2.5658    1.0310 H   0  0  0  0  0  0  0  0  0  0  0  0
  1  2  1  0
  1  5  1  0
  1  6  1  0
  2  3  1  0
  3  4  2  3
  4  7  1  0
  4  8  1  0
  9 10  2  3
  9 15  1  0
  9 16  1  0
 10 11  1  0
 10 17  1  0
 11 12  1  0
 12 13  1  0
 12 18  1  0
 12 19  1  0
 13 14  1  0
 14 20  1  0
 14 21  1  0
 14 22  1  0
M  RAD  1   1   2
M  END
>  <reaction>  (4) 
rmg_rxn_15671

>  <mol_properties>  (4) 
{"0": {"label": "*3", "atom_type": "Cs"}, "1": {"label": "*4", "atom_type": "O2s"}, "12": {"label": "*0", "atom_type": "O2s"}, "13": {"label": "*1", "atom_type": "Cs"}, "19": {"label": "*2", "atom_type": "H0"}}

>  <type>  (4) 
ts

$$$$
