
     RDKit          3D

 19 18  0  0  0  0  0  0  0  0999 V2000
    2.2140    2.6197   -0.4907 C   0  0  0  0  0  0  0  0  0  0  0  0
    1.3414    1.4165   -0.6456 C   0  0  0  0  0  0  0  0  0  0  0  0
    0.0112    1.4393   -0.6052 C   0  0  0  0  0  0  0  0  0  0  0  0
   -0.8851    0.2871   -0.7518 C   0  0  0  0  0  0  0  0  0  0  0  0
   -0.2520   -1.0567   -0.9696 C   0  0  0  0  0  0  0  0  0  0  0  0
   -2.2050    0.4946   -0.6842 C   0  0  0  0  0  0  0  0  0  0  0  0
   -3.3155   -0.4974   -0.8010 C   0  0  0  0  0  0  0  0  0  0  0  0
    2.8901    2.5072    0.3614 H   0  0  0  0  0  0  0  0  0  0  0  0
    1.6236    3.5244   -0.3395 H   0  0  0  0  0  0  0  0  0  0  0  0
    2.8418    2.7656   -1.3740 H   0  0  0  0  0  0  0  0  0  0  0  0
    1.8563    0.4729   -0.8004 H   0  0  0  0  0  0  0  0  0  0  0  0
   -0.4825    2.3961   -0.4489 H   0  0  0  0  0  0  0  0  0  0  0  0
   -0.9854   -1.8530   -1.0677 H   0  0  0  0  0  0  0  0  0  0  0  0
    0.3604   -1.0504   -1.8747 H   0  0  0  0  0  0  0  0  0  0  0  0
    0.4088   -1.3092   -0.1365 H   0  0  0  0  0  0  0  0  0  0  0  0
   -2.5310    1.5194   -0.5225 H   0  0  0  0  0  0  0  0  0  0  0  0
   -3.9297   -0.4912    0.1038 H   0  0  0  0  0  0  0  0  0  0  0  0
   -2.9703   -1.5168   -0.9624 H   0  0  0  0  0  0  0  0  0  0  0  0
   -3.9779   -0.2330   -1.6300 H   0  0  0  0  0  0  0  0  0  0  0  0
  1  2  1  0
  1  8  1  0
  1  9  1  0
  1 10  1  0
  2  3  2  3
  2 11  1  0
  3  4  1  0
  3 12  1  0
  4  5  1  0
  4  6  2  3
  5 13  1  0
  5 14  1  0
  5 15  1  0
  6  7  1  0
  6 16  1  0
  7 17  1  0
  7 18  1  0
  7 19  1  0
M  END
>  <reaction>  (1) 
rmg_rxn_15493

>  <mol_properties>  (1) 
{"5": {"label": "donator", "atom_type": "Cd"}, "15": {"label": "d_hydrogen", "atom_type": "H0"}}

>  <type>  (1) 
r1h

$$$$

     RDKit          3D

  5  4  0  0  0  0  0  0  0  0999 V2000
    0.8934    0.3742    0.4948 O   0  0  0  0  0  0  0  0  0  0  0  0
    0.1582   -0.1610   -0.5904 N   0  0  0  0  0  0  0  0  0  0  0  0
   -1.0297   -0.3739   -0.4689 C   0  0  0  0  0  3  0  0  0  0  0  0
    1.7805    0.4382    0.1306 H   0  0  0  0  0  0  0  0  0  0  0  0
   -1.8023   -0.2775    0.2859 H   0  0  0  0  0  0  0  0  0  0  0  0
  1  2  1  0
  1  4  1  0
  2  3  2  3
  3  5  1  0
M  RAD  1   3   2
M  END
>  <reaction>  (2) 
rmg_rxn_15493

>  <mol_properties>  (2) 
{"2": {"label": "acceptor", "atom_type": "Cd"}}

>  <type>  (2) 
r2

$$$$

     RDKit          3D

  6  5  0  0  0  0  0  0  0  0999 V2000
    1.2314    0.0428    0.5088 O   0  0  0  0  0  0  0  0  0  0  0  0
    0.2987    0.2341   -0.4915 N   0  0  0  0  0  0  0  0  0  0  0  0
   -0.8599   -0.1122   -0.1290 C   0  0  0  0  0  0  0  0  0  0  0  0
    2.0507    0.3401    0.1082 H   0  0  0  0  0  0  0  0  0  0  0  0
   -1.0700   -0.5112    0.8610 H   0  0  0  0  0  0  0  0  0  0  0  0
   -1.6509    0.0064   -0.8574 H   0  0  0  0  0  0  0  0  0  0  0  0
  1  2  1  0
  1  4  1  0
  2  3  2  3
  3  5  1  0
  3  6  1  0
M  END
>  <reaction>  (3) 
rmg_rxn_15493

>  <mol_properties>  (3) 
{"2": {"label": "acceptor", "atom_type": "Cd"}, "5": {"label": "a_hydrogen", "atom_type": "H0"}}

>  <type>  (3) 
r2h

$$$$

     RDKit          3D

 24 22  0  0  0  0  0  0  0  0999 V2000
   -1.7967   -1.3668   -1.2346 O   0  0  0  0  0  0  0  0  0  0  0  0
   -2.4056   -1.5760   -0.0263 N   0  0  0  0  0  0  0  0  0  0  0  0
   -2.1810   -0.7678    0.9032 C   0  0  0  0  0  0  0  0  0  0  0  0
   -1.2308   -0.5788   -1.1624 H   0  0  0  0  0  0  0  0  0  0  0  0
   -2.6523   -0.9148    1.8695 H   0  0  0  0  0  0  0  0  0  0  0  0
    2.9586   -2.0142    0.3444 C   0  0  0  0  0  0  0  0  0  0  0  0
    2.4399   -0.6419    0.0661 C   0  0  0  0  0  0  0  0  0  0  0  0
    1.1816   -0.2595    0.2689 C   0  0  0  0  0  0  0  0  0  0  0  0
    0.6345    1.0775   -0.0001 C   0  0  0  0  0  0  0  0  0  0  0  0
    1.5812    2.1271   -0.5262 C   0  0  0  0  0  0  0  0  0  0  0  0
   -0.6523    1.3302    0.2272 C   0  0  0  0  0  3  0  0  0  0  0  0
   -1.5087    2.5278    0.0588 C   0  0  0  0  0  0  0  0  0  0  0  0
    3.3649   -2.4675   -0.5636 H   0  0  0  0  0  0  0  0  0  0  0  0
    2.1757   -2.6673    0.7308 H   0  0  0  0  0  0  0  0  0  0  0  0
    3.7727   -1.9831    1.0734 H   0  0  0  0  0  0  0  0  0  0  0  0
    3.1607    0.0682   -0.3283 H   0  0  0  0  0  0  0  0  0  0  0  0
    0.4816   -0.9882    0.6690 H   0  0  0  0  0  0  0  0  0  0  0  0
    2.3980    2.2892    0.1806 H   0  0  0  0  0  0  0  0  0  0  0  0
    2.0244    1.8037   -1.4707 H   0  0  0  0  0  0  0  0  0  0  0  0
    1.0848    3.0801   -0.6930 H   0  0  0  0  0  0  0  0  0  0  0  0
   -1.3949    0.2797    0.6897 H   0  0  0  0  0  0  0  0  0  0  0  0
   -0.9904    3.3464   -0.4451 H   0  0  0  0  0  0  0  0  0  0  0  0
   -1.8558    2.8947    1.0282 H   0  0  0  0  0  0  0  0  0  0  0  0
   -2.3984    2.2835   -0.5273 H   0  0  0  0  0  0  0  0  0  0  0  0
  1  2  1  0
  1  4  1  0
  2  3  2  3
  3  5  1  0
  3 21  1  0
  6  7  1  0
  6 13  1  0
  6 14  1  0
  6 15  1  0
  7  8  2  3
  7 16  1  0
  8  9  1  0
  8 17  1  0
  9 10  1  0
  9 11  2  3
 10 18  1  0
 10 19  1  0
 10 20  1  0
 11 12  1  0
 12 22  1  0
 12 23  1  0
 12 24  1  0
M  RAD  1  11   2
M  END
>  <reaction>  (4) 
rmg_rxn_15493

>  <mol_properties>  (4) 
{"1": {"label": "*0", "atom_type": "N3d"}, "2": {"label": "*1", "atom_type": "Cd"}, "8": {"label": "*4", "atom_type": "Cd"}, "10": {"label": "*3", "atom_type": "Cd"}, "20": {"label": "*2", "atom_type": "H0"}}

>  <type>  (4) 
ts

$$$$
