
     RDKit          3D

  6  5  0  0  0  0  0  0  0  0999 V2000
   -0.4547   -0.0097   -0.0070 C   0  0  0  0  0  0  0  0  0  0  0  0
    0.8695   -0.1987   -0.6218 N   0  0  0  0  0  0  0  0  0  0  0  0
    1.0322   -1.2809   -1.0969 O   0  0  0  0  0  0  0  0  0  0  0  0
   -0.2820    0.2687    1.0347 H   0  0  0  0  0  0  0  0  0  0  0  0
   -1.0716   -0.9051   -0.0916 H   0  0  0  0  0  0  0  0  0  0  0  0
   -0.9130    0.8487   -0.5026 H   0  0  0  0  0  0  0  0  0  0  0  0
  1  2  1  0
  1  4  1  0
  1  5  1  0
  1  6  1  0
  2  3  2  0
M  END
>  <reaction>  (1) 
rmg_rxn_586

>  <mol_properties>  (1) 
{"0": {"label": "donator", "atom_type": "Cs"}, "3": {"label": "d_hydrogen", "atom_type": "H0"}}

>  <type>  (1) 
r1h

$$$$

     RDKit          3D

 13 12  0  0  0  0  0  0  0  0999 V2000
    1.9060    0.2628    0.3980 C   0  0  0  0  0  0  0  0  0  0  0  0
    0.6330   -0.4250    0.0685 C   0  0  0  0  0  3  0  0  0  0  0  0
   -0.2610   -0.9325    1.1416 C   0  0  0  0  0  0  0  0  0  0  0  0
   -1.4364   -1.7546    0.6268 C   0  0  0  0  0  0  0  0  0  0  0  0
    2.4899   -0.3070    1.1292 H   0  0  0  0  0  0  0  0  0  0  0  0
    1.7297    1.2496    0.8515 H   0  0  0  0  0  0  0  0  0  0  0  0
    2.5269    0.4197   -0.4845 H   0  0  0  0  0  0  0  0  0  0  0  0
    0.2597   -0.3936   -0.9489 H   0  0  0  0  0  0  0  0  0  0  0  0
   -0.6439   -0.0868    1.7356 H   0  0  0  0  0  0  0  0  0  0  0  0
    0.3260   -1.5277    1.8536 H   0  0  0  0  0  0  0  0  0  0  0  0
   -1.0872   -2.6320    0.0792 H   0  0  0  0  0  0  0  0  0  0  0  0
   -2.0701   -2.0976    1.4459 H   0  0  0  0  0  0  0  0  0  0  0  0
   -2.0561   -1.1637   -0.0512 H   0  0  0  0  0  0  0  0  0  0  0  0
  1  2  1  0
  1  5  1  0
  1  6  1  0
  1  7  1  0
  2  3  1  0
  2  8  1  0
  3  4  1  0
  3  9  1  0
  3 10  1  0
  4 11  1  0
  4 12  1  0
  4 13  1  0
M  RAD  1   2   2
M  END
>  <reaction>  (2) 
rmg_rxn_586

>  <mol_properties>  (2) 
{"1": {"label": "acceptor", "atom_type": "Cs"}}

>  <type>  (2) 
r2

$$$$

     RDKit          3D

 14 13  0  0  0  0  0  0  0  0999 V2000
    1.8106   -0.5953    0.5577 C   0  0  0  0  0  0  0  0  0  0  0  0
    0.5197    0.2064    0.6554 C   0  0  0  0  0  0  0  0  0  0  0  0
   -0.5206   -0.2080   -0.3788 C   0  0  0  0  0  0  0  0  0  0  0  0
   -1.8114    0.5937   -0.2812 C   0  0  0  0  0  0  0  0  0  0  0  0
    2.2725   -0.4752   -0.4251 H   0  0  0  0  0  0  0  0  0  0  0  0
    1.6214   -1.6612    0.7052 H   0  0  0  0  0  0  0  0  0  0  0  0
    2.5364   -0.2784    1.3084 H   0  0  0  0  0  0  0  0  0  0  0  0
    0.0930    0.0950    1.6574 H   0  0  0  0  0  0  0  0  0  0  0  0
    0.7393    1.2723    0.5354 H   0  0  0  0  0  0  0  0  0  0  0  0
   -0.7402   -1.2739   -0.2588 H   0  0  0  0  0  0  0  0  0  0  0  0
   -0.0938   -0.0965   -1.3808 H   0  0  0  0  0  0  0  0  0  0  0  0
   -1.6222    1.6596   -0.4287 H   0  0  0  0  0  0  0  0  0  0  0  0
   -2.2734    0.4736    0.7017 H   0  0  0  0  0  0  0  0  0  0  0  0
   -2.5373    0.2768   -1.0318 H   0  0  0  0  0  0  0  0  0  0  0  0
  1  2  1  0
  1  5  1  0
  1  6  1  0
  1  7  1  0
  2  3  1  0
  2  8  1  0
  2  9  1  0
  3  4  1  0
  3 10  1  0
  3 11  1  0
  4 12  1  0
  4 13  1  0
  4 14  1  0
M  END
>  <reaction>  (3) 
rmg_rxn_586

>  <mol_properties>  (3) 
{"0": {"label": "a_hydrogen", "atom_type": "H0"}, "2": {"label": "acceptor", "atom_type": "Cs"}}

>  <type>  (3) 
r2h

$$$$

     RDKit          3D

 19 17  0  0  0  0  0  0  0  0999 V2000
    1.4466    0.6258   -0.4248 C   0  0  0  0  0  0  0  0  0  0  0  0
    1.1319   -0.3881   -1.3534 N   0  0  0  0  0  0  0  0  0  0  0  0
    0.4200   -0.0251   -2.2714 O   0  0  0  0  0  0  0  0  0  0  0  0
    0.4528    0.6641    0.3561 H   0  0  0  0  0  0  0  0  0  0  0  0
    1.4654    1.6345   -0.8412 H   0  0  0  0  0  0  0  0  0  0  0  0
    2.2907    0.3578    0.2046 H   0  0  0  0  0  0  0  0  0  0  0  0
   -1.4658    1.9499    0.4592 C   0  0  0  0  0  0  0  0  0  0  0  0
   -0.7671    0.7930    1.1059 C   0  0  0  0  0  3  0  0  0  0  0  0
   -1.3690   -0.5722    0.9494 C   0  0  0  0  0  0  0  0  0  0  0  0
   -0.5268   -1.6890    1.5519 C   0  0  0  0  0  0  0  0  0  0  0  0
   -2.4329    2.1295    0.9427 H   0  0  0  0  0  0  0  0  0  0  0  0
   -1.6555    1.7515   -0.5972 H   0  0  0  0  0  0  0  0  0  0  0  0
   -0.8839    2.8689    0.5384 H   0  0  0  0  0  0  0  0  0  0  0  0
   -0.3543    0.9954    2.0946 H   0  0  0  0  0  0  0  0  0  0  0  0
   -1.5479   -0.7678   -0.1120 H   0  0  0  0  0  0  0  0  0  0  0  0
   -2.3610   -0.5604    1.4220 H   0  0  0  0  0  0  0  0  0  0  0  0
   -0.3312   -1.5058    2.6108 H   0  0  0  0  0  0  0  0  0  0  0  0
   -1.0344   -2.6499    1.4655 H   0  0  0  0  0  0  0  0  0  0  0  0
    0.4318   -1.7749    1.0370 H   0  0  0  0  0  0  0  0  0  0  0  0
  1  2  1  0
  1  4  1  0
  1  5  1  0
  1  6  1  0
  2  3  2  0
  7  8  1  0
  7 11  1  0
  7 12  1  0
  7 13  1  0
  8  9  1  0
  8 14  1  0
  9 10  1  0
  9 15  1  0
  9 16  1  0
 10 17  1  0
 10 18  1  0
 10 19  1  0
M  RAD  1   8   2
M  END
>  <reaction>  (4) 
rmg_rxn_586

>  <mol_properties>  (4) 
{"0": {"label": "*1", "atom_type": "Cs"}, "1": {"label": "*0", "atom_type": "N3d"}, "3": {"label": "*2", "atom_type": "H0"}, "7": {"label": "*3", "atom_type": "Cs"}, "8": {"label": "*4", "atom_type": "Cs"}}

>  <type>  (4) 
ts

$$$$
