
     RDKit          3D

 15 14  0  0  0  0  0  0  0  0999 V2000
   -2.0554    0.0723   -0.4910 C   0  0  0  0  0  0  0  0  0  0  0  0
   -0.7461   -0.6266   -0.8178 C   0  0  0  0  0  0  0  0  0  0  0  0
    0.3249    0.2591   -1.9782 S   0  0  0  0  0  0  0  0  0  0  0  0
   -0.7172    0.3642   -3.4551 C   0  0  0  0  0  0  0  0  0  0  0  0
   -1.1375   -0.9737   -4.0409 C   0  0  0  0  0  0  0  0  0  0  0  0
   -2.7005    0.1427   -1.3684 H   0  0  0  0  0  0  0  0  0  0  0  0
   -2.6016   -0.4848    0.2733 H   0  0  0  0  0  0  0  0  0  0  0  0
   -1.8758    1.0825   -0.1213 H   0  0  0  0  0  0  0  0  0  0  0  0
   -0.1320   -0.7246    0.0789 H   0  0  0  0  0  0  0  0  0  0  0  0
   -0.9254   -1.6374   -1.1879 H   0  0  0  0  0  0  0  0  0  0  0  0
   -1.5873    0.9874   -3.2422 H   0  0  0  0  0  0  0  0  0  0  0  0
   -0.1021    0.9161   -4.1678 H   0  0  0  0  0  0  0  0  0  0  0  0
   -1.7876   -1.5224   -3.3574 H   0  0  0  0  0  0  0  0  0  0  0  0
   -0.2676   -1.5962   -4.2534 H   0  0  0  0  0  0  0  0  0  0  0  0
   -1.6916   -0.8229   -4.9700 H   0  0  0  0  0  0  0  0  0  0  0  0
  1  2  1  0
  1  6  1  0
  1  7  1  0
  1  8  1  0
  2  3  1  0
  2  9  1  0
  2 10  1  0
  3  4  1  0
  4  5  1  0
  4 11  1  0
  4 12  1  0
  5 13  1  0
  5 14  1  0
  5 15  1  0
M  END
>  <reaction>  (1) 
rmg_rxn_259

>  <mol_properties>  (1) 
{"1": {"label": "donator", "atom_type": "Cs"}, "8": {"label": "d_hydrogen", "atom_type": "H0"}}

>  <type>  (1) 
r1h

$$$$

     RDKit          3D

 13 13  0  0  0  0  0  0  0  0999 V2000
   -0.9087    1.0135    0.2744 C   0  0  0  0  0  3  0  0  0  0  0  0
   -1.1528   -0.4306   -0.0132 C   0  0  0  0  0  0  0  0  0  0  0  0
    0.1597   -1.1985    0.0580 C   0  0  0  0  0  0  0  0  0  0  0  0
    1.1497   -0.5125   -0.6902 O   0  0  0  0  0  0  0  0  0  0  0  0
    1.3593    0.7608   -0.1866 C   0  0  0  0  0  0  0  0  0  0  0  0
    0.2092    1.5798   -0.2538 O   0  0  0  0  0  0  0  0  0  0  0  0
   -1.7260    1.7182    0.3534 H   0  0  0  0  0  0  0  0  0  0  0  0
   -1.8796   -0.8393    0.6913 H   0  0  0  0  0  0  0  0  0  0  0  0
   -1.5725   -0.5507   -1.0227 H   0  0  0  0  0  0  0  0  0  0  0  0
    0.4914   -1.2968    1.1007 H   0  0  0  0  0  0  0  0  0  0  0  0
    0.0732   -2.1931   -0.3758 H   0  0  0  0  0  0  0  0  0  0  0  0
    1.6805    0.7077    0.8652 H   0  0  0  0  0  0  0  0  0  0  0  0
    2.1167    1.2415   -0.8007 H   0  0  0  0  0  0  0  0  0  0  0  0
  1  2  1  0
  1  6  1  0
  1  7  1  0
  2  3  1  0
  2  8  1  0
  2  9  1  0
  3  4  1  0
  3 10  1  0
  3 11  1  0
  4  5  1  0
  5  6  1  0
  5 12  1  0
  5 13  1  0
M  RAD  1   1   2
M  END
>  <reaction>  (2) 
rmg_rxn_259

>  <mol_properties>  (2) 
{"0": {"label": "acceptor", "atom_type": "Cs"}}

>  <type>  (2) 
r2

$$$$

     RDKit          3D

 14 14  0  0  0  0  0  0  0  0999 V2000
   -1.1778    0.2241    0.1818 C   0  0  0  0  0  0  0  0  0  0  0  0
   -0.5633   -1.1636    0.0678 C   0  0  0  0  0  0  0  0  0  0  0  0
    0.6943   -1.1996    0.7146 O   0  0  0  0  0  0  0  0  0  0  0  0
    1.5547   -0.2288    0.2011 C   0  0  0  0  0  0  0  0  0  0  0  0
    1.0729    1.0696    0.3698 O   0  0  0  0  0  0  0  0  0  0  0  0
   -0.1607    1.2493   -0.2989 C   0  0  0  0  0  0  0  0  0  0  0  0
   -2.0927    0.2866   -0.4117 H   0  0  0  0  0  0  0  0  0  0  0  0
   -1.4303    0.4248    1.2248 H   0  0  0  0  0  0  0  0  0  0  0  0
   -1.1822   -1.9235    0.5431 H   0  0  0  0  0  0  0  0  0  0  0  0
   -0.4389   -1.4347   -0.9919 H   0  0  0  0  0  0  0  0  0  0  0  0
    1.7250   -0.4207   -0.8742 H   0  0  0  0  0  0  0  0  0  0  0  0
    2.4896   -0.3010    0.7524 H   0  0  0  0  0  0  0  0  0  0  0  0
   -0.0080    1.1481   -1.3844 H   0  0  0  0  0  0  0  0  0  0  0  0
   -0.4826    2.2695   -0.0942 H   0  0  0  0  0  0  0  0  0  0  0  0
  1  2  1  0
  1  6  1  0
  1  7  1  0
  1  8  1  0
  2  3  1  0
  2  9  1  0
  2 10  1  0
  3  4  1  0
  4  5  1  0
  4 11  1  0
  4 12  1  0
  5  6  1  0
  6 13  1  0
  6 14  1  0
M  END
>  <reaction>  (3) 
rmg_rxn_259

>  <mol_properties>  (3) 
{"0": {"label": "acceptor", "atom_type": "Cs"}, "13": {"label": "a_hydrogen", "atom_type": "H0"}}

>  <type>  (3) 
r2h

$$$$

     RDKit          3D

 28 27  0  0  0  0  0  0  0  0999 V2000
   -1.0049   -0.7171    0.7416 C   0  0  0  0  0  3  0  0  0  0  0  0
   -2.0294   -0.2462   -0.2562 C   0  0  0  0  0  0  0  0  0  0  0  0
   -3.2095   -1.2154   -0.2426 C   0  0  0  0  0  0  0  0  0  0  0  0
   -2.7458   -2.5448   -0.3899 O   0  0  0  0  0  0  0  0  0  0  0  0
   -1.8379   -2.8784    0.6080 C   0  0  0  0  0  0  0  0  0  0  0  0
   -0.6900   -2.0661    0.5902 O   0  0  0  0  0  0  0  0  0  0  0  0
   -1.2169   -0.4552    1.7850 H   0  0  0  0  0  0  0  0  0  0  0  0
   -2.3549    0.7681   -0.0210 H   0  0  0  0  0  0  0  0  0  0  0  0
   -1.5880   -0.2367   -1.2558 H   0  0  0  0  0  0  0  0  0  0  0  0
   -3.7672   -1.1222    0.7007 H   0  0  0  0  0  0  0  0  0  0  0  0
   -3.8952   -1.0297   -1.0683 H   0  0  0  0  0  0  0  0  0  0  0  0
   -2.3206   -2.7962    1.5971 H   0  0  0  0  0  0  0  0  0  0  0  0
   -1.5084   -3.8987    0.4254 H   0  0  0  0  0  0  0  0  0  0  0  0
    1.6321   -0.4012   -1.2212 C   0  0  0  0  0  0  0  0  0  0  0  0
    1.3051    0.4121    0.0023 C   0  0  0  0  0  0  0  0  0  0  0  0
    0.8980    2.1329   -0.2278 S   0  0  0  0  0  0  0  0  0  0  0  0
    2.3165    2.7513   -1.1788 C   0  0  0  0  0  0  0  0  0  0  0  0
    3.6444    2.6671   -0.4464 C   0  0  0  0  0  0  0  0  0  0  0  0
    2.6164   -0.1473   -1.6271 H   0  0  0  0  0  0  0  0  0  0  0  0
    1.6387   -1.4639   -0.9723 H   0  0  0  0  0  0  0  0  0  0  0  0
    0.8936   -0.2375   -2.0080 H   0  0  0  0  0  0  0  0  0  0  0  0
    0.1549   -0.0825    0.4552 H   0  0  0  0  0  0  0  0  0  0  0  0
    1.9774    0.2401    0.8421 H   0  0  0  0  0  0  0  0  0  0  0  0
    2.3599    2.2253   -2.1337 H   0  0  0  0  0  0  0  0  0  0  0  0
    2.0581    3.7890   -1.3968 H   0  0  0  0  0  0  0  0  0  0  0  0
    3.9064    1.6312   -0.2241 H   0  0  0  0  0  0  0  0  0  0  0  0
    3.6040    3.2136    0.4964 H   0  0  0  0  0  0  0  0  0  0  0  0
    4.4449    3.0893   -1.0583 H   0  0  0  0  0  0  0  0  0  0  0  0
  1  2  1  0
  1  6  1  0
  1  7  1  0
  2  3  1  0
  2  8  1  0
  2  9  1  0
  3  4  1  0
  3 10  1  0
  3 11  1  0
  4  5  1  0
  5  6  1  0
  5 12  1  0
  5 13  1  0
 14 15  1  0
 14 19  1  0
 14 20  1  0
 14 21  1  0
 15 16  1  0
 15 22  1  0
 15 23  1  0
 16 17  1  0
 17 18  1  0
 17 24  1  0
 17 25  1  0
 18 26  1  0
 18 27  1  0
 18 28  1  0
M  RAD  1   1   2
M  END
>  <reaction>  (4) 
rmg_rxn_259

>  <mol_properties>  (4) 
{"0": {"label": "*3", "atom_type": "Cs"}, "5": {"label": "*4", "atom_type": "O2s"}, "14": {"label": "*1", "atom_type": "Cs"}, "15": {"label": "*0", "atom_type": "S2s"}, "21": {"label": "*2", "atom_type": "H0"}}

>  <type>  (4) 
ts

$$$$
