
     RDKit          3D

  9  8  0  0  0  0  0  0  0  0999 V2000
   -1.5470   -0.0755   -0.1976 C   0  0  0  0  0  0  0  0  0  0  0  0
   -0.2885    0.4507    0.1749 O   0  0  0  0  0  0  0  0  0  0  0  0
   -0.1502    1.7216   -0.3294 N   0  0  0  0  0  0  0  0  0  0  0  0
    0.9626    2.2353   -0.0219 C   0  0  0  0  0  0  0  0  0  0  0  0
   -1.6392   -0.1356   -1.2844 H   0  0  0  0  0  0  0  0  0  0  0  0
   -2.3597    0.5337    0.2044 H   0  0  0  0  0  0  0  0  0  0  0  0
   -1.5879   -1.0750    0.2318 H   0  0  0  0  0  0  0  0  0  0  0  0
    1.1497    3.2381   -0.3820 H   0  0  0  0  0  0  0  0  0  0  0  0
    1.7060    1.7101    0.5739 H   0  0  0  0  0  0  0  0  0  0  0  0
  1  2  1  0
  1  5  1  0
  1  6  1  0
  1  7  1  0
  2  3  1  0
  3  4  2  3
  4  8  1  0
  4  9  1  0
M  END
>  <reaction>  (1) 
rmg_rxn_15644

>  <mol_properties>  (1) 
{"0": {"label": "donator", "atom_type": "Cs"}, "4": {"label": "d_hydrogen", "atom_type": "H0"}}

>  <type>  (1) 
r1h

$$$$

     RDKit          3D

 13 12  0  0  0  0  0  0  0  0999 V2000
    2.4430   -0.3849    0.0540 C   0  0  0  0  0  0  0  0  0  0  0  0
    1.2567   -0.6322    0.5818 C   0  0  0  0  0  0  0  0  0  0  0  0
    0.0753    0.2775    0.5273 C   0  0  0  0  0  0  0  0  0  0  0  0
    0.3842    1.4616   -0.1714 O   0  0  0  0  0  0  0  0  0  0  0  0
   -0.6866    2.3343   -0.3126 C   0  0  0  0  0  0  0  0  0  0  0  0
   -1.2216    2.8361    0.7984 O   0  0  0  0  0  1  0  0  0  0  0  0
    3.2507   -1.0998    0.1431 H   0  0  0  0  0  0  0  0  0  0  0  0
    2.6411    0.5367   -0.4774 H   0  0  0  0  0  0  0  0  0  0  0  0
    1.0785   -1.5620    1.1139 H   0  0  0  0  0  0  0  0  0  0  0  0
   -0.2540    0.5126    1.5468 H   0  0  0  0  0  0  0  0  0  0  0  0
   -0.7614   -0.2409    0.0324 H   0  0  0  0  0  0  0  0  0  0  0  0
   -1.5299    1.8457   -0.8558 H   0  0  0  0  0  0  0  0  0  0  0  0
   -0.3398    3.1546   -0.9632 H   0  0  0  0  0  0  0  0  0  0  0  0
  1  2  2  3
  1  7  1  0
  1  8  1  0
  2  3  1  0
  2  9  1  0
  3  4  1  0
  3 10  1  0
  3 11  1  0
  4  5  1  0
  5  6  1  0
  5 12  1  0
  5 13  1  0
M  RAD  1   6   2
M  END
>  <reaction>  (2) 
rmg_rxn_15644

>  <mol_properties>  (2) 
{"5": {"label": "acceptor", "atom_type": "O2s"}}

>  <type>  (2) 
r2

$$$$

     RDKit          3D

 14 13  0  0  0  0  0  0  0  0999 V2000
   -2.6591   -0.0450    0.7000 C   0  0  0  0  0  0  0  0  0  0  0  0
   -1.3737    0.0499    0.9953 C   0  0  0  0  0  0  0  0  0  0  0  0
   -0.2409   -0.3751    0.1081 C   0  0  0  0  0  0  0  0  0  0  0  0
   -0.6541   -1.0253   -1.0741 O   0  0  0  0  0  0  0  0  0  0  0  0
   -0.8556   -2.4003   -0.9287 C   0  0  0  0  0  0  0  0  0  0  0  0
    0.3393   -3.1125   -0.7901 O   0  0  0  0  0  0  0  0  0  0  0  0
   -2.9891   -0.4550   -0.2467 H   0  0  0  0  0  0  0  0  0  0  0  0
   -3.4198    0.2910    1.3925 H   0  0  0  0  0  0  0  0  0  0  0  0
   -1.0669    0.4739    1.9478 H   0  0  0  0  0  0  0  0  0  0  0  0
    0.4535   -1.0117    0.6689 H   0  0  0  0  0  0  0  0  0  0  0  0
    0.3247    0.5078   -0.2023 H   0  0  0  0  0  0  0  0  0  0  0  0
   -1.4079   -2.7062   -1.8216 H   0  0  0  0  0  0  0  0  0  0  0  0
   -1.4388   -2.6266   -0.0318 H   0  0  0  0  0  0  0  0  0  0  0  0
    0.8543   -2.9921   -1.5911 H   0  0  0  0  0  0  0  0  0  0  0  0
  1  2  2  3
  1  7  1  0
  1  8  1  0
  2  3  1  0
  2  9  1  0
  3  4  1  0
  3 10  1  0
  3 11  1  0
  4  5  1  0
  5  6  1  0
  5 12  1  0
  5 13  1  0
  6 14  1  0
M  END
>  <reaction>  (3) 
rmg_rxn_15644

>  <mol_properties>  (3) 
{"0": {"label": "a_hydrogen", "atom_type": "H0"}, "6": {"label": "acceptor", "atom_type": "O2s"}}

>  <type>  (3) 
r2h

$$$$

     RDKit          3D

 22 20  0  0  0  0  0  0  0  0999 V2000
   -1.5628    2.0962    0.8862 C   0  0  0  0  0  0  0  0  0  0  0  0
   -1.4440    2.0040   -0.4821 O   0  0  0  0  0  0  0  0  0  0  0  0
   -2.2163    0.9584   -0.9743 N   0  0  0  0  0  0  0  0  0  0  0  0
   -1.8273    0.6113   -2.1230 C   0  0  0  0  0  0  0  0  0  0  0  0
   -0.7647    1.3275    1.4170 H   0  0  0  0  0  0  0  0  0  0  0  0
   -2.5441    1.7906    1.2490 H   0  0  0  0  0  0  0  0  0  0  0  0
   -1.2561    3.0932    1.1961 H   0  0  0  0  0  0  0  0  0  0  0  0
   -2.3904   -0.1794   -2.6012 H   0  0  0  0  0  0  0  0  0  0  0  0
   -0.9717    1.0630   -2.6170 H   0  0  0  0  0  0  0  0  0  0  0  0
    2.8372   -2.2601   -0.4389 C   0  0  0  0  0  0  0  0  0  0  0  0
    1.7168   -2.6545    0.1429 C   0  0  0  0  0  0  0  0  0  0  0  0
    0.4609   -1.8411    0.2572 C   0  0  0  0  0  0  0  0  0  0  0  0
    0.5906   -0.5216   -0.2154 O   0  0  0  0  0  0  0  0  0  0  0  0
    1.0596    0.3928    0.7442 C   0  0  0  0  0  0  0  0  0  0  0  0
    0.2414    0.5642    1.8210 O   0  0  0  0  0  1  0  0  0  0  0  0
    3.7035   -2.9071   -0.4862 H   0  0  0  0  0  0  0  0  0  0  0  0
    2.9180   -1.2792   -0.8916 H   0  0  0  0  0  0  0  0  0  0  0  0
    1.6559   -3.6469    0.5820 H   0  0  0  0  0  0  0  0  0  0  0  0
    0.1108   -1.8390    1.2959 H   0  0  0  0  0  0  0  0  0  0  0  0
   -0.3300   -2.3116   -0.3341 H   0  0  0  0  0  0  0  0  0  0  0  0
    1.2205    1.3237    0.1870 H   0  0  0  0  0  0  0  0  0  0  0  0
    2.0255    0.0568    1.1578 H   0  0  0  0  0  0  0  0  0  0  0  0
  1  2  1  0
  1  5  1  0
  1  6  1  0
  1  7  1  0
  2  3  1  0
  3  4  2  3
  4  8  1  0
  4  9  1  0
 10 11  2  3
 10 16  1  0
 10 17  1  0
 11 12  1  0
 11 18  1  0
 12 13  1  0
 12 19  1  0
 12 20  1  0
 13 14  1  0
 14 15  1  0
 14 21  1  0
 14 22  1  0
M  RAD  1  15   2
M  END
>  <reaction>  (4) 
rmg_rxn_15644

>  <mol_properties>  (4) 
{"0": {"label": "*1", "atom_type": "Cs"}, "1": {"label": "*0", "atom_type": "O2s"}, "4": {"label": "*2", "atom_type": "H0"}, "13": {"label": "*4", "atom_type": "Cs"}, "14": {"label": "*3", "atom_type": "O2s"}}

>  <type>  (4) 
ts

$$$$
