
     RDKit          3D

 10  9  0  0  0  0  0  0  0  0999 V2000
   -1.1238    0.2714    0.2496 C   0  0  0  0  0  0  0  0  0  0  0  0
    0.0881   -0.5850   -0.0680 C   0  0  0  0  0  0  0  0  0  0  0  0
   -0.0512   -1.4242   -1.3070 C   0  0  0  0  0  0  0  0  0  0  0  0
   -1.0187   -1.4480   -2.0158 O   0  0  0  0  0  0  0  0  0  0  0  0
   -2.0096   -0.3470    0.3939 H   0  0  0  0  0  0  0  0  0  0  0  0
   -0.9564    0.8523    1.1567 H   0  0  0  0  0  0  0  0  0  0  0  0
   -1.3376    0.9606   -0.5673 H   0  0  0  0  0  0  0  0  0  0  0  0
    0.3267   -1.2715    0.7528 H   0  0  0  0  0  0  0  0  0  0  0  0
    0.9917    0.0222   -0.1983 H   0  0  0  0  0  0  0  0  0  0  0  0
    0.8330   -2.0534   -1.5447 H   0  0  0  0  0  0  0  0  0  0  0  0
  1  2  1  0
  1  5  1  0
  1  6  1  0
  1  7  1  0
  2  3  1  0
  2  8  1  0
  2  9  1  0
  3  4  2  0
  3 10  1  0
M  END
>  <reaction>  (1) 
rmg_rxn_15504

>  <mol_properties>  (1) 
{"1": {"label": "donator", "atom_type": "Cs"}, "7": {"label": "d_hydrogen", "atom_type": "H0"}}

>  <type>  (1) 
r1h

$$$$

     RDKit          3D

  5  4  0  0  0  0  0  0  0  0999 V2000
    0.8934    0.3742    0.4948 O   0  0  0  0  0  0  0  0  0  0  0  0
    0.1582   -0.1610   -0.5904 N   0  0  0  0  0  0  0  0  0  0  0  0
   -1.0297   -0.3739   -0.4689 C   0  0  0  0  0  3  0  0  0  0  0  0
    1.7804    0.4382    0.1306 H   0  0  0  0  0  0  0  0  0  0  0  0
   -1.8023   -0.2775    0.2859 H   0  0  0  0  0  0  0  0  0  0  0  0
  1  2  1  0
  1  4  1  0
  2  3  2  3
  3  5  1  0
M  RAD  1   3   2
M  END
>  <reaction>  (2) 
rmg_rxn_15504

>  <mol_properties>  (2) 
{"2": {"label": "acceptor", "atom_type": "Cd"}}

>  <type>  (2) 
r2

$$$$

     RDKit          3D

  6  5  0  0  0  0  0  0  0  0999 V2000
    1.2314    0.0428    0.5088 O   0  0  0  0  0  0  0  0  0  0  0  0
    0.2987    0.2341   -0.4915 N   0  0  0  0  0  0  0  0  0  0  0  0
   -0.8599   -0.1122   -0.1290 C   0  0  0  0  0  0  0  0  0  0  0  0
    2.0507    0.3401    0.1082 H   0  0  0  0  0  0  0  0  0  0  0  0
   -1.0700   -0.5112    0.8610 H   0  0  0  0  0  0  0  0  0  0  0  0
   -1.6509    0.0064   -0.8574 H   0  0  0  0  0  0  0  0  0  0  0  0
  1  2  1  0
  1  4  1  0
  2  3  2  3
  3  5  1  0
  3  6  1  0
M  END
>  <reaction>  (3) 
rmg_rxn_15504

>  <mol_properties>  (3) 
{"2": {"label": "acceptor", "atom_type": "Cd"}, "5": {"label": "a_hydrogen", "atom_type": "H0"}}

>  <type>  (3) 
r2h

$$$$

     RDKit          3D

 15 13  0  0  0  0  0  0  0  0999 V2000
    2.4667   -2.3511    0.3886 O   0  0  0  0  0  0  0  0  0  0  0  0
    1.2658   -1.7125    0.0722 N   0  0  0  0  0  0  0  0  0  0  0  0
    0.9417   -0.7916    0.8316 C   0  0  0  0  0  3  0  0  0  0  0  0
    2.5458   -3.0129   -0.3030 H   0  0  0  0  0  0  0  0  0  0  0  0
    1.4418   -0.3893    1.7110 H   0  0  0  0  0  0  0  0  0  0  0  0
   -1.0799    0.3212   -1.6001 C   0  0  0  0  0  0  0  0  0  0  0  0
   -1.3562    0.2862   -0.1199 C   0  0  0  0  0  0  0  0  0  0  0  0
   -1.5791    1.5836    0.5615 C   0  0  0  0  0  0  0  0  0  0  0  0
   -1.3311    2.6598    0.0811 O   0  0  0  0  0  0  0  0  0  0  0  0
   -0.3254    1.0718   -1.8325 H   0  0  0  0  0  0  0  0  0  0  0  0
   -0.7274   -0.6513   -1.9440 H   0  0  0  0  0  0  0  0  0  0  0  0
   -1.9845    0.5774   -2.1559 H   0  0  0  0  0  0  0  0  0  0  0  0
   -0.3257   -0.1442    0.4231 H   0  0  0  0  0  0  0  0  0  0  0  0
   -2.0867   -0.4616    0.1936 H   0  0  0  0  0  0  0  0  0  0  0  0
   -1.9711    1.5099    1.5971 H   0  0  0  0  0  0  0  0  0  0  0  0
  1  2  1  0
  1  4  1  0
  2  3  2  3
  3  5  1  0
  6  7  1  0
  6 10  1  0
  6 11  1  0
  6 12  1  0
  7  8  1  0
  7 13  1  0
  7 14  1  0
  8  9  2  0
  8 15  1  0
M  RAD  1   3   2
M  END
>  <reaction>  (4) 
rmg_rxn_15504

>  <mol_properties>  (4) 
{"1": {"label": "*4", "atom_type": "N3d"}, "2": {"label": "*3", "atom_type": "Cd"}, "6": {"label": "*1", "atom_type": "Cs"}, "7": {"label": "*0", "atom_type": "CO"}, "12": {"label": "*2", "atom_type": "H0"}}

>  <type>  (4) 
ts

$$$$
