
     RDKit          3D

  8  7  0  0  0  0  0  0  0  0999 V2000
    0.0000    0.0000    0.7560 C   0  0  0  0  0  0  0  0  0  0  0  0
    0.0000    0.0000   -0.7560 C   0  0  0  0  0  0  0  0  0  0  0  0
    1.0243    0.0000    1.1404 H   0  0  0  0  0  0  0  0  0  0  0  0
   -0.5122    0.8871    1.1404 H   0  0  0  0  0  0  0  0  0  0  0  0
   -0.5122   -0.8871    1.1404 H   0  0  0  0  0  0  0  0  0  0  0  0
    0.5122   -0.8871   -1.1404 H   0  0  0  0  0  0  0  0  0  0  0  0
    0.5122    0.8871   -1.1404 H   0  0  0  0  0  0  0  0  0  0  0  0
   -1.0243    0.0000   -1.1404 H   0  0  0  0  0  0  0  0  0  0  0  0
  1  2  1  0
  1  3  1  0
  1  4  1  0
  1  5  1  0
  2  6  1  0
  2  7  1  0
  2  8  1  0
M  END
>  <reaction>  (1) 
rmg_rxn_16796

>  <mol_properties>  (1) 
{"1": {"label": "donator", "atom_type": "Cs"}, "5": {"label": "d_hydrogen", "atom_type": "H0"}}

>  <type>  (1) 
r1h

$$$$

     RDKit          3D

  7  6  0  0  0  0  0  0  0  0999 V2000
   -1.2010    0.1038   -0.0002 C   0  0  0  0  0  0  0  0  0  0  0  0
    0.1886   -0.4250   -0.0003 C   0  0  0  0  0  3  0  0  0  0  0  0
    1.3309    0.0272    0.0001 N   0  0  0  0  0  0  0  0  0  0  0  0
   -1.7355   -0.2512    0.8930 H   0  0  0  0  0  0  0  0  0  0  0  0
   -1.2181    1.2094   -0.0132 H   0  0  0  0  0  0  0  0  0  0  0  0
   -1.7468   -0.2736   -0.8772 H   0  0  0  0  0  0  0  0  0  0  0  0
    1.4589    1.0518   -0.0003 H   0  0  0  0  0  0  0  0  0  0  0  0
  1  2  1  0
  1  4  1  0
  1  5  1  0
  1  6  1  0
  2  3  2  3
  3  7  1  0
M  RAD  1   2   2
M  END
>  <reaction>  (2) 
rmg_rxn_16796

>  <mol_properties>  (2) 
{"2": {"label": "acceptor", "atom_type": "Cd"}}

>  <type>  (2) 
r2

$$$$

     RDKit          3D

  8  7  0  0  0  0  0  0  0  0999 V2000
    1.2099   -0.1388    0.0025 C   0  0  0  0  0  0  0  0  0  0  0  0
   -0.1788    0.4141    0.0007 C   0  0  0  0  0  0  0  0  0  0  0  0
   -1.2100   -0.3603    0.0013 N   0  0  0  0  0  0  0  0  0  0  0  0
    1.7355    0.2223   -0.8851 H   0  0  0  0  0  0  0  0  0  0  0  0
    1.7521    0.1663    0.9007 H   0  0  0  0  0  0  0  0  0  0  0  0
    1.1564   -1.2296   -0.0424 H   0  0  0  0  0  0  0  0  0  0  0  0
   -0.2911    1.5112   -0.0010 H   0  0  0  0  0  0  0  0  0  0  0  0
   -2.0699    0.2005   -0.0002 H   0  0  0  0  0  0  0  0  0  0  0  0
  1  2  1  0
  1  4  1  0
  1  5  1  0
  1  6  1  0
  2  3  2  3
  2  7  1  0
  3  8  1  0
M  END
>  <reaction>  (3) 
rmg_rxn_16796

>  <mol_properties>  (3) 
{"2": {"label": "acceptor", "atom_type": "Cd"}, "6": {"label": "a_hydrogen", "atom_type": "H0"}}

>  <type>  (3) 
r2h

$$$$

     RDKit          3D

 15 13  0  0  0  0  0  0  0  0999 V2000
   -1.0637    1.4244   -0.0117 N   0  0  0  0  0  0  0  0  0  0  0  0
   -2.1753   -0.7522    0.0145 C   0  0  0  0  0  0  0  0  0  0  0  0
    2.3539    0.3037    0.0220 C   0  0  0  0  0  0  0  0  0  0  0  0
   -1.0010    0.1700   -0.0050 C   0  0  0  0  0  0  0  0  0  0  0  0
    1.4835   -0.9243   -0.0231 C   0  0  0  0  0  3  0  0  0  0  0  0
   -2.1298   -1.4008    0.9030 H   0  0  0  0  0  0  0  0  0  0  0  0
   -3.1167   -0.1833    0.0217 H   0  0  0  0  0  0  0  0  0  0  0  0
   -2.1495   -1.4116   -0.8668 H   0  0  0  0  0  0  0  0  0  0  0  0
    3.4288    0.0496    0.0147 H   0  0  0  0  0  0  0  0  0  0  0  0
    2.1758    0.9573   -0.8473 H   0  0  0  0  0  0  0  0  0  0  0  0
    2.1721    0.8946    0.9342 H   0  0  0  0  0  0  0  0  0  0  0  0
    0.1648   -0.4435   -0.0143 H   0  0  0  0  0  0  0  0  0  0  0  0
    1.5380   -1.5059   -0.9533 H   0  0  0  0  0  0  0  0  0  0  0  0
    1.5297   -1.5687    0.8651 H   0  0  0  0  0  0  0  0  0  0  0  0
   -0.1340    1.8571   -0.0246 H   0  0  0  0  0  0  0  0  0  0  0  0
  1  4  2  3
  1 15  1  0
  2  4  1  0
  2  6  1  0
  2  7  1  0
  2  8  1  0
  3  5  1  0
  3  9  1  0
  3 10  1  0
  3 11  1  0
  4 12  1  0
  5 13  1  0
  5 14  1  0
M  RAD  1   5   2
M  END
>  <reaction>  (4) 
rmg_rxn_16796

>  <mol_properties>  (4) 
{"0": {"label": "*0", "atom_type": "N3d"}, "2": {"label": "*4", "atom_type": "Cs"}, "3": {"label": "*1", "atom_type": "Cd"}, "4": {"label": "*3", "atom_type": "Cs"}, "11": {"label": "*2", "atom_type": "H0"}}

>  <type>  (4) 
ts

$$$$
