
     RDKit          3D

  9  8  0  0  0  0  0  0  0  0999 V2000
   -1.0314    0.2323   -0.1227 C   0  0  0  0  0  0  0  0  0  0  0  0
    0.3094   -0.4511    0.0063 C   0  0  0  0  0  0  0  0  0  0  0  0
    0.3197   -1.7698    0.6841 N   0  0  0  0  0  0  0  0  0  0  0  0
   -0.7498   -2.1455    1.0557 O   0  0  0  0  0  0  0  0  0  0  0  0
   -1.4744    0.4198    0.8552 H   0  0  0  0  0  0  0  0  0  0  0  0
   -0.9073    1.1865   -0.6350 H   0  0  0  0  0  0  0  0  0  0  0  0
   -1.7319   -0.3778   -0.6927 H   0  0  0  0  0  0  0  0  0  0  0  0
    1.0375    0.1401    0.5713 H   0  0  0  0  0  0  0  0  0  0  0  0
    0.7826   -0.6494   -0.9609 H   0  0  0  0  0  0  0  0  0  0  0  0
  1  2  1  0
  1  5  1  0
  1  6  1  0
  1  7  1  0
  2  3  1  0
  2  8  1  0
  2  9  1  0
  3  4  2  0
M  END
>  <reaction>  (1) 
rmg_rxn_1486

>  <mol_properties>  (1) 
{"1": {"label": "donator", "atom_type": "Cs"}, "7": {"label": "d_hydrogen", "atom_type": "H0"}}

>  <type>  (1) 
r1h

$$$$

     RDKit          3D

  4  3  0  0  0  0  0  0  0  0999 V2000
   -0.8019    0.4189    0.0192 N   0  0  0  0  0  0  0  0  0  0  0  0
    0.3609    0.8266    0.0061 N   0  0  0  0  0  0  0  0  0  0  0  0
    0.8339    1.9183    0.0142 O   0  0  0  0  0  1  0  0  0  0  0  0
   -0.7779   -0.6002    0.0040 H   0  0  0  0  0  0  0  0  0  0  0  0
  1  2  2  3
  1  4  1  0
  2  3  1  0
M  RAD  1   3   2
M  END
>  <reaction>  (2) 
rmg_rxn_1486

>  <mol_properties>  (2) 
{"0": {"label": "acceptor", "atom_type": "N3s"}}

>  <type>  (2) 
r2

$$$$

     RDKit          3D

  5  4  0  0  0  0  0  0  0  0999 V2000
   -0.4583    0.0384    0.1517 N   0  0  0  0  0  0  0  0  0  0  0  0
    0.7454   -0.3487    0.5322 N   0  0  0  0  0  0  0  0  0  0  0  0
    0.7566   -1.0388    1.5193 O   0  0  0  0  0  0  0  0  0  0  0  0
   -1.2688   -0.2521    0.6850 H   0  0  0  0  0  0  0  0  0  0  0  0
   -0.5137    0.6154   -0.6670 H   0  0  0  0  0  0  0  0  0  0  0  0
  1  2  1  0
  1  4  1  0
  1  5  1  0
  2  3  2  0
M  END
>  <reaction>  (3) 
rmg_rxn_1486

>  <mol_properties>  (3) 
{"0": {"label": "acceptor", "atom_type": "N3s"}, "4": {"label": "a_hydrogen", "atom_type": "H0"}}

>  <type>  (3) 
r2h

$$$$

     RDKit          3D

 13 11  0  0  0  0  0  0  0  0999 V2000
    1.1408   -1.1006    0.2454 N   0  0  0  0  0  0  0  0  0  0  0  0
    0.7155   -0.7703    1.3822 N   0  0  0  0  0  0  0  0  0  0  0  0
    1.2997   -0.9114    2.4320 O   0  0  0  0  0  1  0  0  0  0  0  0
    2.0627   -1.5358    0.2371 H   0  0  0  0  0  0  0  0  0  0  0  0
   -1.3402    0.7621   -1.7259 C   0  0  0  0  0  0  0  0  0  0  0  0
   -1.1502   -0.2320   -0.6083 C   0  0  0  0  0  0  0  0  0  0  0  0
   -1.1934    0.2549    0.6797 N   0  0  0  0  0  0  0  0  0  0  0  0
   -1.1822    1.3932    1.0008 O   0  0  0  0  0  0  0  0  0  0  0  0
   -0.5908    1.5524   -1.6711 H   0  0  0  0  0  0  0  0  0  0  0  0
   -1.2317    0.2513   -2.6819 H   0  0  0  0  0  0  0  0  0  0  0  0
   -2.3269    1.2293   -1.6931 H   0  0  0  0  0  0  0  0  0  0  0  0
    0.0666   -0.7046   -0.5112 H   0  0  0  0  0  0  0  0  0  0  0  0
   -1.6963   -1.1723   -0.6528 H   0  0  0  0  0  0  0  0  0  0  0  0
  1  2  2  3
  1  4  1  0
  2  3  1  0
  5  6  1  0
  5  9  1  0
  5 10  1  0
  5 11  1  0
  6  7  1  0
  6 12  1  0
  6 13  1  0
  7  8  2  0
M  RAD  1   3   2
M  END
>  <reaction>  (4) 
rmg_rxn_1486

>  <mol_properties>  (4) 
{"0": {"label": "*3", "atom_type": "N3d"}, "1": {"label": "*4", "atom_type": "N3d"}, "5": {"label": "*1", "atom_type": "Cs"}, "6": {"label": "*0", "atom_type": "N3d"}, "11": {"label": "*2", "atom_type": "H0"}}

>  <type>  (4) 
ts

$$$$
