
     RDKit          3D

  9  8  0  0  0  0  0  0  0  0999 V2000
   -1.5470   -0.0755   -0.1976 C   0  0  0  0  0  0  0  0  0  0  0  0
   -0.2885    0.4507    0.1749 O   0  0  0  0  0  0  0  0  0  0  0  0
   -0.1502    1.7216   -0.3294 N   0  0  0  0  0  0  0  0  0  0  0  0
    0.9626    2.2353   -0.0219 C   0  0  0  0  0  0  0  0  0  0  0  0
   -1.6392   -0.1356   -1.2844 H   0  0  0  0  0  0  0  0  0  0  0  0
   -2.3597    0.5337    0.2044 H   0  0  0  0  0  0  0  0  0  0  0  0
   -1.5879   -1.0750    0.2318 H   0  0  0  0  0  0  0  0  0  0  0  0
    1.1497    3.2381   -0.3820 H   0  0  0  0  0  0  0  0  0  0  0  0
    1.7060    1.7101    0.5739 H   0  0  0  0  0  0  0  0  0  0  0  0
  1  2  1  0
  1  5  1  0
  1  6  1  0
  1  7  1  0
  2  3  1  0
  3  4  2  3
  4  8  1  0
  4  9  1  0
M  END
>  <reaction>  (1) 
rmg_rxn_15602

>  <mol_properties>  (1) 
{"0": {"label": "donator", "atom_type": "Cs"}, "4": {"label": "d_hydrogen", "atom_type": "H0"}}

>  <type>  (1) 
r1h

$$$$

     RDKit          3D

 13 12  0  0  0  0  0  0  0  0999 V2000
    2.0654   -0.2739   -0.0844 C   0  0  0  0  0  3  0  0  0  0  0  0
    0.6326   -0.4110   -0.4406 C   0  0  0  0  0  0  0  0  0  0  0  0
   -0.3055    0.4151    0.4359 C   0  0  0  0  0  0  0  0  0  0  0  0
   -1.7714    0.2357    0.0671 C   0  0  0  0  0  0  0  0  0  0  0  0
    2.3610    0.0676    0.8995 H   0  0  0  0  0  0  0  0  0  0  0  0
    2.8408   -0.6127   -0.7582 H   0  0  0  0  0  0  0  0  0  0  0  0
    0.3313   -1.4695   -0.3768 H   0  0  0  0  0  0  0  0  0  0  0  0
    0.4826   -0.1432   -1.4940 H   0  0  0  0  0  0  0  0  0  0  0  0
   -0.1518    0.1351    1.4826 H   0  0  0  0  0  0  0  0  0  0  0  0
   -0.0303    1.4705    0.3565 H   0  0  0  0  0  0  0  0  0  0  0  0
   -2.0768   -0.8084    0.1692 H   0  0  0  0  0  0  0  0  0  0  0  0
   -1.9546    0.5339   -0.9679 H   0  0  0  0  0  0  0  0  0  0  0  0
   -2.4194    0.8370    0.7066 H   0  0  0  0  0  0  0  0  0  0  0  0
  1  2  1  0
  1  5  1  0
  1  6  1  0
  2  3  1  0
  2  7  1  0
  2  8  1  0
  3  4  1  0
  3  9  1  0
  3 10  1  0
  4 11  1  0
  4 12  1  0
  4 13  1  0
M  RAD  1   1   2
M  END
>  <reaction>  (2) 
rmg_rxn_15602

>  <mol_properties>  (2) 
{"0": {"label": "acceptor", "atom_type": "Cs"}}

>  <type>  (2) 
r2

$$$$

     RDKit          3D

 14 13  0  0  0  0  0  0  0  0999 V2000
    1.8106   -0.5953    0.5577 C   0  0  0  0  0  0  0  0  0  0  0  0
    0.5197    0.2064    0.6554 C   0  0  0  0  0  0  0  0  0  0  0  0
   -0.5206   -0.2080   -0.3788 C   0  0  0  0  0  0  0  0  0  0  0  0
   -1.8114    0.5937   -0.2812 C   0  0  0  0  0  0  0  0  0  0  0  0
    2.2725   -0.4752   -0.4251 H   0  0  0  0  0  0  0  0  0  0  0  0
    1.6214   -1.6612    0.7052 H   0  0  0  0  0  0  0  0  0  0  0  0
    2.5364   -0.2784    1.3084 H   0  0  0  0  0  0  0  0  0  0  0  0
    0.0930    0.0950    1.6574 H   0  0  0  0  0  0  0  0  0  0  0  0
    0.7393    1.2723    0.5354 H   0  0  0  0  0  0  0  0  0  0  0  0
   -0.7402   -1.2739   -0.2588 H   0  0  0  0  0  0  0  0  0  0  0  0
   -0.0938   -0.0965   -1.3808 H   0  0  0  0  0  0  0  0  0  0  0  0
   -1.6222    1.6596   -0.4287 H   0  0  0  0  0  0  0  0  0  0  0  0
   -2.2734    0.4736    0.7017 H   0  0  0  0  0  0  0  0  0  0  0  0
   -2.5373    0.2768   -1.0318 H   0  0  0  0  0  0  0  0  0  0  0  0
  1  2  1  0
  1  5  1  0
  1  6  1  0
  1  7  1  0
  2  3  1  0
  2  8  1  0
  2  9  1  0
  3  4  1  0
  3 10  1  0
  3 11  1  0
  4 12  1  0
  4 13  1  0
  4 14  1  0
M  END
>  <reaction>  (3) 
rmg_rxn_15602

>  <mol_properties>  (3) 
{"0": {"label": "a_hydrogen", "atom_type": "H0"}, "1": {"label": "acceptor", "atom_type": "Cs"}}

>  <type>  (3) 
r2h

$$$$

     RDKit          3D

 22 20  0  0  0  0  0  0  0  0999 V2000
   -1.4681    1.4277   -0.6162 C   0  0  0  0  0  0  0  0  0  0  0  0
   -1.9059    0.4070    0.2238 O   0  0  0  0  0  0  0  0  0  0  0  0
   -1.4960   -0.8223   -0.2386 N   0  0  0  0  0  0  0  0  0  0  0  0
   -1.7595   -1.7468    0.5819 C   0  0  0  0  0  0  0  0  0  0  0  0
   -0.2130    1.7440   -0.2902 H   0  0  0  0  0  0  0  0  0  0  0  0
   -2.0610    2.3147   -0.4064 H   0  0  0  0  0  0  0  0  0  0  0  0
   -1.4606    1.1346   -1.6651 H   0  0  0  0  0  0  0  0  0  0  0  0
   -1.4822   -2.7490    0.2839 H   0  0  0  0  0  0  0  0  0  0  0  0
   -2.2421   -1.5625    1.5389 H   0  0  0  0  0  0  0  0  0  0  0  0
    1.0483    1.9747    0.1920 C   0  0  0  0  0  3  0  0  0  0  0  0
    1.5945    0.6328    0.6012 C   0  0  0  0  0  0  0  0  0  0  0  0
    1.8732   -0.2900   -0.5801 C   0  0  0  0  0  0  0  0  0  0  0  0
    2.3379   -1.6736   -0.1494 C   0  0  0  0  0  0  0  0  0  0  0  0
    1.5706    2.4512   -0.6377 H   0  0  0  0  0  0  0  0  0  0  0  0
    0.8666    2.6698    1.0100 H   0  0  0  0  0  0  0  0  0  0  0  0
    0.8867    0.1453    1.2811 H   0  0  0  0  0  0  0  0  0  0  0  0
    2.5190    0.7654    1.1791 H   0  0  0  0  0  0  0  0  0  0  0  0
    0.9639   -0.3843   -1.1792 H   0  0  0  0  0  0  0  0  0  0  0  0
    2.6284    0.1721   -1.2240 H   0  0  0  0  0  0  0  0  0  0  0  0
    2.5439   -2.3123   -1.0097 H   0  0  0  0  0  0  0  0  0  0  0  0
    1.5721   -2.1651    0.4561 H   0  0  0  0  0  0  0  0  0  0  0  0
    3.2490   -1.6165    0.4515 H   0  0  0  0  0  0  0  0  0  0  0  0
  1  2  1  0
  1  5  1  0
  1  6  1  0
  1  7  1  0
  2  3  1  0
  3  4  2  3
  4  8  1  0
  4  9  1  0
 10 11  1  0
 10 14  1  0
 10 15  1  0
 11 12  1  0
 11 16  1  0
 11 17  1  0
 12 13  1  0
 12 18  1  0
 12 19  1  0
 13 20  1  0
 13 21  1  0
 13 22  1  0
M  RAD  1  10   2
M  END
>  <reaction>  (4) 
rmg_rxn_15602

>  <mol_properties>  (4) 
{"0": {"label": "*1", "atom_type": "Cs"}, "1": {"label": "*0", "atom_type": "O2s"}, "4": {"label": "*2", "atom_type": "H0"}, "9": {"label": "*3", "atom_type": "Cs"}, "10": {"label": "*4", "atom_type": "Cs"}}

>  <type>  (4) 
ts

$$$$
