
     RDKit          3D

 13 12  0  0  0  0  0  0  0  0999 V2000
    1.9466    0.1090    0.9245 N   0  0  0  0  0  2  0  0  0  0  0  0
    1.4466   -0.6584   -0.0107 N   0  0  0  0  0  0  0  0  0  0  0  0
    0.1805   -0.8050   -0.2944 C   0  0  0  0  0  3  0  0  0  0  0  0
   -0.8545   -0.0639    0.4699 C   0  0  0  0  0  0  0  0  0  0  0  0
   -1.0896   -0.6293    1.8757 C   0  0  0  0  0  0  0  0  0  0  0  0
    2.9554    0.0279    0.8555 H   0  0  0  0  0  0  0  0  0  0  0  0
    2.0766   -1.2050   -0.5920 H   0  0  0  0  0  0  0  0  0  0  0  0
   -0.0468   -1.4951   -1.0924 H   0  0  0  0  0  0  0  0  0  0  0  0
   -1.7858   -0.0735   -0.0987 H   0  0  0  0  0  0  0  0  0  0  0  0
   -0.5293    0.9778    0.5630 H   0  0  0  0  0  0  0  0  0  0  0  0
   -0.1608   -0.6126    2.4456 H   0  0  0  0  0  0  0  0  0  0  0  0
   -1.4532   -1.6574    1.8281 H   0  0  0  0  0  0  0  0  0  0  0  0
   -1.8300   -0.0307    2.4087 H   0  0  0  0  0  0  0  0  0  0  0  0
  1  2  1  0
  1  6  1  0
  2  3  1  0
  2  7  1  0
  3  4  1  0
  3  8  1  0
  4  5  1  0
  4  9  1  0
  4 10  1  0
  5 11  1  0
  5 12  1  0
  5 13  1  0
M  CHG  2   1  -1   3   1
M  END
>  <reaction>  (1) 
rmg_rxn_16690

>  <mol_properties>  (1) 
{"0": {"label": "donator", "atom_type": "N1sc"}, "5": {"label": "d_hydrogen", "atom_type": "H0"}}

>  <type>  (1) 
r1h

$$$$

     RDKit          3D

  7  6  0  0  0  0  0  0  0  0999 V2000
   -0.8790   -0.0485   -0.1139 C   0  0  0  0  0  0  0  0  0  0  0  0
    0.2566    0.5075    0.6625 C   0  0  0  0  0  3  0  0  0  0  0  0
    1.4635    0.2854    0.5626 N   0  0  0  0  0  0  0  0  0  0  0  0
   -0.5287   -0.7543   -0.8725 H   0  0  0  0  0  0  0  0  0  0  0  0
   -1.5724   -0.5516    0.5613 H   0  0  0  0  0  0  0  0  0  0  0  0
   -1.4260    0.7636   -0.5947 H   0  0  0  0  0  0  0  0  0  0  0  0
    2.0849    0.7767    1.2004 H   0  0  0  0  0  0  0  0  0  0  0  0
  1  2  1  0
  1  4  1  0
  1  5  1  0
  1  6  1  0
  2  3  2  3
  3  7  1  0
M  RAD  1   2   2
M  END
>  <reaction>  (2) 
rmg_rxn_16690

>  <mol_properties>  (2) 
{"1": {"label": "acceptor", "atom_type": "Cd"}}

>  <type>  (2) 
r2

$$$$

     RDKit          3D

  8  7  0  0  0  0  0  0  0  0999 V2000
    0.9548    0.1194   -0.0790 C   0  0  0  0  0  0  0  0  0  0  0  0
   -0.4838   -0.2649    0.0193 C   0  0  0  0  0  0  0  0  0  0  0  0
   -0.8933   -1.1081    0.8664 N   0  0  0  0  0  0  0  0  0  0  0  0
    1.3360   -0.0983   -1.0800 H   0  0  0  0  0  0  0  0  0  0  0  0
    1.0698    1.1948    0.0786 H   0  0  0  0  0  0  0  0  0  0  0  0
    1.5426   -0.4219    0.6602 H   0  0  0  0  0  0  0  0  0  0  0  0
   -1.1575    0.2324   -0.6905 H   0  0  0  0  0  0  0  0  0  0  0  0
   -1.8989   -1.2455    0.7886 H   0  0  0  0  0  0  0  0  0  0  0  0
  1  2  1  0
  1  4  1  0
  1  5  1  0
  1  6  1  0
  2  3  2  3
  2  7  1  0
  3  8  1  0
M  END
>  <reaction>  (3) 
rmg_rxn_16690

>  <mol_properties>  (3) 
{"1": {"label": "acceptor", "atom_type": "Cd"}, "7": {"label": "a_hydrogen", "atom_type": "H0"}}

>  <type>  (3) 
r2h

$$$$

     RDKit          3D

 20 18  0  0  0  0  0  0  0  0999 V2000
    3.5249   -0.8626    0.2990 C   0  0  0  0  0  0  0  0  0  0  0  0
    2.3098   -0.0217    0.1188 C   0  0  0  0  0  3  0  0  0  0  0  0
    2.1781    1.2168    0.0399 N   0  0  0  0  0  0  0  0  0  0  0  0
    3.6155   -1.5554   -0.5393 H   0  0  0  0  0  0  0  0  0  0  0  0
    4.4332   -0.2566    0.3697 H   0  0  0  0  0  0  0  0  0  0  0  0
    3.4198   -1.4653    1.2026 H   0  0  0  0  0  0  0  0  0  0  0  0
    3.0350    1.7696    0.1081 H   0  0  0  0  0  0  0  0  0  0  0  0
   -0.1117   -0.7760   -0.1158 N   0  0  0  0  0  2  0  0  0  0  0  0
   -0.4844    0.4659   -0.2461 N   0  0  0  0  0  0  0  0  0  0  0  0
   -1.6880    0.9213   -0.4548 C   0  0  0  0  0  3  0  0  0  0  0  0
   -2.8434   -0.0078   -0.5654 C   0  0  0  0  0  0  0  0  0  0  0  0
   -3.2685   -0.6095    0.7792 C   0  0  0  0  0  0  0  0  0  0  0  0
    1.0704   -0.6795    0.0161 H   0  0  0  0  0  0  0  0  0  0  0  0
    0.2854    1.1606   -0.1791 H   0  0  0  0  0  0  0  0  0  0  0  0
   -1.7782    1.9947   -0.5212 H   0  0  0  0  0  0  0  0  0  0  0  0
   -2.5657   -0.8240   -1.2421 H   0  0  0  0  0  0  0  0  0  0  0  0
   -3.6822    0.5229   -1.0187 H   0  0  0  0  0  0  0  0  0  0  0  0
   -2.4340   -1.1429    1.2352 H   0  0  0  0  0  0  0  0  0  0  0  0
   -4.0902   -1.3144    0.6418 H   0  0  0  0  0  0  0  0  0  0  0  0
   -3.5988    0.1698    1.4681 H   0  0  0  0  0  0  0  0  0  0  0  0
  1  2  1  0
  1  4  1  0
  1  5  1  0
  1  6  1  0
  2  3  2  3
  3  7  1  0
  8  9  1  0
  8 13  1  0
  9 10  1  0
  9 14  1  0
 10 11  1  0
 10 15  1  0
 11 12  1  0
 11 16  1  0
 11 17  1  0
 12 18  1  0
 12 19  1  0
 12 20  1  0
M  CHG  2   8  -1  10   1
M  RAD  1   2   2
M  END
>  <reaction>  (4) 
rmg_rxn_16690

>  <mol_properties>  (4) 
{"1": {"label": "*3", "atom_type": "Cd"}, "2": {"label": "*4", "atom_type": "N3d"}, "7": {"label": "*1", "atom_type": "N1sc"}, "8": {"label": "*0", "atom_type": "N3s"}, "12": {"label": "*2", "atom_type": "H0"}}

>  <type>  (4) 
ts

$$$$
