
     RDKit          3D

 15 14  0  0  0  0  0  0  0  0999 V2000
    2.4145    0.0817    0.4065 C   0  0  0  0  0  0  0  0  0  0  0  0
    1.1257   -0.2220   -0.3219 C   0  0  0  0  0  0  0  0  0  0  0  0
    1.0983   -1.5879   -0.6512 O   0  0  0  0  0  0  0  0  0  0  0  0
   -0.0685   -1.9694   -1.3352 C   0  0  0  0  0  0  0  0  0  0  0  0
    0.0024   -3.4478   -1.6403 C   0  0  0  0  0  0  0  0  0  0  0  0
    3.2736   -0.1534   -0.2229 H   0  0  0  0  0  0  0  0  0  0  0  0
    2.4581    1.1389    0.6728 H   0  0  0  0  0  0  0  0  0  0  0  0
    2.4855   -0.5095    1.3201 H   0  0  0  0  0  0  0  0  0  0  0  0
    0.2597    0.0294    0.3083 H   0  0  0  0  0  0  0  0  0  0  0  0
    1.0482    0.3858   -1.2356 H   0  0  0  0  0  0  0  0  0  0  0  0
   -0.9535   -1.7457   -0.7211 H   0  0  0  0  0  0  0  0  0  0  0  0
   -0.1650   -1.3894   -2.2650 H   0  0  0  0  0  0  0  0  0  0  0  0
    0.0831   -4.0247   -0.7183 H   0  0  0  0  0  0  0  0  0  0  0  0
   -0.8950   -3.7674   -2.1724 H   0  0  0  0  0  0  0  0  0  0  0  0
    0.8712   -3.6686   -2.2613 H   0  0  0  0  0  0  0  0  0  0  0  0
  1  2  1  0
  1  6  1  0
  1  7  1  0
  1  8  1  0
  2  3  1  0
  2  9  1  0
  2 10  1  0
  3  4  1  0
  4  5  1  0
  4 11  1  0
  4 12  1  0
  5 13  1  0
  5 14  1  0
  5 15  1  0
M  END
>  <reaction>  (1) 
rmg_rxn_648

>  <mol_properties>  (1) 
{"0": {"label": "donator", "atom_type": "Cs"}, "5": {"label": "d_hydrogen", "atom_type": "H0"}}

>  <type>  (1) 
r1h

$$$$

     RDKit          3D

  8  7  0  0  0  0  0  0  0  0999 V2000
   -0.7835    0.1123   -0.0716 C   0  0  0  0  0  0  0  0  0  0  0  0
    0.7168   -0.1170   -0.1385 C   0  0  0  0  0  0  0  0  0  0  0  0
    1.3688    0.5271   -1.1400 O   0  0  0  0  0  1  0  0  0  0  0  0
   -1.2217   -0.4423    0.7606 H   0  0  0  0  0  0  0  0  0  0  0  0
   -1.0002    1.1721    0.0670 H   0  0  0  0  0  0  0  0  0  0  0  0
   -1.2599   -0.2172   -0.9956 H   0  0  0  0  0  0  0  0  0  0  0  0
    1.2144    0.1666    0.8077 H   0  0  0  0  0  0  0  0  0  0  0  0
    0.9605   -1.1919   -0.2314 H   0  0  0  0  0  0  0  0  0  0  0  0
  1  2  1  0
  1  4  1  0
  1  5  1  0
  1  6  1  0
  2  3  1  0
  2  7  1  0
  2  8  1  0
M  RAD  1   3   2
M  END
>  <reaction>  (2) 
rmg_rxn_648

>  <mol_properties>  (2) 
{"2": {"label": "acceptor", "atom_type": "O2s"}}

>  <type>  (2) 
r2

$$$$

     RDKit          3D

  9  8  0  0  0  0  0  0  0  0999 V2000
   -0.9895    0.3048    0.1041 C   0  0  0  0  0  0  0  0  0  0  0  0
    0.3761   -0.3562    0.0721 C   0  0  0  0  0  0  0  0  0  0  0  0
    0.3441   -1.6564   -0.4834 O   0  0  0  0  0  0  0  0  0  0  0  0
   -1.6997   -0.3114    0.6572 H   0  0  0  0  0  0  0  0  0  0  0  0
   -0.9320    1.2848    0.5822 H   0  0  0  0  0  0  0  0  0  0  0  0
   -1.3774    0.4507   -0.9077 H   0  0  0  0  0  0  0  0  0  0  0  0
    0.7581   -0.4813    1.0862 H   0  0  0  0  0  0  0  0  0  0  0  0
    1.0900    0.2787   -0.4681 H   0  0  0  0  0  0  0  0  0  0  0  0
    0.0089   -1.5959   -1.3792 H   0  0  0  0  0  0  0  0  0  0  0  0
  1  2  1  0
  1  4  1  0
  1  5  1  0
  1  6  1  0
  2  3  1  0
  2  7  1  0
  2  8  1  0
  3  9  1  0
M  END
>  <reaction>  (3) 
rmg_rxn_648

>  <mol_properties>  (3) 
{"2": {"label": "acceptor", "atom_type": "O2s"}, "8": {"label": "a_hydrogen", "atom_type": "H0"}}

>  <type>  (3) 
r2h

$$$$

     RDKit          3D

 23 21  0  0  0  0  0  0  0  0999 V2000
   -2.2783   -0.0666    0.0754 C   0  0  0  0  0  0  0  0  0  0  0  0
   -1.7192    1.3388   -0.0562 C   0  0  0  0  0  0  0  0  0  0  0  0
   -1.2334    1.8636    1.1463 O   0  0  0  0  0  0  0  0  0  0  0  0
   -3.0594   -0.0982    0.8362 H   0  0  0  0  0  0  0  0  0  0  0  0
   -2.7036   -0.4014   -0.8739 H   0  0  0  0  0  0  0  0  0  0  0  0
   -1.4892   -0.7648    0.3570 H   0  0  0  0  0  0  0  0  0  0  0  0
   -0.9464    1.3709   -0.8328 H   0  0  0  0  0  0  0  0  0  0  0  0
   -2.5086    2.0331   -0.3728 H   0  0  0  0  0  0  0  0  0  0  0  0
    1.1453    1.1366    1.4285 C   0  0  0  0  0  3  0  0  0  0  0  0
    1.2727   -0.3186    1.1085 C   0  0  0  0  0  0  0  0  0  0  0  0
    1.0288   -0.5140   -0.2593 O   0  0  0  0  0  0  0  0  0  0  0  0
    1.0362   -1.8681   -0.6418 C   0  0  0  0  0  0  0  0  0  0  0  0
    0.6853   -1.9585   -2.1080 C   0  0  0  0  0  0  0  0  0  0  0  0
   -0.0697    1.4948    1.3033 H   0  0  0  0  0  0  0  0  0  0  0  0
    1.3480    1.3740    2.4711 H   0  0  0  0  0  0  0  0  0  0  0  0
    1.6793    1.7874    0.7387 H   0  0  0  0  0  0  0  0  0  0  0  0
    2.2851   -0.6722    1.3678 H   0  0  0  0  0  0  0  0  0  0  0  0
    0.5659   -0.9066    1.7128 H   0  0  0  0  0  0  0  0  0  0  0  0
    2.0257   -2.3071   -0.4493 H   0  0  0  0  0  0  0  0  0  0  0  0
    0.3079   -2.4294   -0.0381 H   0  0  0  0  0  0  0  0  0  0  0  0
    1.4082   -1.4066   -2.7096 H   0  0  0  0  0  0  0  0  0  0  0  0
    0.6850   -2.9996   -2.4336 H   0  0  0  0  0  0  0  0  0  0  0  0
   -0.3054   -1.5385   -2.2868 H   0  0  0  0  0  0  0  0  0  0  0  0
  1  2  1  0
  1  4  1  0
  1  5  1  0
  1  6  1  0
  2  3  1  0
  2  7  1  0
  2  8  1  0
  3 14  1  0
  9 10  1  0
  9 15  1  0
  9 16  1  0
 10 11  1  0
 10 17  1  0
 10 18  1  0
 11 12  1  0
 12 13  1  0
 12 19  1  0
 12 20  1  0
 13 21  1  0
 13 22  1  0
 13 23  1  0
M  RAD  1   9   2
M  END
>  <reaction>  (4) 
rmg_rxn_648

>  <mol_properties>  (4) 
{"1": {"label": "*0", "atom_type": "Cs"}, "2": {"label": "*1", "atom_type": "O2s"}, "8": {"label": "*3", "atom_type": "Cs"}, "9": {"label": "*4", "atom_type": "Cs"}, "13": {"label": "*2", "atom_type": "H0"}}

>  <type>  (4) 
ts

$$$$
