
     RDKit          3D

 11 10  0  0  0  0  0  0  0  0999 V2000
    0.0000    1.2570   -0.2618 C   0  0  0  0  0  0  0  0  0  0  0  0
    0.0000    0.0000    0.5915 C   0  0  0  0  0  0  0  0  0  0  0  0
    0.0000   -1.2570   -0.2618 C   0  0  0  0  0  0  0  0  0  0  0  0
   -0.8872    1.2968   -0.9019 H   0  0  0  0  0  0  0  0  0  0  0  0
    0.8847    1.2783   -0.9058 H   0  0  0  0  0  0  0  0  0  0  0  0
    0.0131    2.1556    0.3633 H   0  0  0  0  0  0  0  0  0  0  0  0
   -0.8824    0.0000    1.2409 H   0  0  0  0  0  0  0  0  0  0  0  0
    0.8824    0.0000    1.2409 H   0  0  0  0  0  0  0  0  0  0  0  0
    0.8872   -1.2968   -0.9019 H   0  0  0  0  0  0  0  0  0  0  0  0
   -0.0131   -2.1556    0.3633 H   0  0  0  0  0  0  0  0  0  0  0  0
   -0.8847   -1.2783   -0.9058 H   0  0  0  0  0  0  0  0  0  0  0  0
  1  2  1  0
  1  4  1  0
  1  5  1  0
  1  6  1  0
  2  3  1  0
  2  7  1  0
  2  8  1  0
  3  9  1  0
  3 10  1  0
  3 11  1  0
M  END
>  <reaction>  (1) 
rmg_rxn_1134

>  <mol_properties>  (1) 
{"2": {"label": "donator", "atom_type": "Cs"}, "10": {"label": "d_hydrogen", "atom_type": "H0"}}

>  <type>  (1) 
r1h

$$$$

     RDKit          3D

  1  0  0  0  0  0  0  0  0  0999 V2000
    0.0000    0.0000    0.0000 O   0  0  0  0  0 15  0  0  0  0  0  0
M  END
>  <reaction>  (2) 
rmg_rxn_1134

>  <mol_properties>  (2) 
{"0": {"label": "acceptor", "atom_type": "O2s"}}

>  <type>  (2) 
r2

$$$$

     RDKit          3D

  2  1  0  0  0  0  0  0  0  0999 V2000
    0.0000    0.0000    0.1079 O   0  0  0  0  0  1  0  0  0  0  0  0
    0.0000    0.0000   -0.8631 H   0  0  0  0  0  0  0  0  0  0  0  0
  1  2  1  0
M  RAD  1   1   2
M  END
>  <reaction>  (3) 
rmg_rxn_1134

>  <mol_properties>  (3) 
{"0": {"label": "acceptor", "atom_type": "O2s"}, "1": {"label": "a_hydrogen", "atom_type": "H0"}}

>  <type>  (3) 
r2h

$$$$

     RDKit          3D

 12 10  0  0  0  0  0  0  0  0999 V2000
   -2.0146   -0.5713   -0.0932 O   0  0  0  0  0 15  0  0  0  0  0  0
    1.0666    0.4890   -0.2353 C   0  0  0  0  0  0  0  0  0  0  0  0
    1.1437   -0.9915    0.1174 C   0  0  0  0  0  0  0  0  0  0  0  0
   -0.2806    1.0705    0.1699 C   0  0  0  0  0  0  0  0  0  0  0  0
    1.8803    1.0390    0.2849 H   0  0  0  0  0  0  0  0  0  0  0  0
    1.1998    0.6106   -1.3315 H   0  0  0  0  0  0  0  0  0  0  0  0
    2.1264   -1.3987   -0.2012 H   0  0  0  0  0  0  0  0  0  0  0  0
    1.0392   -1.1330    1.2144 H   0  0  0  0  0  0  0  0  0  0  0  0
    0.3394   -1.5535   -0.4037 H   0  0  0  0  0  0  0  0  0  0  0  0
   -0.4096    1.0204    1.2722 H   0  0  0  0  0  0  0  0  0  0  0  0
   -0.3496    2.1297   -0.1563 H   0  0  0  0  0  0  0  0  0  0  0  0
   -1.2873    0.4473   -0.2448 H   0  0  0  0  0  0  0  0  0  0  0  0
  2  3  1  0
  2  4  1  0
  2  5  1  0
  2  6  1  0
  3  7  1  0
  3  8  1  0
  3  9  1  0
  4 10  1  0
  4 11  1  0
  4 12  1  0
M  END
>  <reaction>  (4) 
rmg_rxn_1134

>  <mol_properties>  (4) 
{"0": {"label": "*3", "atom_type": "O2s"}, "1": {"label": "*0", "atom_type": "Cs"}, "3": {"label": "*1", "atom_type": "Cs"}, "11": {"label": "*2", "atom_type": "H0"}}

>  <type>  (4) 
ts

$$$$
