
     RDKit          3D

 15 14  0  0  0  0  0  0  0  0999 V2000
   -1.2811   -0.4129    1.0228 C   0  0  0  0  0  0  0  0  0  0  0  0
   -1.0023   -0.5809   -0.4650 C   0  0  0  0  0  0  0  0  0  0  0  0
   -2.0576    0.0568   -1.3449 C   0  0  0  0  0  0  0  0  0  0  0  0
   -2.0663    1.4464   -1.1307 O   0  0  0  0  0  0  0  0  0  0  0  0
   -3.0424    2.1072   -1.8849 C   0  0  0  0  0  0  0  0  0  0  0  0
   -2.2382   -0.8657    1.2935 H   0  0  0  0  0  0  0  0  0  0  0  0
   -1.3219    0.6426    1.2914 H   0  0  0  0  0  0  0  0  0  0  0  0
   -0.5042   -0.8881    1.6236 H   0  0  0  0  0  0  0  0  0  0  0  0
   -0.0316   -0.1460   -0.7167 H   0  0  0  0  0  0  0  0  0  0  0  0
   -0.9494   -1.6429   -0.7203 H   0  0  0  0  0  0  0  0  0  0  0  0
   -1.8518   -0.1570   -2.4041 H   0  0  0  0  0  0  0  0  0  0  0  0
   -3.0491   -0.3636   -1.1124 H   0  0  0  0  0  0  0  0  0  0  0  0
   -4.0521    1.7545   -1.6343 H   0  0  0  0  0  0  0  0  0  0  0  0
   -2.8850    1.9634   -2.9626 H   0  0  0  0  0  0  0  0  0  0  0  0
   -2.9730    3.1700   -1.6570 H   0  0  0  0  0  0  0  0  0  0  0  0
  1  2  1  0
  1  6  1  0
  1  7  1  0
  1  8  1  0
  2  3  1  0
  2  9  1  0
  2 10  1  0
  3  4  1  0
  3 11  1  0
  3 12  1  0
  4  5  1  0
  5 13  1  0
  5 14  1  0
  5 15  1  0
M  END
>  <reaction>  (1) 
rmg_rxn_662

>  <mol_properties>  (1) 
{"4": {"label": "donator", "atom_type": "Cs"}, "12": {"label": "d_hydrogen", "atom_type": "H0"}}

>  <type>  (1) 
r1h

$$$$

     RDKit          3D

 17 16  0  0  0  0  0  0  0  0999 V2000
    2.3128   -0.1525    1.1777 C   0  0  0  0  0  3  0  0  0  0  0  0
    1.7469    0.7266    0.1254 C   0  0  0  0  0  0  0  0  0  0  0  0
    1.6374    2.1830    0.5408 C   0  0  0  0  0  0  0  0  0  0  0  0
    2.9245    2.6874    0.7877 O   0  0  0  0  0  0  0  0  0  0  0  0
    2.9227    4.0197    1.2361 C   0  0  0  0  0  0  0  0  0  0  0  0
    4.3491    4.4603    1.4693 C   0  0  0  0  0  0  0  0  0  0  0  0
    2.1393   -1.2196    1.1557 H   0  0  0  0  0  0  0  0  0  0  0  0
    3.0313    0.2400    1.8838 H   0  0  0  0  0  0  0  0  0  0  0  0
    0.7555    0.3746   -0.1764 H   0  0  0  0  0  0  0  0  0  0  0  0
    2.3678    0.6841   -0.7826 H   0  0  0  0  0  0  0  0  0  0  0  0
    1.0170    2.2718    1.4449 H   0  0  0  0  0  0  0  0  0  0  0  0
    1.1499    2.7653   -0.2546 H   0  0  0  0  0  0  0  0  0  0  0  0
    2.4379    4.6655    0.4891 H   0  0  0  0  0  0  0  0  0  0  0  0
    2.3377    4.1015    2.1638 H   0  0  0  0  0  0  0  0  0  0  0  0
    4.9261    4.3920    0.5465 H   0  0  0  0  0  0  0  0  0  0  0  0
    4.3728    5.4939    1.8180 H   0  0  0  0  0  0  0  0  0  0  0  0
    4.8260    3.8299    2.2206 H   0  0  0  0  0  0  0  0  0  0  0  0
  1  2  1  0
  1  7  1  0
  1  8  1  0
  2  3  1  0
  2  9  1  0
  2 10  1  0
  3  4  1  0
  3 11  1  0
  3 12  1  0
  4  5  1  0
  5  6  1  0
  5 13  1  0
  5 14  1  0
  6 15  1  0
  6 16  1  0
  6 17  1  0
M  RAD  1   1   2
M  END
>  <reaction>  (2) 
rmg_rxn_662

>  <mol_properties>  (2) 
{"0": {"label": "acceptor", "atom_type": "Cs"}}

>  <type>  (2) 
r2

$$$$

     RDKit          3D

 18 17  0  0  0  0  0  0  0  0999 V2000
    2.2026   -0.7213   -0.2612 C   0  0  0  0  0  0  0  0  0  0  0  0
    1.5384    0.2638    0.6915 C   0  0  0  0  0  0  0  0  0  0  0  0
    2.2584    1.5946    0.7694 C   0  0  0  0  0  0  0  0  0  0  0  0
    2.2212    2.2185   -0.4893 O   0  0  0  0  0  0  0  0  0  0  0  0
    2.8988    3.4488   -0.5204 C   0  0  0  0  0  0  0  0  0  0  0  0
    2.7981    4.0296   -1.9118 C   0  0  0  0  0  0  0  0  0  0  0  0
    3.2294   -0.9309    0.0486 H   0  0  0  0  0  0  0  0  0  0  0  0
    2.2338   -0.3181   -1.2734 H   0  0  0  0  0  0  0  0  0  0  0  0
    1.6610   -1.6680   -0.2875 H   0  0  0  0  0  0  0  0  0  0  0  0
    1.4990   -0.1566    1.7002 H   0  0  0  0  0  0  0  0  0  0  0  0
    0.5055    0.4455    0.3835 H   0  0  0  0  0  0  0  0  0  0  0  0
    3.3038    1.4410    1.0808 H   0  0  0  0  0  0  0  0  0  0  0  0
    1.7844    2.2410    1.5226 H   0  0  0  0  0  0  0  0  0  0  0  0
    2.4596    4.1376    0.2164 H   0  0  0  0  0  0  0  0  0  0  0  0
    3.9524    3.3035   -0.2397 H   0  0  0  0  0  0  0  0  0  0  0  0
    1.7543    4.1869   -2.1856 H   0  0  0  0  0  0  0  0  0  0  0  0
    3.2472    3.3545   -2.6411 H   0  0  0  0  0  0  0  0  0  0  0  0
    3.3178    4.9878   -1.9600 H   0  0  0  0  0  0  0  0  0  0  0  0
  1  2  1  0
  1  7  1  0
  1  8  1  0
  1  9  1  0
  2  3  1  0
  2 10  1  0
  2 11  1  0
  3  4  1  0
  3 12  1  0
  3 13  1  0
  4  5  1  0
  5  6  1  0
  5 14  1  0
  5 15  1  0
  6 16  1  0
  6 17  1  0
  6 18  1  0
M  END
>  <reaction>  (3) 
rmg_rxn_662

>  <mol_properties>  (3) 
{"0": {"label": "a_hydrogen", "atom_type": "H0"}, "1": {"label": "acceptor", "atom_type": "Cs"}}

>  <type>  (3) 
r2h

$$$$

     RDKit          3D

 32 30  0  0  0  0  0  0  0  0999 V2000
   -0.4594   -3.5295   -2.6180 C   0  0  0  0  0  0  0  0  0  0  0  0
   -0.4589   -4.1442   -1.2246 C   0  0  0  0  0  0  0  0  0  0  0  0
   -0.6652   -3.1220   -0.1273 C   0  0  0  0  0  0  0  0  0  0  0  0
   -1.9476   -2.5491   -0.2595 O   0  0  0  0  0  0  0  0  0  0  0  0
   -2.1988   -1.5423    0.6462 C   0  0  0  0  0  0  0  0  0  0  0  0
    0.3364   -2.7867   -2.7159 H   0  0  0  0  0  0  0  0  0  0  0  0
   -1.4080   -3.0324   -2.8210 H   0  0  0  0  0  0  0  0  0  0  0  0
   -0.3026   -4.2908   -3.3833 H   0  0  0  0  0  0  0  0  0  0  0  0
   -1.2420   -4.9027   -1.1467 H   0  0  0  0  0  0  0  0  0  0  0  0
    0.4920   -4.6502   -1.0365 H   0  0  0  0  0  0  0  0  0  0  0  0
   -0.5732   -3.5900    0.8628 H   0  0  0  0  0  0  0  0  0  0  0  0
    0.0979   -2.3338   -0.1945 H   0  0  0  0  0  0  0  0  0  0  0  0
   -1.4389   -0.5085    0.3543 H   0  0  0  0  0  0  0  0  0  0  0  0
   -1.9462   -1.8060    1.6806 H   0  0  0  0  0  0  0  0  0  0  0  0
   -3.2262   -1.2013    0.5395 H   0  0  0  0  0  0  0  0  0  0  0  0
   -0.5612    0.5099   -0.0147 C   0  0  0  0  0  3  0  0  0  0  0  0
    0.5236    0.5458    1.0280 C   0  0  0  0  0  0  0  0  0  0  0  0
    1.5795    1.6098    0.7745 C   0  0  0  0  0  0  0  0  0  0  0  0
    0.9835    2.8791    0.8466 O   0  0  0  0  0  0  0  0  0  0  0  0
    1.8797    3.9294    0.5861 C   0  0  0  0  0  0  0  0  0  0  0  0
    1.1397    5.2427    0.6909 C   0  0  0  0  0  0  0  0  0  0  0  0
   -1.1895    1.3963   -0.0495 H   0  0  0  0  0  0  0  0  0  0  0  0
   -0.2344    0.2012   -1.0076 H   0  0  0  0  0  0  0  0  0  0  0  0
    1.0330   -0.4220    1.0762 H   0  0  0  0  0  0  0  0  0  0  0  0
    0.0905    0.7245    2.0163 H   0  0  0  0  0  0  0  0  0  0  0  0
    2.0339    1.4613   -0.2171 H   0  0  0  0  0  0  0  0  0  0  0  0
    2.3841    1.5291    1.5212 H   0  0  0  0  0  0  0  0  0  0  0  0
    2.7126    3.8990    1.3043 H   0  0  0  0  0  0  0  0  0  0  0  0
    2.3134    3.8114   -0.4178 H   0  0  0  0  0  0  0  0  0  0  0  0
    0.7215    5.3671    1.6904 H   0  0  0  0  0  0  0  0  0  0  0  0
    1.8166    6.0750    0.4918 H   0  0  0  0  0  0  0  0  0  0  0  0
    0.3231    5.2794   -0.0309 H   0  0  0  0  0  0  0  0  0  0  0  0
  1  2  1  0
  1  6  1  0
  1  7  1  0
  1  8  1  0
  2  3  1  0
  2  9  1  0
  2 10  1  0
  3  4  1  0
  3 11  1  0
  3 12  1  0
  4  5  1  0
  5 13  1  0
  5 14  1  0
  5 15  1  0
 16 17  1  0
 16 22  1  0
 16 23  1  0
 17 18  1  0
 17 24  1  0
 17 25  1  0
 18 19  1  0
 18 26  1  0
 18 27  1  0
 19 20  1  0
 20 21  1  0
 20 28  1  0
 20 29  1  0
 21 30  1  0
 21 31  1  0
 21 32  1  0
M  RAD  1  16   2
M  END
>  <reaction>  (4) 
rmg_rxn_662

>  <mol_properties>  (4) 
{"3": {"label": "*0", "atom_type": "O2s"}, "4": {"label": "*1", "atom_type": "Cs"}, "12": {"label": "*2", "atom_type": "H0"}, "15": {"label": "*3", "atom_type": "Cs"}, "16": {"label": "*4", "atom_type": "Cs"}}

>  <type>  (4) 
ts

$$$$
