
     RDKit          3D

  9  8  0  0  0  0  0  0  0  0999 V2000
   -0.8818   -0.3578    0.1297 C   0  0  0  0  0  0  0  0  0  0  0  0
    0.6153   -0.3021   -0.1188 C   0  0  0  0  0  0  0  0  0  0  0  0
    1.5354   -1.7170    0.5545 S   0  0  0  0  0  0  0  0  0  0  0  0
   -1.1018   -0.3317    1.1984 H   0  0  0  0  0  0  0  0  0  0  0  0
   -1.3114   -1.2723   -0.2799 H   0  0  0  0  0  0  0  0  0  0  0  0
   -1.3767    0.4976   -0.3363 H   0  0  0  0  0  0  0  0  0  0  0  0
    1.0467    0.6194    0.2718 H   0  0  0  0  0  0  0  0  0  0  0  0
    0.8295   -0.3275   -1.1882 H   0  0  0  0  0  0  0  0  0  0  0  0
    1.2306   -1.5077    1.8423 H   0  0  0  0  0  0  0  0  0  0  0  0
  1  2  1  0
  1  4  1  0
  1  5  1  0
  1  6  1  0
  2  3  1  0
  2  7  1  0
  2  8  1  0
  3  9  1  0
M  END
>  <reaction>  (1) 
rmg_rxn_59

>  <mol_properties>  (1) 
{"2": {"label": "donator", "atom_type": "S2s"}, "8": {"label": "d_hydrogen", "atom_type": "H0"}}

>  <type>  (1) 
r1h

$$$$

     RDKit          3D

 14 13  0  0  0  0  0  0  0  0999 V2000
    2.6194    0.1388   -0.2451 C   0  0  0  0  0  0  0  0  0  0  0  0
    1.2416   -0.4914   -0.3670 C   0  0  0  0  0  0  0  0  0  0  0  0
    0.9567   -1.8675    0.7732 S   0  0  0  0  0  0  0  0  0  0  0  0
    1.9992   -3.0673    0.1320 C   0  0  0  0  0  3  0  0  0  0  0  0
    2.1769   -4.3519    0.8615 C   0  0  0  0  0  0  0  0  0  0  0  0
    3.4009   -0.5920   -0.4552 H   0  0  0  0  0  0  0  0  0  0  0  0
    2.7219    0.9635   -0.9540 H   0  0  0  0  0  0  0  0  0  0  0  0
    2.7821    0.5262    0.7612 H   0  0  0  0  0  0  0  0  0  0  0  0
    1.0587   -0.8507   -1.3815 H   0  0  0  0  0  0  0  0  0  0  0  0
    0.4587    0.2313   -0.1333 H   0  0  0  0  0  0  0  0  0  0  0  0
    2.2677   -2.9922   -0.9152 H   0  0  0  0  0  0  0  0  0  0  0  0
    1.3745   -5.0711    0.6500 H   0  0  0  0  0  0  0  0  0  0  0  0
    3.1173   -4.8269    0.5747 H   0  0  0  0  0  0  0  0  0  0  0  0
    2.1945   -4.1971    1.9428 H   0  0  0  0  0  0  0  0  0  0  0  0
  1  2  1  0
  1  6  1  0
  1  7  1  0
  1  8  1  0
  2  3  1  0
  2  9  1  0
  2 10  1  0
  3  4  1  0
  4  5  1  0
  4 11  1  0
  5 12  1  0
  5 13  1  0
  5 14  1  0
M  RAD  1   4   2
M  END
>  <reaction>  (2) 
rmg_rxn_59

>  <mol_properties>  (2) 
{"3": {"label": "acceptor", "atom_type": "Cs"}}

>  <type>  (2) 
r2

$$$$

     RDKit          3D

 15 14  0  0  0  0  0  0  0  0999 V2000
   -2.0554    0.0723   -0.4910 C   0  0  0  0  0  0  0  0  0  0  0  0
   -0.7461   -0.6266   -0.8178 C   0  0  0  0  0  0  0  0  0  0  0  0
    0.3249    0.2591   -1.9782 S   0  0  0  0  0  0  0  0  0  0  0  0
   -0.7172    0.3642   -3.4551 C   0  0  0  0  0  0  0  0  0  0  0  0
   -1.1375   -0.9737   -4.0409 C   0  0  0  0  0  0  0  0  0  0  0  0
   -2.7005    0.1427   -1.3684 H   0  0  0  0  0  0  0  0  0  0  0  0
   -2.6016   -0.4848    0.2733 H   0  0  0  0  0  0  0  0  0  0  0  0
   -1.8758    1.0825   -0.1213 H   0  0  0  0  0  0  0  0  0  0  0  0
   -0.1320   -0.7246    0.0789 H   0  0  0  0  0  0  0  0  0  0  0  0
   -0.9254   -1.6374   -1.1879 H   0  0  0  0  0  0  0  0  0  0  0  0
   -1.5873    0.9874   -3.2422 H   0  0  0  0  0  0  0  0  0  0  0  0
   -0.1021    0.9161   -4.1678 H   0  0  0  0  0  0  0  0  0  0  0  0
   -1.7876   -1.5224   -3.3574 H   0  0  0  0  0  0  0  0  0  0  0  0
   -0.2676   -1.5962   -4.2534 H   0  0  0  0  0  0  0  0  0  0  0  0
   -1.6916   -0.8229   -4.9700 H   0  0  0  0  0  0  0  0  0  0  0  0
  1  2  1  0
  1  6  1  0
  1  7  1  0
  1  8  1  0
  2  3  1  0
  2  9  1  0
  2 10  1  0
  3  4  1  0
  4  5  1  0
  4 11  1  0
  4 12  1  0
  5 13  1  0
  5 14  1  0
  5 15  1  0
M  END
>  <reaction>  (3) 
rmg_rxn_59

>  <mol_properties>  (3) 
{"0": {"label": "a_hydrogen", "atom_type": "H0"}, "4": {"label": "acceptor", "atom_type": "Cs"}}

>  <type>  (3) 
r2h

$$$$

     RDKit          3D

 23 21  0  0  0  0  0  0  0  0999 V2000
   -1.5134   -2.3376   -0.3040 C   0  0  0  0  0  0  0  0  0  0  0  0
   -0.9297   -2.2651    1.0973 C   0  0  0  0  0  0  0  0  0  0  0  0
   -0.9689   -0.6090    1.8404 S   0  0  0  0  0  1  0  0  0  0  0  0
   -0.9273   -1.7320   -0.9963 H   0  0  0  0  0  0  0  0  0  0  0  0
   -2.5406   -1.9706   -0.3150 H   0  0  0  0  0  0  0  0  0  0  0  0
   -1.5099   -3.3686   -0.6675 H   0  0  0  0  0  0  0  0  0  0  0  0
    0.1009   -2.6243    1.1077 H   0  0  0  0  0  0  0  0  0  0  0  0
   -1.4899   -2.9032    1.7830 H   0  0  0  0  0  0  0  0  0  0  0  0
    0.1976   -0.0801    1.0250 H   0  0  0  0  0  0  0  0  0  0  0  0
   -1.1107    1.3971   -1.5537 C   0  0  0  0  0  0  0  0  0  0  0  0
    0.3622    1.5620   -1.8914 C   0  0  0  0  0  0  0  0  0  0  0  0
    1.4261    0.2268   -1.2895 S   0  0  0  0  0  0  0  0  0  0  0  0
    1.4240    0.4351    0.4405 C   0  0  0  0  0  0  0  0  0  0  0  0
    1.4665    1.8027    1.0640 C   0  0  0  0  0  0  0  0  0  0  0  0
   -1.2760    1.3461   -0.4772 H   0  0  0  0  0  0  0  0  0  0  0  0
   -1.6788    2.2414   -1.9502 H   0  0  0  0  0  0  0  0  0  0  0  0
   -1.5099    0.4804   -1.9879 H   0  0  0  0  0  0  0  0  0  0  0  0
    0.7541    2.5120   -1.5273 H   0  0  0  0  0  0  0  0  0  0  0  0
    0.5172    1.5490   -2.9714 H   0  0  0  0  0  0  0  0  0  0  0  0
    2.1185   -0.2844    0.8692 H   0  0  0  0  0  0  0  0  0  0  0  0
    0.5997    2.4031    0.7841 H   0  0  0  0  0  0  0  0  0  0  0  0
    1.4645    1.7077    2.1504 H   0  0  0  0  0  0  0  0  0  0  0  0
    2.3682    2.3460    0.7672 H   0  0  0  0  0  0  0  0  0  0  0  0
  1  2  1  0
  1  4  1  0
  1  5  1  0
  1  6  1  0
  2  3  1  0
  2  7  1  0
  2  8  1  0
  9 13  1  0
 10 11  1  0
 10 15  1  0
 10 16  1  0
 10 17  1  0
 11 12  1  0
 11 18  1  0
 11 19  1  0
 12 13  1  0
 13 14  1  0
 13 20  1  0
 14 21  1  0
 14 22  1  0
 14 23  1  0
M  RAD  1   3   2
M  END
>  <reaction>  (4) 
rmg_rxn_59

>  <mol_properties>  (4) 
{"1": {"label": "*4", "atom_type": "Cs"}, "2": {"label": "*3", "atom_type": "S2s"}, "8": {"label": "*2", "atom_type": "H0"}, "11": {"label": "*0", "atom_type": "S2s"}, "12": {"label": "*1", "atom_type": "Cs"}}

>  <type>  (4) 
ts

$$$$
