
     RDKit          3D

 14 14  0  0  0  0  0  0  0  0999 V2000
   -1.1778    0.2241    0.1818 C   0  0  0  0  0  0  0  0  0  0  0  0
   -0.5633   -1.1636    0.0678 C   0  0  0  0  0  0  0  0  0  0  0  0
    0.6943   -1.1996    0.7146 O   0  0  0  0  0  0  0  0  0  0  0  0
    1.5547   -0.2288    0.2011 C   0  0  0  0  0  0  0  0  0  0  0  0
    1.0729    1.0696    0.3698 O   0  0  0  0  0  0  0  0  0  0  0  0
   -0.1607    1.2493   -0.2989 C   0  0  0  0  0  0  0  0  0  0  0  0
   -2.0927    0.2866   -0.4117 H   0  0  0  0  0  0  0  0  0  0  0  0
   -1.4303    0.4248    1.2248 H   0  0  0  0  0  0  0  0  0  0  0  0
   -1.1822   -1.9235    0.5431 H   0  0  0  0  0  0  0  0  0  0  0  0
   -0.4389   -1.4347   -0.9919 H   0  0  0  0  0  0  0  0  0  0  0  0
    1.7250   -0.4207   -0.8742 H   0  0  0  0  0  0  0  0  0  0  0  0
    2.4896   -0.3010    0.7524 H   0  0  0  0  0  0  0  0  0  0  0  0
   -0.0080    1.1481   -1.3844 H   0  0  0  0  0  0  0  0  0  0  0  0
   -0.4826    2.2695   -0.0942 H   0  0  0  0  0  0  0  0  0  0  0  0
  1  2  1  0
  1  6  1  0
  1  7  1  0
  1  8  1  0
  2  3  1  0
  2  9  1  0
  2 10  1  0
  3  4  1  0
  4  5  1  0
  4 11  1  0
  4 12  1  0
  5  6  1  0
  6 13  1  0
  6 14  1  0
M  END
>  <reaction>  (1) 
rmg_rxn_377

>  <mol_properties>  (1) 
{"0": {"label": "donator", "atom_type": "Cs"}, "6": {"label": "d_hydrogen", "atom_type": "H0"}}

>  <type>  (1) 
r1h

$$$$

     RDKit          3D

  8  7  0  0  0  0  0  0  0  0999 V2000
   -0.7780    0.1298   -0.1106 C   0  0  0  0  0  0  0  0  0  0  0  0
    0.7217   -0.1070   -0.1617 C   0  0  0  0  0  0  0  0  0  0  0  0
    1.1956   -0.6471   -1.3135 O   0  0  0  0  0  1  0  0  0  0  0  0
   -1.3158   -0.8099   -0.2407 H   0  0  0  0  0  0  0  0  0  0  0  0
   -1.0675    0.5644    0.8483 H   0  0  0  0  0  0  0  0  0  0  0  0
   -1.0823    0.8120   -0.9052 H   0  0  0  0  0  0  0  0  0  0  0  0
    1.2875    0.8267    0.0156 H   0  0  0  0  0  0  0  0  0  0  0  0
    1.0592   -0.7592    0.6654 H   0  0  0  0  0  0  0  0  0  0  0  0
  1  2  1  0
  1  4  1  0
  1  5  1  0
  1  6  1  0
  2  3  1  0
  2  7  1  0
  2  8  1  0
M  RAD  1   3   2
M  END
>  <reaction>  (2) 
rmg_rxn_377

>  <mol_properties>  (2) 
{"2": {"label": "acceptor", "atom_type": "O2s"}}

>  <type>  (2) 
r2

$$$$

     RDKit          3D

  9  8  0  0  0  0  0  0  0  0999 V2000
   -0.9895    0.3048    0.1041 C   0  0  0  0  0  0  0  0  0  0  0  0
    0.3761   -0.3562    0.0721 C   0  0  0  0  0  0  0  0  0  0  0  0
    0.3441   -1.6564   -0.4834 O   0  0  0  0  0  0  0  0  0  0  0  0
   -1.6997   -0.3114    0.6572 H   0  0  0  0  0  0  0  0  0  0  0  0
   -0.9320    1.2848    0.5822 H   0  0  0  0  0  0  0  0  0  0  0  0
   -1.3774    0.4507   -0.9077 H   0  0  0  0  0  0  0  0  0  0  0  0
    0.7581   -0.4813    1.0862 H   0  0  0  0  0  0  0  0  0  0  0  0
    1.0900    0.2787   -0.4681 H   0  0  0  0  0  0  0  0  0  0  0  0
    0.0089   -1.5959   -1.3792 H   0  0  0  0  0  0  0  0  0  0  0  0
  1  2  1  0
  1  4  1  0
  1  5  1  0
  1  6  1  0
  2  3  1  0
  2  7  1  0
  2  8  1  0
  3  9  1  0
M  END
>  <reaction>  (3) 
rmg_rxn_377

>  <mol_properties>  (3) 
{"2": {"label": "acceptor", "atom_type": "O2s"}, "8": {"label": "a_hydrogen", "atom_type": "H0"}}

>  <type>  (3) 
r2h

$$$$

     RDKit          3D

 22 21  0  0  0  0  0  0  0  0999 V2000
    1.5481   -3.0491   -0.1232 C   0  0  0  0  0  0  0  0  0  0  0  0
    0.0464   -2.9152    0.0592 C   0  0  0  0  0  0  0  0  0  0  0  0
   -0.3231   -2.0598    1.0992 O   0  0  0  0  0  0  0  0  0  0  0  0
    2.0185   -3.3625    0.8093 H   0  0  0  0  0  0  0  0  0  0  0  0
    1.7785   -3.7843   -0.8968 H   0  0  0  0  0  0  0  0  0  0  0  0
    1.9873   -2.0947   -0.4223 H   0  0  0  0  0  0  0  0  0  0  0  0
   -0.4342   -2.6235   -0.8852 H   0  0  0  0  0  0  0  0  0  0  0  0
   -0.3871   -3.8849    0.3345 H   0  0  0  0  0  0  0  0  0  0  0  0
    0.2949    0.2388    0.3356 C   0  0  0  0  0  3  0  0  0  0  0  0
   -0.0780    0.2753   -1.1272 C   0  0  0  0  0  0  0  0  0  0  0  0
   -0.0472    1.6164   -1.5893 O   0  0  0  0  0  0  0  0  0  0  0  0
   -0.8798    2.4326   -0.8192 C   0  0  0  0  0  0  0  0  0  0  0  0
   -0.4997    2.4840    0.5223 O   0  0  0  0  0  0  0  0  0  0  0  0
   -0.5652    1.1993    1.1241 C   0  0  0  0  0  0  0  0  0  0  0  0
    0.0229   -0.9187    0.7837 H   0  0  0  0  0  0  0  0  0  0  0  0
    1.3619    0.3683    0.5133 H   0  0  0  0  0  0  0  0  0  0  0  0
    0.6179   -0.2883   -1.7470 H   0  0  0  0  0  0  0  0  0  0  0  0
   -1.0867   -0.1407   -1.2671 H   0  0  0  0  0  0  0  0  0  0  0  0
   -1.9205    2.0698   -0.8941 H   0  0  0  0  0  0  0  0  0  0  0  0
   -0.7971    3.4415   -1.2170 H   0  0  0  0  0  0  0  0  0  0  0  0
   -1.6063    0.8478    1.1374 H   0  0  0  0  0  0  0  0  0  0  0  0
   -0.2233    1.3116    2.1507 H   0  0  0  0  0  0  0  0  0  0  0  0
  1  2  1  0
  1  4  1  0
  1  5  1  0
  1  6  1  0
  2  3  1  0
  2  7  1  0
  2  8  1  0
  3 15  1  0
  9 10  1  0
  9 14  1  0
  9 16  1  0
 10 11  1  0
 10 17  1  0
 10 18  1  0
 11 12  1  0
 12 13  1  0
 12 19  1  0
 12 20  1  0
 13 14  1  0
 14 21  1  0
 14 22  1  0
M  RAD  1   9   2
M  END
>  <reaction>  (4) 
rmg_rxn_377

>  <mol_properties>  (4) 
{"1": {"label": "*0", "atom_type": "Cs"}, "2": {"label": "*1", "atom_type": "O2s"}, "8": {"label": "*3", "atom_type": "Cs"}, "9": {"label": "*4", "atom_type": "Cs"}, "14": {"label": "*2", "atom_type": "H0"}}

>  <type>  (4) 
ts

$$$$
