
     RDKit          3D

 14 13  0  0  0  0  0  0  0  0999 V2000
    1.8106   -0.5953    0.5577 C   0  0  0  0  0  0  0  0  0  0  0  0
    0.5197    0.2064    0.6554 C   0  0  0  0  0  0  0  0  0  0  0  0
   -0.5206   -0.2080   -0.3788 C   0  0  0  0  0  0  0  0  0  0  0  0
   -1.8114    0.5937   -0.2812 C   0  0  0  0  0  0  0  0  0  0  0  0
    2.2725   -0.4752   -0.4251 H   0  0  0  0  0  0  0  0  0  0  0  0
    1.6214   -1.6612    0.7052 H   0  0  0  0  0  0  0  0  0  0  0  0
    2.5364   -0.2784    1.3084 H   0  0  0  0  0  0  0  0  0  0  0  0
    0.0930    0.0950    1.6574 H   0  0  0  0  0  0  0  0  0  0  0  0
    0.7393    1.2723    0.5354 H   0  0  0  0  0  0  0  0  0  0  0  0
   -0.7402   -1.2739   -0.2588 H   0  0  0  0  0  0  0  0  0  0  0  0
   -0.0938   -0.0965   -1.3808 H   0  0  0  0  0  0  0  0  0  0  0  0
   -1.6222    1.6596   -0.4287 H   0  0  0  0  0  0  0  0  0  0  0  0
   -2.2734    0.4736    0.7017 H   0  0  0  0  0  0  0  0  0  0  0  0
   -2.5373    0.2768   -1.0318 H   0  0  0  0  0  0  0  0  0  0  0  0
  1  2  1  0
  1  5  1  0
  1  6  1  0
  1  7  1  0
  2  3  1  0
  2  8  1  0
  2  9  1  0
  3  4  1  0
  3 10  1  0
  3 11  1  0
  4 12  1  0
  4 13  1  0
  4 14  1  0
M  END
>  <reaction>  (1) 
rmg_rxn_159

>  <mol_properties>  (1) 
{"2": {"label": "donator", "atom_type": "Cs"}, "10": {"label": "d_hydrogen", "atom_type": "H0"}}

>  <type>  (1) 
r1h

$$$$

     RDKit          3D

 17 16  0  0  0  0  0  0  0  0999 V2000
    3.2128    0.1260   -0.7228 C   0  0  0  0  0  3  0  0  0  0  0  0
    2.0005    0.6432   -0.0603 C   0  0  0  0  0  0  0  0  0  0  0  0
    0.8631    0.3123   -0.8103 O   0  0  0  0  0  0  0  0  0  0  0  0
   -0.3318    0.7959   -0.2483 C   0  0  0  0  0  0  0  0  0  0  0  0
   -1.5012    0.3530   -1.1031 C   0  0  0  0  0  0  0  0  0  0  0  0
   -1.6702   -1.1598   -1.1495 C   0  0  0  0  0  0  0  0  0  0  0  0
    4.1735    0.2150   -0.2365 H   0  0  0  0  0  0  0  0  0  0  0  0
    3.1498   -0.2831   -1.7202 H   0  0  0  0  0  0  0  0  0  0  0  0
    2.0642    1.7419    0.0625 H   0  0  0  0  0  0  0  0  0  0  0  0
    1.9152    0.2371    0.9639 H   0  0  0  0  0  0  0  0  0  0  0  0
   -0.4457    0.4113    0.7774 H   0  0  0  0  0  0  0  0  0  0  0  0
   -0.2986    1.8934   -0.1853 H   0  0  0  0  0  0  0  0  0  0  0  0
   -1.3614    0.7468   -2.1131 H   0  0  0  0  0  0  0  0  0  0  0  0
   -2.4051    0.8206   -0.7031 H   0  0  0  0  0  0  0  0  0  0  0  0
   -1.8374   -1.5641   -0.1481 H   0  0  0  0  0  0  0  0  0  0  0  0
   -0.7790   -1.6360   -1.5583 H   0  0  0  0  0  0  0  0  0  0  0  0
   -2.5223   -1.4403   -1.7702 H   0  0  0  0  0  0  0  0  0  0  0  0
  1  2  1  0
  1  7  1  0
  1  8  1  0
  2  3  1  0
  2  9  1  0
  2 10  1  0
  3  4  1  0
  4  5  1  0
  4 11  1  0
  4 12  1  0
  5  6  1  0
  5 13  1  0
  5 14  1  0
  6 15  1  0
  6 16  1  0
  6 17  1  0
M  RAD  1   1   2
M  END
>  <reaction>  (2) 
rmg_rxn_159

>  <mol_properties>  (2) 
{"0": {"label": "acceptor", "atom_type": "Cs"}}

>  <type>  (2) 
r2

$$$$

     RDKit          3D

 18 17  0  0  0  0  0  0  0  0999 V2000
    2.2026   -0.7213   -0.2612 C   0  0  0  0  0  0  0  0  0  0  0  0
    1.5384    0.2638    0.6915 C   0  0  0  0  0  0  0  0  0  0  0  0
    2.2584    1.5946    0.7694 C   0  0  0  0  0  0  0  0  0  0  0  0
    2.2212    2.2185   -0.4893 O   0  0  0  0  0  0  0  0  0  0  0  0
    2.8988    3.4488   -0.5204 C   0  0  0  0  0  0  0  0  0  0  0  0
    2.7981    4.0296   -1.9118 C   0  0  0  0  0  0  0  0  0  0  0  0
    3.2294   -0.9309    0.0486 H   0  0  0  0  0  0  0  0  0  0  0  0
    2.2338   -0.3181   -1.2734 H   0  0  0  0  0  0  0  0  0  0  0  0
    1.6610   -1.6680   -0.2875 H   0  0  0  0  0  0  0  0  0  0  0  0
    1.4990   -0.1566    1.7002 H   0  0  0  0  0  0  0  0  0  0  0  0
    0.5055    0.4455    0.3835 H   0  0  0  0  0  0  0  0  0  0  0  0
    3.3038    1.4410    1.0808 H   0  0  0  0  0  0  0  0  0  0  0  0
    1.7844    2.2410    1.5226 H   0  0  0  0  0  0  0  0  0  0  0  0
    2.4596    4.1376    0.2164 H   0  0  0  0  0  0  0  0  0  0  0  0
    3.9524    3.3035   -0.2397 H   0  0  0  0  0  0  0  0  0  0  0  0
    1.7543    4.1869   -2.1856 H   0  0  0  0  0  0  0  0  0  0  0  0
    3.2472    3.3545   -2.6411 H   0  0  0  0  0  0  0  0  0  0  0  0
    3.3178    4.9878   -1.9600 H   0  0  0  0  0  0  0  0  0  0  0  0
  1  2  1  0
  1  7  1  0
  1  8  1  0
  1  9  1  0
  2  3  1  0
  2 10  1  0
  2 11  1  0
  3  4  1  0
  3 12  1  0
  3 13  1  0
  4  5  1  0
  5  6  1  0
  5 14  1  0
  5 15  1  0
  6 16  1  0
  6 17  1  0
  6 18  1  0
M  END
>  <reaction>  (3) 
rmg_rxn_159

>  <mol_properties>  (3) 
{"0": {"label": "a_hydrogen", "atom_type": "H0"}, "1": {"label": "acceptor", "atom_type": "Cs"}}

>  <type>  (3) 
r2h

$$$$

     RDKit          3D

 31 29  0  0  0  0  0  0  0  0999 V2000
   -3.2201   -1.7892   -0.0385 C   0  0  0  0  0  0  0  0  0  0  0  0
   -2.2678   -2.1100    1.1060 C   0  0  0  0  0  0  0  0  0  0  0  0
   -2.0742   -0.9575    2.0616 C   0  0  0  0  0  0  0  0  0  0  0  0
   -1.1110   -1.1967    3.1960 C   0  0  0  0  0  0  0  0  0  0  0  0
   -2.8540   -0.9453   -0.6273 H   0  0  0  0  0  0  0  0  0  0  0  0
   -4.2091   -1.5223    0.3405 H   0  0  0  0  0  0  0  0  0  0  0  0
   -3.3374   -2.6412   -0.7098 H   0  0  0  0  0  0  0  0  0  0  0  0
   -2.6411   -2.9808    1.6601 H   0  0  0  0  0  0  0  0  0  0  0  0
   -1.2932   -2.4094    0.7051 H   0  0  0  0  0  0  0  0  0  0  0  0
   -3.0210   -0.5228    2.3898 H   0  0  0  0  0  0  0  0  0  0  0  0
   -1.5458    0.0052    1.3510 H   0  0  0  0  0  0  0  0  0  0  0  0
   -0.1321   -1.5041    2.8188 H   0  0  0  0  0  0  0  0  0  0  0  0
   -1.4679   -1.9904    3.8608 H   0  0  0  0  0  0  0  0  0  0  0  0
   -0.9714   -0.2977    3.7986 H   0  0  0  0  0  0  0  0  0  0  0  0
   -0.8560    0.9389    0.5916 C   0  0  0  0  0  3  0  0  0  0  0  0
    0.1320    0.1429   -0.2011 C   0  0  0  0  0  0  0  0  0  0  0  0
    0.9351    1.0047   -0.9775 O   0  0  0  0  0  0  0  0  0  0  0  0
    1.8872    0.3194   -1.7528 C   0  0  0  0  0  0  0  0  0  0  0  0
    2.7271    1.3223   -2.5172 C   0  0  0  0  0  0  0  0  0  0  0  0
    3.5367    2.2395   -1.6103 C   0  0  0  0  0  0  0  0  0  0  0  0
   -0.4118    1.5967    1.3351 H   0  0  0  0  0  0  0  0  0  0  0  0
   -1.6226    1.4337   -0.0001 H   0  0  0  0  0  0  0  0  0  0  0  0
   -0.3897   -0.5682   -0.8593 H   0  0  0  0  0  0  0  0  0  0  0  0
    0.7708   -0.4497    0.4715 H   0  0  0  0  0  0  0  0  0  0  0  0
    2.5303   -0.2937   -1.1015 H   0  0  0  0  0  0  0  0  0  0  0  0
    1.3815   -0.3648   -2.4501 H   0  0  0  0  0  0  0  0  0  0  0  0
    2.0657    1.9140   -3.1552 H   0  0  0  0  0  0  0  0  0  0  0  0
    3.3940    0.7657   -3.1816 H   0  0  0  0  0  0  0  0  0  0  0  0
    4.2204    1.6623   -0.9827 H   0  0  0  0  0  0  0  0  0  0  0  0
    2.8802    2.8103   -0.9536 H   0  0  0  0  0  0  0  0  0  0  0  0
    4.1318    2.9433   -2.1941 H   0  0  0  0  0  0  0  0  0  0  0  0
  1  2  1  0
  1  5  1  0
  1  6  1  0
  1  7  1  0
  2  3  1  0
  2  8  1  0
  2  9  1  0
  3  4  1  0
  3 10  1  0
  3 11  1  0
  4 12  1  0
  4 13  1  0
  4 14  1  0
 15 16  1  0
 15 21  1  0
 15 22  1  0
 16 17  1  0
 16 23  1  0
 16 24  1  0
 17 18  1  0
 18 19  1  0
 18 25  1  0
 18 26  1  0
 19 20  1  0
 19 27  1  0
 19 28  1  0
 20 29  1  0
 20 30  1  0
 20 31  1  0
M  RAD  1  15   2
M  END
>  <reaction>  (4) 
rmg_rxn_159

>  <mol_properties>  (4) 
{"1": {"label": "*0", "atom_type": "Cs"}, "2": {"label": "*1", "atom_type": "Cs"}, "10": {"label": "*2", "atom_type": "H0"}, "14": {"label": "*3", "atom_type": "Cs"}, "15": {"label": "*4", "atom_type": "Cs"}}

>  <type>  (4) 
ts

$$$$
