
     RDKit          3D

  5  4  0  0  0  0  0  0  0  0999 V2000
   -1.2140    0.4407   -0.1412 O   0  0  0  0  0  0  0  0  0  0  0  0
    0.1185    0.5703   -0.2937 N   0  0  0  0  0  0  0  0  0  0  0  0
    0.7309   -0.3922    0.1486 N   0  0  0  0  0  0  0  0  0  0  0  0
   -1.3561   -0.4179    0.2986 H   0  0  0  0  0  0  0  0  0  0  0  0
    1.7208   -0.2009   -0.0123 H   0  0  0  0  0  0  0  0  0  0  0  0
  1  2  1  0
  1  4  1  0
  2  3  2  3
  3  5  1  0
M  END
>  <reaction>  (1) 
rmg_rxn_16743

>  <mol_properties>  (1) 
{"0": {"label": "donator", "atom_type": "O2s"}, "3": {"label": "d_hydrogen", "atom_type": "H0"}}

>  <type>  (1) 
r1h

$$$$

     RDKit          3D

  7  6  0  0  0  0  0  0  0  0999 V2000
   -0.6441   -0.1356    0.0624 C   0  0  0  0  0  0  0  0  0  0  0  0
    0.8523    0.0148   -0.0333 C   0  0  0  0  0  0  0  0  0  0  0  0
    1.6700   -0.6077    0.6603 N   0  0  0  0  0  2  0  0  0  0  0  0
   -1.0940    0.8275    0.3091 H   0  0  0  0  0  0  0  0  0  0  0  0
   -0.9104   -0.8656    0.8237 H   0  0  0  0  0  0  0  0  0  0  0  0
   -1.0427   -0.4545   -0.9022 H   0  0  0  0  0  0  0  0  0  0  0  0
    1.2362    0.7308   -0.7748 H   0  0  0  0  0  0  0  0  0  0  0  0
  1  2  1  0
  1  4  1  0
  1  5  1  0
  1  6  1  0
  2  3  2  0
  2  7  1  0
M  RAD  1   3   2
M  END
>  <reaction>  (2) 
rmg_rxn_16743

>  <mol_properties>  (2) 
{"2": {"label": "acceptor", "atom_type": "N3d"}}

>  <type>  (2) 
r2

$$$$

     RDKit          3D

  8  7  0  0  0  0  0  0  0  0999 V2000
    0.9548    0.1194   -0.0790 C   0  0  0  0  0  0  0  0  0  0  0  0
   -0.4838   -0.2649    0.0193 C   0  0  0  0  0  0  0  0  0  0  0  0
   -0.8933   -1.1081    0.8664 N   0  0  0  0  0  0  0  0  0  0  0  0
    1.3360   -0.0983   -1.0800 H   0  0  0  0  0  0  0  0  0  0  0  0
    1.0698    1.1948    0.0786 H   0  0  0  0  0  0  0  0  0  0  0  0
    1.5426   -0.4219    0.6602 H   0  0  0  0  0  0  0  0  0  0  0  0
   -1.1575    0.2324   -0.6905 H   0  0  0  0  0  0  0  0  0  0  0  0
   -1.8989   -1.2455    0.7886 H   0  0  0  0  0  0  0  0  0  0  0  0
  1  2  1  0
  1  4  1  0
  1  5  1  0
  1  6  1  0
  2  3  2  3
  2  7  1  0
  3  8  1  0
M  END
>  <reaction>  (3) 
rmg_rxn_16743

>  <mol_properties>  (3) 
{"0": {"label": "a_hydrogen", "atom_type": "H0"}, "3": {"label": "acceptor", "atom_type": "N3d"}}

>  <type>  (3) 
r2h

$$$$

     RDKit          3D

 12 10  0  0  0  0  0  0  0  0999 V2000
    1.2003   -1.4950   -0.2049 O   0  0  0  0  0  1  0  0  0  0  0  0
    0.2252   -2.0705    0.3825 N   0  0  0  0  0  0  0  0  0  0  0  0
   -0.6951   -1.3704    0.8167 N   0  0  0  0  0  0  0  0  0  0  0  0
    1.1575   -0.2552   -0.1569 H   0  0  0  0  0  0  0  0  0  0  0  0
   -1.3565   -2.0130    1.2525 H   0  0  0  0  0  0  0  0  0  0  0  0
   -0.1530    2.9112   -0.9181 C   0  0  0  0  0  0  0  0  0  0  0  0
    0.0166    1.4386   -0.6961 C   0  0  0  0  0  0  0  0  0  0  0  0
    1.0739    0.9503   -0.2476 N   0  0  0  0  0  0  0  0  0  0  0  0
   -0.3886    3.0959   -1.9679 H   0  0  0  0  0  0  0  0  0  0  0  0
    0.7491    3.4535   -0.6435 H   0  0  0  0  0  0  0  0  0  0  0  0
   -0.9942    3.2715   -0.3228 H   0  0  0  0  0  0  0  0  0  0  0  0
   -0.8351    0.7959   -0.9376 H   0  0  0  0  0  0  0  0  0  0  0  0
  1  2  1  0
  2  3  2  3
  3  5  1  0
  4  8  1  0
  6  7  1  0
  6  9  1  0
  6 10  1  0
  6 11  1  0
  7  8  2  3
  7 12  1  0
M  RAD  1   1   2
M  END
>  <reaction>  (4) 
rmg_rxn_16743

>  <mol_properties>  (4) 
{"0": {"label": "*3", "atom_type": "O2s"}, "1": {"label": "*4", "atom_type": "N3d"}, "3": {"label": "*2", "atom_type": "H0"}, "6": {"label": "*0", "atom_type": "Cd"}, "7": {"label": "*1", "atom_type": "N3d"}}

>  <type>  (4) 
ts

$$$$
