
     RDKit          3D

 12 11  0  0  0  0  0  0  0  0999 V2000
    1.4428    0.2441    1.3554 C   0  0  0  0  0  0  0  0  0  0  0  0
    0.3166    0.4887    0.4026 C   0  0  0  0  0  0  0  0  0  0  0  0
   -0.8306    1.0759    0.7113 C   0  0  0  0  0  0  0  0  0  0  0  0
   -1.9569    1.3205   -0.2415 C   0  0  0  0  0  0  0  0  0  0  0  0
    1.6690   -0.8228    1.4301 H   0  0  0  0  0  0  0  0  0  0  0  0
    2.3573    0.7388    1.0175 H   0  0  0  0  0  0  0  0  0  0  0  0
    1.2058    0.6125    2.3545 H   0  0  0  0  0  0  0  0  0  0  0  0
    0.4700    0.1508   -0.6205 H   0  0  0  0  0  0  0  0  0  0  0  0
   -0.9840    1.4138    1.7343 H   0  0  0  0  0  0  0  0  0  0  0  0
   -2.8714    0.8258    0.0963 H   0  0  0  0  0  0  0  0  0  0  0  0
   -2.1831    2.3874   -0.3163 H   0  0  0  0  0  0  0  0  0  0  0  0
   -1.7199    0.9521   -1.2407 H   0  0  0  0  0  0  0  0  0  0  0  0
  1  2  1  0
  1  5  1  0
  1  6  1  0
  1  7  1  0
  2  3  2  3
  2  8  1  0
  3  4  1  0
  3  9  1  0
  4 10  1  0
  4 11  1  0
  4 12  1  0
M  END
>  <reaction>  (1) 
rmg_rxn_16738

>  <mol_properties>  (1) 
{"2": {"label": "donator", "atom_type": "Cd"}, "8": {"label": "d_hydrogen", "atom_type": "H0"}}

>  <type>  (1) 
r1h

$$$$

     RDKit          3D

  7  6  0  0  0  0  0  0  0  0999 V2000
   -0.8570   -0.1273   -0.1355 C   0  0  0  0  0  0  0  0  0  0  0  0
    0.5149   -0.3703    0.3747 C   0  0  0  0  0  3  0  0  0  0  0  0
    1.4485    0.4169    0.5315 N   0  0  0  0  0  0  0  0  0  0  0  0
   -1.0355   -0.7472   -1.0151 H   0  0  0  0  0  0  0  0  0  0  0  0
   -1.5861   -0.4201    0.6211 H   0  0  0  0  0  0  0  0  0  0  0  0
   -0.9996    0.9259   -0.3940 H   0  0  0  0  0  0  0  0  0  0  0  0
    2.3199    0.0433    0.8994 H   0  0  0  0  0  0  0  0  0  0  0  0
  1  2  1  0
  1  4  1  0
  1  5  1  0
  1  6  1  0
  2  3  2  3
  3  7  1  0
M  RAD  1   2   2
M  END
>  <reaction>  (2) 
rmg_rxn_16738

>  <mol_properties>  (2) 
{"1": {"label": "acceptor", "atom_type": "Cd"}}

>  <type>  (2) 
r2

$$$$

     RDKit          3D

  8  7  0  0  0  0  0  0  0  0999 V2000
    0.9548    0.1194   -0.0790 C   0  0  0  0  0  0  0  0  0  0  0  0
   -0.4838   -0.2649    0.0193 C   0  0  0  0  0  0  0  0  0  0  0  0
   -0.8933   -1.1081    0.8664 N   0  0  0  0  0  0  0  0  0  0  0  0
    1.3360   -0.0983   -1.0800 H   0  0  0  0  0  0  0  0  0  0  0  0
    1.0698    1.1948    0.0786 H   0  0  0  0  0  0  0  0  0  0  0  0
    1.5426   -0.4219    0.6602 H   0  0  0  0  0  0  0  0  0  0  0  0
   -1.1575    0.2324   -0.6905 H   0  0  0  0  0  0  0  0  0  0  0  0
   -1.8989   -1.2455    0.7886 H   0  0  0  0  0  0  0  0  0  0  0  0
  1  2  1  0
  1  4  1  0
  1  5  1  0
  1  6  1  0
  2  3  2  3
  2  7  1  0
  3  8  1  0
M  END
>  <reaction>  (3) 
rmg_rxn_16738

>  <mol_properties>  (3) 
{"1": {"label": "acceptor", "atom_type": "Cd"}, "7": {"label": "a_hydrogen", "atom_type": "H0"}}

>  <type>  (3) 
r2h

$$$$

     RDKit          3D

 19 17  0  0  0  0  0  0  0  0999 V2000
   -1.3349    2.0907   -0.6521 C   0  0  0  0  0  0  0  0  0  0  0  0
   -0.0099    1.4304   -0.4900 C   0  0  0  0  0  0  0  0  0  0  0  0
    1.0849    1.9111   -0.8576 N   0  0  0  0  0  0  0  0  0  0  0  0
   -1.9967    1.4485   -1.2374 H   0  0  0  0  0  0  0  0  0  0  0  0
   -1.8028    2.2257    0.3256 H   0  0  0  0  0  0  0  0  0  0  0  0
   -1.2295    3.0579   -1.1443 H   0  0  0  0  0  0  0  0  0  0  0  0
    1.8683    1.2916   -0.6520 H   0  0  0  0  0  0  0  0  0  0  0  0
    0.6889   -1.9733   -1.4797 C   0  0  0  0  0  0  0  0  0  0  0  0
    0.3156   -2.0204   -0.0287 C   0  0  0  0  0  0  0  0  0  0  0  0
   -0.0519   -0.9993    0.7156 C   0  0  0  0  0  3  0  0  0  0  0  0
   -0.4420   -0.9292    2.1438 C   0  0  0  0  0  0  0  0  0  0  0  0
    1.7077   -2.3388   -1.6306 H   0  0  0  0  0  0  0  0  0  0  0  0
    0.0303   -2.6150   -2.0702 H   0  0  0  0  0  0  0  0  0  0  0  0
    0.6263   -0.9610   -1.8787 H   0  0  0  0  0  0  0  0  0  0  0  0
    0.3578   -3.0073    0.4407 H   0  0  0  0  0  0  0  0  0  0  0  0
   -0.0651    0.2802    0.0718 H   0  0  0  0  0  0  0  0  0  0  0  0
    0.2096   -0.2486    2.6972 H   0  0  0  0  0  0  0  0  0  0  0  0
   -1.4643   -0.5590    2.2555 H   0  0  0  0  0  0  0  0  0  0  0  0
   -0.3850   -1.9151    2.6167 H   0  0  0  0  0  0  0  0  0  0  0  0
  1  2  1  0
  1  4  1  0
  1  5  1  0
  1  6  1  0
  2  3  2  3
  2 16  1  0
  3  7  1  0
  8  9  1  0
  8 12  1  0
  8 13  1  0
  8 14  1  0
  9 10  2  3
  9 15  1  0
 10 11  1  0
 11 17  1  0
 11 18  1  0
 11 19  1  0
M  RAD  1  10   2
M  END
>  <reaction>  (4) 
rmg_rxn_16738

>  <mol_properties>  (4) 
{"1": {"label": "*1", "atom_type": "Cd"}, "2": {"label": "*0", "atom_type": "N3d"}, "8": {"label": "*4", "atom_type": "Cd"}, "9": {"label": "*3", "atom_type": "Cd"}, "15": {"label": "*2", "atom_type": "H0"}}

>  <type>  (4) 
ts

$$$$
