
     RDKit          3D

 18 17  0  0  0  0  0  0  0  0999 V2000
    2.2026   -0.7213   -0.2612 C   0  0  0  0  0  0  0  0  0  0  0  0
    1.5384    0.2638    0.6915 C   0  0  0  0  0  0  0  0  0  0  0  0
    2.2584    1.5946    0.7694 C   0  0  0  0  0  0  0  0  0  0  0  0
    2.2212    2.2185   -0.4893 O   0  0  0  0  0  0  0  0  0  0  0  0
    2.8988    3.4488   -0.5204 C   0  0  0  0  0  0  0  0  0  0  0  0
    2.7981    4.0296   -1.9118 C   0  0  0  0  0  0  0  0  0  0  0  0
    3.2294   -0.9309    0.0486 H   0  0  0  0  0  0  0  0  0  0  0  0
    2.2338   -0.3181   -1.2734 H   0  0  0  0  0  0  0  0  0  0  0  0
    1.6610   -1.6680   -0.2875 H   0  0  0  0  0  0  0  0  0  0  0  0
    1.4990   -0.1566    1.7002 H   0  0  0  0  0  0  0  0  0  0  0  0
    0.5055    0.4455    0.3835 H   0  0  0  0  0  0  0  0  0  0  0  0
    3.3038    1.4410    1.0808 H   0  0  0  0  0  0  0  0  0  0  0  0
    1.7844    2.2410    1.5226 H   0  0  0  0  0  0  0  0  0  0  0  0
    2.4596    4.1376    0.2164 H   0  0  0  0  0  0  0  0  0  0  0  0
    3.9524    3.3035   -0.2397 H   0  0  0  0  0  0  0  0  0  0  0  0
    1.7543    4.1869   -2.1856 H   0  0  0  0  0  0  0  0  0  0  0  0
    3.2472    3.3545   -2.6411 H   0  0  0  0  0  0  0  0  0  0  0  0
    3.3178    4.9878   -1.9600 H   0  0  0  0  0  0  0  0  0  0  0  0
  1  2  1  0
  1  7  1  0
  1  8  1  0
  1  9  1  0
  2  3  1  0
  2 10  1  0
  2 11  1  0
  3  4  1  0
  3 12  1  0
  3 13  1  0
  4  5  1  0
  5  6  1  0
  5 14  1  0
  5 15  1  0
  6 16  1  0
  6 17  1  0
  6 18  1  0
M  END
>  <reaction>  (1) 
rmg_rxn_337

>  <mol_properties>  (1) 
{"2": {"label": "donator", "atom_type": "Cs"}, "11": {"label": "d_hydrogen", "atom_type": "H0"}}

>  <type>  (1) 
r1h

$$$$

     RDKit          3D

 13 13  0  0  0  0  0  0  0  0999 V2000
   -1.1371    0.3608    0.3110 C   0  0  0  0  0  3  0  0  0  0  0  0
   -0.0045    1.3224    0.2943 C   0  0  0  0  0  0  0  0  0  0  0  0
    1.2245    0.6965    0.6137 O   0  0  0  0  0  0  0  0  0  0  0  0
    1.3926   -0.4921   -0.0955 C   0  0  0  0  0  0  0  0  0  0  0  0
    0.4387   -1.4537    0.2351 O   0  0  0  0  0  0  0  0  0  0  0  0
   -0.8659   -1.0349   -0.1206 C   0  0  0  0  0  0  0  0  0  0  0  0
   -2.1544    0.7285    0.3341 H   0  0  0  0  0  0  0  0  0  0  0  0
   -0.1488    2.1272    1.0165 H   0  0  0  0  0  0  0  0  0  0  0  0
    0.0825    1.7949   -0.7036 H   0  0  0  0  0  0  0  0  0  0  0  0
    1.3549   -0.2872   -1.1815 H   0  0  0  0  0  0  0  0  0  0  0  0
    2.3646   -0.8956    0.1787 H   0  0  0  0  0  0  0  0  0  0  0  0
   -1.5620   -1.7401    0.3358 H   0  0  0  0  0  0  0  0  0  0  0  0
   -0.9852   -1.1268   -1.2179 H   0  0  0  0  0  0  0  0  0  0  0  0
  1  2  1  0
  1  6  1  0
  1  7  1  0
  2  3  1  0
  2  8  1  0
  2  9  1  0
  3  4  1  0
  4  5  1  0
  4 10  1  0
  4 11  1  0
  5  6  1  0
  6 12  1  0
  6 13  1  0
M  RAD  1   1   2
M  END
>  <reaction>  (2) 
rmg_rxn_337

>  <mol_properties>  (2) 
{"0": {"label": "acceptor", "atom_type": "Cs"}}

>  <type>  (2) 
r2

$$$$

     RDKit          3D

 14 14  0  0  0  0  0  0  0  0999 V2000
   -1.1778    0.2241    0.1818 C   0  0  0  0  0  0  0  0  0  0  0  0
   -0.5633   -1.1636    0.0678 C   0  0  0  0  0  0  0  0  0  0  0  0
    0.6943   -1.1996    0.7146 O   0  0  0  0  0  0  0  0  0  0  0  0
    1.5547   -0.2288    0.2011 C   0  0  0  0  0  0  0  0  0  0  0  0
    1.0729    1.0696    0.3698 O   0  0  0  0  0  0  0  0  0  0  0  0
   -0.1607    1.2493   -0.2989 C   0  0  0  0  0  0  0  0  0  0  0  0
   -2.0927    0.2866   -0.4117 H   0  0  0  0  0  0  0  0  0  0  0  0
   -1.4303    0.4248    1.2248 H   0  0  0  0  0  0  0  0  0  0  0  0
   -1.1822   -1.9235    0.5431 H   0  0  0  0  0  0  0  0  0  0  0  0
   -0.4389   -1.4347   -0.9919 H   0  0  0  0  0  0  0  0  0  0  0  0
    1.7250   -0.4207   -0.8742 H   0  0  0  0  0  0  0  0  0  0  0  0
    2.4896   -0.3010    0.7524 H   0  0  0  0  0  0  0  0  0  0  0  0
   -0.0080    1.1481   -1.3844 H   0  0  0  0  0  0  0  0  0  0  0  0
   -0.4826    2.2695   -0.0942 H   0  0  0  0  0  0  0  0  0  0  0  0
  1  2  1  0
  1  6  1  0
  1  7  1  0
  1  8  1  0
  2  3  1  0
  2  9  1  0
  2 10  1  0
  3  4  1  0
  4  5  1  0
  4 11  1  0
  4 12  1  0
  5  6  1  0
  6 13  1  0
  6 14  1  0
M  END
>  <reaction>  (3) 
rmg_rxn_337

>  <mol_properties>  (3) 
{"0": {"label": "acceptor", "atom_type": "Cs"}, "13": {"label": "a_hydrogen", "atom_type": "H0"}}

>  <type>  (3) 
r2h

$$$$

     RDKit          3D

 31 30  0  0  0  0  0  0  0  0999 V2000
    1.0813    0.3785    0.3869 C   0  0  0  0  0  3  0  0  0  0  0  0
    2.2021   -0.4968   -0.1062 C   0  0  0  0  0  0  0  0  0  0  0  0
    3.1384    0.2753   -0.8518 O   0  0  0  0  0  0  0  0  0  0  0  0
    2.5046    0.9568   -1.8921 C   0  0  0  0  0  0  0  0  0  0  0  0
    1.5405    1.8620   -1.4483 O   0  0  0  0  0  0  0  0  0  0  0  0
    0.5020    1.1912   -0.7399 C   0  0  0  0  0  0  0  0  0  0  0  0
    1.3485    0.9723    1.2597 H   0  0  0  0  0  0  0  0  0  0  0  0
    2.7589   -0.9561    0.7091 H   0  0  0  0  0  0  0  0  0  0  0  0
    1.8101   -1.2979   -0.7510 H   0  0  0  0  0  0  0  0  0  0  0  0
    2.0347    0.2259   -2.5763 H   0  0  0  0  0  0  0  0  0  0  0  0
    3.2683    1.5286   -2.4154 H   0  0  0  0  0  0  0  0  0  0  0  0
   -0.0481    0.5433   -1.4378 H   0  0  0  0  0  0  0  0  0  0  0  0
   -0.1805    1.9631   -0.3870 H   0  0  0  0  0  0  0  0  0  0  0  0
   -1.1384   -2.3391   -1.0395 C   0  0  0  0  0  0  0  0  0  0  0  0
   -0.9897   -2.4799    0.4704 C   0  0  0  0  0  0  0  0  0  0  0  0
   -1.0006   -1.1694    1.2119 C   0  0  0  0  0  0  0  0  0  0  0  0
   -2.1202   -0.4188    0.9097 O   0  0  0  0  0  0  0  0  0  0  0  0
   -2.2742    0.7343    1.7097 C   0  0  0  0  0  0  0  0  0  0  0  0
   -3.4593    1.5222    1.2058 C   0  0  0  0  0  0  0  0  0  0  0  0
   -0.3132   -1.7663   -1.4666 H   0  0  0  0  0  0  0  0  0  0  0  0
   -2.0663   -1.8267   -1.2919 H   0  0  0  0  0  0  0  0  0  0  0  0
   -1.1473   -3.3187   -1.5189 H   0  0  0  0  0  0  0  0  0  0  0  0
   -0.0535   -2.9904    0.7130 H   0  0  0  0  0  0  0  0  0  0  0  0
   -1.7976   -3.1101    0.8585 H   0  0  0  0  0  0  0  0  0  0  0  0
    0.0362   -0.4749    0.8445 H   0  0  0  0  0  0  0  0  0  0  0  0
   -0.8574   -1.2855    2.2945 H   0  0  0  0  0  0  0  0  0  0  0  0
   -2.4184    0.4360    2.7569 H   0  0  0  0  0  0  0  0  0  0  0  0
   -1.3598    1.3395    1.6650 H   0  0  0  0  0  0  0  0  0  0  0  0
   -4.3665    0.9186    1.2471 H   0  0  0  0  0  0  0  0  0  0  0  0
   -3.2999    1.8352    0.1733 H   0  0  0  0  0  0  0  0  0  0  0  0
   -3.6067    2.4123    1.8189 H   0  0  0  0  0  0  0  0  0  0  0  0
  1  2  1  0
  1  6  1  0
  1  7  1  0
  2  3  1  0
  2  8  1  0
  2  9  1  0
  3  4  1  0
  4  5  1  0
  4 10  1  0
  4 11  1  0
  5  6  1  0
  6 12  1  0
  6 13  1  0
 14 15  1  0
 14 20  1  0
 14 21  1  0
 14 22  1  0
 15 16  1  0
 15 23  1  0
 15 24  1  0
 16 17  1  0
 16 25  1  0
 16 26  1  0
 17 18  1  0
 18 19  1  0
 18 27  1  0
 18 28  1  0
 19 29  1  0
 19 30  1  0
 19 31  1  0
M  RAD  1   1   2
M  END
>  <reaction>  (4) 
rmg_rxn_337

>  <mol_properties>  (4) 
{"0": {"label": "*3", "atom_type": "Cs"}, "1": {"label": "*4", "atom_type": "Cs"}, "15": {"label": "*1", "atom_type": "Cs"}, "16": {"label": "*0", "atom_type": "O2s"}, "24": {"label": "*2", "atom_type": "H0"}}

>  <type>  (4) 
ts

$$$$
