
     RDKit          3D

 15 14  0  0  0  0  0  0  0  0999 V2000
   -1.2811   -0.4129    1.0228 C   0  0  0  0  0  0  0  0  0  0  0  0
   -1.0023   -0.5809   -0.4650 C   0  0  0  0  0  0  0  0  0  0  0  0
   -2.0576    0.0568   -1.3449 C   0  0  0  0  0  0  0  0  0  0  0  0
   -2.0663    1.4464   -1.1307 O   0  0  0  0  0  0  0  0  0  0  0  0
   -3.0424    2.1072   -1.8849 C   0  0  0  0  0  0  0  0  0  0  0  0
   -2.2382   -0.8657    1.2935 H   0  0  0  0  0  0  0  0  0  0  0  0
   -1.3219    0.6426    1.2914 H   0  0  0  0  0  0  0  0  0  0  0  0
   -0.5042   -0.8881    1.6236 H   0  0  0  0  0  0  0  0  0  0  0  0
   -0.0316   -0.1460   -0.7167 H   0  0  0  0  0  0  0  0  0  0  0  0
   -0.9494   -1.6429   -0.7203 H   0  0  0  0  0  0  0  0  0  0  0  0
   -1.8518   -0.1570   -2.4041 H   0  0  0  0  0  0  0  0  0  0  0  0
   -3.0491   -0.3636   -1.1124 H   0  0  0  0  0  0  0  0  0  0  0  0
   -4.0521    1.7545   -1.6343 H   0  0  0  0  0  0  0  0  0  0  0  0
   -2.8850    1.9634   -2.9626 H   0  0  0  0  0  0  0  0  0  0  0  0
   -2.9730    3.1700   -1.6570 H   0  0  0  0  0  0  0  0  0  0  0  0
  1  2  1  0
  1  6  1  0
  1  7  1  0
  1  8  1  0
  2  3  1  0
  2  9  1  0
  2 10  1  0
  3  4  1  0
  3 11  1  0
  3 12  1  0
  4  5  1  0
  5 13  1  0
  5 14  1  0
  5 15  1  0
M  END
>  <reaction>  (1) 
rmg_rxn_16613

>  <mol_properties>  (1) 
{"1": {"label": "donator", "atom_type": "Cs"}, "8": {"label": "d_hydrogen", "atom_type": "H0"}}

>  <type>  (1) 
r1h

$$$$

     RDKit          3D

  7  6  0  0  0  0  0  0  0  0999 V2000
   -0.8791   -0.0512   -0.1120 C   0  0  0  0  0  0  0  0  0  0  0  0
    0.2559    0.5034    0.6662 C   0  0  0  0  0  3  0  0  0  0  0  0
    1.4643    0.2947    0.5554 N   0  0  0  0  0  0  0  0  0  0  0  0
   -0.5267   -0.7414   -0.8839 H   0  0  0  0  0  0  0  0  0  0  0  0
   -1.5634   -0.5717    0.5592 H   0  0  0  0  0  0  0  0  0  0  0  0
   -1.4369    0.7630   -0.5765 H   0  0  0  0  0  0  0  0  0  0  0  0
    2.0849    0.7820    1.1971 H   0  0  0  0  0  0  0  0  0  0  0  0
  1  2  1  0
  1  4  1  0
  1  5  1  0
  1  6  1  0
  2  3  2  3
  3  7  1  0
M  RAD  1   2   2
M  END
>  <reaction>  (2) 
rmg_rxn_16613

>  <mol_properties>  (2) 
{"1": {"label": "acceptor", "atom_type": "Cd"}}

>  <type>  (2) 
r2

$$$$

     RDKit          3D

  8  7  0  0  0  0  0  0  0  0999 V2000
    0.9548    0.1194   -0.0790 C   0  0  0  0  0  0  0  0  0  0  0  0
   -0.4838   -0.2649    0.0193 C   0  0  0  0  0  0  0  0  0  0  0  0
   -0.8933   -1.1081    0.8664 N   0  0  0  0  0  0  0  0  0  0  0  0
    1.3360   -0.0983   -1.0800 H   0  0  0  0  0  0  0  0  0  0  0  0
    1.0698    1.1948    0.0786 H   0  0  0  0  0  0  0  0  0  0  0  0
    1.5426   -0.4219    0.6602 H   0  0  0  0  0  0  0  0  0  0  0  0
   -1.1575    0.2324   -0.6905 H   0  0  0  0  0  0  0  0  0  0  0  0
   -1.8989   -1.2455    0.7886 H   0  0  0  0  0  0  0  0  0  0  0  0
  1  2  1  0
  1  4  1  0
  1  5  1  0
  1  6  1  0
  2  3  2  3
  2  7  1  0
  3  8  1  0
M  END
>  <reaction>  (3) 
rmg_rxn_16613

>  <mol_properties>  (3) 
{"1": {"label": "acceptor", "atom_type": "Cd"}, "7": {"label": "a_hydrogen", "atom_type": "H0"}}

>  <type>  (3) 
r2h

$$$$

     RDKit          3D

 22 20  0  0  0  0  0  0  0  0999 V2000
   -0.7783   -2.9964    0.7866 C   0  0  0  0  0  0  0  0  0  0  0  0
   -0.8553   -1.5283    0.5422 C   0  0  0  0  0  0  0  0  0  0  0  0
   -1.8377   -0.7962    0.7789 N   0  0  0  0  0  0  0  0  0  0  0  0
   -1.7104   -3.3667    1.2158 H   0  0  0  0  0  0  0  0  0  0  0  0
   -0.5755   -3.5177   -0.1515 H   0  0  0  0  0  0  0  0  0  0  0  0
    0.0499   -3.2183    1.4632 H   0  0  0  0  0  0  0  0  0  0  0  0
   -1.6481    0.1742    0.5223 H   0  0  0  0  0  0  0  0  0  0  0  0
    1.0587   -0.3400   -2.0338 C   0  0  0  0  0  0  0  0  0  0  0  0
    1.2980   -0.2977   -0.5482 C   0  0  0  0  0  3  0  0  0  0  0  0
    1.2410    1.0526    0.1021 C   0  0  0  0  0  0  0  0  0  0  0  0
   -0.0195    1.6435   -0.1348 O   0  0  0  0  0  0  0  0  0  0  0  0
   -0.1252    2.9341    0.4033 C   0  0  0  0  0  0  0  0  0  0  0  0
    1.8324    0.2143   -2.5779 H   0  0  0  0  0  0  0  0  0  0  0  0
    0.0962    0.1071   -2.2854 H   0  0  0  0  0  0  0  0  0  0  0  0
    1.0660   -1.3662   -2.4046 H   0  0  0  0  0  0  0  0  0  0  0  0
    0.2438   -0.9943    0.0227 H   0  0  0  0  0  0  0  0  0  0  0  0
    2.1716   -0.8613   -0.2209 H   0  0  0  0  0  0  0  0  0  0  0  0
    1.4137    0.9630    1.1844 H   0  0  0  0  0  0  0  0  0  0  0  0
    2.0304    1.7118   -0.3000 H   0  0  0  0  0  0  0  0  0  0  0  0
    0.6193    3.6108   -0.0353 H   0  0  0  0  0  0  0  0  0  0  0  0
    0.0103    2.9272    1.4926 H   0  0  0  0  0  0  0  0  0  0  0  0
   -1.1220    3.3068    0.1723 H   0  0  0  0  0  0  0  0  0  0  0  0
  1  2  1  0
  1  4  1  0
  1  5  1  0
  1  6  1  0
  2  3  2  3
  2 16  1  0
  3  7  1  0
  8  9  1  0
  8 13  1  0
  8 14  1  0
  8 15  1  0
  9 10  1  0
  9 17  1  0
 10 11  1  0
 10 18  1  0
 10 19  1  0
 11 12  1  0
 12 20  1  0
 12 21  1  0
 12 22  1  0
M  RAD  1   9   2
M  END
>  <reaction>  (4) 
rmg_rxn_16613

>  <mol_properties>  (4) 
{"1": {"label": "*1", "atom_type": "Cd"}, "2": {"label": "*0", "atom_type": "N3d"}, "8": {"label": "*3", "atom_type": "Cs"}, "9": {"label": "*4", "atom_type": "Cs"}, "15": {"label": "*2", "atom_type": "H0"}}

>  <type>  (4) 
ts

$$$$
