
     RDKit          3D

  5  4  0  0  0  0  0  0  0  0999 V2000
   -0.3689   -0.0540    0.1184 C   0  0  0  0  0  0  0  0  0  0  0  0
    0.7862    0.4359    0.2394 N   0  0  0  0  0  0  0  0  0  0  0  0
   -0.6872   -0.7035   -0.7033 H   0  0  0  0  0  0  0  0  0  0  0  0
   -1.1194    0.1733    0.8758 H   0  0  0  0  0  0  0  0  0  0  0  0
    1.3892    0.1482   -0.5303 H   0  0  0  0  0  0  0  0  0  0  0  0
  1  2  2  3
  1  3  1  0
  1  4  1  0
  2  5  1  0
M  END
>  <reaction>  (1) 
rmg_rxn_15675

>  <mol_properties>  (1) 
{"1": {"label": "donator", "atom_type": "N3d"}, "4": {"label": "d_hydrogen", "atom_type": "H0"}}

>  <type>  (1) 
r1h

$$$$

     RDKit          3D

  8  7  0  0  0  0  0  0  0  0999 V2000
    1.7077   -0.1964   -0.0607 C   0  0  0  0  0  3  0  0  0  0  0  0
    0.4209   -0.4565    0.2808 O   0  0  0  0  0  0  0  0  0  0  0  0
   -0.4607    0.4385   -0.2968 N   0  0  0  0  0  0  0  0  0  0  0  0
   -1.6584    0.1416   -0.0244 C   0  0  0  0  0  0  0  0  0  0  0  0
    2.4163   -0.7685    0.5170 H   0  0  0  0  0  0  0  0  0  0  0  0
    1.9214    0.7645   -0.5045 H   0  0  0  0  0  0  0  0  0  0  0  0
   -2.4185    0.7953   -0.4307 H   0  0  0  0  0  0  0  0  0  0  0  0
   -1.9286   -0.7185    0.5831 H   0  0  0  0  0  0  0  0  0  0  0  0
  1  2  1  0
  1  5  1  0
  1  6  1  0
  2  3  1  0
  3  4  2  3
  4  7  1  0
  4  8  1  0
M  RAD  1   1   2
M  END
>  <reaction>  (2) 
rmg_rxn_15675

>  <mol_properties>  (2) 
{"0": {"label": "acceptor", "atom_type": "Cs"}}

>  <type>  (2) 
r2

$$$$

     RDKit          3D

  9  8  0  0  0  0  0  0  0  0999 V2000
   -1.5470   -0.0755   -0.1976 C   0  0  0  0  0  0  0  0  0  0  0  0
   -0.2885    0.4507    0.1749 O   0  0  0  0  0  0  0  0  0  0  0  0
   -0.1502    1.7216   -0.3294 N   0  0  0  0  0  0  0  0  0  0  0  0
    0.9626    2.2353   -0.0219 C   0  0  0  0  0  0  0  0  0  0  0  0
   -1.6392   -0.1356   -1.2844 H   0  0  0  0  0  0  0  0  0  0  0  0
   -2.3597    0.5337    0.2044 H   0  0  0  0  0  0  0  0  0  0  0  0
   -1.5879   -1.0750    0.2318 H   0  0  0  0  0  0  0  0  0  0  0  0
    1.1497    3.2381   -0.3820 H   0  0  0  0  0  0  0  0  0  0  0  0
    1.7060    1.7101    0.5739 H   0  0  0  0  0  0  0  0  0  0  0  0
  1  2  1  0
  1  5  1  0
  1  6  1  0
  1  7  1  0
  2  3  1  0
  3  4  2  3
  4  8  1  0
  4  9  1  0
M  END
>  <reaction>  (3) 
rmg_rxn_15675

>  <mol_properties>  (3) 
{"0": {"label": "a_hydrogen", "atom_type": "H0"}, "1": {"label": "acceptor", "atom_type": "Cs"}}

>  <type>  (3) 
r2h

$$$$

     RDKit          3D

 13 11  0  0  0  0  0  0  0  0999 V2000
    0.2025   -1.9682   -1.1915 C   0  0  0  0  0  0  0  0  0  0  0  0
    0.2953   -2.3336    0.0025 N   0  0  0  0  0  0  0  0  0  0  0  0
    0.3399   -0.9315   -1.5234 H   0  0  0  0  0  0  0  0  0  0  0  0
   -0.0278   -2.7066   -1.9650 H   0  0  0  0  0  0  0  0  0  0  0  0
    0.5555   -1.3301    0.6737 H   0  0  0  0  0  0  0  0  0  0  0  0
    0.8457   -0.0917    1.1960 C   0  0  0  0  0  3  0  0  0  0  0  0
    0.5242    0.8874    0.2733 O   0  0  0  0  0  0  0  0  0  0  0  0
   -0.8255    1.1867    0.3172 N   0  0  0  0  0  0  0  0  0  0  0  0
   -1.1420    2.0244   -0.5738 C   0  0  0  0  0  0  0  0  0  0  0  0
    1.9225   -0.0916    1.3417 H   0  0  0  0  0  0  0  0  0  0  0  0
    0.2488   -0.0405    2.1047 H   0  0  0  0  0  0  0  0  0  0  0  0
   -2.1808    2.3247   -0.6039 H   0  0  0  0  0  0  0  0  0  0  0  0
   -0.4223    2.4351   -1.2782 H   0  0  0  0  0  0  0  0  0  0  0  0
  1  2  2  3
  1  3  1  0
  1  4  1  0
  2  5  1  0
  6  7  1  0
  6 10  1  0
  6 11  1  0
  7  8  1  0
  8  9  2  3
  9 12  1  0
  9 13  1  0
M  RAD  1   6   2
M  END
>  <reaction>  (4) 
rmg_rxn_15675

>  <mol_properties>  (4) 
{"0": {"label": "*0", "atom_type": "Cd"}, "1": {"label": "*1", "atom_type": "N3d"}, "4": {"label": "*2", "atom_type": "H0"}, "5": {"label": "*3", "atom_type": "Cs"}, "6": {"label": "*4", "atom_type": "O2s"}}

>  <type>  (4) 
ts

$$$$
