
     RDKit          3D

 14 14  0  0  0  0  0  0  0  0999 V2000
   -1.1778    0.2241    0.1818 C   0  0  0  0  0  0  0  0  0  0  0  0
   -0.5633   -1.1636    0.0678 C   0  0  0  0  0  0  0  0  0  0  0  0
    0.6943   -1.1996    0.7146 O   0  0  0  0  0  0  0  0  0  0  0  0
    1.5547   -0.2288    0.2011 C   0  0  0  0  0  0  0  0  0  0  0  0
    1.0729    1.0696    0.3698 O   0  0  0  0  0  0  0  0  0  0  0  0
   -0.1607    1.2493   -0.2989 C   0  0  0  0  0  0  0  0  0  0  0  0
   -2.0927    0.2866   -0.4117 H   0  0  0  0  0  0  0  0  0  0  0  0
   -1.4303    0.4248    1.2248 H   0  0  0  0  0  0  0  0  0  0  0  0
   -1.1822   -1.9235    0.5431 H   0  0  0  0  0  0  0  0  0  0  0  0
   -0.4389   -1.4347   -0.9919 H   0  0  0  0  0  0  0  0  0  0  0  0
    1.7250   -0.4207   -0.8742 H   0  0  0  0  0  0  0  0  0  0  0  0
    2.4896   -0.3010    0.7524 H   0  0  0  0  0  0  0  0  0  0  0  0
   -0.0080    1.1481   -1.3844 H   0  0  0  0  0  0  0  0  0  0  0  0
   -0.4826    2.2695   -0.0942 H   0  0  0  0  0  0  0  0  0  0  0  0
  1  2  1  0
  1  6  1  0
  1  7  1  0
  1  8  1  0
  2  3  1  0
  2  9  1  0
  2 10  1  0
  3  4  1  0
  4  5  1  0
  4 11  1  0
  4 12  1  0
  5  6  1  0
  6 13  1  0
  6 14  1  0
M  END
>  <reaction>  (1) 
rmg_rxn_379

>  <mol_properties>  (1) 
{"3": {"label": "donator", "atom_type": "Cs"}, "10": {"label": "d_hydrogen", "atom_type": "H0"}}

>  <type>  (1) 
r1h

$$$$

     RDKit          3D

  8  7  0  0  0  0  0  0  0  0999 V2000
   -0.7904    0.0542   -0.0686 C   0  0  0  0  0  0  0  0  0  0  0  0
    0.7250   -0.0340   -0.0072 C   0  0  0  0  0  0  0  0  0  0  0  0
    1.3220   -0.6751   -1.0442 O   0  0  0  0  0  1  0  0  0  0  0  0
   -1.2285   -0.9442   -0.0918 H   0  0  0  0  0  0  0  0  0  0  0  0
   -1.1815    0.5836    0.8026 H   0  0  0  0  0  0  0  0  0  0  0  0
   -1.1039    0.5874   -0.9667 H   0  0  0  0  0  0  0  0  0  0  0  0
    1.1884    0.9677    0.0652 H   0  0  0  0  0  0  0  0  0  0  0  0
    1.0666   -0.5299    0.9206 H   0  0  0  0  0  0  0  0  0  0  0  0
  1  2  1  0
  1  4  1  0
  1  5  1  0
  1  6  1  0
  2  3  1  0
  2  7  1  0
  2  8  1  0
M  RAD  1   3   2
M  END
>  <reaction>  (2) 
rmg_rxn_379

>  <mol_properties>  (2) 
{"2": {"label": "acceptor", "atom_type": "O2s"}}

>  <type>  (2) 
r2

$$$$

     RDKit          3D

  9  8  0  0  0  0  0  0  0  0999 V2000
   -0.9895    0.3048    0.1041 C   0  0  0  0  0  0  0  0  0  0  0  0
    0.3761   -0.3562    0.0721 C   0  0  0  0  0  0  0  0  0  0  0  0
    0.3441   -1.6564   -0.4834 O   0  0  0  0  0  0  0  0  0  0  0  0
   -1.6997   -0.3114    0.6572 H   0  0  0  0  0  0  0  0  0  0  0  0
   -0.9320    1.2848    0.5822 H   0  0  0  0  0  0  0  0  0  0  0  0
   -1.3774    0.4507   -0.9077 H   0  0  0  0  0  0  0  0  0  0  0  0
    0.7581   -0.4813    1.0862 H   0  0  0  0  0  0  0  0  0  0  0  0
    1.0900    0.2787   -0.4681 H   0  0  0  0  0  0  0  0  0  0  0  0
    0.0089   -1.5959   -1.3792 H   0  0  0  0  0  0  0  0  0  0  0  0
  1  2  1  0
  1  4  1  0
  1  5  1  0
  1  6  1  0
  2  3  1  0
  2  7  1  0
  2  8  1  0
  3  9  1  0
M  END
>  <reaction>  (3) 
rmg_rxn_379

>  <mol_properties>  (3) 
{"2": {"label": "acceptor", "atom_type": "O2s"}, "8": {"label": "a_hydrogen", "atom_type": "H0"}}

>  <type>  (3) 
r2h

$$$$

     RDKit          3D

 22 21  0  0  0  0  0  0  0  0999 V2000
    0.4346    3.3025    0.1838 C   0  0  0  0  0  0  0  0  0  0  0  0
    1.3444    2.1130   -0.0735 C   0  0  0  0  0  0  0  0  0  0  0  0
    1.1890    1.0752    0.8377 O   0  0  0  0  0  1  0  0  0  0  0  0
    0.5671    3.6698    1.2021 H   0  0  0  0  0  0  0  0  0  0  0  0
    0.6515    4.1144   -0.5137 H   0  0  0  0  0  0  0  0  0  0  0  0
   -0.6117    3.0182    0.0553 H   0  0  0  0  0  0  0  0  0  0  0  0
    1.2177    1.7538   -1.1058 H   0  0  0  0  0  0  0  0  0  0  0  0
    2.3981    2.4158    0.0127 H   0  0  0  0  0  0  0  0  0  0  0  0
    0.0760   -2.4261   -0.8204 C   0  0  0  0  0  0  0  0  0  0  0  0
   -0.1631   -2.1337    0.6512 C   0  0  0  0  0  0  0  0  0  0  0  0
   -1.2177   -1.1891    0.7948 O   0  0  0  0  0  0  0  0  0  0  0  0
   -1.0059   -0.0379    0.0745 C   0  0  0  0  0  0  0  0  0  0  0  0
   -0.7794   -0.2115   -1.2741 O   0  0  0  0  0  0  0  0  0  0  0  0
    0.2921   -1.1089   -1.5459 C   0  0  0  0  0  0  0  0  0  0  0  0
    0.9500   -3.0691   -0.9412 H   0  0  0  0  0  0  0  0  0  0  0  0
   -0.7902   -2.9422   -1.2394 H   0  0  0  0  0  0  0  0  0  0  0  0
   -0.4740   -3.0201    1.2009 H   0  0  0  0  0  0  0  0  0  0  0  0
    0.7435   -1.7277    1.1148 H   0  0  0  0  0  0  0  0  0  0  0  0
   -0.0326    0.5131    0.5425 H   0  0  0  0  0  0  0  0  0  0  0  0
   -1.8621    0.6217    0.2039 H   0  0  0  0  0  0  0  0  0  0  0  0
    1.2325   -0.6488   -1.2200 H   0  0  0  0  0  0  0  0  0  0  0  0
    0.3141   -1.2333   -2.6270 H   0  0  0  0  0  0  0  0  0  0  0  0
  1  2  1  0
  1  4  1  0
  1  5  1  0
  1  6  1  0
  2  3  1  0
  2  7  1  0
  2  8  1  0
  9 10  1  0
  9 14  1  0
  9 15  1  0
  9 16  1  0
 10 11  1  0
 10 17  1  0
 10 18  1  0
 11 12  1  0
 12 13  1  0
 12 19  1  0
 12 20  1  0
 13 14  1  0
 14 21  1  0
 14 22  1  0
M  RAD  1   3   2
M  END
>  <reaction>  (4) 
rmg_rxn_379

>  <mol_properties>  (4) 
{"1": {"label": "*4", "atom_type": "Cs"}, "2": {"label": "*3", "atom_type": "O2s"}, "10": {"label": "*0", "atom_type": "O2s"}, "11": {"label": "*1", "atom_type": "Cs"}, "18": {"label": "*2", "atom_type": "H0"}}

>  <type>  (4) 
ts

$$$$
