
     RDKit          3D

  8  7  0  0  0  0  0  0  0  0999 V2000
    0.9548    0.1194   -0.0790 C   0  0  0  0  0  0  0  0  0  0  0  0
   -0.4838   -0.2649    0.0193 C   0  0  0  0  0  0  0  0  0  0  0  0
   -0.8933   -1.1081    0.8664 N   0  0  0  0  0  0  0  0  0  0  0  0
    1.3360   -0.0983   -1.0800 H   0  0  0  0  0  0  0  0  0  0  0  0
    1.0698    1.1948    0.0786 H   0  0  0  0  0  0  0  0  0  0  0  0
    1.5426   -0.4219    0.6602 H   0  0  0  0  0  0  0  0  0  0  0  0
   -1.1575    0.2324   -0.6905 H   0  0  0  0  0  0  0  0  0  0  0  0
   -1.8989   -1.2455    0.7886 H   0  0  0  0  0  0  0  0  0  0  0  0
  1  2  1  0
  1  4  1  0
  1  5  1  0
  1  6  1  0
  2  3  2  3
  2  7  1  0
  3  8  1  0
M  END
>  <reaction>  (1) 
rmg_rxn_16522

>  <mol_properties>  (1) 
{"2": {"label": "donator", "atom_type": "N3d"}, "7": {"label": "d_hydrogen", "atom_type": "H0"}}

>  <type>  (1) 
r1h

$$$$

     RDKit          3D

 10  9  0  0  0  0  0  0  0  0999 V2000
    1.4352    0.2660   -0.1351 C   0  0  0  0  0  3  0  0  0  0  0  0
    0.2236   -0.3243    0.4850 C   0  0  0  0  0  0  0  0  0  0  0  0
   -0.8893    0.6872    0.7364 C   0  0  0  0  0  0  0  0  0  0  0  0
    2.3577   -0.2958   -0.1940 H   0  0  0  0  0  0  0  0  0  0  0  0
    1.3935    1.2286   -0.6287 H   0  0  0  0  0  0  0  0  0  0  0  0
   -0.1633   -1.1318   -0.1556 H   0  0  0  0  0  0  0  0  0  0  0  0
    0.4945   -0.8215    1.4240 H   0  0  0  0  0  0  0  0  0  0  0  0
   -1.1991    1.1627   -0.1967 H   0  0  0  0  0  0  0  0  0  0  0  0
   -1.7660    0.2103    1.1768 H   0  0  0  0  0  0  0  0  0  0  0  0
   -0.5545    1.4732    1.4159 H   0  0  0  0  0  0  0  0  0  0  0  0
  1  2  1  0
  1  4  1  0
  1  5  1  0
  2  3  1  0
  2  6  1  0
  2  7  1  0
  3  8  1  0
  3  9  1  0
  3 10  1  0
M  RAD  1   1   2
M  END
>  <reaction>  (2) 
rmg_rxn_16522

>  <mol_properties>  (2) 
{"0": {"label": "acceptor", "atom_type": "Cs"}}

>  <type>  (2) 
r2

$$$$

     RDKit          3D

 11 10  0  0  0  0  0  0  0  0999 V2000
   -1.2710    0.1907   -0.2084 C   0  0  0  0  0  0  0  0  0  0  0  0
    0.0202   -0.6130   -0.2928 C   0  0  0  0  0  0  0  0  0  0  0  0
    0.1086   -1.6953    0.7756 C   0  0  0  0  0  0  0  0  0  0  0  0
   -1.3607    0.6851    0.7620 H   0  0  0  0  0  0  0  0  0  0  0  0
   -2.1429   -0.4567   -0.3299 H   0  0  0  0  0  0  0  0  0  0  0  0
   -1.3158    0.9602   -0.9809 H   0  0  0  0  0  0  0  0  0  0  0  0
    0.8757    0.0616   -0.1992 H   0  0  0  0  0  0  0  0  0  0  0  0
    0.0997   -1.0712   -1.2825 H   0  0  0  0  0  0  0  0  0  0  0  0
   -0.7198   -2.4022    0.6850 H   0  0  0  0  0  0  0  0  0  0  0  0
    1.0395   -2.2596    0.6989 H   0  0  0  0  0  0  0  0  0  0  0  0
    0.0624   -1.2603    1.7770 H   0  0  0  0  0  0  0  0  0  0  0  0
  1  2  1  0
  1  4  1  0
  1  5  1  0
  1  6  1  0
  2  3  1  0
  2  7  1  0
  2  8  1  0
  3  9  1  0
  3 10  1  0
  3 11  1  0
M  END
>  <reaction>  (3) 
rmg_rxn_16522

>  <mol_properties>  (3) 
{"0": {"label": "a_hydrogen", "atom_type": "H0"}, "1": {"label": "acceptor", "atom_type": "Cs"}}

>  <type>  (3) 
r2h

$$$$

     RDKit          3D

 18 16  0  0  0  0  0  0  0  0999 V2000
   -0.5445   -0.1121   -2.9838 C   0  0  0  0  0  0  0  0  0  0  0  0
   -0.5473    0.0951   -1.5001 C   0  0  0  0  0  0  0  0  0  0  0  0
    0.2212    0.9123   -0.9339 N   0  0  0  0  0  0  0  0  0  0  0  0
   -0.3217   -1.1568   -3.2136 H   0  0  0  0  0  0  0  0  0  0  0  0
   -1.5341    0.1055   -3.3926 H   0  0  0  0  0  0  0  0  0  0  0  0
    0.1941    0.5300   -3.4600 H   0  0  0  0  0  0  0  0  0  0  0  0
   -1.2632   -0.5138   -0.9314 H   0  0  0  0  0  0  0  0  0  0  0  0
   -0.0002    0.8770    0.2658 H   0  0  0  0  0  0  0  0  0  0  0  0
   -0.3224    0.7018    1.5932 C   0  0  0  0  0  3  0  0  0  0  0  0
    0.8042   -0.0812    2.2075 C   0  0  0  0  0  0  0  0  0  0  0  0
    0.9248   -1.4956    1.6530 C   0  0  0  0  0  0  0  0  0  0  0  0
   -0.4178    1.7329    1.9274 H   0  0  0  0  0  0  0  0  0  0  0  0
   -1.2825    0.1861    1.5593 H   0  0  0  0  0  0  0  0  0  0  0  0
    1.7445    0.4565    2.0562 H   0  0  0  0  0  0  0  0  0  0  0  0
    0.6583   -0.1287    3.2944 H   0  0  0  0  0  0  0  0  0  0  0  0
    1.1312   -1.4752    0.5815 H   0  0  0  0  0  0  0  0  0  0  0  0
    1.7309   -2.0454    2.1408 H   0  0  0  0  0  0  0  0  0  0  0  0
   -0.0020   -2.0543    1.8060 H   0  0  0  0  0  0  0  0  0  0  0  0
  1  2  1  0
  1  4  1  0
  1  5  1  0
  1  6  1  0
  2  3  2  3
  2  7  1  0
  3  8  1  0
  9 10  1  0
  9 12  1  0
  9 13  1  0
 10 11  1  0
 10 14  1  0
 10 15  1  0
 11 16  1  0
 11 17  1  0
 11 18  1  0
M  RAD  1   9   2
M  END
>  <reaction>  (4) 
rmg_rxn_16522

>  <mol_properties>  (4) 
{"1": {"label": "*0", "atom_type": "Cd"}, "2": {"label": "*1", "atom_type": "N3d"}, "7": {"label": "*2", "atom_type": "H0"}, "8": {"label": "*3", "atom_type": "Cs"}, "9": {"label": "*4", "atom_type": "Cs"}}

>  <type>  (4) 
ts

$$$$
