
     RDKit          3D

 18 17  0  0  0  0  0  0  0  0999 V2000
    2.2026   -0.7213   -0.2612 C   0  0  0  0  0  0  0  0  0  0  0  0
    1.5384    0.2638    0.6915 C   0  0  0  0  0  0  0  0  0  0  0  0
    2.2584    1.5946    0.7694 C   0  0  0  0  0  0  0  0  0  0  0  0
    2.2212    2.2185   -0.4893 O   0  0  0  0  0  0  0  0  0  0  0  0
    2.8988    3.4488   -0.5204 C   0  0  0  0  0  0  0  0  0  0  0  0
    2.7981    4.0296   -1.9118 C   0  0  0  0  0  0  0  0  0  0  0  0
    3.2294   -0.9309    0.0486 H   0  0  0  0  0  0  0  0  0  0  0  0
    2.2338   -0.3181   -1.2734 H   0  0  0  0  0  0  0  0  0  0  0  0
    1.6610   -1.6680   -0.2875 H   0  0  0  0  0  0  0  0  0  0  0  0
    1.4990   -0.1566    1.7002 H   0  0  0  0  0  0  0  0  0  0  0  0
    0.5055    0.4455    0.3835 H   0  0  0  0  0  0  0  0  0  0  0  0
    3.3038    1.4410    1.0808 H   0  0  0  0  0  0  0  0  0  0  0  0
    1.7844    2.2410    1.5226 H   0  0  0  0  0  0  0  0  0  0  0  0
    2.4596    4.1376    0.2164 H   0  0  0  0  0  0  0  0  0  0  0  0
    3.9524    3.3035   -0.2397 H   0  0  0  0  0  0  0  0  0  0  0  0
    1.7543    4.1869   -2.1856 H   0  0  0  0  0  0  0  0  0  0  0  0
    3.2472    3.3545   -2.6411 H   0  0  0  0  0  0  0  0  0  0  0  0
    3.3178    4.9878   -1.9600 H   0  0  0  0  0  0  0  0  0  0  0  0
  1  2  1  0
  1  7  1  0
  1  8  1  0
  1  9  1  0
  2  3  1  0
  2 10  1  0
  2 11  1  0
  3  4  1  0
  3 12  1  0
  3 13  1  0
  4  5  1  0
  5  6  1  0
  5 14  1  0
  5 15  1  0
  6 16  1  0
  6 17  1  0
  6 18  1  0
M  END
>  <reaction>  (1) 
rmg_rxn_15427

>  <mol_properties>  (1) 
{"2": {"label": "donator", "atom_type": "Cs"}, "11": {"label": "d_hydrogen", "atom_type": "H0"}}

>  <type>  (1) 
r1h

$$$$

     RDKit          3D

  5  4  0  0  0  0  0  0  0  0999 V2000
    0.8934    0.3742    0.4948 O   0  0  0  0  0  0  0  0  0  0  0  0
    0.1582   -0.1610   -0.5904 N   0  0  0  0  0  0  0  0  0  0  0  0
   -1.0297   -0.3739   -0.4689 C   0  0  0  0  0  3  0  0  0  0  0  0
    1.7804    0.4382    0.1306 H   0  0  0  0  0  0  0  0  0  0  0  0
   -1.8023   -0.2775    0.2859 H   0  0  0  0  0  0  0  0  0  0  0  0
  1  2  1  0
  1  4  1  0
  2  3  2  3
  3  5  1  0
M  RAD  1   3   2
M  END
>  <reaction>  (2) 
rmg_rxn_15427

>  <mol_properties>  (2) 
{"2": {"label": "acceptor", "atom_type": "Cd"}}

>  <type>  (2) 
r2

$$$$

     RDKit          3D

  6  5  0  0  0  0  0  0  0  0999 V2000
    1.2314    0.0428    0.5088 O   0  0  0  0  0  0  0  0  0  0  0  0
    0.2987    0.2341   -0.4915 N   0  0  0  0  0  0  0  0  0  0  0  0
   -0.8599   -0.1122   -0.1290 C   0  0  0  0  0  0  0  0  0  0  0  0
    2.0507    0.3401    0.1082 H   0  0  0  0  0  0  0  0  0  0  0  0
   -1.0700   -0.5112    0.8610 H   0  0  0  0  0  0  0  0  0  0  0  0
   -1.6509    0.0064   -0.8574 H   0  0  0  0  0  0  0  0  0  0  0  0
  1  2  1  0
  1  4  1  0
  2  3  2  3
  3  5  1  0
  3  6  1  0
M  END
>  <reaction>  (3) 
rmg_rxn_15427

>  <mol_properties>  (3) 
{"2": {"label": "acceptor", "atom_type": "Cd"}, "5": {"label": "a_hydrogen", "atom_type": "H0"}}

>  <type>  (3) 
r2h

$$$$

     RDKit          3D

 23 21  0  0  0  0  0  0  0  0999 V2000
    3.4496    1.6908   -0.6631 O   0  0  0  0  0  0  0  0  0  0  0  0
    2.3569    1.1451    0.0343 N   0  0  0  0  0  0  0  0  0  0  0  0
    1.6788    0.3430   -0.6303 C   0  0  0  0  0  3  0  0  0  0  0  0
    3.8497    2.2675   -0.0082 H   0  0  0  0  0  0  0  0  0  0  0  0
    1.8347    0.0310   -1.6634 H   0  0  0  0  0  0  0  0  0  0  0  0
   -0.6669   -2.6153   -0.6967 C   0  0  0  0  0  0  0  0  0  0  0  0
   -0.4441   -2.1358    0.7324 C   0  0  0  0  0  0  0  0  0  0  0  0
   -0.4037   -0.6349    0.8596 C   0  0  0  0  0  0  0  0  0  0  0  0
   -1.5719   -0.0556    0.4098 O   0  0  0  0  0  0  0  0  0  0  0  0
   -1.6256    1.3458    0.5885 C   0  0  0  0  0  0  0  0  0  0  0  0
   -2.9431    1.8536    0.0538 C   0  0  0  0  0  0  0  0  0  0  0  0
    0.1336   -2.2671   -1.3531 H   0  0  0  0  0  0  0  0  0  0  0  0
   -1.6111   -2.2391   -1.0898 H   0  0  0  0  0  0  0  0  0  0  0  0
   -0.6875   -3.7048   -0.7423 H   0  0  0  0  0  0  0  0  0  0  0  0
    0.5007   -2.5259    1.1194 H   0  0  0  0  0  0  0  0  0  0  0  0
   -1.2359   -2.5213    1.3831 H   0  0  0  0  0  0  0  0  0  0  0  0
    0.5325   -0.2261    0.1630 H   0  0  0  0  0  0  0  0  0  0  0  0
   -0.1301   -0.2905    1.8662 H   0  0  0  0  0  0  0  0  0  0  0  0
   -1.5196    1.5818    1.6557 H   0  0  0  0  0  0  0  0  0  0  0  0
   -0.7830    1.8127    0.0643 H   0  0  0  0  0  0  0  0  0  0  0  0
   -3.7773    1.3897    0.5812 H   0  0  0  0  0  0  0  0  0  0  0  0
   -3.0380    1.6283   -1.0089 H   0  0  0  0  0  0  0  0  0  0  0  0
   -3.0081    2.9347    0.1851 H   0  0  0  0  0  0  0  0  0  0  0  0
  1  2  1  0
  1  4  1  0
  2  3  2  3
  3  5  1  0
  6  7  1  0
  6 12  1  0
  6 13  1  0
  6 14  1  0
  7  8  1  0
  7 15  1  0
  7 16  1  0
  8  9  1  0
  8 17  1  0
  8 18  1  0
  9 10  1  0
 10 11  1  0
 10 19  1  0
 10 20  1  0
 11 21  1  0
 11 22  1  0
 11 23  1  0
M  RAD  1   3   2
M  END
>  <reaction>  (4) 
rmg_rxn_15427

>  <mol_properties>  (4) 
{"1": {"label": "*4", "atom_type": "N3d"}, "2": {"label": "*3", "atom_type": "Cd"}, "7": {"label": "*1", "atom_type": "Cs"}, "8": {"label": "*0", "atom_type": "O2s"}, "16": {"label": "*2", "atom_type": "H0"}}

>  <type>  (4) 
ts

$$$$
