
     RDKit          3D

 10  9  0  0  0  0  0  0  0  0999 V2000
    2.0403   -0.0578    0.0120 C   0  0  0  0  0  0  0  0  0  0  0  0
    0.5945   -0.0169    0.1896 C   0  0  0  0  0  0  0  0  0  0  0  0
   -0.5946    0.0168    0.3358 C   0  0  0  0  0  0  0  0  0  0  0  0
   -2.0403    0.0578    0.5137 C   0  0  0  0  0  0  0  0  0  0  0  0
    2.4731    0.9391    0.1118 H   0  0  0  0  0  0  0  0  0  0  0  0
    2.3007   -0.4413   -0.9760 H   0  0  0  0  0  0  0  0  0  0  0  0
    2.5061   -0.7039    0.7582 H   0  0  0  0  0  0  0  0  0  0  0  0
   -2.3734    1.0668    0.7626 H   0  0  0  0  0  0  0  0  0  0  0  0
   -2.3525   -0.6089    1.3193 H   0  0  0  0  0  0  0  0  0  0  0  0
   -2.5538   -0.2516   -0.3983 H   0  0  0  0  0  0  0  0  0  0  0  0
  1  2  1  0
  1  5  1  0
  1  6  1  0
  1  7  1  0
  2  3  3  0
  3  4  1  0
  4  8  1  0
  4  9  1  0
  4 10  1  0
M  END
>  <reaction>  (1) 
rmg_rxn_273

>  <mol_properties>  (1) 
{"3": {"label": "donator", "atom_type": "Cs"}, "9": {"label": "d_hydrogen", "atom_type": "H0"}}

>  <type>  (1) 
r1h

$$$$

     RDKit          3D

 17 16  0  0  0  0  0  0  0  0999 V2000
   -3.2378    0.0781    0.0468 C   0  0  0  0  0  0  0  0  0  0  0  0
   -1.9072   -0.5430    0.2348 C   0  0  0  0  0  3  0  0  0  0  0  0
   -1.5607   -0.7743    1.5229 O   0  0  0  0  0  0  0  0  0  0  0  0
   -0.2678   -1.3170    1.7206 C   0  0  0  0  0  0  0  0  0  0  0  0
    0.0055   -1.4164    3.2061 C   0  0  0  0  0  0  0  0  0  0  0  0
    0.0347   -0.0632    3.9042 C   0  0  0  0  0  0  0  0  0  0  0  0
   -3.2816    1.0982    0.4537 H   0  0  0  0  0  0  0  0  0  0  0  0
   -3.4818    0.1310   -1.0144 H   0  0  0  0  0  0  0  0  0  0  0  0
   -4.0139   -0.5033    0.5509 H   0  0  0  0  0  0  0  0  0  0  0  0
   -1.0896   -0.3480   -0.4562 H   0  0  0  0  0  0  0  0  0  0  0  0
   -0.2142   -2.3036    1.2476 H   0  0  0  0  0  0  0  0  0  0  0  0
    0.4751   -0.6679    1.2371 H   0  0  0  0  0  0  0  0  0  0  0  0
   -0.7555   -2.0574    3.6583 H   0  0  0  0  0  0  0  0  0  0  0  0
    0.9642   -1.9267    3.3334 H   0  0  0  0  0  0  0  0  0  0  0  0
   -0.9209    0.4499    3.7952 H   0  0  0  0  0  0  0  0  0  0  0  0
    0.2399   -0.1765    4.9695 H   0  0  0  0  0  0  0  0  0  0  0  0
    0.8109    0.5782    3.4796 H   0  0  0  0  0  0  0  0  0  0  0  0
  1  2  1  0
  1  7  1  0
  1  8  1  0
  1  9  1  0
  2  3  1  0
  2 10  1  0
  3  4  1  0
  4  5  1  0
  4 11  1  0
  4 12  1  0
  5  6  1  0
  5 13  1  0
  5 14  1  0
  6 15  1  0
  6 16  1  0
  6 17  1  0
M  RAD  1   2   2
M  END
>  <reaction>  (2) 
rmg_rxn_273

>  <mol_properties>  (2) 
{"1": {"label": "acceptor", "atom_type": "Cs"}}

>  <type>  (2) 
r2

$$$$

     RDKit          3D

 18 17  0  0  0  0  0  0  0  0999 V2000
    2.2026   -0.7213   -0.2612 C   0  0  0  0  0  0  0  0  0  0  0  0
    1.5384    0.2638    0.6915 C   0  0  0  0  0  0  0  0  0  0  0  0
    2.2584    1.5946    0.7694 C   0  0  0  0  0  0  0  0  0  0  0  0
    2.2212    2.2185   -0.4893 O   0  0  0  0  0  0  0  0  0  0  0  0
    2.8988    3.4488   -0.5204 C   0  0  0  0  0  0  0  0  0  0  0  0
    2.7981    4.0296   -1.9118 C   0  0  0  0  0  0  0  0  0  0  0  0
    3.2294   -0.9309    0.0486 H   0  0  0  0  0  0  0  0  0  0  0  0
    2.2338   -0.3181   -1.2734 H   0  0  0  0  0  0  0  0  0  0  0  0
    1.6610   -1.6680   -0.2875 H   0  0  0  0  0  0  0  0  0  0  0  0
    1.4990   -0.1566    1.7002 H   0  0  0  0  0  0  0  0  0  0  0  0
    0.5055    0.4455    0.3835 H   0  0  0  0  0  0  0  0  0  0  0  0
    3.3038    1.4410    1.0808 H   0  0  0  0  0  0  0  0  0  0  0  0
    1.7844    2.2410    1.5226 H   0  0  0  0  0  0  0  0  0  0  0  0
    2.4596    4.1376    0.2164 H   0  0  0  0  0  0  0  0  0  0  0  0
    3.9524    3.3035   -0.2397 H   0  0  0  0  0  0  0  0  0  0  0  0
    1.7543    4.1869   -2.1856 H   0  0  0  0  0  0  0  0  0  0  0  0
    3.2472    3.3545   -2.6411 H   0  0  0  0  0  0  0  0  0  0  0  0
    3.3178    4.9878   -1.9600 H   0  0  0  0  0  0  0  0  0  0  0  0
  1  2  1  0
  1  7  1  0
  1  8  1  0
  1  9  1  0
  2  3  1  0
  2 10  1  0
  2 11  1  0
  3  4  1  0
  3 12  1  0
  3 13  1  0
  4  5  1  0
  5  6  1  0
  5 14  1  0
  5 15  1  0
  6 16  1  0
  6 17  1  0
  6 18  1  0
M  END
>  <reaction>  (3) 
rmg_rxn_273

>  <mol_properties>  (3) 
{"0": {"label": "a_hydrogen", "atom_type": "H0"}, "2": {"label": "acceptor", "atom_type": "Cs"}}

>  <type>  (3) 
r2h

$$$$

     RDKit          3D

 27 25  0  0  0  0  0  0  0  0999 V2000
   -0.2200   -1.0342   -4.0964 C   0  0  0  0  0  0  0  0  0  0  0  0
    0.1128   -1.4600   -2.7441 C   0  0  0  0  0  3  0  0  0  0  0  0
    0.3847   -1.8369   -1.6327 C   0  0  0  0  0  0  0  0  0  0  0  0
    0.7171   -2.1921   -0.2950 C   0  0  0  0  0  0  0  0  0  0  0  0
   -1.2369   -1.3314   -4.3599 H   0  0  0  0  0  0  0  0  0  0  0  0
    0.4601   -1.4810   -4.8239 H   0  0  0  0  0  0  0  0  0  0  0  0
   -0.1513    0.0512   -4.1961 H   0  0  0  0  0  0  0  0  0  0  0  0
    1.6091   -2.8063   -0.1907 H   0  0  0  0  0  0  0  0  0  0  0  0
   -0.1130   -2.5652    0.3014 H   0  0  0  0  0  0  0  0  0  0  0  0
    1.0523   -1.0487    0.3689 H   0  0  0  0  0  0  0  0  0  0  0  0
    2.1659   -0.3611    2.2364 C   0  0  0  0  0  0  0  0  0  0  0  0
    1.3046    0.0621    1.0867 C   0  0  0  0  0  0  0  0  0  0  0  0
    0.0987    0.5633    1.5109 O   0  0  0  0  0  0  0  0  0  0  0  0
   -0.7189    1.0753    0.4739 C   0  0  0  0  0  0  0  0  0  0  0  0
   -1.9888    1.6360    1.0767 C   0  0  0  0  0  0  0  0  0  0  0  0
   -1.7432    2.8102    2.0150 C   0  0  0  0  0  0  0  0  0  0  0  0
    1.6441   -1.0948    2.8534 H   0  0  0  0  0  0  0  0  0  0  0  0
    3.0885   -0.8107    1.8671 H   0  0  0  0  0  0  0  0  0  0  0  0
    2.4269    0.4908    2.8704 H   0  0  0  0  0  0  0  0  0  0  0  0
    1.7987    0.7055    0.3477 H   0  0  0  0  0  0  0  0  0  0  0  0
   -0.1699    1.8610   -0.0650 H   0  0  0  0  0  0  0  0  0  0  0  0
   -0.9455    0.2785   -0.2429 H   0  0  0  0  0  0  0  0  0  0  0  0
   -2.6399    1.9417    0.2532 H   0  0  0  0  0  0  0  0  0  0  0  0
   -2.5073    0.8328    1.6065 H   0  0  0  0  0  0  0  0  0  0  0  0
   -1.2478    3.6311    1.4907 H   0  0  0  0  0  0  0  0  0  0  0  0
   -2.6814    3.1904    2.4214 H   0  0  0  0  0  0  0  0  0  0  0  0
   -1.1074    2.5132    2.8492 H   0  0  0  0  0  0  0  0  0  0  0  0
  1  2  1  0
  1  5  1  0
  1  6  1  0
  1  7  1  0
  2  3  2  0
  3  4  2  0
  4  8  1  0
  4  9  1  0
 10 12  1  0
 11 12  1  0
 11 17  1  0
 11 18  1  0
 11 19  1  0
 12 13  1  0
 12 20  1  0
 13 14  1  0
 14 15  1  0
 14 21  1  0
 14 22  1  0
 15 16  1  0
 15 23  1  0
 15 24  1  0
 16 25  1  0
 16 26  1  0
 16 27  1  0
M  RAD  1   2   2
M  END
>  <reaction>  (4) 
rmg_rxn_273

>  <mol_properties>  (4) 
{"2": {"label": "*4", "atom_type": "Cdd"}, "3": {"label": "*3", "atom_type": "Cd"}, "9": {"label": "*2", "atom_type": "H0"}, "11": {"label": "*1", "atom_type": "Cs"}, "12": {"label": "*0", "atom_type": "O2s"}}

>  <type>  (4) 
ts

$$$$
