
     RDKit          3D

  8  7  0  0  0  0  0  0  0  0999 V2000
    0.9548    0.1194   -0.0790 C   0  0  0  0  0  0  0  0  0  0  0  0
   -0.4838   -0.2649    0.0193 C   0  0  0  0  0  0  0  0  0  0  0  0
   -0.8933   -1.1081    0.8664 N   0  0  0  0  0  0  0  0  0  0  0  0
    1.3360   -0.0983   -1.0800 H   0  0  0  0  0  0  0  0  0  0  0  0
    1.0698    1.1948    0.0786 H   0  0  0  0  0  0  0  0  0  0  0  0
    1.5426   -0.4219    0.6602 H   0  0  0  0  0  0  0  0  0  0  0  0
   -1.1575    0.2324   -0.6905 H   0  0  0  0  0  0  0  0  0  0  0  0
   -1.8989   -1.2455    0.7886 H   0  0  0  0  0  0  0  0  0  0  0  0
  1  2  1  0
  1  4  1  0
  1  5  1  0
  1  6  1  0
  2  3  2  3
  2  7  1  0
  3  8  1  0
M  END
>  <reaction>  (1) 
rmg_rxn_16643

>  <mol_properties>  (1) 
{"2": {"label": "donator", "atom_type": "N3d"}, "7": {"label": "d_hydrogen", "atom_type": "H0"}}

>  <type>  (1) 
r1h

$$$$

     RDKit          3D

 13 12  0  0  0  0  0  0  0  0999 V2000
    2.2389    0.7017    0.3130 C   0  0  0  0  0  3  0  0  0  0  0  0
    0.9433    0.8223   -0.0376 O   0  0  0  0  0  0  0  0  0  0  0  0
    0.4736    2.1521   -0.1615 C   0  0  0  0  0  0  0  0  0  0  0  0
   -0.9782    2.0920   -0.5770 C   0  0  0  0  0  0  0  0  0  0  0  0
   -1.6070    3.4420   -0.7601 C   0  0  0  0  0  0  0  0  0  0  0  0
   -1.0369    4.4869   -0.6064 O   0  0  0  0  0  0  0  0  0  0  0  0
    2.5950   -0.3170    0.3352 H   0  0  0  0  0  0  0  0  0  0  0  0
    2.9060    1.5360    0.1249 H   0  0  0  0  0  0  0  0  0  0  0  0
    1.0668    2.6899   -0.9083 H   0  0  0  0  0  0  0  0  0  0  0  0
    0.5827    2.6771    0.7919 H   0  0  0  0  0  0  0  0  0  0  0  0
   -1.0904    1.5380   -1.5153 H   0  0  0  0  0  0  0  0  0  0  0  0
   -1.5701    1.5405    0.1613 H   0  0  0  0  0  0  0  0  0  0  0  0
   -2.6749    3.4222   -1.0597 H   0  0  0  0  0  0  0  0  0  0  0  0
  1  2  1  0
  1  7  1  0
  1  8  1  0
  2  3  1  0
  3  4  1  0
  3  9  1  0
  3 10  1  0
  4  5  1  0
  4 11  1  0
  4 12  1  0
  5  6  2  0
  5 13  1  0
M  RAD  1   1   2
M  END
>  <reaction>  (2) 
rmg_rxn_16643

>  <mol_properties>  (2) 
{"0": {"label": "acceptor", "atom_type": "Cs"}}

>  <type>  (2) 
r2

$$$$

     RDKit          3D

 14 13  0  0  0  0  0  0  0  0999 V2000
   -2.1430    0.4492    0.2556 C   0  0  0  0  0  0  0  0  0  0  0  0
   -0.8980   -0.1952    0.2757 O   0  0  0  0  0  0  0  0  0  0  0  0
   -0.3667   -0.3041    1.5713 C   0  0  0  0  0  0  0  0  0  0  0  0
    0.9667   -1.0099    1.4715 C   0  0  0  0  0  0  0  0  0  0  0  0
    1.6584   -1.1995    2.7884 C   0  0  0  0  0  0  0  0  0  0  0  0
    1.2262   -0.8381    3.8485 O   0  0  0  0  0  0  0  0  0  0  0  0
   -2.0716    1.4724    0.6470 H   0  0  0  0  0  0  0  0  0  0  0  0
   -2.8872   -0.0973    0.8495 H   0  0  0  0  0  0  0  0  0  0  0  0
   -2.4755    0.4883   -0.7805 H   0  0  0  0  0  0  0  0  0  0  0  0
   -0.2382    0.6884    2.0233 H   0  0  0  0  0  0  0  0  0  0  0  0
   -1.0467   -0.8675    2.2240 H   0  0  0  0  0  0  0  0  0  0  0  0
    1.6454   -0.4596    0.8107 H   0  0  0  0  0  0  0  0  0  0  0  0
    0.8471   -1.9957    1.0089 H   0  0  0  0  0  0  0  0  0  0  0  0
    2.6387   -1.7165    2.7294 H   0  0  0  0  0  0  0  0  0  0  0  0
  1  2  1  0
  1  7  1  0
  1  8  1  0
  1  9  1  0
  2  3  1  0
  3  4  1  0
  3 10  1  0
  3 11  1  0
  4  5  1  0
  4 12  1  0
  4 13  1  0
  5  6  2  0
  5 14  1  0
M  END
>  <reaction>  (3) 
rmg_rxn_16643

>  <mol_properties>  (3) 
{"0": {"label": "a_hydrogen", "atom_type": "H0"}, "1": {"label": "acceptor", "atom_type": "Cs"}}

>  <type>  (3) 
r2h

$$$$

     RDKit          3D

 21 19  0  0  0  0  0  0  0  0999 V2000
   -3.5892   -0.1337   -0.2524 C   0  0  0  0  0  0  0  0  0  0  0  0
   -2.2043   -0.6275    0.0383 C   0  0  0  0  0  0  0  0  0  0  0  0
   -1.3376   -0.7859   -0.8569 N   0  0  0  0  0  0  0  0  0  0  0  0
   -3.7183    0.0488   -1.3177 H   0  0  0  0  0  0  0  0  0  0  0  0
   -4.3254   -0.8680    0.0829 H   0  0  0  0  0  0  0  0  0  0  0  0
   -3.7759    0.7885    0.3033 H   0  0  0  0  0  0  0  0  0  0  0  0
   -1.9852   -0.8338    1.0955 H   0  0  0  0  0  0  0  0  0  0  0  0
   -0.2806   -1.2098   -0.2811 H   0  0  0  0  0  0  0  0  0  0  0  0
    0.7781   -1.6243    0.4240 C   0  0  0  0  0  3  0  0  0  0  0  0
    1.9292   -1.2692   -0.2306 O   0  0  0  0  0  0  0  0  0  0  0  0
    2.3391    0.0749   -0.0782 C   0  0  0  0  0  0  0  0  0  0  0  0
    1.4035    1.0696   -0.7547 C   0  0  0  0  0  0  0  0  0  0  0  0
    0.3060    1.6304    0.1110 C   0  0  0  0  0  0  0  0  0  0  0  0
    0.2442    1.5227    1.3056 O   0  0  0  0  0  0  0  0  0  0  0  0
    0.6785   -2.7076    0.4254 H   0  0  0  0  0  0  0  0  0  0  0  0
    0.6588   -1.1619    1.4086 H   0  0  0  0  0  0  0  0  0  0  0  0
    3.3250    0.1216   -0.5376 H   0  0  0  0  0  0  0  0  0  0  0  0
    2.4356    0.3192    0.9853 H   0  0  0  0  0  0  0  0  0  0  0  0
    1.9719    1.9385   -1.1078 H   0  0  0  0  0  0  0  0  0  0  0  0
    0.9485    0.6266   -1.6447 H   0  0  0  0  0  0  0  0  0  0  0  0
   -0.4645    2.2037   -0.4411 H   0  0  0  0  0  0  0  0  0  0  0  0
  1  2  1  0
  1  4  1  0
  1  5  1  0
  1  6  1  0
  2  3  2  3
  2  7  1  0
  3  8  1  0
  9 10  1  0
  9 15  1  0
  9 16  1  0
 10 11  1  0
 11 12  1  0
 11 17  1  0
 11 18  1  0
 12 13  1  0
 12 19  1  0
 12 20  1  0
 13 14  2  0
 13 21  1  0
M  RAD  1   9   2
M  END
>  <reaction>  (4) 
rmg_rxn_16643

>  <mol_properties>  (4) 
{"1": {"label": "*0", "atom_type": "Cd"}, "2": {"label": "*1", "atom_type": "N3d"}, "7": {"label": "*2", "atom_type": "H0"}, "8": {"label": "*3", "atom_type": "Cs"}, "9": {"label": "*4", "atom_type": "O2s"}}

>  <type>  (4) 
ts

$$$$
