
     RDKit          3D

 10  9  0  0  0  0  0  0  0  0999 V2000
    2.0403   -0.0578    0.0120 C   0  0  0  0  0  0  0  0  0  0  0  0
    0.5945   -0.0169    0.1897 C   0  0  0  0  0  0  0  0  0  0  0  0
   -0.5945    0.0168    0.3359 C   0  0  0  0  0  0  0  0  0  0  0  0
   -2.0403    0.0578    0.5138 C   0  0  0  0  0  0  0  0  0  0  0  0
    2.4740    0.9380    0.1187 H   0  0  0  0  0  0  0  0  0  0  0  0
    2.3003   -0.4346   -0.9787 H   0  0  0  0  0  0  0  0  0  0  0  0
    2.5055   -0.7095    0.7535 H   0  0  0  0  0  0  0  0  0  0  0  0
   -2.3744    1.0682    0.7554 H   0  0  0  0  0  0  0  0  0  0  0  0
   -2.3518   -0.6033    1.3243 H   0  0  0  0  0  0  0  0  0  0  0  0
   -2.5536   -0.2588   -0.3958 H   0  0  0  0  0  0  0  0  0  0  0  0
  1  2  1  0
  1  5  1  0
  1  6  1  0
  1  7  1  0
  2  3  3  0
  3  4  1  0
  4  8  1  0
  4  9  1  0
  4 10  1  0
M  END
>  <reaction>  (1) 
rmg_rxn_15391

>  <mol_properties>  (1) 
{"3": {"label": "donator", "atom_type": "Cs"}, "9": {"label": "d_hydrogen", "atom_type": "H0"}}

>  <type>  (1) 
r1h

$$$$

     RDKit          3D

  5  4  0  0  0  0  0  0  0  0999 V2000
    0.8934    0.3742    0.4948 O   0  0  0  0  0  0  0  0  0  0  0  0
    0.1582   -0.1610   -0.5904 N   0  0  0  0  0  0  0  0  0  0  0  0
   -1.0297   -0.3739   -0.4689 C   0  0  0  0  0  3  0  0  0  0  0  0
    1.7804    0.4382    0.1306 H   0  0  0  0  0  0  0  0  0  0  0  0
   -1.8023   -0.2775    0.2859 H   0  0  0  0  0  0  0  0  0  0  0  0
  1  2  1  0
  1  4  1  0
  2  3  2  3
  3  5  1  0
M  RAD  1   3   2
M  END
>  <reaction>  (2) 
rmg_rxn_15391

>  <mol_properties>  (2) 
{"2": {"label": "acceptor", "atom_type": "Cd"}}

>  <type>  (2) 
r2

$$$$

     RDKit          3D

  6  5  0  0  0  0  0  0  0  0999 V2000
    1.2314    0.0428    0.5088 O   0  0  0  0  0  0  0  0  0  0  0  0
    0.2987    0.2341   -0.4915 N   0  0  0  0  0  0  0  0  0  0  0  0
   -0.8599   -0.1122   -0.1290 C   0  0  0  0  0  0  0  0  0  0  0  0
    2.0507    0.3401    0.1082 H   0  0  0  0  0  0  0  0  0  0  0  0
   -1.0700   -0.5112    0.8610 H   0  0  0  0  0  0  0  0  0  0  0  0
   -1.6509    0.0064   -0.8574 H   0  0  0  0  0  0  0  0  0  0  0  0
  1  2  1  0
  1  4  1  0
  2  3  2  3
  3  5  1  0
  3  6  1  0
M  END
>  <reaction>  (3) 
rmg_rxn_15391

>  <mol_properties>  (3) 
{"2": {"label": "acceptor", "atom_type": "Cd"}, "5": {"label": "a_hydrogen", "atom_type": "H0"}}

>  <type>  (3) 
r2h

$$$$

     RDKit          3D

 15 13  0  0  0  0  0  0  0  0999 V2000
   -0.6321    2.3714    2.9514 O   0  0  0  0  0  0  0  0  0  0  0  0
   -0.3729    1.0917    2.4412 N   0  0  0  0  0  0  0  0  0  0  0  0
   -0.2310    1.0447    1.2112 C   0  0  0  0  0  3  0  0  0  0  0  0
   -0.7096    2.2105    3.8947 H   0  0  0  0  0  0  0  0  0  0  0  0
   -0.2778    1.8453    0.4739 H   0  0  0  0  0  0  0  0  0  0  0  0
    0.6720   -1.2003   -3.7886 C   0  0  0  0  0  0  0  0  0  0  0  0
    0.5291   -1.2948   -2.3430 C   0  0  0  0  0  0  0  0  0  0  0  0
    0.4139   -1.3895   -1.1500 C   0  0  0  0  0  0  0  0  0  0  0  0
    0.2670   -1.4427    0.2729 C   0  0  0  0  0  0  0  0  0  0  0  0
    1.6602   -1.5383   -4.1048 H   0  0  0  0  0  0  0  0  0  0  0  0
    0.5448   -0.1695   -4.1248 H   0  0  0  0  0  0  0  0  0  0  0  0
   -0.0753   -1.8142   -4.2943 H   0  0  0  0  0  0  0  0  0  0  0  0
    1.1717   -1.7351    0.8035 H   0  0  0  0  0  0  0  0  0  0  0  0
   -0.5950   -2.0161    0.6105 H   0  0  0  0  0  0  0  0  0  0  0  0
    0.0380   -0.2905    0.6915 H   0  0  0  0  0  0  0  0  0  0  0  0
  1  2  1  0
  1  4  1  0
  2  3  2  3
  3  5  1  0
  6  7  1  0
  6 10  1  0
  6 11  1  0
  6 12  1  0
  7  8  3  0
  8  9  1  0
  9 13  1  0
  9 14  1  0
  9 15  1  0
M  RAD  1   3   2
M  END
>  <reaction>  (4) 
rmg_rxn_15391

>  <mol_properties>  (4) 
{"1": {"label": "*4", "atom_type": "N3d"}, "2": {"label": "*3", "atom_type": "Cd"}, "7": {"label": "*0", "atom_type": "Ct"}, "8": {"label": "*1", "atom_type": "Cs"}, "14": {"label": "*2", "atom_type": "H0"}}

>  <type>  (4) 
ts

$$$$
