
     RDKit          3D

  8  7  0  0  0  0  0  0  0  0999 V2000
    0.9548    0.1194   -0.0790 C   0  0  0  0  0  0  0  0  0  0  0  0
   -0.4838   -0.2649    0.0193 C   0  0  0  0  0  0  0  0  0  0  0  0
   -0.8933   -1.1081    0.8664 N   0  0  0  0  0  0  0  0  0  0  0  0
    1.3360   -0.0983   -1.0800 H   0  0  0  0  0  0  0  0  0  0  0  0
    1.0698    1.1948    0.0786 H   0  0  0  0  0  0  0  0  0  0  0  0
    1.5426   -0.4219    0.6602 H   0  0  0  0  0  0  0  0  0  0  0  0
   -1.1575    0.2324   -0.6905 H   0  0  0  0  0  0  0  0  0  0  0  0
   -1.8989   -1.2455    0.7886 H   0  0  0  0  0  0  0  0  0  0  0  0
  1  2  1  0
  1  4  1  0
  1  5  1  0
  1  6  1  0
  2  3  2  3
  2  7  1  0
  3  8  1  0
M  END
>  <reaction>  (1) 
rmg_rxn_16640

>  <mol_properties>  (1) 
{"2": {"label": "donator", "atom_type": "N3d"}, "7": {"label": "d_hydrogen", "atom_type": "H0"}}

>  <type>  (1) 
r1h

$$$$

     RDKit          3D

  9  8  0  0  0  0  0  0  0  0999 V2000
    1.2172    0.4579   -0.1964 C   0  0  0  0  0  3  0  0  0  0  0  0
    0.1414   -0.5234    0.0523 C   0  0  0  0  0  0  0  0  0  0  0  0
    0.5861   -1.9610    0.1321 C   0  0  0  0  0  0  0  0  0  0  0  0
    1.7162   -2.3406    0.0105 O   0  0  0  0  0  0  0  0  0  0  0  0
    0.9857    1.5106   -0.2681 H   0  0  0  0  0  0  0  0  0  0  0  0
    2.2392    0.1268   -0.3076 H   0  0  0  0  0  0  0  0  0  0  0  0
   -0.6447   -0.4809   -0.7179 H   0  0  0  0  0  0  0  0  0  0  0  0
   -0.4048   -0.3122    0.9851 H   0  0  0  0  0  0  0  0  0  0  0  0
   -0.2343   -2.6846    0.3193 H   0  0  0  0  0  0  0  0  0  0  0  0
  1  2  1  0
  1  5  1  0
  1  6  1  0
  2  3  1  0
  2  7  1  0
  2  8  1  0
  3  4  2  0
  3  9  1  0
M  RAD  1   1   2
M  END
>  <reaction>  (2) 
rmg_rxn_16640

>  <mol_properties>  (2) 
{"0": {"label": "acceptor", "atom_type": "Cs"}}

>  <type>  (2) 
r2

$$$$

     RDKit          3D

 10  9  0  0  0  0  0  0  0  0999 V2000
   -1.1238    0.2714    0.2496 C   0  0  0  0  0  0  0  0  0  0  0  0
    0.0881   -0.5850   -0.0680 C   0  0  0  0  0  0  0  0  0  0  0  0
   -0.0512   -1.4242   -1.3070 C   0  0  0  0  0  0  0  0  0  0  0  0
   -1.0187   -1.4480   -2.0158 O   0  0  0  0  0  0  0  0  0  0  0  0
   -2.0096   -0.3470    0.3939 H   0  0  0  0  0  0  0  0  0  0  0  0
   -0.9564    0.8523    1.1567 H   0  0  0  0  0  0  0  0  0  0  0  0
   -1.3376    0.9606   -0.5673 H   0  0  0  0  0  0  0  0  0  0  0  0
    0.3267   -1.2715    0.7528 H   0  0  0  0  0  0  0  0  0  0  0  0
    0.9917    0.0222   -0.1983 H   0  0  0  0  0  0  0  0  0  0  0  0
    0.8330   -2.0534   -1.5447 H   0  0  0  0  0  0  0  0  0  0  0  0
  1  2  1  0
  1  5  1  0
  1  6  1  0
  1  7  1  0
  2  3  1  0
  2  8  1  0
  2  9  1  0
  3  4  2  0
  3 10  1  0
M  END
>  <reaction>  (3) 
rmg_rxn_16640

>  <mol_properties>  (3) 
{"0": {"label": "a_hydrogen", "atom_type": "H0"}, "1": {"label": "acceptor", "atom_type": "Cs"}}

>  <type>  (3) 
r2h

$$$$

     RDKit          3D

 17 15  0  0  0  0  0  0  0  0999 V2000
   -0.4475    0.3606   -3.0847 C   0  0  0  0  0  0  0  0  0  0  0  0
   -0.2741    0.5127   -1.6053 C   0  0  0  0  0  0  0  0  0  0  0  0
   -1.2230    0.8629   -0.8570 N   0  0  0  0  0  0  0  0  0  0  0  0
    0.2413    1.0271   -3.6090 H   0  0  0  0  0  0  0  0  0  0  0  0
   -0.1978   -0.6605   -3.3822 H   0  0  0  0  0  0  0  0  0  0  0  0
   -1.4699    0.5880   -3.3811 H   0  0  0  0  0  0  0  0  0  0  0  0
    0.7214    0.2911   -1.2051 H   0  0  0  0  0  0  0  0  0  0  0  0
   -0.8205    0.9114    0.2727 H   0  0  0  0  0  0  0  0  0  0  0  0
   -0.2492    0.8420    1.5469 C   0  0  0  0  0  3  0  0  0  0  0  0
   -0.5219   -0.5456    2.0403 C   0  0  0  0  0  0  0  0  0  0  0  0
    0.3295   -1.6197    1.4238 C   0  0  0  0  0  0  0  0  0  0  0  0
    1.2148   -1.4332    0.6346 O   0  0  0  0  0  0  0  0  0  0  0  0
   -0.7964    1.6272    2.0611 H   0  0  0  0  0  0  0  0  0  0  0  0
    0.7976    1.0794    1.3788 H   0  0  0  0  0  0  0  0  0  0  0  0
   -1.5686   -0.8327    1.8803 H   0  0  0  0  0  0  0  0  0  0  0  0
   -0.3775   -0.6320    3.1279 H   0  0  0  0  0  0  0  0  0  0  0  0
    0.0920   -2.6490    1.7632 H   0  0  0  0  0  0  0  0  0  0  0  0
  1  2  1  0
  1  4  1  0
  1  5  1  0
  1  6  1  0
  2  3  2  3
  2  7  1  0
  3  8  1  0
  9 10  1  0
  9 13  1  0
  9 14  1  0
 10 11  1  0
 10 15  1  0
 10 16  1  0
 11 12  2  0
 11 17  1  0
M  RAD  1   9   2
M  END
>  <reaction>  (4) 
rmg_rxn_16640

>  <mol_properties>  (4) 
{"1": {"label": "*0", "atom_type": "Cd"}, "2": {"label": "*1", "atom_type": "N3d"}, "7": {"label": "*2", "atom_type": "H0"}, "8": {"label": "*3", "atom_type": "Cs"}, "9": {"label": "*4", "atom_type": "Cs"}}

>  <type>  (4) 
ts

$$$$
