
     RDKit          3D

 14 13  0  0  0  0  0  0  0  0999 V2000
    1.8106   -0.5953    0.5577 C   0  0  0  0  0  0  0  0  0  0  0  0
    0.5197    0.2064    0.6554 C   0  0  0  0  0  0  0  0  0  0  0  0
   -0.5206   -0.2080   -0.3788 C   0  0  0  0  0  0  0  0  0  0  0  0
   -1.8114    0.5937   -0.2812 C   0  0  0  0  0  0  0  0  0  0  0  0
    2.2725   -0.4752   -0.4251 H   0  0  0  0  0  0  0  0  0  0  0  0
    1.6214   -1.6612    0.7052 H   0  0  0  0  0  0  0  0  0  0  0  0
    2.5364   -0.2784    1.3084 H   0  0  0  0  0  0  0  0  0  0  0  0
    0.0930    0.0950    1.6574 H   0  0  0  0  0  0  0  0  0  0  0  0
    0.7393    1.2723    0.5354 H   0  0  0  0  0  0  0  0  0  0  0  0
   -0.7402   -1.2739   -0.2588 H   0  0  0  0  0  0  0  0  0  0  0  0
   -0.0938   -0.0965   -1.3808 H   0  0  0  0  0  0  0  0  0  0  0  0
   -1.6222    1.6596   -0.4287 H   0  0  0  0  0  0  0  0  0  0  0  0
   -2.2734    0.4736    0.7017 H   0  0  0  0  0  0  0  0  0  0  0  0
   -2.5373    0.2768   -1.0318 H   0  0  0  0  0  0  0  0  0  0  0  0
  1  2  1  0
  1  5  1  0
  1  6  1  0
  1  7  1  0
  2  3  1  0
  2  8  1  0
  2  9  1  0
  3  4  1  0
  3 10  1  0
  3 11  1  0
  4 12  1  0
  4 13  1  0
  4 14  1  0
M  END
>  <reaction>  (1) 
rmg_rxn_370

>  <mol_properties>  (1) 
{"2": {"label": "donator", "atom_type": "Cs"}, "10": {"label": "d_hydrogen", "atom_type": "H0"}}

>  <type>  (1) 
r1h

$$$$

     RDKit          3D

  8  7  0  0  0  0  0  0  0  0999 V2000
   -0.7873    0.0891   -0.0873 C   0  0  0  0  0  0  0  0  0  0  0  0
    0.7223   -0.0637   -0.0109 C   0  0  0  0  0  0  0  0  0  0  0  0
    1.2867   -0.8404   -0.9706 O   0  0  0  0  0  1  0  0  0  0  0  0
   -1.2724   -0.8840   -0.0044 H   0  0  0  0  0  0  0  0  0  0  0  0
   -1.1517    0.7274    0.7201 H   0  0  0  0  0  0  0  0  0  0  0  0
   -1.0763    0.5365   -1.0389 H   0  0  0  0  0  0  0  0  0  0  0  0
    1.2329    0.9169   -0.0453 H   0  0  0  0  0  0  0  0  0  0  0  0
    1.0411   -0.4722    0.9662 H   0  0  0  0  0  0  0  0  0  0  0  0
  1  2  1  0
  1  4  1  0
  1  5  1  0
  1  6  1  0
  2  3  1  0
  2  7  1  0
  2  8  1  0
M  RAD  1   3   2
M  END
>  <reaction>  (2) 
rmg_rxn_370

>  <mol_properties>  (2) 
{"2": {"label": "acceptor", "atom_type": "O2s"}}

>  <type>  (2) 
r2

$$$$

     RDKit          3D

  9  8  0  0  0  0  0  0  0  0999 V2000
   -0.9895    0.3048    0.1041 C   0  0  0  0  0  0  0  0  0  0  0  0
    0.3761   -0.3562    0.0721 C   0  0  0  0  0  0  0  0  0  0  0  0
    0.3441   -1.6564   -0.4834 O   0  0  0  0  0  0  0  0  0  0  0  0
   -1.6997   -0.3114    0.6572 H   0  0  0  0  0  0  0  0  0  0  0  0
   -0.9320    1.2848    0.5822 H   0  0  0  0  0  0  0  0  0  0  0  0
   -1.3774    0.4507   -0.9077 H   0  0  0  0  0  0  0  0  0  0  0  0
    0.7581   -0.4813    1.0862 H   0  0  0  0  0  0  0  0  0  0  0  0
    1.0900    0.2787   -0.4681 H   0  0  0  0  0  0  0  0  0  0  0  0
    0.0089   -1.5959   -1.3792 H   0  0  0  0  0  0  0  0  0  0  0  0
  1  2  1  0
  1  4  1  0
  1  5  1  0
  1  6  1  0
  2  3  1  0
  2  7  1  0
  2  8  1  0
  3  9  1  0
M  END
>  <reaction>  (3) 
rmg_rxn_370

>  <mol_properties>  (3) 
{"2": {"label": "acceptor", "atom_type": "O2s"}, "8": {"label": "a_hydrogen", "atom_type": "H0"}}

>  <type>  (3) 
r2h

$$$$

     RDKit          3D

 22 20  0  0  0  0  0  0  0  0999 V2000
   -0.1370    2.7503   -0.1973 C   0  0  0  0  0  0  0  0  0  0  0  0
    0.6719    1.7192   -0.9667 C   0  0  0  0  0  0  0  0  0  0  0  0
    1.2465    0.7399   -0.1599 O   0  0  0  0  0  1  0  0  0  0  0  0
    0.4763    3.2132    0.5768 H   0  0  0  0  0  0  0  0  0  0  0  0
   -0.5068    3.5312   -0.8654 H   0  0  0  0  0  0  0  0  0  0  0  0
   -0.9973    2.2806    0.2843 H   0  0  0  0  0  0  0  0  0  0  0  0
    0.0639    1.2676   -1.7637 H   0  0  0  0  0  0  0  0  0  0  0  0
    1.5200    2.2046   -1.4680 H   0  0  0  0  0  0  0  0  0  0  0  0
   -0.2247   -2.1142   -1.4380 C   0  0  0  0  0  0  0  0  0  0  0  0
   -0.3904   -2.0738    0.0752 C   0  0  0  0  0  0  0  0  0  0  0  0
   -0.6931   -0.6911    0.6017 C   0  0  0  0  0  0  0  0  0  0  0  0
   -0.8072   -0.5537    2.0986 C   0  0  0  0  0  0  0  0  0  0  0  0
    0.5996   -1.4695   -1.7475 H   0  0  0  0  0  0  0  0  0  0  0  0
   -1.1316   -1.7683   -1.9400 H   0  0  0  0  0  0  0  0  0  0  0  0
   -0.0154   -3.1262   -1.7869 H   0  0  0  0  0  0  0  0  0  0  0  0
   -1.2011   -2.7476    0.3805 H   0  0  0  0  0  0  0  0  0  0  0  0
    0.5156   -2.4498    0.5595 H   0  0  0  0  0  0  0  0  0  0  0  0
   -1.5255   -0.2218    0.0693 H   0  0  0  0  0  0  0  0  0  0  0  0
    0.2720    0.0018    0.2681 H   0  0  0  0  0  0  0  0  0  0  0  0
    0.0923   -0.9231    2.5945 H   0  0  0  0  0  0  0  0  0  0  0  0
   -1.6565   -1.1336    2.4748 H   0  0  0  0  0  0  0  0  0  0  0  0
   -0.9539    0.4859    2.3937 H   0  0  0  0  0  0  0  0  0  0  0  0
  1  2  1  0
  1  4  1  0
  1  5  1  0
  1  6  1  0
  2  3  1  0
  2  7  1  0
  2  8  1  0
  9 10  1  0
  9 13  1  0
  9 14  1  0
  9 15  1  0
 10 11  1  0
 10 16  1  0
 10 17  1  0
 11 12  1  0
 11 18  1  0
 11 19  1  0
 12 20  1  0
 12 21  1  0
 12 22  1  0
M  RAD  1   3   2
M  END
>  <reaction>  (4) 
rmg_rxn_370

>  <mol_properties>  (4) 
{"1": {"label": "*4", "atom_type": "Cs"}, "2": {"label": "*3", "atom_type": "O2s"}, "9": {"label": "*0", "atom_type": "Cs"}, "10": {"label": "*1", "atom_type": "Cs"}, "18": {"label": "*2", "atom_type": "H0"}}

>  <type>  (4) 
ts

$$$$
