
     RDKit          3D

 10  9  0  0  0  0  0  0  0  0999 V2000
    2.0403   -0.0577    0.0120 C   0  0  0  0  0  0  0  0  0  0  0  0
    0.5945   -0.0168    0.1898 C   0  0  0  0  0  0  0  0  0  0  0  0
   -0.5945    0.0169    0.3360 C   0  0  0  0  0  0  0  0  0  0  0  0
   -2.0403    0.0577    0.5137 C   0  0  0  0  0  0  0  0  0  0  0  0
    2.4764    0.9348    0.1379 H   0  0  0  0  0  0  0  0  0  0  0  0
    2.3000   -0.4162   -0.9855 H   0  0  0  0  0  0  0  0  0  0  0  0
    2.5035   -0.7246    0.7413 H   0  0  0  0  0  0  0  0  0  0  0  0
   -2.3768    1.0718    0.7362 H   0  0  0  0  0  0  0  0  0  0  0  0
   -2.3498   -0.5886    1.3368 H   0  0  0  0  0  0  0  0  0  0  0  0
   -2.5532   -0.2773   -0.3894 H   0  0  0  0  0  0  0  0  0  0  0  0
  1  2  1  0
  1  5  1  0
  1  6  1  0
  1  7  1  0
  2  3  3  0
  3  4  1  0
  4  8  1  0
  4  9  1  0
  4 10  1  0
M  END
>  <reaction>  (1) 
rmg_rxn_24

>  <mol_properties>  (1) 
{"3": {"label": "donator", "atom_type": "Cs"}, "9": {"label": "d_hydrogen", "atom_type": "H0"}}

>  <type>  (1) 
r1h

$$$$

     RDKit          3D

 13 12  0  0  0  0  0  0  0  0999 V2000
    1.9060    0.2628    0.3980 C   0  0  0  0  0  0  0  0  0  0  0  0
    0.6330   -0.4250    0.0685 C   0  0  0  0  0  3  0  0  0  0  0  0
   -0.2610   -0.9325    1.1416 C   0  0  0  0  0  0  0  0  0  0  0  0
   -1.4364   -1.7546    0.6268 C   0  0  0  0  0  0  0  0  0  0  0  0
    2.4899   -0.3070    1.1292 H   0  0  0  0  0  0  0  0  0  0  0  0
    1.7297    1.2496    0.8515 H   0  0  0  0  0  0  0  0  0  0  0  0
    2.5269    0.4197   -0.4845 H   0  0  0  0  0  0  0  0  0  0  0  0
    0.2597   -0.3936   -0.9489 H   0  0  0  0  0  0  0  0  0  0  0  0
   -0.6439   -0.0868    1.7356 H   0  0  0  0  0  0  0  0  0  0  0  0
    0.3260   -1.5277    1.8536 H   0  0  0  0  0  0  0  0  0  0  0  0
   -1.0872   -2.6320    0.0792 H   0  0  0  0  0  0  0  0  0  0  0  0
   -2.0701   -2.0976    1.4459 H   0  0  0  0  0  0  0  0  0  0  0  0
   -2.0561   -1.1637   -0.0512 H   0  0  0  0  0  0  0  0  0  0  0  0
  1  2  1  0
  1  5  1  0
  1  6  1  0
  1  7  1  0
  2  3  1  0
  2  8  1  0
  3  4  1  0
  3  9  1  0
  3 10  1  0
  4 11  1  0
  4 12  1  0
  4 13  1  0
M  RAD  1   2   2
M  END
>  <reaction>  (2) 
rmg_rxn_24

>  <mol_properties>  (2) 
{"1": {"label": "acceptor", "atom_type": "Cs"}}

>  <type>  (2) 
r2

$$$$

     RDKit          3D

 14 13  0  0  0  0  0  0  0  0999 V2000
    1.8106   -0.5953    0.5577 C   0  0  0  0  0  0  0  0  0  0  0  0
    0.5197    0.2064    0.6554 C   0  0  0  0  0  0  0  0  0  0  0  0
   -0.5206   -0.2080   -0.3788 C   0  0  0  0  0  0  0  0  0  0  0  0
   -1.8114    0.5937   -0.2812 C   0  0  0  0  0  0  0  0  0  0  0  0
    2.2725   -0.4752   -0.4251 H   0  0  0  0  0  0  0  0  0  0  0  0
    1.6214   -1.6612    0.7052 H   0  0  0  0  0  0  0  0  0  0  0  0
    2.5364   -0.2784    1.3084 H   0  0  0  0  0  0  0  0  0  0  0  0
    0.0930    0.0950    1.6574 H   0  0  0  0  0  0  0  0  0  0  0  0
    0.7393    1.2723    0.5354 H   0  0  0  0  0  0  0  0  0  0  0  0
   -0.7402   -1.2739   -0.2588 H   0  0  0  0  0  0  0  0  0  0  0  0
   -0.0938   -0.0965   -1.3808 H   0  0  0  0  0  0  0  0  0  0  0  0
   -1.6222    1.6596   -0.4287 H   0  0  0  0  0  0  0  0  0  0  0  0
   -2.2734    0.4736    0.7017 H   0  0  0  0  0  0  0  0  0  0  0  0
   -2.5373    0.2768   -1.0318 H   0  0  0  0  0  0  0  0  0  0  0  0
  1  2  1  0
  1  5  1  0
  1  6  1  0
  1  7  1  0
  2  3  1  0
  2  8  1  0
  2  9  1  0
  3  4  1  0
  3 10  1  0
  3 11  1  0
  4 12  1  0
  4 13  1  0
  4 14  1  0
M  END
>  <reaction>  (3) 
rmg_rxn_24

>  <mol_properties>  (3) 
{"0": {"label": "a_hydrogen", "atom_type": "H0"}, "2": {"label": "acceptor", "atom_type": "Cs"}}

>  <type>  (3) 
r2h

$$$$

     RDKit          3D

 23 21  0  0  0  0  0  0  0  0999 V2000
    0.7307    1.6039   -2.8827 C   0  0  0  0  0  0  0  0  0  0  0  0
    0.9013    0.5258   -1.9191 C   0  0  0  0  0  0  0  0  0  0  0  0
    1.0502   -0.3732   -1.1319 C   0  0  0  0  0  0  0  0  0  0  0  0
    1.1634   -1.3976   -0.1467 C   0  0  0  0  0  0  0  0  0  0  0  0
   -0.0826    2.2696   -2.5855 H   0  0  0  0  0  0  0  0  0  0  0  0
    0.4956    1.2088   -3.8727 H   0  0  0  0  0  0  0  0  0  0  0  0
    1.6405    2.2011   -2.9650 H   0  0  0  0  0  0  0  0  0  0  0  0
    2.1431   -1.4703    0.3216 H   0  0  0  0  0  0  0  0  0  0  0  0
    0.7870   -2.3700   -0.4576 H   0  0  0  0  0  0  0  0  0  0  0  0
    0.3713   -1.0602    0.8612 H   0  0  0  0  0  0  0  0  0  0  0  0
    0.5147    0.3406    2.6367 C   0  0  0  0  0  0  0  0  0  0  0  0
   -0.4173   -0.5454    1.8581 C   0  0  0  0  0  3  0  0  0  0  0  0
   -1.5292    0.1396    1.1105 C   0  0  0  0  0  0  0  0  0  0  0  0
   -2.3806   -0.8142    0.2832 C   0  0  0  0  0  0  0  0  0  0  0  0
   -0.0150    0.8686    3.4376 H   0  0  0  0  0  0  0  0  0  0  0  0
    0.9602    1.0977    1.9859 H   0  0  0  0  0  0  0  0  0  0  0  0
    1.3235   -0.2299    3.0961 H   0  0  0  0  0  0  0  0  0  0  0  0
   -0.7368   -1.4404    2.3951 H   0  0  0  0  0  0  0  0  0  0  0  0
   -1.0954    0.9044    0.4577 H   0  0  0  0  0  0  0  0  0  0  0  0
   -2.1655    0.6769    1.8270 H   0  0  0  0  0  0  0  0  0  0  0  0
   -2.8229   -1.5911    0.9113 H   0  0  0  0  0  0  0  0  0  0  0  0
   -3.1929   -0.2860   -0.2181 H   0  0  0  0  0  0  0  0  0  0  0  0
   -1.7781   -1.3030   -0.4848 H   0  0  0  0  0  0  0  0  0  0  0  0
  1  2  1  0
  1  5  1  0
  1  6  1  0
  1  7  1  0
  2  3  3  0
  3  4  1  0
  4  8  1  0
  4  9  1  0
  4 10  1  0
 11 12  1  0
 11 15  1  0
 11 16  1  0
 11 17  1  0
 12 13  1  0
 12 18  1  0
 13 14  1  0
 13 19  1  0
 13 20  1  0
 14 21  1  0
 14 22  1  0
 14 23  1  0
M  RAD  1  12   2
M  END
>  <reaction>  (4) 
rmg_rxn_24

>  <mol_properties>  (4) 
{"2": {"label": "*0", "atom_type": "Ct"}, "3": {"label": "*1", "atom_type": "Cs"}, "9": {"label": "*2", "atom_type": "H0"}, "11": {"label": "*3", "atom_type": "Cs"}, "12": {"label": "*4", "atom_type": "Cs"}}

>  <type>  (4) 
ts

$$$$
