
     RDKit          3D

 14 14  0  0  0  0  0  0  0  0999 V2000
   -1.1778    0.2241    0.1818 C   0  0  0  0  0  0  0  0  0  0  0  0
   -0.5633   -1.1636    0.0678 C   0  0  0  0  0  0  0  0  0  0  0  0
    0.6943   -1.1996    0.7146 O   0  0  0  0  0  0  0  0  0  0  0  0
    1.5547   -0.2288    0.2011 C   0  0  0  0  0  0  0  0  0  0  0  0
    1.0729    1.0696    0.3698 O   0  0  0  0  0  0  0  0  0  0  0  0
   -0.1607    1.2493   -0.2989 C   0  0  0  0  0  0  0  0  0  0  0  0
   -2.0927    0.2866   -0.4117 H   0  0  0  0  0  0  0  0  0  0  0  0
   -1.4303    0.4248    1.2248 H   0  0  0  0  0  0  0  0  0  0  0  0
   -1.1822   -1.9235    0.5431 H   0  0  0  0  0  0  0  0  0  0  0  0
   -0.4389   -1.4347   -0.9919 H   0  0  0  0  0  0  0  0  0  0  0  0
    1.7250   -0.4207   -0.8742 H   0  0  0  0  0  0  0  0  0  0  0  0
    2.4896   -0.3010    0.7524 H   0  0  0  0  0  0  0  0  0  0  0  0
   -0.0080    1.1481   -1.3844 H   0  0  0  0  0  0  0  0  0  0  0  0
   -0.4826    2.2695   -0.0942 H   0  0  0  0  0  0  0  0  0  0  0  0
  1  2  1  0
  1  6  1  0
  1  7  1  0
  1  8  1  0
  2  3  1  0
  2  9  1  0
  2 10  1  0
  3  4  1  0
  4  5  1  0
  4 11  1  0
  4 12  1  0
  5  6  1  0
  6 13  1  0
  6 14  1  0
M  END
>  <reaction>  (1) 
rmg_rxn_340

>  <mol_properties>  (1) 
{"1": {"label": "donator", "atom_type": "Cs"}, "8": {"label": "d_hydrogen", "atom_type": "H0"}}

>  <type>  (1) 
r1h

$$$$

     RDKit          3D

 17 16  0  0  0  0  0  0  0  0999 V2000
   -2.5196    0.7765    0.6863 C   0  0  0  0  0  0  0  0  0  0  0  0
   -1.7832    0.2264   -0.5439 C   0  0  0  0  0  0  0  0  0  0  0  0
   -0.5364   -0.5090   -0.2164 C   0  0  0  0  0  3  0  0  0  0  0  0
   -0.7195   -1.6896    0.4220 O   0  0  0  0  0  0  0  0  0  0  0  0
    0.4618   -2.3470    0.8423 C   0  0  0  0  0  0  0  0  0  0  0  0
    0.0797   -3.6206    1.5573 C   0  0  0  0  0  0  0  0  0  0  0  0
   -1.8902    1.4809    1.2340 H   0  0  0  0  0  0  0  0  0  0  0  0
   -3.4347    1.2951    0.3937 H   0  0  0  0  0  0  0  0  0  0  0  0
   -2.7882   -0.0345    1.3642 H   0  0  0  0  0  0  0  0  0  0  0  0
   -2.4551   -0.4399   -1.0937 H   0  0  0  0  0  0  0  0  0  0  0  0
   -1.5294    1.0480   -1.2176 H   0  0  0  0  0  0  0  0  0  0  0  0
    0.3864    0.0229    0.0104 H   0  0  0  0  0  0  0  0  0  0  0  0
    1.0871   -2.5604   -0.0319 H   0  0  0  0  0  0  0  0  0  0  0  0
    1.0283   -1.6824    1.5065 H   0  0  0  0  0  0  0  0  0  0  0  0
   -0.4799   -4.2803    0.8934 H   0  0  0  0  0  0  0  0  0  0  0  0
    0.9764   -4.1449    1.8908 H   0  0  0  0  0  0  0  0  0  0  0  0
   -0.5383   -3.4025    2.4289 H   0  0  0  0  0  0  0  0  0  0  0  0
  1  2  1  0
  1  7  1  0
  1  8  1  0
  1  9  1  0
  2  3  1  0
  2 10  1  0
  2 11  1  0
  3  4  1  0
  3 12  1  0
  4  5  1  0
  5  6  1  0
  5 13  1  0
  5 14  1  0
  6 15  1  0
  6 16  1  0
  6 17  1  0
M  RAD  1   3   2
M  END
>  <reaction>  (2) 
rmg_rxn_340

>  <mol_properties>  (2) 
{"2": {"label": "acceptor", "atom_type": "Cs"}}

>  <type>  (2) 
r2

$$$$

     RDKit          3D

 18 17  0  0  0  0  0  0  0  0999 V2000
    2.2026   -0.7213   -0.2612 C   0  0  0  0  0  0  0  0  0  0  0  0
    1.5384    0.2638    0.6915 C   0  0  0  0  0  0  0  0  0  0  0  0
    2.2584    1.5946    0.7694 C   0  0  0  0  0  0  0  0  0  0  0  0
    2.2212    2.2185   -0.4893 O   0  0  0  0  0  0  0  0  0  0  0  0
    2.8988    3.4488   -0.5204 C   0  0  0  0  0  0  0  0  0  0  0  0
    2.7981    4.0296   -1.9118 C   0  0  0  0  0  0  0  0  0  0  0  0
    3.2294   -0.9309    0.0486 H   0  0  0  0  0  0  0  0  0  0  0  0
    2.2338   -0.3181   -1.2734 H   0  0  0  0  0  0  0  0  0  0  0  0
    1.6610   -1.6680   -0.2875 H   0  0  0  0  0  0  0  0  0  0  0  0
    1.4990   -0.1566    1.7002 H   0  0  0  0  0  0  0  0  0  0  0  0
    0.5055    0.4455    0.3835 H   0  0  0  0  0  0  0  0  0  0  0  0
    3.3038    1.4410    1.0808 H   0  0  0  0  0  0  0  0  0  0  0  0
    1.7844    2.2410    1.5226 H   0  0  0  0  0  0  0  0  0  0  0  0
    2.4596    4.1376    0.2164 H   0  0  0  0  0  0  0  0  0  0  0  0
    3.9524    3.3035   -0.2397 H   0  0  0  0  0  0  0  0  0  0  0  0
    1.7543    4.1869   -2.1856 H   0  0  0  0  0  0  0  0  0  0  0  0
    3.2472    3.3545   -2.6411 H   0  0  0  0  0  0  0  0  0  0  0  0
    3.3178    4.9878   -1.9600 H   0  0  0  0  0  0  0  0  0  0  0  0
  1  2  1  0
  1  7  1  0
  1  8  1  0
  1  9  1  0
  2  3  1  0
  2 10  1  0
  2 11  1  0
  3  4  1  0
  3 12  1  0
  3 13  1  0
  4  5  1  0
  5  6  1  0
  5 14  1  0
  5 15  1  0
  6 16  1  0
  6 17  1  0
  6 18  1  0
M  END
>  <reaction>  (3) 
rmg_rxn_340

>  <mol_properties>  (3) 
{"0": {"label": "a_hydrogen", "atom_type": "H0"}, "3": {"label": "acceptor", "atom_type": "Cs"}}

>  <type>  (3) 
r2h

$$$$

     RDKit          3D

 31 30  0  0  0  0  0  0  0  0999 V2000
   -0.0184    0.6999   -1.3200 C   0  0  0  0  0  0  0  0  0  0  0  0
    1.1427    0.6623   -0.3609 C   0  0  0  0  0  3  0  0  0  0  0  0
    1.0128    1.5945    0.6733 O   0  0  0  0  0  0  0  0  0  0  0  0
    0.7736    2.8898    0.1890 C   0  0  0  0  0  0  0  0  0  0  0  0
   -0.3821    2.9680   -0.5818 O   0  0  0  0  0  0  0  0  0  0  0  0
   -0.2888    2.1454   -1.7302 C   0  0  0  0  0  0  0  0  0  0  0  0
    0.1922    0.0866   -2.1978 H   0  0  0  0  0  0  0  0  0  0  0  0
   -0.9084    0.2910   -0.8343 H   0  0  0  0  0  0  0  0  0  0  0  0
    1.0759   -0.5644    0.3188 H   0  0  0  0  0  0  0  0  0  0  0  0
    2.1334    0.7029   -0.8290 H   0  0  0  0  0  0  0  0  0  0  0  0
    1.6426    3.2203   -0.4063 H   0  0  0  0  0  0  0  0  0  0  0  0
    0.6346    3.5348    1.0541 H   0  0  0  0  0  0  0  0  0  0  0  0
    0.5189    2.5130   -2.3798 H   0  0  0  0  0  0  0  0  0  0  0  0
   -1.2332    2.2459   -2.2642 H   0  0  0  0  0  0  0  0  0  0  0  0
    1.0579   -2.8946   -1.2327 C   0  0  0  0  0  0  0  0  0  0  0  0
    1.4594   -2.8000    0.2351 C   0  0  0  0  0  0  0  0  0  0  0  0
    0.7914   -1.6679    0.9679 C   0  0  0  0  0  0  0  0  0  0  0  0
   -0.5839   -1.8002    0.9634 O   0  0  0  0  0  0  0  0  0  0  0  0
   -1.2552   -0.8876    1.8132 C   0  0  0  0  0  0  0  0  0  0  0  0
   -2.7418   -1.0246    1.5893 C   0  0  0  0  0  0  0  0  0  0  0  0
    1.3664   -2.0007   -1.7789 H   0  0  0  0  0  0  0  0  0  0  0  0
    1.5261   -3.7560   -1.7106 H   0  0  0  0  0  0  0  0  0  0  0  0
   -0.0231   -2.9940   -1.3328 H   0  0  0  0  0  0  0  0  0  0  0  0
    1.2207   -3.7406    0.7439 H   0  0  0  0  0  0  0  0  0  0  0  0
    2.5404   -2.6621    0.3205 H   0  0  0  0  0  0  0  0  0  0  0  0
    1.1915   -1.4951    1.9745 H   0  0  0  0  0  0  0  0  0  0  0  0
   -0.9954   -1.1090    2.8570 H   0  0  0  0  0  0  0  0  0  0  0  0
   -0.9197    0.1332    1.6000 H   0  0  0  0  0  0  0  0  0  0  0  0
   -3.0710   -2.0445    1.7915 H   0  0  0  0  0  0  0  0  0  0  0  0
   -3.2841   -0.3466    2.2498 H   0  0  0  0  0  0  0  0  0  0  0  0
   -2.9984   -0.7781    0.5578 H   0  0  0  0  0  0  0  0  0  0  0  0
  1  2  1  0
  1  6  1  0
  1  7  1  0
  1  8  1  0
  2  3  1  0
  2 10  1  0
  3  4  1  0
  4  5  1  0
  4 11  1  0
  4 12  1  0
  5  6  1  0
  6 13  1  0
  6 14  1  0
  9 17  1  0
 15 16  1  0
 15 21  1  0
 15 22  1  0
 15 23  1  0
 16 17  1  0
 16 24  1  0
 16 25  1  0
 17 18  1  0
 17 26  1  0
 18 19  1  0
 19 20  1  0
 19 27  1  0
 19 28  1  0
 20 29  1  0
 20 30  1  0
 20 31  1  0
M  RAD  1   2   2
M  END
>  <reaction>  (4) 
rmg_rxn_340

>  <mol_properties>  (4) 
{"1": {"label": "*3", "atom_type": "Cs"}, "2": {"label": "*4", "atom_type": "O2s"}, "8": {"label": "*2", "atom_type": "H0"}, "16": {"label": "*1", "atom_type": "Cs"}, "17": {"label": "*0", "atom_type": "O2s"}}

>  <type>  (4) 
ts

$$$$
