
     RDKit          3D

  9  8  0  0  0  0  0  0  0  0999 V2000
   -1.2461    0.5037    0.0950 C   0  0  0  0  0  0  0  0  0  0  0  0
   -0.0155   -0.3334    0.0640 C   0  0  0  0  0  0  0  0  0  0  0  0
    1.0697    0.1457   -0.3733 N   0  0  0  0  0  0  0  0  0  0  0  0
    2.1001   -0.7834   -0.3224 O   0  0  0  0  0  0  0  0  0  0  0  0
   -2.0357    0.0440   -0.5039 H   0  0  0  0  0  0  0  0  0  0  0  0
   -1.6237    0.5897    1.1166 H   0  0  0  0  0  0  0  0  0  0  0  0
   -1.0397    1.4998   -0.2929 H   0  0  0  0  0  0  0  0  0  0  0  0
   -0.0537   -1.3634    0.4205 H   0  0  0  0  0  0  0  0  0  0  0  0
    2.8478   -0.2985   -0.6758 H   0  0  0  0  0  0  0  0  0  0  0  0
  1  2  1  0
  1  5  1  0
  1  6  1  0
  1  7  1  0
  2  3  2  3
  2  8  1  0
  3  4  1  0
  4  9  1  0
M  END
>  <reaction>  (1) 
rmg_rxn_54

>  <mol_properties>  (1) 
{"3": {"label": "donator", "atom_type": "O2s"}, "8": {"label": "d_hydrogen", "atom_type": "H0"}}

>  <type>  (1) 
r1h

$$$$

     RDKit          3D

  8  7  0  0  0  0  0  0  0  0999 V2000
    0.8135   -0.0283    0.0400 C   0  0  0  0  0  0  0  0  0  0  0  0
   -0.7038   -0.1008   -0.0090 C   0  0  0  0  0  0  0  0  0  0  0  0
   -1.5421    1.4429   -0.3606 S   0  0  0  0  0  1  0  0  0  0  0  0
    1.1442    0.6666    0.8124 H   0  0  0  0  0  0  0  0  0  0  0  0
    1.2169    0.3129   -0.9137 H   0  0  0  0  0  0  0  0  0  0  0  0
    1.2356   -1.0119    0.2594 H   0  0  0  0  0  0  0  0  0  0  0  0
   -1.1179   -0.4664    0.9365 H   0  0  0  0  0  0  0  0  0  0  0  0
   -1.0463   -0.8150   -0.7650 H   0  0  0  0  0  0  0  0  0  0  0  0
  1  2  1  0
  1  4  1  0
  1  5  1  0
  1  6  1  0
  2  3  1  0
  2  7  1  0
  2  8  1  0
M  RAD  1   3   2
M  END
>  <reaction>  (2) 
rmg_rxn_54

>  <mol_properties>  (2) 
{"2": {"label": "acceptor", "atom_type": "S2s"}}

>  <type>  (2) 
r2

$$$$

     RDKit          3D

  9  8  0  0  0  0  0  0  0  0999 V2000
   -0.8818   -0.3578    0.1297 C   0  0  0  0  0  0  0  0  0  0  0  0
    0.6153   -0.3021   -0.1188 C   0  0  0  0  0  0  0  0  0  0  0  0
    1.5354   -1.7170    0.5545 S   0  0  0  0  0  0  0  0  0  0  0  0
   -1.1018   -0.3317    1.1984 H   0  0  0  0  0  0  0  0  0  0  0  0
   -1.3114   -1.2723   -0.2799 H   0  0  0  0  0  0  0  0  0  0  0  0
   -1.3767    0.4976   -0.3363 H   0  0  0  0  0  0  0  0  0  0  0  0
    1.0467    0.6194    0.2718 H   0  0  0  0  0  0  0  0  0  0  0  0
    0.8295   -0.3275   -1.1882 H   0  0  0  0  0  0  0  0  0  0  0  0
    1.2306   -1.5077    1.8423 H   0  0  0  0  0  0  0  0  0  0  0  0
  1  2  1  0
  1  4  1  0
  1  5  1  0
  1  6  1  0
  2  3  1  0
  2  7  1  0
  2  8  1  0
  3  9  1  0
M  END
>  <reaction>  (3) 
rmg_rxn_54

>  <mol_properties>  (3) 
{"2": {"label": "acceptor", "atom_type": "S2s"}, "8": {"label": "a_hydrogen", "atom_type": "H0"}}

>  <type>  (3) 
r2h

$$$$

     RDKit          3D

 17 15  0  0  0  0  0  0  0  0999 V2000
    1.6813    0.0157    1.8756 C   0  0  0  0  0  0  0  0  0  0  0  0
    0.8142    1.1115    1.2792 C   0  0  0  0  0  0  0  0  0  0  0  0
   -0.8582    1.1908    1.9322 S   0  0  0  0  0  1  0  0  0  0  0  0
    1.2356   -0.9638    1.6973 H   0  0  0  0  0  0  0  0  0  0  0  0
    1.7933    0.1446    2.9526 H   0  0  0  0  0  0  0  0  0  0  0  0
    2.6755    0.0273    1.4220 H   0  0  0  0  0  0  0  0  0  0  0  0
    0.7024    0.9584    0.1968 H   0  0  0  0  0  0  0  0  0  0  0  0
    1.2587    2.0997    1.4122 H   0  0  0  0  0  0  0  0  0  0  0  0
    0.4070   -1.4936   -2.7345 C   0  0  0  0  0  0  0  0  0  0  0  0
   -0.6993   -1.5080   -1.7391 C   0  0  0  0  0  0  0  0  0  0  0  0
   -0.6820   -0.7203   -0.7452 N   0  0  0  0  0  0  0  0  0  0  0  0
   -1.6505   -0.7308    0.1179 O   0  0  0  0  0  0  0  0  0  0  0  0
    0.8852   -2.4741   -2.7897 H   0  0  0  0  0  0  0  0  0  0  0  0
    0.0219   -1.2647   -3.7308 H   0  0  0  0  0  0  0  0  0  0  0  0
    1.1550   -0.7496   -2.4652 H   0  0  0  0  0  0  0  0  0  0  0  0
   -1.5303   -2.2015   -1.8624 H   0  0  0  0  0  0  0  0  0  0  0  0
   -1.3653    0.0345    1.0562 H   0  0  0  0  0  0  0  0  0  0  0  0
  1  2  1  0
  1  4  1  0
  1  5  1  0
  1  6  1  0
  2  3  1  0
  2  7  1  0
  2  8  1  0
  9 10  1  0
  9 13  1  0
  9 14  1  0
  9 15  1  0
 10 11  2  3
 10 16  1  0
 11 12  1  0
 12 17  1  0
M  RAD  1   3   2
M  END
>  <reaction>  (4) 
rmg_rxn_54

>  <mol_properties>  (4) 
{"1": {"label": "*4", "atom_type": "Cs"}, "2": {"label": "*3", "atom_type": "S2s"}, "10": {"label": "*0", "atom_type": "N3d"}, "11": {"label": "*1", "atom_type": "O2s"}, "16": {"label": "*2", "atom_type": "H0"}}

>  <type>  (4) 
ts

$$$$
