
     RDKit          3D

  3  2  0  0  0  0  0  0  0  0999 V2000
   -0.0007    0.6157    0.0000 S   0  0  0  0  0  0  0  0  0  0  0  0
   -0.9686   -0.3090    0.0000 H   0  0  0  0  0  0  0  0  0  0  0  0
    0.9693   -0.3067    0.0000 H   0  0  0  0  0  0  0  0  0  0  0  0
  1  2  1  0
  1  3  1  0
M  END
>  <reaction>  (1) 
rmg_rxn_83

>  <mol_properties>  (1) 
{"0": {"label": "donator", "atom_type": "S2s"}, "1": {"label": "d_hydrogen", "atom_type": "H0"}}

>  <type>  (1) 
r1h

$$$$

     RDKit          3D

 14 13  0  0  0  0  0  0  0  0999 V2000
    2.5796   -0.5432    0.2329 C   0  0  0  0  0  3  0  0  0  0  0  0
    1.2594    0.0982    0.3029 C   0  0  0  0  0  0  0  0  0  0  0  0
   -0.0483   -1.0244    0.9576 S   0  0  0  0  0  0  0  0  0  0  0  0
   -0.0049   -2.3732   -0.2491 C   0  0  0  0  0  0  0  0  0  0  0  0
   -0.3891   -1.9781   -1.6653 C   0  0  0  0  0  0  0  0  0  0  0  0
    2.9359   -0.9798   -0.6903 H   0  0  0  0  0  0  0  0  0  0  0  0
    3.1327   -0.7454    1.1400 H   0  0  0  0  0  0  0  0  0  0  0  0
    0.9347    0.4858   -0.6621 H   0  0  0  0  0  0  0  0  0  0  0  0
    1.2442    0.9220    1.0193 H   0  0  0  0  0  0  0  0  0  0  0  0
    0.9819   -2.8380   -0.2257 H   0  0  0  0  0  0  0  0  0  0  0  0
   -0.7110   -3.1037    0.1493 H   0  0  0  0  0  0  0  0  0  0  0  0
    0.3274   -1.2737   -2.0913 H   0  0  0  0  0  0  0  0  0  0  0  0
   -0.4075   -2.8581   -2.3121 H   0  0  0  0  0  0  0  0  0  0  0  0
   -1.3749   -1.5123   -1.6865 H   0  0  0  0  0  0  0  0  0  0  0  0
  1  2  1  0
  1  6  1  0
  1  7  1  0
  2  3  1  0
  2  8  1  0
  2  9  1  0
  3  4  1  0
  4  5  1  0
  4 10  1  0
  4 11  1  0
  5 12  1  0
  5 13  1  0
  5 14  1  0
M  RAD  1   1   2
M  END
>  <reaction>  (2) 
rmg_rxn_83

>  <mol_properties>  (2) 
{"0": {"label": "acceptor", "atom_type": "Cs"}}

>  <type>  (2) 
r2

$$$$

     RDKit          3D

 15 14  0  0  0  0  0  0  0  0999 V2000
   -2.0554    0.0723   -0.4910 C   0  0  0  0  0  0  0  0  0  0  0  0
   -0.7461   -0.6266   -0.8178 C   0  0  0  0  0  0  0  0  0  0  0  0
    0.3249    0.2591   -1.9782 S   0  0  0  0  0  0  0  0  0  0  0  0
   -0.7172    0.3642   -3.4551 C   0  0  0  0  0  0  0  0  0  0  0  0
   -1.1375   -0.9737   -4.0409 C   0  0  0  0  0  0  0  0  0  0  0  0
   -2.7005    0.1427   -1.3684 H   0  0  0  0  0  0  0  0  0  0  0  0
   -2.6016   -0.4848    0.2733 H   0  0  0  0  0  0  0  0  0  0  0  0
   -1.8758    1.0825   -0.1213 H   0  0  0  0  0  0  0  0  0  0  0  0
   -0.1320   -0.7246    0.0789 H   0  0  0  0  0  0  0  0  0  0  0  0
   -0.9254   -1.6374   -1.1879 H   0  0  0  0  0  0  0  0  0  0  0  0
   -1.5873    0.9874   -3.2422 H   0  0  0  0  0  0  0  0  0  0  0  0
   -0.1021    0.9161   -4.1678 H   0  0  0  0  0  0  0  0  0  0  0  0
   -1.7876   -1.5224   -3.3574 H   0  0  0  0  0  0  0  0  0  0  0  0
   -0.2676   -1.5962   -4.2534 H   0  0  0  0  0  0  0  0  0  0  0  0
   -1.6916   -0.8229   -4.9700 H   0  0  0  0  0  0  0  0  0  0  0  0
  1  2  1  0
  1  6  1  0
  1  7  1  0
  1  8  1  0
  2  3  1  0
  2  9  1  0
  2 10  1  0
  3  4  1  0
  4  5  1  0
  4 11  1  0
  4 12  1  0
  5 13  1  0
  5 14  1  0
  5 15  1  0
M  END
>  <reaction>  (3) 
rmg_rxn_83

>  <mol_properties>  (3) 
{"0": {"label": "a_hydrogen", "atom_type": "H0"}, "1": {"label": "acceptor", "atom_type": "Cs"}}

>  <type>  (3) 
r2h

$$$$

     RDKit          3D

 17 15  0  0  0  0  0  0  0  0999 V2000
   -1.1047   -2.4538    0.9348 S   0  0  0  0  0  0  0  0  0  0  0  0
   -1.1063   -1.0072    1.1296 H   0  0  0  0  0  0  0  0  0  0  0  0
   -0.4280   -2.3009   -0.2123 H   0  0  0  0  0  0  0  0  0  0  0  0
   -1.0443    0.5402    1.1922 C   0  0  0  0  0  3  0  0  0  0  0  0
   -1.0766    1.0209   -0.2188 C   0  0  0  0  0  0  0  0  0  0  0  0
    0.2461    0.4259   -1.3070 S   0  0  0  0  0  0  0  0  0  0  0  0
    1.7360    0.8993   -0.3942 C   0  0  0  0  0  0  0  0  0  0  0  0
    1.8765    2.3875   -0.1216 C   0  0  0  0  0  0  0  0  0  0  0  0
   -0.1214    0.6557    1.7508 H   0  0  0  0  0  0  0  0  0  0  0  0
   -1.9455    0.7028    1.7762 H   0  0  0  0  0  0  0  0  0  0  0  0
   -1.0785    2.1172   -0.2321 H   0  0  0  0  0  0  0  0  0  0  0  0
   -1.9981    0.7040   -0.7100 H   0  0  0  0  0  0  0  0  0  0  0  0
    1.7942    0.3204    0.5290 H   0  0  0  0  0  0  0  0  0  0  0  0
    2.5482    0.5494   -1.0334 H   0  0  0  0  0  0  0  0  0  0  0  0
    1.0925    2.7487    0.5463 H   0  0  0  0  0  0  0  0  0  0  0  0
    2.8354    2.5938    0.3583 H   0  0  0  0  0  0  0  0  0  0  0  0
    1.8230    2.9603   -1.0480 H   0  0  0  0  0  0  0  0  0  0  0  0
  1  2  1  0
  1  3  1  0
  4  5  1  0
  4  9  1  0
  4 10  1  0
  5  6  1  0
  5 11  1  0
  5 12  1  0
  6  7  1  0
  7  8  1  0
  7 13  1  0
  7 14  1  0
  8 15  1  0
  8 16  1  0
  8 17  1  0
M  RAD  1   4   2
M  END
>  <reaction>  (4) 
rmg_rxn_83

>  <mol_properties>  (4) 
{"0": {"label": "*1", "atom_type": "S2s"}, "1": {"label": "*2", "atom_type": "H0"}, "2": {"label": "*0", "atom_type": "H0"}, "3": {"label": "*3", "atom_type": "Cs"}, "4": {"label": "*4", "atom_type": "Cs"}}

>  <type>  (4) 
ts

$$$$
