
     RDKit          3D

  8  7  0  0  0  0  0  0  0  0999 V2000
    0.9548    0.1194   -0.0790 C   0  0  0  0  0  0  0  0  0  0  0  0
   -0.4838   -0.2649    0.0193 C   0  0  0  0  0  0  0  0  0  0  0  0
   -0.8933   -1.1081    0.8664 N   0  0  0  0  0  0  0  0  0  0  0  0
    1.3360   -0.0983   -1.0800 H   0  0  0  0  0  0  0  0  0  0  0  0
    1.0698    1.1948    0.0786 H   0  0  0  0  0  0  0  0  0  0  0  0
    1.5426   -0.4219    0.6602 H   0  0  0  0  0  0  0  0  0  0  0  0
   -1.1575    0.2324   -0.6905 H   0  0  0  0  0  0  0  0  0  0  0  0
   -1.8989   -1.2455    0.7886 H   0  0  0  0  0  0  0  0  0  0  0  0
  1  2  1  0
  1  4  1  0
  1  5  1  0
  1  6  1  0
  2  3  2  3
  2  7  1  0
  3  8  1  0
M  END
>  <reaction>  (1) 
rmg_rxn_16741

>  <mol_properties>  (1) 
{"2": {"label": "donator", "atom_type": "N3d"}, "7": {"label": "d_hydrogen", "atom_type": "H0"}}

>  <type>  (1) 
r1h

$$$$

     RDKit          3D

  4  3  0  0  0  0  0  0  0  0999 V2000
    0.0000    0.0000    0.0000 C   0  0  0  0  0  3  0  0  0  0  0  0
    1.0638   -0.1747    0.0540 H   0  0  0  0  0  0  0  0  0  0  0  0
   -0.6833   -0.8351   -0.0280 H   0  0  0  0  0  0  0  0  0  0  0  0
   -0.3805    1.0098   -0.0260 H   0  0  0  0  0  0  0  0  0  0  0  0
  1  2  1  0
  1  3  1  0
  1  4  1  0
M  RAD  1   1   2
M  END
>  <reaction>  (2) 
rmg_rxn_16741

>  <mol_properties>  (2) 
{"0": {"label": "acceptor", "atom_type": "Cs"}}

>  <type>  (2) 
r2

$$$$

     RDKit          3D

  5  4  0  0  0  0  0  0  0  0999 V2000
    0.0000    0.0000    0.0000 C   0  0  0  0  0  0  0  0  0  0  0  0
   -0.6486   -0.7720   -0.4113 H   0  0  0  0  0  0  0  0  0  0  0  0
   -0.3482    0.9787   -0.3267 H   0  0  0  0  0  0  0  0  0  0  0  0
   -0.0223   -0.0487    1.0876 H   0  0  0  0  0  0  0  0  0  0  0  0
    1.0191   -0.1580   -0.3496 H   0  0  0  0  0  0  0  0  0  0  0  0
  1  2  1  0
  1  3  1  0
  1  4  1  0
  1  5  1  0
M  END
>  <reaction>  (3) 
rmg_rxn_16741

>  <mol_properties>  (3) 
{"0": {"label": "acceptor", "atom_type": "Cs"}, "4": {"label": "a_hydrogen", "atom_type": "H0"}}

>  <type>  (3) 
r2h

$$$$

     RDKit          3D

 12 10  0  0  0  0  0  0  0  0999 V2000
    0.1618    0.0377    2.4876 C   0  0  0  0  0  3  0  0  0  0  0  0
   -0.1740    1.0697    2.4649 H   0  0  0  0  0  0  0  0  0  0  0  0
   -0.6300   -0.6933    2.6181 H   0  0  0  0  0  0  0  0  0  0  0  0
    1.0402   -0.1363    3.1006 H   0  0  0  0  0  0  0  0  0  0  0  0
   -0.1676   -0.2783   -2.1283 C   0  0  0  0  0  0  0  0  0  0  0  0
   -0.1403   -0.1557   -0.6364 C   0  0  0  0  0  0  0  0  0  0  0  0
    0.9022   -0.3672    0.0333 N   0  0  0  0  0  0  0  0  0  0  0  0
   -0.9071   -1.0249   -2.4274 H   0  0  0  0  0  0  0  0  0  0  0  0
   -0.4681    0.6724   -2.5749 H   0  0  0  0  0  0  0  0  0  0  0  0
    0.8114   -0.5645   -2.5082 H   0  0  0  0  0  0  0  0  0  0  0  0
   -1.0863    0.1305   -0.1585 H   0  0  0  0  0  0  0  0  0  0  0  0
    0.6577   -0.2038    1.1856 H   0  0  0  0  0  0  0  0  0  0  0  0
  1  2  1  0
  1  3  1  0
  1  4  1  0
  5  6  1  0
  5  8  1  0
  5  9  1  0
  5 10  1  0
  6  7  2  3
  6 11  1  0
  7 12  1  0
M  RAD  1   1   2
M  END
>  <reaction>  (4) 
rmg_rxn_16741

>  <mol_properties>  (4) 
{"0": {"label": "*3", "atom_type": "Cs"}, "1": {"label": "*4", "atom_type": "H0"}, "5": {"label": "*0", "atom_type": "Cd"}, "6": {"label": "*1", "atom_type": "N3d"}, "11": {"label": "*2", "atom_type": "H0"}}

>  <type>  (4) 
ts

$$$$
