
     RDKit          3D

  9  8  0  0  0  0  0  0  0  0999 V2000
   -1.0314    0.2323   -0.1227 C   0  0  0  0  0  0  0  0  0  0  0  0
    0.3094   -0.4511    0.0063 C   0  0  0  0  0  0  0  0  0  0  0  0
    0.3197   -1.7698    0.6841 N   0  0  0  0  0  0  0  0  0  0  0  0
   -0.7498   -2.1455    1.0557 O   0  0  0  0  0  0  0  0  0  0  0  0
   -1.4744    0.4198    0.8552 H   0  0  0  0  0  0  0  0  0  0  0  0
   -0.9073    1.1865   -0.6350 H   0  0  0  0  0  0  0  0  0  0  0  0
   -1.7319   -0.3778   -0.6927 H   0  0  0  0  0  0  0  0  0  0  0  0
    1.0375    0.1401    0.5713 H   0  0  0  0  0  0  0  0  0  0  0  0
    0.7826   -0.6494   -0.9609 H   0  0  0  0  0  0  0  0  0  0  0  0
  1  2  1  0
  1  5  1  0
  1  6  1  0
  1  7  1  0
  2  3  1  0
  2  8  1  0
  2  9  1  0
  3  4  2  0
M  END
>  <reaction>  (1) 
rmg_rxn_383

>  <mol_properties>  (1) 
{"1": {"label": "donator", "atom_type": "Cs"}, "7": {"label": "d_hydrogen", "atom_type": "H0"}}

>  <type>  (1) 
r1h

$$$$

     RDKit          3D

  8  7  0  0  0  0  0  0  0  0999 V2000
   -0.7805    0.1267   -0.0785 C   0  0  0  0  0  0  0  0  0  0  0  0
    0.7143   -0.1291   -0.1691 C   0  0  0  0  0  0  0  0  0  0  0  0
    1.3515    0.4564   -1.2150 O   0  0  0  0  0  1  0  0  0  0  0  0
   -1.2068   -0.3808    0.7892 H   0  0  0  0  0  0  0  0  0  0  0  0
   -0.9783    1.1951    0.0142 H   0  0  0  0  0  0  0  0  0  0  0  0
   -1.2835   -0.2388   -0.9744 H   0  0  0  0  0  0  0  0  0  0  0  0
    1.2385    0.1912    0.7507 H   0  0  0  0  0  0  0  0  0  0  0  0
    0.9400   -1.2109   -0.2160 H   0  0  0  0  0  0  0  0  0  0  0  0
  1  2  1  0
  1  4  1  0
  1  5  1  0
  1  6  1  0
  2  3  1  0
  2  7  1  0
  2  8  1  0
M  RAD  1   3   2
M  END
>  <reaction>  (2) 
rmg_rxn_383

>  <mol_properties>  (2) 
{"2": {"label": "acceptor", "atom_type": "O2s"}}

>  <type>  (2) 
r2

$$$$

     RDKit          3D

  9  8  0  0  0  0  0  0  0  0999 V2000
   -0.9895    0.3048    0.1041 C   0  0  0  0  0  0  0  0  0  0  0  0
    0.3761   -0.3562    0.0721 C   0  0  0  0  0  0  0  0  0  0  0  0
    0.3441   -1.6564   -0.4834 O   0  0  0  0  0  0  0  0  0  0  0  0
   -1.6997   -0.3114    0.6572 H   0  0  0  0  0  0  0  0  0  0  0  0
   -0.9320    1.2848    0.5822 H   0  0  0  0  0  0  0  0  0  0  0  0
   -1.3774    0.4507   -0.9077 H   0  0  0  0  0  0  0  0  0  0  0  0
    0.7581   -0.4813    1.0862 H   0  0  0  0  0  0  0  0  0  0  0  0
    1.0900    0.2787   -0.4681 H   0  0  0  0  0  0  0  0  0  0  0  0
    0.0089   -1.5959   -1.3792 H   0  0  0  0  0  0  0  0  0  0  0  0
  1  2  1  0
  1  4  1  0
  1  5  1  0
  1  6  1  0
  2  3  1  0
  2  7  1  0
  2  8  1  0
  3  9  1  0
M  END
>  <reaction>  (3) 
rmg_rxn_383

>  <mol_properties>  (3) 
{"2": {"label": "acceptor", "atom_type": "O2s"}, "8": {"label": "a_hydrogen", "atom_type": "H0"}}

>  <type>  (3) 
r2h

$$$$

     RDKit          3D

 17 15  0  0  0  0  0  0  0  0999 V2000
    0.3555   -2.5941    1.0173 C   0  0  0  0  0  0  0  0  0  0  0  0
    0.9354   -1.3366    1.6423 C   0  0  0  0  0  0  0  0  0  0  0  0
    1.3504   -0.3849    0.7243 O   0  0  0  0  0  1  0  0  0  0  0  0
    1.0584   -3.0226    0.3021 H   0  0  0  0  0  0  0  0  0  0  0  0
    0.1357   -3.3398    1.7836 H   0  0  0  0  0  0  0  0  0  0  0  0
   -0.5745   -2.3685    0.4911 H   0  0  0  0  0  0  0  0  0  0  0  0
    0.2432   -0.9035    2.3780 H   0  0  0  0  0  0  0  0  0  0  0  0
    1.8493   -1.5837    2.2039 H   0  0  0  0  0  0  0  0  0  0  0  0
   -0.6680   -0.0291   -1.8243 C   0  0  0  0  0  0  0  0  0  0  0  0
   -0.7660    0.4764   -0.4093 C   0  0  0  0  0  0  0  0  0  0  0  0
   -0.8356    1.9188   -0.2252 N   0  0  0  0  0  0  0  0  0  0  0  0
   -0.2781    2.5786   -1.0516 O   0  0  0  0  0  0  0  0  0  0  0  0
    0.1904    0.4101   -2.3301 H   0  0  0  0  0  0  0  0  0  0  0  0
   -0.5540   -1.1125   -1.8146 H   0  0  0  0  0  0  0  0  0  0  0  0
   -1.5671    0.2197   -2.3919 H   0  0  0  0  0  0  0  0  0  0  0  0
    0.2539    0.1974    0.1650 H   0  0  0  0  0  0  0  0  0  0  0  0
   -1.5539    0.0282    0.1956 H   0  0  0  0  0  0  0  0  0  0  0  0
  1  2  1  0
  1  4  1  0
  1  5  1  0
  1  6  1  0
  2  3  1  0
  2  7  1  0
  2  8  1  0
  9 10  1  0
  9 13  1  0
  9 14  1  0
  9 15  1  0
 10 11  1  0
 10 16  1  0
 10 17  1  0
 11 12  2  0
M  RAD  1   3   2
M  END
>  <reaction>  (4) 
rmg_rxn_383

>  <mol_properties>  (4) 
{"1": {"label": "*4", "atom_type": "Cs"}, "2": {"label": "*3", "atom_type": "O2s"}, "9": {"label": "*1", "atom_type": "Cs"}, "10": {"label": "*0", "atom_type": "N3d"}, "15": {"label": "*2", "atom_type": "H0"}}

>  <type>  (4) 
ts

$$$$
