
     RDKit          3D

 18 17  0  0  0  0  0  0  0  0999 V2000
    2.2026   -0.7213   -0.2612 C   0  0  0  0  0  0  0  0  0  0  0  0
    1.5384    0.2638    0.6915 C   0  0  0  0  0  0  0  0  0  0  0  0
    2.2584    1.5946    0.7694 C   0  0  0  0  0  0  0  0  0  0  0  0
    2.2212    2.2185   -0.4893 O   0  0  0  0  0  0  0  0  0  0  0  0
    2.8988    3.4488   -0.5204 C   0  0  0  0  0  0  0  0  0  0  0  0
    2.7981    4.0296   -1.9118 C   0  0  0  0  0  0  0  0  0  0  0  0
    3.2294   -0.9309    0.0486 H   0  0  0  0  0  0  0  0  0  0  0  0
    2.2338   -0.3181   -1.2734 H   0  0  0  0  0  0  0  0  0  0  0  0
    1.6610   -1.6680   -0.2875 H   0  0  0  0  0  0  0  0  0  0  0  0
    1.4990   -0.1566    1.7002 H   0  0  0  0  0  0  0  0  0  0  0  0
    0.5055    0.4455    0.3835 H   0  0  0  0  0  0  0  0  0  0  0  0
    3.3038    1.4410    1.0808 H   0  0  0  0  0  0  0  0  0  0  0  0
    1.7844    2.2410    1.5226 H   0  0  0  0  0  0  0  0  0  0  0  0
    2.4596    4.1376    0.2164 H   0  0  0  0  0  0  0  0  0  0  0  0
    3.9524    3.3035   -0.2397 H   0  0  0  0  0  0  0  0  0  0  0  0
    1.7543    4.1869   -2.1856 H   0  0  0  0  0  0  0  0  0  0  0  0
    3.2472    3.3545   -2.6411 H   0  0  0  0  0  0  0  0  0  0  0  0
    3.3178    4.9878   -1.9600 H   0  0  0  0  0  0  0  0  0  0  0  0
  1  2  1  0
  1  7  1  0
  1  8  1  0
  1  9  1  0
  2  3  1  0
  2 10  1  0
  2 11  1  0
  3  4  1  0
  3 12  1  0
  3 13  1  0
  4  5  1  0
  5  6  1  0
  5 14  1  0
  5 15  1  0
  6 16  1  0
  6 17  1  0
  6 18  1  0
M  END
>  <reaction>  (1) 
rmg_rxn_314

>  <mol_properties>  (1) 
{"1": {"label": "donator", "atom_type": "Cs"}, "9": {"label": "d_hydrogen", "atom_type": "H0"}}

>  <type>  (1) 
r1h

$$$$

     RDKit          3D

 11 10  0  0  0  0  0  0  0  0999 V2000
   -1.2230    0.3768   -0.0849 C   0  0  0  0  0  0  0  0  0  0  0  0
   -0.0734   -0.5533    0.2746 C   0  0  0  0  0  0  0  0  0  0  0  0
   -0.0853   -1.8426   -0.5372 C   0  0  0  0  0  0  0  0  0  0  0  0
    0.0319   -1.6944   -1.8815 O   0  0  0  0  0  1  0  0  0  0  0  0
   -2.1874   -0.0885    0.1341 H   0  0  0  0  0  0  0  0  0  0  0  0
   -1.1670    1.3099    0.4765 H   0  0  0  0  0  0  0  0  0  0  0  0
   -1.2014    0.6189   -1.1483 H   0  0  0  0  0  0  0  0  0  0  0  0
    0.8834   -0.0518    0.1071 H   0  0  0  0  0  0  0  0  0  0  0  0
   -0.1104   -0.8149    1.3362 H   0  0  0  0  0  0  0  0  0  0  0  0
    0.6767   -2.5604   -0.1861 H   0  0  0  0  0  0  0  0  0  0  0  0
   -1.0401   -2.3871   -0.3877 H   0  0  0  0  0  0  0  0  0  0  0  0
  1  2  1  0
  1  5  1  0
  1  6  1  0
  1  7  1  0
  2  3  1  0
  2  8  1  0
  2  9  1  0
  3  4  1  0
  3 10  1  0
  3 11  1  0
M  RAD  1   4   2
M  END
>  <reaction>  (2) 
rmg_rxn_314

>  <mol_properties>  (2) 
{"3": {"label": "acceptor", "atom_type": "O2s"}}

>  <type>  (2) 
r2

$$$$

     RDKit          3D

 12 11  0  0  0  0  0  0  0  0999 V2000
   -1.4643   -0.2505   -0.5284 C   0  0  0  0  0  0  0  0  0  0  0  0
   -0.3946    0.4302    0.3143 C   0  0  0  0  0  0  0  0  0  0  0  0
   -0.5959    0.2382    1.8102 C   0  0  0  0  0  0  0  0  0  0  0  0
   -0.5633   -1.1190    2.2092 O   0  0  0  0  0  0  0  0  0  0  0  0
   -2.4511    0.1644   -0.3109 H   0  0  0  0  0  0  0  0  0  0  0  0
   -1.5019   -1.3198   -0.3181 H   0  0  0  0  0  0  0  0  0  0  0  0
   -1.2720   -0.1182   -1.5941 H   0  0  0  0  0  0  0  0  0  0  0  0
    0.5965    0.0515    0.0385 H   0  0  0  0  0  0  0  0  0  0  0  0
   -0.3776    1.5047    0.1078 H   0  0  0  0  0  0  0  0  0  0  0  0
   -1.5821    0.6048    2.1034 H   0  0  0  0  0  0  0  0  0  0  0  0
    0.1495    0.8220    2.3649 H   0  0  0  0  0  0  0  0  0  0  0  0
    0.3017   -1.4750    1.9997 H   0  0  0  0  0  0  0  0  0  0  0  0
  1  2  1  0
  1  5  1  0
  1  6  1  0
  1  7  1  0
  2  3  1  0
  2  8  1  0
  2  9  1  0
  3  4  1  0
  3 10  1  0
  3 11  1  0
  4 12  1  0
M  END
>  <reaction>  (3) 
rmg_rxn_314

>  <mol_properties>  (3) 
{"3": {"label": "acceptor", "atom_type": "O2s"}, "11": {"label": "a_hydrogen", "atom_type": "H0"}}

>  <type>  (3) 
r2h

$$$$

     RDKit          3D

 29 27  0  0  0  0  0  0  0  0999 V2000
    3.4775   -0.1941    0.0348 C   0  0  0  0  0  0  0  0  0  0  0  0
    2.6083   -0.8882   -1.0033 C   0  0  0  0  0  0  0  0  0  0  0  0
    2.0223   -2.2053   -0.5092 C   0  0  0  0  0  0  0  0  0  0  0  0
    1.2926   -2.1068    0.6736 O   0  0  0  0  0  1  0  0  0  0  0  0
    4.3316   -0.8179    0.3092 H   0  0  0  0  0  0  0  0  0  0  0  0
    3.8623    0.7545   -0.3425 H   0  0  0  0  0  0  0  0  0  0  0  0
    2.9077    0.0039    0.9432 H   0  0  0  0  0  0  0  0  0  0  0  0
    1.7885   -0.2279   -1.3018 H   0  0  0  0  0  0  0  0  0  0  0  0
    3.1854   -1.0907   -1.9107 H   0  0  0  0  0  0  0  0  0  0  0  0
    1.4285   -2.6803   -1.3028 H   0  0  0  0  0  0  0  0  0  0  0  0
    2.8367   -2.9057   -0.2743 H   0  0  0  0  0  0  0  0  0  0  0  0
   -1.1660   -1.2404   -1.3487 C   0  0  0  0  0  0  0  0  0  0  0  0
   -0.8707   -0.9566    0.0988 C   0  0  0  0  0  0  0  0  0  0  0  0
   -0.6441    0.4874    0.4610 C   0  0  0  0  0  0  0  0  0  0  0  0
   -1.8515    1.1916    0.2916 O   0  0  0  0  0  0  0  0  0  0  0  0
   -1.7426    2.5571    0.6149 C   0  0  0  0  0  0  0  0  0  0  0  0
   -3.0827    3.2196    0.3965 C   0  0  0  0  0  0  0  0  0  0  0  0
   -0.3953   -0.8252   -2.0021 H   0  0  0  0  0  0  0  0  0  0  0  0
   -2.1181   -0.7828   -1.6316 H   0  0  0  0  0  0  0  0  0  0  0  0
   -1.2383   -2.3122   -1.5373 H   0  0  0  0  0  0  0  0  0  0  0  0
    0.1988   -1.5324    0.4100 H   0  0  0  0  0  0  0  0  0  0  0  0
   -1.5717   -1.4395    0.7813 H   0  0  0  0  0  0  0  0  0  0  0  0
    0.1383    0.9216   -0.1792 H   0  0  0  0  0  0  0  0  0  0  0  0
   -0.2986    0.5659    1.5007 H   0  0  0  0  0  0  0  0  0  0  0  0
   -1.4230    2.6687    1.6610 H   0  0  0  0  0  0  0  0  0  0  0  0
   -0.9724    3.0287   -0.0124 H   0  0  0  0  0  0  0  0  0  0  0  0
   -3.8439    2.7596    1.0275 H   0  0  0  0  0  0  0  0  0  0  0  0
   -3.3928    3.1219   -0.6445 H   0  0  0  0  0  0  0  0  0  0  0  0
   -3.0232    4.2809    0.6424 H   0  0  0  0  0  0  0  0  0  0  0  0
  1  2  1  0
  1  5  1  0
  1  6  1  0
  1  7  1  0
  2  3  1  0
  2  8  1  0
  2  9  1  0
  3  4  1  0
  3 10  1  0
  3 11  1  0
 12 13  1  0
 12 18  1  0
 12 19  1  0
 12 20  1  0
 13 14  1  0
 13 21  1  0
 13 22  1  0
 14 15  1  0
 14 23  1  0
 14 24  1  0
 15 16  1  0
 16 17  1  0
 16 25  1  0
 16 26  1  0
 17 27  1  0
 17 28  1  0
 17 29  1  0
M  RAD  1   4   2
M  END
>  <reaction>  (4) 
rmg_rxn_314

>  <mol_properties>  (4) 
{"2": {"label": "*4", "atom_type": "Cs"}, "3": {"label": "*3", "atom_type": "O2s"}, "12": {"label": "*1", "atom_type": "Cs"}, "13": {"label": "*0", "atom_type": "Cs"}, "20": {"label": "*2", "atom_type": "H0"}}

>  <type>  (4) 
ts

$$$$
