
     RDKit          3D

  5  4  0  0  0  0  0  0  0  0999 V2000
   -1.2140    0.4407   -0.1412 O   0  0  0  0  0  0  0  0  0  0  0  0
    0.1185    0.5703   -0.2937 N   0  0  0  0  0  0  0  0  0  0  0  0
    0.7309   -0.3922    0.1486 N   0  0  0  0  0  0  0  0  0  0  0  0
   -1.3561   -0.4179    0.2986 H   0  0  0  0  0  0  0  0  0  0  0  0
    1.7208   -0.2009   -0.0123 H   0  0  0  0  0  0  0  0  0  0  0  0
  1  2  1  0
  1  4  1  0
  2  3  2  3
  3  5  1  0
M  END
>  <reaction>  (1) 
rmg_rxn_15577

>  <mol_properties>  (1) 
{"0": {"label": "donator", "atom_type": "O2s"}, "3": {"label": "d_hydrogen", "atom_type": "H0"}}

>  <type>  (1) 
r1h

$$$$

     RDKit          3D

  8  7  0  0  0  0  0  0  0  0999 V2000
    1.7077   -0.1964   -0.0607 C   0  0  0  0  0  3  0  0  0  0  0  0
    0.4209   -0.4565    0.2808 O   0  0  0  0  0  0  0  0  0  0  0  0
   -0.4607    0.4385   -0.2968 N   0  0  0  0  0  0  0  0  0  0  0  0
   -1.6584    0.1416   -0.0244 C   0  0  0  0  0  0  0  0  0  0  0  0
    2.4163   -0.7685    0.5170 H   0  0  0  0  0  0  0  0  0  0  0  0
    1.9214    0.7645   -0.5045 H   0  0  0  0  0  0  0  0  0  0  0  0
   -2.4185    0.7953   -0.4307 H   0  0  0  0  0  0  0  0  0  0  0  0
   -1.9286   -0.7185    0.5831 H   0  0  0  0  0  0  0  0  0  0  0  0
  1  2  1  0
  1  5  1  0
  1  6  1  0
  2  3  1  0
  3  4  2  3
  4  7  1  0
  4  8  1  0
M  RAD  1   1   2
M  END
>  <reaction>  (2) 
rmg_rxn_15577

>  <mol_properties>  (2) 
{"0": {"label": "acceptor", "atom_type": "Cs"}}

>  <type>  (2) 
r2

$$$$

     RDKit          3D

  9  8  0  0  0  0  0  0  0  0999 V2000
   -1.5470   -0.0755   -0.1976 C   0  0  0  0  0  0  0  0  0  0  0  0
   -0.2885    0.4507    0.1749 O   0  0  0  0  0  0  0  0  0  0  0  0
   -0.1502    1.7216   -0.3294 N   0  0  0  0  0  0  0  0  0  0  0  0
    0.9626    2.2353   -0.0219 C   0  0  0  0  0  0  0  0  0  0  0  0
   -1.6392   -0.1356   -1.2844 H   0  0  0  0  0  0  0  0  0  0  0  0
   -2.3597    0.5337    0.2044 H   0  0  0  0  0  0  0  0  0  0  0  0
   -1.5879   -1.0750    0.2318 H   0  0  0  0  0  0  0  0  0  0  0  0
    1.1497    3.2381   -0.3820 H   0  0  0  0  0  0  0  0  0  0  0  0
    1.7060    1.7101    0.5739 H   0  0  0  0  0  0  0  0  0  0  0  0
  1  2  1  0
  1  5  1  0
  1  6  1  0
  1  7  1  0
  2  3  1  0
  3  4  2  3
  4  8  1  0
  4  9  1  0
M  END
>  <reaction>  (3) 
rmg_rxn_15577

>  <mol_properties>  (3) 
{"0": {"label": "a_hydrogen", "atom_type": "H0"}, "1": {"label": "acceptor", "atom_type": "Cs"}}

>  <type>  (3) 
r2h

$$$$

     RDKit          3D

 13 11  0  0  0  0  0  0  0  0999 V2000
   -0.3808   -1.5295    0.6634 O   0  0  0  0  0  0  0  0  0  0  0  0
    0.2190   -1.8682    1.7518 N   0  0  0  0  0  0  0  0  0  0  0  0
    1.1848   -1.1814    2.0955 N   0  0  0  0  0  0  0  0  0  0  0  0
    0.1697   -0.5471    0.1920 H   0  0  0  0  0  0  0  0  0  0  0  0
    1.5280   -1.5906    2.9645 H   0  0  0  0  0  0  0  0  0  0  0  0
    0.7382    0.5313   -0.3819 C   0  0  0  0  0  3  0  0  0  0  0  0
    0.1006    0.7662   -1.5696 O   0  0  0  0  0  0  0  0  0  0  0  0
   -1.0641    1.4973   -1.3790 N   0  0  0  0  0  0  0  0  0  0  0  0
   -1.7195    1.5922   -2.4538 C   0  0  0  0  0  0  0  0  0  0  0  0
    1.7603    0.2188   -0.5711 H   0  0  0  0  0  0  0  0  0  0  0  0
    0.6027    1.3132    0.3617 H   0  0  0  0  0  0  0  0  0  0  0  0
   -2.6394    2.1595   -2.4053 H   0  0  0  0  0  0  0  0  0  0  0  0
   -1.3934    1.1356   -3.3850 H   0  0  0  0  0  0  0  0  0  0  0  0
  1  2  1  0
  1  4  1  0
  2  3  2  3
  3  5  1  0
  6  7  1  0
  6 10  1  0
  6 11  1  0
  7  8  1  0
  8  9  2  3
  9 12  1  0
  9 13  1  0
M  RAD  1   6   2
M  END
>  <reaction>  (4) 
rmg_rxn_15577

>  <mol_properties>  (4) 
{"0": {"label": "*1", "atom_type": "O2s"}, "1": {"label": "*0", "atom_type": "N3d"}, "3": {"label": "*2", "atom_type": "H0"}, "5": {"label": "*3", "atom_type": "Cs"}, "6": {"label": "*4", "atom_type": "O2s"}}

>  <type>  (4) 
ts

$$$$
