
     RDKit          3D

  9  8  0  0  0  0  0  0  0  0999 V2000
   -1.0434   -0.0834    0.0221 C   0  0  0  0  0  0  0  0  0  0  0  0
    0.4680   -0.2131    0.0785 C   0  0  0  0  0  0  0  0  0  0  0  0
    0.9450   -1.3136   -0.7058 N   0  0  0  0  0  2  0  0  0  0  0  0
   -1.5170   -0.9919    0.3960 H   0  0  0  0  0  0  0  0  0  0  0  0
   -1.3864    0.7592    0.6249 H   0  0  0  0  0  0  0  0  0  0  0  0
   -1.3736    0.0696   -1.0061 H   0  0  0  0  0  0  0  0  0  0  0  0
    0.8045   -0.3309    1.1214 H   0  0  0  0  0  0  0  0  0  0  0  0
    0.9463    0.7186   -0.2648 H   0  0  0  0  0  0  0  0  0  0  0  0
    1.9638   -1.3321   -0.6157 H   0  0  0  0  0  0  0  0  0  0  0  0
  1  2  1  0
  1  4  1  0
  1  5  1  0
  1  6  1  0
  2  3  1  0
  2  7  1  0
  2  8  1  0
  3  9  1  0
M  RAD  1   3   2
M  END
>  <reaction>  (1) 
rmg_rxn_12

>  <mol_properties>  (1) 
{"2": {"label": "donator", "atom_type": "N3s"}, "8": {"label": "d_hydrogen", "atom_type": "H0"}}

>  <type>  (1) 
r1h

$$$$

     RDKit          3D

  8  7  0  0  0  0  0  0  0  0999 V2000
    0.8136   -0.0249    0.0404 C   0  0  0  0  0  0  0  0  0  0  0  0
   -0.7034   -0.1038   -0.0095 C   0  0  0  0  0  0  0  0  0  0  0  0
   -1.5481    1.4368   -0.3594 S   0  0  0  0  0  1  0  0  0  0  0  0
    1.1410    0.6704    0.8138 H   0  0  0  0  0  0  0  0  0  0  0  0
    1.2160    0.3193   -0.9127 H   0  0  0  0  0  0  0  0  0  0  0  0
    1.2398   -1.0069    0.2586 H   0  0  0  0  0  0  0  0  0  0  0  0
   -1.1164   -0.4724    0.9353 H   0  0  0  0  0  0  0  0  0  0  0  0
   -1.0424   -0.8185   -0.7666 H   0  0  0  0  0  0  0  0  0  0  0  0
  1  2  1  0
  1  4  1  0
  1  5  1  0
  1  6  1  0
  2  3  1  0
  2  7  1  0
  2  8  1  0
M  RAD  1   3   2
M  END
>  <reaction>  (2) 
rmg_rxn_12

>  <mol_properties>  (2) 
{"2": {"label": "acceptor", "atom_type": "S2s"}}

>  <type>  (2) 
r2

$$$$

     RDKit          3D

  9  8  0  0  0  0  0  0  0  0999 V2000
   -0.8818   -0.3578    0.1297 C   0  0  0  0  0  0  0  0  0  0  0  0
    0.6153   -0.3021   -0.1188 C   0  0  0  0  0  0  0  0  0  0  0  0
    1.5354   -1.7170    0.5545 S   0  0  0  0  0  0  0  0  0  0  0  0
   -1.1018   -0.3317    1.1984 H   0  0  0  0  0  0  0  0  0  0  0  0
   -1.3114   -1.2723   -0.2799 H   0  0  0  0  0  0  0  0  0  0  0  0
   -1.3767    0.4976   -0.3363 H   0  0  0  0  0  0  0  0  0  0  0  0
    1.0467    0.6194    0.2718 H   0  0  0  0  0  0  0  0  0  0  0  0
    0.8295   -0.3275   -1.1882 H   0  0  0  0  0  0  0  0  0  0  0  0
    1.2306   -1.5077    1.8423 H   0  0  0  0  0  0  0  0  0  0  0  0
  1  2  1  0
  1  4  1  0
  1  5  1  0
  1  6  1  0
  2  3  1  0
  2  7  1  0
  2  8  1  0
  3  9  1  0
M  END
>  <reaction>  (3) 
rmg_rxn_12

>  <mol_properties>  (3) 
{"2": {"label": "acceptor", "atom_type": "S2s"}, "8": {"label": "a_hydrogen", "atom_type": "H0"}}

>  <type>  (3) 
r2h

$$$$

     RDKit          3D

 17 15  0  0  0  0  0  0  0  0999 V2000
    0.5511   -1.9821    1.4137 C   0  0  0  0  0  0  0  0  0  0  0  0
    0.5672   -0.5910    2.0258 C   0  0  0  0  0  0  0  0  0  0  0  0
   -0.6624    0.5444    1.3277 S   0  0  0  0  0  1  0  0  0  0  0  0
    0.8091   -1.9420    0.3540 H   0  0  0  0  0  0  0  0  0  0  0  0
   -0.4357   -2.4370    1.5071 H   0  0  0  0  0  0  0  0  0  0  0  0
    1.2793   -2.6274    1.9110 H   0  0  0  0  0  0  0  0  0  0  0  0
    1.5536   -0.1349    1.9360 H   0  0  0  0  0  0  0  0  0  0  0  0
    0.3343   -0.6367    3.0918 H   0  0  0  0  0  0  0  0  0  0  0  0
   -0.1621   -0.1803   -3.4963 C   0  0  0  0  0  0  0  0  0  0  0  0
   -0.5790   -0.0302   -2.0361 C   0  0  0  0  0  0  0  0  0  0  0  0
    0.4884    0.4663   -1.2434 N   0  0  0  0  0  2  0  0  0  0  0  0
    0.6744   -0.8730   -3.5889 H   0  0  0  0  0  0  0  0  0  0  0  0
   -0.9965   -0.5646   -4.0839 H   0  0  0  0  0  0  0  0  0  0  0  0
    0.1402    0.7809   -3.9119 H   0  0  0  0  0  0  0  0  0  0  0  0
   -0.9142   -0.9920   -1.6209 H   0  0  0  0  0  0  0  0  0  0  0  0
   -1.4427    0.6454   -1.9441 H   0  0  0  0  0  0  0  0  0  0  0  0
    0.0410    0.6319   -0.0329 H   0  0  0  0  0  0  0  0  0  0  0  0
  1  2  1  0
  1  4  1  0
  1  5  1  0
  1  6  1  0
  2  3  1  0
  2  7  1  0
  2  8  1  0
  9 10  1  0
  9 12  1  0
  9 13  1  0
  9 14  1  0
 10 11  1  0
 10 15  1  0
 10 16  1  0
 11 17  1  0
M  RAD  2   3   2  11   2
M  END
>  <reaction>  (4) 
rmg_rxn_12

>  <mol_properties>  (4) 
{"1": {"label": "*4", "atom_type": "Cs"}, "2": {"label": "*3", "atom_type": "S2s"}, "9": {"label": "*0", "atom_type": "Cs"}, "10": {"label": "*1", "atom_type": "N3s"}, "16": {"label": "*2", "atom_type": "H0"}}

>  <type>  (4) 
ts

$$$$
