
     RDKit          3D

  8  7  0  0  0  0  0  0  0  0999 V2000
    0.9548    0.1194   -0.0790 C   0  0  0  0  0  0  0  0  0  0  0  0
   -0.4838   -0.2649    0.0193 C   0  0  0  0  0  0  0  0  0  0  0  0
   -0.8933   -1.1081    0.8664 N   0  0  0  0  0  0  0  0  0  0  0  0
    1.3360   -0.0983   -1.0800 H   0  0  0  0  0  0  0  0  0  0  0  0
    1.0698    1.1948    0.0786 H   0  0  0  0  0  0  0  0  0  0  0  0
    1.5426   -0.4219    0.6602 H   0  0  0  0  0  0  0  0  0  0  0  0
   -1.1575    0.2324   -0.6905 H   0  0  0  0  0  0  0  0  0  0  0  0
   -1.8989   -1.2455    0.7886 H   0  0  0  0  0  0  0  0  0  0  0  0
  1  2  1  0
  1  4  1  0
  1  5  1  0
  1  6  1  0
  2  3  2  3
  2  7  1  0
  3  8  1  0
M  END
>  <reaction>  (1) 
rmg_rxn_16639

>  <mol_properties>  (1) 
{"2": {"label": "donator", "atom_type": "N3d"}, "7": {"label": "d_hydrogen", "atom_type": "H0"}}

>  <type>  (1) 
r1h

$$$$

     RDKit          3D

  9  8  0  0  0  0  0  0  0  0999 V2000
   -1.1429   -0.0056    0.0357 C   0  0  0  0  0  0  0  0  0  0  0  0
    0.2348   -0.4846   -0.1988 C   0  0  0  0  0  0  0  0  0  0  0  0
    1.3889    0.3067    0.0768 C   0  0  0  0  0  0  0  0  0  0  0  0
    1.3416    1.4450    0.5289 O   0  0  0  0  0  1  0  0  0  0  0  0
   -1.7198   -0.0230   -0.8945 H   0  0  0  0  0  0  0  0  0  0  0  0
   -1.1399    1.0063    0.4362 H   0  0  0  0  0  0  0  0  0  0  0  0
   -1.6667   -0.6673    0.7330 H   0  0  0  0  0  0  0  0  0  0  0  0
    0.3900   -1.4812   -0.5984 H   0  0  0  0  0  0  0  0  0  0  0  0
    2.3646   -0.1624   -0.1407 H   0  0  0  0  0  0  0  0  0  0  0  0
  1  2  1  0
  1  5  1  0
  1  6  1  0
  1  7  1  0
  2  3  2  3
  2  8  1  0
  3  4  1  0
  3  9  1  0
M  RAD  1   4   2
M  END
>  <reaction>  (2) 
rmg_rxn_16639

>  <mol_properties>  (2) 
{"1": {"label": "acceptor", "atom_type": "Cs"}}

>  <type>  (2) 
r2

$$$$

     RDKit          3D

 10  9  0  0  0  0  0  0  0  0999 V2000
   -1.1238    0.2714    0.2496 C   0  0  0  0  0  0  0  0  0  0  0  0
    0.0881   -0.5850   -0.0680 C   0  0  0  0  0  0  0  0  0  0  0  0
   -0.0512   -1.4242   -1.3070 C   0  0  0  0  0  0  0  0  0  0  0  0
   -1.0187   -1.4480   -2.0158 O   0  0  0  0  0  0  0  0  0  0  0  0
   -2.0096   -0.3470    0.3939 H   0  0  0  0  0  0  0  0  0  0  0  0
   -0.9564    0.8523    1.1567 H   0  0  0  0  0  0  0  0  0  0  0  0
   -1.3376    0.9606   -0.5673 H   0  0  0  0  0  0  0  0  0  0  0  0
    0.3267   -1.2715    0.7528 H   0  0  0  0  0  0  0  0  0  0  0  0
    0.9917    0.0222   -0.1983 H   0  0  0  0  0  0  0  0  0  0  0  0
    0.8330   -2.0534   -1.5447 H   0  0  0  0  0  0  0  0  0  0  0  0
  1  2  1  0
  1  5  1  0
  1  6  1  0
  1  7  1  0
  2  3  1  0
  2  8  1  0
  2  9  1  0
  3  4  2  0
  3 10  1  0
M  END
>  <reaction>  (3) 
rmg_rxn_16639

>  <mol_properties>  (3) 
{"0": {"label": "a_hydrogen", "atom_type": "H0"}, "2": {"label": "acceptor", "atom_type": "Cs"}}

>  <type>  (3) 
r2h

$$$$

     RDKit          3D

 17 15  0  0  0  0  0  0  0  0999 V2000
   -0.2461   -0.3956   -3.3028 C   0  0  0  0  0  0  0  0  0  0  0  0
   -0.2553   -0.1821   -1.8196 C   0  0  0  0  0  0  0  0  0  0  0  0
   -1.2020    0.3940   -1.2329 N   0  0  0  0  0  0  0  0  0  0  0  0
    0.6346    0.0839   -3.7350 H   0  0  0  0  0  0  0  0  0  0  0  0
   -0.1744   -1.4638   -3.5176 H   0  0  0  0  0  0  0  0  0  0  0  0
   -1.1458    0.0101   -3.7607 H   0  0  0  0  0  0  0  0  0  0  0  0
    0.6158   -0.5548   -1.2648 H   0  0  0  0  0  0  0  0  0  0  0  0
   -0.9447    0.4276    0.0146 H   0  0  0  0  0  0  0  0  0  0  0  0
   -0.8677   -1.2360    1.5331 C   0  0  0  0  0  0  0  0  0  0  0  0
   -0.5540    0.2112    1.2708 C   0  0  0  0  0  0  0  0  0  0  0  0
    0.8500    0.6157    1.2005 C   0  0  0  0  0  0  0  0  0  0  0  0
    1.7755   -0.1446    1.0094 O   0  0  0  0  0  1  0  0  0  0  0  0
   -1.9082   -1.4572    1.2942 H   0  0  0  0  0  0  0  0  0  0  0  0
   -0.7006   -1.4858    2.5842 H   0  0  0  0  0  0  0  0  0  0  0  0
   -0.2239   -1.8840    0.9386 H   0  0  0  0  0  0  0  0  0  0  0  0
   -1.1901    0.9383    1.7741 H   0  0  0  0  0  0  0  0  0  0  0  0
    1.0354    1.7057    1.2745 H   0  0  0  0  0  0  0  0  0  0  0  0
  1  2  1  0
  1  4  1  0
  1  5  1  0
  1  6  1  0
  2  3  2  3
  2  7  1  0
  3  8  1  0
  9 10  1  0
  9 13  1  0
  9 14  1  0
  9 15  1  0
 10 11  2  3
 10 16  1  0
 11 12  1  0
 11 17  1  0
M  RAD  1  12   2
M  END
>  <reaction>  (4) 
rmg_rxn_16639

>  <mol_properties>  (4) 
{"1": {"label": "*0", "atom_type": "Cd"}, "2": {"label": "*1", "atom_type": "N3d"}, "7": {"label": "*2", "atom_type": "H0"}, "9": {"label": "*3", "atom_type": "Cd"}, "10": {"label": "*4", "atom_type": "Cd"}}

>  <type>  (4) 
ts

$$$$
