
     RDKit          3D

 14 14  0  0  0  0  0  0  0  0999 V2000
   -1.1778    0.2241    0.1818 C   0  0  0  0  0  0  0  0  0  0  0  0
   -0.5633   -1.1636    0.0678 C   0  0  0  0  0  0  0  0  0  0  0  0
    0.6943   -1.1996    0.7146 O   0  0  0  0  0  0  0  0  0  0  0  0
    1.5547   -0.2288    0.2011 C   0  0  0  0  0  0  0  0  0  0  0  0
    1.0729    1.0696    0.3698 O   0  0  0  0  0  0  0  0  0  0  0  0
   -0.1607    1.2493   -0.2989 C   0  0  0  0  0  0  0  0  0  0  0  0
   -2.0927    0.2866   -0.4117 H   0  0  0  0  0  0  0  0  0  0  0  0
   -1.4303    0.4248    1.2248 H   0  0  0  0  0  0  0  0  0  0  0  0
   -1.1822   -1.9235    0.5431 H   0  0  0  0  0  0  0  0  0  0  0  0
   -0.4389   -1.4347   -0.9919 H   0  0  0  0  0  0  0  0  0  0  0  0
    1.7250   -0.4207   -0.8742 H   0  0  0  0  0  0  0  0  0  0  0  0
    2.4896   -0.3010    0.7524 H   0  0  0  0  0  0  0  0  0  0  0  0
   -0.0080    1.1481   -1.3844 H   0  0  0  0  0  0  0  0  0  0  0  0
   -0.4826    2.2695   -0.0942 H   0  0  0  0  0  0  0  0  0  0  0  0
  1  2  1  0
  1  6  1  0
  1  7  1  0
  1  8  1  0
  2  3  1  0
  2  9  1  0
  2 10  1  0
  3  4  1  0
  4  5  1  0
  4 11  1  0
  4 12  1  0
  5  6  1  0
  6 13  1  0
  6 14  1  0
M  END
>  <reaction>  (1) 
rmg_rxn_266

>  <mol_properties>  (1) 
{"1": {"label": "donator", "atom_type": "Cs"}, "8": {"label": "d_hydrogen", "atom_type": "H0"}}

>  <type>  (1) 
r1h

$$$$

     RDKit          3D

  8  7  0  0  0  0  0  0  0  0999 V2000
   -1.0336    0.3440   -0.0356 C   0  0  0  0  0  3  0  0  0  0  0  0
    0.1991   -0.4326   -0.0698 C   0  0  0  0  0  0  0  0  0  0  0  0
    0.9631   -0.0368    1.2269 N   0  0  0  0  0  0  0  0  0  0  0  0
    0.8138   -0.8074    2.1160 O   0  0  0  0  0  0  0  0  0  0  0  0
   -1.0668    1.3490   -0.4321 H   0  0  0  0  0  0  0  0  0  0  0  0
   -1.8598    0.0102    0.5774 H   0  0  0  0  0  0  0  0  0  0  0  0
    0.0447   -1.5108   -0.0264 H   0  0  0  0  0  0  0  0  0  0  0  0
    0.8639   -0.1518   -0.8851 H   0  0  0  0  0  0  0  0  0  0  0  0
  1  2  1  0
  1  5  1  0
  1  6  1  0
  2  3  1  0
  2  7  1  0
  2  8  1  0
  3  4  2  0
M  RAD  1   1   2
M  END
>  <reaction>  (2) 
rmg_rxn_266

>  <mol_properties>  (2) 
{"0": {"label": "acceptor", "atom_type": "Cs"}}

>  <type>  (2) 
r2

$$$$

     RDKit          3D

  9  8  0  0  0  0  0  0  0  0999 V2000
   -1.0314    0.2323   -0.1227 C   0  0  0  0  0  0  0  0  0  0  0  0
    0.3094   -0.4511    0.0063 C   0  0  0  0  0  0  0  0  0  0  0  0
    0.3197   -1.7698    0.6841 N   0  0  0  0  0  0  0  0  0  0  0  0
   -0.7498   -2.1455    1.0557 O   0  0  0  0  0  0  0  0  0  0  0  0
   -1.4744    0.4198    0.8552 H   0  0  0  0  0  0  0  0  0  0  0  0
   -0.9073    1.1865   -0.6350 H   0  0  0  0  0  0  0  0  0  0  0  0
   -1.7319   -0.3778   -0.6927 H   0  0  0  0  0  0  0  0  0  0  0  0
    1.0375    0.1401    0.5713 H   0  0  0  0  0  0  0  0  0  0  0  0
    0.7826   -0.6494   -0.9609 H   0  0  0  0  0  0  0  0  0  0  0  0
  1  2  1  0
  1  5  1  0
  1  6  1  0
  1  7  1  0
  2  3  1  0
  2  8  1  0
  2  9  1  0
  3  4  2  0
M  END
>  <reaction>  (3) 
rmg_rxn_266

>  <mol_properties>  (3) 
{"0": {"label": "acceptor", "atom_type": "Cs"}, "8": {"label": "a_hydrogen", "atom_type": "H0"}}

>  <type>  (3) 
r2h

$$$$

     RDKit          3D

 22 21  0  0  0  0  0  0  0  0999 V2000
    0.6382   -1.7414    0.8129 C   0  0  0  0  0  3  0  0  0  0  0  0
   -0.7897   -1.6175    1.2290 C   0  0  0  0  0  0  0  0  0  0  0  0
   -1.3891   -2.7724    1.9625 N   0  0  0  0  0  0  0  0  0  0  0  0
   -0.6496   -3.6884    2.1479 O   0  0  0  0  0  0  0  0  0  0  0  0
    1.3545   -1.7834    1.6293 H   0  0  0  0  0  0  0  0  0  0  0  0
    0.8365   -2.4989    0.0582 H   0  0  0  0  0  0  0  0  0  0  0  0
   -0.9638   -0.7646    1.8920 H   0  0  0  0  0  0  0  0  0  0  0  0
   -1.4693   -1.4668    0.3840 H   0  0  0  0  0  0  0  0  0  0  0  0
    0.7124    0.4118   -1.8808 C   0  0  0  0  0  0  0  0  0  0  0  0
    1.0011    0.6076   -0.4141 C   0  0  0  0  0  0  0  0  0  0  0  0
    0.0115    1.3583    0.2228 O   0  0  0  0  0  0  0  0  0  0  0  0
   -0.2134    2.5862   -0.4239 C   0  0  0  0  0  0  0  0  0  0  0  0
   -0.6020    2.4279   -1.7493 O   0  0  0  0  0  0  0  0  0  0  0  0
    0.3962    1.7691   -2.5050 C   0  0  0  0  0  0  0  0  0  0  0  0
    1.5636   -0.0537   -2.3807 H   0  0  0  0  0  0  0  0  0  0  0  0
   -0.1553   -0.2426   -1.9983 H   0  0  0  0  0  0  0  0  0  0  0  0
    0.9221   -0.5672    0.1843 H   0  0  0  0  0  0  0  0  0  0  0  0
    2.0075    0.9844   -0.1942 H   0  0  0  0  0  0  0  0  0  0  0  0
    0.7063    3.1938   -0.3723 H   0  0  0  0  0  0  0  0  0  0  0  0
   -1.0286    3.0783    0.1014 H   0  0  0  0  0  0  0  0  0  0  0  0
    1.3029    2.3904   -2.5406 H   0  0  0  0  0  0  0  0  0  0  0  0
    0.0078    1.6686   -3.5176 H   0  0  0  0  0  0  0  0  0  0  0  0
  1  2  1  0
  1  5  1  0
  1  6  1  0
  2  3  1  0
  2  7  1  0
  2  8  1  0
  3  4  2  0
  9 10  1  0
  9 14  1  0
  9 15  1  0
  9 16  1  0
 10 11  1  0
 10 17  1  0
 10 18  1  0
 11 12  1  0
 12 13  1  0
 12 19  1  0
 12 20  1  0
 13 14  1  0
 14 21  1  0
 14 22  1  0
M  RAD  1   1   2
M  END
>  <reaction>  (4) 
rmg_rxn_266

>  <mol_properties>  (4) 
{"0": {"label": "*3", "atom_type": "Cs"}, "1": {"label": "*4", "atom_type": "Cs"}, "9": {"label": "*1", "atom_type": "Cs"}, "10": {"label": "*0", "atom_type": "O2s"}, "16": {"label": "*2", "atom_type": "H0"}}

>  <type>  (4) 
ts

$$$$
