
     RDKit          3D

 18 17  0  0  0  0  0  0  0  0999 V2000
    2.2026   -0.7213   -0.2612 C   0  0  0  0  0  0  0  0  0  0  0  0
    1.5384    0.2638    0.6915 C   0  0  0  0  0  0  0  0  0  0  0  0
    2.2584    1.5946    0.7694 C   0  0  0  0  0  0  0  0  0  0  0  0
    2.2212    2.2185   -0.4893 O   0  0  0  0  0  0  0  0  0  0  0  0
    2.8988    3.4488   -0.5204 C   0  0  0  0  0  0  0  0  0  0  0  0
    2.7981    4.0296   -1.9118 C   0  0  0  0  0  0  0  0  0  0  0  0
    3.2294   -0.9309    0.0486 H   0  0  0  0  0  0  0  0  0  0  0  0
    2.2338   -0.3181   -1.2734 H   0  0  0  0  0  0  0  0  0  0  0  0
    1.6610   -1.6680   -0.2875 H   0  0  0  0  0  0  0  0  0  0  0  0
    1.4990   -0.1566    1.7002 H   0  0  0  0  0  0  0  0  0  0  0  0
    0.5055    0.4455    0.3835 H   0  0  0  0  0  0  0  0  0  0  0  0
    3.3038    1.4410    1.0808 H   0  0  0  0  0  0  0  0  0  0  0  0
    1.7844    2.2410    1.5226 H   0  0  0  0  0  0  0  0  0  0  0  0
    2.4596    4.1376    0.2164 H   0  0  0  0  0  0  0  0  0  0  0  0
    3.9524    3.3035   -0.2397 H   0  0  0  0  0  0  0  0  0  0  0  0
    1.7543    4.1869   -2.1856 H   0  0  0  0  0  0  0  0  0  0  0  0
    3.2472    3.3545   -2.6411 H   0  0  0  0  0  0  0  0  0  0  0  0
    3.3178    4.9878   -1.9600 H   0  0  0  0  0  0  0  0  0  0  0  0
  1  2  1  0
  1  7  1  0
  1  8  1  0
  1  9  1  0
  2  3  1  0
  2 10  1  0
  2 11  1  0
  3  4  1  0
  3 12  1  0
  3 13  1  0
  4  5  1  0
  5  6  1  0
  5 14  1  0
  5 15  1  0
  6 16  1  0
  6 17  1  0
  6 18  1  0
M  END
>  <reaction>  (1) 
rmg_rxn_244

>  <mol_properties>  (1) 
{"0": {"label": "donator", "atom_type": "Cs"}, "6": {"label": "d_hydrogen", "atom_type": "H0"}}

>  <type>  (1) 
r1h

$$$$

     RDKit          3D

 17 16  0  0  0  0  0  0  0  0999 V2000
    3.3619    0.3511   -1.0290 C   0  0  0  0  0  3  0  0  0  0  0  0
    2.1806    1.0643   -0.5073 C   0  0  0  0  0  0  0  0  0  0  0  0
    1.4028    0.1998    0.2757 O   0  0  0  0  0  0  0  0  0  0  0  0
    0.2433    0.8081    0.7885 C   0  0  0  0  0  0  0  0  0  0  0  0
   -0.5040   -0.1878    1.6510 C   0  0  0  0  0  0  0  0  0  0  0  0
    0.2852   -0.6298    2.8762 C   0  0  0  0  0  0  0  0  0  0  0  0
    4.1174    0.8902   -1.5820 H   0  0  0  0  0  0  0  0  0  0  0  0
    3.4399   -0.7198   -0.9141 H   0  0  0  0  0  0  0  0  0  0  0  0
    1.5724    1.4684   -1.3398 H   0  0  0  0  0  0  0  0  0  0  0  0
    2.4896    1.9442    0.0856 H   0  0  0  0  0  0  0  0  0  0  0  0
    0.5169    1.6937    1.3835 H   0  0  0  0  0  0  0  0  0  0  0  0
   -0.3954    1.1528   -0.0379 H   0  0  0  0  0  0  0  0  0  0  0  0
   -0.7611   -1.0545    1.0367 H   0  0  0  0  0  0  0  0  0  0  0  0
   -1.4466    0.2743    1.9571 H   0  0  0  0  0  0  0  0  0  0  0  0
    0.5263    0.2245    3.5136 H   0  0  0  0  0  0  0  0  0  0  0  0
    1.2220   -1.1033    2.5825 H   0  0  0  0  0  0  0  0  0  0  0  0
   -0.2849   -1.3427    3.4737 H   0  0  0  0  0  0  0  0  0  0  0  0
  1  2  1  0
  1  7  1  0
  1  8  1  0
  2  3  1  0
  2  9  1  0
  2 10  1  0
  3  4  1  0
  4  5  1  0
  4 11  1  0
  4 12  1  0
  5  6  1  0
  5 13  1  0
  5 14  1  0
  6 15  1  0
  6 16  1  0
  6 17  1  0
M  RAD  1   1   2
M  END
>  <reaction>  (2) 
rmg_rxn_244

>  <mol_properties>  (2) 
{"0": {"label": "acceptor", "atom_type": "Cs"}}

>  <type>  (2) 
r2

$$$$

     RDKit          3D

 18 17  0  0  0  0  0  0  0  0999 V2000
    2.2026   -0.7213   -0.2612 C   0  0  0  0  0  0  0  0  0  0  0  0
    1.5384    0.2638    0.6915 C   0  0  0  0  0  0  0  0  0  0  0  0
    2.2584    1.5946    0.7694 C   0  0  0  0  0  0  0  0  0  0  0  0
    2.2212    2.2185   -0.4893 O   0  0  0  0  0  0  0  0  0  0  0  0
    2.8988    3.4488   -0.5204 C   0  0  0  0  0  0  0  0  0  0  0  0
    2.7981    4.0296   -1.9118 C   0  0  0  0  0  0  0  0  0  0  0  0
    3.2294   -0.9309    0.0486 H   0  0  0  0  0  0  0  0  0  0  0  0
    2.2338   -0.3181   -1.2734 H   0  0  0  0  0  0  0  0  0  0  0  0
    1.6610   -1.6680   -0.2875 H   0  0  0  0  0  0  0  0  0  0  0  0
    1.4990   -0.1566    1.7002 H   0  0  0  0  0  0  0  0  0  0  0  0
    0.5055    0.4455    0.3835 H   0  0  0  0  0  0  0  0  0  0  0  0
    3.3038    1.4410    1.0808 H   0  0  0  0  0  0  0  0  0  0  0  0
    1.7844    2.2410    1.5226 H   0  0  0  0  0  0  0  0  0  0  0  0
    2.4596    4.1376    0.2164 H   0  0  0  0  0  0  0  0  0  0  0  0
    3.9524    3.3035   -0.2397 H   0  0  0  0  0  0  0  0  0  0  0  0
    1.7543    4.1869   -2.1856 H   0  0  0  0  0  0  0  0  0  0  0  0
    3.2472    3.3545   -2.6411 H   0  0  0  0  0  0  0  0  0  0  0  0
    3.3178    4.9878   -1.9600 H   0  0  0  0  0  0  0  0  0  0  0  0
  1  2  1  0
  1  7  1  0
  1  8  1  0
  1  9  1  0
  2  3  1  0
  2 10  1  0
  2 11  1  0
  3  4  1  0
  3 12  1  0
  3 13  1  0
  4  5  1  0
  5  6  1  0
  5 14  1  0
  5 15  1  0
  6 16  1  0
  6 17  1  0
  6 18  1  0
M  END
>  <reaction>  (3) 
rmg_rxn_244

>  <mol_properties>  (3) 
{"0": {"label": "acceptor", "atom_type": "Cs"}, "17": {"label": "a_hydrogen", "atom_type": "H0"}}

>  <type>  (3) 
r2h

$$$$

     RDKit          3D

 35 33  0  0  0  0  0  0  0  0999 V2000
   -1.1711    1.1765   -0.0354 C   0  0  0  0  0  3  0  0  0  0  0  0
   -0.9592    0.5450    1.3053 C   0  0  0  0  0  0  0  0  0  0  0  0
   -2.1208   -0.1507    1.6988 O   0  0  0  0  0  0  0  0  0  0  0  0
   -1.9912   -0.7750    2.9521 C   0  0  0  0  0  0  0  0  0  0  0  0
   -3.2643   -1.5327    3.2688 C   0  0  0  0  0  0  0  0  0  0  0  0
   -3.5476   -2.6624    2.2875 C   0  0  0  0  0  0  0  0  0  0  0  0
   -1.2905    0.4692   -0.8533 H   0  0  0  0  0  0  0  0  0  0  0  0
   -1.9291    1.9563   -0.0496 H   0  0  0  0  0  0  0  0  0  0  0  0
   -0.7151    1.3137    2.0540 H   0  0  0  0  0  0  0  0  0  0  0  0
   -0.1079   -0.1518    1.2695 H   0  0  0  0  0  0  0  0  0  0  0  0
   -1.1333   -1.4661    2.9398 H   0  0  0  0  0  0  0  0  0  0  0  0
   -1.7925   -0.0212    3.7282 H   0  0  0  0  0  0  0  0  0  0  0  0
   -4.0969   -0.8247    3.2764 H   0  0  0  0  0  0  0  0  0  0  0  0
   -3.1761   -1.9294    4.2841 H   0  0  0  0  0  0  0  0  0  0  0  0
   -2.7329   -3.3909    2.2866 H   0  0  0  0  0  0  0  0  0  0  0  0
   -3.6526   -2.2757    1.2739 H   0  0  0  0  0  0  0  0  0  0  0  0
   -4.4667   -3.1887    2.5492 H   0  0  0  0  0  0  0  0  0  0  0  0
    1.1616    2.4209   -0.5238 C   0  0  0  0  0  0  0  0  0  0  0  0
    2.2301    1.4382   -0.1177 C   0  0  0  0  0  0  0  0  0  0  0  0
    2.1913    0.1471   -0.9124 C   0  0  0  0  0  0  0  0  0  0  0  0
    2.4084    0.4323   -2.2702 O   0  0  0  0  0  0  0  0  0  0  0  0
    2.3196   -0.7013   -3.0965 C   0  0  0  0  0  0  0  0  0  0  0  0
    2.5608   -0.2844   -4.5286 C   0  0  0  0  0  0  0  0  0  0  0  0
   -0.0123    1.8330   -0.3163 H   0  0  0  0  0  0  0  0  0  0  0  0
    1.1501    2.6532   -1.5860 H   0  0  0  0  0  0  0  0  0  0  0  0
    1.1162    3.3179    0.0911 H   0  0  0  0  0  0  0  0  0  0  0  0
    2.1303    1.1882    0.9427 H   0  0  0  0  0  0  0  0  0  0  0  0
    3.2215    1.8892   -0.2390 H   0  0  0  0  0  0  0  0  0  0  0  0
    1.2156   -0.3459   -0.7846 H   0  0  0  0  0  0  0  0  0  0  0  0
    2.9602   -0.5474   -0.5442 H   0  0  0  0  0  0  0  0  0  0  0  0
    3.0605   -1.4519   -2.7841 H   0  0  0  0  0  0  0  0  0  0  0  0
    1.3267   -1.1627   -2.9919 H   0  0  0  0  0  0  0  0  0  0  0  0
    3.5505    0.1609   -4.6357 H   0  0  0  0  0  0  0  0  0  0  0  0
    1.8174    0.4487   -4.8435 H   0  0  0  0  0  0  0  0  0  0  0  0
    2.4963   -1.1499   -5.1899 H   0  0  0  0  0  0  0  0  0  0  0  0
  1  2  1  0
  1  7  1  0
  1  8  1  0
  2  3  1  0
  2  9  1  0
  2 10  1  0
  3  4  1  0
  4  5  1  0
  4 11  1  0
  4 12  1  0
  5  6  1  0
  5 13  1  0
  5 14  1  0
  6 15  1  0
  6 16  1  0
  6 17  1  0
 18 19  1  0
 18 24  1  0
 18 25  1  0
 18 26  1  0
 19 20  1  0
 19 27  1  0
 19 28  1  0
 20 21  1  0
 20 29  1  0
 20 30  1  0
 21 22  1  0
 22 23  1  0
 22 31  1  0
 22 32  1  0
 23 33  1  0
 23 34  1  0
 23 35  1  0
M  RAD  1   1   2
M  END
>  <reaction>  (4) 
rmg_rxn_244

>  <mol_properties>  (4) 
{"0": {"label": "*3", "atom_type": "Cs"}, "1": {"label": "*4", "atom_type": "Cs"}, "17": {"label": "*1", "atom_type": "Cs"}, "18": {"label": "*0", "atom_type": "Cs"}, "23": {"label": "*2", "atom_type": "H0"}}

>  <type>  (4) 
ts

$$$$
