
     RDKit          3D

  9  8  0  0  0  0  0  0  0  0999 V2000
   -0.8818   -0.3578    0.1297 C   0  0  0  0  0  0  0  0  0  0  0  0
    0.6153   -0.3021   -0.1188 C   0  0  0  0  0  0  0  0  0  0  0  0
    1.5354   -1.7170    0.5545 S   0  0  0  0  0  0  0  0  0  0  0  0
   -1.1018   -0.3317    1.1984 H   0  0  0  0  0  0  0  0  0  0  0  0
   -1.3114   -1.2723   -0.2799 H   0  0  0  0  0  0  0  0  0  0  0  0
   -1.3767    0.4976   -0.3363 H   0  0  0  0  0  0  0  0  0  0  0  0
    1.0467    0.6194    0.2718 H   0  0  0  0  0  0  0  0  0  0  0  0
    0.8295   -0.3275   -1.1882 H   0  0  0  0  0  0  0  0  0  0  0  0
    1.2306   -1.5077    1.8423 H   0  0  0  0  0  0  0  0  0  0  0  0
  1  2  1  0
  1  4  1  0
  1  5  1  0
  1  6  1  0
  2  3  1  0
  2  7  1  0
  2  8  1  0
  3  9  1  0
M  END
>  <reaction>  (1) 
rmg_rxn_13

>  <mol_properties>  (1) 
{"2": {"label": "donator", "atom_type": "S2s"}, "8": {"label": "d_hydrogen", "atom_type": "H0"}}

>  <type>  (1) 
r1h

$$$$

     RDKit          3D

  4  3  0  0  0  0  0  0  0  0999 V2000
    1.2191   -0.0447   -0.0369 N   0  0  0  0  0  1  0  0  0  0  0  0
   -0.0876   -0.0060    0.2202 N   0  0  0  0  0  0  0  0  0  0  0  0
   -0.5966   -0.8143   -0.1273 H   0  0  0  0  0  0  0  0  0  0  0  0
   -0.5329    0.8649   -0.0563 H   0  0  0  0  0  0  0  0  0  0  0  0
  1  2  1  0
  2  3  1  0
  2  4  1  0
M  RAD  1   1   3
M  END
>  <reaction>  (2) 
rmg_rxn_13

>  <mol_properties>  (2) 
{"0": {"label": "acceptor", "atom_type": "N3s"}}

>  <type>  (2) 
r2

$$$$

     RDKit          3D

  5  4  0  0  0  0  0  0  0  0999 V2000
    0.7361   -0.2872    0.4035 N   0  0  0  0  0  2  0  0  0  0  0  0
   -0.3891   -0.1505   -0.3131 N   0  0  0  0  0  0  0  0  0  0  0  0
    1.4909    0.0686   -0.1831 H   0  0  0  0  0  0  0  0  0  0  0  0
   -1.1819   -0.6340    0.0744 H   0  0  0  0  0  0  0  0  0  0  0  0
   -0.3592   -0.1189   -1.3223 H   0  0  0  0  0  0  0  0  0  0  0  0
  1  2  1  0
  1  3  1  0
  2  4  1  0
  2  5  1  0
M  RAD  1   1   2
M  END
>  <reaction>  (3) 
rmg_rxn_13

>  <mol_properties>  (3) 
{"0": {"label": "acceptor", "atom_type": "N3s"}, "4": {"label": "a_hydrogen", "atom_type": "H0"}}

>  <type>  (3) 
r2h

$$$$

     RDKit          3D

 13 11  0  0  0  0  0  0  0  0999 V2000
    2.0694    0.2106    0.1265 N   0  0  0  0  0  2  0  0  0  0  0  0
    2.0177    0.6456   -1.1301 N   0  0  0  0  0  0  0  0  0  0  0  0
    2.9022    0.9805   -1.4875 H   0  0  0  0  0  0  0  0  0  0  0  0
    1.2062    1.1971   -1.3895 H   0  0  0  0  0  0  0  0  0  0  0  0
   -0.9121   -1.5005   -1.2261 C   0  0  0  0  0  0  0  0  0  0  0  0
   -1.1178   -1.1582    0.2398 C   0  0  0  0  0  0  0  0  0  0  0  0
   -0.6565    0.5365    0.6954 S   0  0  0  0  0  1  0  0  0  0  0  0
    0.1427   -1.4376   -1.4970 H   0  0  0  0  0  0  0  0  0  0  0  0
   -1.4705   -0.8168   -1.8671 H   0  0  0  0  0  0  0  0  0  0  0  0
   -1.2532   -2.5185   -1.4298 H   0  0  0  0  0  0  0  0  0  0  0  0
   -0.5705   -1.8463    0.8845 H   0  0  0  0  0  0  0  0  0  0  0  0
   -2.1722   -1.2422    0.5117 H   0  0  0  0  0  0  0  0  0  0  0  0
    0.8501    0.3218    0.5952 H   0  0  0  0  0  0  0  0  0  0  0  0
  1  2  1  0
  1 13  1  0
  2  3  1  0
  2  4  1  0
  5  6  1  0
  5  8  1  0
  5  9  1  0
  5 10  1  0
  6  7  1  0
  6 11  1  0
  6 12  1  0
M  RAD  2   1   2   7   2
M  END
>  <reaction>  (4) 
rmg_rxn_13

>  <mol_properties>  (4) 
{"0": {"label": "*1", "atom_type": "N3s"}, "1": {"label": "*0", "atom_type": "N3s"}, "5": {"label": "*4", "atom_type": "Cs"}, "6": {"label": "*3", "atom_type": "S2s"}, "12": {"label": "*2", "atom_type": "H0"}}

>  <type>  (4) 
ts

$$$$
