
     RDKit          3D

 11 10  0  0  0  0  0  0  0  0999 V2000
   -1.7975    0.1503    0.3817 C   0  0  0  0  0  0  0  0  0  0  0  0
   -0.8638   -0.6174   -0.5008 C   0  0  0  0  0  0  0  0  0  0  0  0
   -0.0947   -1.5923   -0.0466 C   0  0  0  0  0  0  0  0  0  0  0  0
    0.7934   -2.3703   -0.7311 O   0  0  0  0  0  0  0  0  0  0  0  0
    0.8158   -2.0364   -2.1061 O   0  0  0  0  0  0  0  0  0  0  0  0
   -1.5629    1.2176    0.3708 H   0  0  0  0  0  0  0  0  0  0  0  0
   -2.8315    0.0463    0.0437 H   0  0  0  0  0  0  0  0  0  0  0  0
   -1.7470   -0.1930    1.4162 H   0  0  0  0  0  0  0  0  0  0  0  0
   -0.8338   -0.3680   -1.5532 H   0  0  0  0  0  0  0  0  0  0  0  0
   -0.0795   -1.9148    0.9889 H   0  0  0  0  0  0  0  0  0  0  0  0
    1.6362   -1.5328   -2.1654 H   0  0  0  0  0  0  0  0  0  0  0  0
  1  2  1  0
  1  6  1  0
  1  7  1  0
  1  8  1  0
  2  3  2  3
  2  9  1  0
  3  4  1  0
  3 10  1  0
  4  5  1  0
  5 11  1  0
M  END
>  <reaction>  (1) 
rmg_rxn_15699

>  <mol_properties>  (1) 
{"4": {"label": "donator", "atom_type": "O2s"}, "10": {"label": "d_hydrogen", "atom_type": "H0"}}

>  <type>  (1) 
r1h

$$$$

     RDKit          3D

  8  7  0  0  0  0  0  0  0  0999 V2000
    1.7077   -0.1964   -0.0607 C   0  0  0  0  0  3  0  0  0  0  0  0
    0.4209   -0.4565    0.2808 O   0  0  0  0  0  0  0  0  0  0  0  0
   -0.4607    0.4385   -0.2968 N   0  0  0  0  0  0  0  0  0  0  0  0
   -1.6584    0.1416   -0.0244 C   0  0  0  0  0  0  0  0  0  0  0  0
    2.4163   -0.7685    0.5170 H   0  0  0  0  0  0  0  0  0  0  0  0
    1.9214    0.7645   -0.5045 H   0  0  0  0  0  0  0  0  0  0  0  0
   -2.4185    0.7953   -0.4307 H   0  0  0  0  0  0  0  0  0  0  0  0
   -1.9286   -0.7185    0.5831 H   0  0  0  0  0  0  0  0  0  0  0  0
  1  2  1  0
  1  5  1  0
  1  6  1  0
  2  3  1  0
  3  4  2  3
  4  7  1  0
  4  8  1  0
M  RAD  1   1   2
M  END
>  <reaction>  (2) 
rmg_rxn_15699

>  <mol_properties>  (2) 
{"0": {"label": "acceptor", "atom_type": "Cs"}}

>  <type>  (2) 
r2

$$$$

     RDKit          3D

  9  8  0  0  0  0  0  0  0  0999 V2000
   -1.5470   -0.0755   -0.1976 C   0  0  0  0  0  0  0  0  0  0  0  0
   -0.2885    0.4507    0.1749 O   0  0  0  0  0  0  0  0  0  0  0  0
   -0.1502    1.7216   -0.3294 N   0  0  0  0  0  0  0  0  0  0  0  0
    0.9626    2.2353   -0.0219 C   0  0  0  0  0  0  0  0  0  0  0  0
   -1.6392   -0.1356   -1.2844 H   0  0  0  0  0  0  0  0  0  0  0  0
   -2.3597    0.5337    0.2044 H   0  0  0  0  0  0  0  0  0  0  0  0
   -1.5879   -1.0750    0.2318 H   0  0  0  0  0  0  0  0  0  0  0  0
    1.1497    3.2381   -0.3820 H   0  0  0  0  0  0  0  0  0  0  0  0
    1.7060    1.7101    0.5739 H   0  0  0  0  0  0  0  0  0  0  0  0
  1  2  1  0
  1  5  1  0
  1  6  1  0
  1  7  1  0
  2  3  1  0
  3  4  2  3
  4  8  1  0
  4  9  1  0
M  END
>  <reaction>  (3) 
rmg_rxn_15699

>  <mol_properties>  (3) 
{"0": {"label": "acceptor", "atom_type": "Cs"}, "8": {"label": "a_hydrogen", "atom_type": "H0"}}

>  <type>  (3) 
r2h

$$$$

     RDKit          3D

 19 17  0  0  0  0  0  0  0  0999 V2000
    0.6580   -0.0188    2.1384 C   0  0  0  0  0  3  0  0  0  0  0  0
    1.5454   -0.0623    1.0972 O   0  0  0  0  0  0  0  0  0  0  0  0
    1.4708   -1.2725    0.4250 N   0  0  0  0  0  0  0  0  0  0  0  0
    2.0620   -1.2079   -0.6886 C   0  0  0  0  0  0  0  0  0  0  0  0
    0.4587   -0.9913    2.5861 H   0  0  0  0  0  0  0  0  0  0  0  0
    0.9448    0.7766    2.8213 H   0  0  0  0  0  0  0  0  0  0  0  0
    2.0782   -2.1163   -1.2760 H   0  0  0  0  0  0  0  0  0  0  0  0
    2.5334   -0.2989   -1.0529 H   0  0  0  0  0  0  0  0  0  0  0  0
   -0.9749   -0.4361   -2.7699 C   0  0  0  0  0  0  0  0  0  0  0  0
   -1.1747   -0.0037   -1.3521 C   0  0  0  0  0  0  0  0  0  0  0  0
   -0.9920    1.2446   -0.9532 C   0  0  0  0  0  0  0  0  0  0  0  0
   -1.1461    1.7577    0.3025 O   0  0  0  0  0  0  0  0  0  0  0  0
   -1.5531    0.8163    1.2204 O   0  0  0  0  0  0  0  0  0  0  0  0
   -0.2293   -1.2330   -2.8386 H   0  0  0  0  0  0  0  0  0  0  0  0
   -1.9007   -0.8322   -3.1945 H   0  0  0  0  0  0  0  0  0  0  0  0
   -0.6434    0.3900   -3.4014 H   0  0  0  0  0  0  0  0  0  0  0  0
   -1.4895   -0.7445   -0.6291 H   0  0  0  0  0  0  0  0  0  0  0  0
   -0.6833    2.0493   -1.6110 H   0  0  0  0  0  0  0  0  0  0  0  0
   -0.5257    0.3861    1.6775 H   0  0  0  0  0  0  0  0  0  0  0  0
  1  2  1  0
  1  5  1  0
  1  6  1  0
  2  3  1  0
  3  4  2  3
  4  7  1  0
  4  8  1  0
  9 10  1  0
  9 14  1  0
  9 15  1  0
  9 16  1  0
 10 11  2  3
 10 17  1  0
 11 12  1  0
 11 18  1  0
 12 13  1  0
 13 19  1  0
M  RAD  1   1   2
M  END
>  <reaction>  (4) 
rmg_rxn_15699

>  <mol_properties>  (4) 
{"0": {"label": "*3", "atom_type": "Cs"}, "1": {"label": "*4", "atom_type": "O2s"}, "11": {"label": "*0", "atom_type": "O2s"}, "12": {"label": "*1", "atom_type": "O2s"}, "18": {"label": "*2", "atom_type": "H0"}}

>  <type>  (4) 
ts

$$$$
