
     RDKit          3D

  9  8  0  0  0  0  0  0  0  0999 V2000
   -1.0434   -0.0834    0.0221 C   0  0  0  0  0  0  0  0  0  0  0  0
    0.4680   -0.2131    0.0785 C   0  0  0  0  0  0  0  0  0  0  0  0
    0.9450   -1.3136   -0.7058 N   0  0  0  0  0  2  0  0  0  0  0  0
   -1.5170   -0.9919    0.3960 H   0  0  0  0  0  0  0  0  0  0  0  0
   -1.3864    0.7592    0.6249 H   0  0  0  0  0  0  0  0  0  0  0  0
   -1.3736    0.0696   -1.0061 H   0  0  0  0  0  0  0  0  0  0  0  0
    0.8045   -0.3309    1.1214 H   0  0  0  0  0  0  0  0  0  0  0  0
    0.9463    0.7186   -0.2648 H   0  0  0  0  0  0  0  0  0  0  0  0
    1.9638   -1.3321   -0.6157 H   0  0  0  0  0  0  0  0  0  0  0  0
  1  2  1  0
  1  4  1  0
  1  5  1  0
  1  6  1  0
  2  3  1  0
  2  7  1  0
  2  8  1  0
  3  9  1  0
M  RAD  1   3   2
M  END
>  <reaction>  (1) 
rmg_rxn_15567

>  <mol_properties>  (1) 
{"2": {"label": "donator", "atom_type": "N3s"}, "8": {"label": "d_hydrogen", "atom_type": "H0"}}

>  <type>  (1) 
r1h

$$$$

     RDKit          3D

  8  7  0  0  0  0  0  0  0  0999 V2000
    1.7077   -0.1964   -0.0607 C   0  0  0  0  0  3  0  0  0  0  0  0
    0.4209   -0.4565    0.2808 O   0  0  0  0  0  0  0  0  0  0  0  0
   -0.4607    0.4385   -0.2968 N   0  0  0  0  0  0  0  0  0  0  0  0
   -1.6584    0.1416   -0.0244 C   0  0  0  0  0  0  0  0  0  0  0  0
    2.4163   -0.7685    0.5170 H   0  0  0  0  0  0  0  0  0  0  0  0
    1.9214    0.7645   -0.5045 H   0  0  0  0  0  0  0  0  0  0  0  0
   -2.4185    0.7953   -0.4307 H   0  0  0  0  0  0  0  0  0  0  0  0
   -1.9286   -0.7185    0.5831 H   0  0  0  0  0  0  0  0  0  0  0  0
  1  2  1  0
  1  5  1  0
  1  6  1  0
  2  3  1  0
  3  4  2  3
  4  7  1  0
  4  8  1  0
M  RAD  1   1   2
M  END
>  <reaction>  (2) 
rmg_rxn_15567

>  <mol_properties>  (2) 
{"0": {"label": "acceptor", "atom_type": "Cs"}}

>  <type>  (2) 
r2

$$$$

     RDKit          3D

  9  8  0  0  0  0  0  0  0  0999 V2000
   -1.5470   -0.0755   -0.1976 C   0  0  0  0  0  0  0  0  0  0  0  0
   -0.2885    0.4507    0.1749 O   0  0  0  0  0  0  0  0  0  0  0  0
   -0.1502    1.7216   -0.3294 N   0  0  0  0  0  0  0  0  0  0  0  0
    0.9626    2.2353   -0.0219 C   0  0  0  0  0  0  0  0  0  0  0  0
   -1.6392   -0.1356   -1.2844 H   0  0  0  0  0  0  0  0  0  0  0  0
   -2.3597    0.5337    0.2044 H   0  0  0  0  0  0  0  0  0  0  0  0
   -1.5879   -1.0750    0.2318 H   0  0  0  0  0  0  0  0  0  0  0  0
    1.1497    3.2381   -0.3820 H   0  0  0  0  0  0  0  0  0  0  0  0
    1.7060    1.7101    0.5739 H   0  0  0  0  0  0  0  0  0  0  0  0
  1  2  1  0
  1  5  1  0
  1  6  1  0
  1  7  1  0
  2  3  1  0
  3  4  2  3
  4  8  1  0
  4  9  1  0
M  END
>  <reaction>  (3) 
rmg_rxn_15567

>  <mol_properties>  (3) 
{"0": {"label": "acceptor", "atom_type": "Cs"}, "8": {"label": "a_hydrogen", "atom_type": "H0"}}

>  <type>  (3) 
r2h

$$$$

     RDKit          3D

 17 15  0  0  0  0  0  0  0  0999 V2000
   -1.3209   -0.8026    1.0344 C   0  0  0  0  0  3  0  0  0  0  0  0
   -0.8426    0.3722    1.5795 O   0  0  0  0  0  0  0  0  0  0  0  0
    0.5319    0.4435    1.4717 N   0  0  0  0  0  0  0  0  0  0  0  0
    0.9737    1.5474    1.8986 C   0  0  0  0  0  0  0  0  0  0  0  0
   -0.6930   -1.6677    1.2441 H   0  0  0  0  0  0  0  0  0  0  0  0
   -2.3689   -0.9074    1.2991 H   0  0  0  0  0  0  0  0  0  0  0  0
    2.0461    1.6847    1.8603 H   0  0  0  0  0  0  0  0  0  0  0  0
    0.3249    2.3284    2.2877 H   0  0  0  0  0  0  0  0  0  0  0  0
    0.5686   -0.9807   -3.2534 C   0  0  0  0  0  0  0  0  0  0  0  0
    0.1616   -1.0944   -1.7908 C   0  0  0  0  0  0  0  0  0  0  0  0
   -1.1459   -0.5694   -1.5577 N   0  0  0  0  0  2  0  0  0  0  0  0
    0.5735    0.0635   -3.5678 H   0  0  0  0  0  0  0  0  0  0  0  0
    1.5674   -1.3929   -3.4086 H   0  0  0  0  0  0  0  0  0  0  0  0
   -0.1318   -1.5224   -3.8902 H   0  0  0  0  0  0  0  0  0  0  0  0
    0.8849   -0.5774   -1.1417 H   0  0  0  0  0  0  0  0  0  0  0  0
    0.1930   -2.1473   -1.4663 H   0  0  0  0  0  0  0  0  0  0  0  0
   -1.3225   -0.6799   -0.3610 H   0  0  0  0  0  0  0  0  0  0  0  0
  1  2  1  0
  1  5  1  0
  1  6  1  0
  2  3  1  0
  3  4  2  3
  4  7  1  0
  4  8  1  0
  9 10  1  0
  9 12  1  0
  9 13  1  0
  9 14  1  0
 10 11  1  0
 10 15  1  0
 10 16  1  0
 11 17  1  0
M  RAD  2   1   2  11   2
M  END
>  <reaction>  (4) 
rmg_rxn_15567

>  <mol_properties>  (4) 
{"0": {"label": "*3", "atom_type": "Cs"}, "1": {"label": "*4", "atom_type": "O2s"}, "9": {"label": "*0", "atom_type": "Cs"}, "10": {"label": "*1", "atom_type": "N3s"}, "16": {"label": "*2", "atom_type": "H0"}}

>  <type>  (4) 
ts

$$$$
