
     RDKit          3D

 12 11  0  0  0  0  0  0  0  0999 V2000
   -1.5274   -0.4919    0.1369 C   0  0  0  0  0  0  0  0  0  0  0  0
   -0.6072    0.6290   -0.3246 C   0  0  0  0  0  0  0  0  0  0  0  0
    0.7721    0.5469    0.3173 C   0  0  0  0  0  0  0  0  0  0  0  0
    1.4326   -0.6552   -0.0529 O   0  0  0  0  0  0  0  0  0  0  0  0
   -1.6561   -0.4701    1.2237 H   0  0  0  0  0  0  0  0  0  0  0  0
   -1.1312   -1.4730   -0.1432 H   0  0  0  0  0  0  0  0  0  0  0  0
   -2.5143   -0.3835   -0.3239 H   0  0  0  0  0  0  0  0  0  0  0  0
   -0.5104    0.5715   -1.4150 H   0  0  0  0  0  0  0  0  0  0  0  0
   -1.0636    1.5948   -0.0816 H   0  0  0  0  0  0  0  0  0  0  0  0
    0.6973    0.5734    1.4089 H   0  0  0  0  0  0  0  0  0  0  0  0
    1.3928    1.3909    0.0000 H   0  0  0  0  0  0  0  0  0  0  0  0
    1.4986   -0.6662   -1.0230 H   0  0  0  0  0  0  0  0  0  0  0  0
  1  2  1  0
  1  5  1  0
  1  6  1  0
  1  7  1  0
  2  3  1  0
  2  8  1  0
  2  9  1  0
  3  4  1  0
  3 10  1  0
  3 11  1  0
  4 12  1  0
M  END
>  <reaction>  (1) 
rmg_rxn_1161

>  <mol_properties>  (1) 
{"3": {"label": "donator", "atom_type": "O2s"}, "11": {"label": "d_hydrogen", "atom_type": "H0"}}

>  <type>  (1) 
r1h

$$$$

     RDKit          3D

  1  0  0  0  0  0  0  0  0  0999 V2000
    0.0000    0.0000    0.0000 O   0  0  0  0  0 15  0  0  0  0  0  0
M  END
>  <reaction>  (2) 
rmg_rxn_1161

>  <mol_properties>  (2) 
{"0": {"label": "acceptor", "atom_type": "O2s"}}

>  <type>  (2) 
r2

$$$$

     RDKit          3D

  2  1  0  0  0  0  0  0  0  0999 V2000
    0.0000    0.0000    0.1079 O   0  0  0  0  0  1  0  0  0  0  0  0
    0.0000    0.0000   -0.8631 H   0  0  0  0  0  0  0  0  0  0  0  0
  1  2  1  0
M  RAD  1   1   2
M  END
>  <reaction>  (3) 
rmg_rxn_1161

>  <mol_properties>  (3) 
{"0": {"label": "acceptor", "atom_type": "O2s"}, "1": {"label": "a_hydrogen", "atom_type": "H0"}}

>  <type>  (3) 
r2h

$$$$

     RDKit          3D

 13 11  0  0  0  0  0  0  0  0999 V2000
   -2.1892   -0.9137    0.1649 O   0  0  0  0  0  1  0  0  0  0  0  0
    1.7688   -0.7081   -0.4540 C   0  0  0  0  0  0  0  0  0  0  0  0
    0.9552   -0.1408    0.7003 C   0  0  0  0  0  0  0  0  0  0  0  0
    0.1452    1.0830    0.2911 C   0  0  0  0  0  0  0  0  0  0  0  0
   -0.8072    0.7491   -0.7089 O   0  0  0  0  0  1  0  0  0  0  0  0
    2.4614    0.0413   -0.8501 H   0  0  0  0  0  0  0  0  0  0  0  0
    1.1214   -1.0441   -1.2700 H   0  0  0  0  0  0  0  0  0  0  0  0
    2.3562   -1.5673   -0.1150 H   0  0  0  0  0  0  0  0  0  0  0  0
    0.2810   -0.9235    1.0670 H   0  0  0  0  0  0  0  0  0  0  0  0
    1.6299    0.1282    1.5204 H   0  0  0  0  0  0  0  0  0  0  0  0
    0.7966    1.8678   -0.1059 H   0  0  0  0  0  0  0  0  0  0  0  0
   -0.3916    1.4924    1.1528 H   0  0  0  0  0  0  0  0  0  0  0  0
   -1.4987   -0.0828   -0.2717 H   0  0  0  0  0  0  0  0  0  0  0  0
  1 13  1  0
  2  3  1  0
  2  6  1  0
  2  7  1  0
  2  8  1  0
  3  4  1  0
  3  9  1  0
  3 10  1  0
  4  5  1  0
  4 11  1  0
  4 12  1  0
M  RAD  2   1   2   5   2
M  END
>  <reaction>  (4) 
rmg_rxn_1161

>  <mol_properties>  (4) 
{"0": {"label": "*1", "atom_type": "O2s"}, "3": {"label": "*4", "atom_type": "Cs"}, "4": {"label": "*3", "atom_type": "O2s"}, "12": {"label": "*2", "atom_type": "H0"}}

>  <type>  (4) 
ts

$$$$
