
     RDKit          3D

 10  9  0  0  0  0  0  0  0  0999 V2000
    2.0861   -0.0291   -0.2114 C   0  0  0  0  0  0  0  0  0  0  0  0
    0.8590   -0.0801    0.2151 C   0  0  0  0  0  0  0  0  0  0  0  0
   -0.3701   -0.1299    0.6360 C   0  0  0  0  0  0  0  0  0  0  0  0
   -1.5792    0.1084   -0.2228 C   0  0  0  0  0  0  0  0  0  0  0  0
    2.6495    0.8968   -0.1902 H   0  0  0  0  0  0  0  0  0  0  0  0
    2.5830   -0.9114   -0.5982 H   0  0  0  0  0  0  0  0  0  0  0  0
   -0.5397   -0.3602    1.6844 H   0  0  0  0  0  0  0  0  0  0  0  0
   -2.2286   -0.7700   -0.2248 H   0  0  0  0  0  0  0  0  0  0  0  0
   -1.2946    0.3298   -1.2505 H   0  0  0  0  0  0  0  0  0  0  0  0
   -2.1655    0.9457    0.1623 H   0  0  0  0  0  0  0  0  0  0  0  0
  1  2  2  0
  1  5  1  0
  1  6  1  0
  2  3  2  0
  3  4  1  0
  3  7  1  0
  4  8  1  0
  4  9  1  0
  4 10  1  0
M  END
>  <reaction>  (1) 
rmg_rxn_15586

>  <mol_properties>  (1) 
{"2": {"label": "donator", "atom_type": "Cd"}, "6": {"label": "d_hydrogen", "atom_type": "H0"}}

>  <type>  (1) 
r1h

$$$$

     RDKit          3D

  8  7  0  0  0  0  0  0  0  0999 V2000
    1.7077   -0.1964   -0.0607 C   0  0  0  0  0  3  0  0  0  0  0  0
    0.4209   -0.4565    0.2808 O   0  0  0  0  0  0  0  0  0  0  0  0
   -0.4607    0.4385   -0.2968 N   0  0  0  0  0  0  0  0  0  0  0  0
   -1.6584    0.1416   -0.0244 C   0  0  0  0  0  0  0  0  0  0  0  0
    2.4163   -0.7685    0.5170 H   0  0  0  0  0  0  0  0  0  0  0  0
    1.9214    0.7645   -0.5045 H   0  0  0  0  0  0  0  0  0  0  0  0
   -2.4185    0.7953   -0.4307 H   0  0  0  0  0  0  0  0  0  0  0  0
   -1.9286   -0.7185    0.5831 H   0  0  0  0  0  0  0  0  0  0  0  0
  1  2  1  0
  1  5  1  0
  1  6  1  0
  2  3  1  0
  3  4  2  3
  4  7  1  0
  4  8  1  0
M  RAD  1   1   2
M  END
>  <reaction>  (2) 
rmg_rxn_15586

>  <mol_properties>  (2) 
{"0": {"label": "acceptor", "atom_type": "Cs"}}

>  <type>  (2) 
r2

$$$$

     RDKit          3D

  9  8  0  0  0  0  0  0  0  0999 V2000
   -1.5470   -0.0755   -0.1976 C   0  0  0  0  0  0  0  0  0  0  0  0
   -0.2885    0.4507    0.1749 O   0  0  0  0  0  0  0  0  0  0  0  0
   -0.1502    1.7216   -0.3294 N   0  0  0  0  0  0  0  0  0  0  0  0
    0.9626    2.2353   -0.0219 C   0  0  0  0  0  0  0  0  0  0  0  0
   -1.6392   -0.1356   -1.2844 H   0  0  0  0  0  0  0  0  0  0  0  0
   -2.3597    0.5337    0.2044 H   0  0  0  0  0  0  0  0  0  0  0  0
   -1.5879   -1.0750    0.2318 H   0  0  0  0  0  0  0  0  0  0  0  0
    1.1497    3.2381   -0.3820 H   0  0  0  0  0  0  0  0  0  0  0  0
    1.7060    1.7101    0.5739 H   0  0  0  0  0  0  0  0  0  0  0  0
  1  2  1  0
  1  5  1  0
  1  6  1  0
  1  7  1  0
  2  3  1  0
  3  4  2  3
  4  8  1  0
  4  9  1  0
M  END
>  <reaction>  (3) 
rmg_rxn_15586

>  <mol_properties>  (3) 
{"0": {"label": "acceptor", "atom_type": "Cs"}, "8": {"label": "a_hydrogen", "atom_type": "H0"}}

>  <type>  (3) 
r2h

$$$$

     RDKit          3D

 18 16  0  0  0  0  0  0  0  0999 V2000
    1.3804   -0.5878   -0.1848 C   0  0  0  0  0  3  0  0  0  0  0  0
    1.0708   -1.0932    1.0629 O   0  0  0  0  0  0  0  0  0  0  0  0
    1.0531   -0.0898    2.0113 N   0  0  0  0  0  0  0  0  0  0  0  0
    0.6977   -0.5270    3.1421 C   0  0  0  0  0  0  0  0  0  0  0  0
    2.1262    0.2045   -0.1640 H   0  0  0  0  0  0  0  0  0  0  0  0
    1.5923   -1.4153   -0.8554 H   0  0  0  0  0  0  0  0  0  0  0  0
    0.6661    0.1933    3.9486 H   0  0  0  0  0  0  0  0  0  0  0  0
    0.4368   -1.5686    3.3140 H   0  0  0  0  0  0  0  0  0  0  0  0
   -0.9721    1.0688   -3.6073 C   0  0  0  0  0  0  0  0  0  0  0  0
   -0.9661    0.8247   -2.3166 C   0  0  0  0  0  0  0  0  0  0  0  0
   -0.8785    0.5556   -1.0705 C   0  0  0  0  0  0  0  0  0  0  0  0
   -1.7860    0.7211    0.0969 C   0  0  0  0  0  0  0  0  0  0  0  0
   -0.6270    2.0180   -3.9996 H   0  0  0  0  0  0  0  0  0  0  0  0
   -1.3401    0.3351   -4.3147 H   0  0  0  0  0  0  0  0  0  0  0  0
    0.2616    0.0085   -0.7124 H   0  0  0  0  0  0  0  0  0  0  0  0
   -1.9865   -0.2449    0.5656 H   0  0  0  0  0  0  0  0  0  0  0  0
   -2.7363    1.1670   -0.2006 H   0  0  0  0  0  0  0  0  0  0  0  0
   -1.3206    1.3556    0.8538 H   0  0  0  0  0  0  0  0  0  0  0  0
  1  2  1  0
  1  5  1  0
  1  6  1  0
  2  3  1  0
  3  4  2  3
  4  7  1  0
  4  8  1  0
  9 10  2  0
  9 13  1  0
  9 14  1  0
 10 11  2  0
 11 12  1  0
 11 15  1  0
 12 16  1  0
 12 17  1  0
 12 18  1  0
M  RAD  1   1   2
M  END
>  <reaction>  (4) 
rmg_rxn_15586

>  <mol_properties>  (4) 
{"0": {"label": "*3", "atom_type": "Cs"}, "1": {"label": "*4", "atom_type": "O2s"}, "9": {"label": "*0", "atom_type": "Cdd"}, "10": {"label": "*1", "atom_type": "Cd"}, "14": {"label": "*2", "atom_type": "H0"}}

>  <type>  (4) 
ts

$$$$
