
     RDKit          3D

  8  7  0  0  0  0  0  0  0  0999 V2000
    1.2099   -0.1388    0.0025 C   0  0  0  0  0  0  0  0  0  0  0  0
   -0.1788    0.4141    0.0007 C   0  0  0  0  0  0  0  0  0  0  0  0
   -1.2100   -0.3603    0.0013 N   0  0  0  0  0  0  0  0  0  0  0  0
    1.7355    0.2223   -0.8851 H   0  0  0  0  0  0  0  0  0  0  0  0
    1.7521    0.1663    0.9007 H   0  0  0  0  0  0  0  0  0  0  0  0
    1.1564   -1.2296   -0.0424 H   0  0  0  0  0  0  0  0  0  0  0  0
   -0.2911    1.5112   -0.0010 H   0  0  0  0  0  0  0  0  0  0  0  0
   -2.0699    0.2005   -0.0002 H   0  0  0  0  0  0  0  0  0  0  0  0
  1  2  1  0
  1  4  1  0
  1  5  1  0
  1  6  1  0
  2  3  2  3
  2  7  1  0
  3  8  1  0
M  END
>  <reaction>  (1) 
rmg_rxn_16803

>  <mol_properties>  (1) 
{"2": {"label": "donator", "atom_type": "N3d"}, "7": {"label": "d_hydrogen", "atom_type": "H0"}}

>  <type>  (1) 
r1h

$$$$

     RDKit          3D

  9  8  0  0  0  0  0  0  0  0999 V2000
    1.8844   -0.1670    0.0001 C   0  0  0  0  0  0  0  0  0  0  0  0
    0.6287    0.1611   -0.0002 C   0  0  0  0  0  3  0  0  0  0  0  0
   -0.7436    0.5204   -0.0005 C   0  0  0  0  0  0  0  0  0  0  0  0
   -1.7045   -0.4085    0.0004 C   0  0  0  0  0  0  0  0  0  0  0  0
    2.4161   -0.3143   -0.9325 H   0  0  0  0  0  0  0  0  0  0  0  0
    2.4178   -0.3065    0.9329 H   0  0  0  0  0  0  0  0  0  0  0  0
   -1.0000    1.5756   -0.0014 H   0  0  0  0  0  0  0  0  0  0  0  0
   -2.7508   -0.1219    0.0002 H   0  0  0  0  0  0  0  0  0  0  0  0
   -1.4731   -1.4692    0.0014 H   0  0  0  0  0  0  0  0  0  0  0  0
  1  2  2  3
  1  5  1  0
  1  6  1  0
  2  3  1  0
  3  4  2  3
  3  7  1  0
  4  8  1  0
  4  9  1  0
M  RAD  1   2   2
M  END
>  <reaction>  (2) 
rmg_rxn_16803

>  <mol_properties>  (2) 
{"3": {"label": "acceptor", "atom_type": "Cs"}}

>  <type>  (2) 
r2

$$$$

     RDKit          3D

 10  9  0  0  0  0  0  0  0  0999 V2000
    1.9281   -0.2104    0.0000 C   0  0  0  0  0  0  0  0  0  0  0  0
    0.6881    0.1708    0.0000 C   0  0  0  0  0  0  0  0  0  0  0  0
   -0.5547    0.5538   -0.0000 C   0  0  0  0  0  0  0  0  0  0  0  0
   -1.7319   -0.3629    0.0000 C   0  0  0  0  0  0  0  0  0  0  0  0
    2.4558   -0.3741   -0.9324 H   0  0  0  0  0  0  0  0  0  0  0  0
    2.4558   -0.3741    0.9324 H   0  0  0  0  0  0  0  0  0  0  0  0
   -0.7657    1.6194   -0.0000 H   0  0  0  0  0  0  0  0  0  0  0  0
   -2.3467   -0.1819    0.8869 H   0  0  0  0  0  0  0  0  0  0  0  0
   -1.4304   -1.4153    0.0000 H   0  0  0  0  0  0  0  0  0  0  0  0
   -2.3467   -0.1819   -0.8869 H   0  0  0  0  0  0  0  0  0  0  0  0
  1  2  2  0
  1  5  1  0
  1  6  1  0
  2  3  2  0
  3  4  1  0
  3  7  1  0
  4  8  1  0
  4  9  1  0
  4 10  1  0
M  END
>  <reaction>  (3) 
rmg_rxn_16803

>  <mol_properties>  (3) 
{"0": {"label": "a_hydrogen", "atom_type": "H0"}, "4": {"label": "acceptor", "atom_type": "Cs"}}

>  <type>  (3) 
r2h

$$$$

     RDKit          3D

 17 15  0  0  0  0  0  0  0  0999 V2000
    3.5806   -0.6327    0.2145 C   0  0  0  0  0  0  0  0  0  0  0  0
    2.2799    0.1030    0.1840 C   0  0  0  0  0  0  0  0  0  0  0  0
    1.3785   -0.1628   -0.6991 N   0  0  0  0  0  0  0  0  0  0  0  0
    4.3961    0.0855    0.0970 H   0  0  0  0  0  0  0  0  0  0  0  0
    3.7016   -1.1760    1.1548 H   0  0  0  0  0  0  0  0  0  0  0  0
    3.6096   -1.3348   -0.6226 H   0  0  0  0  0  0  0  0  0  0  0  0
    2.1173    0.8839    0.9457 H   0  0  0  0  0  0  0  0  0  0  0  0
    0.3977    0.5636   -0.5314 H   0  0  0  0  0  0  0  0  0  0  0  0
   -3.3397   -1.1343   -0.1084 C   0  0  0  0  0  0  0  0  0  0  0  0
   -2.4780   -0.2268    0.2337 C   0  0  0  0  0  3  0  0  0  0  0  0
   -1.6141    0.6829    0.5766 C   0  0  0  0  0  0  0  0  0  0  0  0
   -0.6477    1.3378   -0.3527 C   0  0  0  0  0  0  0  0  0  0  0  0
   -4.3335   -0.8557   -0.4390 H   0  0  0  0  0  0  0  0  0  0  0  0
   -3.0790   -2.1855   -0.0715 H   0  0  0  0  0  0  0  0  0  0  0  0
   -1.5825    0.9981    1.6156 H   0  0  0  0  0  0  0  0  0  0  0  0
   -0.8161    2.4189   -0.3660 H   0  0  0  0  0  0  0  0  0  0  0  0
   -0.7462    0.9621   -1.3762 H   0  0  0  0  0  0  0  0  0  0  0  0
  1  2  1  0
  1  4  1  0
  1  5  1  0
  1  6  1  0
  2  3  2  3
  2  7  1  0
  3  8  1  0
  9 10  2  3
  9 13  1  0
  9 14  1  0
 10 11  1  0
 11 12  2  3
 11 15  1  0
 12 16  1  0
 12 17  1  0
M  RAD  1  10   2
M  END
>  <reaction>  (4) 
rmg_rxn_16803

>  <mol_properties>  (4) 
{"1": {"label": "*0", "atom_type": "Cd"}, "2": {"label": "*1", "atom_type": "N3d"}, "7": {"label": "*2", "atom_type": "H0"}, "10": {"label": "*4", "atom_type": "Cd"}, "11": {"label": "*3", "atom_type": "Cd"}}

>  <type>  (4) 
ts

$$$$
