
     RDKit          3D

  8  7  0  0  0  0  0  0  0  0999 V2000
    0.9548    0.1194   -0.0790 C   0  0  0  0  0  0  0  0  0  0  0  0
   -0.4838   -0.2649    0.0193 C   0  0  0  0  0  0  0  0  0  0  0  0
   -0.8933   -1.1081    0.8664 N   0  0  0  0  0  0  0  0  0  0  0  0
    1.3360   -0.0983   -1.0800 H   0  0  0  0  0  0  0  0  0  0  0  0
    1.0698    1.1948    0.0786 H   0  0  0  0  0  0  0  0  0  0  0  0
    1.5426   -0.4219    0.6602 H   0  0  0  0  0  0  0  0  0  0  0  0
   -1.1575    0.2324   -0.6905 H   0  0  0  0  0  0  0  0  0  0  0  0
   -1.8989   -1.2455    0.7886 H   0  0  0  0  0  0  0  0  0  0  0  0
  1  2  1  0
  1  4  1  0
  1  5  1  0
  1  6  1  0
  2  3  2  3
  2  7  1  0
  3  8  1  0
M  END
>  <reaction>  (1) 
rmg_rxn_16771

>  <mol_properties>  (1) 
{"2": {"label": "donator", "atom_type": "N3d"}, "7": {"label": "d_hydrogen", "atom_type": "H0"}}

>  <type>  (1) 
r1h

$$$$

     RDKit          3D

  9  8  0  0  0  0  0  0  0  0999 V2000
   -1.0434   -0.0834    0.0221 C   0  0  0  0  0  0  0  0  0  0  0  0
    0.4680   -0.2131    0.0785 C   0  0  0  0  0  0  0  0  0  0  0  0
    0.9450   -1.3136   -0.7058 N   0  0  0  0  0  2  0  0  0  0  0  0
   -1.5170   -0.9919    0.3960 H   0  0  0  0  0  0  0  0  0  0  0  0
   -1.3864    0.7592    0.6249 H   0  0  0  0  0  0  0  0  0  0  0  0
   -1.3736    0.0696   -1.0061 H   0  0  0  0  0  0  0  0  0  0  0  0
    0.8045   -0.3309    1.1214 H   0  0  0  0  0  0  0  0  0  0  0  0
    0.9463    0.7186   -0.2648 H   0  0  0  0  0  0  0  0  0  0  0  0
    1.9638   -1.3321   -0.6157 H   0  0  0  0  0  0  0  0  0  0  0  0
  1  2  1  0
  1  4  1  0
  1  5  1  0
  1  6  1  0
  2  3  1  0
  2  7  1  0
  2  8  1  0
  3  9  1  0
M  RAD  1   3   2
M  END
>  <reaction>  (2) 
rmg_rxn_16771

>  <mol_properties>  (2) 
{"2": {"label": "acceptor", "atom_type": "N3s"}}

>  <type>  (2) 
r2

$$$$

     RDKit          3D

 10  9  0  0  0  0  0  0  0  0999 V2000
   -1.1906   -0.0419   -0.0385 C   0  0  0  0  0  0  0  0  0  0  0  0
    0.2513    0.4500    0.0348 C   0  0  0  0  0  0  0  0  0  0  0  0
    1.2500   -0.5694    0.3278 N   0  0  0  0  0  0  0  0  0  0  0  0
   -1.4965   -0.4905    0.9100 H   0  0  0  0  0  0  0  0  0  0  0  0
   -1.3035   -0.7985   -0.8190 H   0  0  0  0  0  0  0  0  0  0  0  0
   -1.8789    0.7769   -0.2612 H   0  0  0  0  0  0  0  0  0  0  0  0
    0.3352    1.2278    0.7979 H   0  0  0  0  0  0  0  0  0  0  0  0
    0.5259    0.9233   -0.9113 H   0  0  0  0  0  0  0  0  0  0  0  0
    1.2298   -1.2971   -0.3752 H   0  0  0  0  0  0  0  0  0  0  0  0
    1.0523   -1.0138    1.2153 H   0  0  0  0  0  0  0  0  0  0  0  0
  1  2  1  0
  1  4  1  0
  1  5  1  0
  1  6  1  0
  2  3  1  0
  2  7  1  0
  2  8  1  0
  3  9  1  0
  3 10  1  0
M  END
>  <reaction>  (3) 
rmg_rxn_16771

>  <mol_properties>  (3) 
{"0": {"label": "a_hydrogen", "atom_type": "H0"}, "3": {"label": "acceptor", "atom_type": "N3s"}}

>  <type>  (3) 
r2h

$$$$

     RDKit          3D

 17 15  0  0  0  0  0  0  0  0999 V2000
   -0.5909    0.3328   -3.1741 C   0  0  0  0  0  0  0  0  0  0  0  0
   -0.5951    0.3324   -1.6762 C   0  0  0  0  0  0  0  0  0  0  0  0
    0.4569    0.3667   -0.9923 N   0  0  0  0  0  0  0  0  0  0  0  0
   -1.0938   -0.5626   -3.5463 H   0  0  0  0  0  0  0  0  0  0  0  0
   -1.1483    1.1957   -3.5455 H   0  0  0  0  0  0  0  0  0  0  0  0
    0.4271    0.3648   -3.5576 H   0  0  0  0  0  0  0  0  0  0  0  0
   -1.5777    0.3021   -1.1836 H   0  0  0  0  0  0  0  0  0  0  0  0
    0.0832    0.3539    0.1450 H   0  0  0  0  0  0  0  0  0  0  0  0
    1.5082   -1.1964    2.0131 C   0  0  0  0  0  0  0  0  0  0  0  0
    0.0008   -1.0461    1.8371 C   0  0  0  0  0  0  0  0  0  0  0  0
   -0.4438    0.2388    1.3329 N   0  0  0  0  0  2  0  0  0  0  0  0
    1.8912   -0.4583    2.7223 H   0  0  0  0  0  0  0  0  0  0  0  0
    1.7588   -2.1892    2.3915 H   0  0  0  0  0  0  0  0  0  0  0  0
    2.0195   -1.0507    1.0605 H   0  0  0  0  0  0  0  0  0  0  0  0
   -0.4993   -1.2033    2.8023 H   0  0  0  0  0  0  0  0  0  0  0  0
   -0.3793   -1.8200    1.1654 H   0  0  0  0  0  0  0  0  0  0  0  0
    0.0653    0.9654    1.8402 H   0  0  0  0  0  0  0  0  0  0  0  0
  1  2  1  0
  1  4  1  0
  1  5  1  0
  1  6  1  0
  2  3  2  3
  2  7  1  0
  3  8  1  0
  9 10  1  0
  9 12  1  0
  9 13  1  0
  9 14  1  0
 10 11  1  0
 10 15  1  0
 10 16  1  0
 11 17  1  0
M  RAD  1  11   2
M  END
>  <reaction>  (4) 
rmg_rxn_16771

>  <mol_properties>  (4) 
{"1": {"label": "*0", "atom_type": "Cd"}, "2": {"label": "*1", "atom_type": "N3d"}, "7": {"label": "*2", "atom_type": "H0"}, "9": {"label": "*4", "atom_type": "Cs"}, "10": {"label": "*3", "atom_type": "N3s"}}

>  <type>  (4) 
ts

$$$$
