
     RDKit          3D

  9  8  0  0  0  0  0  0  0  0999 V2000
   -1.0314    0.2323   -0.1227 C   0  0  0  0  0  0  0  0  0  0  0  0
    0.3094   -0.4511    0.0063 C   0  0  0  0  0  0  0  0  0  0  0  0
    0.3197   -1.7698    0.6841 N   0  0  0  0  0  0  0  0  0  0  0  0
   -0.7498   -2.1455    1.0557 O   0  0  0  0  0  0  0  0  0  0  0  0
   -1.4744    0.4198    0.8552 H   0  0  0  0  0  0  0  0  0  0  0  0
   -0.9073    1.1865   -0.6350 H   0  0  0  0  0  0  0  0  0  0  0  0
   -1.7319   -0.3778   -0.6927 H   0  0  0  0  0  0  0  0  0  0  0  0
    1.0375    0.1401    0.5713 H   0  0  0  0  0  0  0  0  0  0  0  0
    0.7826   -0.6494   -0.9609 H   0  0  0  0  0  0  0  0  0  0  0  0
  1  2  1  0
  1  5  1  0
  1  6  1  0
  1  7  1  0
  2  3  1  0
  2  8  1  0
  2  9  1  0
  3  4  2  0
M  END
>  <reaction>  (1) 
rmg_rxn_10

>  <mol_properties>  (1) 
{"1": {"label": "donator", "atom_type": "Cs"}, "7": {"label": "d_hydrogen", "atom_type": "H0"}}

>  <type>  (1) 
r1h

$$$$

     RDKit          3D

  8  7  0  0  0  0  0  0  0  0999 V2000
    0.8135   -0.0283    0.0400 C   0  0  0  0  0  0  0  0  0  0  0  0
   -0.7038   -0.1008   -0.0090 C   0  0  0  0  0  0  0  0  0  0  0  0
   -1.5421    1.4429   -0.3606 S   0  0  0  0  0  1  0  0  0  0  0  0
    1.1442    0.6666    0.8123 H   0  0  0  0  0  0  0  0  0  0  0  0
    1.2169    0.3128   -0.9137 H   0  0  0  0  0  0  0  0  0  0  0  0
    1.2356   -1.0119    0.2594 H   0  0  0  0  0  0  0  0  0  0  0  0
   -1.1179   -0.4663    0.9365 H   0  0  0  0  0  0  0  0  0  0  0  0
   -1.0463   -0.8150   -0.7650 H   0  0  0  0  0  0  0  0  0  0  0  0
  1  2  1  0
  1  4  1  0
  1  5  1  0
  1  6  1  0
  2  3  1  0
  2  7  1  0
  2  8  1  0
M  RAD  1   3   2
M  END
>  <reaction>  (2) 
rmg_rxn_10

>  <mol_properties>  (2) 
{"2": {"label": "acceptor", "atom_type": "S2s"}}

>  <type>  (2) 
r2

$$$$

     RDKit          3D

  9  8  0  0  0  0  0  0  0  0999 V2000
   -0.8818   -0.3578    0.1297 C   0  0  0  0  0  0  0  0  0  0  0  0
    0.6153   -0.3021   -0.1188 C   0  0  0  0  0  0  0  0  0  0  0  0
    1.5354   -1.7170    0.5545 S   0  0  0  0  0  0  0  0  0  0  0  0
   -1.1018   -0.3317    1.1984 H   0  0  0  0  0  0  0  0  0  0  0  0
   -1.3114   -1.2723   -0.2799 H   0  0  0  0  0  0  0  0  0  0  0  0
   -1.3767    0.4976   -0.3363 H   0  0  0  0  0  0  0  0  0  0  0  0
    1.0467    0.6194    0.2718 H   0  0  0  0  0  0  0  0  0  0  0  0
    0.8295   -0.3275   -1.1882 H   0  0  0  0  0  0  0  0  0  0  0  0
    1.2306   -1.5077    1.8423 H   0  0  0  0  0  0  0  0  0  0  0  0
  1  2  1  0
  1  4  1  0
  1  5  1  0
  1  6  1  0
  2  3  1  0
  2  7  1  0
  2  8  1  0
  3  9  1  0
M  END
>  <reaction>  (3) 
rmg_rxn_10

>  <mol_properties>  (3) 
{"2": {"label": "acceptor", "atom_type": "S2s"}, "8": {"label": "a_hydrogen", "atom_type": "H0"}}

>  <type>  (3) 
r2h

$$$$

     RDKit          3D

 17 15  0  0  0  0  0  0  0  0999 V2000
    1.6804   -1.6244   -1.4390 C   0  0  0  0  0  0  0  0  0  0  0  0
    1.6484   -1.4410    0.0676 C   0  0  0  0  0  0  0  0  0  0  0  0
    0.0405   -1.7450    0.8403 S   0  0  0  0  0  1  0  0  0  0  0  0
    1.0430   -0.8887   -1.9310 H   0  0  0  0  0  0  0  0  0  0  0  0
    1.3368   -2.6210   -1.7175 H   0  0  0  0  0  0  0  0  0  0  0  0
    2.6977   -1.4905   -1.8142 H   0  0  0  0  0  0  0  0  0  0  0  0
    1.9903   -0.4458    0.3557 H   0  0  0  0  0  0  0  0  0  0  0  0
    2.3188   -2.1504    0.5605 H   0  0  0  0  0  0  0  0  0  0  0  0
   -2.1433    0.1868   -1.1848 C   0  0  0  0  0  0  0  0  0  0  0  0
   -1.2891    0.6874   -0.0527 C   0  0  0  0  0  0  0  0  0  0  0  0
   -0.2753    1.6297   -0.3530 N   0  0  0  0  0  0  0  0  0  0  0  0
    0.2968    1.5206   -1.4078 O   0  0  0  0  0  0  0  0  0  0  0  0
   -1.5201   -0.1907   -1.9943 H   0  0  0  0  0  0  0  0  0  0  0  0
   -2.7862   -0.6163   -0.8271 H   0  0  0  0  0  0  0  0  0  0  0  0
   -2.7736    0.9889   -1.5742 H   0  0  0  0  0  0  0  0  0  0  0  0
   -0.6238   -0.3365    0.3754 H   0  0  0  0  0  0  0  0  0  0  0  0
   -1.8068    0.9881    0.8550 H   0  0  0  0  0  0  0  0  0  0  0  0
  1  2  1  0
  1  4  1  0
  1  5  1  0
  1  6  1  0
  2  3  1  0
  2  7  1  0
  2  8  1  0
  9 10  1  0
  9 13  1  0
  9 14  1  0
  9 15  1  0
 10 11  1  0
 10 16  1  0
 10 17  1  0
 11 12  2  0
M  RAD  1   3   2
M  END
>  <reaction>  (4) 
rmg_rxn_10

>  <mol_properties>  (4) 
{"1": {"label": "*4", "atom_type": "Cs"}, "2": {"label": "*3", "atom_type": "S2s"}, "9": {"label": "*1", "atom_type": "Cs"}, "10": {"label": "*0", "atom_type": "N3d"}, "15": {"label": "*2", "atom_type": "H0"}}

>  <type>  (4) 
ts

$$$$
