
     RDKit          3D

 18 17  0  0  0  0  0  0  0  0999 V2000
    2.2026   -0.7213   -0.2612 C   0  0  0  0  0  0  0  0  0  0  0  0
    1.5384    0.2638    0.6915 C   0  0  0  0  0  0  0  0  0  0  0  0
    2.2584    1.5946    0.7694 C   0  0  0  0  0  0  0  0  0  0  0  0
    2.2212    2.2185   -0.4893 O   0  0  0  0  0  0  0  0  0  0  0  0
    2.8988    3.4488   -0.5204 C   0  0  0  0  0  0  0  0  0  0  0  0
    2.7981    4.0296   -1.9118 C   0  0  0  0  0  0  0  0  0  0  0  0
    3.2294   -0.9309    0.0486 H   0  0  0  0  0  0  0  0  0  0  0  0
    2.2338   -0.3181   -1.2734 H   0  0  0  0  0  0  0  0  0  0  0  0
    1.6610   -1.6680   -0.2875 H   0  0  0  0  0  0  0  0  0  0  0  0
    1.4990   -0.1566    1.7002 H   0  0  0  0  0  0  0  0  0  0  0  0
    0.5055    0.4455    0.3835 H   0  0  0  0  0  0  0  0  0  0  0  0
    3.3038    1.4410    1.0808 H   0  0  0  0  0  0  0  0  0  0  0  0
    1.7844    2.2410    1.5226 H   0  0  0  0  0  0  0  0  0  0  0  0
    2.4596    4.1376    0.2164 H   0  0  0  0  0  0  0  0  0  0  0  0
    3.9524    3.3035   -0.2397 H   0  0  0  0  0  0  0  0  0  0  0  0
    1.7543    4.1869   -2.1856 H   0  0  0  0  0  0  0  0  0  0  0  0
    3.2472    3.3545   -2.6411 H   0  0  0  0  0  0  0  0  0  0  0  0
    3.3178    4.9878   -1.9600 H   0  0  0  0  0  0  0  0  0  0  0  0
  1  2  1  0
  1  7  1  0
  1  8  1  0
  1  9  1  0
  2  3  1  0
  2 10  1  0
  2 11  1  0
  3  4  1  0
  3 12  1  0
  3 13  1  0
  4  5  1  0
  5  6  1  0
  5 14  1  0
  5 15  1  0
  6 16  1  0
  6 17  1  0
  6 18  1  0
M  END
>  <reaction>  (1) 
rmg_rxn_326

>  <mol_properties>  (1) 
{"2": {"label": "donator", "atom_type": "Cs"}, "11": {"label": "d_hydrogen", "atom_type": "H0"}}

>  <type>  (1) 
r1h

$$$$

     RDKit          3D

 13 12  0  0  0  0  0  0  0  0999 V2000
    1.9060    0.2628    0.3980 C   0  0  0  0  0  0  0  0  0  0  0  0
    0.6330   -0.4250    0.0685 C   0  0  0  0  0  3  0  0  0  0  0  0
   -0.2610   -0.9325    1.1416 C   0  0  0  0  0  0  0  0  0  0  0  0
   -1.4364   -1.7546    0.6268 C   0  0  0  0  0  0  0  0  0  0  0  0
    2.4899   -0.3070    1.1292 H   0  0  0  0  0  0  0  0  0  0  0  0
    1.7297    1.2496    0.8515 H   0  0  0  0  0  0  0  0  0  0  0  0
    2.5269    0.4197   -0.4845 H   0  0  0  0  0  0  0  0  0  0  0  0
    0.2597   -0.3936   -0.9489 H   0  0  0  0  0  0  0  0  0  0  0  0
   -0.6439   -0.0868    1.7356 H   0  0  0  0  0  0  0  0  0  0  0  0
    0.3260   -1.5277    1.8536 H   0  0  0  0  0  0  0  0  0  0  0  0
   -1.0872   -2.6320    0.0792 H   0  0  0  0  0  0  0  0  0  0  0  0
   -2.0701   -2.0976    1.4459 H   0  0  0  0  0  0  0  0  0  0  0  0
   -2.0561   -1.1637   -0.0512 H   0  0  0  0  0  0  0  0  0  0  0  0
  1  2  1  0
  1  5  1  0
  1  6  1  0
  1  7  1  0
  2  3  1  0
  2  8  1  0
  3  4  1  0
  3  9  1  0
  3 10  1  0
  4 11  1  0
  4 12  1  0
  4 13  1  0
M  RAD  1   2   2
M  END
>  <reaction>  (2) 
rmg_rxn_326

>  <mol_properties>  (2) 
{"1": {"label": "acceptor", "atom_type": "Cs"}}

>  <type>  (2) 
r2

$$$$

     RDKit          3D

 14 13  0  0  0  0  0  0  0  0999 V2000
    1.8106   -0.5953    0.5577 C   0  0  0  0  0  0  0  0  0  0  0  0
    0.5197    0.2064    0.6554 C   0  0  0  0  0  0  0  0  0  0  0  0
   -0.5206   -0.2080   -0.3788 C   0  0  0  0  0  0  0  0  0  0  0  0
   -1.8114    0.5937   -0.2812 C   0  0  0  0  0  0  0  0  0  0  0  0
    2.2725   -0.4752   -0.4251 H   0  0  0  0  0  0  0  0  0  0  0  0
    1.6214   -1.6612    0.7052 H   0  0  0  0  0  0  0  0  0  0  0  0
    2.5364   -0.2784    1.3084 H   0  0  0  0  0  0  0  0  0  0  0  0
    0.0930    0.0950    1.6574 H   0  0  0  0  0  0  0  0  0  0  0  0
    0.7393    1.2723    0.5354 H   0  0  0  0  0  0  0  0  0  0  0  0
   -0.7402   -1.2739   -0.2588 H   0  0  0  0  0  0  0  0  0  0  0  0
   -0.0938   -0.0965   -1.3808 H   0  0  0  0  0  0  0  0  0  0  0  0
   -1.6222    1.6596   -0.4287 H   0  0  0  0  0  0  0  0  0  0  0  0
   -2.2734    0.4736    0.7017 H   0  0  0  0  0  0  0  0  0  0  0  0
   -2.5373    0.2768   -1.0318 H   0  0  0  0  0  0  0  0  0  0  0  0
  1  2  1  0
  1  5  1  0
  1  6  1  0
  1  7  1  0
  2  3  1  0
  2  8  1  0
  2  9  1  0
  3  4  1  0
  3 10  1  0
  3 11  1  0
  4 12  1  0
  4 13  1  0
  4 14  1  0
M  END
>  <reaction>  (3) 
rmg_rxn_326

>  <mol_properties>  (3) 
{"1": {"label": "acceptor", "atom_type": "Cs"}, "13": {"label": "a_hydrogen", "atom_type": "H0"}}

>  <type>  (3) 
r2h

$$$$

     RDKit          3D

 31 29  0  0  0  0  0  0  0  0999 V2000
    2.9759   -0.1018    0.7134 C   0  0  0  0  0  0  0  0  0  0  0  0
    1.8534    0.6395    0.0361 C   0  0  0  0  0  3  0  0  0  0  0  0
    1.8140    0.5534   -1.4687 C   0  0  0  0  0  0  0  0  0  0  0  0
    0.5394    1.1219   -2.0805 C   0  0  0  0  0  0  0  0  0  0  0  0
    3.9559    0.3019    0.4337 H   0  0  0  0  0  0  0  0  0  0  0  0
    2.9697   -1.1587    0.4319 H   0  0  0  0  0  0  0  0  0  0  0  0
    2.8963   -0.0442    1.8010 H   0  0  0  0  0  0  0  0  0  0  0  0
    1.7402    1.6644    0.3977 H   0  0  0  0  0  0  0  0  0  0  0  0
    1.9311   -0.4908   -1.7754 H   0  0  0  0  0  0  0  0  0  0  0  0
    2.6850    1.0801   -1.8826 H   0  0  0  0  0  0  0  0  0  0  0  0
    0.4015    2.1673   -1.7925 H   0  0  0  0  0  0  0  0  0  0  0  0
    0.5690    1.0790   -3.1704 H   0  0  0  0  0  0  0  0  0  0  0  0
   -0.3341    0.5624   -1.7405 H   0  0  0  0  0  0  0  0  0  0  0  0
   -0.1330   -2.5175   -0.4026 C   0  0  0  0  0  0  0  0  0  0  0  0
   -0.2047   -2.0088    1.0320 C   0  0  0  0  0  0  0  0  0  0  0  0
   -0.3566   -0.5160    1.1349 C   0  0  0  0  0  0  0  0  0  0  0  0
   -1.5012   -0.0751    0.4932 O   0  0  0  0  0  0  0  0  0  0  0  0
   -1.7681    1.2972    0.6803 C   0  0  0  0  0  0  0  0  0  0  0  0
   -2.9635    1.6799   -0.1590 C   0  0  0  0  0  0  0  0  0  0  0  0
    0.7356   -2.1051   -0.9187 H   0  0  0  0  0  0  0  0  0  0  0  0
   -1.0231   -2.2281   -0.9614 H   0  0  0  0  0  0  0  0  0  0  0  0
   -0.0536   -3.6052   -0.4268 H   0  0  0  0  0  0  0  0  0  0  0  0
    0.7019   -2.2880    1.5756 H   0  0  0  0  0  0  0  0  0  0  0  0
   -1.0423   -2.4896    1.5508 H   0  0  0  0  0  0  0  0  0  0  0  0
    0.7051    0.0491    0.5470 H   0  0  0  0  0  0  0  0  0  0  0  0
   -0.2944   -0.1439    2.1664 H   0  0  0  0  0  0  0  0  0  0  0  0
   -1.9583    1.4914    1.7450 H   0  0  0  0  0  0  0  0  0  0  0  0
   -0.8896    1.8862    0.3898 H   0  0  0  0  0  0  0  0  0  0  0  0
   -3.8342    1.0847    0.1186 H   0  0  0  0  0  0  0  0  0  0  0  0
   -2.7549    1.5147   -1.2168 H   0  0  0  0  0  0  0  0  0  0  0  0
   -3.2032    2.7343   -0.0140 H   0  0  0  0  0  0  0  0  0  0  0  0
  1  2  1  0
  1  5  1  0
  1  6  1  0
  1  7  1  0
  2  3  1  0
  2  8  1  0
  3  4  1  0
  3  9  1  0
  3 10  1  0
  4 11  1  0
  4 12  1  0
  4 13  1  0
 14 15  1  0
 14 20  1  0
 14 21  1  0
 14 22  1  0
 15 16  1  0
 15 23  1  0
 15 24  1  0
 16 17  1  0
 16 25  1  0
 16 26  1  0
 17 18  1  0
 18 19  1  0
 18 27  1  0
 18 28  1  0
 19 29  1  0
 19 30  1  0
 19 31  1  0
M  RAD  1   2   2
M  END
>  <reaction>  (4) 
rmg_rxn_326

>  <mol_properties>  (4) 
{"1": {"label": "*3", "atom_type": "Cs"}, "2": {"label": "*4", "atom_type": "Cs"}, "15": {"label": "*1", "atom_type": "Cs"}, "16": {"label": "*0", "atom_type": "O2s"}, "24": {"label": "*2", "atom_type": "H0"}}

>  <type>  (4) 
ts

$$$$
