
     RDKit          3D

  9  8  0  0  0  0  0  0  0  0999 V2000
    2.0310   -0.2313    0.2972 O   0  0  0  0  0  0  0  0  0  0  0  0
    0.7181   -0.4900   -0.1228 N   0  0  0  0  0  0  0  0  0  0  0  0
   -0.2116    0.4372    0.3498 C   0  0  0  0  0  0  0  0  0  0  0  0
    0.0407    1.6423    0.8420 C   0  0  0  0  0  0  0  0  0  0  0  0
    2.4997   -0.0381   -0.5177 H   0  0  0  0  0  0  0  0  0  0  0  0
    0.4970   -1.4356    0.1600 H   0  0  0  0  0  0  0  0  0  0  0  0
   -1.2274    0.0806    0.2121 H   0  0  0  0  0  0  0  0  0  0  0  0
    1.0509    1.9968    0.9864 H   0  0  0  0  0  0  0  0  0  0  0  0
   -0.7793    2.2911    1.1115 H   0  0  0  0  0  0  0  0  0  0  0  0
  1  2  1  0
  1  5  1  0
  2  3  1  0
  2  6  1  0
  3  4  2  3
  3  7  1  0
  4  8  1  0
  4  9  1  0
M  END
>  <reaction>  (1) 
rmg_rxn_16700

>  <mol_properties>  (1) 
{"1": {"label": "donator", "atom_type": "N3s"}, "5": {"label": "d_hydrogen", "atom_type": "H0"}}

>  <type>  (1) 
r1h

$$$$

     RDKit          3D

  7  6  0  0  0  0  0  0  0  0999 V2000
   -0.6441   -0.1356    0.0624 C   0  0  0  0  0  0  0  0  0  0  0  0
    0.8523    0.0148   -0.0333 C   0  0  0  0  0  0  0  0  0  0  0  0
    1.6700   -0.6077    0.6603 N   0  0  0  0  0  2  0  0  0  0  0  0
   -1.0940    0.8275    0.3091 H   0  0  0  0  0  0  0  0  0  0  0  0
   -0.9104   -0.8656    0.8237 H   0  0  0  0  0  0  0  0  0  0  0  0
   -1.0427   -0.4545   -0.9022 H   0  0  0  0  0  0  0  0  0  0  0  0
    1.2362    0.7308   -0.7748 H   0  0  0  0  0  0  0  0  0  0  0  0
  1  2  1  0
  1  4  1  0
  1  5  1  0
  1  6  1  0
  2  3  2  0
  2  7  1  0
M  RAD  1   3   2
M  END
>  <reaction>  (2) 
rmg_rxn_16700

>  <mol_properties>  (2) 
{"2": {"label": "acceptor", "atom_type": "N3d"}}

>  <type>  (2) 
r2

$$$$

     RDKit          3D

  8  7  0  0  0  0  0  0  0  0999 V2000
    0.9548    0.1194   -0.0790 C   0  0  0  0  0  0  0  0  0  0  0  0
   -0.4838   -0.2649    0.0193 C   0  0  0  0  0  0  0  0  0  0  0  0
   -0.8933   -1.1081    0.8664 N   0  0  0  0  0  0  0  0  0  0  0  0
    1.3360   -0.0983   -1.0800 H   0  0  0  0  0  0  0  0  0  0  0  0
    1.0698    1.1948    0.0786 H   0  0  0  0  0  0  0  0  0  0  0  0
    1.5426   -0.4219    0.6602 H   0  0  0  0  0  0  0  0  0  0  0  0
   -1.1575    0.2324   -0.6905 H   0  0  0  0  0  0  0  0  0  0  0  0
   -1.8989   -1.2455    0.7886 H   0  0  0  0  0  0  0  0  0  0  0  0
  1  2  1  0
  1  4  1  0
  1  5  1  0
  1  6  1  0
  2  3  2  3
  2  7  1  0
  3  8  1  0
M  END
>  <reaction>  (3) 
rmg_rxn_16700

>  <mol_properties>  (3) 
{"2": {"label": "acceptor", "atom_type": "N3d"}, "7": {"label": "a_hydrogen", "atom_type": "H0"}}

>  <type>  (3) 
r2h

$$$$

     RDKit          3D

 16 14  0  0  0  0  0  0  0  0999 V2000
    2.5312   -1.7897    0.0078 C   0  0  0  0  0  0  0  0  0  0  0  0
    1.2009   -1.1017    0.1132 C   0  0  0  0  0  0  0  0  0  0  0  0
    0.2313   -1.5610    0.7496 N   0  0  0  0  0  2  0  0  0  0  0  0
    2.7591   -1.9855   -1.0421 H   0  0  0  0  0  0  0  0  0  0  0  0
    2.5291   -2.7261    0.5618 H   0  0  0  0  0  0  0  0  0  0  0  0
    3.3147   -1.1355    0.3960 H   0  0  0  0  0  0  0  0  0  0  0  0
    1.1128   -0.1348   -0.4147 H   0  0  0  0  0  0  0  0  0  0  0  0
   -1.6805   -0.0141   -1.1041 O   0  0  0  0  0  0  0  0  0  0  0  0
   -1.5208    0.1313    0.2720 N   0  0  0  0  0  0  0  0  0  0  0  0
   -0.8993    1.3233    0.5593 C   0  0  0  0  0  0  0  0  0  0  0  0
   -0.6369    2.3282   -0.2845 C   0  0  0  0  0  0  0  0  0  0  0  0
   -2.3913   -0.6545   -1.1833 H   0  0  0  0  0  0  0  0  0  0  0  0
   -0.8210   -0.7620    0.6392 H   0  0  0  0  0  0  0  0  0  0  0  0
   -0.6332    1.3832    1.6090 H   0  0  0  0  0  0  0  0  0  0  0  0
   -0.9057    2.2758   -1.3292 H   0  0  0  0  0  0  0  0  0  0  0  0
   -0.1829    3.2345    0.0890 H   0  0  0  0  0  0  0  0  0  0  0  0
  1  2  1  0
  1  4  1  0
  1  5  1  0
  1  6  1  0
  2  3  2  0
  2  7  1  0
  8  9  1  0
  8 12  1  0
  9 10  1  0
  9 13  1  0
 10 11  2  3
 10 14  1  0
 11 15  1  0
 11 16  1  0
M  RAD  1   3   2
M  END
>  <reaction>  (4) 
rmg_rxn_16700

>  <mol_properties>  (4) 
{"1": {"label": "*4", "atom_type": "Cd"}, "2": {"label": "*3", "atom_type": "N3d"}, "8": {"label": "*1", "atom_type": "N3s"}, "9": {"label": "*0", "atom_type": "Cd"}, "12": {"label": "*2", "atom_type": "H0"}}

>  <type>  (4) 
ts

$$$$
