
     RDKit          3D

  8  7  0  0  0  0  0  0  0  0999 V2000
    0.9548    0.1194   -0.0790 C   0  0  0  0  0  0  0  0  0  0  0  0
   -0.4838   -0.2649    0.0193 C   0  0  0  0  0  0  0  0  0  0  0  0
   -0.8933   -1.1081    0.8664 N   0  0  0  0  0  0  0  0  0  0  0  0
    1.3360   -0.0983   -1.0800 H   0  0  0  0  0  0  0  0  0  0  0  0
    1.0698    1.1948    0.0786 H   0  0  0  0  0  0  0  0  0  0  0  0
    1.5426   -0.4219    0.6602 H   0  0  0  0  0  0  0  0  0  0  0  0
   -1.1575    0.2324   -0.6905 H   0  0  0  0  0  0  0  0  0  0  0  0
   -1.8989   -1.2455    0.7886 H   0  0  0  0  0  0  0  0  0  0  0  0
  1  2  1  0
  1  4  1  0
  1  5  1  0
  1  6  1  0
  2  3  2  3
  2  7  1  0
  3  8  1  0
M  END
>  <reaction>  (1) 
rmg_rxn_16531

>  <mol_properties>  (1) 
{"2": {"label": "donator", "atom_type": "N3d"}, "7": {"label": "d_hydrogen", "atom_type": "H0"}}

>  <type>  (1) 
r1h

$$$$

     RDKit          3D

 14 13  0  0  0  0  0  0  0  0999 V2000
   -2.2399   -0.0166   -0.1883 C   0  0  0  0  0  0  0  0  0  0  0  0
   -1.3469   -1.1905   -0.0279 C   0  0  0  0  0  3  0  0  0  0  0  0
   -1.6654   -2.2692    0.9493 C   0  0  0  0  0  0  0  0  0  0  0  0
   -2.0490   -1.7958    2.2240 O   0  0  0  0  0  0  0  0  0  0  0  0
   -0.9990   -1.1771    2.9198 C   0  0  0  0  0  0  0  0  0  0  0  0
   -2.6700    0.2862    0.7685 H   0  0  0  0  0  0  0  0  0  0  0  0
   -3.0850   -0.2450   -0.8547 H   0  0  0  0  0  0  0  0  0  0  0  0
   -1.7143    0.8346   -0.6240 H   0  0  0  0  0  0  0  0  0  0  0  0
   -0.5797   -1.3809   -0.7686 H   0  0  0  0  0  0  0  0  0  0  0  0
   -2.5244   -2.8609    0.6038 H   0  0  0  0  0  0  0  0  0  0  0  0
   -0.8142   -2.9586    1.0411 H   0  0  0  0  0  0  0  0  0  0  0  0
   -0.6226   -0.2923    2.3915 H   0  0  0  0  0  0  0  0  0  0  0  0
   -1.3883   -0.8732    3.8905 H   0  0  0  0  0  0  0  0  0  0  0  0
   -0.1599   -1.8693    3.0725 H   0  0  0  0  0  0  0  0  0  0  0  0
  1  2  1  0
  1  6  1  0
  1  7  1  0
  1  8  1  0
  2  3  1  0
  2  9  1  0
  3  4  1  0
  3 10  1  0
  3 11  1  0
  4  5  1  0
  5 12  1  0
  5 13  1  0
  5 14  1  0
M  RAD  1   2   2
M  END
>  <reaction>  (2) 
rmg_rxn_16531

>  <mol_properties>  (2) 
{"1": {"label": "acceptor", "atom_type": "Cs"}}

>  <type>  (2) 
r2

$$$$

     RDKit          3D

 15 14  0  0  0  0  0  0  0  0999 V2000
   -1.2811   -0.4129    1.0228 C   0  0  0  0  0  0  0  0  0  0  0  0
   -1.0023   -0.5809   -0.4650 C   0  0  0  0  0  0  0  0  0  0  0  0
   -2.0576    0.0568   -1.3449 C   0  0  0  0  0  0  0  0  0  0  0  0
   -2.0663    1.4464   -1.1307 O   0  0  0  0  0  0  0  0  0  0  0  0
   -3.0424    2.1072   -1.8849 C   0  0  0  0  0  0  0  0  0  0  0  0
   -2.2382   -0.8657    1.2935 H   0  0  0  0  0  0  0  0  0  0  0  0
   -1.3219    0.6426    1.2914 H   0  0  0  0  0  0  0  0  0  0  0  0
   -0.5042   -0.8881    1.6236 H   0  0  0  0  0  0  0  0  0  0  0  0
   -0.0316   -0.1460   -0.7167 H   0  0  0  0  0  0  0  0  0  0  0  0
   -0.9494   -1.6429   -0.7203 H   0  0  0  0  0  0  0  0  0  0  0  0
   -1.8518   -0.1570   -2.4041 H   0  0  0  0  0  0  0  0  0  0  0  0
   -3.0491   -0.3636   -1.1124 H   0  0  0  0  0  0  0  0  0  0  0  0
   -4.0521    1.7545   -1.6343 H   0  0  0  0  0  0  0  0  0  0  0  0
   -2.8850    1.9634   -2.9626 H   0  0  0  0  0  0  0  0  0  0  0  0
   -2.9730    3.1700   -1.6570 H   0  0  0  0  0  0  0  0  0  0  0  0
  1  2  1  0
  1  6  1  0
  1  7  1  0
  1  8  1  0
  2  3  1  0
  2  9  1  0
  2 10  1  0
  3  4  1  0
  3 11  1  0
  3 12  1  0
  4  5  1  0
  5 13  1  0
  5 14  1  0
  5 15  1  0
M  END
>  <reaction>  (3) 
rmg_rxn_16531

>  <mol_properties>  (3) 
{"0": {"label": "a_hydrogen", "atom_type": "H0"}, "2": {"label": "acceptor", "atom_type": "Cs"}}

>  <type>  (3) 
r2h

$$$$

     RDKit          3D

 22 20  0  0  0  0  0  0  0  0999 V2000
   -0.6667   -0.7763   -3.2408 C   0  0  0  0  0  0  0  0  0  0  0  0
   -0.6410   -0.6295   -1.7493 C   0  0  0  0  0  0  0  0  0  0  0  0
   -1.6887   -0.4394   -1.0809 N   0  0  0  0  0  0  0  0  0  0  0  0
   -0.0443   -0.0051   -3.7008 H   0  0  0  0  0  0  0  0  0  0  0  0
   -0.2467   -1.7437   -3.5266 H   0  0  0  0  0  0  0  0  0  0  0  0
   -1.6840   -0.6960   -3.6197 H   0  0  0  0  0  0  0  0  0  0  0  0
    0.3428   -0.6866   -1.2692 H   0  0  0  0  0  0  0  0  0  0  0  0
   -1.3800   -0.3697    0.1050 H   0  0  0  0  0  0  0  0  0  0  0  0
   -0.3432   -1.7066    1.6774 C   0  0  0  0  0  0  0  0  0  0  0  0
   -0.9171   -0.3455    1.3966 C   0  0  0  0  0  3  0  0  0  0  0  0
    0.0153    0.8234    1.5063 C   0  0  0  0  0  0  0  0  0  0  0  0
    1.1689    0.5987    0.7305 O   0  0  0  0  0  0  0  0  0  0  0  0
    2.0835    1.6570    0.7990 C   0  0  0  0  0  0  0  0  0  0  0  0
    0.5248   -1.9055    1.0480 H   0  0  0  0  0  0  0  0  0  0  0  0
   -1.0846   -2.4864    1.5004 H   0  0  0  0  0  0  0  0  0  0  0  0
   -0.0148   -1.7873    2.7206 H   0  0  0  0  0  0  0  0  0  0  0  0
   -1.8599   -0.1476    1.9072 H   0  0  0  0  0  0  0  0  0  0  0  0
   -0.4898    1.7423    1.1755 H   0  0  0  0  0  0  0  0  0  0  0  0
    0.3083    0.9767    2.5608 H   0  0  0  0  0  0  0  0  0  0  0  0
    2.4294    1.8221    1.8280 H   0  0  0  0  0  0  0  0  0  0  0  0
    2.9385    1.3952    0.1770 H   0  0  0  0  0  0  0  0  0  0  0  0
    1.6446    2.5922    0.4273 H   0  0  0  0  0  0  0  0  0  0  0  0
  1  2  1  0
  1  4  1  0
  1  5  1  0
  1  6  1  0
  2  3  2  3
  2  7  1  0
  3  8  1  0
  9 10  1  0
  9 14  1  0
  9 15  1  0
  9 16  1  0
 10 11  1  0
 10 17  1  0
 11 12  1  0
 11 18  1  0
 11 19  1  0
 12 13  1  0
 13 20  1  0
 13 21  1  0
 13 22  1  0
M  RAD  1  10   2
M  END
>  <reaction>  (4) 
rmg_rxn_16531

>  <mol_properties>  (4) 
{"1": {"label": "*0", "atom_type": "Cd"}, "2": {"label": "*1", "atom_type": "N3d"}, "7": {"label": "*2", "atom_type": "H0"}, "9": {"label": "*3", "atom_type": "Cs"}, "10": {"label": "*4", "atom_type": "Cs"}}

>  <type>  (4) 
ts

$$$$
