
     RDKit          3D

 15 14  0  0  0  0  0  0  0  0999 V2000
   -2.0554    0.0723   -0.4910 C   0  0  0  0  0  0  0  0  0  0  0  0
   -0.7461   -0.6266   -0.8178 C   0  0  0  0  0  0  0  0  0  0  0  0
    0.3249    0.2591   -1.9782 S   0  0  0  0  0  0  0  0  0  0  0  0
   -0.7172    0.3642   -3.4551 C   0  0  0  0  0  0  0  0  0  0  0  0
   -1.1375   -0.9737   -4.0409 C   0  0  0  0  0  0  0  0  0  0  0  0
   -2.7005    0.1427   -1.3684 H   0  0  0  0  0  0  0  0  0  0  0  0
   -2.6016   -0.4848    0.2733 H   0  0  0  0  0  0  0  0  0  0  0  0
   -1.8758    1.0825   -0.1213 H   0  0  0  0  0  0  0  0  0  0  0  0
   -0.1320   -0.7246    0.0789 H   0  0  0  0  0  0  0  0  0  0  0  0
   -0.9254   -1.6374   -1.1879 H   0  0  0  0  0  0  0  0  0  0  0  0
   -1.5873    0.9874   -3.2422 H   0  0  0  0  0  0  0  0  0  0  0  0
   -0.1021    0.9161   -4.1678 H   0  0  0  0  0  0  0  0  0  0  0  0
   -1.7876   -1.5224   -3.3574 H   0  0  0  0  0  0  0  0  0  0  0  0
   -0.2676   -1.5962   -4.2534 H   0  0  0  0  0  0  0  0  0  0  0  0
   -1.6916   -0.8229   -4.9700 H   0  0  0  0  0  0  0  0  0  0  0  0
  1  2  1  0
  1  6  1  0
  1  7  1  0
  1  8  1  0
  2  3  1  0
  2  9  1  0
  2 10  1  0
  3  4  1  0
  4  5  1  0
  4 11  1  0
  4 12  1  0
  5 13  1  0
  5 14  1  0
  5 15  1  0
M  END
>  <reaction>  (1) 
rmg_rxn_499

>  <mol_properties>  (1) 
{"0": {"label": "donator", "atom_type": "Cs"}, "5": {"label": "d_hydrogen", "atom_type": "H0"}}

>  <type>  (1) 
r1h

$$$$

     RDKit          3D

 10  9  0  0  0  0  0  0  0  0999 V2000
    1.4352    0.2660   -0.1351 C   0  0  0  0  0  3  0  0  0  0  0  0
    0.2236   -0.3243    0.4850 C   0  0  0  0  0  0  0  0  0  0  0  0
   -0.8893    0.6872    0.7364 C   0  0  0  0  0  0  0  0  0  0  0  0
    2.3577   -0.2958   -0.1940 H   0  0  0  0  0  0  0  0  0  0  0  0
    1.3935    1.2286   -0.6287 H   0  0  0  0  0  0  0  0  0  0  0  0
   -0.1633   -1.1318   -0.1556 H   0  0  0  0  0  0  0  0  0  0  0  0
    0.4945   -0.8215    1.4240 H   0  0  0  0  0  0  0  0  0  0  0  0
   -1.1991    1.1627   -0.1967 H   0  0  0  0  0  0  0  0  0  0  0  0
   -1.7660    0.2103    1.1768 H   0  0  0  0  0  0  0  0  0  0  0  0
   -0.5545    1.4732    1.4159 H   0  0  0  0  0  0  0  0  0  0  0  0
  1  2  1  0
  1  4  1  0
  1  5  1  0
  2  3  1  0
  2  6  1  0
  2  7  1  0
  3  8  1  0
  3  9  1  0
  3 10  1  0
M  RAD  1   1   2
M  END
>  <reaction>  (2) 
rmg_rxn_499

>  <mol_properties>  (2) 
{"0": {"label": "acceptor", "atom_type": "Cs"}}

>  <type>  (2) 
r2

$$$$

     RDKit          3D

 11 10  0  0  0  0  0  0  0  0999 V2000
   -1.2710    0.1907   -0.2084 C   0  0  0  0  0  0  0  0  0  0  0  0
    0.0202   -0.6130   -0.2928 C   0  0  0  0  0  0  0  0  0  0  0  0
    0.1086   -1.6953    0.7756 C   0  0  0  0  0  0  0  0  0  0  0  0
   -1.3607    0.6851    0.7620 H   0  0  0  0  0  0  0  0  0  0  0  0
   -2.1429   -0.4567   -0.3299 H   0  0  0  0  0  0  0  0  0  0  0  0
   -1.3158    0.9602   -0.9809 H   0  0  0  0  0  0  0  0  0  0  0  0
    0.8757    0.0616   -0.1992 H   0  0  0  0  0  0  0  0  0  0  0  0
    0.0997   -1.0712   -1.2825 H   0  0  0  0  0  0  0  0  0  0  0  0
   -0.7198   -2.4022    0.6850 H   0  0  0  0  0  0  0  0  0  0  0  0
    1.0395   -2.2596    0.6989 H   0  0  0  0  0  0  0  0  0  0  0  0
    0.0624   -1.2603    1.7770 H   0  0  0  0  0  0  0  0  0  0  0  0
  1  2  1  0
  1  4  1  0
  1  5  1  0
  1  6  1  0
  2  3  1  0
  2  7  1  0
  2  8  1  0
  3  9  1  0
  3 10  1  0
  3 11  1  0
M  END
>  <reaction>  (3) 
rmg_rxn_499

>  <mol_properties>  (3) 
{"0": {"label": "acceptor", "atom_type": "Cs"}, "10": {"label": "a_hydrogen", "atom_type": "H0"}}

>  <type>  (3) 
r2h

$$$$

     RDKit          3D

 25 23  0  0  0  0  0  0  0  0999 V2000
    1.6336   -0.8128   -1.4108 C   0  0  0  0  0  0  0  0  0  0  0  0
    2.7933   -1.3750   -0.6293 C   0  0  0  0  0  0  0  0  0  0  0  0
    2.3958   -1.8620    0.7588 C   0  0  0  0  0  0  0  0  0  0  0  0
    1.8871   -0.4476   -2.4047 H   0  0  0  0  0  0  0  0  0  0  0  0
    0.7499   -1.4497   -1.4336 H   0  0  0  0  0  0  0  0  0  0  0  0
    3.2457   -2.2031   -1.1875 H   0  0  0  0  0  0  0  0  0  0  0  0
    3.5738   -0.6127   -0.5416 H   0  0  0  0  0  0  0  0  0  0  0  0
    1.6386   -2.6473    0.6935 H   0  0  0  0  0  0  0  0  0  0  0  0
    3.2520   -2.2685    1.2989 H   0  0  0  0  0  0  0  0  0  0  0  0
    1.9790   -1.0481    1.3562 H   0  0  0  0  0  0  0  0  0  0  0  0
    1.0793    1.5077   -0.1728 C   0  0  0  0  0  3  0  0  0  0  0  0
   -0.3764    1.8908   -0.1718 C   0  0  0  0  0  0  0  0  0  0  0  0
   -1.3966    1.1046    1.0988 S   0  0  0  0  0  0  0  0  0  0  0  0
   -1.3639   -0.6364    0.6074 C   0  0  0  0  0  0  0  0  0  0  0  0
   -2.0153   -0.9346   -0.7321 C   0  0  0  0  0  0  0  0  0  0  0  0
    1.2565    0.3034   -0.7659 H   0  0  0  0  0  0  0  0  0  0  0  0
    1.6893    2.1410   -0.8173 H   0  0  0  0  0  0  0  0  0  0  0  0
    1.5162    1.3972    0.8179 H   0  0  0  0  0  0  0  0  0  0  0  0
   -0.4884    2.9579    0.0452 H   0  0  0  0  0  0  0  0  0  0  0  0
   -0.8243    1.7343   -1.1560 H   0  0  0  0  0  0  0  0  0  0  0  0
   -0.3350   -0.9952    0.6312 H   0  0  0  0  0  0  0  0  0  0  0  0
   -1.8963   -1.1457    1.4125 H   0  0  0  0  0  0  0  0  0  0  0  0
   -1.4881   -0.4412   -1.5500 H   0  0  0  0  0  0  0  0  0  0  0  0
   -3.0523   -0.5977   -0.7454 H   0  0  0  0  0  0  0  0  0  0  0  0
   -1.9973   -2.0088   -0.9316 H   0  0  0  0  0  0  0  0  0  0  0  0
  1  2  1  0
  1  4  1  0
  1  5  1  0
  1 16  1  0
  2  3  1  0
  2  6  1  0
  2  7  1  0
  3  8  1  0
  3  9  1  0
  3 10  1  0
 11 12  1  0
 11 17  1  0
 11 18  1  0
 12 13  1  0
 12 19  1  0
 12 20  1  0
 13 14  1  0
 14 15  1  0
 14 21  1  0
 14 22  1  0
 15 23  1  0
 15 24  1  0
 15 25  1  0
M  RAD  1  11   2
M  END
>  <reaction>  (4) 
rmg_rxn_499

>  <mol_properties>  (4) 
{"0": {"label": "*1", "atom_type": "Cs"}, "1": {"label": "*0", "atom_type": "Cs"}, "10": {"label": "*3", "atom_type": "Cs"}, "11": {"label": "*4", "atom_type": "Cs"}, "15": {"label": "*2", "atom_type": "H0"}}

>  <type>  (4) 
ts

$$$$
