
     RDKit          3D

  8  7  0  0  0  0  0  0  0  0999 V2000
    0.9548    0.1194   -0.0790 C   0  0  0  0  0  0  0  0  0  0  0  0
   -0.4838   -0.2649    0.0193 C   0  0  0  0  0  0  0  0  0  0  0  0
   -0.8933   -1.1081    0.8664 N   0  0  0  0  0  0  0  0  0  0  0  0
    1.3360   -0.0983   -1.0800 H   0  0  0  0  0  0  0  0  0  0  0  0
    1.0698    1.1948    0.0786 H   0  0  0  0  0  0  0  0  0  0  0  0
    1.5426   -0.4219    0.6602 H   0  0  0  0  0  0  0  0  0  0  0  0
   -1.1575    0.2324   -0.6905 H   0  0  0  0  0  0  0  0  0  0  0  0
   -1.8989   -1.2455    0.7886 H   0  0  0  0  0  0  0  0  0  0  0  0
  1  2  1  0
  1  4  1  0
  1  5  1  0
  1  6  1  0
  2  3  2  3
  2  7  1  0
  3  8  1  0
M  END
>  <reaction>  (1) 
rmg_rxn_16498

>  <mol_properties>  (1) 
{"2": {"label": "donator", "atom_type": "N3d"}, "7": {"label": "d_hydrogen", "atom_type": "H0"}}

>  <type>  (1) 
r1h

$$$$

     RDKit          3D

  8  7  0  0  0  0  0  0  0  0999 V2000
   -0.9782    0.4241    0.0826 C   0  0  0  0  0  3  0  0  0  0  0  0
    0.0504   -0.5484   -0.3049 C   0  0  0  0  0  0  0  0  0  0  0  0
    1.5829   -0.3827    0.7251 S   0  0  0  0  0  0  0  0  0  0  0  0
   -1.0358    1.3853   -0.4103 H   0  0  0  0  0  0  0  0  0  0  0  0
   -1.5488    0.2794    0.9896 H   0  0  0  0  0  0  0  0  0  0  0  0
    0.3373   -0.4650   -1.3511 H   0  0  0  0  0  0  0  0  0  0  0  0
   -0.2617   -1.5762   -0.1147 H   0  0  0  0  0  0  0  0  0  0  0  0
    1.8538    0.8835    0.3837 H   0  0  0  0  0  0  0  0  0  0  0  0
  1  2  1  0
  1  4  1  0
  1  5  1  0
  2  3  1  0
  2  6  1  0
  2  7  1  0
  3  8  1  0
M  RAD  1   1   2
M  END
>  <reaction>  (2) 
rmg_rxn_16498

>  <mol_properties>  (2) 
{"0": {"label": "acceptor", "atom_type": "Cs"}}

>  <type>  (2) 
r2

$$$$

     RDKit          3D

  9  8  0  0  0  0  0  0  0  0999 V2000
   -0.8818   -0.3578    0.1297 C   0  0  0  0  0  0  0  0  0  0  0  0
    0.6153   -0.3021   -0.1188 C   0  0  0  0  0  0  0  0  0  0  0  0
    1.5354   -1.7170    0.5545 S   0  0  0  0  0  0  0  0  0  0  0  0
   -1.1018   -0.3317    1.1984 H   0  0  0  0  0  0  0  0  0  0  0  0
   -1.3114   -1.2723   -0.2799 H   0  0  0  0  0  0  0  0  0  0  0  0
   -1.3767    0.4976   -0.3363 H   0  0  0  0  0  0  0  0  0  0  0  0
    1.0467    0.6194    0.2718 H   0  0  0  0  0  0  0  0  0  0  0  0
    0.8295   -0.3275   -1.1882 H   0  0  0  0  0  0  0  0  0  0  0  0
    1.2306   -1.5077    1.8423 H   0  0  0  0  0  0  0  0  0  0  0  0
  1  2  1  0
  1  4  1  0
  1  5  1  0
  1  6  1  0
  2  3  1  0
  2  7  1  0
  2  8  1  0
  3  9  1  0
M  END
>  <reaction>  (3) 
rmg_rxn_16498

>  <mol_properties>  (3) 
{"0": {"label": "acceptor", "atom_type": "Cs"}, "8": {"label": "a_hydrogen", "atom_type": "H0"}}

>  <type>  (3) 
r2h

$$$$

     RDKit          3D

 16 14  0  0  0  0  0  0  0  0999 V2000
    0.3013   -0.6576   -0.6205 C   0  0  0  0  0  3  0  0  0  0  0  0
    0.9005   -0.0329    0.5980 C   0  0  0  0  0  0  0  0  0  0  0  0
    2.6506    0.4562    0.3758 S   0  0  0  0  0  0  0  0  0  0  0  0
    0.2651   -0.0185   -1.4998 H   0  0  0  0  0  0  0  0  0  0  0  0
    0.6651   -1.6571   -0.8519 H   0  0  0  0  0  0  0  0  0  0  0  0
    0.8243   -0.6896    1.4633 H   0  0  0  0  0  0  0  0  0  0  0  0
    0.3985    0.9021    0.8525 H   0  0  0  0  0  0  0  0  0  0  0  0
    3.1264   -0.7743    0.1444 H   0  0  0  0  0  0  0  0  0  0  0  0
   -2.5341    1.2354   -0.3297 C   0  0  0  0  0  0  0  0  0  0  0  0
   -2.8794   -0.1741    0.0557 C   0  0  0  0  0  0  0  0  0  0  0  0
   -2.1577   -1.2011    0.0650 N   0  0  0  0  0  0  0  0  0  0  0  0
   -1.5102    1.3245   -0.6848 H   0  0  0  0  0  0  0  0  0  0  0  0
   -3.2144    1.5781   -1.1122 H   0  0  0  0  0  0  0  0  0  0  0  0
   -2.6771    1.8949    0.5294 H   0  0  0  0  0  0  0  0  0  0  0  0
   -3.9193   -0.3200    0.3771 H   0  0  0  0  0  0  0  0  0  0  0  0
   -1.0173   -0.9544   -0.2927 H   0  0  0  0  0  0  0  0  0  0  0  0
  1  2  1  0
  1  4  1  0
  1  5  1  0
  2  3  1  0
  2  6  1  0
  2  7  1  0
  3  8  1  0
  9 10  1  0
  9 12  1  0
  9 13  1  0
  9 14  1  0
 10 11  2  3
 10 15  1  0
 11 16  1  0
M  RAD  1   1   2
M  END
>  <reaction>  (4) 
rmg_rxn_16498

>  <mol_properties>  (4) 
{"0": {"label": "*3", "atom_type": "Cs"}, "1": {"label": "*4", "atom_type": "Cs"}, "9": {"label": "*0", "atom_type": "Cd"}, "10": {"label": "*1", "atom_type": "N3d"}, "15": {"label": "*2", "atom_type": "H0"}}

>  <type>  (4) 
ts

$$$$
