
     RDKit          3D

 21 21  0  0  0  0  0  0  0  0999 V2000
    3.6784    0.0079   -0.5979 C   0  0  0  0  0  0  0  0  0  0  0  0
    2.4753    0.0210    0.2878 C   0  0  0  0  0  0  0  0  0  0  0  0
    1.2116   -0.0071   -0.1659 C   0  0  0  0  0  0  0  0  0  0  0  0
   -0.0159    0.0070    0.7205 C   0  0  0  0  0  0  0  0  0  0  0  0
   -0.8042    1.2711    0.4638 C   0  0  0  0  0  0  0  0  0  0  0  0
   -1.9876    1.2745   -0.1672 C   0  0  0  0  0  0  0  0  0  0  0  0
   -2.5805    0.0557   -0.6569 C   0  0  0  0  0  0  0  0  0  0  0  0
   -2.0719   -1.1425   -0.3384 C   0  0  0  0  0  0  0  0  0  0  0  0
   -0.8487   -1.2916    0.5284 C   0  0  0  0  0  0  0  0  0  0  0  0
    3.4116   -0.0282   -1.6588 H   0  0  0  0  0  0  0  0  0  0  0  0
    4.2765    0.9081   -0.4267 H   0  0  0  0  0  0  0  0  0  0  0  0
    4.2978   -0.8653   -0.3717 H   0  0  0  0  0  0  0  0  0  0  0  0
    2.6666    0.0582    1.3579 H   0  0  0  0  0  0  0  0  0  0  0  0
    1.0252   -0.0423   -1.2386 H   0  0  0  0  0  0  0  0  0  0  0  0
    0.3057    0.0287    1.7709 H   0  0  0  0  0  0  0  0  0  0  0  0
   -0.3713    2.2085    0.8020 H   0  0  0  0  0  0  0  0  0  0  0  0
   -2.5206    2.2043   -0.3430 H   0  0  0  0  0  0  0  0  0  0  0  0
   -3.4694    0.1368   -1.2756 H   0  0  0  0  0  0  0  0  0  0  0  0
   -2.5521   -2.0487   -0.6952 H   0  0  0  0  0  0  0  0  0  0  0  0
   -0.2213   -2.0946    0.1212 H   0  0  0  0  0  0  0  0  0  0  0  0
   -1.1884   -1.6420    1.5122 H   0  0  0  0  0  0  0  0  0  0  0  0
  1  2  1  0
  1 10  1  0
  1 11  1  0
  1 12  1  0
  2  3  2  3
  2 13  1  0
  3  4  1  0
  3 14  1  0
  4  5  1  0
  4  9  1  0
  4 15  1  0
  5  6  2  0
  5 16  1  0
  6  7  1  0
  6 17  1  0
  7  8  2  0
  7 18  1  0
  8  9  1  0
  8 19  1  0
  9 20  1  0
  9 21  1  0
M  END
>  <reaction>  (1) 
rmg_rxn_16800

>  <mol_properties>  (1) 
{"8": {"label": "donator", "atom_type": "Cs"}, "19": {"label": "d_hydrogen", "atom_type": "H0"}}

>  <type>  (1) 
r1h

$$$$

     RDKit          3D

  7  6  0  0  0  0  0  0  0  0999 V2000
   -1.2010    0.1038   -0.0002 C   0  0  0  0  0  0  0  0  0  0  0  0
    0.1886   -0.4250   -0.0003 C   0  0  0  0  0  3  0  0  0  0  0  0
    1.3309    0.0272    0.0001 N   0  0  0  0  0  0  0  0  0  0  0  0
   -1.7355   -0.2512    0.8930 H   0  0  0  0  0  0  0  0  0  0  0  0
   -1.2181    1.2094   -0.0132 H   0  0  0  0  0  0  0  0  0  0  0  0
   -1.7468   -0.2736   -0.8772 H   0  0  0  0  0  0  0  0  0  0  0  0
    1.4589    1.0518   -0.0003 H   0  0  0  0  0  0  0  0  0  0  0  0
  1  2  1  0
  1  4  1  0
  1  5  1  0
  1  6  1  0
  2  3  2  3
  3  7  1  0
M  RAD  1   2   2
M  END
>  <reaction>  (2) 
rmg_rxn_16800

>  <mol_properties>  (2) 
{"1": {"label": "acceptor", "atom_type": "Cd"}}

>  <type>  (2) 
r2

$$$$

     RDKit          3D

  8  7  0  0  0  0  0  0  0  0999 V2000
    1.2099   -0.1388    0.0025 C   0  0  0  0  0  0  0  0  0  0  0  0
   -0.1788    0.4141    0.0007 C   0  0  0  0  0  0  0  0  0  0  0  0
   -1.2100   -0.3603    0.0013 N   0  0  0  0  0  0  0  0  0  0  0  0
    1.7355    0.2223   -0.8851 H   0  0  0  0  0  0  0  0  0  0  0  0
    1.7521    0.1663    0.9007 H   0  0  0  0  0  0  0  0  0  0  0  0
    1.1564   -1.2296   -0.0424 H   0  0  0  0  0  0  0  0  0  0  0  0
   -0.2911    1.5112   -0.0010 H   0  0  0  0  0  0  0  0  0  0  0  0
   -2.0699    0.2005   -0.0002 H   0  0  0  0  0  0  0  0  0  0  0  0
  1  2  1  0
  1  4  1  0
  1  5  1  0
  1  6  1  0
  2  3  2  3
  2  7  1  0
  3  8  1  0
M  END
>  <reaction>  (3) 
rmg_rxn_16800

>  <mol_properties>  (3) 
{"1": {"label": "acceptor", "atom_type": "Cd"}, "7": {"label": "a_hydrogen", "atom_type": "H0"}}

>  <type>  (3) 
r2h

$$$$

     RDKit          3D

 28 27  0  0  0  0  0  0  0  0999 V2000
   -2.1243   -1.7161    1.3014 C   0  0  0  0  0  0  0  0  0  0  0  0
   -1.8103   -1.4909   -0.1424 C   0  0  0  0  0  3  0  0  0  0  0  0
   -2.2949   -2.2541   -1.0621 N   0  0  0  0  0  0  0  0  0  0  0  0
   -2.6469   -0.8564    1.7276 H   0  0  0  0  0  0  0  0  0  0  0  0
   -2.7487   -2.6085    1.3926 H   0  0  0  0  0  0  0  0  0  0  0  0
   -1.1909   -1.8855    1.8442 H   0  0  0  0  0  0  0  0  0  0  0  0
   -1.9681   -1.9431   -1.9843 H   0  0  0  0  0  0  0  0  0  0  0  0
   -2.2058    2.8683    0.5001 C   0  0  0  0  0  0  0  0  0  0  0  0
   -1.1552    2.2365   -0.3539 C   0  0  0  0  0  0  0  0  0  0  0  0
   -0.2368    1.3715    0.1065 C   0  0  0  0  0  0  0  0  0  0  0  0
    0.8336    0.7255   -0.7476 C   0  0  0  0  0  0  0  0  0  0  0  0
    2.1950    1.1790   -0.2717 C   0  0  0  0  0  0  0  0  0  0  0  0
    3.0494    0.3668    0.3676 C   0  0  0  0  0  0  0  0  0  0  0  0
    2.7096   -1.0039    0.6547 C   0  0  0  0  0  0  0  0  0  0  0  0
    1.6143   -1.5734    0.1331 C   0  0  0  0  0  0  0  0  0  0  0  0
    0.6666   -0.8200   -0.7637 C   0  0  0  0  0  0  0  0  0  0  0  0
   -2.1417    2.5445    1.5437 H   0  0  0  0  0  0  0  0  0  0  0  0
   -2.1020    3.9573    0.4735 H   0  0  0  0  0  0  0  0  0  0  0  0
   -3.1991    2.6076    0.1222 H   0  0  0  0  0  0  0  0  0  0  0  0
   -1.1587    2.5152   -1.4052 H   0  0  0  0  0  0  0  0  0  0  0  0
   -0.2363    1.0971    1.1607 H   0  0  0  0  0  0  0  0  0  0  0  0
    0.7165    1.0711   -1.7839 H   0  0  0  0  0  0  0  0  0  0  0  0
    2.4700    2.2141   -0.4544 H   0  0  0  0  0  0  0  0  0  0  0  0
    4.0157    0.7310    0.7040 H   0  0  0  0  0  0  0  0  0  0  0  0
    3.3829   -1.5711    1.2908 H   0  0  0  0  0  0  0  0  0  0  0  0
    1.3934   -2.6161    0.3399 H   0  0  0  0  0  0  0  0  0  0  0  0
   -0.5688   -1.1546   -0.4538 H   0  0  0  0  0  0  0  0  0  0  0  0
    0.8309   -1.1823   -1.7873 H   0  0  0  0  0  0  0  0  0  0  0  0
  1  2  1  0
  1  4  1  0
  1  5  1  0
  1  6  1  0
  2  3  2  3
  3  7  1  0
  8  9  1  0
  8 17  1  0
  8 18  1  0
  8 19  1  0
  9 10  2  3
  9 20  1  0
 10 11  1  0
 10 21  1  0
 11 12  1  0
 11 16  1  0
 11 22  1  0
 12 13  2  0
 12 23  1  0
 13 14  1  0
 13 24  1  0
 14 15  2  0
 14 25  1  0
 15 16  1  0
 15 26  1  0
 16 27  1  0
 16 28  1  0
M  RAD  1   2   2
M  END
>  <reaction>  (4) 
rmg_rxn_16800

>  <mol_properties>  (4) 
{"1": {"label": "*3", "atom_type": "Cd"}, "2": {"label": "*4", "atom_type": "N3d"}, "10": {"label": "*0", "atom_type": "Cs"}, "15": {"label": "*1", "atom_type": "Cs"}, "26": {"label": "*2", "atom_type": "H0"}}

>  <type>  (4) 
ts

$$$$
