
     RDKit          3D

  5  4  0  0  0  0  0  0  0  0999 V2000
   -0.4583    0.0384    0.1517 N   0  0  0  0  0  0  0  0  0  0  0  0
    0.7454   -0.3487    0.5322 N   0  0  0  0  0  0  0  0  0  0  0  0
    0.7566   -1.0388    1.5193 O   0  0  0  0  0  0  0  0  0  0  0  0
   -1.2688   -0.2521    0.6850 H   0  0  0  0  0  0  0  0  0  0  0  0
   -0.5137    0.6154   -0.6670 H   0  0  0  0  0  0  0  0  0  0  0  0
  1  2  1  0
  1  4  1  0
  1  5  1  0
  2  3  2  0
M  END
>  <reaction>  (1) 
rmg_rxn_1482

>  <mol_properties>  (1) 
{"0": {"label": "donator", "atom_type": "N3s"}, "3": {"label": "d_hydrogen", "atom_type": "H0"}}

>  <type>  (1) 
r1h

$$$$

     RDKit          3D

 13 13  0  0  0  0  0  0  0  0999 V2000
    0.5794    1.5990    0.2108 C   0  0  0  0  0  3  0  0  0  0  0  0
    1.4528    0.6621   -0.2496 O   0  0  0  0  0  0  0  0  0  0  0  0
    1.0751   -0.6763    0.0423 C   0  0  0  0  0  0  0  0  0  0  0  0
   -0.3579   -0.9282   -0.3924 C   0  0  0  0  0  0  0  0  0  0  0  0
   -1.2426    0.1393    0.2269 C   0  0  0  0  0  0  0  0  0  0  0  0
   -0.7410    1.4341   -0.0749 O   0  0  0  0  0  0  0  0  0  0  0  0
    0.9183    2.6078    0.0084 H   0  0  0  0  0  0  0  0  0  0  0  0
    1.1839   -0.8508    1.1199 H   0  0  0  0  0  0  0  0  0  0  0  0
    1.7816   -1.3130   -0.4874 H   0  0  0  0  0  0  0  0  0  0  0  0
   -0.6818   -1.9210   -0.0736 H   0  0  0  0  0  0  0  0  0  0  0  0
   -0.4271   -0.8785   -1.4810 H   0  0  0  0  0  0  0  0  0  0  0  0
   -1.2832    0.0173    1.3164 H   0  0  0  0  0  0  0  0  0  0  0  0
   -2.2575    0.1083   -0.1657 H   0  0  0  0  0  0  0  0  0  0  0  0
  1  2  1  0
  1  6  1  0
  1  7  1  0
  2  3  1  0
  3  4  1  0
  3  8  1  0
  3  9  1  0
  4  5  1  0
  4 10  1  0
  4 11  1  0
  5  6  1  0
  5 12  1  0
  5 13  1  0
M  RAD  1   1   2
M  END
>  <reaction>  (2) 
rmg_rxn_1482

>  <mol_properties>  (2) 
{"0": {"label": "acceptor", "atom_type": "Cs"}}

>  <type>  (2) 
r2

$$$$

     RDKit          3D

 14 14  0  0  0  0  0  0  0  0999 V2000
   -1.1778    0.2241    0.1818 C   0  0  0  0  0  0  0  0  0  0  0  0
   -0.5633   -1.1636    0.0678 C   0  0  0  0  0  0  0  0  0  0  0  0
    0.6943   -1.1996    0.7146 O   0  0  0  0  0  0  0  0  0  0  0  0
    1.5547   -0.2288    0.2011 C   0  0  0  0  0  0  0  0  0  0  0  0
    1.0729    1.0696    0.3698 O   0  0  0  0  0  0  0  0  0  0  0  0
   -0.1607    1.2493   -0.2989 C   0  0  0  0  0  0  0  0  0  0  0  0
   -2.0927    0.2866   -0.4117 H   0  0  0  0  0  0  0  0  0  0  0  0
   -1.4303    0.4248    1.2248 H   0  0  0  0  0  0  0  0  0  0  0  0
   -1.1822   -1.9235    0.5431 H   0  0  0  0  0  0  0  0  0  0  0  0
   -0.4389   -1.4347   -0.9919 H   0  0  0  0  0  0  0  0  0  0  0  0
    1.7250   -0.4207   -0.8742 H   0  0  0  0  0  0  0  0  0  0  0  0
    2.4896   -0.3010    0.7524 H   0  0  0  0  0  0  0  0  0  0  0  0
   -0.0080    1.1481   -1.3844 H   0  0  0  0  0  0  0  0  0  0  0  0
   -0.4826    2.2695   -0.0942 H   0  0  0  0  0  0  0  0  0  0  0  0
  1  2  1  0
  1  6  1  0
  1  7  1  0
  1  8  1  0
  2  3  1  0
  2  9  1  0
  2 10  1  0
  3  4  1  0
  4  5  1  0
  4 11  1  0
  4 12  1  0
  5  6  1  0
  6 13  1  0
  6 14  1  0
M  END
>  <reaction>  (3) 
rmg_rxn_1482

>  <mol_properties>  (3) 
{"0": {"label": "a_hydrogen", "atom_type": "H0"}, "1": {"label": "acceptor", "atom_type": "Cs"}}

>  <type>  (3) 
r2h

$$$$

     RDKit          3D

 18 17  0  0  0  0  0  0  0  0999 V2000
    2.0633    0.9176   -0.0038 N   0  0  0  0  0  0  0  0  0  0  0  0
    2.5985   -0.2353   -0.1067 N   0  0  0  0  0  0  0  0  0  0  0  0
    1.9086   -1.2070   -0.3400 O   0  0  0  0  0  1  0  0  0  0  0  0
    0.7226    1.0858    0.0981 H   0  0  0  0  0  0  0  0  0  0  0  0
    2.7313    1.6259    0.2776 H   0  0  0  0  0  0  0  0  0  0  0  0
   -0.5759    1.2933    0.2187 C   0  0  0  0  0  0  0  0  0  0  0  0
   -1.1476    0.9948   -0.9842 O   0  0  0  0  0  0  0  0  0  0  0  0
   -1.1829   -0.3984   -1.2868 C   0  0  0  0  0  0  0  0  0  0  0  0
   -1.7979   -1.1712   -0.1341 C   0  0  0  0  0  0  0  0  0  0  0  0
   -1.0534   -0.8116    1.1390 C   0  0  0  0  0  0  0  0  0  0  0  0
   -1.0193    0.6039    1.3107 O   0  0  0  0  0  0  0  0  0  0  0  0
   -0.6662    2.3631    0.4060 H   0  0  0  0  0  0  0  0  0  0  0  0
   -1.7634   -0.4883   -2.2026 H   0  0  0  0  0  0  0  0  0  0  0  0
   -0.1587   -0.7434   -1.4676 H   0  0  0  0  0  0  0  0  0  0  0  0
   -2.8554   -0.9180   -0.0345 H   0  0  0  0  0  0  0  0  0  0  0  0
   -1.7168   -2.2433   -0.3207 H   0  0  0  0  0  0  0  0  0  0  0  0
   -0.0249   -1.1850    1.0912 H   0  0  0  0  0  0  0  0  0  0  0  0
   -1.5401   -1.2061    2.0285 H   0  0  0  0  0  0  0  0  0  0  0  0
  1  2  2  3
  1  5  1  0
  2  3  1  0
  4  6  1  0
  6  7  1  0
  6 11  1  0
  6 12  1  0
  7  8  1  0
  8  9  1  0
  8 13  1  0
  8 14  1  0
  9 10  1  0
  9 15  1  0
  9 16  1  0
 10 11  1  0
 10 17  1  0
 10 18  1  0
M  RAD  1   3   2
M  END
>  <reaction>  (4) 
rmg_rxn_1482

>  <mol_properties>  (4) 
{"0": {"label": "*3", "atom_type": "N3d"}, "1": {"label": "*4", "atom_type": "N3d"}, "3": {"label": "*2", "atom_type": "H0"}, "5": {"label": "*1", "atom_type": "Cs"}, "6": {"label": "*0", "atom_type": "O2s"}}

>  <type>  (4) 
ts

$$$$
