
     RDKit          3D

 18 17  0  0  0  0  0  0  0  0999 V2000
    2.2026   -0.7213   -0.2612 C   0  0  0  0  0  0  0  0  0  0  0  0
    1.5384    0.2638    0.6915 C   0  0  0  0  0  0  0  0  0  0  0  0
    2.2584    1.5946    0.7694 C   0  0  0  0  0  0  0  0  0  0  0  0
    2.2212    2.2185   -0.4893 O   0  0  0  0  0  0  0  0  0  0  0  0
    2.8988    3.4488   -0.5204 C   0  0  0  0  0  0  0  0  0  0  0  0
    2.7981    4.0296   -1.9118 C   0  0  0  0  0  0  0  0  0  0  0  0
    3.2294   -0.9309    0.0486 H   0  0  0  0  0  0  0  0  0  0  0  0
    2.2338   -0.3181   -1.2734 H   0  0  0  0  0  0  0  0  0  0  0  0
    1.6610   -1.6680   -0.2875 H   0  0  0  0  0  0  0  0  0  0  0  0
    1.4990   -0.1566    1.7002 H   0  0  0  0  0  0  0  0  0  0  0  0
    0.5055    0.4455    0.3835 H   0  0  0  0  0  0  0  0  0  0  0  0
    3.3038    1.4410    1.0808 H   0  0  0  0  0  0  0  0  0  0  0  0
    1.7844    2.2410    1.5226 H   0  0  0  0  0  0  0  0  0  0  0  0
    2.4596    4.1376    0.2164 H   0  0  0  0  0  0  0  0  0  0  0  0
    3.9524    3.3035   -0.2397 H   0  0  0  0  0  0  0  0  0  0  0  0
    1.7543    4.1869   -2.1856 H   0  0  0  0  0  0  0  0  0  0  0  0
    3.2472    3.3545   -2.6411 H   0  0  0  0  0  0  0  0  0  0  0  0
    3.3178    4.9878   -1.9600 H   0  0  0  0  0  0  0  0  0  0  0  0
  1  2  1  0
  1  7  1  0
  1  8  1  0
  1  9  1  0
  2  3  1  0
  2 10  1  0
  2 11  1  0
  3  4  1  0
  3 12  1  0
  3 13  1  0
  4  5  1  0
  5  6  1  0
  5 14  1  0
  5 15  1  0
  6 16  1  0
  6 17  1  0
  6 18  1  0
M  END
>  <reaction>  (1) 
rmg_rxn_291

>  <mol_properties>  (1) 
{"4": {"label": "donator", "atom_type": "Cs"}, "13": {"label": "d_hydrogen", "atom_type": "H0"}}

>  <type>  (1) 
r1h

$$$$

     RDKit          3D

 17 16  0  0  0  0  0  0  0  0999 V2000
    2.3128   -0.1525    1.1777 C   0  0  0  0  0  3  0  0  0  0  0  0
    1.7469    0.7266    0.1254 C   0  0  0  0  0  0  0  0  0  0  0  0
    1.6374    2.1830    0.5408 C   0  0  0  0  0  0  0  0  0  0  0  0
    2.9245    2.6874    0.7877 O   0  0  0  0  0  0  0  0  0  0  0  0
    2.9227    4.0197    1.2361 C   0  0  0  0  0  0  0  0  0  0  0  0
    4.3491    4.4603    1.4693 C   0  0  0  0  0  0  0  0  0  0  0  0
    2.1393   -1.2196    1.1557 H   0  0  0  0  0  0  0  0  0  0  0  0
    3.0313    0.2400    1.8838 H   0  0  0  0  0  0  0  0  0  0  0  0
    0.7555    0.3746   -0.1764 H   0  0  0  0  0  0  0  0  0  0  0  0
    2.3678    0.6841   -0.7826 H   0  0  0  0  0  0  0  0  0  0  0  0
    1.0170    2.2718    1.4449 H   0  0  0  0  0  0  0  0  0  0  0  0
    1.1499    2.7653   -0.2546 H   0  0  0  0  0  0  0  0  0  0  0  0
    2.4379    4.6655    0.4891 H   0  0  0  0  0  0  0  0  0  0  0  0
    2.3377    4.1015    2.1638 H   0  0  0  0  0  0  0  0  0  0  0  0
    4.9261    4.3920    0.5465 H   0  0  0  0  0  0  0  0  0  0  0  0
    4.3728    5.4939    1.8180 H   0  0  0  0  0  0  0  0  0  0  0  0
    4.8260    3.8299    2.2206 H   0  0  0  0  0  0  0  0  0  0  0  0
  1  2  1  0
  1  7  1  0
  1  8  1  0
  2  3  1  0
  2  9  1  0
  2 10  1  0
  3  4  1  0
  3 11  1  0
  3 12  1  0
  4  5  1  0
  5  6  1  0
  5 13  1  0
  5 14  1  0
  6 15  1  0
  6 16  1  0
  6 17  1  0
M  RAD  1   1   2
M  END
>  <reaction>  (2) 
rmg_rxn_291

>  <mol_properties>  (2) 
{"0": {"label": "acceptor", "atom_type": "Cs"}}

>  <type>  (2) 
r2

$$$$

     RDKit          3D

 18 17  0  0  0  0  0  0  0  0999 V2000
    2.2026   -0.7213   -0.2612 C   0  0  0  0  0  0  0  0  0  0  0  0
    1.5384    0.2638    0.6915 C   0  0  0  0  0  0  0  0  0  0  0  0
    2.2584    1.5946    0.7694 C   0  0  0  0  0  0  0  0  0  0  0  0
    2.2212    2.2185   -0.4893 O   0  0  0  0  0  0  0  0  0  0  0  0
    2.8988    3.4488   -0.5204 C   0  0  0  0  0  0  0  0  0  0  0  0
    2.7981    4.0296   -1.9118 C   0  0  0  0  0  0  0  0  0  0  0  0
    3.2294   -0.9309    0.0486 H   0  0  0  0  0  0  0  0  0  0  0  0
    2.2338   -0.3181   -1.2734 H   0  0  0  0  0  0  0  0  0  0  0  0
    1.6610   -1.6680   -0.2875 H   0  0  0  0  0  0  0  0  0  0  0  0
    1.4990   -0.1566    1.7002 H   0  0  0  0  0  0  0  0  0  0  0  0
    0.5055    0.4455    0.3835 H   0  0  0  0  0  0  0  0  0  0  0  0
    3.3038    1.4410    1.0808 H   0  0  0  0  0  0  0  0  0  0  0  0
    1.7844    2.2410    1.5226 H   0  0  0  0  0  0  0  0  0  0  0  0
    2.4596    4.1376    0.2164 H   0  0  0  0  0  0  0  0  0  0  0  0
    3.9524    3.3035   -0.2397 H   0  0  0  0  0  0  0  0  0  0  0  0
    1.7543    4.1869   -2.1856 H   0  0  0  0  0  0  0  0  0  0  0  0
    3.2472    3.3545   -2.6411 H   0  0  0  0  0  0  0  0  0  0  0  0
    3.3178    4.9878   -1.9600 H   0  0  0  0  0  0  0  0  0  0  0  0
  1  2  1  0
  1  7  1  0
  1  8  1  0
  1  9  1  0
  2  3  1  0
  2 10  1  0
  2 11  1  0
  3  4  1  0
  3 12  1  0
  3 13  1  0
  4  5  1  0
  5  6  1  0
  5 14  1  0
  5 15  1  0
  6 16  1  0
  6 17  1  0
  6 18  1  0
M  END
>  <reaction>  (3) 
rmg_rxn_291

>  <mol_properties>  (3) 
{"0": {"label": "acceptor", "atom_type": "Cs"}, "17": {"label": "a_hydrogen", "atom_type": "H0"}}

>  <type>  (3) 
r2h

$$$$

     RDKit          3D

 35 33  0  0  0  0  0  0  0  0999 V2000
    2.2313    0.4466    0.2442 C   0  0  0  0  0  3  0  0  0  0  0  0
    1.5817   -0.2862    1.3939 C   0  0  0  0  0  0  0  0  0  0  0  0
    0.9553    0.6297    2.4249 C   0  0  0  0  0  0  0  0  0  0  0  0
   -0.0571    1.3962    1.8246 O   0  0  0  0  0  0  0  0  0  0  0  0
   -0.6565    2.3139    2.7032 C   0  0  0  0  0  0  0  0  0  0  0  0
   -1.7243    3.0811    1.9582 C   0  0  0  0  0  0  0  0  0  0  0  0
    2.4700    1.4920    0.4313 H   0  0  0  0  0  0  0  0  0  0  0  0
    3.0572   -0.0804   -0.2292 H   0  0  0  0  0  0  0  0  0  0  0  0
    2.3139   -0.9119    1.9163 H   0  0  0  0  0  0  0  0  0  0  0  0
    0.8082   -0.9671    1.0199 H   0  0  0  0  0  0  0  0  0  0  0  0
    1.7232    1.2949    2.8498 H   0  0  0  0  0  0  0  0  0  0  0  0
    0.5372    0.0389    3.2531 H   0  0  0  0  0  0  0  0  0  0  0  0
   -1.0932    1.7817    3.5610 H   0  0  0  0  0  0  0  0  0  0  0  0
    0.1039    3.0017    3.1015 H   0  0  0  0  0  0  0  0  0  0  0  0
   -2.4894    2.4026    1.5788 H   0  0  0  0  0  0  0  0  0  0  0  0
   -2.2013    3.8050    2.6205 H   0  0  0  0  0  0  0  0  0  0  0  0
   -1.2908    3.6167    1.1128 H   0  0  0  0  0  0  0  0  0  0  0  0
   -1.3586   -3.4402   -2.4265 C   0  0  0  0  0  0  0  0  0  0  0  0
   -0.1080   -3.2650   -1.5754 C   0  0  0  0  0  0  0  0  0  0  0  0
    0.6144   -1.9602   -1.8374 C   0  0  0  0  0  0  0  0  0  0  0  0
   -0.2332   -0.8860   -1.5001 O   0  0  0  0  0  0  0  0  0  0  0  0
    0.3337    0.3643   -1.6839 C   0  0  0  0  0  0  0  0  0  0  0  0
   -0.6715    1.4516   -1.4544 C   0  0  0  0  0  0  0  0  0  0  0  0
   -1.1116   -3.4190   -3.4908 H   0  0  0  0  0  0  0  0  0  0  0  0
   -2.0729   -2.6402   -2.2323 H   0  0  0  0  0  0  0  0  0  0  0  0
   -1.8469   -4.3925   -2.2148 H   0  0  0  0  0  0  0  0  0  0  0  0
    0.5948   -4.0809   -1.7656 H   0  0  0  0  0  0  0  0  0  0  0  0
   -0.3667   -3.3113   -0.5142 H   0  0  0  0  0  0  0  0  0  0  0  0
    0.8996   -1.8854   -2.8976 H   0  0  0  0  0  0  0  0  0  0  0  0
    1.5357   -1.9076   -1.2434 H   0  0  0  0  0  0  0  0  0  0  0  0
    1.2810    0.4979   -0.7874 H   0  0  0  0  0  0  0  0  0  0  0  0
    0.8637    0.4358   -2.6435 H   0  0  0  0  0  0  0  0  0  0  0  0
   -1.0842    1.3694   -0.4497 H   0  0  0  0  0  0  0  0  0  0  0  0
   -1.4860    1.3962   -2.1822 H   0  0  0  0  0  0  0  0  0  0  0  0
   -0.1903    2.4266   -1.5465 H   0  0  0  0  0  0  0  0  0  0  0  0
  1  2  1  0
  1  7  1  0
  1  8  1  0
  2  3  1  0
  2  9  1  0
  2 10  1  0
  3  4  1  0
  3 11  1  0
  3 12  1  0
  4  5  1  0
  5  6  1  0
  5 13  1  0
  5 14  1  0
  6 15  1  0
  6 16  1  0
  6 17  1  0
 18 19  1  0
 18 24  1  0
 18 25  1  0
 18 26  1  0
 19 20  1  0
 19 27  1  0
 19 28  1  0
 20 21  1  0
 20 29  1  0
 20 30  1  0
 21 22  1  0
 22 23  1  0
 22 31  1  0
 22 32  1  0
 23 33  1  0
 23 34  1  0
 23 35  1  0
M  RAD  1   1   2
M  END
>  <reaction>  (4) 
rmg_rxn_291

>  <mol_properties>  (4) 
{"0": {"label": "*3", "atom_type": "Cs"}, "1": {"label": "*4", "atom_type": "Cs"}, "20": {"label": "*0", "atom_type": "O2s"}, "21": {"label": "*1", "atom_type": "Cs"}, "30": {"label": "*2", "atom_type": "H0"}}

>  <type>  (4) 
ts

$$$$
