
     RDKit          3D

  9  8  0  0  0  0  0  0  0  0999 V2000
   -1.0314    0.2323   -0.1227 C   0  0  0  0  0  0  0  0  0  0  0  0
    0.3094   -0.4511    0.0063 C   0  0  0  0  0  0  0  0  0  0  0  0
    0.3197   -1.7698    0.6841 N   0  0  0  0  0  0  0  0  0  0  0  0
   -0.7498   -2.1455    1.0557 O   0  0  0  0  0  0  0  0  0  0  0  0
   -1.4744    0.4198    0.8552 H   0  0  0  0  0  0  0  0  0  0  0  0
   -0.9073    1.1865   -0.6350 H   0  0  0  0  0  0  0  0  0  0  0  0
   -1.7319   -0.3778   -0.6927 H   0  0  0  0  0  0  0  0  0  0  0  0
    1.0375    0.1401    0.5713 H   0  0  0  0  0  0  0  0  0  0  0  0
    0.7826   -0.6494   -0.9609 H   0  0  0  0  0  0  0  0  0  0  0  0
  1  2  1  0
  1  5  1  0
  1  6  1  0
  1  7  1  0
  2  3  1  0
  2  8  1  0
  2  9  1  0
  3  4  2  0
M  END
>  <reaction>  (1) 
rmg_rxn_312

>  <mol_properties>  (1) 
{"0": {"label": "donator", "atom_type": "Cs"}, "4": {"label": "d_hydrogen", "atom_type": "H0"}}

>  <type>  (1) 
r1h

$$$$

     RDKit          3D

 11 10  0  0  0  0  0  0  0  0999 V2000
   -1.2230    0.3768   -0.0849 C   0  0  0  0  0  0  0  0  0  0  0  0
   -0.0734   -0.5533    0.2746 C   0  0  0  0  0  0  0  0  0  0  0  0
   -0.0853   -1.8426   -0.5372 C   0  0  0  0  0  0  0  0  0  0  0  0
    0.0319   -1.6944   -1.8815 O   0  0  0  0  0  1  0  0  0  0  0  0
   -2.1874   -0.0885    0.1341 H   0  0  0  0  0  0  0  0  0  0  0  0
   -1.1670    1.3099    0.4765 H   0  0  0  0  0  0  0  0  0  0  0  0
   -1.2014    0.6189   -1.1483 H   0  0  0  0  0  0  0  0  0  0  0  0
    0.8834   -0.0518    0.1071 H   0  0  0  0  0  0  0  0  0  0  0  0
   -0.1104   -0.8149    1.3362 H   0  0  0  0  0  0  0  0  0  0  0  0
    0.6767   -2.5604   -0.1861 H   0  0  0  0  0  0  0  0  0  0  0  0
   -1.0401   -2.3871   -0.3877 H   0  0  0  0  0  0  0  0  0  0  0  0
  1  2  1  0
  1  5  1  0
  1  6  1  0
  1  7  1  0
  2  3  1  0
  2  8  1  0
  2  9  1  0
  3  4  1  0
  3 10  1  0
  3 11  1  0
M  RAD  1   4   2
M  END
>  <reaction>  (2) 
rmg_rxn_312

>  <mol_properties>  (2) 
{"3": {"label": "acceptor", "atom_type": "O2s"}}

>  <type>  (2) 
r2

$$$$

     RDKit          3D

 12 11  0  0  0  0  0  0  0  0999 V2000
   -1.4643   -0.2505   -0.5284 C   0  0  0  0  0  0  0  0  0  0  0  0
   -0.3946    0.4302    0.3143 C   0  0  0  0  0  0  0  0  0  0  0  0
   -0.5959    0.2382    1.8102 C   0  0  0  0  0  0  0  0  0  0  0  0
   -0.5633   -1.1190    2.2092 O   0  0  0  0  0  0  0  0  0  0  0  0
   -2.4511    0.1644   -0.3109 H   0  0  0  0  0  0  0  0  0  0  0  0
   -1.5019   -1.3198   -0.3181 H   0  0  0  0  0  0  0  0  0  0  0  0
   -1.2720   -0.1182   -1.5941 H   0  0  0  0  0  0  0  0  0  0  0  0
    0.5965    0.0515    0.0385 H   0  0  0  0  0  0  0  0  0  0  0  0
   -0.3776    1.5047    0.1078 H   0  0  0  0  0  0  0  0  0  0  0  0
   -1.5821    0.6048    2.1034 H   0  0  0  0  0  0  0  0  0  0  0  0
    0.1495    0.8220    2.3649 H   0  0  0  0  0  0  0  0  0  0  0  0
    0.3017   -1.4750    1.9997 H   0  0  0  0  0  0  0  0  0  0  0  0
  1  2  1  0
  1  5  1  0
  1  6  1  0
  1  7  1  0
  2  3  1  0
  2  8  1  0
  2  9  1  0
  3  4  1  0
  3 10  1  0
  3 11  1  0
  4 12  1  0
M  END
>  <reaction>  (3) 
rmg_rxn_312

>  <mol_properties>  (3) 
{"0": {"label": "a_hydrogen", "atom_type": "H0"}, "4": {"label": "acceptor", "atom_type": "O2s"}}

>  <type>  (3) 
r2h

$$$$

     RDKit          3D

 20 18  0  0  0  0  0  0  0  0999 V2000
    0.4482    0.6700    1.6999 C   0  0  0  0  0  3  0  0  0  0  0  0
    0.5573   -0.7958    1.9723 C   0  0  0  0  0  0  0  0  0  0  0  0
    1.2571   -1.6226    0.9558 N   0  0  0  0  0  0  0  0  0  0  0  0
    1.7610   -1.0061    0.0694 O   0  0  0  0  0  0  0  0  0  0  0  0
   -0.4727    0.7924    0.8238 H   0  0  0  0  0  0  0  0  0  0  0  0
    0.0562    1.2386    2.5396 H   0  0  0  0  0  0  0  0  0  0  0  0
    1.3329    1.1210    1.2583 H   0  0  0  0  0  0  0  0  0  0  0  0
   -0.4171   -1.2770    2.0974 H   0  0  0  0  0  0  0  0  0  0  0  0
    1.1096   -1.0116    2.8968 H   0  0  0  0  0  0  0  0  0  0  0  0
   -0.2729    0.1022   -2.6587 C   0  0  0  0  0  0  0  0  0  0  0  0
    0.0927    1.3620   -1.8878 C   0  0  0  0  0  0  0  0  0  0  0  0
   -1.0091    1.8260   -0.9459 C   0  0  0  0  0  0  0  0  0  0  0  0
   -1.3830    0.8812    0.0144 O   0  0  0  0  0  0  0  0  0  0  0  0
   -1.1457    0.2711   -3.2944 H   0  0  0  0  0  0  0  0  0  0  0  0
    0.5508   -0.2220   -3.2956 H   0  0  0  0  0  0  0  0  0  0  0  0
   -0.5105   -0.7126   -1.9745 H   0  0  0  0  0  0  0  0  0  0  0  0
    1.0011    1.1868   -1.3049 H   0  0  0  0  0  0  0  0  0  0  0  0
    0.3145    2.1804   -2.5796 H   0  0  0  0  0  0  0  0  0  0  0  0
   -0.7376    2.7791   -0.4725 H   0  0  0  0  0  0  0  0  0  0  0  0
   -1.9312    2.0134   -1.5138 H   0  0  0  0  0  0  0  0  0  0  0  0
  1  2  1  0
  1  6  1  0
  1  7  1  0
  2  3  1  0
  2  8  1  0
  2  9  1  0
  3  4  2  0
  5 13  1  0
 10 11  1  0
 10 14  1  0
 10 15  1  0
 10 16  1  0
 11 12  1  0
 11 17  1  0
 11 18  1  0
 12 13  1  0
 12 19  1  0
 12 20  1  0
M  RAD  1   1   2
M  END
>  <reaction>  (4) 
rmg_rxn_312

>  <mol_properties>  (4) 
{"0": {"label": "*3", "atom_type": "Cs"}, "1": {"label": "*4", "atom_type": "Cs"}, "4": {"label": "*2", "atom_type": "H0"}, "11": {"label": "*0", "atom_type": "Cs"}, "12": {"label": "*1", "atom_type": "O2s"}}

>  <type>  (4) 
ts

$$$$
