
     RDKit          3D

 21 21  0  0  0  0  0  0  0  0999 V2000
   -3.3063    0.8372   -0.4191 C   0  0  0  0  0  0  0  0  0  0  0  0
   -2.1868   -0.0031    0.1062 C   0  0  0  0  0  0  0  0  0  0  0  0
   -1.2468   -0.5708   -0.6355 C   0  0  0  0  0  0  0  0  0  0  0  0
   -0.1288   -1.4267   -0.0992 C   0  0  0  0  0  0  0  0  0  0  0  0
   -0.2669   -2.8181   -0.6749 C   0  0  0  0  0  0  0  0  0  0  0  0
    0.3720   -3.1660   -1.7912 C   0  0  0  0  0  0  0  0  0  0  0  0
    1.2734   -2.2287   -2.4612 C   0  0  0  0  0  0  0  0  0  0  0  0
    1.6831   -1.1252   -1.8379 C   0  0  0  0  0  0  0  0  0  0  0  0
    1.2566   -0.8455   -0.4251 C   0  0  0  0  0  0  0  0  0  0  0  0
   -3.2551    0.9336   -1.5043 H   0  0  0  0  0  0  0  0  0  0  0  0
   -4.2759    0.4036   -0.1600 H   0  0  0  0  0  0  0  0  0  0  0  0
   -3.2812    1.8399    0.0155 H   0  0  0  0  0  0  0  0  0  0  0  0
   -2.1595   -0.1491    1.1845 H   0  0  0  0  0  0  0  0  0  0  0  0
   -1.2614   -0.4401   -1.7158 H   0  0  0  0  0  0  0  0  0  0  0  0
   -0.2339   -1.4738    0.9871 H   0  0  0  0  0  0  0  0  0  0  0  0
   -0.9690   -3.4944   -0.2017 H   0  0  0  0  0  0  0  0  0  0  0  0
    0.2170   -4.1439   -2.2308 H   0  0  0  0  0  0  0  0  0  0  0  0
    1.6128   -2.4570   -3.4641 H   0  0  0  0  0  0  0  0  0  0  0  0
    2.3713   -0.4410   -2.3198 H   0  0  0  0  0  0  0  0  0  0  0  0
    1.2580    0.2272   -0.2225 H   0  0  0  0  0  0  0  0  0  0  0  0
    1.9994   -1.2911    0.2497 H   0  0  0  0  0  0  0  0  0  0  0  0
  1  2  1  0
  1 10  1  0
  1 11  1  0
  1 12  1  0
  2  3  2  3
  2 13  1  0
  3  4  1  0
  3 14  1  0
  4  5  1  0
  4  9  1  0
  4 15  1  0
  5  6  2  0
  5 16  1  0
  6  7  1  0
  6 17  1  0
  7  8  2  0
  7 18  1  0
  8  9  1  0
  8 19  1  0
  9 20  1  0
  9 21  1  0
M  END
>  <reaction>  (1) 
rmg_rxn_15723

>  <mol_properties>  (1) 
{"8": {"label": "donator", "atom_type": "Cs"}, "19": {"label": "d_hydrogen", "atom_type": "H0"}}

>  <type>  (1) 
r1h

$$$$

     RDKit          3D

  8  7  0  0  0  0  0  0  0  0999 V2000
    1.7077   -0.1964   -0.0607 C   0  0  0  0  0  3  0  0  0  0  0  0
    0.4209   -0.4565    0.2808 O   0  0  0  0  0  0  0  0  0  0  0  0
   -0.4607    0.4385   -0.2968 N   0  0  0  0  0  0  0  0  0  0  0  0
   -1.6584    0.1416   -0.0244 C   0  0  0  0  0  0  0  0  0  0  0  0
    2.4163   -0.7685    0.5170 H   0  0  0  0  0  0  0  0  0  0  0  0
    1.9214    0.7645   -0.5045 H   0  0  0  0  0  0  0  0  0  0  0  0
   -2.4185    0.7953   -0.4307 H   0  0  0  0  0  0  0  0  0  0  0  0
   -1.9286   -0.7185    0.5831 H   0  0  0  0  0  0  0  0  0  0  0  0
  1  2  1  0
  1  5  1  0
  1  6  1  0
  2  3  1  0
  3  4  2  3
  4  7  1  0
  4  8  1  0
M  RAD  1   1   2
M  END
>  <reaction>  (2) 
rmg_rxn_15723

>  <mol_properties>  (2) 
{"0": {"label": "acceptor", "atom_type": "Cs"}}

>  <type>  (2) 
r2

$$$$

     RDKit          3D

  9  8  0  0  0  0  0  0  0  0999 V2000
   -1.5470   -0.0755   -0.1976 C   0  0  0  0  0  0  0  0  0  0  0  0
   -0.2885    0.4507    0.1749 O   0  0  0  0  0  0  0  0  0  0  0  0
   -0.1502    1.7216   -0.3294 N   0  0  0  0  0  0  0  0  0  0  0  0
    0.9626    2.2353   -0.0219 C   0  0  0  0  0  0  0  0  0  0  0  0
   -1.6392   -0.1356   -1.2844 H   0  0  0  0  0  0  0  0  0  0  0  0
   -2.3597    0.5337    0.2044 H   0  0  0  0  0  0  0  0  0  0  0  0
   -1.5879   -1.0750    0.2318 H   0  0  0  0  0  0  0  0  0  0  0  0
    1.1497    3.2381   -0.3820 H   0  0  0  0  0  0  0  0  0  0  0  0
    1.7060    1.7101    0.5739 H   0  0  0  0  0  0  0  0  0  0  0  0
  1  2  1  0
  1  5  1  0
  1  6  1  0
  1  7  1  0
  2  3  1  0
  3  4  2  3
  4  8  1  0
  4  9  1  0
M  END
>  <reaction>  (3) 
rmg_rxn_15723

>  <mol_properties>  (3) 
{"0": {"label": "acceptor", "atom_type": "Cs"}, "8": {"label": "a_hydrogen", "atom_type": "H0"}}

>  <type>  (3) 
r2h

$$$$

     RDKit          3D

 29 28  0  0  0  0  0  0  0  0999 V2000
   -2.0386   -0.8561    0.5161 C   0  0  0  0  0  3  0  0  0  0  0  0
   -2.3933    0.4601    0.3108 O   0  0  0  0  0  0  0  0  0  0  0  0
   -2.0635    0.8724   -0.9617 N   0  0  0  0  0  0  0  0  0  0  0  0
   -2.2057    2.1203   -1.0982 C   0  0  0  0  0  0  0  0  0  0  0  0
   -2.5361   -1.2212    1.4098 H   0  0  0  0  0  0  0  0  0  0  0  0
   -2.1264   -1.4807   -0.3702 H   0  0  0  0  0  0  0  0  0  0  0  0
   -1.9830    2.5264   -2.0757 H   0  0  0  0  0  0  0  0  0  0  0  0
   -2.5304    2.7656   -0.2860 H   0  0  0  0  0  0  0  0  0  0  0  0
    1.4727   -2.2666   -3.2354 C   0  0  0  0  0  0  0  0  0  0  0  0
    1.8336   -1.6367   -1.9282 C   0  0  0  0  0  0  0  0  0  0  0  0
    1.0292   -0.8697   -1.2070 C   0  0  0  0  0  0  0  0  0  0  0  0
    1.3954   -0.2445    0.1098 C   0  0  0  0  0  0  0  0  0  0  0  0
    1.2550    1.2590    0.0852 C   0  0  0  0  0  0  0  0  0  0  0  0
    0.9849    1.9535    1.1920 C   0  0  0  0  0  0  0  0  0  0  0  0
    0.7593    1.2818    2.4622 C   0  0  0  0  0  0  0  0  0  0  0  0
    0.6026   -0.0524    2.4980 C   0  0  0  0  0  0  0  0  0  0  0  0
    0.5996   -0.8401    1.2674 C   0  0  0  0  0  0  0  0  0  0  0  0
    0.4532   -2.0135   -3.5292 H   0  0  0  0  0  0  0  0  0  0  0  0
    2.1492   -1.9383   -4.0290 H   0  0  0  0  0  0  0  0  0  0  0  0
    1.5533   -3.3555   -3.1815 H   0  0  0  0  0  0  0  0  0  0  0  0
    2.8380   -1.8350   -1.5582 H   0  0  0  0  0  0  0  0  0  0  0  0
    0.0251   -0.6554   -1.5667 H   0  0  0  0  0  0  0  0  0  0  0  0
    2.4614   -0.4615    0.2903 H   0  0  0  0  0  0  0  0  0  0  0  0
    1.4438    1.7638   -0.8552 H   0  0  0  0  0  0  0  0  0  0  0  0
    0.9409    3.0358    1.1590 H   0  0  0  0  0  0  0  0  0  0  0  0
    0.6969    1.8713    3.3680 H   0  0  0  0  0  0  0  0  0  0  0  0
    0.3848   -0.5509    3.4356 H   0  0  0  0  0  0  0  0  0  0  0  0
   -0.6316   -0.8796    0.8949 H   0  0  0  0  0  0  0  0  0  0  0  0
    0.8121   -1.8991    1.4085 H   0  0  0  0  0  0  0  0  0  0  0  0
  1  2  1  0
  1  5  1  0
  1  6  1  0
  2  3  1  0
  3  4  2  3
  4  7  1  0
  4  8  1  0
  9 10  1  0
  9 18  1  0
  9 19  1  0
  9 20  1  0
 10 11  2  3
 10 21  1  0
 11 12  1  0
 11 22  1  0
 12 13  1  0
 12 17  1  0
 12 23  1  0
 13 14  2  0
 13 24  1  0
 14 15  1  0
 14 25  1  0
 15 16  2  0
 15 26  1  0
 16 17  1  0
 16 27  1  0
 17 28  1  0
 17 29  1  0
M  RAD  1   1   2
M  END
>  <reaction>  (4) 
rmg_rxn_15723

>  <mol_properties>  (4) 
{"0": {"label": "*3", "atom_type": "Cs"}, "1": {"label": "*4", "atom_type": "O2s"}, "11": {"label": "*0", "atom_type": "Cs"}, "16": {"label": "*1", "atom_type": "Cs"}, "27": {"label": "*2", "atom_type": "H0"}}

>  <type>  (4) 
ts

$$$$
