
     RDKit          3D

  9  8  0  0  0  0  0  0  0  0999 V2000
    2.0310   -0.2313    0.2972 O   0  0  0  0  0  0  0  0  0  0  0  0
    0.7181   -0.4900   -0.1228 N   0  0  0  0  0  0  0  0  0  0  0  0
   -0.2116    0.4372    0.3498 C   0  0  0  0  0  0  0  0  0  0  0  0
    0.0407    1.6423    0.8420 C   0  0  0  0  0  0  0  0  0  0  0  0
    2.4997   -0.0381   -0.5177 H   0  0  0  0  0  0  0  0  0  0  0  0
    0.4970   -1.4356    0.1600 H   0  0  0  0  0  0  0  0  0  0  0  0
   -1.2274    0.0806    0.2121 H   0  0  0  0  0  0  0  0  0  0  0  0
    1.0509    1.9968    0.9864 H   0  0  0  0  0  0  0  0  0  0  0  0
   -0.7793    2.2911    1.1115 H   0  0  0  0  0  0  0  0  0  0  0  0
  1  2  1  0
  1  5  1  0
  2  3  1  0
  2  6  1  0
  3  4  2  3
  3  7  1  0
  4  8  1  0
  4  9  1  0
M  END
>  <reaction>  (1) 
rmg_rxn_15729

>  <mol_properties>  (1) 
{"1": {"label": "donator", "atom_type": "N3s"}, "5": {"label": "d_hydrogen", "atom_type": "H0"}}

>  <type>  (1) 
r1h

$$$$

     RDKit          3D

  8  7  0  0  0  0  0  0  0  0999 V2000
    1.7077   -0.1964   -0.0607 C   0  0  0  0  0  3  0  0  0  0  0  0
    0.4209   -0.4565    0.2808 O   0  0  0  0  0  0  0  0  0  0  0  0
   -0.4607    0.4385   -0.2968 N   0  0  0  0  0  0  0  0  0  0  0  0
   -1.6584    0.1416   -0.0244 C   0  0  0  0  0  0  0  0  0  0  0  0
    2.4163   -0.7685    0.5170 H   0  0  0  0  0  0  0  0  0  0  0  0
    1.9214    0.7645   -0.5045 H   0  0  0  0  0  0  0  0  0  0  0  0
   -2.4185    0.7953   -0.4307 H   0  0  0  0  0  0  0  0  0  0  0  0
   -1.9286   -0.7185    0.5831 H   0  0  0  0  0  0  0  0  0  0  0  0
  1  2  1  0
  1  5  1  0
  1  6  1  0
  2  3  1  0
  3  4  2  3
  4  7  1  0
  4  8  1  0
M  RAD  1   1   2
M  END
>  <reaction>  (2) 
rmg_rxn_15729

>  <mol_properties>  (2) 
{"0": {"label": "acceptor", "atom_type": "Cs"}}

>  <type>  (2) 
r2

$$$$

     RDKit          3D

  9  8  0  0  0  0  0  0  0  0999 V2000
   -1.5470   -0.0755   -0.1976 C   0  0  0  0  0  0  0  0  0  0  0  0
   -0.2885    0.4507    0.1749 O   0  0  0  0  0  0  0  0  0  0  0  0
   -0.1502    1.7216   -0.3294 N   0  0  0  0  0  0  0  0  0  0  0  0
    0.9626    2.2353   -0.0219 C   0  0  0  0  0  0  0  0  0  0  0  0
   -1.6392   -0.1356   -1.2844 H   0  0  0  0  0  0  0  0  0  0  0  0
   -2.3597    0.5337    0.2044 H   0  0  0  0  0  0  0  0  0  0  0  0
   -1.5879   -1.0750    0.2318 H   0  0  0  0  0  0  0  0  0  0  0  0
    1.1497    3.2381   -0.3820 H   0  0  0  0  0  0  0  0  0  0  0  0
    1.7060    1.7101    0.5739 H   0  0  0  0  0  0  0  0  0  0  0  0
  1  2  1  0
  1  5  1  0
  1  6  1  0
  1  7  1  0
  2  3  1  0
  3  4  2  3
  4  8  1  0
  4  9  1  0
M  END
>  <reaction>  (3) 
rmg_rxn_15729

>  <mol_properties>  (3) 
{"0": {"label": "acceptor", "atom_type": "Cs"}, "8": {"label": "a_hydrogen", "atom_type": "H0"}}

>  <type>  (3) 
r2h

$$$$

     RDKit          3D

 17 15  0  0  0  0  0  0  0  0999 V2000
    0.0228   -1.6634    0.6355 C   0  0  0  0  0  3  0  0  0  0  0  0
    1.1176   -1.1684   -0.0320 O   0  0  0  0  0  0  0  0  0  0  0  0
    1.9288   -0.4333    0.8137 N   0  0  0  0  0  0  0  0  0  0  0  0
    2.8746    0.1143    0.1805 C   0  0  0  0  0  0  0  0  0  0  0  0
   -0.4541   -2.4222    0.0218 H   0  0  0  0  0  0  0  0  0  0  0  0
    0.2209   -1.9287    1.6727 H   0  0  0  0  0  0  0  0  0  0  0  0
    3.5692    0.7010    0.7668 H   0  0  0  0  0  0  0  0  0  0  0  0
    2.9974    0.0132   -0.8948 H   0  0  0  0  0  0  0  0  0  0  0  0
   -2.5237   -0.0862   -0.5360 O   0  0  0  0  0  0  0  0  0  0  0  0
   -1.7316    0.2715    0.5597 N   0  0  0  0  0  0  0  0  0  0  0  0
   -0.9614    1.3844    0.2636 C   0  0  0  0  0  0  0  0  0  0  0  0
   -1.0857    2.2065   -0.7780 C   0  0  0  0  0  0  0  0  0  0  0  0
   -3.3308   -0.4096   -0.1303 H   0  0  0  0  0  0  0  0  0  0  0  0
   -0.9624   -0.6466    0.7177 H   0  0  0  0  0  0  0  0  0  0  0  0
   -0.2152    1.5531    1.0331 H   0  0  0  0  0  0  0  0  0  0  0  0
   -1.8249    2.0393   -1.5475 H   0  0  0  0  0  0  0  0  0  0  0  0
   -0.4517    3.0786   -0.8486 H   0  0  0  0  0  0  0  0  0  0  0  0
  1  2  1  0
  1  5  1  0
  1  6  1  0
  2  3  1  0
  3  4  2  3
  4  7  1  0
  4  8  1  0
  9 10  1  0
  9 13  1  0
 10 11  1  0
 10 14  1  0
 11 12  2  3
 11 15  1  0
 12 16  1  0
 12 17  1  0
M  RAD  1   1   2
M  END
>  <reaction>  (4) 
rmg_rxn_15729

>  <mol_properties>  (4) 
{"0": {"label": "*3", "atom_type": "Cs"}, "1": {"label": "*4", "atom_type": "O2s"}, "9": {"label": "*1", "atom_type": "N3s"}, "10": {"label": "*0", "atom_type": "Cd"}, "13": {"label": "*2", "atom_type": "H0"}}

>  <type>  (4) 
ts

$$$$
