
     RDKit          3D

 10  9  0  0  0  0  0  0  0  0999 V2000
    2.0405   -0.0560    0.0128 C   0  0  0  0  0  0  0  0  0  0  0  0
    0.5946   -0.0163    0.1900 C   0  0  0  0  0  0  0  0  0  0  0  0
   -0.5946    0.0163    0.3357 C   0  0  0  0  0  0  0  0  0  0  0  0
   -2.0405    0.0560    0.5130 C   0  0  0  0  0  0  0  0  0  0  0  0
    2.4796    0.9302    0.1730 H   0  0  0  0  0  0  0  0  0  0  0  0
    2.3003   -0.3811   -0.9961 H   0  0  0  0  0  0  0  0  0  0  0  0
    2.5005   -0.7489    0.7194 H   0  0  0  0  0  0  0  0  0  0  0  0
   -2.5526   -0.2927   -0.3855 H   0  0  0  0  0  0  0  0  0  0  0  0
   -2.3794    1.0722    0.7215 H   0  0  0  0  0  0  0  0  0  0  0  0
   -2.3483   -0.5797    1.3449 H   0  0  0  0  0  0  0  0  0  0  0  0
  1  2  1  0
  1  5  1  0
  1  6  1  0
  1  7  1  0
  2  3  3  0
  3  4  1  0
  4  8  1  0
  4  9  1  0
  4 10  1  0
M  END
>  <reaction>  (1) 
rmg_rxn_191

>  <mol_properties>  (1) 
{"3": {"label": "donator", "atom_type": "Cs"}, "9": {"label": "d_hydrogen", "atom_type": "H0"}}

>  <type>  (1) 
r1h

$$$$

     RDKit          3D

 13 13  0  0  0  0  0  0  0  0999 V2000
   -1.1371    0.3608    0.3110 C   0  0  0  0  0  3  0  0  0  0  0  0
   -0.0045    1.3224    0.2943 C   0  0  0  0  0  0  0  0  0  0  0  0
    1.2245    0.6965    0.6137 O   0  0  0  0  0  0  0  0  0  0  0  0
    1.3926   -0.4921   -0.0955 C   0  0  0  0  0  0  0  0  0  0  0  0
    0.4387   -1.4537    0.2351 O   0  0  0  0  0  0  0  0  0  0  0  0
   -0.8659   -1.0349   -0.1206 C   0  0  0  0  0  0  0  0  0  0  0  0
   -2.1544    0.7285    0.3341 H   0  0  0  0  0  0  0  0  0  0  0  0
   -0.1488    2.1272    1.0165 H   0  0  0  0  0  0  0  0  0  0  0  0
    0.0825    1.7949   -0.7036 H   0  0  0  0  0  0  0  0  0  0  0  0
    1.3549   -0.2872   -1.1815 H   0  0  0  0  0  0  0  0  0  0  0  0
    2.3646   -0.8956    0.1787 H   0  0  0  0  0  0  0  0  0  0  0  0
   -1.5620   -1.7401    0.3358 H   0  0  0  0  0  0  0  0  0  0  0  0
   -0.9852   -1.1268   -1.2179 H   0  0  0  0  0  0  0  0  0  0  0  0
  1  2  1  0
  1  6  1  0
  1  7  1  0
  2  3  1  0
  2  8  1  0
  2  9  1  0
  3  4  1  0
  4  5  1  0
  4 10  1  0
  4 11  1  0
  5  6  1  0
  6 12  1  0
  6 13  1  0
M  RAD  1   1   2
M  END
>  <reaction>  (2) 
rmg_rxn_191

>  <mol_properties>  (2) 
{"0": {"label": "acceptor", "atom_type": "Cs"}}

>  <type>  (2) 
r2

$$$$

     RDKit          3D

 14 14  0  0  0  0  0  0  0  0999 V2000
   -1.1778    0.2241    0.1818 C   0  0  0  0  0  0  0  0  0  0  0  0
   -0.5633   -1.1636    0.0678 C   0  0  0  0  0  0  0  0  0  0  0  0
    0.6943   -1.1996    0.7146 O   0  0  0  0  0  0  0  0  0  0  0  0
    1.5547   -0.2288    0.2011 C   0  0  0  0  0  0  0  0  0  0  0  0
    1.0729    1.0696    0.3698 O   0  0  0  0  0  0  0  0  0  0  0  0
   -0.1607    1.2493   -0.2989 C   0  0  0  0  0  0  0  0  0  0  0  0
   -2.0927    0.2866   -0.4117 H   0  0  0  0  0  0  0  0  0  0  0  0
   -1.4303    0.4248    1.2248 H   0  0  0  0  0  0  0  0  0  0  0  0
   -1.1822   -1.9235    0.5431 H   0  0  0  0  0  0  0  0  0  0  0  0
   -0.4389   -1.4347   -0.9919 H   0  0  0  0  0  0  0  0  0  0  0  0
    1.7250   -0.4207   -0.8742 H   0  0  0  0  0  0  0  0  0  0  0  0
    2.4896   -0.3010    0.7524 H   0  0  0  0  0  0  0  0  0  0  0  0
   -0.0080    1.1481   -1.3844 H   0  0  0  0  0  0  0  0  0  0  0  0
   -0.4826    2.2695   -0.0942 H   0  0  0  0  0  0  0  0  0  0  0  0
  1  2  1  0
  1  6  1  0
  1  7  1  0
  1  8  1  0
  2  3  1  0
  2  9  1  0
  2 10  1  0
  3  4  1  0
  4  5  1  0
  4 11  1  0
  4 12  1  0
  5  6  1  0
  6 13  1  0
  6 14  1  0
M  END
>  <reaction>  (3) 
rmg_rxn_191

>  <mol_properties>  (3) 
{"0": {"label": "a_hydrogen", "atom_type": "H0"}, "1": {"label": "acceptor", "atom_type": "Cs"}}

>  <type>  (3) 
r2h

$$$$

     RDKit          3D

 23 22  0  0  0  0  0  0  0  0999 V2000
    1.0022   -2.0418   -3.2091 C   0  0  0  0  0  0  0  0  0  0  0  0
    1.1749   -0.7452   -2.5702 C   0  0  0  0  0  0  0  0  0  0  0  0
    1.3268    0.3316   -2.0545 C   0  0  0  0  0  0  0  0  0  0  0  0
    1.4566    1.5788   -1.3711 C   0  0  0  0  0  0  0  0  0  0  0  0
    0.4113   -1.9501   -4.1219 H   0  0  0  0  0  0  0  0  0  0  0  0
    0.4885   -2.7386   -2.5437 H   0  0  0  0  0  0  0  0  0  0  0  0
    1.9675   -2.4777   -3.4721 H   0  0  0  0  0  0  0  0  0  0  0  0
    0.9730    2.4181   -1.8676 H   0  0  0  0  0  0  0  0  0  0  0  0
    2.4720    1.8215   -1.0633 H   0  0  0  0  0  0  0  0  0  0  0  0
    0.8110    1.4695   -0.2491 H   0  0  0  0  0  0  0  0  0  0  0  0
    0.0712    1.1656    0.9016 C   0  0  0  0  0  3  0  0  0  0  0  0
   -1.2953    0.7988    0.3864 C   0  0  0  0  0  0  0  0  0  0  0  0
   -2.0227    0.0922    1.3849 O   0  0  0  0  0  0  0  0  0  0  0  0
   -1.3090   -1.0218    1.8282 C   0  0  0  0  0  0  0  0  0  0  0  0
   -0.0907   -0.6880    2.4208 O   0  0  0  0  0  0  0  0  0  0  0  0
    0.7654   -0.0334    1.4912 C   0  0  0  0  0  0  0  0  0  0  0  0
    0.1045    2.0630    1.5155 H   0  0  0  0  0  0  0  0  0  0  0  0
   -1.8890    1.6739    0.1283 H   0  0  0  0  0  0  0  0  0  0  0  0
   -1.1980    0.1656   -0.5085 H   0  0  0  0  0  0  0  0  0  0  0  0
   -1.1293   -1.7053    0.9782 H   0  0  0  0  0  0  0  0  0  0  0  0
   -1.9142   -1.5108    2.5887 H   0  0  0  0  0  0  0  0  0  0  0  0
    1.0374   -0.7373    0.6901 H   0  0  0  0  0  0  0  0  0  0  0  0
    1.6684    0.2372    2.0355 H   0  0  0  0  0  0  0  0  0  0  0  0
  1  2  1  0
  1  5  1  0
  1  6  1  0
  1  7  1  0
  2  3  3  0
  3  4  1  0
  4  8  1  0
  4  9  1  0
  4 10  1  0
 11 12  1  0
 11 16  1  0
 11 17  1  0
 12 13  1  0
 12 18  1  0
 12 19  1  0
 13 14  1  0
 14 15  1  0
 14 20  1  0
 14 21  1  0
 15 16  1  0
 16 22  1  0
 16 23  1  0
M  RAD  1  11   2
M  END
>  <reaction>  (4) 
rmg_rxn_191

>  <mol_properties>  (4) 
{"2": {"label": "*0", "atom_type": "Ct"}, "3": {"label": "*1", "atom_type": "Cs"}, "9": {"label": "*2", "atom_type": "H0"}, "10": {"label": "*3", "atom_type": "Cs"}, "11": {"label": "*4", "atom_type": "Cs"}}

>  <type>  (4) 
ts

$$$$
