
     RDKit          3D

 14 14  0  0  0  0  0  0  0  0999 V2000
   -1.1778    0.2241    0.1818 C   0  0  0  0  0  0  0  0  0  0  0  0
   -0.5633   -1.1636    0.0678 C   0  0  0  0  0  0  0  0  0  0  0  0
    0.6943   -1.1996    0.7146 O   0  0  0  0  0  0  0  0  0  0  0  0
    1.5547   -0.2288    0.2011 C   0  0  0  0  0  0  0  0  0  0  0  0
    1.0729    1.0696    0.3698 O   0  0  0  0  0  0  0  0  0  0  0  0
   -0.1607    1.2493   -0.2989 C   0  0  0  0  0  0  0  0  0  0  0  0
   -2.0927    0.2866   -0.4117 H   0  0  0  0  0  0  0  0  0  0  0  0
   -1.4303    0.4248    1.2248 H   0  0  0  0  0  0  0  0  0  0  0  0
   -1.1822   -1.9235    0.5431 H   0  0  0  0  0  0  0  0  0  0  0  0
   -0.4389   -1.4347   -0.9919 H   0  0  0  0  0  0  0  0  0  0  0  0
    1.7250   -0.4207   -0.8742 H   0  0  0  0  0  0  0  0  0  0  0  0
    2.4896   -0.3010    0.7524 H   0  0  0  0  0  0  0  0  0  0  0  0
   -0.0080    1.1481   -1.3844 H   0  0  0  0  0  0  0  0  0  0  0  0
   -0.4826    2.2695   -0.0942 H   0  0  0  0  0  0  0  0  0  0  0  0
  1  2  1  0
  1  6  1  0
  1  7  1  0
  1  8  1  0
  2  3  1  0
  2  9  1  0
  2 10  1  0
  3  4  1  0
  4  5  1  0
  4 11  1  0
  4 12  1  0
  5  6  1  0
  6 13  1  0
  6 14  1  0
M  END
>  <reaction>  (1) 
rmg_rxn_665

>  <mol_properties>  (1) 
{"1": {"label": "donator", "atom_type": "Cs"}, "8": {"label": "d_hydrogen", "atom_type": "H0"}}

>  <type>  (1) 
r1h

$$$$

     RDKit          3D

 14 13  0  0  0  0  0  0  0  0999 V2000
    2.7687   -0.0362   -0.0732 C   0  0  0  0  0  3  0  0  0  0  0  0
    1.6543    0.2105    0.6386 O   0  0  0  0  0  0  0  0  0  0  0  0
    1.8652    0.6968    1.9544 C   0  0  0  0  0  0  0  0  0  0  0  0
    0.5252    0.9355    2.6156 C   0  0  0  0  0  0  0  0  0  0  0  0
   -0.2992    2.0181    1.9317 C   0  0  0  0  0  0  0  0  0  0  0  0
    2.5851   -0.4757   -1.0422 H   0  0  0  0  0  0  0  0  0  0  0  0
    3.6974   -0.2083    0.4611 H   0  0  0  0  0  0  0  0  0  0  0  0
    2.4441    1.6271    1.9039 H   0  0  0  0  0  0  0  0  0  0  0  0
    2.4506   -0.0397    2.5179 H   0  0  0  0  0  0  0  0  0  0  0  0
    0.7150    1.2089    3.6572 H   0  0  0  0  0  0  0  0  0  0  0  0
   -0.0287   -0.0066    2.6327 H   0  0  0  0  0  0  0  0  0  0  0  0
   -0.5056    1.7522    0.8949 H   0  0  0  0  0  0  0  0  0  0  0  0
   -1.2524    2.1635    2.4416 H   0  0  0  0  0  0  0  0  0  0  0  0
    0.2319    2.9729    1.9340 H   0  0  0  0  0  0  0  0  0  0  0  0
  1  2  1  0
  1  6  1  0
  1  7  1  0
  2  3  1  0
  3  4  1  0
  3  8  1  0
  3  9  1  0
  4  5  1  0
  4 10  1  0
  4 11  1  0
  5 12  1  0
  5 13  1  0
  5 14  1  0
M  RAD  1   1   2
M  END
>  <reaction>  (2) 
rmg_rxn_665

>  <mol_properties>  (2) 
{"0": {"label": "acceptor", "atom_type": "Cs"}}

>  <type>  (2) 
r2

$$$$

     RDKit          3D

 15 14  0  0  0  0  0  0  0  0999 V2000
   -1.2811   -0.4129    1.0228 C   0  0  0  0  0  0  0  0  0  0  0  0
   -1.0023   -0.5809   -0.4650 C   0  0  0  0  0  0  0  0  0  0  0  0
   -2.0576    0.0568   -1.3449 C   0  0  0  0  0  0  0  0  0  0  0  0
   -2.0663    1.4464   -1.1307 O   0  0  0  0  0  0  0  0  0  0  0  0
   -3.0424    2.1072   -1.8849 C   0  0  0  0  0  0  0  0  0  0  0  0
   -2.2382   -0.8657    1.2935 H   0  0  0  0  0  0  0  0  0  0  0  0
   -1.3219    0.6426    1.2914 H   0  0  0  0  0  0  0  0  0  0  0  0
   -0.5042   -0.8881    1.6236 H   0  0  0  0  0  0  0  0  0  0  0  0
   -0.0316   -0.1460   -0.7167 H   0  0  0  0  0  0  0  0  0  0  0  0
   -0.9494   -1.6429   -0.7203 H   0  0  0  0  0  0  0  0  0  0  0  0
   -1.8518   -0.1570   -2.4041 H   0  0  0  0  0  0  0  0  0  0  0  0
   -3.0491   -0.3636   -1.1124 H   0  0  0  0  0  0  0  0  0  0  0  0
   -4.0521    1.7545   -1.6343 H   0  0  0  0  0  0  0  0  0  0  0  0
   -2.8850    1.9634   -2.9626 H   0  0  0  0  0  0  0  0  0  0  0  0
   -2.9730    3.1700   -1.6570 H   0  0  0  0  0  0  0  0  0  0  0  0
  1  2  1  0
  1  6  1  0
  1  7  1  0
  1  8  1  0
  2  3  1  0
  2  9  1  0
  2 10  1  0
  3  4  1  0
  3 11  1  0
  3 12  1  0
  4  5  1  0
  5 13  1  0
  5 14  1  0
  5 15  1  0
M  END
>  <reaction>  (3) 
rmg_rxn_665

>  <mol_properties>  (3) 
{"0": {"label": "a_hydrogen", "atom_type": "H0"}, "1": {"label": "acceptor", "atom_type": "Cs"}}

>  <type>  (3) 
r2h

$$$$

     RDKit          3D

 28 27  0  0  0  0  0  0  0  0999 V2000
    1.4515    0.9480   -0.5751 C   0  0  0  0  0  0  0  0  0  0  0  0
    0.9590    1.1306    0.8367 C   0  0  0  0  0  3  0  0  0  0  0  0
   -0.3650    1.5774    0.8862 O   0  0  0  0  0  0  0  0  0  0  0  0
   -0.5578    2.7334    0.1133 C   0  0  0  0  0  0  0  0  0  0  0  0
   -0.2389    2.5404   -1.2270 O   0  0  0  0  0  0  0  0  0  0  0  0
    1.1259    2.1996   -1.3867 C   0  0  0  0  0  0  0  0  0  0  0  0
    2.5258    0.7549   -0.5816 H   0  0  0  0  0  0  0  0  0  0  0  0
    0.9525    0.0868   -1.0274 H   0  0  0  0  0  0  0  0  0  0  0  0
    0.8990   -0.1368    1.4024 H   0  0  0  0  0  0  0  0  0  0  0  0
    1.6161    1.7234    1.4840 H   0  0  0  0  0  0  0  0  0  0  0  0
    0.0543    3.5527    0.5289 H   0  0  0  0  0  0  0  0  0  0  0  0
   -1.6159    2.9812    0.1660 H   0  0  0  0  0  0  0  0  0  0  0  0
    1.7547    3.0399   -1.0580 H   0  0  0  0  0  0  0  0  0  0  0  0
    1.2867    2.0454   -2.4531 H   0  0  0  0  0  0  0  0  0  0  0  0
    0.7360   -1.4091    1.7178 C   0  0  0  0  0  0  0  0  0  0  0  0
    0.3343   -2.0894    0.5931 O   0  0  0  0  0  0  0  0  0  0  0  0
   -1.0085   -1.8335    0.2174 C   0  0  0  0  0  0  0  0  0  0  0  0
   -1.3082   -2.5638   -1.0734 C   0  0  0  0  0  0  0  0  0  0  0  0
   -1.1939   -4.0776   -0.9529 C   0  0  0  0  0  0  0  0  0  0  0  0
    1.7153   -1.7639    2.0336 H   0  0  0  0  0  0  0  0  0  0  0  0
   -0.0011   -1.4101    2.5281 H   0  0  0  0  0  0  0  0  0  0  0  0
   -1.1579   -0.7549    0.0988 H   0  0  0  0  0  0  0  0  0  0  0  0
   -1.6774   -2.1779    1.0196 H   0  0  0  0  0  0  0  0  0  0  0  0
   -0.6292   -2.1957   -1.8474 H   0  0  0  0  0  0  0  0  0  0  0  0
   -2.3186   -2.2854   -1.3846 H   0  0  0  0  0  0  0  0  0  0  0  0
   -1.4251   -4.5652   -1.9011 H   0  0  0  0  0  0  0  0  0  0  0  0
   -0.1856   -4.3685   -0.6579 H   0  0  0  0  0  0  0  0  0  0  0  0
   -1.8873   -4.4616   -0.2007 H   0  0  0  0  0  0  0  0  0  0  0  0
  1  2  1  0
  1  6  1  0
  1  7  1  0
  1  8  1  0
  2  3  1  0
  2 10  1  0
  3  4  1  0
  4  5  1  0
  4 11  1  0
  4 12  1  0
  5  6  1  0
  6 13  1  0
  6 14  1  0
  9 15  1  0
 15 16  1  0
 15 20  1  0
 15 21  1  0
 16 17  1  0
 17 18  1  0
 17 22  1  0
 17 23  1  0
 18 19  1  0
 18 24  1  0
 18 25  1  0
 19 26  1  0
 19 27  1  0
 19 28  1  0
M  RAD  1   2   2
M  END
>  <reaction>  (4) 
rmg_rxn_665

>  <mol_properties>  (4) 
{"1": {"label": "*3", "atom_type": "Cs"}, "2": {"label": "*4", "atom_type": "O2s"}, "8": {"label": "*2", "atom_type": "H0"}, "14": {"label": "*1", "atom_type": "Cs"}, "15": {"label": "*0", "atom_type": "O2s"}}

>  <type>  (4) 
ts

$$$$
