
     RDKit          3D

  9  8  0  0  0  0  0  0  0  0999 V2000
   -1.5470   -0.0755   -0.1976 C   0  0  0  0  0  0  0  0  0  0  0  0
   -0.2885    0.4507    0.1749 O   0  0  0  0  0  0  0  0  0  0  0  0
   -0.1502    1.7216   -0.3294 N   0  0  0  0  0  0  0  0  0  0  0  0
    0.9626    2.2353   -0.0219 C   0  0  0  0  0  0  0  0  0  0  0  0
   -1.6392   -0.1356   -1.2844 H   0  0  0  0  0  0  0  0  0  0  0  0
   -2.3597    0.5337    0.2044 H   0  0  0  0  0  0  0  0  0  0  0  0
   -1.5879   -1.0750    0.2318 H   0  0  0  0  0  0  0  0  0  0  0  0
    1.1497    3.2381   -0.3820 H   0  0  0  0  0  0  0  0  0  0  0  0
    1.7060    1.7101    0.5739 H   0  0  0  0  0  0  0  0  0  0  0  0
  1  2  1  0
  1  5  1  0
  1  6  1  0
  1  7  1  0
  2  3  1  0
  3  4  2  3
  4  8  1  0
  4  9  1  0
M  END
>  <reaction>  (1) 
rmg_rxn_15613

>  <mol_properties>  (1) 
{"0": {"label": "donator", "atom_type": "Cs"}, "4": {"label": "d_hydrogen", "atom_type": "H0"}}

>  <type>  (1) 
r1h

$$$$

     RDKit          3D

  8  7  0  0  0  0  0  0  0  0999 V2000
   -1.0336    0.3440   -0.0356 C   0  0  0  0  0  3  0  0  0  0  0  0
    0.1991   -0.4325   -0.0698 C   0  0  0  0  0  0  0  0  0  0  0  0
    0.9631   -0.0368    1.2269 N   0  0  0  0  0  0  0  0  0  0  0  0
    0.8138   -0.8074    2.1160 O   0  0  0  0  0  0  0  0  0  0  0  0
   -1.0668    1.3490   -0.4320 H   0  0  0  0  0  0  0  0  0  0  0  0
   -1.8598    0.0102    0.5774 H   0  0  0  0  0  0  0  0  0  0  0  0
    0.0447   -1.5108   -0.0264 H   0  0  0  0  0  0  0  0  0  0  0  0
    0.8639   -0.1518   -0.8851 H   0  0  0  0  0  0  0  0  0  0  0  0
  1  2  1  0
  1  5  1  0
  1  6  1  0
  2  3  1  0
  2  7  1  0
  2  8  1  0
  3  4  2  0
M  RAD  1   1   2
M  END
>  <reaction>  (2) 
rmg_rxn_15613

>  <mol_properties>  (2) 
{"0": {"label": "acceptor", "atom_type": "Cs"}}

>  <type>  (2) 
r2

$$$$

     RDKit          3D

  9  8  0  0  0  0  0  0  0  0999 V2000
   -1.0314    0.2323   -0.1227 C   0  0  0  0  0  0  0  0  0  0  0  0
    0.3094   -0.4511    0.0063 C   0  0  0  0  0  0  0  0  0  0  0  0
    0.3197   -1.7698    0.6841 N   0  0  0  0  0  0  0  0  0  0  0  0
   -0.7498   -2.1455    1.0557 O   0  0  0  0  0  0  0  0  0  0  0  0
   -1.4744    0.4198    0.8552 H   0  0  0  0  0  0  0  0  0  0  0  0
   -0.9073    1.1865   -0.6350 H   0  0  0  0  0  0  0  0  0  0  0  0
   -1.7319   -0.3778   -0.6927 H   0  0  0  0  0  0  0  0  0  0  0  0
    1.0375    0.1401    0.5713 H   0  0  0  0  0  0  0  0  0  0  0  0
    0.7826   -0.6494   -0.9609 H   0  0  0  0  0  0  0  0  0  0  0  0
  1  2  1  0
  1  5  1  0
  1  6  1  0
  1  7  1  0
  2  3  1  0
  2  8  1  0
  2  9  1  0
  3  4  2  0
M  END
>  <reaction>  (3) 
rmg_rxn_15613

>  <mol_properties>  (3) 
{"0": {"label": "acceptor", "atom_type": "Cs"}, "8": {"label": "a_hydrogen", "atom_type": "H0"}}

>  <type>  (3) 
r2h

$$$$

     RDKit          3D

 17 15  0  0  0  0  0  0  0  0999 V2000
    1.0943    1.1952   -0.3047 C   0  0  0  0  0  3  0  0  0  0  0  0
    1.2190   -0.2957   -0.2032 C   0  0  0  0  0  0  0  0  0  0  0  0
    2.6642   -0.6326   -0.3741 N   0  0  0  0  0  0  0  0  0  0  0  0
    3.2069   -0.9575    0.6393 O   0  0  0  0  0  0  0  0  0  0  0  0
    1.5450    1.7394    0.5227 H   0  0  0  0  0  0  0  0  0  0  0  0
    1.3639    1.6118   -1.2725 H   0  0  0  0  0  0  0  0  0  0  0  0
    0.8728   -0.6760    0.7600 H   0  0  0  0  0  0  0  0  0  0  0  0
    0.6913   -0.7860   -1.0232 H   0  0  0  0  0  0  0  0  0  0  0  0
   -1.5497    1.6433   -0.0567 C   0  0  0  0  0  0  0  0  0  0  0  0
   -2.0810    0.4975    0.5136 O   0  0  0  0  0  0  0  0  0  0  0  0
   -2.1603   -0.5192   -0.4181 N   0  0  0  0  0  0  0  0  0  0  0  0
   -2.5995   -1.5868    0.0950 C   0  0  0  0  0  0  0  0  0  0  0  0
   -0.2429    1.4749   -0.1957 H   0  0  0  0  0  0  0  0  0  0  0  0
   -1.6781    2.4632    0.6447 H   0  0  0  0  0  0  0  0  0  0  0  0
   -1.9290    1.8414   -1.0585 H   0  0  0  0  0  0  0  0  0  0  0  0
   -2.7005   -2.4348   -0.5690 H   0  0  0  0  0  0  0  0  0  0  0  0
   -2.8685   -1.6663    1.1457 H   0  0  0  0  0  0  0  0  0  0  0  0
  1  2  1  0
  1  5  1  0
  1  6  1  0
  2  3  1  0
  2  7  1  0
  2  8  1  0
  3  4  2  0
  9 10  1  0
  9 13  1  0
  9 14  1  0
  9 15  1  0
 10 11  1  0
 11 12  2  3
 12 16  1  0
 12 17  1  0
M  RAD  1   1   2
M  END
>  <reaction>  (4) 
rmg_rxn_15613

>  <mol_properties>  (4) 
{"0": {"label": "*3", "atom_type": "Cs"}, "1": {"label": "*4", "atom_type": "Cs"}, "8": {"label": "*1", "atom_type": "Cs"}, "9": {"label": "*0", "atom_type": "O2s"}, "12": {"label": "*2", "atom_type": "H0"}}

>  <type>  (4) 
ts

$$$$
