
     RDKit          3D

  9  8  0  0  0  0  0  0  0  0999 V2000
   -1.5470   -0.0755   -0.1976 C   0  0  0  0  0  0  0  0  0  0  0  0
   -0.2885    0.4507    0.1749 O   0  0  0  0  0  0  0  0  0  0  0  0
   -0.1502    1.7216   -0.3294 N   0  0  0  0  0  0  0  0  0  0  0  0
    0.9626    2.2353   -0.0219 C   0  0  0  0  0  0  0  0  0  0  0  0
   -1.6392   -0.1356   -1.2844 H   0  0  0  0  0  0  0  0  0  0  0  0
   -2.3597    0.5337    0.2044 H   0  0  0  0  0  0  0  0  0  0  0  0
   -1.5879   -1.0750    0.2318 H   0  0  0  0  0  0  0  0  0  0  0  0
    1.1497    3.2381   -0.3820 H   0  0  0  0  0  0  0  0  0  0  0  0
    1.7060    1.7101    0.5739 H   0  0  0  0  0  0  0  0  0  0  0  0
  1  2  1  0
  1  5  1  0
  1  6  1  0
  1  7  1  0
  2  3  1  0
  3  4  2  3
  4  8  1  0
  4  9  1  0
M  END
>  <reaction>  (1) 
rmg_rxn_15628

>  <mol_properties>  (1) 
{"0": {"label": "donator", "atom_type": "Cs"}, "4": {"label": "d_hydrogen", "atom_type": "H0"}}

>  <type>  (1) 
r1h

$$$$

     RDKit          3D

 11 10  0  0  0  0  0  0  0  0999 V2000
   -1.8197    0.8251    0.1297 C   0  0  0  0  0  0  0  0  0  0  0  0
   -0.8629    0.2537   -0.8237 C   0  0  0  0  0  3  0  0  0  0  0  0
    0.3308   -0.2746   -0.8374 C   0  0  0  0  0  0  0  0  0  0  0  0
    1.0596   -0.7855   -2.0466 C   0  0  0  0  0  0  0  0  0  0  0  0
   -2.7576    0.2657    0.1344 H   0  0  0  0  0  0  0  0  0  0  0  0
   -2.0537    1.8630   -0.1163 H   0  0  0  0  0  0  0  0  0  0  0  0
   -1.4082    0.8035    1.1478 H   0  0  0  0  0  0  0  0  0  0  0  0
    0.8635   -0.3596    0.1165 H   0  0  0  0  0  0  0  0  0  0  0  0
    2.0033   -0.2520   -2.1835 H   0  0  0  0  0  0  0  0  0  0  0  0
    1.3011   -1.8452   -1.9334 H   0  0  0  0  0  0  0  0  0  0  0  0
    0.4599   -0.6627   -2.9476 H   0  0  0  0  0  0  0  0  0  0  0  0
  1  2  1  0
  1  5  1  0
  1  6  1  0
  1  7  1  0
  2  3  2  3
  3  4  1  0
  3  8  1  0
  4  9  1  0
  4 10  1  0
  4 11  1  0
M  RAD  1   2   2
M  END
>  <reaction>  (2) 
rmg_rxn_15628

>  <mol_properties>  (2) 
{"1": {"label": "acceptor", "atom_type": "Cd"}}

>  <type>  (2) 
r2

$$$$

     RDKit          3D

 12 11  0  0  0  0  0  0  0  0999 V2000
    1.4428    0.2441    1.3554 C   0  0  0  0  0  0  0  0  0  0  0  0
    0.3166    0.4887    0.4026 C   0  0  0  0  0  0  0  0  0  0  0  0
   -0.8306    1.0759    0.7113 C   0  0  0  0  0  0  0  0  0  0  0  0
   -1.9569    1.3205   -0.2415 C   0  0  0  0  0  0  0  0  0  0  0  0
    1.6690   -0.8228    1.4301 H   0  0  0  0  0  0  0  0  0  0  0  0
    2.3573    0.7388    1.0175 H   0  0  0  0  0  0  0  0  0  0  0  0
    1.2058    0.6125    2.3545 H   0  0  0  0  0  0  0  0  0  0  0  0
    0.4700    0.1508   -0.6205 H   0  0  0  0  0  0  0  0  0  0  0  0
   -0.9840    1.4138    1.7343 H   0  0  0  0  0  0  0  0  0  0  0  0
   -2.8714    0.8258    0.0963 H   0  0  0  0  0  0  0  0  0  0  0  0
   -2.1831    2.3874   -0.3163 H   0  0  0  0  0  0  0  0  0  0  0  0
   -1.7199    0.9521   -1.2407 H   0  0  0  0  0  0  0  0  0  0  0  0
  1  2  1  0
  1  5  1  0
  1  6  1  0
  1  7  1  0
  2  3  2  3
  2  8  1  0
  3  4  1  0
  3  9  1  0
  4 10  1  0
  4 11  1  0
  4 12  1  0
M  END
>  <reaction>  (3) 
rmg_rxn_15628

>  <mol_properties>  (3) 
{"0": {"label": "a_hydrogen", "atom_type": "H0"}, "2": {"label": "acceptor", "atom_type": "Cd"}}

>  <type>  (3) 
r2h

$$$$

     RDKit          3D

 20 18  0  0  0  0  0  0  0  0999 V2000
   -1.1357    1.1685    0.3516 C   0  0  0  0  0  0  0  0  0  0  0  0
   -1.2725    0.7374   -0.9646 O   0  0  0  0  0  0  0  0  0  0  0  0
   -1.6911   -0.5752   -0.9966 N   0  0  0  0  0  0  0  0  0  0  0  0
   -1.7296   -1.0255   -2.1764 C   0  0  0  0  0  0  0  0  0  0  0  0
   -0.1217    0.5550    0.8807 H   0  0  0  0  0  0  0  0  0  0  0  0
   -1.9969    0.9171    0.9717 H   0  0  0  0  0  0  0  0  0  0  0  0
   -0.9061    2.2310    0.3316 H   0  0  0  0  0  0  0  0  0  0  0  0
   -2.0595   -2.0491   -2.2923 H   0  0  0  0  0  0  0  0  0  0  0  0
   -1.4487   -0.4293   -3.0416 H   0  0  0  0  0  0  0  0  0  0  0  0
    0.5136   -1.0862    2.5018 C   0  0  0  0  0  0  0  0  0  0  0  0
    0.9280   -0.2304    1.3653 C   0  0  0  0  0  3  0  0  0  0  0  0
    2.0802   -0.1295    0.7378 C   0  0  0  0  0  0  0  0  0  0  0  0
    2.3735    0.7608   -0.4316 C   0  0  0  0  0  0  0  0  0  0  0  0
   -0.3182   -1.7333    2.2125 H   0  0  0  0  0  0  0  0  0  0  0  0
    0.1760   -0.4840    3.3491 H   0  0  0  0  0  0  0  0  0  0  0  0
    1.3394   -1.7193    2.8418 H   0  0  0  0  0  0  0  0  0  0  0  0
    2.9108   -0.7493    1.0859 H   0  0  0  0  0  0  0  0  0  0  0  0
    3.1590    1.4807   -0.1872 H   0  0  0  0  0  0  0  0  0  0  0  0
    2.7308    0.1752   -1.2824 H   0  0  0  0  0  0  0  0  0  0  0  0
    1.4876    1.3101   -0.7485 H   0  0  0  0  0  0  0  0  0  0  0  0
  1  2  1  0
  1  5  1  0
  1  6  1  0
  1  7  1  0
  2  3  1  0
  3  4  2  3
  4  8  1  0
  4  9  1  0
 10 11  1  0
 10 14  1  0
 10 15  1  0
 10 16  1  0
 11 12  2  3
 12 13  1  0
 12 17  1  0
 13 18  1  0
 13 19  1  0
 13 20  1  0
M  RAD  1  11   2
M  END
>  <reaction>  (4) 
rmg_rxn_15628

>  <mol_properties>  (4) 
{"0": {"label": "*1", "atom_type": "Cs"}, "1": {"label": "*0", "atom_type": "O2s"}, "4": {"label": "*2", "atom_type": "H0"}, "10": {"label": "*3", "atom_type": "Cd"}, "11": {"label": "*4", "atom_type": "Cd"}}

>  <type>  (4) 
ts

$$$$
