
     RDKit          3D

 15 14  0  0  0  0  0  0  0  0999 V2000
   -2.0554    0.0723   -0.4910 C   0  0  0  0  0  0  0  0  0  0  0  0
   -0.7461   -0.6266   -0.8178 C   0  0  0  0  0  0  0  0  0  0  0  0
    0.3249    0.2591   -1.9782 S   0  0  0  0  0  0  0  0  0  0  0  0
   -0.7172    0.3642   -3.4551 C   0  0  0  0  0  0  0  0  0  0  0  0
   -1.1375   -0.9737   -4.0409 C   0  0  0  0  0  0  0  0  0  0  0  0
   -2.7005    0.1427   -1.3684 H   0  0  0  0  0  0  0  0  0  0  0  0
   -2.6016   -0.4848    0.2733 H   0  0  0  0  0  0  0  0  0  0  0  0
   -1.8758    1.0825   -0.1213 H   0  0  0  0  0  0  0  0  0  0  0  0
   -0.1320   -0.7246    0.0789 H   0  0  0  0  0  0  0  0  0  0  0  0
   -0.9254   -1.6374   -1.1879 H   0  0  0  0  0  0  0  0  0  0  0  0
   -1.5873    0.9874   -3.2422 H   0  0  0  0  0  0  0  0  0  0  0  0
   -0.1021    0.9161   -4.1678 H   0  0  0  0  0  0  0  0  0  0  0  0
   -1.7876   -1.5224   -3.3574 H   0  0  0  0  0  0  0  0  0  0  0  0
   -0.2676   -1.5962   -4.2534 H   0  0  0  0  0  0  0  0  0  0  0  0
   -1.6916   -0.8229   -4.9700 H   0  0  0  0  0  0  0  0  0  0  0  0
  1  2  1  0
  1  6  1  0
  1  7  1  0
  1  8  1  0
  2  3  1  0
  2  9  1  0
  2 10  1  0
  3  4  1  0
  4  5  1  0
  4 11  1  0
  4 12  1  0
  5 13  1  0
  5 14  1  0
  5 15  1  0
M  END
>  <reaction>  (1) 
rmg_rxn_158

>  <mol_properties>  (1) 
{"0": {"label": "donator", "atom_type": "Cs"}, "5": {"label": "d_hydrogen", "atom_type": "H0"}}

>  <type>  (1) 
r1h

$$$$

     RDKit          3D

 17 16  0  0  0  0  0  0  0  0999 V2000
    3.3619    0.3511   -1.0290 C   0  0  0  0  0  3  0  0  0  0  0  0
    2.1806    1.0643   -0.5073 C   0  0  0  0  0  0  0  0  0  0  0  0
    1.4028    0.1998    0.2757 O   0  0  0  0  0  0  0  0  0  0  0  0
    0.2433    0.8081    0.7885 C   0  0  0  0  0  0  0  0  0  0  0  0
   -0.5040   -0.1878    1.6510 C   0  0  0  0  0  0  0  0  0  0  0  0
    0.2852   -0.6298    2.8762 C   0  0  0  0  0  0  0  0  0  0  0  0
    4.1174    0.8902   -1.5820 H   0  0  0  0  0  0  0  0  0  0  0  0
    3.4399   -0.7198   -0.9141 H   0  0  0  0  0  0  0  0  0  0  0  0
    1.5724    1.4684   -1.3398 H   0  0  0  0  0  0  0  0  0  0  0  0
    2.4896    1.9442    0.0856 H   0  0  0  0  0  0  0  0  0  0  0  0
    0.5169    1.6937    1.3835 H   0  0  0  0  0  0  0  0  0  0  0  0
   -0.3954    1.1528   -0.0379 H   0  0  0  0  0  0  0  0  0  0  0  0
   -0.7611   -1.0545    1.0367 H   0  0  0  0  0  0  0  0  0  0  0  0
   -1.4466    0.2743    1.9571 H   0  0  0  0  0  0  0  0  0  0  0  0
    0.5263    0.2245    3.5136 H   0  0  0  0  0  0  0  0  0  0  0  0
    1.2220   -1.1033    2.5825 H   0  0  0  0  0  0  0  0  0  0  0  0
   -0.2849   -1.3427    3.4737 H   0  0  0  0  0  0  0  0  0  0  0  0
  1  2  1  0
  1  7  1  0
  1  8  1  0
  2  3  1  0
  2  9  1  0
  2 10  1  0
  3  4  1  0
  4  5  1  0
  4 11  1  0
  4 12  1  0
  5  6  1  0
  5 13  1  0
  5 14  1  0
  6 15  1  0
  6 16  1  0
  6 17  1  0
M  RAD  1   1   2
M  END
>  <reaction>  (2) 
rmg_rxn_158

>  <mol_properties>  (2) 
{"0": {"label": "acceptor", "atom_type": "Cs"}}

>  <type>  (2) 
r2

$$$$

     RDKit          3D

 18 17  0  0  0  0  0  0  0  0999 V2000
    2.2026   -0.7213   -0.2612 C   0  0  0  0  0  0  0  0  0  0  0  0
    1.5384    0.2638    0.6915 C   0  0  0  0  0  0  0  0  0  0  0  0
    2.2584    1.5946    0.7694 C   0  0  0  0  0  0  0  0  0  0  0  0
    2.2212    2.2185   -0.4893 O   0  0  0  0  0  0  0  0  0  0  0  0
    2.8988    3.4488   -0.5204 C   0  0  0  0  0  0  0  0  0  0  0  0
    2.7981    4.0296   -1.9118 C   0  0  0  0  0  0  0  0  0  0  0  0
    3.2294   -0.9309    0.0486 H   0  0  0  0  0  0  0  0  0  0  0  0
    2.2338   -0.3181   -1.2734 H   0  0  0  0  0  0  0  0  0  0  0  0
    1.6610   -1.6680   -0.2875 H   0  0  0  0  0  0  0  0  0  0  0  0
    1.4990   -0.1566    1.7002 H   0  0  0  0  0  0  0  0  0  0  0  0
    0.5055    0.4455    0.3835 H   0  0  0  0  0  0  0  0  0  0  0  0
    3.3038    1.4410    1.0808 H   0  0  0  0  0  0  0  0  0  0  0  0
    1.7844    2.2410    1.5226 H   0  0  0  0  0  0  0  0  0  0  0  0
    2.4596    4.1376    0.2164 H   0  0  0  0  0  0  0  0  0  0  0  0
    3.9524    3.3035   -0.2397 H   0  0  0  0  0  0  0  0  0  0  0  0
    1.7543    4.1869   -2.1856 H   0  0  0  0  0  0  0  0  0  0  0  0
    3.2472    3.3545   -2.6411 H   0  0  0  0  0  0  0  0  0  0  0  0
    3.3178    4.9878   -1.9600 H   0  0  0  0  0  0  0  0  0  0  0  0
  1  2  1  0
  1  7  1  0
  1  8  1  0
  1  9  1  0
  2  3  1  0
  2 10  1  0
  2 11  1  0
  3  4  1  0
  3 12  1  0
  3 13  1  0
  4  5  1  0
  5  6  1  0
  5 14  1  0
  5 15  1  0
  6 16  1  0
  6 17  1  0
  6 18  1  0
M  END
>  <reaction>  (3) 
rmg_rxn_158

>  <mol_properties>  (3) 
{"0": {"label": "a_hydrogen", "atom_type": "H0"}, "1": {"label": "acceptor", "atom_type": "Cs"}}

>  <type>  (3) 
r2h

$$$$

     RDKit          3D

 32 30  0  0  0  0  0  0  0  0999 V2000
    0.1031    2.5235    0.8716 C   0  0  0  0  0  0  0  0  0  0  0  0
   -1.2605    3.0732    0.5439 C   0  0  0  0  0  0  0  0  0  0  0  0
   -2.6645    2.1374    1.1963 S   0  0  0  0  0  0  0  0  0  0  0  0
   -2.5782    0.5933    0.2568 C   0  0  0  0  0  0  0  0  0  0  0  0
   -2.8534    0.7343   -1.2307 C   0  0  0  0  0  0  0  0  0  0  0  0
    0.4058    1.5099    0.0582 H   0  0  0  0  0  0  0  0  0  0  0  0
    0.9121    3.2188    0.6477 H   0  0  0  0  0  0  0  0  0  0  0  0
    0.1910    2.1069    1.8735 H   0  0  0  0  0  0  0  0  0  0  0  0
   -1.3865    4.0614    0.9970 H   0  0  0  0  0  0  0  0  0  0  0  0
   -1.3774    3.2177   -0.5326 H   0  0  0  0  0  0  0  0  0  0  0  0
   -1.6126    0.1197    0.4350 H   0  0  0  0  0  0  0  0  0  0  0  0
   -3.3321   -0.0417    0.7250 H   0  0  0  0  0  0  0  0  0  0  0  0
   -2.1161    1.3766   -1.7147 H   0  0  0  0  0  0  0  0  0  0  0  0
   -3.8402    1.1642   -1.4045 H   0  0  0  0  0  0  0  0  0  0  0  0
   -2.8088   -0.2422   -1.7187 H   0  0  0  0  0  0  0  0  0  0  0  0
    0.8449    0.5012   -0.7375 C   0  0  0  0  0  3  0  0  0  0  0  0
    1.2752   -0.5768    0.2093 C   0  0  0  0  0  0  0  0  0  0  0  0
    1.7208   -1.6973   -0.5188 O   0  0  0  0  0  0  0  0  0  0  0  0
    2.1419   -2.7583    0.3041 C   0  0  0  0  0  0  0  0  0  0  0  0
    2.6378   -3.8976   -0.5623 C   0  0  0  0  0  0  0  0  0  0  0  0
    3.8591   -3.5294   -1.3942 C   0  0  0  0  0  0  0  0  0  0  0  0
    1.6555    0.9449   -1.3110 H   0  0  0  0  0  0  0  0  0  0  0  0
   -0.0050    0.2364   -1.3621 H   0  0  0  0  0  0  0  0  0  0  0  0
    0.4391   -0.8682    0.8637 H   0  0  0  0  0  0  0  0  0  0  0  0
    2.0805   -0.2106    0.8627 H   0  0  0  0  0  0  0  0  0  0  0  0
    2.9452   -2.4156    0.9751 H   0  0  0  0  0  0  0  0  0  0  0  0
    1.3078   -3.0948    0.9371 H   0  0  0  0  0  0  0  0  0  0  0  0
    1.8217   -4.2182   -1.2151 H   0  0  0  0  0  0  0  0  0  0  0  0
    2.8695   -4.7418    0.0930 H   0  0  0  0  0  0  0  0  0  0  0  0
    4.6916   -3.2298   -0.7527 H   0  0  0  0  0  0  0  0  0  0  0  0
    3.6349   -2.6980   -2.0624 H   0  0  0  0  0  0  0  0  0  0  0  0
    4.1906   -4.3742   -1.9997 H   0  0  0  0  0  0  0  0  0  0  0  0
  1  2  1  0
  1  6  1  0
  1  7  1  0
  1  8  1  0
  2  3  1  0
  2  9  1  0
  2 10  1  0
  3  4  1  0
  4  5  1  0
  4 11  1  0
  4 12  1  0
  5 13  1  0
  5 14  1  0
  5 15  1  0
 16 17  1  0
 16 22  1  0
 16 23  1  0
 17 18  1  0
 17 24  1  0
 17 25  1  0
 18 19  1  0
 19 20  1  0
 19 26  1  0
 19 27  1  0
 20 21  1  0
 20 28  1  0
 20 29  1  0
 21 30  1  0
 21 31  1  0
 21 32  1  0
M  RAD  1  16   2
M  END
>  <reaction>  (4) 
rmg_rxn_158

>  <mol_properties>  (4) 
{"0": {"label": "*1", "atom_type": "Cs"}, "1": {"label": "*0", "atom_type": "Cs"}, "5": {"label": "*2", "atom_type": "H0"}, "15": {"label": "*3", "atom_type": "Cs"}, "16": {"label": "*4", "atom_type": "Cs"}}

>  <type>  (4) 
ts

$$$$
