
     RDKit          3D

  9  8  0  0  0  0  0  0  0  0999 V2000
   -1.5470   -0.0755   -0.1976 C   0  0  0  0  0  0  0  0  0  0  0  0
   -0.2885    0.4507    0.1749 O   0  0  0  0  0  0  0  0  0  0  0  0
   -0.1502    1.7216   -0.3294 N   0  0  0  0  0  0  0  0  0  0  0  0
    0.9626    2.2353   -0.0219 C   0  0  0  0  0  0  0  0  0  0  0  0
   -1.6392   -0.1356   -1.2844 H   0  0  0  0  0  0  0  0  0  0  0  0
   -2.3597    0.5337    0.2044 H   0  0  0  0  0  0  0  0  0  0  0  0
   -1.5879   -1.0750    0.2318 H   0  0  0  0  0  0  0  0  0  0  0  0
    1.1497    3.2381   -0.3820 H   0  0  0  0  0  0  0  0  0  0  0  0
    1.7060    1.7101    0.5739 H   0  0  0  0  0  0  0  0  0  0  0  0
  1  2  1  0
  1  5  1  0
  1  6  1  0
  1  7  1  0
  2  3  1  0
  3  4  2  3
  4  8  1  0
  4  9  1  0
M  END
>  <reaction>  (1) 
rmg_rxn_15595

>  <mol_properties>  (1) 
{"0": {"label": "donator", "atom_type": "Cs"}, "4": {"label": "d_hydrogen", "atom_type": "H0"}}

>  <type>  (1) 
r1h

$$$$

     RDKit          3D

  1  0  0  0  0  0  0  0  0  0999 V2000
    0.0000    0.0000    0.0000 H   0  0  0  0  0 15  0  0  0  0  0  0
M  END
>  <reaction>  (2) 
rmg_rxn_15595

>  <mol_properties>  (2) 
{"0": {"label": "acceptor", "atom_type": "H0"}}

>  <type>  (2) 
r2

$$$$

     RDKit          3D

  2  1  0  0  0  0  0  0  0  0999 V2000
    0.0000    0.0000    0.3721 H   0  0  0  0  0  0  0  0  0  0  0  0
    0.0000    0.0000   -0.3721 H   0  0  0  0  0  0  0  0  0  0  0  0
  1  2  1  0
M  END
>  <reaction>  (3) 
rmg_rxn_15595

>  <mol_properties>  (3) 
{"0": {"label": "acceptor", "atom_type": "H0"}, "1": {"label": "a_hydrogen", "atom_type": "H0"}}

>  <type>  (3) 
r2h

$$$$

     RDKit          3D

 10  8  0  0  0  0  0  0  0  0999 V2000
    2.1878    1.1594   -1.7707 H   0  0  0  0  0 15  0  0  0  0  0  0
    1.6411    0.0635    0.1606 C   0  0  0  0  0  0  0  0  0  0  0  0
    0.3909   -0.4994    0.0001 O   0  0  0  0  0  0  0  0  0  0  0  0
   -0.5961    0.4607    0.1272 N   0  0  0  0  0  0  0  0  0  0  0  0
   -1.7395   -0.0175   -0.1154 C   0  0  0  0  0  0  0  0  0  0  0  0
    1.9733    0.6892   -0.9212 H   0  0  0  0  0  0  0  0  0  0  0  0
    2.3689   -0.7364    0.2673 H   0  0  0  0  0  0  0  0  0  0  0  0
    1.6793    0.8208    0.9425 H   0  0  0  0  0  0  0  0  0  0  0  0
   -2.5747    0.6644   -0.0275 H   0  0  0  0  0  0  0  0  0  0  0  0
   -1.8947   -1.0559   -0.3985 H   0  0  0  0  0  0  0  0  0  0  0  0
  2  3  1  0
  2  6  1  0
  2  7  1  0
  2  8  1  0
  3  4  1  0
  4  5  2  3
  5  9  1  0
  5 10  1  0
M  END
>  <reaction>  (4) 
rmg_rxn_15595

>  <mol_properties>  (4) 
{"0": {"label": "*1", "atom_type": "H0"}, "1": {"label": "*3", "atom_type": "Cs"}, "2": {"label": "*4", "atom_type": "O2s"}, "5": {"label": "*2", "atom_type": "H0"}}

>  <type>  (4) 
ts

$$$$
