
     RDKit          3D

  9  9  0  0  0  0  0  0  0  0999 V2000
    1.1178    0.0251    0.0062 C   0  0  0  0  0  0  0  0  0  0  0  0
   -0.3279   -0.3139    0.1785 C   0  0  0  0  0  0  0  0  0  0  0  0
   -0.7053   -1.0901    1.3173 N   0  0  0  0  0  0  0  0  0  0  0  0
   -1.0350    0.3361    1.1839 O   0  0  0  0  0  0  0  0  0  0  0  0
    1.6209   -0.7545   -0.5686 H   0  0  0  0  0  0  0  0  0  0  0  0
    1.5927    0.1144    0.9820 H   0  0  0  0  0  0  0  0  0  0  0  0
    1.2207    0.9683   -0.5327 H   0  0  0  0  0  0  0  0  0  0  0  0
   -0.8945   -0.4615   -0.7417 H   0  0  0  0  0  0  0  0  0  0  0  0
   -1.5832   -1.5647    1.1026 H   0  0  0  0  0  0  0  0  0  0  0  0
  1  2  1  0
  1  5  1  0
  1  6  1  0
  1  7  1  0
  2  3  1  0
  2  4  1  0
  2  8  1  0
  3  4  1  0
  3  9  1  0
M  END
>  <reaction>  (1) 
rmg_rxn_16633

>  <mol_properties>  (1) 
{"2": {"label": "donator", "atom_type": "N3s"}, "8": {"label": "d_hydrogen", "atom_type": "H0"}}

>  <type>  (1) 
r1h

$$$$

     RDKit          3D

  7  6  0  0  0  0  0  0  0  0999 V2000
   -0.6441   -0.1356    0.0624 C   0  0  0  0  0  0  0  0  0  0  0  0
    0.8523    0.0148   -0.0333 C   0  0  0  0  0  0  0  0  0  0  0  0
    1.6700   -0.6077    0.6603 N   0  0  0  0  0  2  0  0  0  0  0  0
   -1.0940    0.8275    0.3091 H   0  0  0  0  0  0  0  0  0  0  0  0
   -0.9104   -0.8656    0.8237 H   0  0  0  0  0  0  0  0  0  0  0  0
   -1.0427   -0.4545   -0.9022 H   0  0  0  0  0  0  0  0  0  0  0  0
    1.2362    0.7308   -0.7748 H   0  0  0  0  0  0  0  0  0  0  0  0
  1  2  1  0
  1  4  1  0
  1  5  1  0
  1  6  1  0
  2  3  2  0
  2  7  1  0
M  RAD  1   3   2
M  END
>  <reaction>  (2) 
rmg_rxn_16633

>  <mol_properties>  (2) 
{"2": {"label": "acceptor", "atom_type": "N3d"}}

>  <type>  (2) 
r2

$$$$

     RDKit          3D

  8  7  0  0  0  0  0  0  0  0999 V2000
    0.9548    0.1194   -0.0790 C   0  0  0  0  0  0  0  0  0  0  0  0
   -0.4838   -0.2649    0.0193 C   0  0  0  0  0  0  0  0  0  0  0  0
   -0.8933   -1.1081    0.8664 N   0  0  0  0  0  0  0  0  0  0  0  0
    1.3360   -0.0983   -1.0800 H   0  0  0  0  0  0  0  0  0  0  0  0
    1.0698    1.1948    0.0786 H   0  0  0  0  0  0  0  0  0  0  0  0
    1.5426   -0.4219    0.6602 H   0  0  0  0  0  0  0  0  0  0  0  0
   -1.1575    0.2324   -0.6905 H   0  0  0  0  0  0  0  0  0  0  0  0
   -1.8989   -1.2455    0.7886 H   0  0  0  0  0  0  0  0  0  0  0  0
  1  2  1  0
  1  4  1  0
  1  5  1  0
  1  6  1  0
  2  3  2  3
  2  7  1  0
  3  8  1  0
M  END
>  <reaction>  (3) 
rmg_rxn_16633

>  <mol_properties>  (3) 
{"2": {"label": "acceptor", "atom_type": "N3d"}, "7": {"label": "a_hydrogen", "atom_type": "H0"}}

>  <type>  (3) 
r2h

$$$$

     RDKit          3D

 16 15  0  0  0  0  0  0  0  0999 V2000
    1.3821   -0.9649    2.9670 C   0  0  0  0  0  0  0  0  0  0  0  0
    0.6770   -0.4124    1.7624 C   0  0  0  0  0  0  0  0  0  0  0  0
    0.9071    0.7219    1.2917 N   0  0  0  0  0  2  0  0  0  0  0  0
    0.6509   -1.1984    3.7435 H   0  0  0  0  0  0  0  0  0  0  0  0
    2.1077   -0.2514    3.3521 H   0  0  0  0  0  0  0  0  0  0  0  0
    1.8875   -1.8964    2.7035 H   0  0  0  0  0  0  0  0  0  0  0  0
   -0.0803   -1.0616    1.2910 H   0  0  0  0  0  0  0  0  0  0  0  0
   -0.4124   -0.1520   -2.9886 C   0  0  0  0  0  0  0  0  0  0  0  0
   -0.1193   -0.1934   -1.5237 C   0  0  0  0  0  0  0  0  0  0  0  0
   -0.6102    0.8438   -0.6839 N   0  0  0  0  0  0  0  0  0  0  0  0
   -1.1829   -0.4641   -0.6450 O   0  0  0  0  0  0  0  0  0  0  0  0
    0.3784    0.3926   -3.5075 H   0  0  0  0  0  0  0  0  0  0  0  0
   -1.3643    0.3464   -3.1653 H   0  0  0  0  0  0  0  0  0  0  0  0
   -0.4536   -1.1639   -3.3952 H   0  0  0  0  0  0  0  0  0  0  0  0
    0.8220   -0.6576   -1.2293 H   0  0  0  0  0  0  0  0  0  0  0  0
    0.1291    0.9311    0.2843 H   0  0  0  0  0  0  0  0  0  0  0  0
  1  2  1  0
  1  4  1  0
  1  5  1  0
  1  6  1  0
  2  3  2  0
  2  7  1  0
  8  9  1  0
  8 12  1  0
  8 13  1  0
  8 14  1  0
  9 10  1  0
  9 11  1  0
  9 15  1  0
 10 11  1  0
 10 16  1  0
M  RAD  1   3   2
M  END
>  <reaction>  (4) 
rmg_rxn_16633

>  <mol_properties>  (4) 
{"1": {"label": "*4", "atom_type": "Cd"}, "2": {"label": "*3", "atom_type": "N3d"}, "9": {"label": "*1", "atom_type": "N3s"}, "10": {"label": "*0", "atom_type": "O2s"}, "15": {"label": "*2", "atom_type": "H0"}}

>  <type>  (4) 
ts

$$$$
