
     RDKit          3D

 12 11  0  0  0  0  0  0  0  0999 V2000
    1.8075    0.1979    0.4695 C   0  0  0  0  0  0  0  0  0  0  0  0
    1.0072   -0.8859   -0.7259 S   0  0  0  0  0  0  0  0  0  0  0  0
   -0.7258   -0.6904   -0.2447 C   0  0  0  0  0  0  0  0  0  0  0  0
   -1.0856   -1.2776    1.1108 C   0  0  0  0  0  0  0  0  0  0  0  0
    1.7126   -0.1777    1.4878 H   0  0  0  0  0  0  0  0  0  0  0  0
    1.4024    1.2089    0.4095 H   0  0  0  0  0  0  0  0  0  0  0  0
    2.8647    0.2298    0.2095 H   0  0  0  0  0  0  0  0  0  0  0  0
   -1.2866   -1.1892   -1.0369 H   0  0  0  0  0  0  0  0  0  0  0  0
   -0.9814    0.3707   -0.2917 H   0  0  0  0  0  0  0  0  0  0  0  0
   -0.5492   -0.7768    1.9180 H   0  0  0  0  0  0  0  0  0  0  0  0
   -0.8418   -2.3397    1.1503 H   0  0  0  0  0  0  0  0  0  0  0  0
   -2.1545   -1.1604    1.3035 H   0  0  0  0  0  0  0  0  0  0  0  0
  1  2  1  0
  1  5  1  0
  1  6  1  0
  1  7  1  0
  2  3  1  0
  3  4  1  0
  3  8  1  0
  3  9  1  0
  4 10  1  0
  4 11  1  0
  4 12  1  0
M  END
>  <reaction>  (1) 
rmg_rxn_524

>  <mol_properties>  (1) 
{"0": {"label": "donator", "atom_type": "Cs"}, "4": {"label": "d_hydrogen", "atom_type": "H0"}}

>  <type>  (1) 
r1h

$$$$

     RDKit          3D

 17 16  0  0  0  0  0  0  0  0999 V2000
    2.3128   -0.1525    1.1777 C   0  0  0  0  0  3  0  0  0  0  0  0
    1.7469    0.7266    0.1254 C   0  0  0  0  0  0  0  0  0  0  0  0
    1.6374    2.1830    0.5408 C   0  0  0  0  0  0  0  0  0  0  0  0
    2.9245    2.6874    0.7877 O   0  0  0  0  0  0  0  0  0  0  0  0
    2.9227    4.0197    1.2361 C   0  0  0  0  0  0  0  0  0  0  0  0
    4.3491    4.4603    1.4693 C   0  0  0  0  0  0  0  0  0  0  0  0
    2.1393   -1.2196    1.1557 H   0  0  0  0  0  0  0  0  0  0  0  0
    3.0313    0.2400    1.8838 H   0  0  0  0  0  0  0  0  0  0  0  0
    0.7555    0.3746   -0.1764 H   0  0  0  0  0  0  0  0  0  0  0  0
    2.3678    0.6841   -0.7826 H   0  0  0  0  0  0  0  0  0  0  0  0
    1.0170    2.2718    1.4449 H   0  0  0  0  0  0  0  0  0  0  0  0
    1.1499    2.7653   -0.2546 H   0  0  0  0  0  0  0  0  0  0  0  0
    2.4379    4.6655    0.4891 H   0  0  0  0  0  0  0  0  0  0  0  0
    2.3377    4.1015    2.1638 H   0  0  0  0  0  0  0  0  0  0  0  0
    4.9261    4.3920    0.5465 H   0  0  0  0  0  0  0  0  0  0  0  0
    4.3728    5.4939    1.8180 H   0  0  0  0  0  0  0  0  0  0  0  0
    4.8260    3.8299    2.2206 H   0  0  0  0  0  0  0  0  0  0  0  0
  1  2  1  0
  1  7  1  0
  1  8  1  0
  2  3  1  0
  2  9  1  0
  2 10  1  0
  3  4  1  0
  3 11  1  0
  3 12  1  0
  4  5  1  0
  5  6  1  0
  5 13  1  0
  5 14  1  0
  6 15  1  0
  6 16  1  0
  6 17  1  0
M  RAD  1   1   2
M  END
>  <reaction>  (2) 
rmg_rxn_524

>  <mol_properties>  (2) 
{"0": {"label": "acceptor", "atom_type": "Cs"}}

>  <type>  (2) 
r2

$$$$

     RDKit          3D

 18 17  0  0  0  0  0  0  0  0999 V2000
    2.2026   -0.7213   -0.2612 C   0  0  0  0  0  0  0  0  0  0  0  0
    1.5384    0.2638    0.6915 C   0  0  0  0  0  0  0  0  0  0  0  0
    2.2584    1.5946    0.7694 C   0  0  0  0  0  0  0  0  0  0  0  0
    2.2212    2.2185   -0.4893 O   0  0  0  0  0  0  0  0  0  0  0  0
    2.8988    3.4488   -0.5204 C   0  0  0  0  0  0  0  0  0  0  0  0
    2.7981    4.0296   -1.9118 C   0  0  0  0  0  0  0  0  0  0  0  0
    3.2294   -0.9309    0.0486 H   0  0  0  0  0  0  0  0  0  0  0  0
    2.2338   -0.3181   -1.2734 H   0  0  0  0  0  0  0  0  0  0  0  0
    1.6610   -1.6680   -0.2875 H   0  0  0  0  0  0  0  0  0  0  0  0
    1.4990   -0.1566    1.7002 H   0  0  0  0  0  0  0  0  0  0  0  0
    0.5055    0.4455    0.3835 H   0  0  0  0  0  0  0  0  0  0  0  0
    3.3038    1.4410    1.0808 H   0  0  0  0  0  0  0  0  0  0  0  0
    1.7844    2.2410    1.5226 H   0  0  0  0  0  0  0  0  0  0  0  0
    2.4596    4.1376    0.2164 H   0  0  0  0  0  0  0  0  0  0  0  0
    3.9524    3.3035   -0.2397 H   0  0  0  0  0  0  0  0  0  0  0  0
    1.7543    4.1869   -2.1856 H   0  0  0  0  0  0  0  0  0  0  0  0
    3.2472    3.3545   -2.6411 H   0  0  0  0  0  0  0  0  0  0  0  0
    3.3178    4.9878   -1.9600 H   0  0  0  0  0  0  0  0  0  0  0  0
  1  2  1  0
  1  7  1  0
  1  8  1  0
  1  9  1  0
  2  3  1  0
  2 10  1  0
  2 11  1  0
  3  4  1  0
  3 12  1  0
  3 13  1  0
  4  5  1  0
  5  6  1  0
  5 14  1  0
  5 15  1  0
  6 16  1  0
  6 17  1  0
  6 18  1  0
M  END
>  <reaction>  (3) 
rmg_rxn_524

>  <mol_properties>  (3) 
{"0": {"label": "a_hydrogen", "atom_type": "H0"}, "1": {"label": "acceptor", "atom_type": "Cs"}}

>  <type>  (3) 
r2h

$$$$

     RDKit          3D

 29 27  0  0  0  0  0  0  0  0999 V2000
    0.4141   -0.0027    2.7405 C   0  0  0  0  0  0  0  0  0  0  0  0
   -1.1514   -0.7771    2.4863 S   0  0  0  0  0  0  0  0  0  0  0  0
   -0.6801   -2.2660    1.5714 C   0  0  0  0  0  0  0  0  0  0  0  0
   -0.0214   -2.0191    0.2245 C   0  0  0  0  0  0  0  0  0  0  0  0
    0.8257    0.6484    1.6742 H   0  0  0  0  0  0  0  0  0  0  0  0
    1.2125   -0.7032    2.9855 H   0  0  0  0  0  0  0  0  0  0  0  0
    0.3179    0.7732    3.4974 H   0  0  0  0  0  0  0  0  0  0  0  0
   -1.6182   -2.8100    1.4489 H   0  0  0  0  0  0  0  0  0  0  0  0
   -0.0377   -2.8717    2.2146 H   0  0  0  0  0  0  0  0  0  0  0  0
    0.9437   -1.5271    0.3422 H   0  0  0  0  0  0  0  0  0  0  0  0
   -0.6347   -1.3876   -0.4180 H   0  0  0  0  0  0  0  0  0  0  0  0
    0.1504   -2.9695   -0.2861 H   0  0  0  0  0  0  0  0  0  0  0  0
    1.1744    1.3527    0.5310 C   0  0  0  0  0  3  0  0  0  0  0  0
   -0.1310    1.7871   -0.0838 C   0  0  0  0  0  0  0  0  0  0  0  0
   -0.0754    1.9207   -1.5967 C   0  0  0  0  0  0  0  0  0  0  0  0
    0.1462    0.6481   -2.1520 O   0  0  0  0  0  0  0  0  0  0  0  0
    0.2669    0.6565   -3.5513 C   0  0  0  0  0  0  0  0  0  0  0  0
    0.4930   -0.7597   -4.0280 C   0  0  0  0  0  0  0  0  0  0  0  0
    1.7153    0.6069   -0.0467 H   0  0  0  0  0  0  0  0  0  0  0  0
    1.8225    2.1515    0.8858 H   0  0  0  0  0  0  0  0  0  0  0  0
   -0.4537    2.7415    0.3384 H   0  0  0  0  0  0  0  0  0  0  0  0
   -0.9165    1.0616    0.1543 H   0  0  0  0  0  0  0  0  0  0  0  0
    0.7307    2.6076   -1.8956 H   0  0  0  0  0  0  0  0  0  0  0  0
   -1.0216    2.3348   -1.9747 H   0  0  0  0  0  0  0  0  0  0  0  0
   -0.6439    1.0744   -4.0048 H   0  0  0  0  0  0  0  0  0  0  0  0
    1.1047    1.3026   -3.8517 H   0  0  0  0  0  0  0  0  0  0  0  0
   -0.3451   -1.3969   -3.7430 H   0  0  0  0  0  0  0  0  0  0  0  0
    0.5927   -0.7830   -5.1142 H   0  0  0  0  0  0  0  0  0  0  0  0
    1.4023   -1.1701   -3.5872 H   0  0  0  0  0  0  0  0  0  0  0  0
  1  2  1  0
  1  5  1  0
  1  6  1  0
  1  7  1  0
  2  3  1  0
  3  4  1  0
  3  8  1  0
  3  9  1  0
  4 10  1  0
  4 11  1  0
  4 12  1  0
 13 14  1  0
 13 19  1  0
 13 20  1  0
 14 15  1  0
 14 21  1  0
 14 22  1  0
 15 16  1  0
 15 23  1  0
 15 24  1  0
 16 17  1  0
 17 18  1  0
 17 25  1  0
 17 26  1  0
 18 27  1  0
 18 28  1  0
 18 29  1  0
M  RAD  1  13   2
M  END
>  <reaction>  (4) 
rmg_rxn_524

>  <mol_properties>  (4) 
{"0": {"label": "*1", "atom_type": "Cs"}, "1": {"label": "*0", "atom_type": "S2s"}, "4": {"label": "*2", "atom_type": "H0"}, "12": {"label": "*3", "atom_type": "Cs"}, "13": {"label": "*4", "atom_type": "Cs"}}

>  <type>  (4) 
ts

$$$$
