
     RDKit          3D

  8  7  0  0  0  0  0  0  0  0999 V2000
    0.9548    0.1194   -0.0790 C   0  0  0  0  0  0  0  0  0  0  0  0
   -0.4838   -0.2649    0.0193 C   0  0  0  0  0  0  0  0  0  0  0  0
   -0.8933   -1.1081    0.8664 N   0  0  0  0  0  0  0  0  0  0  0  0
    1.3360   -0.0983   -1.0800 H   0  0  0  0  0  0  0  0  0  0  0  0
    1.0698    1.1948    0.0786 H   0  0  0  0  0  0  0  0  0  0  0  0
    1.5426   -0.4219    0.6602 H   0  0  0  0  0  0  0  0  0  0  0  0
   -1.1575    0.2324   -0.6905 H   0  0  0  0  0  0  0  0  0  0  0  0
   -1.8989   -1.2455    0.7886 H   0  0  0  0  0  0  0  0  0  0  0  0
  1  2  1  0
  1  4  1  0
  1  5  1  0
  1  6  1  0
  2  3  2  3
  2  7  1  0
  3  8  1  0
M  END
>  <reaction>  (1) 
rmg_rxn_16719

>  <mol_properties>  (1) 
{"2": {"label": "donator", "atom_type": "N3d"}, "7": {"label": "d_hydrogen", "atom_type": "H0"}}

>  <type>  (1) 
r1h

$$$$

     RDKit          3D

  4  3  0  0  0  0  0  0  0  0999 V2000
   -0.0235    0.0026    0.0007 C   0  0  0  0  0  0  0  0  0  0  0  0
    1.2046   -0.1325   -0.0372 N   0  0  0  0  0  2  0  0  0  0  0  0
   -0.6930   -0.8666    0.0185 H   0  0  0  0  0  0  0  0  0  0  0  0
   -0.4880    0.9965    0.0179 H   0  0  0  0  0  0  0  0  0  0  0  0
  1  2  2  0
  1  3  1  0
  1  4  1  0
M  RAD  1   2   2
M  END
>  <reaction>  (2) 
rmg_rxn_16719

>  <mol_properties>  (2) 
{"1": {"label": "acceptor", "atom_type": "N3d"}}

>  <type>  (2) 
r2

$$$$

     RDKit          3D

  5  4  0  0  0  0  0  0  0  0999 V2000
   -0.3689   -0.0540    0.1184 C   0  0  0  0  0  0  0  0  0  0  0  0
    0.7862    0.4359    0.2394 N   0  0  0  0  0  0  0  0  0  0  0  0
   -0.6872   -0.7035   -0.7033 H   0  0  0  0  0  0  0  0  0  0  0  0
   -1.1194    0.1733    0.8758 H   0  0  0  0  0  0  0  0  0  0  0  0
    1.3892    0.1482   -0.5303 H   0  0  0  0  0  0  0  0  0  0  0  0
  1  2  2  3
  1  3  1  0
  1  4  1  0
  2  5  1  0
M  END
>  <reaction>  (3) 
rmg_rxn_16719

>  <mol_properties>  (3) 
{"1": {"label": "acceptor", "atom_type": "N3d"}, "4": {"label": "a_hydrogen", "atom_type": "H0"}}

>  <type>  (3) 
r2h

$$$$

     RDKit          3D

 12 10  0  0  0  0  0  0  0  0999 V2000
    0.3269   -0.5471    2.5967 C   0  0  0  0  0  0  0  0  0  0  0  0
   -0.5791   -0.6453    1.7417 N   0  0  0  0  0  0  0  0  0  0  0  0
    1.3315   -0.1732    2.3636 H   0  0  0  0  0  0  0  0  0  0  0  0
    0.1322   -0.8408    3.6323 H   0  0  0  0  0  0  0  0  0  0  0  0
   -0.0389   -0.1009   -2.7727 C   0  0  0  0  0  0  0  0  0  0  0  0
   -0.3253   -0.3124   -1.3163 C   0  0  0  0  0  0  0  0  0  0  0  0
    0.4408    0.0832   -0.4076 N   0  0  0  0  0  2  0  0  0  0  0  0
    0.0056   -1.0651   -3.2837 H   0  0  0  0  0  0  0  0  0  0  0  0
   -0.8487    0.4732   -3.2280 H   0  0  0  0  0  0  0  0  0  0  0  0
    0.9028    0.4273   -2.9083 H   0  0  0  0  0  0  0  0  0  0  0  0
   -1.2574   -0.8405   -1.0712 H   0  0  0  0  0  0  0  0  0  0  0  0
   -0.0904   -0.2410    0.6731 H   0  0  0  0  0  0  0  0  0  0  0  0
  1  2  2  3
  1  3  1  0
  1  4  1  0
  2 12  1  0
  5  6  1  0
  5  8  1  0
  5  9  1  0
  5 10  1  0
  6  7  2  0
  6 11  1  0
M  RAD  1   7   2
M  END
>  <reaction>  (4) 
rmg_rxn_16719

>  <mol_properties>  (4) 
{"0": {"label": "*0", "atom_type": "Cd"}, "1": {"label": "*1", "atom_type": "N3d"}, "5": {"label": "*4", "atom_type": "Cd"}, "6": {"label": "*3", "atom_type": "N3d"}, "11": {"label": "*2", "atom_type": "H0"}}

>  <type>  (4) 
ts

$$$$
