
     RDKit          3D

 14 13  0  0  0  0  0  0  0  0999 V2000
   -2.6591   -0.0450    0.7000 C   0  0  0  0  0  0  0  0  0  0  0  0
   -1.3737    0.0499    0.9953 C   0  0  0  0  0  0  0  0  0  0  0  0
   -0.2409   -0.3751    0.1081 C   0  0  0  0  0  0  0  0  0  0  0  0
   -0.6541   -1.0253   -1.0741 O   0  0  0  0  0  0  0  0  0  0  0  0
   -0.8556   -2.4003   -0.9287 C   0  0  0  0  0  0  0  0  0  0  0  0
    0.3393   -3.1125   -0.7901 O   0  0  0  0  0  0  0  0  0  0  0  0
   -2.9891   -0.4550   -0.2467 H   0  0  0  0  0  0  0  0  0  0  0  0
   -3.4198    0.2910    1.3925 H   0  0  0  0  0  0  0  0  0  0  0  0
   -1.0669    0.4739    1.9478 H   0  0  0  0  0  0  0  0  0  0  0  0
    0.4535   -1.0117    0.6689 H   0  0  0  0  0  0  0  0  0  0  0  0
    0.3247    0.5078   -0.2023 H   0  0  0  0  0  0  0  0  0  0  0  0
   -1.4079   -2.7062   -1.8216 H   0  0  0  0  0  0  0  0  0  0  0  0
   -1.4388   -2.6266   -0.0318 H   0  0  0  0  0  0  0  0  0  0  0  0
    0.8543   -2.9921   -1.5911 H   0  0  0  0  0  0  0  0  0  0  0  0
  1  2  2  3
  1  7  1  0
  1  8  1  0
  2  3  1  0
  2  9  1  0
  3  4  1  0
  3 10  1  0
  3 11  1  0
  4  5  1  0
  5  6  1  0
  5 12  1  0
  5 13  1  0
  6 14  1  0
M  END
>  <reaction>  (1) 
rmg_rxn_16646

>  <mol_properties>  (1) 
{"5": {"label": "donator", "atom_type": "O2s"}, "13": {"label": "d_hydrogen", "atom_type": "H0"}}

>  <type>  (1) 
r1h

$$$$

     RDKit          3D

  7  6  0  0  0  0  0  0  0  0999 V2000
   -0.8793   -0.0517   -0.1112 C   0  0  0  0  0  0  0  0  0  0  0  0
    0.2561    0.5032    0.6662 C   0  0  0  0  0  3  0  0  0  0  0  0
    1.4646    0.2961    0.5535 N   0  0  0  0  0  0  0  0  0  0  0  0
   -0.5271   -0.7405   -0.8845 H   0  0  0  0  0  0  0  0  0  0  0  0
   -1.5620   -0.5740    0.5603 H   0  0  0  0  0  0  0  0  0  0  0  0
   -1.4387    0.7624   -0.5738 H   0  0  0  0  0  0  0  0  0  0  0  0
    2.0855    0.7832    1.1950 H   0  0  0  0  0  0  0  0  0  0  0  0
  1  2  1  0
  1  4  1  0
  1  5  1  0
  1  6  1  0
  2  3  2  3
  3  7  1  0
M  RAD  1   2   2
M  END
>  <reaction>  (2) 
rmg_rxn_16646

>  <mol_properties>  (2) 
{"1": {"label": "acceptor", "atom_type": "Cd"}}

>  <type>  (2) 
r2

$$$$

     RDKit          3D

  8  7  0  0  0  0  0  0  0  0999 V2000
    0.9548    0.1194   -0.0790 C   0  0  0  0  0  0  0  0  0  0  0  0
   -0.4838   -0.2649    0.0193 C   0  0  0  0  0  0  0  0  0  0  0  0
   -0.8933   -1.1081    0.8664 N   0  0  0  0  0  0  0  0  0  0  0  0
    1.3360   -0.0983   -1.0800 H   0  0  0  0  0  0  0  0  0  0  0  0
    1.0698    1.1948    0.0786 H   0  0  0  0  0  0  0  0  0  0  0  0
    1.5426   -0.4219    0.6602 H   0  0  0  0  0  0  0  0  0  0  0  0
   -1.1575    0.2324   -0.6905 H   0  0  0  0  0  0  0  0  0  0  0  0
   -1.8989   -1.2455    0.7886 H   0  0  0  0  0  0  0  0  0  0  0  0
  1  2  1  0
  1  4  1  0
  1  5  1  0
  1  6  1  0
  2  3  2  3
  2  7  1  0
  3  8  1  0
M  END
>  <reaction>  (3) 
rmg_rxn_16646

>  <mol_properties>  (3) 
{"1": {"label": "acceptor", "atom_type": "Cd"}, "7": {"label": "a_hydrogen", "atom_type": "H0"}}

>  <type>  (3) 
r2h

$$$$

     RDKit          3D

 21 19  0  0  0  0  0  0  0  0999 V2000
   -3.5133   -0.7307    0.3644 C   0  0  0  0  0  0  0  0  0  0  0  0
   -2.2767   -0.0997   -0.1794 C   0  0  0  0  0  0  0  0  0  0  0  0
   -2.1541    0.4642   -1.2815 N   0  0  0  0  0  0  0  0  0  0  0  0
   -3.3245   -1.7846    0.5762 H   0  0  0  0  0  0  0  0  0  0  0  0
   -3.7828   -0.2550    1.3089 H   0  0  0  0  0  0  0  0  0  0  0  0
   -4.3321   -0.6357   -0.3477 H   0  0  0  0  0  0  0  0  0  0  0  0
   -1.2142    0.8201   -1.4591 H   0  0  0  0  0  0  0  0  0  0  0  0
    2.8814   -1.8016    0.2211 C   0  0  0  0  0  0  0  0  0  0  0  0
    2.0039   -1.0890   -0.4650 C   0  0  0  0  0  0  0  0  0  0  0  0
    2.0940    0.3956   -0.6476 C   0  0  0  0  0  0  0  0  0  0  0  0
    0.8698    1.0845   -0.4685 O   0  0  0  0  0  0  0  0  0  0  0  0
    0.3879    1.1345    0.8517 C   0  0  0  0  0  0  0  0  0  0  0  0
   -0.1711   -0.0210    1.3062 O   0  0  0  0  0  1  0  0  0  0  0  0
    3.7093   -1.3313    0.7413 H   0  0  0  0  0  0  0  0  0  0  0  0
    2.8063   -2.8789    0.2923 H   0  0  0  0  0  0  0  0  0  0  0  0
    1.1725   -1.5746   -0.9663 H   0  0  0  0  0  0  0  0  0  0  0  0
    2.3926    0.6205   -1.6742 H   0  0  0  0  0  0  0  0  0  0  0  0
    2.8595    0.8112    0.0210 H   0  0  0  0  0  0  0  0  0  0  0  0
   -0.3248    1.9695    0.8565 H   0  0  0  0  0  0  0  0  0  0  0  0
    1.2063    1.3721    1.5533 H   0  0  0  0  0  0  0  0  0  0  0  0
   -1.3377   -0.1703    0.5624 H   0  0  0  0  0  0  0  0  0  0  0  0
  1  2  1  0
  1  4  1  0
  1  5  1  0
  1  6  1  0
  2  3  2  3
  2 21  1  0
  3  7  1  0
  8  9  2  3
  8 14  1  0
  8 15  1  0
  9 10  1  0
  9 16  1  0
 10 11  1  0
 10 17  1  0
 10 18  1  0
 11 12  1  0
 12 13  1  0
 12 19  1  0
 12 20  1  0
M  RAD  1  13   2
M  END
>  <reaction>  (4) 
rmg_rxn_16646

>  <mol_properties>  (4) 
{"1": {"label": "*1", "atom_type": "Cd"}, "2": {"label": "*0", "atom_type": "N3d"}, "11": {"label": "*4", "atom_type": "Cs"}, "12": {"label": "*3", "atom_type": "O2s"}, "20": {"label": "*2", "atom_type": "H0"}}

>  <type>  (4) 
ts

$$$$
