
     RDKit          3D

 14 14  0  0  0  0  0  0  0  0999 V2000
   -1.1778    0.2241    0.1818 C   0  0  0  0  0  0  0  0  0  0  0  0
   -0.5633   -1.1636    0.0678 C   0  0  0  0  0  0  0  0  0  0  0  0
    0.6943   -1.1996    0.7146 O   0  0  0  0  0  0  0  0  0  0  0  0
    1.5547   -0.2288    0.2011 C   0  0  0  0  0  0  0  0  0  0  0  0
    1.0729    1.0696    0.3698 O   0  0  0  0  0  0  0  0  0  0  0  0
   -0.1607    1.2493   -0.2989 C   0  0  0  0  0  0  0  0  0  0  0  0
   -2.0927    0.2866   -0.4117 H   0  0  0  0  0  0  0  0  0  0  0  0
   -1.4303    0.4248    1.2248 H   0  0  0  0  0  0  0  0  0  0  0  0
   -1.1822   -1.9235    0.5431 H   0  0  0  0  0  0  0  0  0  0  0  0
   -0.4389   -1.4347   -0.9919 H   0  0  0  0  0  0  0  0  0  0  0  0
    1.7250   -0.4207   -0.8742 H   0  0  0  0  0  0  0  0  0  0  0  0
    2.4896   -0.3010    0.7524 H   0  0  0  0  0  0  0  0  0  0  0  0
   -0.0080    1.1481   -1.3844 H   0  0  0  0  0  0  0  0  0  0  0  0
   -0.4826    2.2695   -0.0942 H   0  0  0  0  0  0  0  0  0  0  0  0
  1  2  1  0
  1  6  1  0
  1  7  1  0
  1  8  1  0
  2  3  1  0
  2  9  1  0
  2 10  1  0
  3  4  1  0
  4  5  1  0
  4 11  1  0
  4 12  1  0
  5  6  1  0
  6 13  1  0
  6 14  1  0
M  END
>  <reaction>  (1) 
rmg_rxn_226

>  <mol_properties>  (1) 
{"0": {"label": "donator", "atom_type": "Cs"}, "6": {"label": "d_hydrogen", "atom_type": "H0"}}

>  <type>  (1) 
r1h

$$$$

     RDKit          3D

 17 16  0  0  0  0  0  0  0  0999 V2000
    2.3993   -0.7259   -0.8796 C   0  0  0  0  0  0  0  0  0  0  0  0
    1.8173   -0.7170    0.4851 C   0  0  0  0  0  3  0  0  0  0  0  0
    2.6779   -0.5182    1.6852 C   0  0  0  0  0  0  0  0  0  0  0  0
    3.8710   -1.2723    1.6674 O   0  0  0  0  0  0  0  0  0  0  0  0
    3.6589   -2.6587    1.8015 C   0  0  0  0  0  0  0  0  0  0  0  0
    4.9969   -3.3586    1.7556 C   0  0  0  0  0  0  0  0  0  0  0  0
    3.3755   -1.2152   -0.8894 H   0  0  0  0  0  0  0  0  0  0  0  0
    1.7457   -1.2284   -1.5943 H   0  0  0  0  0  0  0  0  0  0  0  0
    2.5578    0.2962   -1.2545 H   0  0  0  0  0  0  0  0  0  0  0  0
    0.7445   -0.6275    0.6059 H   0  0  0  0  0  0  0  0  0  0  0  0
    2.1057   -0.7316    2.5992 H   0  0  0  0  0  0  0  0  0  0  0  0
    3.0103    0.5272    1.7516 H   0  0  0  0  0  0  0  0  0  0  0  0
    3.0050   -3.0235    0.9977 H   0  0  0  0  0  0  0  0  0  0  0  0
    3.1469   -2.8645    2.7531 H   0  0  0  0  0  0  0  0  0  0  0  0
    5.6430   -3.0039    2.5594 H   0  0  0  0  0  0  0  0  0  0  0  0
    4.8641   -4.4360    1.8660 H   0  0  0  0  0  0  0  0  0  0  0  0
    5.4957   -3.1672    0.8046 H   0  0  0  0  0  0  0  0  0  0  0  0
  1  2  1  0
  1  7  1  0
  1  8  1  0
  1  9  1  0
  2  3  1  0
  2 10  1  0
  3  4  1  0
  3 11  1  0
  3 12  1  0
  4  5  1  0
  5  6  1  0
  5 13  1  0
  5 14  1  0
  6 15  1  0
  6 16  1  0
  6 17  1  0
M  RAD  1   2   2
M  END
>  <reaction>  (2) 
rmg_rxn_226

>  <mol_properties>  (2) 
{"1": {"label": "acceptor", "atom_type": "Cs"}}

>  <type>  (2) 
r2

$$$$

     RDKit          3D

 18 17  0  0  0  0  0  0  0  0999 V2000
    2.2026   -0.7213   -0.2612 C   0  0  0  0  0  0  0  0  0  0  0  0
    1.5384    0.2638    0.6915 C   0  0  0  0  0  0  0  0  0  0  0  0
    2.2584    1.5946    0.7694 C   0  0  0  0  0  0  0  0  0  0  0  0
    2.2212    2.2185   -0.4893 O   0  0  0  0  0  0  0  0  0  0  0  0
    2.8988    3.4488   -0.5204 C   0  0  0  0  0  0  0  0  0  0  0  0
    2.7981    4.0296   -1.9118 C   0  0  0  0  0  0  0  0  0  0  0  0
    3.2294   -0.9309    0.0486 H   0  0  0  0  0  0  0  0  0  0  0  0
    2.2338   -0.3181   -1.2734 H   0  0  0  0  0  0  0  0  0  0  0  0
    1.6610   -1.6680   -0.2875 H   0  0  0  0  0  0  0  0  0  0  0  0
    1.4990   -0.1566    1.7002 H   0  0  0  0  0  0  0  0  0  0  0  0
    0.5055    0.4455    0.3835 H   0  0  0  0  0  0  0  0  0  0  0  0
    3.3038    1.4410    1.0808 H   0  0  0  0  0  0  0  0  0  0  0  0
    1.7844    2.2410    1.5226 H   0  0  0  0  0  0  0  0  0  0  0  0
    2.4596    4.1376    0.2164 H   0  0  0  0  0  0  0  0  0  0  0  0
    3.9524    3.3035   -0.2397 H   0  0  0  0  0  0  0  0  0  0  0  0
    1.7543    4.1869   -2.1856 H   0  0  0  0  0  0  0  0  0  0  0  0
    3.2472    3.3545   -2.6411 H   0  0  0  0  0  0  0  0  0  0  0  0
    3.3178    4.9878   -1.9600 H   0  0  0  0  0  0  0  0  0  0  0  0
  1  2  1  0
  1  7  1  0
  1  8  1  0
  1  9  1  0
  2  3  1  0
  2 10  1  0
  2 11  1  0
  3  4  1  0
  3 12  1  0
  3 13  1  0
  4  5  1  0
  5  6  1  0
  5 14  1  0
  5 15  1  0
  6 16  1  0
  6 17  1  0
  6 18  1  0
M  END
>  <reaction>  (3) 
rmg_rxn_226

>  <mol_properties>  (3) 
{"0": {"label": "a_hydrogen", "atom_type": "H0"}, "2": {"label": "acceptor", "atom_type": "Cs"}}

>  <type>  (3) 
r2h

$$$$

     RDKit          3D

 31 30  0  0  0  0  0  0  0  0999 V2000
    1.0601    1.4054   -0.5463 C   0  0  0  0  0  3  0  0  0  0  0  0
    0.6412    1.1049   -1.9623 C   0  0  0  0  0  0  0  0  0  0  0  0
    0.2457    2.3008   -2.6223 O   0  0  0  0  0  0  0  0  0  0  0  0
   -0.7572    2.9584   -1.9087 C   0  0  0  0  0  0  0  0  0  0  0  0
   -0.3572    3.3427   -0.6280 O   0  0  0  0  0  0  0  0  0  0  0  0
   -0.0028    2.2102    0.1559 C   0  0  0  0  0  0  0  0  0  0  0  0
    1.1491    0.2016    0.0944 H   0  0  0  0  0  0  0  0  0  0  0  0
    2.0562    1.8375   -0.4690 H   0  0  0  0  0  0  0  0  0  0  0  0
    1.4490    0.6742   -2.5515 H   0  0  0  0  0  0  0  0  0  0  0  0
   -0.2029    0.3972   -1.9645 H   0  0  0  0  0  0  0  0  0  0  0  0
   -1.6445    2.3027   -1.8343 H   0  0  0  0  0  0  0  0  0  0  0  0
   -1.0011    3.8660   -2.4566 H   0  0  0  0  0  0  0  0  0  0  0  0
   -0.9003    1.5931    0.3187 H   0  0  0  0  0  0  0  0  0  0  0  0
    0.3320    2.5894    1.1199 H   0  0  0  0  0  0  0  0  0  0  0  0
    1.6845   -1.9233   -0.4710 C   0  0  0  0  0  0  0  0  0  0  0  0
    1.1633   -1.0180    0.6136 C   0  0  0  0  0  0  0  0  0  0  0  0
   -0.2574   -1.2538    1.0401 C   0  0  0  0  0  0  0  0  0  0  0  0
   -0.3734   -2.5335    1.6163 O   0  0  0  0  0  0  0  0  0  0  0  0
   -1.6846   -2.8381    2.0261 C   0  0  0  0  0  0  0  0  0  0  0  0
   -1.7008   -4.2250    2.6249 C   0  0  0  0  0  0  0  0  0  0  0  0
    1.0234   -1.9121   -1.3416 H   0  0  0  0  0  0  0  0  0  0  0  0
    2.6806   -1.6186   -0.7967 H   0  0  0  0  0  0  0  0  0  0  0  0
    1.7458   -2.9563   -0.1194 H   0  0  0  0  0  0  0  0  0  0  0  0
    1.8409   -0.9191    1.4618 H   0  0  0  0  0  0  0  0  0  0  0  0
   -0.9283   -1.1755    0.1688 H   0  0  0  0  0  0  0  0  0  0  0  0
   -0.5719   -0.4872    1.7636 H   0  0  0  0  0  0  0  0  0  0  0  0
   -2.3672   -2.7819    1.1656 H   0  0  0  0  0  0  0  0  0  0  0  0
   -2.0281   -2.0965    2.7621 H   0  0  0  0  0  0  0  0  0  0  0  0
   -1.0341   -4.2774    3.4862 H   0  0  0  0  0  0  0  0  0  0  0  0
   -2.7094   -4.4838    2.9506 H   0  0  0  0  0  0  0  0  0  0  0  0
   -1.3738   -4.9623    1.8909 H   0  0  0  0  0  0  0  0  0  0  0  0
  1  2  1  0
  1  6  1  0
  1  8  1  0
  2  3  1  0
  2  9  1  0
  2 10  1  0
  3  4  1  0
  4  5  1  0
  4 11  1  0
  4 12  1  0
  5  6  1  0
  6 13  1  0
  6 14  1  0
  7 16  1  0
 15 16  1  0
 15 21  1  0
 15 22  1  0
 15 23  1  0
 16 17  1  0
 16 24  1  0
 17 18  1  0
 17 25  1  0
 17 26  1  0
 18 19  1  0
 19 20  1  0
 19 27  1  0
 19 28  1  0
 20 29  1  0
 20 30  1  0
 20 31  1  0
M  RAD  1   1   2
M  END
>  <reaction>  (4) 
rmg_rxn_226

>  <mol_properties>  (4) 
{"0": {"label": "*3", "atom_type": "Cs"}, "1": {"label": "*4", "atom_type": "Cs"}, "6": {"label": "*2", "atom_type": "H0"}, "15": {"label": "*1", "atom_type": "Cs"}, "16": {"label": "*0", "atom_type": "Cs"}}

>  <type>  (4) 
ts

$$$$
