
     RDKit          3D

  9  8  0  0  0  0  0  0  0  0999 V2000
   -1.5470   -0.0755   -0.1976 C   0  0  0  0  0  0  0  0  0  0  0  0
   -0.2885    0.4507    0.1749 O   0  0  0  0  0  0  0  0  0  0  0  0
   -0.1502    1.7216   -0.3294 N   0  0  0  0  0  0  0  0  0  0  0  0
    0.9626    2.2353   -0.0219 C   0  0  0  0  0  0  0  0  0  0  0  0
   -1.6392   -0.1356   -1.2844 H   0  0  0  0  0  0  0  0  0  0  0  0
   -2.3597    0.5337    0.2044 H   0  0  0  0  0  0  0  0  0  0  0  0
   -1.5879   -1.0750    0.2318 H   0  0  0  0  0  0  0  0  0  0  0  0
    1.1497    3.2381   -0.3820 H   0  0  0  0  0  0  0  0  0  0  0  0
    1.7060    1.7101    0.5739 H   0  0  0  0  0  0  0  0  0  0  0  0
  1  2  1  0
  1  5  1  0
  1  6  1  0
  1  7  1  0
  2  3  1  0
  3  4  2  3
  4  8  1  0
  4  9  1  0
M  END
>  <reaction>  (1) 
rmg_rxn_15716

>  <mol_properties>  (1) 
{"0": {"label": "donator", "atom_type": "Cs"}, "4": {"label": "d_hydrogen", "atom_type": "H0"}}

>  <type>  (1) 
r1h

$$$$

     RDKit          3D

 11 10  0  0  0  0  0  0  0  0999 V2000
    1.3935    0.3989    0.3491 C   0  0  0  0  0  3  0  0  0  0  0  0
    0.5250   -0.7560    0.0089 C   0  0  0  0  0  0  0  0  0  0  0  0
   -0.6359   -0.9293    0.9859 C   0  0  0  0  0  0  0  0  0  0  0  0
   -1.5467    0.1465    0.9437 O   0  0  0  0  0  0  0  0  0  0  0  0
    1.8267    1.0293   -0.4146 H   0  0  0  0  0  0  0  0  0  0  0  0
    1.7199    0.5477    1.3723 H   0  0  0  0  0  0  0  0  0  0  0  0
    0.1296   -0.6553   -1.0046 H   0  0  0  0  0  0  0  0  0  0  0  0
    1.1132   -1.6869    0.0240 H   0  0  0  0  0  0  0  0  0  0  0  0
   -0.2393   -1.0667    2.0017 H   0  0  0  0  0  0  0  0  0  0  0  0
   -1.2091   -1.8217    0.7319 H   0  0  0  0  0  0  0  0  0  0  0  0
   -1.0474    0.9595    1.0517 H   0  0  0  0  0  0  0  0  0  0  0  0
  1  2  1  0
  1  5  1  0
  1  6  1  0
  2  3  1  0
  2  7  1  0
  2  8  1  0
  3  4  1  0
  3  9  1  0
  3 10  1  0
  4 11  1  0
M  RAD  1   1   2
M  END
>  <reaction>  (2) 
rmg_rxn_15716

>  <mol_properties>  (2) 
{"0": {"label": "acceptor", "atom_type": "Cs"}}

>  <type>  (2) 
r2

$$$$

     RDKit          3D

 12 11  0  0  0  0  0  0  0  0999 V2000
   -1.4643   -0.2505   -0.5284 C   0  0  0  0  0  0  0  0  0  0  0  0
   -0.3946    0.4302    0.3143 C   0  0  0  0  0  0  0  0  0  0  0  0
   -0.5959    0.2382    1.8102 C   0  0  0  0  0  0  0  0  0  0  0  0
   -0.5633   -1.1190    2.2092 O   0  0  0  0  0  0  0  0  0  0  0  0
   -2.4511    0.1644   -0.3109 H   0  0  0  0  0  0  0  0  0  0  0  0
   -1.5019   -1.3198   -0.3181 H   0  0  0  0  0  0  0  0  0  0  0  0
   -1.2720   -0.1182   -1.5941 H   0  0  0  0  0  0  0  0  0  0  0  0
    0.5965    0.0515    0.0385 H   0  0  0  0  0  0  0  0  0  0  0  0
   -0.3776    1.5047    0.1078 H   0  0  0  0  0  0  0  0  0  0  0  0
   -1.5821    0.6048    2.1034 H   0  0  0  0  0  0  0  0  0  0  0  0
    0.1495    0.8220    2.3649 H   0  0  0  0  0  0  0  0  0  0  0  0
    0.3017   -1.4750    1.9997 H   0  0  0  0  0  0  0  0  0  0  0  0
  1  2  1  0
  1  5  1  0
  1  6  1  0
  1  7  1  0
  2  3  1  0
  2  8  1  0
  2  9  1  0
  3  4  1  0
  3 10  1  0
  3 11  1  0
  4 12  1  0
M  END
>  <reaction>  (3) 
rmg_rxn_15716

>  <mol_properties>  (3) 
{"0": {"label": "a_hydrogen", "atom_type": "H0"}, "1": {"label": "acceptor", "atom_type": "Cs"}}

>  <type>  (3) 
r2h

$$$$

     RDKit          3D

 20 18  0  0  0  0  0  0  0  0999 V2000
   -1.8573   -0.1640    0.0196 C   0  0  0  0  0  0  0  0  0  0  0  0
   -1.5092    0.3940   -1.2128 O   0  0  0  0  0  0  0  0  0  0  0  0
   -0.3245   -0.1207   -1.6742 N   0  0  0  0  0  0  0  0  0  0  0  0
   -0.0083    0.3348   -2.8098 C   0  0  0  0  0  0  0  0  0  0  0  0
   -1.0368    0.2922    0.9719 H   0  0  0  0  0  0  0  0  0  0  0  0
   -1.7509   -1.2475    0.0453 H   0  0  0  0  0  0  0  0  0  0  0  0
   -2.8529    0.1938    0.2661 H   0  0  0  0  0  0  0  0  0  0  0  0
    0.9174   -0.0265   -3.2367 H   0  0  0  0  0  0  0  0  0  0  0  0
   -0.6277    1.0522   -3.3421 H   0  0  0  0  0  0  0  0  0  0  0  0
   -0.1767    0.8068    1.8938 C   0  0  0  0  0  3  0  0  0  0  0  0
    1.2221    0.7407    1.3377 C   0  0  0  0  0  0  0  0  0  0  0  0
    1.8058   -0.6663    1.2814 C   0  0  0  0  0  0  0  0  0  0  0  0
    1.0213   -1.5867    0.5611 O   0  0  0  0  0  0  0  0  0  0  0  0
   -0.3502    0.1836    2.7706 H   0  0  0  0  0  0  0  0  0  0  0  0
   -0.5631    1.8159    2.0273 H   0  0  0  0  0  0  0  0  0  0  0  0
    1.2435    1.1853    0.3367 H   0  0  0  0  0  0  0  0  0  0  0  0
    1.8976    1.3525    1.9495 H   0  0  0  0  0  0  0  0  0  0  0  0
    1.8897   -1.0665    2.2957 H   0  0  0  0  0  0  0  0  0  0  0  0
    2.8228   -0.6133    0.8690 H   0  0  0  0  0  0  0  0  0  0  0  0
    0.7260   -1.1743   -0.2619 H   0  0  0  0  0  0  0  0  0  0  0  0
  1  2  1  0
  1  5  1  0
  1  6  1  0
  1  7  1  0
  2  3  1  0
  3  4  2  3
  4  8  1  0
  4  9  1  0
 10 11  1  0
 10 14  1  0
 10 15  1  0
 11 12  1  0
 11 16  1  0
 11 17  1  0
 12 13  1  0
 12 18  1  0
 12 19  1  0
 13 20  1  0
M  RAD  1  10   2
M  END
>  <reaction>  (4) 
rmg_rxn_15716

>  <mol_properties>  (4) 
{"0": {"label": "*1", "atom_type": "Cs"}, "1": {"label": "*0", "atom_type": "O2s"}, "4": {"label": "*2", "atom_type": "H0"}, "9": {"label": "*3", "atom_type": "Cs"}, "10": {"label": "*4", "atom_type": "Cs"}}

>  <type>  (4) 
ts

$$$$
