
     RDKit          3D

 18 17  0  0  0  0  0  0  0  0999 V2000
    2.2026   -0.7213   -0.2612 C   0  0  0  0  0  0  0  0  0  0  0  0
    1.5384    0.2638    0.6915 C   0  0  0  0  0  0  0  0  0  0  0  0
    2.2584    1.5946    0.7694 C   0  0  0  0  0  0  0  0  0  0  0  0
    2.2212    2.2185   -0.4893 O   0  0  0  0  0  0  0  0  0  0  0  0
    2.8988    3.4488   -0.5204 C   0  0  0  0  0  0  0  0  0  0  0  0
    2.7981    4.0296   -1.9118 C   0  0  0  0  0  0  0  0  0  0  0  0
    3.2294   -0.9309    0.0486 H   0  0  0  0  0  0  0  0  0  0  0  0
    2.2338   -0.3181   -1.2734 H   0  0  0  0  0  0  0  0  0  0  0  0
    1.6610   -1.6680   -0.2875 H   0  0  0  0  0  0  0  0  0  0  0  0
    1.4990   -0.1566    1.7002 H   0  0  0  0  0  0  0  0  0  0  0  0
    0.5055    0.4455    0.3835 H   0  0  0  0  0  0  0  0  0  0  0  0
    3.3038    1.4410    1.0808 H   0  0  0  0  0  0  0  0  0  0  0  0
    1.7844    2.2410    1.5226 H   0  0  0  0  0  0  0  0  0  0  0  0
    2.4596    4.1376    0.2164 H   0  0  0  0  0  0  0  0  0  0  0  0
    3.9524    3.3035   -0.2397 H   0  0  0  0  0  0  0  0  0  0  0  0
    1.7543    4.1869   -2.1856 H   0  0  0  0  0  0  0  0  0  0  0  0
    3.2472    3.3545   -2.6411 H   0  0  0  0  0  0  0  0  0  0  0  0
    3.3178    4.9878   -1.9600 H   0  0  0  0  0  0  0  0  0  0  0  0
  1  2  1  0
  1  7  1  0
  1  8  1  0
  1  9  1  0
  2  3  1  0
  2 10  1  0
  2 11  1  0
  3  4  1  0
  3 12  1  0
  3 13  1  0
  4  5  1  0
  5  6  1  0
  5 14  1  0
  5 15  1  0
  6 16  1  0
  6 17  1  0
  6 18  1  0
M  END
>  <reaction>  (1) 
rmg_rxn_289

>  <mol_properties>  (1) 
{"4": {"label": "donator", "atom_type": "Cs"}, "13": {"label": "d_hydrogen", "atom_type": "H0"}}

>  <type>  (1) 
r1h

$$$$

     RDKit          3D

 13 13  0  0  0  0  0  0  0  0999 V2000
   -1.1371    0.3608    0.3110 C   0  0  0  0  0  3  0  0  0  0  0  0
   -0.0045    1.3224    0.2943 C   0  0  0  0  0  0  0  0  0  0  0  0
    1.2245    0.6965    0.6137 O   0  0  0  0  0  0  0  0  0  0  0  0
    1.3926   -0.4921   -0.0955 C   0  0  0  0  0  0  0  0  0  0  0  0
    0.4387   -1.4537    0.2351 O   0  0  0  0  0  0  0  0  0  0  0  0
   -0.8659   -1.0349   -0.1206 C   0  0  0  0  0  0  0  0  0  0  0  0
   -2.1544    0.7285    0.3341 H   0  0  0  0  0  0  0  0  0  0  0  0
   -0.1488    2.1272    1.0165 H   0  0  0  0  0  0  0  0  0  0  0  0
    0.0825    1.7949   -0.7036 H   0  0  0  0  0  0  0  0  0  0  0  0
    1.3549   -0.2872   -1.1815 H   0  0  0  0  0  0  0  0  0  0  0  0
    2.3646   -0.8956    0.1787 H   0  0  0  0  0  0  0  0  0  0  0  0
   -1.5620   -1.7401    0.3358 H   0  0  0  0  0  0  0  0  0  0  0  0
   -0.9852   -1.1268   -1.2179 H   0  0  0  0  0  0  0  0  0  0  0  0
  1  2  1  0
  1  6  1  0
  1  7  1  0
  2  3  1  0
  2  8  1  0
  2  9  1  0
  3  4  1  0
  4  5  1  0
  4 10  1  0
  4 11  1  0
  5  6  1  0
  6 12  1  0
  6 13  1  0
M  RAD  1   1   2
M  END
>  <reaction>  (2) 
rmg_rxn_289

>  <mol_properties>  (2) 
{"0": {"label": "acceptor", "atom_type": "Cs"}}

>  <type>  (2) 
r2

$$$$

     RDKit          3D

 14 14  0  0  0  0  0  0  0  0999 V2000
   -1.1778    0.2241    0.1818 C   0  0  0  0  0  0  0  0  0  0  0  0
   -0.5633   -1.1636    0.0678 C   0  0  0  0  0  0  0  0  0  0  0  0
    0.6943   -1.1996    0.7146 O   0  0  0  0  0  0  0  0  0  0  0  0
    1.5547   -0.2288    0.2011 C   0  0  0  0  0  0  0  0  0  0  0  0
    1.0729    1.0696    0.3698 O   0  0  0  0  0  0  0  0  0  0  0  0
   -0.1607    1.2493   -0.2989 C   0  0  0  0  0  0  0  0  0  0  0  0
   -2.0927    0.2866   -0.4117 H   0  0  0  0  0  0  0  0  0  0  0  0
   -1.4303    0.4248    1.2248 H   0  0  0  0  0  0  0  0  0  0  0  0
   -1.1822   -1.9235    0.5431 H   0  0  0  0  0  0  0  0  0  0  0  0
   -0.4389   -1.4347   -0.9919 H   0  0  0  0  0  0  0  0  0  0  0  0
    1.7250   -0.4207   -0.8742 H   0  0  0  0  0  0  0  0  0  0  0  0
    2.4896   -0.3010    0.7524 H   0  0  0  0  0  0  0  0  0  0  0  0
   -0.0080    1.1481   -1.3844 H   0  0  0  0  0  0  0  0  0  0  0  0
   -0.4826    2.2695   -0.0942 H   0  0  0  0  0  0  0  0  0  0  0  0
  1  2  1  0
  1  6  1  0
  1  7  1  0
  1  8  1  0
  2  3  1  0
  2  9  1  0
  2 10  1  0
  3  4  1  0
  4  5  1  0
  4 11  1  0
  4 12  1  0
  5  6  1  0
  6 13  1  0
  6 14  1  0
M  END
>  <reaction>  (3) 
rmg_rxn_289

>  <mol_properties>  (3) 
{"0": {"label": "acceptor", "atom_type": "Cs"}, "13": {"label": "a_hydrogen", "atom_type": "H0"}}

>  <type>  (3) 
r2h

$$$$

     RDKit          3D

 31 30  0  0  0  0  0  0  0  0999 V2000
    0.4880    0.8906    1.0199 C   0  0  0  0  0  3  0  0  0  0  0  0
   -0.2554    2.0943    1.5336 C   0  0  0  0  0  0  0  0  0  0  0  0
   -0.5842    1.9213    2.9084 O   0  0  0  0  0  0  0  0  0  0  0  0
   -1.3033    0.7408    3.1030 C   0  0  0  0  0  0  0  0  0  0  0  0
   -0.5926   -0.4020    2.7366 O   0  0  0  0  0  0  0  0  0  0  0  0
   -0.2600   -0.3728    1.3516 C   0  0  0  0  0  0  0  0  0  0  0  0
    1.5391    0.8695    1.3024 H   0  0  0  0  0  0  0  0  0  0  0  0
    0.3342    3.0074    1.4680 H   0  0  0  0  0  0  0  0  0  0  0  0
   -1.1850    2.2398    0.9619 H   0  0  0  0  0  0  0  0  0  0  0  0
   -2.2461    0.7874    2.5268 H   0  0  0  0  0  0  0  0  0  0  0  0
   -1.5136    0.6632    4.1678 H   0  0  0  0  0  0  0  0  0  0  0  0
   -1.1841   -0.4345    0.7572 H   0  0  0  0  0  0  0  0  0  0  0  0
    0.3269   -1.2687    1.1550 H   0  0  0  0  0  0  0  0  0  0  0  0
    0.6466   -3.0009   -3.4201 C   0  0  0  0  0  0  0  0  0  0  0  0
    1.1479   -2.6759   -2.0194 C   0  0  0  0  0  0  0  0  0  0  0  0
    1.3977   -1.1990   -1.8019 C   0  0  0  0  0  0  0  0  0  0  0  0
    0.1815   -0.4954   -1.9466 O   0  0  0  0  0  0  0  0  0  0  0  0
    0.2783    0.8561   -1.6796 C   0  0  0  0  0  0  0  0  0  0  0  0
   -1.0081    1.5630   -1.9895 C   0  0  0  0  0  0  0  0  0  0  0  0
    1.3682   -2.6822   -4.1762 H   0  0  0  0  0  0  0  0  0  0  0  0
   -0.2968   -2.4938   -3.6219 H   0  0  0  0  0  0  0  0  0  0  0  0
    0.4885   -4.0735   -3.5394 H   0  0  0  0  0  0  0  0  0  0  0  0
    2.0843   -3.2046   -1.8223 H   0  0  0  0  0  0  0  0  0  0  0  0
    0.4274   -3.0201   -1.2727 H   0  0  0  0  0  0  0  0  0  0  0  0
    2.1283   -0.8194   -2.5309 H   0  0  0  0  0  0  0  0  0  0  0  0
    1.8086   -1.0227   -0.7996 H   0  0  0  0  0  0  0  0  0  0  0  0
    0.4758    0.9666   -0.4004 H   0  0  0  0  0  0  0  0  0  0  0  0
    1.1632    1.3122   -2.1418 H   0  0  0  0  0  0  0  0  0  0  0  0
   -1.8312    1.1219   -1.4242 H   0  0  0  0  0  0  0  0  0  0  0  0
   -1.2511    1.4925   -3.0527 H   0  0  0  0  0  0  0  0  0  0  0  0
   -0.9308    2.6178   -1.7225 H   0  0  0  0  0  0  0  0  0  0  0  0
  1  2  1  0
  1  6  1  0
  1  7  1  0
  2  3  1  0
  2  8  1  0
  2  9  1  0
  3  4  1  0
  4  5  1  0
  4 10  1  0
  4 11  1  0
  5  6  1  0
  6 12  1  0
  6 13  1  0
 14 15  1  0
 14 20  1  0
 14 21  1  0
 14 22  1  0
 15 16  1  0
 15 23  1  0
 15 24  1  0
 16 17  1  0
 16 25  1  0
 16 26  1  0
 17 18  1  0
 18 19  1  0
 18 27  1  0
 18 28  1  0
 19 29  1  0
 19 30  1  0
 19 31  1  0
M  RAD  1   1   2
M  END
>  <reaction>  (4) 
rmg_rxn_289

>  <mol_properties>  (4) 
{"0": {"label": "*3", "atom_type": "Cs"}, "1": {"label": "*4", "atom_type": "Cs"}, "16": {"label": "*0", "atom_type": "O2s"}, "17": {"label": "*1", "atom_type": "Cs"}, "26": {"label": "*2", "atom_type": "H0"}}

>  <type>  (4) 
ts

$$$$
