
     RDKit          3D

 14 14  0  0  0  0  0  0  0  0999 V2000
   -1.1778    0.2241    0.1818 C   0  0  0  0  0  0  0  0  0  0  0  0
   -0.5633   -1.1636    0.0678 C   0  0  0  0  0  0  0  0  0  0  0  0
    0.6943   -1.1996    0.7146 O   0  0  0  0  0  0  0  0  0  0  0  0
    1.5547   -0.2288    0.2011 C   0  0  0  0  0  0  0  0  0  0  0  0
    1.0729    1.0696    0.3698 O   0  0  0  0  0  0  0  0  0  0  0  0
   -0.1607    1.2493   -0.2989 C   0  0  0  0  0  0  0  0  0  0  0  0
   -2.0927    0.2866   -0.4117 H   0  0  0  0  0  0  0  0  0  0  0  0
   -1.4303    0.4248    1.2248 H   0  0  0  0  0  0  0  0  0  0  0  0
   -1.1822   -1.9235    0.5431 H   0  0  0  0  0  0  0  0  0  0  0  0
   -0.4389   -1.4347   -0.9919 H   0  0  0  0  0  0  0  0  0  0  0  0
    1.7250   -0.4207   -0.8742 H   0  0  0  0  0  0  0  0  0  0  0  0
    2.4896   -0.3010    0.7524 H   0  0  0  0  0  0  0  0  0  0  0  0
   -0.0080    1.1481   -1.3844 H   0  0  0  0  0  0  0  0  0  0  0  0
   -0.4826    2.2695   -0.0942 H   0  0  0  0  0  0  0  0  0  0  0  0
  1  2  1  0
  1  6  1  0
  1  7  1  0
  1  8  1  0
  2  3  1  0
  2  9  1  0
  2 10  1  0
  3  4  1  0
  4  5  1  0
  4 11  1  0
  4 12  1  0
  5  6  1  0
  6 13  1  0
  6 14  1  0
M  END
>  <reaction>  (1) 
rmg_rxn_316

>  <mol_properties>  (1) 
{"1": {"label": "donator", "atom_type": "Cs"}, "8": {"label": "d_hydrogen", "atom_type": "H0"}}

>  <type>  (1) 
r1h

$$$$

     RDKit          3D

 11 10  0  0  0  0  0  0  0  0999 V2000
   -1.2230    0.3768   -0.0849 C   0  0  0  0  0  0  0  0  0  0  0  0
   -0.0734   -0.5533    0.2746 C   0  0  0  0  0  0  0  0  0  0  0  0
   -0.0853   -1.8426   -0.5372 C   0  0  0  0  0  0  0  0  0  0  0  0
    0.0319   -1.6944   -1.8815 O   0  0  0  0  0  1  0  0  0  0  0  0
   -2.1874   -0.0885    0.1341 H   0  0  0  0  0  0  0  0  0  0  0  0
   -1.1670    1.3099    0.4765 H   0  0  0  0  0  0  0  0  0  0  0  0
   -1.2014    0.6189   -1.1483 H   0  0  0  0  0  0  0  0  0  0  0  0
    0.8834   -0.0518    0.1071 H   0  0  0  0  0  0  0  0  0  0  0  0
   -0.1104   -0.8149    1.3362 H   0  0  0  0  0  0  0  0  0  0  0  0
    0.6767   -2.5604   -0.1861 H   0  0  0  0  0  0  0  0  0  0  0  0
   -1.0401   -2.3871   -0.3877 H   0  0  0  0  0  0  0  0  0  0  0  0
  1  2  1  0
  1  5  1  0
  1  6  1  0
  1  7  1  0
  2  3  1  0
  2  8  1  0
  2  9  1  0
  3  4  1  0
  3 10  1  0
  3 11  1  0
M  RAD  1   4   2
M  END
>  <reaction>  (2) 
rmg_rxn_316

>  <mol_properties>  (2) 
{"3": {"label": "acceptor", "atom_type": "O2s"}}

>  <type>  (2) 
r2

$$$$

     RDKit          3D

 12 11  0  0  0  0  0  0  0  0999 V2000
   -1.4643   -0.2505   -0.5284 C   0  0  0  0  0  0  0  0  0  0  0  0
   -0.3946    0.4302    0.3143 C   0  0  0  0  0  0  0  0  0  0  0  0
   -0.5959    0.2382    1.8102 C   0  0  0  0  0  0  0  0  0  0  0  0
   -0.5633   -1.1190    2.2092 O   0  0  0  0  0  0  0  0  0  0  0  0
   -2.4511    0.1644   -0.3109 H   0  0  0  0  0  0  0  0  0  0  0  0
   -1.5019   -1.3198   -0.3181 H   0  0  0  0  0  0  0  0  0  0  0  0
   -1.2720   -0.1182   -1.5941 H   0  0  0  0  0  0  0  0  0  0  0  0
    0.5965    0.0515    0.0385 H   0  0  0  0  0  0  0  0  0  0  0  0
   -0.3776    1.5047    0.1078 H   0  0  0  0  0  0  0  0  0  0  0  0
   -1.5821    0.6048    2.1034 H   0  0  0  0  0  0  0  0  0  0  0  0
    0.1495    0.8220    2.3649 H   0  0  0  0  0  0  0  0  0  0  0  0
    0.3017   -1.4750    1.9997 H   0  0  0  0  0  0  0  0  0  0  0  0
  1  2  1  0
  1  5  1  0
  1  6  1  0
  1  7  1  0
  2  3  1  0
  2  8  1  0
  2  9  1  0
  3  4  1  0
  3 10  1  0
  3 11  1  0
  4 12  1  0
M  END
>  <reaction>  (3) 
rmg_rxn_316

>  <mol_properties>  (3) 
{"3": {"label": "acceptor", "atom_type": "O2s"}, "11": {"label": "a_hydrogen", "atom_type": "H0"}}

>  <type>  (3) 
r2h

$$$$

     RDKit          3D

 25 24  0  0  0  0  0  0  0  0999 V2000
    2.4803   -2.1758    1.1195 C   0  0  0  0  0  0  0  0  0  0  0  0
    0.9709   -2.1929    0.9267 C   0  0  0  0  0  0  0  0  0  0  0  0
    0.2136   -1.5049    2.0557 C   0  0  0  0  0  0  0  0  0  0  0  0
    0.6079   -0.1872    2.2951 O   0  0  0  0  0  0  0  0  0  0  0  0
    2.7657   -2.7047    2.0322 H   0  0  0  0  0  0  0  0  0  0  0  0
    2.9910   -2.6537    0.2820 H   0  0  0  0  0  0  0  0  0  0  0  0
    2.8474   -1.1521    1.2049 H   0  0  0  0  0  0  0  0  0  0  0  0
    0.7016   -1.7089   -0.0159 H   0  0  0  0  0  0  0  0  0  0  0  0
    0.6092   -3.2231    0.8554 H   0  0  0  0  0  0  0  0  0  0  0  0
   -0.8677   -1.5628    1.8771 H   0  0  0  0  0  0  0  0  0  0  0  0
    0.4039   -2.0248    3.0058 H   0  0  0  0  0  0  0  0  0  0  0  0
    0.9162    1.3551   -0.5982 C   0  0  0  0  0  0  0  0  0  0  0  0
   -0.2482    1.0952    0.3251 C   0  0  0  0  0  3  0  0  0  0  0  0
   -1.1896    0.2372   -0.2316 O   0  0  0  0  0  0  0  0  0  0  0  0
   -1.6250    0.6746   -1.4979 C   0  0  0  0  0  0  0  0  0  0  0  0
   -0.5812    0.8028   -2.4041 O   0  0  0  0  0  0  0  0  0  0  0  0
    0.3672    1.7569   -1.9662 C   0  0  0  0  0  0  0  0  0  0  0  0
    1.5584    2.1372   -0.1913 H   0  0  0  0  0  0  0  0  0  0  0  0
    1.5089    0.4445   -0.7037 H   0  0  0  0  0  0  0  0  0  0  0  0
    0.1932    0.5096    1.3481 H   0  0  0  0  0  0  0  0  0  0  0  0
   -0.7138    2.0001    0.7376 H   0  0  0  0  0  0  0  0  0  0  0  0
   -2.1455    1.6404   -1.3822 H   0  0  0  0  0  0  0  0  0  0  0  0
   -2.3035   -0.0850   -1.8778 H   0  0  0  0  0  0  0  0  0  0  0  0
   -0.1044    2.7487   -1.9123 H   0  0  0  0  0  0  0  0  0  0  0  0
    1.1526    1.7891   -2.7197 H   0  0  0  0  0  0  0  0  0  0  0  0
  1  2  1  0
  1  5  1  0
  1  6  1  0
  1  7  1  0
  2  3  1  0
  2  8  1  0
  2  9  1  0
  3  4  1  0
  3 10  1  0
  3 11  1  0
  4 20  1  0
 12 13  1  0
 12 17  1  0
 12 18  1  0
 12 19  1  0
 13 14  1  0
 13 21  1  0
 14 15  1  0
 15 16  1  0
 15 22  1  0
 15 23  1  0
 16 17  1  0
 17 24  1  0
 17 25  1  0
M  RAD  1  13   2
M  END
>  <reaction>  (4) 
rmg_rxn_316

>  <mol_properties>  (4) 
{"2": {"label": "*0", "atom_type": "Cs"}, "3": {"label": "*1", "atom_type": "O2s"}, "12": {"label": "*3", "atom_type": "Cs"}, "13": {"label": "*4", "atom_type": "O2s"}, "19": {"label": "*2", "atom_type": "H0"}}

>  <type>  (4) 
ts

$$$$
