
     RDKit          3D

  9  8  0  0  0  0  0  0  0  0999 V2000
   -1.2461    0.5037    0.0950 C   0  0  0  0  0  0  0  0  0  0  0  0
   -0.0155   -0.3334    0.0640 C   0  0  0  0  0  0  0  0  0  0  0  0
    1.0697    0.1457   -0.3733 N   0  0  0  0  0  0  0  0  0  0  0  0
    2.1001   -0.7834   -0.3224 O   0  0  0  0  0  0  0  0  0  0  0  0
   -2.0357    0.0440   -0.5039 H   0  0  0  0  0  0  0  0  0  0  0  0
   -1.6237    0.5897    1.1166 H   0  0  0  0  0  0  0  0  0  0  0  0
   -1.0397    1.4998   -0.2929 H   0  0  0  0  0  0  0  0  0  0  0  0
   -0.0537   -1.3634    0.4205 H   0  0  0  0  0  0  0  0  0  0  0  0
    2.8478   -0.2985   -0.6758 H   0  0  0  0  0  0  0  0  0  0  0  0
  1  2  1  0
  1  5  1  0
  1  6  1  0
  1  7  1  0
  2  3  2  3
  2  8  1  0
  3  4  1  0
  4  9  1  0
M  END
>  <reaction>  (1) 
rmg_rxn_47

>  <mol_properties>  (1) 
{"3": {"label": "donator", "atom_type": "O2s"}, "8": {"label": "d_hydrogen", "atom_type": "H0"}}

>  <type>  (1) 
r1h

$$$$

     RDKit          3D

 13 13  0  0  0  0  0  0  0  0999 V2000
    0.5794    1.5990    0.2108 C   0  0  0  0  0  3  0  0  0  0  0  0
    1.4528    0.6621   -0.2496 O   0  0  0  0  0  0  0  0  0  0  0  0
    1.0751   -0.6763    0.0423 C   0  0  0  0  0  0  0  0  0  0  0  0
   -0.3579   -0.9282   -0.3924 C   0  0  0  0  0  0  0  0  0  0  0  0
   -1.2426    0.1393    0.2269 C   0  0  0  0  0  0  0  0  0  0  0  0
   -0.7410    1.4341   -0.0749 O   0  0  0  0  0  0  0  0  0  0  0  0
    0.9183    2.6078    0.0084 H   0  0  0  0  0  0  0  0  0  0  0  0
    1.1839   -0.8508    1.1199 H   0  0  0  0  0  0  0  0  0  0  0  0
    1.7816   -1.3130   -0.4874 H   0  0  0  0  0  0  0  0  0  0  0  0
   -0.6818   -1.9210   -0.0736 H   0  0  0  0  0  0  0  0  0  0  0  0
   -0.4271   -0.8785   -1.4810 H   0  0  0  0  0  0  0  0  0  0  0  0
   -1.2832    0.0173    1.3164 H   0  0  0  0  0  0  0  0  0  0  0  0
   -2.2575    0.1083   -0.1657 H   0  0  0  0  0  0  0  0  0  0  0  0
  1  2  1  0
  1  6  1  0
  1  7  1  0
  2  3  1  0
  3  4  1  0
  3  8  1  0
  3  9  1  0
  4  5  1  0
  4 10  1  0
  4 11  1  0
  5  6  1  0
  5 12  1  0
  5 13  1  0
M  RAD  1   1   2
M  END
>  <reaction>  (2) 
rmg_rxn_47

>  <mol_properties>  (2) 
{"0": {"label": "acceptor", "atom_type": "Cs"}}

>  <type>  (2) 
r2

$$$$

     RDKit          3D

 14 14  0  0  0  0  0  0  0  0999 V2000
   -1.1778    0.2241    0.1818 C   0  0  0  0  0  0  0  0  0  0  0  0
   -0.5633   -1.1636    0.0678 C   0  0  0  0  0  0  0  0  0  0  0  0
    0.6943   -1.1996    0.7146 O   0  0  0  0  0  0  0  0  0  0  0  0
    1.5547   -0.2288    0.2011 C   0  0  0  0  0  0  0  0  0  0  0  0
    1.0729    1.0696    0.3698 O   0  0  0  0  0  0  0  0  0  0  0  0
   -0.1607    1.2493   -0.2989 C   0  0  0  0  0  0  0  0  0  0  0  0
   -2.0927    0.2866   -0.4117 H   0  0  0  0  0  0  0  0  0  0  0  0
   -1.4303    0.4248    1.2248 H   0  0  0  0  0  0  0  0  0  0  0  0
   -1.1822   -1.9235    0.5431 H   0  0  0  0  0  0  0  0  0  0  0  0
   -0.4389   -1.4347   -0.9919 H   0  0  0  0  0  0  0  0  0  0  0  0
    1.7250   -0.4207   -0.8742 H   0  0  0  0  0  0  0  0  0  0  0  0
    2.4896   -0.3010    0.7524 H   0  0  0  0  0  0  0  0  0  0  0  0
   -0.0080    1.1481   -1.3844 H   0  0  0  0  0  0  0  0  0  0  0  0
   -0.4826    2.2695   -0.0942 H   0  0  0  0  0  0  0  0  0  0  0  0
  1  2  1  0
  1  6  1  0
  1  7  1  0
  1  8  1  0
  2  3  1  0
  2  9  1  0
  2 10  1  0
  3  4  1  0
  4  5  1  0
  4 11  1  0
  4 12  1  0
  5  6  1  0
  6 13  1  0
  6 14  1  0
M  END
>  <reaction>  (3) 
rmg_rxn_47

>  <mol_properties>  (3) 
{"0": {"label": "a_hydrogen", "atom_type": "H0"}, "1": {"label": "acceptor", "atom_type": "Cs"}}

>  <type>  (3) 
r2h

$$$$

     RDKit          3D

 22 21  0  0  0  0  0  0  0  0999 V2000
   -0.3984   -1.7486   -3.1411 C   0  0  0  0  0  0  0  0  0  0  0  0
    0.1654   -2.0574   -1.7966 C   0  0  0  0  0  3  0  0  0  0  0  0
    0.4119   -1.1224   -0.9734 N   0  0  0  0  0  2  0  0  0  0  0  0
    0.9055   -1.4728    0.2011 O   0  0  0  0  0  1  0  0  0  0  0  0
    0.2643   -2.1109   -3.9310 H   0  0  0  0  0  0  0  0  0  0  0  0
   -1.3644   -2.2405   -3.2807 H   0  0  0  0  0  0  0  0  0  0  0  0
   -0.5292   -0.6737   -3.2588 H   0  0  0  0  0  0  0  0  0  0  0  0
    0.3675   -3.0935   -1.5235 H   0  0  0  0  0  0  0  0  0  0  0  0
    1.1515   -0.3427    0.8105 H   0  0  0  0  0  0  0  0  0  0  0  0
    1.3503    0.7565    1.3931 C   0  0  0  0  0  0  0  0  0  0  0  0
    1.2667    1.7578    0.4594 O   0  0  0  0  0  0  0  0  0  0  0  0
   -0.0175    2.3621    0.3522 C   0  0  0  0  0  0  0  0  0  0  0  0
   -1.1120    1.3601    0.6673 C   0  0  0  0  0  0  0  0  0  0  0  0
   -0.9010    0.8270    2.0804 C   0  0  0  0  0  0  0  0  0  0  0  0
    0.4824    0.8524    2.4449 O   0  0  0  0  0  0  0  0  0  0  0  0
    2.3738    0.6815    1.7623 H   0  0  0  0  0  0  0  0  0  0  0  0
   -0.0615    3.2120    1.0431 H   0  0  0  0  0  0  0  0  0  0  0  0
   -0.0935    2.7375   -0.6667 H   0  0  0  0  0  0  0  0  0  0  0  0
   -2.0910    1.8333    0.5837 H   0  0  0  0  0  0  0  0  0  0  0  0
   -1.0590    0.5533   -0.0656 H   0  0  0  0  0  0  0  0  0  0  0  0
   -1.2695   -0.1971    2.1789 H   0  0  0  0  0  0  0  0  0  0  0  0
   -1.4016    1.4530    2.8196 H   0  0  0  0  0  0  0  0  0  0  0  0
  1  7  1  0
  1  5  1  0
  1  2  1  0
  1  6  1  0
  2  3  1  0
  2  8  1  0
  3  4  1  0
  9 10  1  0
 10 16  1  0
 10 15  1  0
 10 11  1  0
 11 12  1  0
 12 18  1  0
 12 13  1  0
 12 17  1  0
 13 14  1  0
 13 19  1  0
 13 20  1  0
 14 15  1  0
 14 22  1  0
 14 21  1  0
M  RAD  3   2   2   3   2   4   2
M  END
>  <reaction>  (4) 
rmg_rxn_47

>  <mol_properties>  (4) 
{"2": {"label": "*4", "atom_type": "N3s"}, "3": {"label": "*3", "atom_type": "O2s"}, "8": {"label": "*2", "atom_type": "H0"}, "9": {"label": "*1", "atom_type": "Cs"}, "10": {"label": "*0", "atom_type": "O2s"}}

>  <type>  (4) 
ts

$$$$
