
     RDKit          3D

  8  7  0  0  0  0  0  0  0  0999 V2000
    0.9548    0.1194   -0.0790 C   0  0  0  0  0  0  0  0  0  0  0  0
   -0.4838   -0.2649    0.0193 C   0  0  0  0  0  0  0  0  0  0  0  0
   -0.8933   -1.1081    0.8664 N   0  0  0  0  0  0  0  0  0  0  0  0
    1.3360   -0.0983   -1.0800 H   0  0  0  0  0  0  0  0  0  0  0  0
    1.0698    1.1948    0.0786 H   0  0  0  0  0  0  0  0  0  0  0  0
    1.5426   -0.4219    0.6602 H   0  0  0  0  0  0  0  0  0  0  0  0
   -1.1575    0.2324   -0.6905 H   0  0  0  0  0  0  0  0  0  0  0  0
   -1.8989   -1.2455    0.7886 H   0  0  0  0  0  0  0  0  0  0  0  0
  1  2  1  0
  1  4  1  0
  1  5  1  0
  1  6  1  0
  2  3  2  3
  2  7  1  0
  3  8  1  0
M  END
>  <reaction>  (1) 
rmg_rxn_16513

>  <mol_properties>  (1) 
{"2": {"label": "donator", "atom_type": "N3d"}, "7": {"label": "d_hydrogen", "atom_type": "H0"}}

>  <type>  (1) 
r1h

$$$$

     RDKit          3D

  8  7  0  0  0  0  0  0  0  0999 V2000
   -0.7743    0.1523   -0.1359 C   0  0  0  0  0  0  0  0  0  0  0  0
    0.7184   -0.1277   -0.1761 C   0  0  0  0  0  0  0  0  0  0  0  0
    1.1848   -0.6820   -1.3242 O   0  0  0  0  0  1  0  0  0  0  0  0
   -1.3380   -0.7717   -0.2694 H   0  0  0  0  0  0  0  0  0  0  0  0
   -1.0579    0.5956    0.8207 H   0  0  0  0  0  0  0  0  0  0  0  0
   -1.0531    0.8424   -0.9329 H   0  0  0  0  0  0  0  0  0  0  0  0
    1.3095    0.7895    0.0049 H   0  0  0  0  0  0  0  0  0  0  0  0
    1.0309   -0.7888    0.6537 H   0  0  0  0  0  0  0  0  0  0  0  0
  1  2  1  0
  1  4  1  0
  1  5  1  0
  1  6  1  0
  2  3  1  0
  2  7  1  0
  2  8  1  0
M  RAD  1   3   2
M  END
>  <reaction>  (2) 
rmg_rxn_16513

>  <mol_properties>  (2) 
{"2": {"label": "acceptor", "atom_type": "O2s"}}

>  <type>  (2) 
r2

$$$$

     RDKit          3D

  9  8  0  0  0  0  0  0  0  0999 V2000
   -0.9895    0.3048    0.1041 C   0  0  0  0  0  0  0  0  0  0  0  0
    0.3761   -0.3562    0.0721 C   0  0  0  0  0  0  0  0  0  0  0  0
    0.3441   -1.6564   -0.4834 O   0  0  0  0  0  0  0  0  0  0  0  0
   -1.6997   -0.3114    0.6572 H   0  0  0  0  0  0  0  0  0  0  0  0
   -0.9320    1.2848    0.5822 H   0  0  0  0  0  0  0  0  0  0  0  0
   -1.3774    0.4507   -0.9077 H   0  0  0  0  0  0  0  0  0  0  0  0
    0.7581   -0.4813    1.0862 H   0  0  0  0  0  0  0  0  0  0  0  0
    1.0900    0.2787   -0.4681 H   0  0  0  0  0  0  0  0  0  0  0  0
    0.0089   -1.5959   -1.3792 H   0  0  0  0  0  0  0  0  0  0  0  0
  1  2  1  0
  1  4  1  0
  1  5  1  0
  1  6  1  0
  2  3  1  0
  2  7  1  0
  2  8  1  0
  3  9  1  0
M  END
>  <reaction>  (3) 
rmg_rxn_16513

>  <mol_properties>  (3) 
{"2": {"label": "acceptor", "atom_type": "O2s"}, "8": {"label": "a_hydrogen", "atom_type": "H0"}}

>  <type>  (3) 
r2h

$$$$

     RDKit          3D

 16 14  0  0  0  0  0  0  0  0999 V2000
    1.9393   -0.6334    1.4784 C   0  0  0  0  0  0  0  0  0  0  0  0
    0.4381   -0.8110    1.6301 C   0  0  0  0  0  0  0  0  0  0  0  0
   -0.2908    0.3546    1.5056 O   0  0  0  0  0  1  0  0  0  0  0  0
    2.3095    0.0948    2.2008 H   0  0  0  0  0  0  0  0  0  0  0  0
    2.4586   -1.5807    1.6378 H   0  0  0  0  0  0  0  0  0  0  0  0
    2.1803   -0.2734    0.4767 H   0  0  0  0  0  0  0  0  0  0  0  0
    0.0653   -1.5831    0.9340 H   0  0  0  0  0  0  0  0  0  0  0  0
    0.1960   -1.1971    2.6323 H   0  0  0  0  0  0  0  0  0  0  0  0
   -0.9276   -0.0736   -2.9000 C   0  0  0  0  0  0  0  0  0  0  0  0
   -0.7659   -0.0024   -1.4144 C   0  0  0  0  0  0  0  0  0  0  0  0
   -0.1870    0.9508   -0.8440 N   0  0  0  0  0  0  0  0  0  0  0  0
   -0.4598   -0.9849   -3.2791 H   0  0  0  0  0  0  0  0  0  0  0  0
   -1.9890   -0.1241   -3.1524 H   0  0  0  0  0  0  0  0  0  0  0  0
   -0.4794    0.7942   -3.3794 H   0  0  0  0  0  0  0  0  0  0  0  0
   -1.1849   -0.8371   -0.8365 H   0  0  0  0  0  0  0  0  0  0  0  0
   -0.1595    0.8575    0.2732 H   0  0  0  0  0  0  0  0  0  0  0  0
  1  2  1  0
  1  4  1  0
  1  5  1  0
  1  6  1  0
  2  3  1  0
  2  7  1  0
  2  8  1  0
  9 10  1  0
  9 12  1  0
  9 13  1  0
  9 14  1  0
 10 11  2  3
 10 15  1  0
 11 16  1  0
M  RAD  1   3   2
M  END
>  <reaction>  (4) 
rmg_rxn_16513

>  <mol_properties>  (4) 
{"1": {"label": "*4", "atom_type": "Cs"}, "2": {"label": "*3", "atom_type": "O2s"}, "9": {"label": "*0", "atom_type": "Cd"}, "10": {"label": "*1", "atom_type": "N3d"}, "15": {"label": "*2", "atom_type": "H0"}}

>  <type>  (4) 
ts

$$$$
