
     RDKit          3D

  5  4  0  0  0  0  0  0  0  0999 V2000
   -0.4583    0.0384    0.1517 N   0  0  0  0  0  0  0  0  0  0  0  0
    0.7454   -0.3487    0.5322 N   0  0  0  0  0  0  0  0  0  0  0  0
    0.7566   -1.0388    1.5193 O   0  0  0  0  0  0  0  0  0  0  0  0
   -1.2688   -0.2521    0.6850 H   0  0  0  0  0  0  0  0  0  0  0  0
   -0.5137    0.6154   -0.6670 H   0  0  0  0  0  0  0  0  0  0  0  0
  1  2  1  0
  1  4  1  0
  1  5  1  0
  2  3  2  0
M  END
>  <reaction>  (1) 
rmg_rxn_1565

>  <mol_properties>  (1) 
{"0": {"label": "donator", "atom_type": "N3s"}, "3": {"label": "d_hydrogen", "atom_type": "H0"}}

>  <type>  (1) 
r1h

$$$$

     RDKit          3D

 13 12  0  0  0  0  0  0  0  0999 V2000
   -1.5799    1.1067    0.0515 C   0  0  0  0  0  3  0  0  0  0  0  0
   -0.9928   -0.2393    0.2618 C   0  0  0  0  0  0  0  0  0  0  0  0
   -1.7555   -1.0997    1.2551 C   0  0  0  0  0  0  0  0  0  0  0  0
   -1.8361   -0.4775    2.5485 O   0  0  0  0  0  0  0  0  0  0  0  0
   -0.7917   -0.6299    3.3579 C   0  0  0  0  0  0  0  0  0  0  0  0
    0.2062   -1.2445    3.1186 O   0  0  0  0  0  0  0  0  0  0  0  0
   -1.2812    1.7056   -0.7974 H   0  0  0  0  0  0  0  0  0  0  0  0
   -2.2051    1.5632    0.8066 H   0  0  0  0  0  0  0  0  0  0  0  0
    0.0498   -0.1629    0.6011 H   0  0  0  0  0  0  0  0  0  0  0  0
   -0.9461   -0.7884   -0.6853 H   0  0  0  0  0  0  0  0  0  0  0  0
   -1.2850   -2.0771    1.3590 H   0  0  0  0  0  0  0  0  0  0  0  0
   -2.7930   -1.2235    0.9483 H   0  0  0  0  0  0  0  0  0  0  0  0
   -0.9863   -0.1022    4.3012 H   0  0  0  0  0  0  0  0  0  0  0  0
  1  2  1  0
  1  7  1  0
  1  8  1  0
  2  3  1  0
  2  9  1  0
  2 10  1  0
  3  4  1  0
  3 11  1  0
  3 12  1  0
  4  5  1  0
  5  6  2  0
  5 13  1  0
M  RAD  1   1   2
M  END
>  <reaction>  (2) 
rmg_rxn_1565

>  <mol_properties>  (2) 
{"0": {"label": "acceptor", "atom_type": "Cs"}}

>  <type>  (2) 
r2

$$$$

     RDKit          3D

 14 13  0  0  0  0  0  0  0  0999 V2000
    2.1277    0.0527   -0.0768 C   0  0  0  0  0  0  0  0  0  0  0  0
    0.8550    0.0849    0.7591 C   0  0  0  0  0  0  0  0  0  0  0  0
    0.7150    1.3361    1.5963 C   0  0  0  0  0  0  0  0  0  0  0  0
    0.5975    2.4604    0.7083 O   0  0  0  0  0  0  0  0  0  0  0  0
    0.5113    3.6572    1.2782 C   0  0  0  0  0  0  0  0  0  0  0  0
    0.5224    3.8788    2.4534 O   0  0  0  0  0  0  0  0  0  0  0  0
    3.0138    0.1211    0.5584 H   0  0  0  0  0  0  0  0  0  0  0  0
    2.1544    0.8845   -0.7813 H   0  0  0  0  0  0  0  0  0  0  0  0
    2.1955   -0.8742   -0.6473 H   0  0  0  0  0  0  0  0  0  0  0  0
    0.8361   -0.7663    1.4449 H   0  0  0  0  0  0  0  0  0  0  0  0
   -0.0232   -0.0114    0.1158 H   0  0  0  0  0  0  0  0  0  0  0  0
   -0.1715    1.3001    2.2317 H   0  0  0  0  0  0  0  0  0  0  0  0
    1.5840    1.4884    2.2407 H   0  0  0  0  0  0  0  0  0  0  0  0
    0.4263    4.4265    0.4986 H   0  0  0  0  0  0  0  0  0  0  0  0
  1  2  1  0
  1  7  1  0
  1  8  1  0
  1  9  1  0
  2  3  1  0
  2 10  1  0
  2 11  1  0
  3  4  1  0
  3 12  1  0
  3 13  1  0
  4  5  1  0
  5  6  2  0
  5 14  1  0
M  END
>  <reaction>  (3) 
rmg_rxn_1565

>  <mol_properties>  (3) 
{"0": {"label": "a_hydrogen", "atom_type": "H0"}, "1": {"label": "acceptor", "atom_type": "Cs"}}

>  <type>  (3) 
r2h

$$$$

     RDKit          3D

 18 16  0  0  0  0  0  0  0  0999 V2000
    1.5700    0.6259    0.1962 N   0  0  0  0  0  0  0  0  0  0  0  0
    2.3211    0.2365   -0.7713 N   0  0  0  0  0  0  0  0  0  0  0  0
    2.6303   -0.9293   -0.8407 O   0  0  0  0  0  0  0  0  0  0  0  0
    0.8973   -0.2673    0.7300 H   0  0  0  0  0  0  0  0  0  0  0  0
    1.1238    1.5230    0.0349 H   0  0  0  0  0  0  0  0  0  0  0  0
    0.0477   -1.2659    1.1366 C   0  0  0  0  0  3  0  0  0  0  0  0
   -0.6730   -1.7877   -0.0744 C   0  0  0  0  0  0  0  0  0  0  0  0
   -1.3894   -0.7307   -0.8946 C   0  0  0  0  0  0  0  0  0  0  0  0
   -2.4218   -0.0851   -0.1250 O   0  0  0  0  0  0  0  0  0  0  0  0
   -2.2003    1.1361    0.3391 C   0  0  0  0  0  0  0  0  0  0  0  0
   -1.2040    1.7892    0.2036 O   0  0  0  0  0  0  0  0  0  0  0  0
    0.7233   -1.9738    1.6079 H   0  0  0  0  0  0  0  0  0  0  0  0
   -0.5662   -0.7312    1.8601 H   0  0  0  0  0  0  0  0  0  0  0  0
   -1.4041   -2.5446    0.2358 H   0  0  0  0  0  0  0  0  0  0  0  0
    0.0364   -2.2867   -0.7382 H   0  0  0  0  0  0  0  0  0  0  0  0
   -1.9067   -1.1874   -1.7367 H   0  0  0  0  0  0  0  0  0  0  0  0
   -0.6962    0.0226   -1.2660 H   0  0  0  0  0  0  0  0  0  0  0  0
   -3.0890    1.4814    0.8828 H   0  0  0  0  0  0  0  0  0  0  0  0
  1  2  1  0
  1  4  1  0
  1  5  1  0
  2  3  2  0
  6  7  1  0
  6 12  1  0
  6 13  1  0
  7  8  1  0
  7 14  1  0
  7 15  1  0
  8  9  1  0
  8 16  1  0
  8 17  1  0
  9 10  1  0
 10 11  2  0
 10 18  1  0
M  RAD  1   6   2
M  END
>  <reaction>  (4) 
rmg_rxn_1565

>  <mol_properties>  (4) 
{"0": {"label": "*1", "atom_type": "N3s"}, "1": {"label": "*0", "atom_type": "N3d"}, "3": {"label": "*2", "atom_type": "H0"}, "5": {"label": "*3", "atom_type": "Cs"}, "6": {"label": "*4", "atom_type": "Cs"}}

>  <type>  (4) 
ts

$$$$
