
     RDKit          3D

  9  8  0  0  0  0  0  0  0  0999 V2000
   -1.0314    0.2323   -0.1227 C   0  0  0  0  0  0  0  0  0  0  0  0
    0.3094   -0.4511    0.0063 C   0  0  0  0  0  0  0  0  0  0  0  0
    0.3197   -1.7698    0.6841 N   0  0  0  0  0  0  0  0  0  0  0  0
   -0.7498   -2.1455    1.0557 O   0  0  0  0  0  0  0  0  0  0  0  0
   -1.4744    0.4198    0.8552 H   0  0  0  0  0  0  0  0  0  0  0  0
   -0.9073    1.1865   -0.6350 H   0  0  0  0  0  0  0  0  0  0  0  0
   -1.7319   -0.3778   -0.6927 H   0  0  0  0  0  0  0  0  0  0  0  0
    1.0375    0.1401    0.5713 H   0  0  0  0  0  0  0  0  0  0  0  0
    0.7826   -0.6494   -0.9609 H   0  0  0  0  0  0  0  0  0  0  0  0
  1  2  1  0
  1  5  1  0
  1  6  1  0
  1  7  1  0
  2  3  1  0
  2  8  1  0
  2  9  1  0
  3  4  2  0
M  END
>  <reaction>  (1) 
rmg_rxn_384

>  <mol_properties>  (1) 
{"0": {"label": "donator", "atom_type": "Cs"}, "4": {"label": "d_hydrogen", "atom_type": "H0"}}

>  <type>  (1) 
r1h

$$$$

     RDKit          3D

  8  7  0  0  0  0  0  0  0  0999 V2000
   -0.7720    0.1667   -0.1823 C   0  0  0  0  0  0  0  0  0  0  0  0
    0.7149   -0.1409   -0.1334 C   0  0  0  0  0  0  0  0  0  0  0  0
    1.2375   -0.7099   -1.2497 O   0  0  0  0  0  1  0  0  0  0  0  0
   -1.3440   -0.7475   -0.3445 H   0  0  0  0  0  0  0  0  0  0  0  0
   -1.1030    0.6205    0.7540 H   0  0  0  0  0  0  0  0  0  0  0  0
   -0.9906    0.8573   -0.9975 H   0  0  0  0  0  0  0  0  0  0  0  0
    1.3115    0.7663    0.0778 H   0  0  0  0  0  0  0  0  0  0  0  0
    0.9660   -0.8029    0.7164 H   0  0  0  0  0  0  0  0  0  0  0  0
  1  2  1  0
  1  4  1  0
  1  5  1  0
  1  6  1  0
  2  3  1  0
  2  7  1  0
  2  8  1  0
M  RAD  1   3   2
M  END
>  <reaction>  (2) 
rmg_rxn_384

>  <mol_properties>  (2) 
{"2": {"label": "acceptor", "atom_type": "O2s"}}

>  <type>  (2) 
r2

$$$$

     RDKit          3D

  9  8  0  0  0  0  0  0  0  0999 V2000
   -0.9895    0.3048    0.1041 C   0  0  0  0  0  0  0  0  0  0  0  0
    0.3761   -0.3562    0.0721 C   0  0  0  0  0  0  0  0  0  0  0  0
    0.3441   -1.6564   -0.4834 O   0  0  0  0  0  0  0  0  0  0  0  0
   -1.6997   -0.3114    0.6572 H   0  0  0  0  0  0  0  0  0  0  0  0
   -0.9320    1.2848    0.5822 H   0  0  0  0  0  0  0  0  0  0  0  0
   -1.3774    0.4507   -0.9077 H   0  0  0  0  0  0  0  0  0  0  0  0
    0.7581   -0.4813    1.0862 H   0  0  0  0  0  0  0  0  0  0  0  0
    1.0900    0.2787   -0.4681 H   0  0  0  0  0  0  0  0  0  0  0  0
    0.0089   -1.5959   -1.3792 H   0  0  0  0  0  0  0  0  0  0  0  0
  1  2  1  0
  1  4  1  0
  1  5  1  0
  1  6  1  0
  2  3  1  0
  2  7  1  0
  2  8  1  0
  3  9  1  0
M  END
>  <reaction>  (3) 
rmg_rxn_384

>  <mol_properties>  (3) 
{"2": {"label": "acceptor", "atom_type": "O2s"}, "8": {"label": "a_hydrogen", "atom_type": "H0"}}

>  <type>  (3) 
r2h

$$$$

     RDKit          3D

 17 15  0  0  0  0  0  0  0  0999 V2000
   -0.6518    2.3821   -1.2017 C   0  0  0  0  0  0  0  0  0  0  0  0
   -1.6477    1.9820   -0.1290 C   0  0  0  0  0  0  0  0  0  0  0  0
   -1.6485    0.6148    0.1636 O   0  0  0  0  0  0  0  0  0  0  0  0
   -0.8257    1.8110   -2.1144 H   0  0  0  0  0  0  0  0  0  0  0  0
   -0.7433    3.4457   -1.4319 H   0  0  0  0  0  0  0  0  0  0  0  0
    0.3699    2.1869   -0.8725 H   0  0  0  0  0  0  0  0  0  0  0  0
   -1.5006    2.5767    0.7827 H   0  0  0  0  0  0  0  0  0  0  0  0
   -2.6720    2.1887   -0.4651 H   0  0  0  0  0  0  0  0  0  0  0  0
    0.4175    0.0725    1.4582 C   0  0  0  0  0  3  0  0  0  0  0  0
    0.9036   -1.2306    0.9100 C   0  0  0  0  0  0  0  0  0  0  0  0
    1.6200   -1.1924   -0.3911 N   0  0  0  0  0  0  0  0  0  0  0  0
    1.8294   -0.0990   -0.8155 O   0  0  0  0  0  0  0  0  0  0  0  0
   -0.6262    0.3665    0.7868 H   0  0  0  0  0  0  0  0  0  0  0  0
    0.0360   -0.0005    2.4738 H   0  0  0  0  0  0  0  0  0  0  0  0
    1.0973    0.9094    1.3203 H   0  0  0  0  0  0  0  0  0  0  0  0
    0.0972   -1.9546    0.7608 H   0  0  0  0  0  0  0  0  0  0  0  0
    1.6203   -1.7263    1.5785 H   0  0  0  0  0  0  0  0  0  0  0  0
  1  2  1  0
  1  4  1  0
  1  5  1  0
  1  6  1  0
  2  3  1  0
  2  7  1  0
  2  8  1  0
  3 13  1  0
  9 10  1  0
  9 14  1  0
  9 15  1  0
 10 11  1  0
 10 16  1  0
 10 17  1  0
 11 12  2  0
M  RAD  1   9   2
M  END
>  <reaction>  (4) 
rmg_rxn_384

>  <mol_properties>  (4) 
{"1": {"label": "*0", "atom_type": "Cs"}, "2": {"label": "*1", "atom_type": "O2s"}, "8": {"label": "*3", "atom_type": "Cs"}, "9": {"label": "*4", "atom_type": "Cs"}, "12": {"label": "*2", "atom_type": "H0"}}

>  <type>  (4) 
ts

$$$$
