
     RDKit          3D

  9  8  0  0  0  0  0  0  0  0999 V2000
   -1.5470   -0.0755   -0.1976 C   0  0  0  0  0  0  0  0  0  0  0  0
   -0.2885    0.4507    0.1749 O   0  0  0  0  0  0  0  0  0  0  0  0
   -0.1502    1.7216   -0.3294 N   0  0  0  0  0  0  0  0  0  0  0  0
    0.9626    2.2353   -0.0219 C   0  0  0  0  0  0  0  0  0  0  0  0
   -1.6392   -0.1356   -1.2844 H   0  0  0  0  0  0  0  0  0  0  0  0
   -2.3597    0.5337    0.2044 H   0  0  0  0  0  0  0  0  0  0  0  0
   -1.5879   -1.0750    0.2318 H   0  0  0  0  0  0  0  0  0  0  0  0
    1.1497    3.2381   -0.3820 H   0  0  0  0  0  0  0  0  0  0  0  0
    1.7060    1.7101    0.5739 H   0  0  0  0  0  0  0  0  0  0  0  0
  1  2  1  0
  1  5  1  0
  1  6  1  0
  1  7  1  0
  2  3  1  0
  3  4  2  3
  4  8  1  0
  4  9  1  0
M  END
>  <reaction>  (1) 
rmg_rxn_15719

>  <mol_properties>  (1) 
{"0": {"label": "donator", "atom_type": "Cs"}, "4": {"label": "d_hydrogen", "atom_type": "H0"}}

>  <type>  (1) 
r1h

$$$$

     RDKit          3D

 14 13  0  0  0  0  0  0  0  0999 V2000
   -2.2399   -0.0166   -0.1883 C   0  0  0  0  0  0  0  0  0  0  0  0
   -1.3469   -1.1905   -0.0279 C   0  0  0  0  0  3  0  0  0  0  0  0
   -1.6654   -2.2692    0.9493 C   0  0  0  0  0  0  0  0  0  0  0  0
   -2.0490   -1.7958    2.2240 O   0  0  0  0  0  0  0  0  0  0  0  0
   -0.9990   -1.1771    2.9198 C   0  0  0  0  0  0  0  0  0  0  0  0
   -2.6700    0.2862    0.7685 H   0  0  0  0  0  0  0  0  0  0  0  0
   -3.0850   -0.2450   -0.8547 H   0  0  0  0  0  0  0  0  0  0  0  0
   -1.7143    0.8346   -0.6240 H   0  0  0  0  0  0  0  0  0  0  0  0
   -0.5797   -1.3809   -0.7686 H   0  0  0  0  0  0  0  0  0  0  0  0
   -2.5244   -2.8609    0.6038 H   0  0  0  0  0  0  0  0  0  0  0  0
   -0.8142   -2.9586    1.0411 H   0  0  0  0  0  0  0  0  0  0  0  0
   -0.6226   -0.2923    2.3915 H   0  0  0  0  0  0  0  0  0  0  0  0
   -1.3883   -0.8732    3.8905 H   0  0  0  0  0  0  0  0  0  0  0  0
   -0.1599   -1.8693    3.0725 H   0  0  0  0  0  0  0  0  0  0  0  0
  1  2  1  0
  1  6  1  0
  1  7  1  0
  1  8  1  0
  2  3  1  0
  2  9  1  0
  3  4  1  0
  3 10  1  0
  3 11  1  0
  4  5  1  0
  5 12  1  0
  5 13  1  0
  5 14  1  0
M  RAD  1   2   2
M  END
>  <reaction>  (2) 
rmg_rxn_15719

>  <mol_properties>  (2) 
{"1": {"label": "acceptor", "atom_type": "Cs"}}

>  <type>  (2) 
r2

$$$$

     RDKit          3D

 15 14  0  0  0  0  0  0  0  0999 V2000
   -1.2811   -0.4129    1.0228 C   0  0  0  0  0  0  0  0  0  0  0  0
   -1.0023   -0.5809   -0.4650 C   0  0  0  0  0  0  0  0  0  0  0  0
   -2.0576    0.0568   -1.3449 C   0  0  0  0  0  0  0  0  0  0  0  0
   -2.0663    1.4464   -1.1307 O   0  0  0  0  0  0  0  0  0  0  0  0
   -3.0424    2.1072   -1.8849 C   0  0  0  0  0  0  0  0  0  0  0  0
   -2.2382   -0.8657    1.2935 H   0  0  0  0  0  0  0  0  0  0  0  0
   -1.3219    0.6426    1.2914 H   0  0  0  0  0  0  0  0  0  0  0  0
   -0.5042   -0.8881    1.6236 H   0  0  0  0  0  0  0  0  0  0  0  0
   -0.0316   -0.1460   -0.7167 H   0  0  0  0  0  0  0  0  0  0  0  0
   -0.9494   -1.6429   -0.7203 H   0  0  0  0  0  0  0  0  0  0  0  0
   -1.8518   -0.1570   -2.4041 H   0  0  0  0  0  0  0  0  0  0  0  0
   -3.0491   -0.3636   -1.1124 H   0  0  0  0  0  0  0  0  0  0  0  0
   -4.0521    1.7545   -1.6343 H   0  0  0  0  0  0  0  0  0  0  0  0
   -2.8850    1.9634   -2.9626 H   0  0  0  0  0  0  0  0  0  0  0  0
   -2.9730    3.1700   -1.6570 H   0  0  0  0  0  0  0  0  0  0  0  0
  1  2  1  0
  1  6  1  0
  1  7  1  0
  1  8  1  0
  2  3  1  0
  2  9  1  0
  2 10  1  0
  3  4  1  0
  3 11  1  0
  3 12  1  0
  4  5  1  0
  5 13  1  0
  5 14  1  0
  5 15  1  0
M  END
>  <reaction>  (3) 
rmg_rxn_15719

>  <mol_properties>  (3) 
{"0": {"label": "a_hydrogen", "atom_type": "H0"}, "2": {"label": "acceptor", "atom_type": "Cs"}}

>  <type>  (3) 
r2h

$$$$

     RDKit          3D

 23 21  0  0  0  0  0  0  0  0999 V2000
   -1.1966    1.8877   -0.2354 C   0  0  0  0  0  0  0  0  0  0  0  0
   -1.1959    1.4430   -1.5525 O   0  0  0  0  0  0  0  0  0  0  0  0
   -1.5562    0.1153   -1.6151 N   0  0  0  0  0  0  0  0  0  0  0  0
   -1.4943   -0.3322   -2.7956 C   0  0  0  0  0  0  0  0  0  0  0  0
   -0.1518    1.3190    0.3924 H   0  0  0  0  0  0  0  0  0  0  0  0
   -2.0837    1.5817    0.3191 H   0  0  0  0  0  0  0  0  0  0  0  0
   -1.0207    2.9599   -0.2430 H   0  0  0  0  0  0  0  0  0  0  0  0
   -1.7701   -1.3689   -2.9342 H   0  0  0  0  0  0  0  0  0  0  0  0
   -1.1838    0.2797   -3.6393 H   0  0  0  0  0  0  0  0  0  0  0  0
    1.8618    0.4948   -0.2984 C   0  0  0  0  0  0  0  0  0  0  0  0
    0.9206    0.6393    0.8667 C   0  0  0  0  0  3  0  0  0  0  0  0
    0.3288   -0.6311    1.4011 C   0  0  0  0  0  0  0  0  0  0  0  0
    1.3443   -1.4212    1.9861 O   0  0  0  0  0  0  0  0  0  0  0  0
    0.8608   -2.6396    2.4773 C   0  0  0  0  0  0  0  0  0  0  0  0
    2.7688   -0.0404   -0.0030 H   0  0  0  0  0  0  0  0  0  0  0  0
    2.1590    1.4681   -0.6931 H   0  0  0  0  0  0  0  0  0  0  0  0
    1.3925   -0.0696   -1.1080 H   0  0  0  0  0  0  0  0  0  0  0  0
    1.2946    1.2919    1.6565 H   0  0  0  0  0  0  0  0  0  0  0  0
   -0.4441   -0.4078    2.1518 H   0  0  0  0  0  0  0  0  0  0  0  0
   -0.1576   -1.1877    0.5864 H   0  0  0  0  0  0  0  0  0  0  0  0
    0.4153   -3.2481    1.6785 H   0  0  0  0  0  0  0  0  0  0  0  0
    1.7033   -3.1811    2.9061 H   0  0  0  0  0  0  0  0  0  0  0  0
    0.1017   -2.4878    3.2570 H   0  0  0  0  0  0  0  0  0  0  0  0
  1  2  1  0
  1  5  1  0
  1  6  1  0
  1  7  1  0
  2  3  1  0
  3  4  2  3
  4  8  1  0
  4  9  1  0
 10 11  1  0
 10 15  1  0
 10 16  1  0
 10 17  1  0
 11 12  1  0
 11 18  1  0
 12 13  1  0
 12 19  1  0
 12 20  1  0
 13 14  1  0
 14 21  1  0
 14 22  1  0
 14 23  1  0
M  RAD  1  11   2
M  END
>  <reaction>  (4) 
rmg_rxn_15719

>  <mol_properties>  (4) 
{"0": {"label": "*1", "atom_type": "Cs"}, "1": {"label": "*0", "atom_type": "O2s"}, "4": {"label": "*2", "atom_type": "H0"}, "10": {"label": "*3", "atom_type": "Cs"}, "11": {"label": "*4", "atom_type": "Cs"}}

>  <type>  (4) 
ts

$$$$
