
     RDKit          3D

  3  2  0  0  0  0  0  0  0  0999 V2000
    0.9943   -0.1797    0.0000 O   0  0  0  0  0  1  0  0  0  0  0  0
   -0.1595    0.4394    0.0000 O   0  0  0  0  0  0  0  0  0  0  0  0
   -0.8348   -0.2597    0.0000 H   0  0  0  0  0  0  0  0  0  0  0  0
  1  2  1  0
  2  3  1  0
M  RAD  1   1   2
M  END
>  <reaction>  (1) 
rmg_rxn_614

>  <mol_properties>  (1) 
{"1": {"label": "donator", "atom_type": "O2s"}, "2": {"label": "d_hydrogen", "atom_type": "H0"}}

>  <type>  (1) 
r1h

$$$$

     RDKit          3D

  5  4  0  0  0  0  0  0  0  0999 V2000
   -0.4986    0.0189   -0.0212 C   0  0  0  0  0  0  0  0  0  0  0  0
    0.6799   -0.4410    0.1054 N   0  0  0  0  0  0  0  0  0  0  0  0
    1.7950    0.0236    0.0595 O   0  0  0  0  0  1  0  0  0  0  0  0
   -1.3180   -0.6753    0.0776 H   0  0  0  0  0  0  0  0  0  0  0  0
   -0.6584    1.0737   -0.2213 H   0  0  0  0  0  0  0  0  0  0  0  0
  1  2  2  3
  1  4  1  0
  1  5  1  0
  2  3  1  0
M  RAD  1   3   2
M  END
>  <reaction>  (2) 
rmg_rxn_614

>  <mol_properties>  (2) 
{"0": {"label": "acceptor", "atom_type": "Cs"}}

>  <type>  (2) 
r2

$$$$

     RDKit          3D

  6  5  0  0  0  0  0  0  0  0999 V2000
   -0.4547   -0.0097   -0.0070 C   0  0  0  0  0  0  0  0  0  0  0  0
    0.8695   -0.1987   -0.6218 N   0  0  0  0  0  0  0  0  0  0  0  0
    1.0322   -1.2809   -1.0969 O   0  0  0  0  0  0  0  0  0  0  0  0
   -0.2820    0.2687    1.0347 H   0  0  0  0  0  0  0  0  0  0  0  0
   -1.0716   -0.9051   -0.0916 H   0  0  0  0  0  0  0  0  0  0  0  0
   -0.9130    0.8487   -0.5026 H   0  0  0  0  0  0  0  0  0  0  0  0
  1  2  1  0
  1  4  1  0
  1  5  1  0
  1  6  1  0
  2  3  2  0
M  END
>  <reaction>  (3) 
rmg_rxn_614

>  <mol_properties>  (3) 
{"0": {"label": "a_hydrogen", "atom_type": "H0"}, "1": {"label": "acceptor", "atom_type": "Cs"}}

>  <type>  (3) 
r2h

$$$$

     RDKit          3D

  8  6  0  0  0  0  0  0  0  0999 V2000
    0.2652   -1.1427   -0.9357 O   0  0  0  0  0  1  0  0  0  0  0  0
    0.1328   -1.7256    0.1682 O   0  0  0  0  0  0  0  0  0  0  0  0
    0.1303   -0.7175    0.9384 H   0  0  0  0  0  0  0  0  0  0  0  0
    0.2248    0.5900    1.1646 C   0  0  0  0  0  0  0  0  0  0  0  0
    0.1041    0.9927   -0.1178 N   0  0  0  0  0  0  0  0  0  0  0  0
   -0.8187    1.4916   -0.6759 O   0  0  0  0  0  1  0  0  0  0  0  0
    1.2423    0.6635    1.5317 H   0  0  0  0  0  0  0  0  0  0  0  0
   -0.5859    0.8819    1.8269 H   0  0  0  0  0  0  0  0  0  0  0  0
  1  2  1  0
  2  3  1  0
  4  5  2  3
  4  7  1  0
  4  8  1  0
  5  6  1  0
M  RAD  2   1   2   6   2
M  END
>  <reaction>  (4) 
rmg_rxn_614

>  <mol_properties>  (4) 
{"0": {"label": "*0", "atom_type": "O2s"}, "1": {"label": "*1", "atom_type": "O2s"}, "2": {"label": "*2", "atom_type": "H0"}, "3": {"label": "*3", "atom_type": "Cd"}, "4": {"label": "*4", "atom_type": "N3d"}}

>  <type>  (4) 
ts

$$$$
