
     RDKit          3D

  7  6  0  0  0  0  0  0  0  0999 V2000
    1.6899   -0.1839   -0.0115 C   0  0  0  0  0  0  0  0  0  0  0  0
    0.5000   -0.0544   -0.0034 C   0  0  0  0  0  0  0  0  0  0  0  0
   -0.9469    0.1030    0.0064 C   0  0  0  0  0  0  0  0  0  0  0  0
    2.7470   -0.2989   -0.0186 H   0  0  0  0  0  0  0  0  0  0  0  0
   -1.4140   -0.5835   -0.7010 H   0  0  0  0  0  0  0  0  0  0  0  0
   -1.2257    1.1206   -0.2707 H   0  0  0  0  0  0  0  0  0  0  0  0
   -1.3502   -0.1030    0.9988 H   0  0  0  0  0  0  0  0  0  0  0  0
  1  2  3  0
  1  4  1  0
  2  3  1  0
  3  5  1  0
  3  6  1  0
  3  7  1  0
M  END
>  <reaction>  (1) 
rmg_rxn_15436

>  <mol_properties>  (1) 
{"0": {"label": "donator", "atom_type": "Ct"}, "3": {"label": "d_hydrogen", "atom_type": "H0"}}

>  <type>  (1) 
r1h

$$$$

     RDKit          3D

  5  4  0  0  0  0  0  0  0  0999 V2000
    0.8934    0.3742    0.4948 O   0  0  0  0  0  0  0  0  0  0  0  0
    0.1582   -0.1610   -0.5904 N   0  0  0  0  0  0  0  0  0  0  0  0
   -1.0297   -0.3739   -0.4689 C   0  0  0  0  0  3  0  0  0  0  0  0
    1.7805    0.4382    0.1306 H   0  0  0  0  0  0  0  0  0  0  0  0
   -1.8023   -0.2775    0.2859 H   0  0  0  0  0  0  0  0  0  0  0  0
  1  2  1  0
  1  4  1  0
  2  3  2  3
  3  5  1  0
M  RAD  1   3   2
M  END
>  <reaction>  (2) 
rmg_rxn_15436

>  <mol_properties>  (2) 
{"2": {"label": "acceptor", "atom_type": "Cd"}}

>  <type>  (2) 
r2

$$$$

     RDKit          3D

  6  5  0  0  0  0  0  0  0  0999 V2000
    1.2314    0.0428    0.5088 O   0  0  0  0  0  0  0  0  0  0  0  0
    0.2987    0.2341   -0.4915 N   0  0  0  0  0  0  0  0  0  0  0  0
   -0.8599   -0.1122   -0.1290 C   0  0  0  0  0  0  0  0  0  0  0  0
    2.0507    0.3401    0.1082 H   0  0  0  0  0  0  0  0  0  0  0  0
   -1.0700   -0.5112    0.8610 H   0  0  0  0  0  0  0  0  0  0  0  0
   -1.6509    0.0064   -0.8574 H   0  0  0  0  0  0  0  0  0  0  0  0
  1  2  1  0
  1  4  1  0
  2  3  2  3
  3  5  1  0
  3  6  1  0
M  END
>  <reaction>  (3) 
rmg_rxn_15436

>  <mol_properties>  (3) 
{"2": {"label": "acceptor", "atom_type": "Cd"}, "5": {"label": "a_hydrogen", "atom_type": "H0"}}

>  <type>  (3) 
r2h

$$$$

     RDKit          3D

 12 10  0  0  0  0  0  0  0  0999 V2000
    3.4386    0.3141   -0.2025 O   0  0  0  0  0  0  0  0  0  0  0  0
    2.0812    0.4066   -0.4375 N   0  0  0  0  0  0  0  0  0  0  0  0
    1.3953   -0.1737    0.4352 C   0  0  0  0  0  0  0  0  0  0  0  0
    3.8225    0.7955   -0.9386 H   0  0  0  0  0  0  0  0  0  0  0  0
    1.7829   -0.7056    1.3016 H   0  0  0  0  0  0  0  0  0  0  0  0
   -1.3619   -0.0858    0.1162 C   0  0  0  0  0  3  0  0  0  0  0  0
   -2.5591   -0.0692    0.0118 C   0  0  0  0  0  0  0  0  0  0  0  0
   -4.0106   -0.0467   -0.1187 C   0  0  0  0  0  0  0  0  0  0  0  0
    0.2655   -0.1303    0.2928 H   0  0  0  0  0  0  0  0  0  0  0  0
   -4.4661    0.4334    0.7482 H   0  0  0  0  0  0  0  0  0  0  0  0
   -4.4044   -1.0608   -0.1965 H   0  0  0  0  0  0  0  0  0  0  0  0
   -4.3055    0.5057   -1.0117 H   0  0  0  0  0  0  0  0  0  0  0  0
  1  2  1  0
  1  4  1  0
  2  3  2  3
  3  5  1  0
  3  9  1  0
  6  7  3  0
  7  8  1  0
  8 10  1  0
  8 11  1  0
  8 12  1  0
M  RAD  1   6   2
M  END
>  <reaction>  (4) 
rmg_rxn_15436

>  <mol_properties>  (4) 
{"1": {"label": "*0", "atom_type": "N3d"}, "2": {"label": "*1", "atom_type": "Cd"}, "5": {"label": "*3", "atom_type": "Ct"}, "6": {"label": "*4", "atom_type": "Ct"}, "8": {"label": "*2", "atom_type": "H0"}}

>  <type>  (4) 
ts

$$$$
