
     RDKit          3D

 12 11  0  0  0  0  0  0  0  0999 V2000
    1.8075    0.1979    0.4695 C   0  0  0  0  0  0  0  0  0  0  0  0
    1.0072   -0.8859   -0.7259 S   0  0  0  0  0  0  0  0  0  0  0  0
   -0.7258   -0.6904   -0.2447 C   0  0  0  0  0  0  0  0  0  0  0  0
   -1.0856   -1.2776    1.1108 C   0  0  0  0  0  0  0  0  0  0  0  0
    1.7126   -0.1777    1.4878 H   0  0  0  0  0  0  0  0  0  0  0  0
    1.4024    1.2089    0.4095 H   0  0  0  0  0  0  0  0  0  0  0  0
    2.8647    0.2298    0.2095 H   0  0  0  0  0  0  0  0  0  0  0  0
   -1.2866   -1.1892   -1.0369 H   0  0  0  0  0  0  0  0  0  0  0  0
   -0.9814    0.3707   -0.2917 H   0  0  0  0  0  0  0  0  0  0  0  0
   -0.5492   -0.7768    1.9180 H   0  0  0  0  0  0  0  0  0  0  0  0
   -0.8418   -2.3397    1.1503 H   0  0  0  0  0  0  0  0  0  0  0  0
   -2.1545   -1.1604    1.3035 H   0  0  0  0  0  0  0  0  0  0  0  0
  1  2  1  0
  1  5  1  0
  1  6  1  0
  1  7  1  0
  2  3  1  0
  3  4  1  0
  3  8  1  0
  3  9  1  0
  4 10  1  0
  4 11  1  0
  4 12  1  0
M  END
>  <reaction>  (1) 
rmg_rxn_519

>  <mol_properties>  (1) 
{"0": {"label": "donator", "atom_type": "Cs"}, "4": {"label": "d_hydrogen", "atom_type": "H0"}}

>  <type>  (1) 
r1h

$$$$

     RDKit          3D

 13 12  0  0  0  0  0  0  0  0999 V2000
    1.9060    0.2628    0.3980 C   0  0  0  0  0  0  0  0  0  0  0  0
    0.6330   -0.4250    0.0685 C   0  0  0  0  0  3  0  0  0  0  0  0
   -0.2610   -0.9325    1.1416 C   0  0  0  0  0  0  0  0  0  0  0  0
   -1.4364   -1.7546    0.6268 C   0  0  0  0  0  0  0  0  0  0  0  0
    2.4899   -0.3070    1.1292 H   0  0  0  0  0  0  0  0  0  0  0  0
    1.7297    1.2496    0.8515 H   0  0  0  0  0  0  0  0  0  0  0  0
    2.5269    0.4197   -0.4845 H   0  0  0  0  0  0  0  0  0  0  0  0
    0.2597   -0.3936   -0.9489 H   0  0  0  0  0  0  0  0  0  0  0  0
   -0.6439   -0.0868    1.7356 H   0  0  0  0  0  0  0  0  0  0  0  0
    0.3260   -1.5277    1.8536 H   0  0  0  0  0  0  0  0  0  0  0  0
   -1.0872   -2.6320    0.0792 H   0  0  0  0  0  0  0  0  0  0  0  0
   -2.0701   -2.0976    1.4459 H   0  0  0  0  0  0  0  0  0  0  0  0
   -2.0561   -1.1637   -0.0512 H   0  0  0  0  0  0  0  0  0  0  0  0
  1  2  1  0
  1  5  1  0
  1  6  1  0
  1  7  1  0
  2  3  1  0
  2  8  1  0
  3  4  1  0
  3  9  1  0
  3 10  1  0
  4 11  1  0
  4 12  1  0
  4 13  1  0
M  RAD  1   2   2
M  END
>  <reaction>  (2) 
rmg_rxn_519

>  <mol_properties>  (2) 
{"1": {"label": "acceptor", "atom_type": "Cs"}}

>  <type>  (2) 
r2

$$$$

     RDKit          3D

 14 13  0  0  0  0  0  0  0  0999 V2000
    1.8106   -0.5953    0.5577 C   0  0  0  0  0  0  0  0  0  0  0  0
    0.5197    0.2064    0.6554 C   0  0  0  0  0  0  0  0  0  0  0  0
   -0.5206   -0.2080   -0.3788 C   0  0  0  0  0  0  0  0  0  0  0  0
   -1.8114    0.5937   -0.2812 C   0  0  0  0  0  0  0  0  0  0  0  0
    2.2725   -0.4752   -0.4251 H   0  0  0  0  0  0  0  0  0  0  0  0
    1.6214   -1.6612    0.7052 H   0  0  0  0  0  0  0  0  0  0  0  0
    2.5364   -0.2784    1.3084 H   0  0  0  0  0  0  0  0  0  0  0  0
    0.0930    0.0950    1.6574 H   0  0  0  0  0  0  0  0  0  0  0  0
    0.7393    1.2723    0.5354 H   0  0  0  0  0  0  0  0  0  0  0  0
   -0.7402   -1.2739   -0.2588 H   0  0  0  0  0  0  0  0  0  0  0  0
   -0.0938   -0.0965   -1.3808 H   0  0  0  0  0  0  0  0  0  0  0  0
   -1.6222    1.6596   -0.4287 H   0  0  0  0  0  0  0  0  0  0  0  0
   -2.2734    0.4736    0.7017 H   0  0  0  0  0  0  0  0  0  0  0  0
   -2.5373    0.2768   -1.0318 H   0  0  0  0  0  0  0  0  0  0  0  0
  1  2  1  0
  1  5  1  0
  1  6  1  0
  1  7  1  0
  2  3  1  0
  2  8  1  0
  2  9  1  0
  3  4  1  0
  3 10  1  0
  3 11  1  0
  4 12  1  0
  4 13  1  0
  4 14  1  0
M  END
>  <reaction>  (3) 
rmg_rxn_519

>  <mol_properties>  (3) 
{"0": {"label": "a_hydrogen", "atom_type": "H0"}, "2": {"label": "acceptor", "atom_type": "Cs"}}

>  <type>  (3) 
r2h

$$$$

     RDKit          3D

 25 23  0  0  0  0  0  0  0  0999 V2000
    0.7818    0.4394    1.2892 C   0  0  0  0  0  0  0  0  0  0  0  0
   -0.7806   -0.1597    1.8510 S   0  0  0  0  0  0  0  0  0  0  0  0
   -0.6679   -1.9110    1.4178 C   0  0  0  0  0  0  0  0  0  0  0  0
   -0.6244   -2.1961   -0.0733 C   0  0  0  0  0  0  0  0  0  0  0  0
    0.8587    0.6718   -0.0270 H   0  0  0  0  0  0  0  0  0  0  0  0
    1.6080   -0.2392    1.5039 H   0  0  0  0  0  0  0  0  0  0  0  0
    0.9611    1.4272    1.7089 H   0  0  0  0  0  0  0  0  0  0  0  0
   -1.5511   -2.3632    1.8718 H   0  0  0  0  0  0  0  0  0  0  0  0
    0.2054   -2.3315    1.9213 H   0  0  0  0  0  0  0  0  0  0  0  0
    0.2612   -1.7520   -0.5283 H   0  0  0  0  0  0  0  0  0  0  0  0
   -1.5029   -1.7869   -0.5734 H   0  0  0  0  0  0  0  0  0  0  0  0
   -0.5916   -3.2727   -0.2545 H   0  0  0  0  0  0  0  0  0  0  0  0
    2.2632    0.1276   -1.7615 C   0  0  0  0  0  0  0  0  0  0  0  0
    1.1360    1.0248   -1.3246 C   0  0  0  0  0  3  0  0  0  0  0  0
   -0.1469    0.9226   -2.1083 C   0  0  0  0  0  0  0  0  0  0  0  0
   -1.2579    1.8148   -1.5693 C   0  0  0  0  0  0  0  0  0  0  0  0
    2.6159    0.3922   -2.7648 H   0  0  0  0  0  0  0  0  0  0  0  0
    1.9480   -0.9186   -1.7995 H   0  0  0  0  0  0  0  0  0  0  0  0
    3.1175    0.1971   -1.0853 H   0  0  0  0  0  0  0  0  0  0  0  0
    1.4526    2.0600   -1.1780 H   0  0  0  0  0  0  0  0  0  0  0  0
   -0.4827   -0.1189   -2.1216 H   0  0  0  0  0  0  0  0  0  0  0  0
    0.0556    1.1816   -3.1570 H   0  0  0  0  0  0  0  0  0  0  0  0
   -0.9448    2.8616   -1.5577 H   0  0  0  0  0  0  0  0  0  0  0  0
   -2.1568    1.7424   -2.1836 H   0  0  0  0  0  0  0  0  0  0  0  0
   -1.5226    1.5305   -0.5492 H   0  0  0  0  0  0  0  0  0  0  0  0
  1  2  1  0
  1  5  1  0
  1  6  1  0
  1  7  1  0
  2  3  1  0
  3  4  1  0
  3  8  1  0
  3  9  1  0
  4 10  1  0
  4 11  1  0
  4 12  1  0
 13 14  1  0
 13 17  1  0
 13 18  1  0
 13 19  1  0
 14 15  1  0
 14 20  1  0
 15 16  1  0
 15 21  1  0
 15 22  1  0
 16 23  1  0
 16 24  1  0
 16 25  1  0
M  RAD  1  14   2
M  END
>  <reaction>  (4) 
rmg_rxn_519

>  <mol_properties>  (4) 
{"0": {"label": "*1", "atom_type": "Cs"}, "1": {"label": "*0", "atom_type": "S2s"}, "4": {"label": "*2", "atom_type": "H0"}, "13": {"label": "*3", "atom_type": "Cs"}, "14": {"label": "*4", "atom_type": "Cs"}}

>  <type>  (4) 
ts

$$$$
