
     RDKit          3D

  9  8  0  0  0  0  0  0  0  0999 V2000
   -1.2461    0.5037    0.0950 C   0  0  0  0  0  0  0  0  0  0  0  0
   -0.0155   -0.3334    0.0640 C   0  0  0  0  0  0  0  0  0  0  0  0
    1.0697    0.1457   -0.3733 N   0  0  0  0  0  0  0  0  0  0  0  0
    2.1001   -0.7834   -0.3224 O   0  0  0  0  0  0  0  0  0  0  0  0
   -2.0357    0.0440   -0.5039 H   0  0  0  0  0  0  0  0  0  0  0  0
   -1.6237    0.5897    1.1166 H   0  0  0  0  0  0  0  0  0  0  0  0
   -1.0397    1.4998   -0.2929 H   0  0  0  0  0  0  0  0  0  0  0  0
   -0.0537   -1.3634    0.4205 H   0  0  0  0  0  0  0  0  0  0  0  0
    2.8478   -0.2985   -0.6758 H   0  0  0  0  0  0  0  0  0  0  0  0
  1  2  1  0
  1  5  1  0
  1  6  1  0
  1  7  1  0
  2  3  2  3
  2  8  1  0
  3  4  1  0
  4  9  1  0
M  END
>  <reaction>  (1) 
rmg_rxn_48

>  <mol_properties>  (1) 
{"3": {"label": "donator", "atom_type": "O2s"}, "8": {"label": "d_hydrogen", "atom_type": "H0"}}

>  <type>  (1) 
r1h

$$$$

     RDKit          3D

 14 13  0  0  0  0  0  0  0  0999 V2000
    2.5796   -0.5432    0.2329 C   0  0  0  0  0  3  0  0  0  0  0  0
    1.2594    0.0982    0.3029 C   0  0  0  0  0  0  0  0  0  0  0  0
   -0.0483   -1.0244    0.9576 S   0  0  0  0  0  0  0  0  0  0  0  0
   -0.0049   -2.3732   -0.2491 C   0  0  0  0  0  0  0  0  0  0  0  0
   -0.3891   -1.9781   -1.6653 C   0  0  0  0  0  0  0  0  0  0  0  0
    2.9359   -0.9798   -0.6903 H   0  0  0  0  0  0  0  0  0  0  0  0
    3.1327   -0.7454    1.1400 H   0  0  0  0  0  0  0  0  0  0  0  0
    0.9347    0.4858   -0.6621 H   0  0  0  0  0  0  0  0  0  0  0  0
    1.2442    0.9220    1.0193 H   0  0  0  0  0  0  0  0  0  0  0  0
    0.9819   -2.8380   -0.2257 H   0  0  0  0  0  0  0  0  0  0  0  0
   -0.7110   -3.1037    0.1493 H   0  0  0  0  0  0  0  0  0  0  0  0
    0.3274   -1.2737   -2.0913 H   0  0  0  0  0  0  0  0  0  0  0  0
   -0.4075   -2.8581   -2.3121 H   0  0  0  0  0  0  0  0  0  0  0  0
   -1.3749   -1.5123   -1.6865 H   0  0  0  0  0  0  0  0  0  0  0  0
  1  2  1  0
  1  6  1  0
  1  7  1  0
  2  3  1  0
  2  8  1  0
  2  9  1  0
  3  4  1  0
  4  5  1  0
  4 10  1  0
  4 11  1  0
  5 12  1  0
  5 13  1  0
  5 14  1  0
M  RAD  1   1   2
M  END
>  <reaction>  (2) 
rmg_rxn_48

>  <mol_properties>  (2) 
{"0": {"label": "acceptor", "atom_type": "Cs"}}

>  <type>  (2) 
r2

$$$$

     RDKit          3D

 15 14  0  0  0  0  0  0  0  0999 V2000
   -2.0554    0.0723   -0.4910 C   0  0  0  0  0  0  0  0  0  0  0  0
   -0.7461   -0.6266   -0.8178 C   0  0  0  0  0  0  0  0  0  0  0  0
    0.3249    0.2591   -1.9782 S   0  0  0  0  0  0  0  0  0  0  0  0
   -0.7172    0.3642   -3.4551 C   0  0  0  0  0  0  0  0  0  0  0  0
   -1.1375   -0.9737   -4.0409 C   0  0  0  0  0  0  0  0  0  0  0  0
   -2.7005    0.1427   -1.3684 H   0  0  0  0  0  0  0  0  0  0  0  0
   -2.6016   -0.4848    0.2733 H   0  0  0  0  0  0  0  0  0  0  0  0
   -1.8758    1.0825   -0.1213 H   0  0  0  0  0  0  0  0  0  0  0  0
   -0.1320   -0.7246    0.0789 H   0  0  0  0  0  0  0  0  0  0  0  0
   -0.9254   -1.6374   -1.1879 H   0  0  0  0  0  0  0  0  0  0  0  0
   -1.5873    0.9874   -3.2422 H   0  0  0  0  0  0  0  0  0  0  0  0
   -0.1021    0.9161   -4.1678 H   0  0  0  0  0  0  0  0  0  0  0  0
   -1.7876   -1.5224   -3.3574 H   0  0  0  0  0  0  0  0  0  0  0  0
   -0.2676   -1.5962   -4.2534 H   0  0  0  0  0  0  0  0  0  0  0  0
   -1.6916   -0.8229   -4.9700 H   0  0  0  0  0  0  0  0  0  0  0  0
  1  2  1  0
  1  6  1  0
  1  7  1  0
  1  8  1  0
  2  3  1  0
  2  9  1  0
  2 10  1  0
  3  4  1  0
  4  5  1  0
  4 11  1  0
  4 12  1  0
  5 13  1  0
  5 14  1  0
  5 15  1  0
M  END
>  <reaction>  (3) 
rmg_rxn_48

>  <mol_properties>  (3) 
{"0": {"label": "a_hydrogen", "atom_type": "H0"}, "1": {"label": "acceptor", "atom_type": "Cs"}}

>  <type>  (3) 
r2h

$$$$

     RDKit          3D

 23 21  0  0  0  0  0  0  0  0999 V2000
    0.2254   -0.8755   -4.4230 C   0  0  0  0  0  0  0  0  0  0  0  0
   -0.8959   -0.3050   -3.6256 C   0  0  0  0  0  0  0  0  0  0  0  0
   -0.8995   -0.4071   -2.3615 N   0  0  0  0  0  0  0  0  0  0  0  0
   -1.9485    0.1391   -1.7419 O   0  0  0  0  0  0  0  0  0  0  0  0
   -0.1460   -1.6198   -5.1317 H   0  0  0  0  0  0  0  0  0  0  0  0
    0.7204   -0.0945   -5.0052 H   0  0  0  0  0  0  0  0  0  0  0  0
    0.9572   -1.3458   -3.7680 H   0  0  0  0  0  0  0  0  0  0  0  0
   -1.7149    0.2012   -4.1373 H   0  0  0  0  0  0  0  0  0  0  0  0
   -1.7579   -0.0773   -0.5734 H   0  0  0  0  0  0  0  0  0  0  0  0
   -1.4101   -0.3722    0.6602 C   0  0  0  0  0  3  0  0  0  0  0  0
    0.0784   -0.2533    0.6815 C   0  0  0  0  0  0  0  0  0  0  0  0
    0.8140   -0.9116    2.2100 S   0  0  0  0  0  0  0  0  0  0  0  0
    0.0870    0.1586    3.4782 C   0  0  0  0  0  0  0  0  0  0  0  0
    0.4064    1.6367    3.3306 C   0  0  0  0  0  0  0  0  0  0  0  0
   -1.7930   -1.3827    0.7868 H   0  0  0  0  0  0  0  0  0  0  0  0
   -1.9589    0.3668    1.2417 H   0  0  0  0  0  0  0  0  0  0  0  0
    0.4028    0.7751    0.5253 H   0  0  0  0  0  0  0  0  0  0  0  0
    0.5199   -0.8573   -0.1128 H   0  0  0  0  0  0  0  0  0  0  0  0
   -0.9904   -0.0075    3.5188 H   0  0  0  0  0  0  0  0  0  0  0  0
    0.5013   -0.2304    4.4099 H   0  0  0  0  0  0  0  0  0  0  0  0
   -0.0363    2.0537    2.4246 H   0  0  0  0  0  0  0  0  0  0  0  0
    0.0045    2.1959    4.1783 H   0  0  0  0  0  0  0  0  0  0  0  0
    1.4836    1.8005    3.2873 H   0  0  0  0  0  0  0  0  0  0  0  0
  1  2  1  0
  1  5  1  0
  1  6  1  0
  1  7  1  0
  2  3  2  3
  2  8  1  0
  3  4  1  0
  4  9  1  0
 10 11  1  0
 10 15  1  0
 10 16  1  0
 11 12  1  0
 11 17  1  0
 11 18  1  0
 12 13  1  0
 13 14  1  0
 13 19  1  0
 13 20  1  0
 14 21  1  0
 14 22  1  0
 14 23  1  0
M  RAD  1  10   2
M  END
>  <reaction>  (4) 
rmg_rxn_48

>  <mol_properties>  (4) 
{"2": {"label": "*0", "atom_type": "N3d"}, "3": {"label": "*1", "atom_type": "O2s"}, "8": {"label": "*2", "atom_type": "H0"}, "9": {"label": "*3", "atom_type": "Cs"}, "10": {"label": "*4", "atom_type": "Cs"}}

>  <type>  (4) 
ts

$$$$
