
     RDKit          3D

  8  7  0  0  0  0  0  0  0  0999 V2000
    0.9548    0.1194   -0.0790 C   0  0  0  0  0  0  0  0  0  0  0  0
   -0.4838   -0.2649    0.0193 C   0  0  0  0  0  0  0  0  0  0  0  0
   -0.8933   -1.1081    0.8664 N   0  0  0  0  0  0  0  0  0  0  0  0
    1.3360   -0.0983   -1.0800 H   0  0  0  0  0  0  0  0  0  0  0  0
    1.0698    1.1948    0.0786 H   0  0  0  0  0  0  0  0  0  0  0  0
    1.5426   -0.4219    0.6602 H   0  0  0  0  0  0  0  0  0  0  0  0
   -1.1575    0.2324   -0.6905 H   0  0  0  0  0  0  0  0  0  0  0  0
   -1.8989   -1.2455    0.7886 H   0  0  0  0  0  0  0  0  0  0  0  0
  1  2  1  0
  1  4  1  0
  1  5  1  0
  1  6  1  0
  2  3  2  3
  2  7  1  0
  3  8  1  0
M  END
>  <reaction>  (1) 
rmg_rxn_16532

>  <mol_properties>  (1) 
{"2": {"label": "donator", "atom_type": "N3d"}, "7": {"label": "d_hydrogen", "atom_type": "H0"}}

>  <type>  (1) 
r1h

$$$$

     RDKit          3D

 14 13  0  0  0  0  0  0  0  0999 V2000
   -2.1206   -0.4411   -0.0870 C   0  0  0  0  0  0  0  0  0  0  0  0
   -1.0997    0.6970   -0.0676 C   0  0  0  0  0  0  0  0  0  0  0  0
    0.2802    0.2544    0.2554 C   0  0  0  0  0  3  0  0  0  0  0  0
    0.4226   -0.3691    1.4498 O   0  0  0  0  0  0  0  0  0  0  0  0
    1.7390   -0.7527    1.7712 C   0  0  0  0  0  0  0  0  0  0  0  0
   -2.1607   -0.9402    0.8813 H   0  0  0  0  0  0  0  0  0  0  0  0
   -3.1178   -0.0616   -0.3157 H   0  0  0  0  0  0  0  0  0  0  0  0
   -1.8556   -1.1862   -0.8390 H   0  0  0  0  0  0  0  0  0  0  0  0
   -1.4302    1.4562    0.6577 H   0  0  0  0  0  0  0  0  0  0  0  0
   -1.0732    1.1931   -1.0403 H   0  0  0  0  0  0  0  0  0  0  0  0
    1.1485    0.8011   -0.1074 H   0  0  0  0  0  0  0  0  0  0  0  0
    2.4055    0.1169    1.7924 H   0  0  0  0  0  0  0  0  0  0  0  0
    2.1218   -1.4782    1.0472 H   0  0  0  0  0  0  0  0  0  0  0  0
    1.7107   -1.2066    2.7598 H   0  0  0  0  0  0  0  0  0  0  0  0
  1  2  1  0
  1  6  1  0
  1  7  1  0
  1  8  1  0
  2  3  1  0
  2  9  1  0
  2 10  1  0
  3  4  1  0
  3 11  1  0
  4  5  1  0
  5 12  1  0
  5 13  1  0
  5 14  1  0
M  RAD  1   3   2
M  END
>  <reaction>  (2) 
rmg_rxn_16532

>  <mol_properties>  (2) 
{"2": {"label": "acceptor", "atom_type": "Cs"}}

>  <type>  (2) 
r2

$$$$

     RDKit          3D

 15 14  0  0  0  0  0  0  0  0999 V2000
   -1.2811   -0.4129    1.0228 C   0  0  0  0  0  0  0  0  0  0  0  0
   -1.0023   -0.5809   -0.4650 C   0  0  0  0  0  0  0  0  0  0  0  0
   -2.0576    0.0568   -1.3449 C   0  0  0  0  0  0  0  0  0  0  0  0
   -2.0663    1.4464   -1.1307 O   0  0  0  0  0  0  0  0  0  0  0  0
   -3.0424    2.1072   -1.8849 C   0  0  0  0  0  0  0  0  0  0  0  0
   -2.2382   -0.8657    1.2935 H   0  0  0  0  0  0  0  0  0  0  0  0
   -1.3219    0.6426    1.2914 H   0  0  0  0  0  0  0  0  0  0  0  0
   -0.5042   -0.8881    1.6236 H   0  0  0  0  0  0  0  0  0  0  0  0
   -0.0316   -0.1460   -0.7167 H   0  0  0  0  0  0  0  0  0  0  0  0
   -0.9494   -1.6429   -0.7203 H   0  0  0  0  0  0  0  0  0  0  0  0
   -1.8518   -0.1570   -2.4041 H   0  0  0  0  0  0  0  0  0  0  0  0
   -3.0491   -0.3636   -1.1124 H   0  0  0  0  0  0  0  0  0  0  0  0
   -4.0521    1.7545   -1.6343 H   0  0  0  0  0  0  0  0  0  0  0  0
   -2.8850    1.9634   -2.9626 H   0  0  0  0  0  0  0  0  0  0  0  0
   -2.9730    3.1700   -1.6570 H   0  0  0  0  0  0  0  0  0  0  0  0
  1  2  1  0
  1  6  1  0
  1  7  1  0
  1  8  1  0
  2  3  1  0
  2  9  1  0
  2 10  1  0
  3  4  1  0
  3 11  1  0
  3 12  1  0
  4  5  1  0
  5 13  1  0
  5 14  1  0
  5 15  1  0
M  END
>  <reaction>  (3) 
rmg_rxn_16532

>  <mol_properties>  (3) 
{"0": {"label": "a_hydrogen", "atom_type": "H0"}, "3": {"label": "acceptor", "atom_type": "Cs"}}

>  <type>  (3) 
r2h

$$$$

     RDKit          3D

 22 20  0  0  0  0  0  0  0  0999 V2000
   -3.3445   -0.3568   -0.3618 C   0  0  0  0  0  0  0  0  0  0  0  0
   -1.8740   -0.1492   -0.1511 C   0  0  0  0  0  0  0  0  0  0  0  0
   -1.2728   -0.5392    0.8800 N   0  0  0  0  0  0  0  0  0  0  0  0
   -3.5115   -0.9378   -1.2720 H   0  0  0  0  0  0  0  0  0  0  0  0
   -3.7856   -0.8766    0.4866 H   0  0  0  0  0  0  0  0  0  0  0  0
   -3.8417    0.6067   -0.4978 H   0  0  0  0  0  0  0  0  0  0  0  0
   -1.3398    0.3743   -0.9591 H   0  0  0  0  0  0  0  0  0  0  0  0
   -0.0512   -0.2164    0.7199 H   0  0  0  0  0  0  0  0  0  0  0  0
    1.8055   -2.2427    0.2313 C   0  0  0  0  0  0  0  0  0  0  0  0
    1.6657   -0.9572   -0.5739 C   0  0  0  0  0  0  0  0  0  0  0  0
    1.1511    0.1764    0.2660 C   0  0  0  0  0  3  0  0  0  0  0  0
    0.9753    1.3252   -0.4747 O   0  0  0  0  0  0  0  0  0  0  0  0
    0.6397    2.4559    0.2954 C   0  0  0  0  0  0  0  0  0  0  0  0
    2.5062   -2.1139    1.0592 H   0  0  0  0  0  0  0  0  0  0  0  0
    0.8450   -2.5470    0.6502 H   0  0  0  0  0  0  0  0  0  0  0  0
    2.1762   -3.0546   -0.3948 H   0  0  0  0  0  0  0  0  0  0  0  0
    0.9788   -1.1093   -1.4113 H   0  0  0  0  0  0  0  0  0  0  0  0
    2.6298   -0.6732   -1.0104 H   0  0  0  0  0  0  0  0  0  0  0  0
    1.7148    0.3511    1.1924 H   0  0  0  0  0  0  0  0  0  0  0  0
   -0.2993    2.2986    0.8362 H   0  0  0  0  0  0  0  0  0  0  0  0
    0.5282    3.2936   -0.3905 H   0  0  0  0  0  0  0  0  0  0  0  0
    1.4299    2.6846    1.0197 H   0  0  0  0  0  0  0  0  0  0  0  0
  1  2  1  0
  1  4  1  0
  1  5  1  0
  1  6  1  0
  2  3  2  3
  2  7  1  0
  3  8  1  0
  9 10  1  0
  9 14  1  0
  9 15  1  0
  9 16  1  0
 10 11  1  0
 10 17  1  0
 10 18  1  0
 11 12  1  0
 11 19  1  0
 12 13  1  0
 13 20  1  0
 13 21  1  0
 13 22  1  0
M  RAD  1  11   2
M  END
>  <reaction>  (4) 
rmg_rxn_16532

>  <mol_properties>  (4) 
{"1": {"label": "*0", "atom_type": "Cd"}, "2": {"label": "*1", "atom_type": "N3d"}, "7": {"label": "*2", "atom_type": "H0"}, "10": {"label": "*3", "atom_type": "Cs"}, "11": {"label": "*4", "atom_type": "O2s"}}

>  <type>  (4) 
ts

$$$$
