
     RDKit          3D

  9  8  0  0  0  0  0  0  0  0999 V2000
   -1.5470   -0.0755   -0.1976 C   0  0  0  0  0  0  0  0  0  0  0  0
   -0.2885    0.4507    0.1749 O   0  0  0  0  0  0  0  0  0  0  0  0
   -0.1502    1.7216   -0.3294 N   0  0  0  0  0  0  0  0  0  0  0  0
    0.9626    2.2353   -0.0219 C   0  0  0  0  0  0  0  0  0  0  0  0
   -1.6392   -0.1356   -1.2844 H   0  0  0  0  0  0  0  0  0  0  0  0
   -2.3597    0.5337    0.2044 H   0  0  0  0  0  0  0  0  0  0  0  0
   -1.5879   -1.0750    0.2318 H   0  0  0  0  0  0  0  0  0  0  0  0
    1.1497    3.2381   -0.3820 H   0  0  0  0  0  0  0  0  0  0  0  0
    1.7060    1.7101    0.5739 H   0  0  0  0  0  0  0  0  0  0  0  0
  1  2  1  0
  1  5  1  0
  1  6  1  0
  1  7  1  0
  2  3  1  0
  3  4  2  3
  4  8  1  0
  4  9  1  0
M  END
>  <reaction>  (1) 
rmg_rxn_16575

>  <mol_properties>  (1) 
{"0": {"label": "donator", "atom_type": "Cs"}, "4": {"label": "d_hydrogen", "atom_type": "H0"}}

>  <type>  (1) 
r1h

$$$$

     RDKit          3D

  7  6  0  0  0  0  0  0  0  0999 V2000
   -0.8788   -0.0543   -0.1110 C   0  0  0  0  0  0  0  0  0  0  0  0
    0.2557    0.5113    0.6601 C   0  0  0  0  0  3  0  0  0  0  0  0
    1.4636    0.2959    0.5578 N   0  0  0  0  0  0  0  0  0  0  0  0
   -0.5263   -0.7611   -0.8677 H   0  0  0  0  0  0  0  0  0  0  0  0
   -1.5674   -0.5588    0.5681 H   0  0  0  0  0  0  0  0  0  0  0  0
   -1.4318    0.7525   -0.5935 H   0  0  0  0  0  0  0  0  0  0  0  0
    2.0839    0.7934    1.1919 H   0  0  0  0  0  0  0  0  0  0  0  0
  1  2  1  0
  1  4  1  0
  1  5  1  0
  1  6  1  0
  2  3  2  3
  3  7  1  0
M  RAD  1   2   2
M  END
>  <reaction>  (2) 
rmg_rxn_16575

>  <mol_properties>  (2) 
{"1": {"label": "acceptor", "atom_type": "Cd"}}

>  <type>  (2) 
r2

$$$$

     RDKit          3D

  8  7  0  0  0  0  0  0  0  0999 V2000
    0.9548    0.1194   -0.0790 C   0  0  0  0  0  0  0  0  0  0  0  0
   -0.4838   -0.2649    0.0193 C   0  0  0  0  0  0  0  0  0  0  0  0
   -0.8933   -1.1081    0.8664 N   0  0  0  0  0  0  0  0  0  0  0  0
    1.3360   -0.0983   -1.0800 H   0  0  0  0  0  0  0  0  0  0  0  0
    1.0698    1.1948    0.0786 H   0  0  0  0  0  0  0  0  0  0  0  0
    1.5426   -0.4219    0.6602 H   0  0  0  0  0  0  0  0  0  0  0  0
   -1.1575    0.2324   -0.6905 H   0  0  0  0  0  0  0  0  0  0  0  0
   -1.8989   -1.2455    0.7886 H   0  0  0  0  0  0  0  0  0  0  0  0
  1  2  1  0
  1  4  1  0
  1  5  1  0
  1  6  1  0
  2  3  2  3
  2  7  1  0
  3  8  1  0
M  END
>  <reaction>  (3) 
rmg_rxn_16575

>  <mol_properties>  (3) 
{"1": {"label": "acceptor", "atom_type": "Cd"}, "7": {"label": "a_hydrogen", "atom_type": "H0"}}

>  <type>  (3) 
r2h

$$$$

     RDKit          3D

 16 14  0  0  0  0  0  0  0  0999 V2000
    2.2290    0.4803    1.9808 C   0  0  0  0  0  0  0  0  0  0  0  0
    1.1403   -0.2131    1.2362 C   0  0  0  0  0  0  0  0  0  0  0  0
    1.0879   -1.4358    0.9925 N   0  0  0  0  0  0  0  0  0  0  0  0
    2.9947   -0.2297    2.2965 H   0  0  0  0  0  0  0  0  0  0  0  0
    2.6802    1.2471    1.3474 H   0  0  0  0  0  0  0  0  0  0  0  0
    1.8171    0.9870    2.8563 H   0  0  0  0  0  0  0  0  0  0  0  0
    0.2537   -1.6880    0.4617 H   0  0  0  0  0  0  0  0  0  0  0  0
   -0.9277    1.2254    0.2300 C   0  0  0  0  0  3  0  0  0  0  0  0
   -0.9410    0.8856   -1.1173 O   0  0  0  0  0  0  0  0  0  0  0  0
   -1.2163   -0.4557   -1.2767 N   0  0  0  0  0  0  0  0  0  0  0  0
   -1.2366   -0.7897   -2.4951 C   0  0  0  0  0  0  0  0  0  0  0  0
    0.1532    0.5830    0.8124 H   0  0  0  0  0  0  0  0  0  0  0  0
   -1.7996    0.8627    0.7749 H   0  0  0  0  0  0  0  0  0  0  0  0
   -0.7624    2.2965    0.3047 H   0  0  0  0  0  0  0  0  0  0  0  0
   -1.4470   -1.8291   -2.7083 H   0  0  0  0  0  0  0  0  0  0  0  0
   -1.0535   -0.0815   -3.2997 H   0  0  0  0  0  0  0  0  0  0  0  0
  1  2  1  0
  1  4  1  0
  1  5  1  0
  1  6  1  0
  2  3  2  3
  2 12  1  0
  3  7  1  0
  8  9  1  0
  8 13  1  0
  8 14  1  0
  9 10  1  0
 10 11  2  3
 11 15  1  0
 11 16  1  0
M  RAD  1   8   2
M  END
>  <reaction>  (4) 
rmg_rxn_16575

>  <mol_properties>  (4) 
{"1": {"label": "*1", "atom_type": "Cd"}, "2": {"label": "*0", "atom_type": "N3d"}, "7": {"label": "*3", "atom_type": "Cs"}, "8": {"label": "*4", "atom_type": "O2s"}, "11": {"label": "*2", "atom_type": "H0"}}

>  <type>  (4) 
ts

$$$$
