
     RDKit          3D

  9  8  0  0  0  0  0  0  0  0999 V2000
   -1.5470   -0.0755   -0.1976 C   0  0  0  0  0  0  0  0  0  0  0  0
   -0.2885    0.4507    0.1749 O   0  0  0  0  0  0  0  0  0  0  0  0
   -0.1502    1.7216   -0.3294 N   0  0  0  0  0  0  0  0  0  0  0  0
    0.9626    2.2353   -0.0219 C   0  0  0  0  0  0  0  0  0  0  0  0
   -1.6392   -0.1356   -1.2844 H   0  0  0  0  0  0  0  0  0  0  0  0
   -2.3597    0.5337    0.2044 H   0  0  0  0  0  0  0  0  0  0  0  0
   -1.5879   -1.0750    0.2318 H   0  0  0  0  0  0  0  0  0  0  0  0
    1.1497    3.2381   -0.3820 H   0  0  0  0  0  0  0  0  0  0  0  0
    1.7060    1.7101    0.5739 H   0  0  0  0  0  0  0  0  0  0  0  0
  1  2  1  0
  1  5  1  0
  1  6  1  0
  1  7  1  0
  2  3  1  0
  3  4  2  3
  4  8  1  0
  4  9  1  0
M  END
>  <reaction>  (1) 
rmg_rxn_15688

>  <mol_properties>  (1) 
{"0": {"label": "donator", "atom_type": "Cs"}, "4": {"label": "d_hydrogen", "atom_type": "H0"}}

>  <type>  (1) 
r1h

$$$$

     RDKit          3D

  9  8  0  0  0  0  0  0  0  0999 V2000
    1.2172    0.4579   -0.1964 C   0  0  0  0  0  3  0  0  0  0  0  0
    0.1414   -0.5234    0.0523 C   0  0  0  0  0  0  0  0  0  0  0  0
    0.5861   -1.9610    0.1321 C   0  0  0  0  0  0  0  0  0  0  0  0
    1.7162   -2.3406    0.0105 O   0  0  0  0  0  0  0  0  0  0  0  0
    0.9857    1.5106   -0.2681 H   0  0  0  0  0  0  0  0  0  0  0  0
    2.2392    0.1268   -0.3076 H   0  0  0  0  0  0  0  0  0  0  0  0
   -0.6447   -0.4809   -0.7179 H   0  0  0  0  0  0  0  0  0  0  0  0
   -0.4048   -0.3122    0.9851 H   0  0  0  0  0  0  0  0  0  0  0  0
   -0.2343   -2.6846    0.3193 H   0  0  0  0  0  0  0  0  0  0  0  0
  1  2  1  0
  1  5  1  0
  1  6  1  0
  2  3  1  0
  2  7  1  0
  2  8  1  0
  3  4  2  0
  3  9  1  0
M  RAD  1   1   2
M  END
>  <reaction>  (2) 
rmg_rxn_15688

>  <mol_properties>  (2) 
{"0": {"label": "acceptor", "atom_type": "Cs"}}

>  <type>  (2) 
r2

$$$$

     RDKit          3D

 10  9  0  0  0  0  0  0  0  0999 V2000
   -1.1238    0.2714    0.2496 C   0  0  0  0  0  0  0  0  0  0  0  0
    0.0881   -0.5850   -0.0680 C   0  0  0  0  0  0  0  0  0  0  0  0
   -0.0512   -1.4242   -1.3070 C   0  0  0  0  0  0  0  0  0  0  0  0
   -1.0187   -1.4480   -2.0158 O   0  0  0  0  0  0  0  0  0  0  0  0
   -2.0096   -0.3470    0.3939 H   0  0  0  0  0  0  0  0  0  0  0  0
   -0.9564    0.8523    1.1567 H   0  0  0  0  0  0  0  0  0  0  0  0
   -1.3376    0.9606   -0.5673 H   0  0  0  0  0  0  0  0  0  0  0  0
    0.3267   -1.2715    0.7528 H   0  0  0  0  0  0  0  0  0  0  0  0
    0.9917    0.0222   -0.1983 H   0  0  0  0  0  0  0  0  0  0  0  0
    0.8330   -2.0534   -1.5447 H   0  0  0  0  0  0  0  0  0  0  0  0
  1  2  1  0
  1  5  1  0
  1  6  1  0
  1  7  1  0
  2  3  1  0
  2  8  1  0
  2  9  1  0
  3  4  2  0
  3 10  1  0
M  END
>  <reaction>  (3) 
rmg_rxn_15688

>  <mol_properties>  (3) 
{"0": {"label": "a_hydrogen", "atom_type": "H0"}, "1": {"label": "acceptor", "atom_type": "Cs"}}

>  <type>  (3) 
r2h

$$$$

     RDKit          3D

 18 16  0  0  0  0  0  0  0  0999 V2000
   -0.3093    1.6110   -0.7226 C   0  0  0  0  0  0  0  0  0  0  0  0
   -0.3492    0.5222   -1.5894 O   0  0  0  0  0  0  0  0  0  0  0  0
   -1.5859   -0.0829   -1.5535 N   0  0  0  0  0  0  0  0  0  0  0  0
   -1.6395   -1.0841   -2.3238 C   0  0  0  0  0  0  0  0  0  0  0  0
   -0.3088    1.1421    0.5130 H   0  0  0  0  0  0  0  0  0  0  0  0
   -1.1815    2.2581   -0.8108 H   0  0  0  0  0  0  0  0  0  0  0  0
    0.6460    2.1092   -0.8554 H   0  0  0  0  0  0  0  0  0  0  0  0
   -2.5807   -1.6162   -2.3598 H   0  0  0  0  0  0  0  0  0  0  0  0
   -0.7948   -1.4034   -2.9302 H   0  0  0  0  0  0  0  0  0  0  0  0
   -0.2474    0.4411    1.6912 C   0  0  0  0  0  3  0  0  0  0  0  0
    0.4024   -0.8628    1.3350 C   0  0  0  0  0  0  0  0  0  0  0  0
    1.8031   -0.7414    0.8018 C   0  0  0  0  0  0  0  0  0  0  0  0
    2.4241    0.2820    0.7186 O   0  0  0  0  0  0  0  0  0  0  0  0
   -1.2834    0.3568    2.0078 H   0  0  0  0  0  0  0  0  0  0  0  0
    0.3449    1.0871    2.3339 H   0  0  0  0  0  0  0  0  0  0  0  0
   -0.1809   -1.4101    0.5855 H   0  0  0  0  0  0  0  0  0  0  0  0
    0.4639   -1.5466    2.1951 H   0  0  0  0  0  0  0  0  0  0  0  0
    2.2609   -1.7015    0.4828 H   0  0  0  0  0  0  0  0  0  0  0  0
  1  2  1  0
  1  5  1  0
  1  6  1  0
  1  7  1  0
  2  3  1  0
  3  4  2  3
  4  8  1  0
  4  9  1  0
 10 11  1  0
 10 14  1  0
 10 15  1  0
 11 12  1  0
 11 16  1  0
 11 17  1  0
 12 13  2  0
 12 18  1  0
M  RAD  1  10   2
M  END
>  <reaction>  (4) 
rmg_rxn_15688

>  <mol_properties>  (4) 
{"0": {"label": "*1", "atom_type": "Cs"}, "1": {"label": "*0", "atom_type": "O2s"}, "4": {"label": "*2", "atom_type": "H0"}, "9": {"label": "*3", "atom_type": "Cs"}, "10": {"label": "*4", "atom_type": "Cs"}}

>  <type>  (4) 
ts

$$$$
