
     RDKit          3D

 21 21  0  0  0  0  0  0  0  0999 V2000
   -3.3063    0.8372   -0.4191 C   0  0  0  0  0  0  0  0  0  0  0  0
   -2.1868   -0.0031    0.1062 C   0  0  0  0  0  0  0  0  0  0  0  0
   -1.2468   -0.5708   -0.6355 C   0  0  0  0  0  0  0  0  0  0  0  0
   -0.1288   -1.4267   -0.0992 C   0  0  0  0  0  0  0  0  0  0  0  0
   -0.2669   -2.8181   -0.6749 C   0  0  0  0  0  0  0  0  0  0  0  0
    0.3720   -3.1660   -1.7912 C   0  0  0  0  0  0  0  0  0  0  0  0
    1.2734   -2.2287   -2.4612 C   0  0  0  0  0  0  0  0  0  0  0  0
    1.6831   -1.1252   -1.8379 C   0  0  0  0  0  0  0  0  0  0  0  0
    1.2566   -0.8455   -0.4251 C   0  0  0  0  0  0  0  0  0  0  0  0
   -3.2551    0.9336   -1.5043 H   0  0  0  0  0  0  0  0  0  0  0  0
   -4.2759    0.4036   -0.1600 H   0  0  0  0  0  0  0  0  0  0  0  0
   -3.2812    1.8399    0.0155 H   0  0  0  0  0  0  0  0  0  0  0  0
   -2.1595   -0.1491    1.1845 H   0  0  0  0  0  0  0  0  0  0  0  0
   -1.2614   -0.4401   -1.7158 H   0  0  0  0  0  0  0  0  0  0  0  0
   -0.2339   -1.4738    0.9871 H   0  0  0  0  0  0  0  0  0  0  0  0
   -0.9690   -3.4944   -0.2017 H   0  0  0  0  0  0  0  0  0  0  0  0
    0.2170   -4.1439   -2.2308 H   0  0  0  0  0  0  0  0  0  0  0  0
    1.6128   -2.4570   -3.4641 H   0  0  0  0  0  0  0  0  0  0  0  0
    2.3713   -0.4410   -2.3198 H   0  0  0  0  0  0  0  0  0  0  0  0
    1.2580    0.2272   -0.2225 H   0  0  0  0  0  0  0  0  0  0  0  0
    1.9994   -1.2911    0.2497 H   0  0  0  0  0  0  0  0  0  0  0  0
  1  2  1  0
  1 10  1  0
  1 11  1  0
  1 12  1  0
  2  3  2  3
  2 13  1  0
  3  4  1  0
  3 14  1  0
  4  5  1  0
  4  9  1  0
  4 15  1  0
  5  6  2  0
  5 16  1  0
  6  7  1  0
  6 17  1  0
  7  8  2  0
  7 18  1  0
  8  9  1  0
  8 19  1  0
  9 20  1  0
  9 21  1  0
M  END
>  <reaction>  (1) 
rmg_rxn_15539

>  <mol_properties>  (1) 
{"8": {"label": "donator", "atom_type": "Cs"}, "19": {"label": "d_hydrogen", "atom_type": "H0"}}

>  <type>  (1) 
r1h

$$$$

     RDKit          3D

  5  4  0  0  0  0  0  0  0  0999 V2000
    0.8934    0.3742    0.4948 O   0  0  0  0  0  0  0  0  0  0  0  0
    0.1582   -0.1610   -0.5904 N   0  0  0  0  0  0  0  0  0  0  0  0
   -1.0297   -0.3739   -0.4689 C   0  0  0  0  0  3  0  0  0  0  0  0
    1.7804    0.4382    0.1306 H   0  0  0  0  0  0  0  0  0  0  0  0
   -1.8023   -0.2775    0.2859 H   0  0  0  0  0  0  0  0  0  0  0  0
  1  2  1  0
  1  4  1  0
  2  3  2  3
  3  5  1  0
M  RAD  1   3   2
M  END
>  <reaction>  (2) 
rmg_rxn_15539

>  <mol_properties>  (2) 
{"2": {"label": "acceptor", "atom_type": "Cd"}}

>  <type>  (2) 
r2

$$$$

     RDKit          3D

  6  5  0  0  0  0  0  0  0  0999 V2000
    1.2314    0.0428    0.5088 O   0  0  0  0  0  0  0  0  0  0  0  0
    0.2987    0.2341   -0.4915 N   0  0  0  0  0  0  0  0  0  0  0  0
   -0.8599   -0.1122   -0.1290 C   0  0  0  0  0  0  0  0  0  0  0  0
    2.0507    0.3401    0.1082 H   0  0  0  0  0  0  0  0  0  0  0  0
   -1.0700   -0.5112    0.8610 H   0  0  0  0  0  0  0  0  0  0  0  0
   -1.6509    0.0064   -0.8574 H   0  0  0  0  0  0  0  0  0  0  0  0
  1  2  1  0
  1  4  1  0
  2  3  2  3
  3  5  1  0
  3  6  1  0
M  END
>  <reaction>  (3) 
rmg_rxn_15539

>  <mol_properties>  (3) 
{"2": {"label": "acceptor", "atom_type": "Cd"}, "5": {"label": "a_hydrogen", "atom_type": "H0"}}

>  <type>  (3) 
r2h

$$$$

     RDKit          3D

 26 25  0  0  0  0  0  0  0  0999 V2000
   -3.9989   -1.6508   -0.6037 O   0  0  0  0  0  0  0  0  0  0  0  0
   -2.9507   -1.1957    0.2134 N   0  0  0  0  0  0  0  0  0  0  0  0
   -2.1517   -0.4353   -0.3528 C   0  0  0  0  0  3  0  0  0  0  0  0
   -4.5015   -2.2105   -0.0073 H   0  0  0  0  0  0  0  0  0  0  0  0
   -2.1436   -0.0833   -1.3831 H   0  0  0  0  0  0  0  0  0  0  0  0
    1.1288   -1.1325   -3.1610 C   0  0  0  0  0  0  0  0  0  0  0  0
    1.2077   -1.1947   -1.6697 C   0  0  0  0  0  0  0  0  0  0  0  0
    1.0863   -0.1552   -0.8576 C   0  0  0  0  0  0  0  0  0  0  0  0
    1.1652   -0.2206    0.6494 C   0  0  0  0  0  0  0  0  0  0  0  0
    2.3625    0.6014    1.0722 C   0  0  0  0  0  0  0  0  0  0  0  0
    2.2343    1.8642    1.4745 C   0  0  0  0  0  0  0  0  0  0  0  0
    0.9160    2.4730    1.6289 C   0  0  0  0  0  0  0  0  0  0  0  0
   -0.1909    1.7263    1.5732 C   0  0  0  0  0  0  0  0  0  0  0  0
   -0.1284    0.2752    1.3049 C   0  0  0  0  0  0  0  0  0  0  0  0
    0.9662   -0.1115   -3.5089 H   0  0  0  0  0  0  0  0  0  0  0  0
    2.0485   -1.5064   -3.6182 H   0  0  0  0  0  0  0  0  0  0  0  0
    0.3128   -1.7568   -3.5344 H   0  0  0  0  0  0  0  0  0  0  0  0
    1.3693   -2.1792   -1.2357 H   0  0  0  0  0  0  0  0  0  0  0  0
    0.9244    0.8389   -1.2707 H   0  0  0  0  0  0  0  0  0  0  0  0
    1.3239   -1.2640    0.9288 H   0  0  0  0  0  0  0  0  0  0  0  0
    3.3401    0.1517    0.9448 H   0  0  0  0  0  0  0  0  0  0  0  0
    3.1104    2.4586    1.7036 H   0  0  0  0  0  0  0  0  0  0  0  0
    0.8523    3.5317    1.8484 H   0  0  0  0  0  0  0  0  0  0  0  0
   -1.1623    2.1664    1.7688 H   0  0  0  0  0  0  0  0  0  0  0  0
   -1.0502   -0.0043    0.5291 H   0  0  0  0  0  0  0  0  0  0  0  0
   -0.4345   -0.3160    2.1722 H   0  0  0  0  0  0  0  0  0  0  0  0
  1  2  1  0
  1  4  1  0
  2  3  2  3
  3  5  1  0
  6  7  1  0
  6 15  1  0
  6 16  1  0
  6 17  1  0
  7  8  2  3
  7 18  1  0
  8  9  1  0
  8 19  1  0
  9 10  1  0
  9 14  1  0
  9 20  1  0
 10 11  2  0
 10 21  1  0
 11 12  1  0
 11 22  1  0
 12 13  2  0
 12 23  1  0
 13 14  1  0
 13 24  1  0
 14 25  1  0
 14 26  1  0
M  RAD  1   3   2
M  END
>  <reaction>  (4) 
rmg_rxn_15539

>  <mol_properties>  (4) 
{"1": {"label": "*4", "atom_type": "N3d"}, "2": {"label": "*3", "atom_type": "Cd"}, "8": {"label": "*0", "atom_type": "Cs"}, "13": {"label": "*1", "atom_type": "Cs"}, "24": {"label": "*2", "atom_type": "H0"}}

>  <type>  (4) 
ts

$$$$
