
     RDKit          3D

  9  9  0  0  0  0  0  0  0  0999 V2000
   -0.7977   -0.3992    0.2003 C   0  0  0  0  0  0  0  0  0  0  0  0
    0.1328    0.6899   -0.3121 C   0  0  0  0  0  0  0  0  0  0  0  0
    1.2144   -0.3287   -0.3101 N   0  0  0  0  0  0  0  0  0  0  0  0
    0.2363   -1.3698   -0.0170 O   0  0  0  0  0  0  0  0  0  0  0  0
   -1.6929   -0.6131   -0.3857 H   0  0  0  0  0  0  0  0  0  0  0  0
   -1.0608   -0.3198    1.2610 H   0  0  0  0  0  0  0  0  0  0  0  0
    0.3008    1.5506    0.3346 H   0  0  0  0  0  0  0  0  0  0  0  0
   -0.0788    1.0287   -1.3257 H   0  0  0  0  0  0  0  0  0  0  0  0
    1.7460   -0.2385    0.5549 H   0  0  0  0  0  0  0  0  0  0  0  0
  1  2  1  0
  1  4  1  0
  1  5  1  0
  1  6  1  0
  2  3  1  0
  2  7  1  0
  2  8  1  0
  3  4  1  0
  3  9  1  0
M  END
>  <reaction>  (1) 
rmg_rxn_15708

>  <mol_properties>  (1) 
{"2": {"label": "donator", "atom_type": "N3s"}, "8": {"label": "d_hydrogen", "atom_type": "H0"}}

>  <type>  (1) 
r1h

$$$$

     RDKit          3D

  8  7  0  0  0  0  0  0  0  0999 V2000
    1.7077   -0.1964   -0.0607 C   0  0  0  0  0  3  0  0  0  0  0  0
    0.4209   -0.4565    0.2808 O   0  0  0  0  0  0  0  0  0  0  0  0
   -0.4607    0.4385   -0.2968 N   0  0  0  0  0  0  0  0  0  0  0  0
   -1.6584    0.1416   -0.0244 C   0  0  0  0  0  0  0  0  0  0  0  0
    2.4163   -0.7685    0.5170 H   0  0  0  0  0  0  0  0  0  0  0  0
    1.9214    0.7645   -0.5045 H   0  0  0  0  0  0  0  0  0  0  0  0
   -2.4185    0.7953   -0.4307 H   0  0  0  0  0  0  0  0  0  0  0  0
   -1.9286   -0.7185    0.5831 H   0  0  0  0  0  0  0  0  0  0  0  0
  1  2  1  0
  1  5  1  0
  1  6  1  0
  2  3  1  0
  3  4  2  3
  4  7  1  0
  4  8  1  0
M  RAD  1   1   2
M  END
>  <reaction>  (2) 
rmg_rxn_15708

>  <mol_properties>  (2) 
{"0": {"label": "acceptor", "atom_type": "Cs"}}

>  <type>  (2) 
r2

$$$$

     RDKit          3D

  9  8  0  0  0  0  0  0  0  0999 V2000
   -1.5470   -0.0755   -0.1976 C   0  0  0  0  0  0  0  0  0  0  0  0
   -0.2885    0.4507    0.1749 O   0  0  0  0  0  0  0  0  0  0  0  0
   -0.1502    1.7216   -0.3294 N   0  0  0  0  0  0  0  0  0  0  0  0
    0.9626    2.2353   -0.0219 C   0  0  0  0  0  0  0  0  0  0  0  0
   -1.6392   -0.1356   -1.2844 H   0  0  0  0  0  0  0  0  0  0  0  0
   -2.3597    0.5337    0.2044 H   0  0  0  0  0  0  0  0  0  0  0  0
   -1.5879   -1.0750    0.2318 H   0  0  0  0  0  0  0  0  0  0  0  0
    1.1497    3.2381   -0.3820 H   0  0  0  0  0  0  0  0  0  0  0  0
    1.7060    1.7101    0.5739 H   0  0  0  0  0  0  0  0  0  0  0  0
  1  2  1  0
  1  5  1  0
  1  6  1  0
  1  7  1  0
  2  3  1  0
  3  4  2  3
  4  8  1  0
  4  9  1  0
M  END
>  <reaction>  (3) 
rmg_rxn_15708

>  <mol_properties>  (3) 
{"0": {"label": "acceptor", "atom_type": "Cs"}, "8": {"label": "a_hydrogen", "atom_type": "H0"}}

>  <type>  (3) 
r2h

$$$$

     RDKit          3D

 17 16  0  0  0  0  0  0  0  0999 V2000
    0.6396    1.3904    0.8713 C   0  0  0  0  0  3  0  0  0  0  0  0
    1.5823    0.3781    0.8604 O   0  0  0  0  0  0  0  0  0  0  0  0
    1.7540   -0.1375   -0.4064 N   0  0  0  0  0  0  0  0  0  0  0  0
    2.6094   -1.0681   -0.4181 C   0  0  0  0  0  0  0  0  0  0  0  0
    0.7274    1.9386    1.8047 H   0  0  0  0  0  0  0  0  0  0  0  0
    0.6262    1.9869   -0.0387 H   0  0  0  0  0  0  0  0  0  0  0  0
    2.8097   -1.5265   -1.3773 H   0  0  0  0  0  0  0  0  0  0  0  0
    3.1296   -1.3989    0.4777 H   0  0  0  0  0  0  0  0  0  0  0  0
   -1.6511   -0.6703   -1.0203 C   0  0  0  0  0  0  0  0  0  0  0  0
   -1.4981   -1.0637    0.4397 C   0  0  0  0  0  0  0  0  0  0  0  0
   -1.7788    0.3536    0.7731 N   0  0  0  0  0  0  0  0  0  0  0  0
   -2.1146    0.6209   -0.5928 O   0  0  0  0  0  0  0  0  0  0  0  0
   -2.3985   -1.1973   -1.6152 H   0  0  0  0  0  0  0  0  0  0  0  0
   -0.7082   -0.5895   -1.5686 H   0  0  0  0  0  0  0  0  0  0  0  0
   -0.5213   -1.4227    0.7645 H   0  0  0  0  0  0  0  0  0  0  0  0
   -2.2803   -1.7180    0.8266 H   0  0  0  0  0  0  0  0  0  0  0  0
   -0.7206    0.8620    0.9080 H   0  0  0  0  0  0  0  0  0  0  0  0
  1  2  1  0
  1  5  1  0
  1  6  1  0
  2  3  1  0
  3  4  2  3
  4  7  1  0
  4  8  1  0
  9 10  1  0
  9 12  1  0
  9 13  1  0
  9 14  1  0
 10 11  1  0
 10 15  1  0
 10 16  1  0
 11 12  1  0
 11 17  1  0
M  RAD  1   1   2
M  END
>  <reaction>  (4) 
rmg_rxn_15708

>  <mol_properties>  (4) 
{"0": {"label": "*3", "atom_type": "Cs"}, "1": {"label": "*4", "atom_type": "O2s"}, "10": {"label": "*1", "atom_type": "N3s"}, "11": {"label": "*0", "atom_type": "O2s"}, "16": {"label": "*2", "atom_type": "H0"}}

>  <type>  (4) 
ts

$$$$
