
     RDKit          3D

  9  8  0  0  0  0  0  0  0  0999 V2000
   -1.0314    0.2323   -0.1227 C   0  0  0  0  0  0  0  0  0  0  0  0
    0.3094   -0.4511    0.0063 C   0  0  0  0  0  0  0  0  0  0  0  0
    0.3197   -1.7698    0.6841 N   0  0  0  0  0  0  0  0  0  0  0  0
   -0.7498   -2.1455    1.0557 O   0  0  0  0  0  0  0  0  0  0  0  0
   -1.4744    0.4198    0.8552 H   0  0  0  0  0  0  0  0  0  0  0  0
   -0.9073    1.1865   -0.6350 H   0  0  0  0  0  0  0  0  0  0  0  0
   -1.7319   -0.3778   -0.6927 H   0  0  0  0  0  0  0  0  0  0  0  0
    1.0375    0.1401    0.5713 H   0  0  0  0  0  0  0  0  0  0  0  0
    0.7826   -0.6494   -0.9609 H   0  0  0  0  0  0  0  0  0  0  0  0
  1  2  1  0
  1  5  1  0
  1  6  1  0
  1  7  1  0
  2  3  1  0
  2  8  1  0
  2  9  1  0
  3  4  2  0
M  END
>  <reaction>  (1) 
rmg_rxn_187

>  <mol_properties>  (1) 
{"0": {"label": "donator", "atom_type": "Cs"}, "4": {"label": "d_hydrogen", "atom_type": "H0"}}

>  <type>  (1) 
r1h

$$$$

     RDKit          3D

 17 16  0  0  0  0  0  0  0  0999 V2000
    3.3619    0.3511   -1.0290 C   0  0  0  0  0  3  0  0  0  0  0  0
    2.1806    1.0643   -0.5073 C   0  0  0  0  0  0  0  0  0  0  0  0
    1.4028    0.1998    0.2757 O   0  0  0  0  0  0  0  0  0  0  0  0
    0.2433    0.8081    0.7885 C   0  0  0  0  0  0  0  0  0  0  0  0
   -0.5040   -0.1878    1.6510 C   0  0  0  0  0  0  0  0  0  0  0  0
    0.2852   -0.6298    2.8762 C   0  0  0  0  0  0  0  0  0  0  0  0
    4.1174    0.8902   -1.5820 H   0  0  0  0  0  0  0  0  0  0  0  0
    3.4399   -0.7198   -0.9141 H   0  0  0  0  0  0  0  0  0  0  0  0
    1.5724    1.4684   -1.3398 H   0  0  0  0  0  0  0  0  0  0  0  0
    2.4896    1.9442    0.0856 H   0  0  0  0  0  0  0  0  0  0  0  0
    0.5169    1.6937    1.3835 H   0  0  0  0  0  0  0  0  0  0  0  0
   -0.3954    1.1528   -0.0379 H   0  0  0  0  0  0  0  0  0  0  0  0
   -0.7611   -1.0545    1.0367 H   0  0  0  0  0  0  0  0  0  0  0  0
   -1.4466    0.2743    1.9571 H   0  0  0  0  0  0  0  0  0  0  0  0
    0.5263    0.2245    3.5136 H   0  0  0  0  0  0  0  0  0  0  0  0
    1.2220   -1.1033    2.5825 H   0  0  0  0  0  0  0  0  0  0  0  0
   -0.2849   -1.3427    3.4737 H   0  0  0  0  0  0  0  0  0  0  0  0
  1  2  1  0
  1  7  1  0
  1  8  1  0
  2  3  1  0
  2  9  1  0
  2 10  1  0
  3  4  1  0
  4  5  1  0
  4 11  1  0
  4 12  1  0
  5  6  1  0
  5 13  1  0
  5 14  1  0
  6 15  1  0
  6 16  1  0
  6 17  1  0
M  RAD  1   1   2
M  END
>  <reaction>  (2) 
rmg_rxn_187

>  <mol_properties>  (2) 
{"0": {"label": "acceptor", "atom_type": "Cs"}}

>  <type>  (2) 
r2

$$$$

     RDKit          3D

 18 17  0  0  0  0  0  0  0  0999 V2000
    2.2026   -0.7213   -0.2612 C   0  0  0  0  0  0  0  0  0  0  0  0
    1.5384    0.2638    0.6915 C   0  0  0  0  0  0  0  0  0  0  0  0
    2.2584    1.5946    0.7694 C   0  0  0  0  0  0  0  0  0  0  0  0
    2.2212    2.2185   -0.4893 O   0  0  0  0  0  0  0  0  0  0  0  0
    2.8988    3.4488   -0.5204 C   0  0  0  0  0  0  0  0  0  0  0  0
    2.7981    4.0296   -1.9118 C   0  0  0  0  0  0  0  0  0  0  0  0
    3.2294   -0.9309    0.0486 H   0  0  0  0  0  0  0  0  0  0  0  0
    2.2338   -0.3181   -1.2734 H   0  0  0  0  0  0  0  0  0  0  0  0
    1.6610   -1.6680   -0.2875 H   0  0  0  0  0  0  0  0  0  0  0  0
    1.4990   -0.1566    1.7002 H   0  0  0  0  0  0  0  0  0  0  0  0
    0.5055    0.4455    0.3835 H   0  0  0  0  0  0  0  0  0  0  0  0
    3.3038    1.4410    1.0808 H   0  0  0  0  0  0  0  0  0  0  0  0
    1.7844    2.2410    1.5226 H   0  0  0  0  0  0  0  0  0  0  0  0
    2.4596    4.1376    0.2164 H   0  0  0  0  0  0  0  0  0  0  0  0
    3.9524    3.3035   -0.2397 H   0  0  0  0  0  0  0  0  0  0  0  0
    1.7543    4.1869   -2.1856 H   0  0  0  0  0  0  0  0  0  0  0  0
    3.2472    3.3545   -2.6411 H   0  0  0  0  0  0  0  0  0  0  0  0
    3.3178    4.9878   -1.9600 H   0  0  0  0  0  0  0  0  0  0  0  0
  1  2  1  0
  1  7  1  0
  1  8  1  0
  1  9  1  0
  2  3  1  0
  2 10  1  0
  2 11  1  0
  3  4  1  0
  3 12  1  0
  3 13  1  0
  4  5  1  0
  5  6  1  0
  5 14  1  0
  5 15  1  0
  6 16  1  0
  6 17  1  0
  6 18  1  0
M  END
>  <reaction>  (3) 
rmg_rxn_187

>  <mol_properties>  (3) 
{"0": {"label": "a_hydrogen", "atom_type": "H0"}, "1": {"label": "acceptor", "atom_type": "Cs"}}

>  <type>  (3) 
r2h

$$$$

     RDKit          3D

 26 24  0  0  0  0  0  0  0  0999 V2000
    2.7520    1.3821    1.1527 C   0  0  0  0  0  0  0  0  0  0  0  0
    2.4570    0.6870    2.4425 C   0  0  0  0  0  0  0  0  0  0  0  0
    2.1999   -0.7730    2.3808 N   0  0  0  0  0  0  0  0  0  0  0  0
    2.3597   -1.2636    1.3049 O   0  0  0  0  0  0  0  0  0  0  0  0
    1.6112    1.4509    0.4603 H   0  0  0  0  0  0  0  0  0  0  0  0
    3.0248    2.4263    1.2840 H   0  0  0  0  0  0  0  0  0  0  0  0
    3.4357    0.8521    0.4954 H   0  0  0  0  0  0  0  0  0  0  0  0
    1.5813    1.0946    2.9586 H   0  0  0  0  0  0  0  0  0  0  0  0
    3.2765    0.7617    3.1702 H   0  0  0  0  0  0  0  0  0  0  0  0
    0.4291    1.5584   -0.1805 C   0  0  0  0  0  3  0  0  0  0  0  0
   -0.2537    0.2301   -0.0544 C   0  0  0  0  0  0  0  0  0  0  0  0
   -1.4977    0.2846   -0.7137 O   0  0  0  0  0  0  0  0  0  0  0  0
   -2.2034   -0.9322   -0.6571 C   0  0  0  0  0  0  0  0  0  0  0  0
   -3.5021   -0.7935   -1.4243 C   0  0  0  0  0  0  0  0  0  0  0  0
   -3.2951   -0.5211   -2.9083 C   0  0  0  0  0  0  0  0  0  0  0  0
    0.7132    1.8216   -1.1970 H   0  0  0  0  0  0  0  0  0  0  0  0
   -0.0775    2.3747    0.3305 H   0  0  0  0  0  0  0  0  0  0  0  0
   -0.4066   -0.0253    1.0052 H   0  0  0  0  0  0  0  0  0  0  0  0
    0.3699   -0.5630   -0.4886 H   0  0  0  0  0  0  0  0  0  0  0  0
   -1.5918   -1.7393   -1.0891 H   0  0  0  0  0  0  0  0  0  0  0  0
   -2.4049   -1.1994    0.3904 H   0  0  0  0  0  0  0  0  0  0  0  0
   -4.0883    0.0113   -0.9731 H   0  0  0  0  0  0  0  0  0  0  0  0
   -4.0728   -1.7162   -1.2873 H   0  0  0  0  0  0  0  0  0  0  0  0
   -2.7295   -1.3299   -3.3775 H   0  0  0  0  0  0  0  0  0  0  0  0
   -2.7408    0.4055   -3.0573 H   0  0  0  0  0  0  0  0  0  0  0  0
   -4.2502   -0.4349   -3.4285 H   0  0  0  0  0  0  0  0  0  0  0  0
  1  2  1  0
  1  5  1  0
  1  6  1  0
  1  7  1  0
  2  3  1  0
  2  8  1  0
  2  9  1  0
  3  4  2  0
 10 11  1  0
 10 16  1  0
 10 17  1  0
 11 12  1  0
 11 18  1  0
 11 19  1  0
 12 13  1  0
 13 14  1  0
 13 20  1  0
 13 21  1  0
 14 15  1  0
 14 22  1  0
 14 23  1  0
 15 24  1  0
 15 25  1  0
 15 26  1  0
M  RAD  1  10   2
M  END
>  <reaction>  (4) 
rmg_rxn_187

>  <mol_properties>  (4) 
{"0": {"label": "*1", "atom_type": "Cs"}, "1": {"label": "*0", "atom_type": "Cs"}, "4": {"label": "*2", "atom_type": "H0"}, "9": {"label": "*3", "atom_type": "Cs"}, "10": {"label": "*4", "atom_type": "Cs"}}

>  <type>  (4) 
ts

$$$$
