
     RDKit          3D

  9  8  0  0  0  0  0  0  0  0999 V2000
   -1.5470   -0.0755   -0.1976 C   0  0  0  0  0  0  0  0  0  0  0  0
   -0.2885    0.4507    0.1749 O   0  0  0  0  0  0  0  0  0  0  0  0
   -0.1502    1.7216   -0.3294 N   0  0  0  0  0  0  0  0  0  0  0  0
    0.9626    2.2353   -0.0219 C   0  0  0  0  0  0  0  0  0  0  0  0
   -1.6392   -0.1356   -1.2844 H   0  0  0  0  0  0  0  0  0  0  0  0
   -2.3597    0.5337    0.2044 H   0  0  0  0  0  0  0  0  0  0  0  0
   -1.5879   -1.0750    0.2318 H   0  0  0  0  0  0  0  0  0  0  0  0
    1.1497    3.2381   -0.3820 H   0  0  0  0  0  0  0  0  0  0  0  0
    1.7060    1.7101    0.5739 H   0  0  0  0  0  0  0  0  0  0  0  0
  1  2  1  0
  1  5  1  0
  1  6  1  0
  1  7  1  0
  2  3  1  0
  3  4  2  3
  4  8  1  0
  4  9  1  0
M  END
>  <reaction>  (1) 
rmg_rxn_15612

>  <mol_properties>  (1) 
{"0": {"label": "donator", "atom_type": "Cs"}, "4": {"label": "d_hydrogen", "atom_type": "H0"}}

>  <type>  (1) 
r1h

$$$$

     RDKit          3D

  8  7  0  0  0  0  0  0  0  0999 V2000
   -0.7895    0.0669   -0.0653 C   0  0  0  0  0  0  0  0  0  0  0  0
    0.7246   -0.0449   -0.0106 C   0  0  0  0  0  0  0  0  0  0  0  0
    1.3076   -0.6881   -1.0542 O   0  0  0  0  0  1  0  0  0  0  0  0
   -1.2430   -0.9244   -0.0962 H   0  0  0  0  0  0  0  0  0  0  0  0
   -1.1693    0.5943    0.8120 H   0  0  0  0  0  0  0  0  0  0  0  0
   -1.0981    0.6133   -0.9573 H   0  0  0  0  0  0  0  0  0  0  0  0
    1.2041    0.9484    0.0705 H   0  0  0  0  0  0  0  0  0  0  0  0
    1.0612   -0.5559    0.9110 H   0  0  0  0  0  0  0  0  0  0  0  0
  1  2  1  0
  1  4  1  0
  1  5  1  0
  1  6  1  0
  2  3  1  0
  2  7  1  0
  2  8  1  0
M  RAD  1   3   2
M  END
>  <reaction>  (2) 
rmg_rxn_15612

>  <mol_properties>  (2) 
{"2": {"label": "acceptor", "atom_type": "O2s"}}

>  <type>  (2) 
r2

$$$$

     RDKit          3D

  9  8  0  0  0  0  0  0  0  0999 V2000
   -0.9895    0.3048    0.1041 C   0  0  0  0  0  0  0  0  0  0  0  0
    0.3761   -0.3562    0.0721 C   0  0  0  0  0  0  0  0  0  0  0  0
    0.3441   -1.6564   -0.4834 O   0  0  0  0  0  0  0  0  0  0  0  0
   -1.6997   -0.3114    0.6572 H   0  0  0  0  0  0  0  0  0  0  0  0
   -0.9320    1.2848    0.5822 H   0  0  0  0  0  0  0  0  0  0  0  0
   -1.3774    0.4507   -0.9077 H   0  0  0  0  0  0  0  0  0  0  0  0
    0.7581   -0.4813    1.0862 H   0  0  0  0  0  0  0  0  0  0  0  0
    1.0900    0.2787   -0.4681 H   0  0  0  0  0  0  0  0  0  0  0  0
    0.0089   -1.5959   -1.3792 H   0  0  0  0  0  0  0  0  0  0  0  0
  1  2  1  0
  1  4  1  0
  1  5  1  0
  1  6  1  0
  2  3  1  0
  2  7  1  0
  2  8  1  0
  3  9  1  0
M  END
>  <reaction>  (3) 
rmg_rxn_15612

>  <mol_properties>  (3) 
{"2": {"label": "acceptor", "atom_type": "O2s"}, "8": {"label": "a_hydrogen", "atom_type": "H0"}}

>  <type>  (3) 
r2h

$$$$

     RDKit          3D

 17 15  0  0  0  0  0  0  0  0999 V2000
    2.1909    0.2873   -0.2532 C   0  0  0  0  0  0  0  0  0  0  0  0
    1.6470   -0.6436    0.8181 C   0  0  0  0  0  0  0  0  0  0  0  0
    1.0076    0.0161    1.8665 O   0  0  0  0  0  1  0  0  0  0  0  0
    2.8792    1.0110    0.1854 H   0  0  0  0  0  0  0  0  0  0  0  0
    2.7225   -0.2785   -1.0219 H   0  0  0  0  0  0  0  0  0  0  0  0
    1.3778    0.8361   -0.7316 H   0  0  0  0  0  0  0  0  0  0  0  0
    0.9873   -1.4013    0.3740 H   0  0  0  0  0  0  0  0  0  0  0  0
    2.4698   -1.1974    1.2906 H   0  0  0  0  0  0  0  0  0  0  0  0
   -1.2878    0.6318    1.0024 C   0  0  0  0  0  0  0  0  0  0  0  0
   -1.2660    0.7778   -0.3726 O   0  0  0  0  0  0  0  0  0  0  0  0
   -1.3149   -0.4522   -1.0036 N   0  0  0  0  0  0  0  0  0  0  0  0
   -1.1613   -0.3346   -2.2517 C   0  0  0  0  0  0  0  0  0  0  0  0
   -0.1565    0.3660    1.4446 H   0  0  0  0  0  0  0  0  0  0  0  0
   -1.9217   -0.1916    1.3302 H   0  0  0  0  0  0  0  0  0  0  0  0
   -1.5379    1.5947    1.4418 H   0  0  0  0  0  0  0  0  0  0  0  0
   -1.1999   -1.2484   -2.8294 H   0  0  0  0  0  0  0  0  0  0  0  0
   -1.0008    0.6255   -2.7362 H   0  0  0  0  0  0  0  0  0  0  0  0
  1  2  1  0
  1  4  1  0
  1  5  1  0
  1  6  1  0
  2  3  1  0
  2  7  1  0
  2  8  1  0
  9 10  1  0
  9 13  1  0
  9 14  1  0
  9 15  1  0
 10 11  1  0
 11 12  2  3
 12 16  1  0
 12 17  1  0
M  RAD  1   3   2
M  END
>  <reaction>  (4) 
rmg_rxn_15612

>  <mol_properties>  (4) 
{"1": {"label": "*4", "atom_type": "Cs"}, "2": {"label": "*3", "atom_type": "O2s"}, "8": {"label": "*1", "atom_type": "Cs"}, "9": {"label": "*0", "atom_type": "O2s"}, "12": {"label": "*2", "atom_type": "H0"}}

>  <type>  (4) 
ts

$$$$
