
     RDKit          3D

 18 17  0  0  0  0  0  0  0  0999 V2000
    2.2026   -0.7213   -0.2612 C   0  0  0  0  0  0  0  0  0  0  0  0
    1.5384    0.2638    0.6915 C   0  0  0  0  0  0  0  0  0  0  0  0
    2.2584    1.5946    0.7694 C   0  0  0  0  0  0  0  0  0  0  0  0
    2.2212    2.2185   -0.4893 O   0  0  0  0  0  0  0  0  0  0  0  0
    2.8988    3.4488   -0.5204 C   0  0  0  0  0  0  0  0  0  0  0  0
    2.7981    4.0296   -1.9118 C   0  0  0  0  0  0  0  0  0  0  0  0
    3.2294   -0.9309    0.0486 H   0  0  0  0  0  0  0  0  0  0  0  0
    2.2338   -0.3181   -1.2734 H   0  0  0  0  0  0  0  0  0  0  0  0
    1.6610   -1.6680   -0.2875 H   0  0  0  0  0  0  0  0  0  0  0  0
    1.4990   -0.1566    1.7002 H   0  0  0  0  0  0  0  0  0  0  0  0
    0.5055    0.4455    0.3835 H   0  0  0  0  0  0  0  0  0  0  0  0
    3.3038    1.4410    1.0808 H   0  0  0  0  0  0  0  0  0  0  0  0
    1.7844    2.2410    1.5226 H   0  0  0  0  0  0  0  0  0  0  0  0
    2.4596    4.1376    0.2164 H   0  0  0  0  0  0  0  0  0  0  0  0
    3.9524    3.3035   -0.2397 H   0  0  0  0  0  0  0  0  0  0  0  0
    1.7543    4.1869   -2.1856 H   0  0  0  0  0  0  0  0  0  0  0  0
    3.2472    3.3545   -2.6411 H   0  0  0  0  0  0  0  0  0  0  0  0
    3.3178    4.9878   -1.9600 H   0  0  0  0  0  0  0  0  0  0  0  0
  1  2  1  0
  1  7  1  0
  1  8  1  0
  1  9  1  0
  2  3  1  0
  2 10  1  0
  2 11  1  0
  3  4  1  0
  3 12  1  0
  3 13  1  0
  4  5  1  0
  5  6  1  0
  5 14  1  0
  5 15  1  0
  6 16  1  0
  6 17  1  0
  6 18  1  0
M  END
>  <reaction>  (1) 
rmg_rxn_341

>  <mol_properties>  (1) 
{"4": {"label": "donator", "atom_type": "Cs"}, "13": {"label": "d_hydrogen", "atom_type": "H0"}}

>  <type>  (1) 
r1h

$$$$

     RDKit          3D

 17 16  0  0  0  0  0  0  0  0999 V2000
   -2.5196    0.7765    0.6863 C   0  0  0  0  0  0  0  0  0  0  0  0
   -1.7832    0.2264   -0.5439 C   0  0  0  0  0  0  0  0  0  0  0  0
   -0.5364   -0.5090   -0.2164 C   0  0  0  0  0  3  0  0  0  0  0  0
   -0.7195   -1.6896    0.4220 O   0  0  0  0  0  0  0  0  0  0  0  0
    0.4618   -2.3470    0.8423 C   0  0  0  0  0  0  0  0  0  0  0  0
    0.0797   -3.6206    1.5573 C   0  0  0  0  0  0  0  0  0  0  0  0
   -1.8902    1.4809    1.2340 H   0  0  0  0  0  0  0  0  0  0  0  0
   -3.4347    1.2951    0.3937 H   0  0  0  0  0  0  0  0  0  0  0  0
   -2.7882   -0.0345    1.3642 H   0  0  0  0  0  0  0  0  0  0  0  0
   -2.4551   -0.4399   -1.0937 H   0  0  0  0  0  0  0  0  0  0  0  0
   -1.5294    1.0480   -1.2176 H   0  0  0  0  0  0  0  0  0  0  0  0
    0.3864    0.0229    0.0104 H   0  0  0  0  0  0  0  0  0  0  0  0
    1.0871   -2.5604   -0.0319 H   0  0  0  0  0  0  0  0  0  0  0  0
    1.0283   -1.6824    1.5065 H   0  0  0  0  0  0  0  0  0  0  0  0
   -0.4799   -4.2803    0.8934 H   0  0  0  0  0  0  0  0  0  0  0  0
    0.9764   -4.1449    1.8908 H   0  0  0  0  0  0  0  0  0  0  0  0
   -0.5383   -3.4025    2.4289 H   0  0  0  0  0  0  0  0  0  0  0  0
  1  2  1  0
  1  7  1  0
  1  8  1  0
  1  9  1  0
  2  3  1  0
  2 10  1  0
  2 11  1  0
  3  4  1  0
  3 12  1  0
  4  5  1  0
  5  6  1  0
  5 13  1  0
  5 14  1  0
  6 15  1  0
  6 16  1  0
  6 17  1  0
M  RAD  1   3   2
M  END
>  <reaction>  (2) 
rmg_rxn_341

>  <mol_properties>  (2) 
{"2": {"label": "acceptor", "atom_type": "Cs"}}

>  <type>  (2) 
r2

$$$$

     RDKit          3D

 18 17  0  0  0  0  0  0  0  0999 V2000
    2.2026   -0.7213   -0.2612 C   0  0  0  0  0  0  0  0  0  0  0  0
    1.5384    0.2638    0.6915 C   0  0  0  0  0  0  0  0  0  0  0  0
    2.2584    1.5946    0.7694 C   0  0  0  0  0  0  0  0  0  0  0  0
    2.2212    2.2185   -0.4893 O   0  0  0  0  0  0  0  0  0  0  0  0
    2.8988    3.4488   -0.5204 C   0  0  0  0  0  0  0  0  0  0  0  0
    2.7981    4.0296   -1.9118 C   0  0  0  0  0  0  0  0  0  0  0  0
    3.2294   -0.9309    0.0486 H   0  0  0  0  0  0  0  0  0  0  0  0
    2.2338   -0.3181   -1.2734 H   0  0  0  0  0  0  0  0  0  0  0  0
    1.6610   -1.6680   -0.2875 H   0  0  0  0  0  0  0  0  0  0  0  0
    1.4990   -0.1566    1.7002 H   0  0  0  0  0  0  0  0  0  0  0  0
    0.5055    0.4455    0.3835 H   0  0  0  0  0  0  0  0  0  0  0  0
    3.3038    1.4410    1.0808 H   0  0  0  0  0  0  0  0  0  0  0  0
    1.7844    2.2410    1.5226 H   0  0  0  0  0  0  0  0  0  0  0  0
    2.4596    4.1376    0.2164 H   0  0  0  0  0  0  0  0  0  0  0  0
    3.9524    3.3035   -0.2397 H   0  0  0  0  0  0  0  0  0  0  0  0
    1.7543    4.1869   -2.1856 H   0  0  0  0  0  0  0  0  0  0  0  0
    3.2472    3.3545   -2.6411 H   0  0  0  0  0  0  0  0  0  0  0  0
    3.3178    4.9878   -1.9600 H   0  0  0  0  0  0  0  0  0  0  0  0
  1  2  1  0
  1  7  1  0
  1  8  1  0
  1  9  1  0
  2  3  1  0
  2 10  1  0
  2 11  1  0
  3  4  1  0
  3 12  1  0
  3 13  1  0
  4  5  1  0
  5  6  1  0
  5 14  1  0
  5 15  1  0
  6 16  1  0
  6 17  1  0
  6 18  1  0
M  END
>  <reaction>  (3) 
rmg_rxn_341

>  <mol_properties>  (3) 
{"2": {"label": "acceptor", "atom_type": "Cs"}, "17": {"label": "a_hydrogen", "atom_type": "H0"}}

>  <type>  (3) 
r2h

$$$$

     RDKit          3D

 35 33  0  0  0  0  0  0  0  0999 V2000
    1.8434    2.1263    1.3922 C   0  0  0  0  0  0  0  0  0  0  0  0
    0.4243    2.3771    1.8908 C   0  0  0  0  0  0  0  0  0  0  0  0
   -0.5513    1.3082    1.4826 C   0  0  0  0  0  3  0  0  0  0  0  0
   -0.1601    0.0619    1.9383 O   0  0  0  0  0  0  0  0  0  0  0  0
   -1.0904   -0.9689    1.6739 C   0  0  0  0  0  0  0  0  0  0  0  0
   -0.4879   -2.2841    2.1075 C   0  0  0  0  0  0  0  0  0  0  0  0
    1.8723    2.0784    0.3017 H   0  0  0  0  0  0  0  0  0  0  0  0
    2.5157    2.9233    1.7127 H   0  0  0  0  0  0  0  0  0  0  0  0
    2.2272    1.1819    1.7788 H   0  0  0  0  0  0  0  0  0  0  0  0
    0.4308    2.4646    2.9838 H   0  0  0  0  0  0  0  0  0  0  0  0
    0.0536    3.3304    1.5039 H   0  0  0  0  0  0  0  0  0  0  0  0
   -1.5937    1.5371    1.7404 H   0  0  0  0  0  0  0  0  0  0  0  0
   -2.0223   -0.7676    2.2202 H   0  0  0  0  0  0  0  0  0  0  0  0
   -1.3261   -0.9872    0.6038 H   0  0  0  0  0  0  0  0  0  0  0  0
   -0.2463   -2.2674    3.1709 H   0  0  0  0  0  0  0  0  0  0  0  0
   -1.1903   -3.0985    1.9233 H   0  0  0  0  0  0  0  0  0  0  0  0
    0.4277   -2.4857    1.5493 H   0  0  0  0  0  0  0  0  0  0  0  0
    0.9202   -2.3519   -3.0779 C   0  0  0  0  0  0  0  0  0  0  0  0
    1.0993   -2.0596   -1.5943 C   0  0  0  0  0  0  0  0  0  0  0  0
    0.9715   -0.5907   -1.2512 C   0  0  0  0  0  0  0  0  0  0  0  0
   -0.3367   -0.1569   -1.5656 O   0  0  0  0  0  0  0  0  0  0  0  0
   -0.5840    1.1670   -1.2499 C   0  0  0  0  0  0  0  0  0  0  0  0
   -1.9672    1.5707   -1.6610 C   0  0  0  0  0  0  0  0  0  0  0  0
    1.6694   -1.8229   -3.6719 H   0  0  0  0  0  0  0  0  0  0  0  0
   -0.0644   -2.0318   -3.4190 H   0  0  0  0  0  0  0  0  0  0  0  0
    1.0220   -3.4185   -3.2835 H   0  0  0  0  0  0  0  0  0  0  0  0
    2.0842   -2.3963   -1.2594 H   0  0  0  0  0  0  0  0  0  0  0  0
    0.3609   -2.6161   -1.0101 H   0  0  0  0  0  0  0  0  0  0  0  0
    1.7004    0.0029   -1.8233 H   0  0  0  0  0  0  0  0  0  0  0  0
    1.1678   -0.4267   -0.1858 H   0  0  0  0  0  0  0  0  0  0  0  0
   -0.5507    1.2846    0.1128 H   0  0  0  0  0  0  0  0  0  0  0  0
    0.2089    1.8359   -1.6091 H   0  0  0  0  0  0  0  0  0  0  0  0
   -2.7099    0.9382   -1.1698 H   0  0  0  0  0  0  0  0  0  0  0  0
   -2.1088    1.4813   -2.7419 H   0  0  0  0  0  0  0  0  0  0  0  0
   -2.1551    2.6067   -1.3744 H   0  0  0  0  0  0  0  0  0  0  0  0
  1  2  1  0
  1  7  1  0
  1  8  1  0
  1  9  1  0
  2  3  1  0
  2 10  1  0
  2 11  1  0
  3  4  1  0
  3 12  1  0
  4  5  1  0
  5  6  1  0
  5 13  1  0
  5 14  1  0
  6 15  1  0
  6 16  1  0
  6 17  1  0
 18 19  1  0
 18 24  1  0
 18 25  1  0
 18 26  1  0
 19 20  1  0
 19 27  1  0
 19 28  1  0
 20 21  1  0
 20 29  1  0
 20 30  1  0
 21 22  1  0
 22 23  1  0
 22 31  1  0
 22 32  1  0
 23 33  1  0
 23 34  1  0
 23 35  1  0
M  RAD  1   3   2
M  END
>  <reaction>  (4) 
rmg_rxn_341

>  <mol_properties>  (4) 
{"2": {"label": "*3", "atom_type": "Cs"}, "3": {"label": "*4", "atom_type": "O2s"}, "20": {"label": "*0", "atom_type": "O2s"}, "21": {"label": "*1", "atom_type": "Cs"}, "30": {"label": "*2", "atom_type": "H0"}}

>  <type>  (4) 
ts

$$$$
