
     RDKit          3D

  9  8  0  0  0  0  0  0  0  0999 V2000
    1.3391   -0.5254   -0.0000 C   0  0  0  0  0  0  0  0  0  0  0  0
    0.5120    0.7464    0.0000 C   0  0  0  0  0  0  0  0  0  0  0  0
   -0.9678    0.5353   -0.0000 N   0  0  0  0  0  0  0  0  0  0  0  0
   -1.3095   -0.6519    0.0000 O   0  0  0  0  0  0  0  0  0  0  0  0
    1.1350   -1.1355   -0.8866 H   0  0  0  0  0  0  0  0  0  0  0  0
    2.4060   -0.2800    0.0000 H   0  0  0  0  0  0  0  0  0  0  0  0
    1.1350   -1.1355    0.8866 H   0  0  0  0  0  0  0  0  0  0  0  0
    0.7341    1.3467   -0.8875 H   0  0  0  0  0  0  0  0  0  0  0  0
    0.7341    1.3467    0.8875 H   0  0  0  0  0  0  0  0  0  0  0  0
  1  2  1  0
  1  5  1  0
  1  6  1  0
  1  7  1  0
  2  3  1  0
  2  8  1  0
  2  9  1  0
  3  4  2  0
M  END
>  <reaction>  (1) 
rmg_rxn_1154

>  <mol_properties>  (1) 
{"0": {"label": "donator", "atom_type": "Cs"}, "4": {"label": "d_hydrogen", "atom_type": "H0"}}

>  <type>  (1) 
r1h

$$$$

     RDKit          3D

  1  0  0  0  0  0  0  0  0  0999 V2000
    0.0000    0.0000    0.0000 O   0  0  0  0  0 15  0  0  0  0  0  0
M  END
>  <reaction>  (2) 
rmg_rxn_1154

>  <mol_properties>  (2) 
{"0": {"label": "acceptor", "atom_type": "O2s"}}

>  <type>  (2) 
r2

$$$$

     RDKit          3D

  2  1  0  0  0  0  0  0  0  0999 V2000
    0.0000    0.0000    0.1079 O   0  0  0  0  0  1  0  0  0  0  0  0
    0.0000    0.0000   -0.8631 H   0  0  0  0  0  0  0  0  0  0  0  0
  1  2  1  0
M  RAD  1   1   2
M  END
>  <reaction>  (3) 
rmg_rxn_1154

>  <mol_properties>  (3) 
{"0": {"label": "acceptor", "atom_type": "O2s"}, "1": {"label": "a_hydrogen", "atom_type": "H0"}}

>  <type>  (3) 
r2h

$$$$

     RDKit          3D

 10  8  0  0  0  0  0  0  0  0999 V2000
    2.2168   -0.6111   -0.2946 O   0  0  0  0  0  1  0  0  0  0  0  0
    0.5181    1.0195    0.4830 C   0  0  0  0  0  3  0  0  0  0  0  0
   -0.7504    0.9355   -0.3448 C   0  0  0  0  0  0  0  0  0  0  0  0
   -1.4364   -0.3922   -0.3131 N   0  0  0  0  0  0  0  0  0  0  0  0
   -0.8697   -1.2379    0.3868 O   0  0  0  0  0  0  0  0  0  0  0  0
    1.4186    0.1551    0.0708 H   0  0  0  0  0  0  0  0  0  0  0  0
    0.9533    2.0209    0.4034 H   0  0  0  0  0  0  0  0  0  0  0  0
    0.3186    0.8234    1.5421 H   0  0  0  0  0  0  0  0  0  0  0  0
   -0.5342    1.1417   -1.3975 H   0  0  0  0  0  0  0  0  0  0  0  0
   -1.4851    1.6664    0.0065 H   0  0  0  0  0  0  0  0  0  0  0  0
  1  6  1  0
  2  3  1  0
  2  7  1  0
  2  8  1  0
  3  4  1  0
  3  9  1  0
  3 10  1  0
  4  5  2  0
M  RAD  2   1   2   2   2
M  END
>  <reaction>  (4) 
rmg_rxn_1154

>  <mol_properties>  (4) 
{"0": {"label": "*1", "atom_type": "O2s"}, "1": {"label": "*3", "atom_type": "Cs"}, "2": {"label": "*4", "atom_type": "Cs"}, "5": {"label": "*2", "atom_type": "H0"}}

>  <type>  (4) 
ts

$$$$
