
     RDKit          3D

  5  4  0  0  0  0  0  0  0  0999 V2000
   -0.4583    0.0384    0.1517 N   0  0  0  0  0  0  0  0  0  0  0  0
    0.7454   -0.3487    0.5322 N   0  0  0  0  0  0  0  0  0  0  0  0
    0.7566   -1.0388    1.5193 O   0  0  0  0  0  0  0  0  0  0  0  0
   -1.2688   -0.2521    0.6850 H   0  0  0  0  0  0  0  0  0  0  0  0
   -0.5137    0.6154   -0.6670 H   0  0  0  0  0  0  0  0  0  0  0  0
  1  2  1  0
  1  4  1  0
  1  5  1  0
  2  3  2  0
M  END
>  <reaction>  (1) 
rmg_rxn_1479

>  <mol_properties>  (1) 
{"0": {"label": "donator", "atom_type": "N3s"}, "3": {"label": "d_hydrogen", "atom_type": "H0"}}

>  <type>  (1) 
r1h

$$$$

     RDKit          3D

 17 16  0  0  0  0  0  0  0  0999 V2000
    3.3619    0.3511   -1.0290 C   0  0  0  0  0  3  0  0  0  0  0  0
    2.1806    1.0643   -0.5073 C   0  0  0  0  0  0  0  0  0  0  0  0
    1.4028    0.1998    0.2757 O   0  0  0  0  0  0  0  0  0  0  0  0
    0.2433    0.8081    0.7885 C   0  0  0  0  0  0  0  0  0  0  0  0
   -0.5040   -0.1878    1.6510 C   0  0  0  0  0  0  0  0  0  0  0  0
    0.2852   -0.6298    2.8762 C   0  0  0  0  0  0  0  0  0  0  0  0
    4.1174    0.8902   -1.5820 H   0  0  0  0  0  0  0  0  0  0  0  0
    3.4399   -0.7198   -0.9141 H   0  0  0  0  0  0  0  0  0  0  0  0
    1.5724    1.4684   -1.3398 H   0  0  0  0  0  0  0  0  0  0  0  0
    2.4896    1.9442    0.0856 H   0  0  0  0  0  0  0  0  0  0  0  0
    0.5169    1.6937    1.3835 H   0  0  0  0  0  0  0  0  0  0  0  0
   -0.3954    1.1528   -0.0379 H   0  0  0  0  0  0  0  0  0  0  0  0
   -0.7611   -1.0545    1.0367 H   0  0  0  0  0  0  0  0  0  0  0  0
   -1.4466    0.2743    1.9571 H   0  0  0  0  0  0  0  0  0  0  0  0
    0.5263    0.2245    3.5136 H   0  0  0  0  0  0  0  0  0  0  0  0
    1.2220   -1.1033    2.5825 H   0  0  0  0  0  0  0  0  0  0  0  0
   -0.2849   -1.3427    3.4737 H   0  0  0  0  0  0  0  0  0  0  0  0
  1  2  1  0
  1  7  1  0
  1  8  1  0
  2  3  1  0
  2  9  1  0
  2 10  1  0
  3  4  1  0
  4  5  1  0
  4 11  1  0
  4 12  1  0
  5  6  1  0
  5 13  1  0
  5 14  1  0
  6 15  1  0
  6 16  1  0
  6 17  1  0
M  RAD  1   1   2
M  END
>  <reaction>  (2) 
rmg_rxn_1479

>  <mol_properties>  (2) 
{"0": {"label": "acceptor", "atom_type": "Cs"}}

>  <type>  (2) 
r2

$$$$

     RDKit          3D

 18 17  0  0  0  0  0  0  0  0999 V2000
    2.2026   -0.7213   -0.2612 C   0  0  0  0  0  0  0  0  0  0  0  0
    1.5384    0.2638    0.6915 C   0  0  0  0  0  0  0  0  0  0  0  0
    2.2584    1.5946    0.7694 C   0  0  0  0  0  0  0  0  0  0  0  0
    2.2212    2.2185   -0.4893 O   0  0  0  0  0  0  0  0  0  0  0  0
    2.8988    3.4488   -0.5204 C   0  0  0  0  0  0  0  0  0  0  0  0
    2.7981    4.0296   -1.9118 C   0  0  0  0  0  0  0  0  0  0  0  0
    3.2294   -0.9309    0.0486 H   0  0  0  0  0  0  0  0  0  0  0  0
    2.2338   -0.3181   -1.2734 H   0  0  0  0  0  0  0  0  0  0  0  0
    1.6610   -1.6680   -0.2875 H   0  0  0  0  0  0  0  0  0  0  0  0
    1.4990   -0.1566    1.7002 H   0  0  0  0  0  0  0  0  0  0  0  0
    0.5055    0.4455    0.3835 H   0  0  0  0  0  0  0  0  0  0  0  0
    3.3038    1.4410    1.0808 H   0  0  0  0  0  0  0  0  0  0  0  0
    1.7844    2.2410    1.5226 H   0  0  0  0  0  0  0  0  0  0  0  0
    2.4596    4.1376    0.2164 H   0  0  0  0  0  0  0  0  0  0  0  0
    3.9524    3.3035   -0.2397 H   0  0  0  0  0  0  0  0  0  0  0  0
    1.7543    4.1869   -2.1856 H   0  0  0  0  0  0  0  0  0  0  0  0
    3.2472    3.3545   -2.6411 H   0  0  0  0  0  0  0  0  0  0  0  0
    3.3178    4.9878   -1.9600 H   0  0  0  0  0  0  0  0  0  0  0  0
  1  2  1  0
  1  7  1  0
  1  8  1  0
  1  9  1  0
  2  3  1  0
  2 10  1  0
  2 11  1  0
  3  4  1  0
  3 12  1  0
  3 13  1  0
  4  5  1  0
  5  6  1  0
  5 14  1  0
  5 15  1  0
  6 16  1  0
  6 17  1  0
  6 18  1  0
M  END
>  <reaction>  (3) 
rmg_rxn_1479

>  <mol_properties>  (3) 
{"0": {"label": "a_hydrogen", "atom_type": "H0"}, "1": {"label": "acceptor", "atom_type": "Cs"}}

>  <type>  (3) 
r2h

$$$$

     RDKit          3D

 22 20  0  0  0  0  0  0  0  0999 V2000
    1.5112    0.1747    0.7179 N   0  0  0  0  0  0  0  0  0  0  0  0
    2.1229    0.9126   -0.1467 N   0  0  0  0  0  0  0  0  0  0  0  0
    2.6987    0.3820   -1.0626 O   0  0  0  0  0  0  0  0  0  0  0  0
    1.1838   -0.9397    0.3037 H   0  0  0  0  0  0  0  0  0  0  0  0
    0.8265    0.6943    1.2564 H   0  0  0  0  0  0  0  0  0  0  0  0
    0.5835   -2.0279   -0.2908 C   0  0  0  0  0  3  0  0  0  0  0  0
   -0.7763   -2.0581    0.3563 C   0  0  0  0  0  0  0  0  0  0  0  0
   -1.3790   -0.7926    0.4994 O   0  0  0  0  0  0  0  0  0  0  0  0
   -1.6924   -0.1473   -0.7158 C   0  0  0  0  0  0  0  0  0  0  0  0
   -2.4442    1.1326   -0.4138 C   0  0  0  0  0  0  0  0  0  0  0  0
   -1.6313    2.1252    0.4072 C   0  0  0  0  0  0  0  0  0  0  0  0
    1.2303   -2.8654   -0.0426 H   0  0  0  0  0  0  0  0  0  0  0  0
    0.6188   -1.7747   -1.3466 H   0  0  0  0  0  0  0  0  0  0  0  0
   -0.7063   -2.4641    1.3659 H   0  0  0  0  0  0  0  0  0  0  0  0
   -1.4407   -2.7221   -0.2216 H   0  0  0  0  0  0  0  0  0  0  0  0
   -0.7762    0.0878   -1.2748 H   0  0  0  0  0  0  0  0  0  0  0  0
   -2.3029   -0.8130   -1.3417 H   0  0  0  0  0  0  0  0  0  0  0  0
   -3.3703    0.8829    0.1096 H   0  0  0  0  0  0  0  0  0  0  0  0
   -2.7287    1.5836   -1.3681 H   0  0  0  0  0  0  0  0  0  0  0  0
   -2.1821    3.0544    0.5572 H   0  0  0  0  0  0  0  0  0  0  0  0
   -0.6914    2.3721   -0.0934 H   0  0  0  0  0  0  0  0  0  0  0  0
   -1.4009    1.7150    1.3918 H   0  0  0  0  0  0  0  0  0  0  0  0
  1  2  1  0
  1  4  1  0
  1  5  1  0
  2  3  2  0
  6  7  1  0
  6 12  1  0
  6 13  1  0
  7  8  1  0
  7 14  1  0
  7 15  1  0
  8  9  1  0
  9 10  1  0
  9 16  1  0
  9 17  1  0
 10 11  1  0
 10 18  1  0
 10 19  1  0
 11 20  1  0
 11 21  1  0
 11 22  1  0
M  RAD  1   6   2
M  END
>  <reaction>  (4) 
rmg_rxn_1479

>  <mol_properties>  (4) 
{"0": {"label": "*1", "atom_type": "N3s"}, "1": {"label": "*0", "atom_type": "N3d"}, "3": {"label": "*2", "atom_type": "H0"}, "5": {"label": "*3", "atom_type": "Cs"}, "6": {"label": "*4", "atom_type": "Cs"}}

>  <type>  (4) 
ts

$$$$
