
     RDKit          3D

  8  7  0  0  0  0  0  0  0  0999 V2000
    1.2099   -0.1388    0.0025 C   0  0  0  0  0  0  0  0  0  0  0  0
   -0.1788    0.4141    0.0007 C   0  0  0  0  0  0  0  0  0  0  0  0
   -1.2100   -0.3603    0.0013 N   0  0  0  0  0  0  0  0  0  0  0  0
    1.7355    0.2223   -0.8851 H   0  0  0  0  0  0  0  0  0  0  0  0
    1.7521    0.1663    0.9007 H   0  0  0  0  0  0  0  0  0  0  0  0
    1.1564   -1.2296   -0.0424 H   0  0  0  0  0  0  0  0  0  0  0  0
   -0.2911    1.5112   -0.0010 H   0  0  0  0  0  0  0  0  0  0  0  0
   -2.0699    0.2005   -0.0002 H   0  0  0  0  0  0  0  0  0  0  0  0
  1  2  1  0
  1  4  1  0
  1  5  1  0
  1  6  1  0
  2  3  2  3
  2  7  1  0
  3  8  1  0
M  END
>  <reaction>  (1) 
rmg_rxn_16774

>  <mol_properties>  (1) 
{"1": {"label": "donator", "atom_type": "Cd"}, "6": {"label": "d_hydrogen", "atom_type": "H0"}}

>  <type>  (1) 
r1h

$$$$

     RDKit          3D

  9  8  0  0  0  0  0  0  0  0999 V2000
   -1.2038   -0.2138    0.0000 C   0  0  0  0  0  0  0  0  0  0  0  0
    0.1306    0.5162    0.0000 C   0  0  0  0  0  0  0  0  0  0  0  0
    1.2313   -0.4354    0.0000 N   0  0  0  0  0  2  0  0  0  0  0  0
   -1.3085   -0.8503    0.8857 H   0  0  0  0  0  0  0  0  0  0  0  0
   -2.0295    0.5051   -0.0000 H   0  0  0  0  0  0  0  0  0  0  0  0
   -1.3085   -0.8503   -0.8857 H   0  0  0  0  0  0  0  0  0  0  0  0
    0.1770    1.1695    0.8790 H   0  0  0  0  0  0  0  0  0  0  0  0
    0.1770    1.1695   -0.8790 H   0  0  0  0  0  0  0  0  0  0  0  0
    2.1131    0.0897   -0.0000 H   0  0  0  0  0  0  0  0  0  0  0  0
  1  2  1  0
  1  4  1  0
  1  5  1  0
  1  6  1  0
  2  3  1  0
  2  7  1  0
  2  8  1  0
  3  9  1  0
M  RAD  1   3   2
M  END
>  <reaction>  (2) 
rmg_rxn_16774

>  <mol_properties>  (2) 
{"2": {"label": "acceptor", "atom_type": "N3s"}}

>  <type>  (2) 
r2

$$$$

     RDKit          3D

 10  9  0  0  0  0  0  0  0  0999 V2000
   -1.1931   -0.2772    0.0000 C   0  0  0  0  0  0  0  0  0  0  0  0
    0.0433    0.6056    0.0000 C   0  0  0  0  0  0  0  0  0  0  0  0
    1.2617   -0.1946    0.0000 N   0  0  0  0  0  0  0  0  0  0  0  0
   -1.2226   -0.9183    0.8874 H   0  0  0  0  0  0  0  0  0  0  0  0
   -1.2226   -0.9183   -0.8874 H   0  0  0  0  0  0  0  0  0  0  0  0
   -2.0972    0.3401   -0.0000 H   0  0  0  0  0  0  0  0  0  0  0  0
    0.0379    1.2535    0.8825 H   0  0  0  0  0  0  0  0  0  0  0  0
    0.0379    1.2535   -0.8825 H   0  0  0  0  0  0  0  0  0  0  0  0
    1.2666   -0.8092   -0.8134 H   0  0  0  0  0  0  0  0  0  0  0  0
    1.2666   -0.8092    0.8134 H   0  0  0  0  0  0  0  0  0  0  0  0
  1  2  1  0
  1  4  1  0
  1  5  1  0
  1  6  1  0
  2  3  1  0
  2  7  1  0
  2  8  1  0
  3  9  1  0
  3 10  1  0
M  END
>  <reaction>  (3) 
rmg_rxn_16774

>  <mol_properties>  (3) 
{"0": {"label": "a_hydrogen", "atom_type": "H0"}, "3": {"label": "acceptor", "atom_type": "N3s"}}

>  <type>  (3) 
r2h

$$$$

     RDKit          3D

 17 15  0  0  0  0  0  0  0  0999 V2000
    2.5979   -0.5669    0.2399 C   0  0  0  0  0  0  0  0  0  0  0  0
    1.3195    0.1386   -0.0799 C   0  0  0  0  0  3  0  0  0  0  0  0
    1.2940    1.4047   -0.3239 N   0  0  0  0  0  0  0  0  0  0  0  0
    2.5101   -1.0279    1.2270 H   0  0  0  0  0  0  0  0  0  0  0  0
    2.8194   -1.3340   -0.5060 H   0  0  0  0  0  0  0  0  0  0  0  0
    3.4088    0.1653    0.2667 H   0  0  0  0  0  0  0  0  0  0  0  0
    0.2109   -0.5839   -0.1041 H   0  0  0  0  0  0  0  0  0  0  0  0
    0.3321    1.7047   -0.5207 H   0  0  0  0  0  0  0  0  0  0  0  0
   -2.0823    0.7419    0.5441 C   0  0  0  0  0  0  0  0  0  0  0  0
   -1.9474   -0.3958   -0.4538 C   0  0  0  0  0  0  0  0  0  0  0  0
   -0.8138   -1.2517   -0.1264 N   0  0  0  0  0  0  0  0  0  0  0  0
   -1.1869    1.3725    0.5499 H   0  0  0  0  0  0  0  0  0  0  0  0
   -2.9376    1.3733    0.2827 H   0  0  0  0  0  0  0  0  0  0  0  0
   -2.2411    0.3623    1.5591 H   0  0  0  0  0  0  0  0  0  0  0  0
   -1.8144    0.0080   -1.4627 H   0  0  0  0  0  0  0  0  0  0  0  0
   -2.8627   -0.9965   -0.4592 H   0  0  0  0  0  0  0  0  0  0  0  0
   -0.9261   -1.6211    0.8171 H   0  0  0  0  0  0  0  0  0  0  0  0
  1  2  1  0
  1  4  1  0
  1  5  1  0
  1  6  1  0
  2  3  2  3
  3  8  1  0
  7 11  1  0
  9 10  1  0
  9 12  1  0
  9 13  1  0
  9 14  1  0
 10 11  1  0
 10 15  1  0
 10 16  1  0
 11 17  1  0
M  RAD  1   2   2
M  END
>  <reaction>  (4) 
rmg_rxn_16774

>  <mol_properties>  (4) 
{"1": {"label": "*3", "atom_type": "Cd"}, "2": {"label": "*4", "atom_type": "N3d"}, "6": {"label": "*2", "atom_type": "H0"}, "9": {"label": "*0", "atom_type": "Cs"}, "10": {"label": "*1", "atom_type": "N3s"}}

>  <type>  (4) 
ts

$$$$
