
     RDKit          3D

  8  7  0  0  0  0  0  0  0  0999 V2000
    0.9548    0.1194   -0.0790 C   0  0  0  0  0  0  0  0  0  0  0  0
   -0.4838   -0.2649    0.0193 C   0  0  0  0  0  0  0  0  0  0  0  0
   -0.8933   -1.1081    0.8664 N   0  0  0  0  0  0  0  0  0  0  0  0
    1.3360   -0.0983   -1.0800 H   0  0  0  0  0  0  0  0  0  0  0  0
    1.0698    1.1948    0.0786 H   0  0  0  0  0  0  0  0  0  0  0  0
    1.5426   -0.4219    0.6602 H   0  0  0  0  0  0  0  0  0  0  0  0
   -1.1575    0.2324   -0.6905 H   0  0  0  0  0  0  0  0  0  0  0  0
   -1.8989   -1.2455    0.7886 H   0  0  0  0  0  0  0  0  0  0  0  0
  1  2  1  0
  1  4  1  0
  1  5  1  0
  1  6  1  0
  2  3  2  3
  2  7  1  0
  3  8  1  0
M  END
>  <reaction>  (1) 
rmg_rxn_16772

>  <mol_properties>  (1) 
{"2": {"label": "donator", "atom_type": "N3d"}, "7": {"label": "d_hydrogen", "atom_type": "H0"}}

>  <type>  (1) 
r1h

$$$$

     RDKit          3D

  9  8  0  0  0  0  0  0  0  0999 V2000
   -1.1169    0.0984    0.1960 C   0  0  0  0  0  0  0  0  0  0  0  0
    0.2461    0.6091    0.4945 C   0  0  0  0  0  3  0  0  0  0  0  0
    0.8360    1.4588   -0.4414 N   0  0  0  0  0  0  0  0  0  0  0  0
   -1.1390   -0.5493   -0.6933 H   0  0  0  0  0  0  0  0  0  0  0  0
   -1.5047   -0.4792    1.0350 H   0  0  0  0  0  0  0  0  0  0  0  0
   -1.8183    0.9190    0.0077 H   0  0  0  0  0  0  0  0  0  0  0  0
    0.9405   -0.0153    1.0433 H   0  0  0  0  0  0  0  0  0  0  0  0
    1.6989    1.8854   -0.1450 H   0  0  0  0  0  0  0  0  0  0  0  0
    0.2106    2.1422   -0.8415 H   0  0  0  0  0  0  0  0  0  0  0  0
  1  2  1  0
  1  4  1  0
  1  5  1  0
  1  6  1  0
  2  3  1  0
  2  7  1  0
  3  8  1  0
  3  9  1  0
M  RAD  1   2   2
M  END
>  <reaction>  (2) 
rmg_rxn_16772

>  <mol_properties>  (2) 
{"1": {"label": "acceptor", "atom_type": "Cs"}}

>  <type>  (2) 
r2

$$$$

     RDKit          3D

 10  9  0  0  0  0  0  0  0  0999 V2000
   -1.1906   -0.0419   -0.0385 C   0  0  0  0  0  0  0  0  0  0  0  0
    0.2513    0.4500    0.0348 C   0  0  0  0  0  0  0  0  0  0  0  0
    1.2500   -0.5694    0.3278 N   0  0  0  0  0  0  0  0  0  0  0  0
   -1.4965   -0.4905    0.9100 H   0  0  0  0  0  0  0  0  0  0  0  0
   -1.3035   -0.7985   -0.8190 H   0  0  0  0  0  0  0  0  0  0  0  0
   -1.8789    0.7769   -0.2612 H   0  0  0  0  0  0  0  0  0  0  0  0
    0.3352    1.2278    0.7979 H   0  0  0  0  0  0  0  0  0  0  0  0
    0.5259    0.9233   -0.9113 H   0  0  0  0  0  0  0  0  0  0  0  0
    1.2298   -1.2971   -0.3752 H   0  0  0  0  0  0  0  0  0  0  0  0
    1.0523   -1.0138    1.2153 H   0  0  0  0  0  0  0  0  0  0  0  0
  1  2  1  0
  1  4  1  0
  1  5  1  0
  1  6  1  0
  2  3  1  0
  2  7  1  0
  2  8  1  0
  3  9  1  0
  3 10  1  0
M  END
>  <reaction>  (3) 
rmg_rxn_16772

>  <mol_properties>  (3) 
{"0": {"label": "a_hydrogen", "atom_type": "H0"}, "2": {"label": "acceptor", "atom_type": "Cs"}}

>  <type>  (3) 
r2h

$$$$

     RDKit          3D

 17 15  0  0  0  0  0  0  0  0999 V2000
   -3.2124   -0.0448   -0.0356 C   0  0  0  0  0  0  0  0  0  0  0  0
   -1.7264   -0.1021    0.1710 C   0  0  0  0  0  0  0  0  0  0  0  0
   -0.9182    0.5915   -0.4913 N   0  0  0  0  0  2  0  0  0  0  0  0
   -3.4627    0.6668   -0.8203 H   0  0  0  0  0  0  0  0  0  0  0  0
   -3.5905   -1.0333   -0.3074 H   0  0  0  0  0  0  0  0  0  0  0  0
   -3.7082    0.2484    0.8929 H   0  0  0  0  0  0  0  0  0  0  0  0
   -1.3847   -0.8004    0.9514 H   0  0  0  0  0  0  0  0  0  0  0  0
    0.2878    0.2912   -0.0542 H   0  0  0  0  0  0  0  0  0  0  0  0
    1.7639   -1.3728   -0.2790 C   0  0  0  0  0  0  0  0  0  0  0  0
    1.4575   -0.0558    0.3854 C   0  0  0  0  0  0  0  0  0  0  0  0
    2.3927    0.9685    0.0810 N   0  0  0  0  0  0  0  0  0  0  0  0
    1.0031   -2.1143   -0.0330 H   0  0  0  0  0  0  0  0  0  0  0  0
    1.7784   -1.2620   -1.3664 H   0  0  0  0  0  0  0  0  0  0  0  0
    2.7381   -1.7569    0.0359 H   0  0  0  0  0  0  0  0  0  0  0  0
    1.3162   -0.1401    1.4650 H   0  0  0  0  0  0  0  0  0  0  0  0
    2.5121    1.0965   -0.9145 H   0  0  0  0  0  0  0  0  0  0  0  0
    2.1544    1.8549    0.5009 H   0  0  0  0  0  0  0  0  0  0  0  0
  1  2  1  0
  1  4  1  0
  1  5  1  0
  1  6  1  0
  2  3  2  0
  2  7  1  0
  8 10  1  0
  9 10  1  0
  9 12  1  0
  9 13  1  0
  9 14  1  0
 10 11  1  0
 10 15  1  0
 11 16  1  0
 11 17  1  0
M  RAD  1   3   2
M  END
>  <reaction>  (4) 
rmg_rxn_16772

>  <mol_properties>  (4) 
{"1": {"label": "*4", "atom_type": "Cd"}, "2": {"label": "*3", "atom_type": "N3d"}, "7": {"label": "*2", "atom_type": "H0"}, "9": {"label": "*1", "atom_type": "Cs"}, "10": {"label": "*0", "atom_type": "N3s"}}

>  <type>  (4) 
ts

$$$$
