
     RDKit          3D

  9  8  0  0  0  0  0  0  0  0999 V2000
   -1.2461    0.5037    0.0950 C   0  0  0  0  0  0  0  0  0  0  0  0
   -0.0155   -0.3334    0.0640 C   0  0  0  0  0  0  0  0  0  0  0  0
    1.0697    0.1457   -0.3733 N   0  0  0  0  0  0  0  0  0  0  0  0
    2.1001   -0.7834   -0.3224 O   0  0  0  0  0  0  0  0  0  0  0  0
   -2.0357    0.0440   -0.5039 H   0  0  0  0  0  0  0  0  0  0  0  0
   -1.6237    0.5897    1.1166 H   0  0  0  0  0  0  0  0  0  0  0  0
   -1.0397    1.4998   -0.2929 H   0  0  0  0  0  0  0  0  0  0  0  0
   -0.0537   -1.3634    0.4205 H   0  0  0  0  0  0  0  0  0  0  0  0
    2.8478   -0.2985   -0.6758 H   0  0  0  0  0  0  0  0  0  0  0  0
  1  2  1  0
  1  5  1  0
  1  6  1  0
  1  7  1  0
  2  3  2  3
  2  8  1  0
  3  4  1  0
  4  9  1  0
M  END
>  <reaction>  (1) 
rmg_rxn_81

>  <mol_properties>  (1) 
{"3": {"label": "donator", "atom_type": "O2s"}, "8": {"label": "d_hydrogen", "atom_type": "H0"}}

>  <type>  (1) 
r1h

$$$$

     RDKit          3D

  2  1  0  0  0  0  0  0  0  0999 V2000
    0.0000    0.0000    0.6715 S   0  0  0  0  0  1  0  0  0  0  0  0
    0.0000    0.0000   -0.6715 H   0  0  0  0  0  0  0  0  0  0  0  0
  1  2  1  0
M  RAD  1   1   2
M  END
>  <reaction>  (2) 
rmg_rxn_81

>  <mol_properties>  (2) 
{"0": {"label": "acceptor", "atom_type": "S2s"}}

>  <type>  (2) 
r2

$$$$

     RDKit          3D

  3  2  0  0  0  0  0  0  0  0999 V2000
   -0.0007    0.6157    0.0000 S   0  0  0  0  0  0  0  0  0  0  0  0
   -0.9686   -0.3090    0.0000 H   0  0  0  0  0  0  0  0  0  0  0  0
    0.9693   -0.3067    0.0000 H   0  0  0  0  0  0  0  0  0  0  0  0
  1  2  1  0
  1  3  1  0
M  END
>  <reaction>  (3) 
rmg_rxn_81

>  <mol_properties>  (3) 
{"0": {"label": "acceptor", "atom_type": "S2s"}, "2": {"label": "a_hydrogen", "atom_type": "H0"}}

>  <type>  (3) 
r2h

$$$$

     RDKit          3D

 11  9  0  0  0  0  0  0  0  0999 V2000
   -0.5082    2.0321    1.5147 S   0  0  0  0  0  1  0  0  0  0  0  0
    0.7210    2.0381    0.9801 H   0  0  0  0  0  0  0  0  0  0  0  0
    0.3778   -1.6123   -2.6860 C   0  0  0  0  0  0  0  0  0  0  0  0
   -0.2461   -1.5846   -1.3356 C   0  0  0  0  0  0  0  0  0  0  0  0
   -0.2450   -0.5192   -0.6487 N   0  0  0  0  0  0  0  0  0  0  0  0
   -0.7887   -0.5242    0.5364 O   0  0  0  0  0  0  0  0  0  0  0  0
    1.1738   -2.3594   -2.7219 H   0  0  0  0  0  0  0  0  0  0  0  0
   -0.3612   -1.8901   -3.4409 H   0  0  0  0  0  0  0  0  0  0  0  0
    0.7925   -0.6378   -2.9370 H   0  0  0  0  0  0  0  0  0  0  0  0
   -0.7115   -2.4854   -0.9368 H   0  0  0  0  0  0  0  0  0  0  0  0
   -0.7925    0.5851    0.9390 H   0  0  0  0  0  0  0  0  0  0  0  0
  1  2  1  0
  3  4  1  0
  3  7  1  0
  3  8  1  0
  3  9  1  0
  4  5  2  3
  4 10  1  0
  5  6  1  0
  6 11  1  0
M  RAD  1   1   2
M  END
>  <reaction>  (4) 
rmg_rxn_81

>  <mol_properties>  (4) 
{"0": {"label": "*3", "atom_type": "S2s"}, "1": {"label": "*4", "atom_type": "H0"}, "4": {"label": "*0", "atom_type": "N3d"}, "5": {"label": "*1", "atom_type": "O2s"}, "10": {"label": "*2", "atom_type": "H0"}}

>  <type>  (4) 
ts

$$$$
