
     RDKit          3D

  9  8  0  0  0  0  0  0  0  0999 V2000
   -1.0314    0.2323   -0.1227 C   0  0  0  0  0  0  0  0  0  0  0  0
    0.3094   -0.4511    0.0063 C   0  0  0  0  0  0  0  0  0  0  0  0
    0.3197   -1.7698    0.6841 N   0  0  0  0  0  0  0  0  0  0  0  0
   -0.7498   -2.1455    1.0557 O   0  0  0  0  0  0  0  0  0  0  0  0
   -1.4744    0.4198    0.8552 H   0  0  0  0  0  0  0  0  0  0  0  0
   -0.9073    1.1865   -0.6350 H   0  0  0  0  0  0  0  0  0  0  0  0
   -1.7319   -0.3778   -0.6927 H   0  0  0  0  0  0  0  0  0  0  0  0
    1.0375    0.1401    0.5713 H   0  0  0  0  0  0  0  0  0  0  0  0
    0.7826   -0.6494   -0.9609 H   0  0  0  0  0  0  0  0  0  0  0  0
  1  2  1  0
  1  5  1  0
  1  6  1  0
  1  7  1  0
  2  3  1  0
  2  8  1  0
  2  9  1  0
  3  4  2  0
M  END
>  <reaction>  (1) 
rmg_rxn_8

>  <mol_properties>  (1) 
{"1": {"label": "donator", "atom_type": "Cs"}, "7": {"label": "d_hydrogen", "atom_type": "H0"}}

>  <type>  (1) 
r1h

$$$$

     RDKit          3D

  8  7  0  0  0  0  0  0  0  0999 V2000
   -0.7853    0.0326    0.0393 C   0  0  0  0  0  0  0  0  0  0  0  0
    0.7379   -0.1211   -0.0579 C   0  0  0  0  0  0  0  0  0  0  0  0
    1.1315   -0.8282   -1.2106 N   0  0  0  0  0  1  0  0  0  0  0  0
   -1.2679   -0.9438    0.0768 H   0  0  0  0  0  0  0  0  0  0  0  0
   -1.0464    0.5840    0.9431 H   0  0  0  0  0  0  0  0  0  0  0  0
   -1.1718    0.5760   -0.8227 H   0  0  0  0  0  0  0  0  0  0  0  0
    1.2178    0.8698   -0.0686 H   0  0  0  0  0  0  0  0  0  0  0  0
    1.1219   -0.6479    0.8296 H   0  0  0  0  0  0  0  0  0  0  0  0
  1  2  1  0
  1  4  1  0
  1  5  1  0
  1  6  1  0
  2  3  1  0
  2  7  1  0
  2  8  1  0
M  RAD  1   3   3
M  END
>  <reaction>  (2) 
rmg_rxn_8

>  <mol_properties>  (2) 
{"2": {"label": "acceptor", "atom_type": "N3s"}}

>  <type>  (2) 
r2

$$$$

     RDKit          3D

  9  8  0  0  0  0  0  0  0  0999 V2000
   -1.0434   -0.0834    0.0221 C   0  0  0  0  0  0  0  0  0  0  0  0
    0.4680   -0.2131    0.0785 C   0  0  0  0  0  0  0  0  0  0  0  0
    0.9450   -1.3136   -0.7058 N   0  0  0  0  0  2  0  0  0  0  0  0
   -1.5170   -0.9919    0.3960 H   0  0  0  0  0  0  0  0  0  0  0  0
   -1.3864    0.7592    0.6249 H   0  0  0  0  0  0  0  0  0  0  0  0
   -1.3736    0.0696   -1.0061 H   0  0  0  0  0  0  0  0  0  0  0  0
    0.8045   -0.3309    1.1214 H   0  0  0  0  0  0  0  0  0  0  0  0
    0.9463    0.7186   -0.2648 H   0  0  0  0  0  0  0  0  0  0  0  0
    1.9638   -1.3321   -0.6157 H   0  0  0  0  0  0  0  0  0  0  0  0
  1  2  1  0
  1  4  1  0
  1  5  1  0
  1  6  1  0
  2  3  1  0
  2  7  1  0
  2  8  1  0
  3  9  1  0
M  RAD  1   3   2
M  END
>  <reaction>  (3) 
rmg_rxn_8

>  <mol_properties>  (3) 
{"2": {"label": "acceptor", "atom_type": "N3s"}, "8": {"label": "a_hydrogen", "atom_type": "H0"}}

>  <type>  (3) 
r2h

$$$$

     RDKit          3D

 17 15  0  0  0  0  0  0  0  0999 V2000
    1.9465   -1.5892    2.1768 C   0  0  0  0  0  0  0  0  0  0  0  0
    0.7977   -0.9939    1.3685 C   0  0  0  0  0  0  0  0  0  0  0  0
    0.5788   -1.7192    0.1660 N   0  0  0  0  0  2  0  0  0  0  0  0
    2.8725   -1.5689    1.6021 H   0  0  0  0  0  0  0  0  0  0  0  0
    2.0938   -1.0155    3.0924 H   0  0  0  0  0  0  0  0  0  0  0  0
    1.7316   -2.6232    2.4462 H   0  0  0  0  0  0  0  0  0  0  0  0
   -0.1303   -0.9825    1.9600 H   0  0  0  0  0  0  0  0  0  0  0  0
    0.9971    0.0608    1.1239 H   0  0  0  0  0  0  0  0  0  0  0  0
   -0.5239    0.4130   -2.0302 C   0  0  0  0  0  0  0  0  0  0  0  0
   -1.3000   -0.3745   -1.0135 C   0  0  0  0  0  0  0  0  0  0  0  0
   -1.9017    0.2929    0.0828 N   0  0  0  0  0  0  0  0  0  0  0  0
   -1.4191    1.3723    0.3592 O   0  0  0  0  0  1  0  0  0  0  0  0
    0.2209    1.0445   -1.5474 H   0  0  0  0  0  0  0  0  0  0  0  0
   -0.0252   -0.2663   -2.7208 H   0  0  0  0  0  0  0  0  0  0  0  0
   -1.1885    1.0627   -2.6046 H   0  0  0  0  0  0  0  0  0  0  0  0
   -0.4118   -1.1385   -0.4161 H   0  0  0  0  0  0  0  0  0  0  0  0
   -1.9729   -1.1433   -1.3894 H   0  0  0  0  0  0  0  0  0  0  0  0
  1  2  1  0
  1  4  1  0
  1  5  1  0
  1  6  1  0
  2  3  1  0
  2  7  1  0
  2  8  1  0
  3 16  1  0
  9 10  1  0
  9 13  1  0
  9 14  1  0
  9 15  1  0
 10 11  2  3
 10 17  1  0
 11 12  1  0
M  RAD  2   3   2  12   2
M  END
>  <reaction>  (4) 
rmg_rxn_8

>  <mol_properties>  (4) 
{"1": {"label": "*0", "atom_type": "Cs"}, "2": {"label": "*1", "atom_type": "N3s"}, "9": {"label": "*3", "atom_type": "Cd"}, "10": {"label": "*4", "atom_type": "N3d"}, "15": {"label": "*2", "atom_type": "H0"}}

>  <type>  (4) 
ts

$$$$
