
     RDKit          3D

  9  8  0  0  0  0  0  0  0  0999 V2000
   -1.0314    0.2323   -0.1227 C   0  0  0  0  0  0  0  0  0  0  0  0
    0.3094   -0.4511    0.0063 C   0  0  0  0  0  0  0  0  0  0  0  0
    0.3197   -1.7698    0.6841 N   0  0  0  0  0  0  0  0  0  0  0  0
   -0.7498   -2.1455    1.0557 O   0  0  0  0  0  0  0  0  0  0  0  0
   -1.4744    0.4198    0.8552 H   0  0  0  0  0  0  0  0  0  0  0  0
   -0.9073    1.1865   -0.6350 H   0  0  0  0  0  0  0  0  0  0  0  0
   -1.7319   -0.3778   -0.6927 H   0  0  0  0  0  0  0  0  0  0  0  0
    1.0375    0.1401    0.5713 H   0  0  0  0  0  0  0  0  0  0  0  0
    0.7826   -0.6494   -0.9609 H   0  0  0  0  0  0  0  0  0  0  0  0
  1  2  1  0
  1  5  1  0
  1  6  1  0
  1  7  1  0
  2  3  1  0
  2  8  1  0
  2  9  1  0
  3  4  2  0
M  END
>  <reaction>  (1) 
rmg_rxn_41

>  <mol_properties>  (1) 
{"1": {"label": "donator", "atom_type": "Cs"}, "7": {"label": "d_hydrogen", "atom_type": "H0"}}

>  <type>  (1) 
r1h

$$$$

     RDKit          3D

 13 13  0  0  0  0  0  0  0  0999 V2000
    0.5794    1.5990    0.2108 C   0  0  0  0  0  3  0  0  0  0  0  0
    1.4528    0.6621   -0.2496 O   0  0  0  0  0  0  0  0  0  0  0  0
    1.0751   -0.6763    0.0423 C   0  0  0  0  0  0  0  0  0  0  0  0
   -0.3579   -0.9282   -0.3924 C   0  0  0  0  0  0  0  0  0  0  0  0
   -1.2426    0.1393    0.2269 C   0  0  0  0  0  0  0  0  0  0  0  0
   -0.7410    1.4341   -0.0749 O   0  0  0  0  0  0  0  0  0  0  0  0
    0.9183    2.6078    0.0084 H   0  0  0  0  0  0  0  0  0  0  0  0
    1.1839   -0.8508    1.1199 H   0  0  0  0  0  0  0  0  0  0  0  0
    1.7816   -1.3130   -0.4874 H   0  0  0  0  0  0  0  0  0  0  0  0
   -0.6818   -1.9210   -0.0736 H   0  0  0  0  0  0  0  0  0  0  0  0
   -0.4271   -0.8785   -1.4810 H   0  0  0  0  0  0  0  0  0  0  0  0
   -1.2832    0.0173    1.3164 H   0  0  0  0  0  0  0  0  0  0  0  0
   -2.2575    0.1083   -0.1657 H   0  0  0  0  0  0  0  0  0  0  0  0
  1  2  1  0
  1  6  1  0
  1  7  1  0
  2  3  1  0
  3  4  1  0
  3  8  1  0
  3  9  1  0
  4  5  1  0
  4 10  1  0
  4 11  1  0
  5  6  1  0
  5 12  1  0
  5 13  1  0
M  RAD  1   1   2
M  END
>  <reaction>  (2) 
rmg_rxn_41

>  <mol_properties>  (2) 
{"0": {"label": "acceptor", "atom_type": "Cs"}}

>  <type>  (2) 
r2

$$$$

     RDKit          3D

 14 14  0  0  0  0  0  0  0  0999 V2000
   -1.1778    0.2241    0.1818 C   0  0  0  0  0  0  0  0  0  0  0  0
   -0.5633   -1.1636    0.0678 C   0  0  0  0  0  0  0  0  0  0  0  0
    0.6943   -1.1996    0.7146 O   0  0  0  0  0  0  0  0  0  0  0  0
    1.5547   -0.2288    0.2011 C   0  0  0  0  0  0  0  0  0  0  0  0
    1.0729    1.0696    0.3698 O   0  0  0  0  0  0  0  0  0  0  0  0
   -0.1607    1.2493   -0.2989 C   0  0  0  0  0  0  0  0  0  0  0  0
   -2.0927    0.2866   -0.4117 H   0  0  0  0  0  0  0  0  0  0  0  0
   -1.4303    0.4248    1.2248 H   0  0  0  0  0  0  0  0  0  0  0  0
   -1.1822   -1.9235    0.5431 H   0  0  0  0  0  0  0  0  0  0  0  0
   -0.4389   -1.4347   -0.9919 H   0  0  0  0  0  0  0  0  0  0  0  0
    1.7250   -0.4207   -0.8742 H   0  0  0  0  0  0  0  0  0  0  0  0
    2.4896   -0.3010    0.7524 H   0  0  0  0  0  0  0  0  0  0  0  0
   -0.0080    1.1481   -1.3844 H   0  0  0  0  0  0  0  0  0  0  0  0
   -0.4826    2.2695   -0.0942 H   0  0  0  0  0  0  0  0  0  0  0  0
  1  2  1  0
  1  6  1  0
  1  7  1  0
  1  8  1  0
  2  3  1  0
  2  9  1  0
  2 10  1  0
  3  4  1  0
  4  5  1  0
  4 11  1  0
  4 12  1  0
  5  6  1  0
  6 13  1  0
  6 14  1  0
M  END
>  <reaction>  (3) 
rmg_rxn_41

>  <mol_properties>  (3) 
{"0": {"label": "a_hydrogen", "atom_type": "H0"}, "1": {"label": "acceptor", "atom_type": "Cs"}}

>  <type>  (3) 
r2h

$$$$

     RDKit          3D

 22 21  0  0  0  0  0  0  0  0999 V2000
   -1.8946    0.1061   -1.7554 C   0  0  0  0  0  0  0  0  0  0  0  0
   -1.3108    0.7758   -0.5377 C   0  0  0  0  0  0  0  0  0  0  0  0
   -0.2554    1.6883   -0.6895 N   0  0  0  0  0  0  0  0  0  0  0  0
    0.4040    1.5535   -1.7186 O   0  0  0  0  0  0  0  0  0  0  0  0
   -1.1234   -0.4167   -2.3189 H   0  0  0  0  0  0  0  0  0  0  0  0
   -2.6628   -0.6082   -1.4576 H   0  0  0  0  0  0  0  0  0  0  0  0
   -2.3491    0.8450   -2.4182 H   0  0  0  0  0  0  0  0  0  0  0  0
   -0.7908   -0.1964    0.1310 H   0  0  0  0  0  0  0  0  0  0  0  0
   -2.0216    1.1562    0.1944 H   0  0  0  0  0  0  0  0  0  0  0  0
   -0.3366   -1.4518    0.6708 C   0  0  0  0  0  3  0  0  0  0  0  0
    0.5180   -1.9655   -0.2364 O   0  0  0  0  0  0  0  0  0  0  0  0
    1.7057   -1.1895   -0.4833 C   0  0  0  0  0  0  0  0  0  0  0  0
    2.0447   -0.3046    0.7088 C   0  0  0  0  0  0  0  0  0  0  0  0
    1.5561   -0.9760    1.9761 C   0  0  0  0  0  0  0  0  0  0  0  0
    0.1450   -1.1893    1.9126 O   0  0  0  0  0  0  0  0  0  0  0  0
   -1.2631   -2.0201    0.7153 H   0  0  0  0  0  0  0  0  0  0  0  0
    2.4867   -1.9256   -0.6709 H   0  0  0  0  0  0  0  0  0  0  0  0
    1.5425   -0.5948   -1.3848 H   0  0  0  0  0  0  0  0  0  0  0  0
    3.1213   -0.1405    0.7586 H   0  0  0  0  0  0  0  0  0  0  0  0
    1.5683    0.6726    0.6137 H   0  0  0  0  0  0  0  0  0  0  0  0
    1.7275   -0.3618    2.8576 H   0  0  0  0  0  0  0  0  0  0  0  0
    2.0466   -1.9443    2.1211 H   0  0  0  0  0  0  0  0  0  0  0  0
  1  2  1  0
  1  5  1  0
  1  6  1  0
  1  7  1  0
  2  3  1  0
  2  8  1  0
  2  9  1  0
  3  4  2  0
 10 11  1  0
 10 15  1  0
 10 16  1  0
 11 12  1  0
 12 13  1  0
 12 17  1  0
 12 18  1  0
 13 14  1  0
 13 19  1  0
 13 20  1  0
 14 15  1  0
 14 21  1  0
 14 22  1  0
M  RAD  1  10   2
M  END
>  <reaction>  (4) 
rmg_rxn_41

>  <mol_properties>  (4) 
{"1": {"label": "*1", "atom_type": "Cs"}, "2": {"label": "*0", "atom_type": "N3d"}, "7": {"label": "*2", "atom_type": "H0"}, "9": {"label": "*3", "atom_type": "Cs"}, "10": {"label": "*4", "atom_type": "O2s"}}

>  <type>  (4) 
ts

$$$$
