
     RDKit          3D

 13 12  0  0  0  0  0  0  0  0999 V2000
   -2.5787    0.3845    0.5363 N   0  0  0  0  0  1  0  0  0  0  0  0
   -2.0448   -0.2878   -0.3016 N   0  0  0  0  0  0  0  0  0  0  0  0
   -0.5705   -0.4119   -0.5708 C   0  0  0  0  0  0  0  0  0  0  0  0
    0.2772    0.2247    0.5075 C   0  0  0  0  0  0  0  0  0  0  0  0
    0.2957   -0.5646    1.8104 C   0  0  0  0  0  0  0  0  0  0  0  0
   -2.5889   -0.8713   -0.9748 H   0  0  0  0  0  0  0  0  0  0  0  0
   -0.3659   -1.4815   -0.6747 H   0  0  0  0  0  0  0  0  0  0  0  0
   -0.4043    0.0541   -1.5457 H   0  0  0  0  0  0  0  0  0  0  0  0
    1.2919    0.3223    0.1145 H   0  0  0  0  0  0  0  0  0  0  0  0
   -0.0978    1.2330    0.6915 H   0  0  0  0  0  0  0  0  0  0  0  0
    0.6693   -1.5792    1.6503 H   0  0  0  0  0  0  0  0  0  0  0  0
   -0.7042   -0.6287    2.2395 H   0  0  0  0  0  0  0  0  0  0  0  0
    0.9431   -0.0833    2.5443 H   0  0  0  0  0  0  0  0  0  0  0  0
  1  2  1  0
  2  3  1  0
  2  6  1  0
  3  4  1  0
  3  7  1  0
  3  8  1  0
  4  5  1  0
  4  9  1  0
  4 10  1  0
  5 11  1  0
  5 12  1  0
  5 13  1  0
M  RAD  1   1   3
M  END
>  <reaction>  (1) 
rmg_rxn_16706

>  <mol_properties>  (1) 
{"2": {"label": "donator", "atom_type": "Cs"}, "6": {"label": "d_hydrogen", "atom_type": "H0"}}

>  <type>  (1) 
r1h

$$$$

     RDKit          3D

  7  6  0  0  0  0  0  0  0  0999 V2000
   -0.8578   -0.1277   -0.1330 C   0  0  0  0  0  0  0  0  0  0  0  0
    0.5137   -0.3687    0.3793 C   0  0  0  0  0  3  0  0  0  0  0  0
    1.4512    0.4166    0.5221 N   0  0  0  0  0  0  0  0  0  0  0  0
   -1.0403   -0.7609   -1.0021 H   0  0  0  0  0  0  0  0  0  0  0  0
   -1.5871   -0.4048    0.6293 H   0  0  0  0  0  0  0  0  0  0  0  0
   -0.9959    0.9218   -0.4083 H   0  0  0  0  0  0  0  0  0  0  0  0
    2.3214    0.0450    0.8949 H   0  0  0  0  0  0  0  0  0  0  0  0
  1  2  1  0
  1  4  1  0
  1  5  1  0
  1  6  1  0
  2  3  2  3
  3  7  1  0
M  RAD  1   2   2
M  END
>  <reaction>  (2) 
rmg_rxn_16706

>  <mol_properties>  (2) 
{"1": {"label": "acceptor", "atom_type": "Cd"}}

>  <type>  (2) 
r2

$$$$

     RDKit          3D

  8  7  0  0  0  0  0  0  0  0999 V2000
    0.9548    0.1194   -0.0790 C   0  0  0  0  0  0  0  0  0  0  0  0
   -0.4838   -0.2649    0.0193 C   0  0  0  0  0  0  0  0  0  0  0  0
   -0.8933   -1.1081    0.8664 N   0  0  0  0  0  0  0  0  0  0  0  0
    1.3360   -0.0983   -1.0800 H   0  0  0  0  0  0  0  0  0  0  0  0
    1.0698    1.1948    0.0786 H   0  0  0  0  0  0  0  0  0  0  0  0
    1.5426   -0.4219    0.6602 H   0  0  0  0  0  0  0  0  0  0  0  0
   -1.1575    0.2324   -0.6905 H   0  0  0  0  0  0  0  0  0  0  0  0
   -1.8989   -1.2455    0.7886 H   0  0  0  0  0  0  0  0  0  0  0  0
  1  2  1  0
  1  4  1  0
  1  5  1  0
  1  6  1  0
  2  3  2  3
  2  7  1  0
  3  8  1  0
M  END
>  <reaction>  (3) 
rmg_rxn_16706

>  <mol_properties>  (3) 
{"1": {"label": "acceptor", "atom_type": "Cd"}, "7": {"label": "a_hydrogen", "atom_type": "H0"}}

>  <type>  (3) 
r2h

$$$$

     RDKit          3D

 20 18  0  0  0  0  0  0  0  0999 V2000
    1.7543    1.3168   -1.0870 C   0  0  0  0  0  0  0  0  0  0  0  0
    1.7345    0.3250    0.0210 C   0  0  0  0  0  3  0  0  0  0  0  0
    2.7165   -0.2334    0.5439 N   0  0  0  0  0  0  0  0  0  0  0  0
    1.3265    2.2608   -0.7441 H   0  0  0  0  0  0  0  0  0  0  0  0
    2.7729    1.4797   -1.4414 H   0  0  0  0  0  0  0  0  0  0  0  0
    1.1215    0.9678   -1.9049 H   0  0  0  0  0  0  0  0  0  0  0  0
    2.4771   -0.8845    1.2894 H   0  0  0  0  0  0  0  0  0  0  0  0
   -1.9261    1.5027   -0.6368 N   0  0  0  0  0  1  0  0  0  0  0  0
   -1.4934    1.0757    0.4115 N   0  0  0  0  0  0  0  0  0  0  0  0
   -0.8477   -0.2077    0.6309 C   0  0  0  0  0  0  0  0  0  0  0  0
   -1.1920   -1.2801   -0.3602 C   0  0  0  0  0  0  0  0  0  0  0  0
   -0.4248   -2.5688   -0.0930 C   0  0  0  0  0  0  0  0  0  0  0  0
   -1.5176    1.6429    1.2856 H   0  0  0  0  0  0  0  0  0  0  0  0
    0.4644    0.0578    0.4252 H   0  0  0  0  0  0  0  0  0  0  0  0
   -0.9199   -0.4891    1.6834 H   0  0  0  0  0  0  0  0  0  0  0  0
   -2.2709   -1.4659   -0.3278 H   0  0  0  0  0  0  0  0  0  0  0  0
   -0.9891   -0.9070   -1.3657 H   0  0  0  0  0  0  0  0  0  0  0  0
   -0.6326   -2.9566    0.9069 H   0  0  0  0  0  0  0  0  0  0  0  0
    0.6527   -2.4128   -0.1765 H   0  0  0  0  0  0  0  0  0  0  0  0
   -0.7037   -3.3393   -0.8119 H   0  0  0  0  0  0  0  0  0  0  0  0
  1  2  1  0
  1  4  1  0
  1  5  1  0
  1  6  1  0
  2  3  2  3
  3  7  1  0
  8  9  1  0
  9 10  1  0
  9 13  1  0
 10 11  1  0
 10 14  1  0
 10 15  1  0
 11 12  1  0
 11 16  1  0
 11 17  1  0
 12 18  1  0
 12 19  1  0
 12 20  1  0
M  RAD  2   2   2   8   3
M  END
>  <reaction>  (4) 
rmg_rxn_16706

>  <mol_properties>  (4) 
{"1": {"label": "*3", "atom_type": "Cd"}, "2": {"label": "*4", "atom_type": "N3d"}, "8": {"label": "*0", "atom_type": "N3s"}, "9": {"label": "*1", "atom_type": "Cs"}, "13": {"label": "*2", "atom_type": "H0"}}

>  <type>  (4) 
ts

$$$$
