
     RDKit          3D

  9  8  0  0  0  0  0  0  0  0999 V2000
   -1.5470   -0.0755   -0.1976 C   0  0  0  0  0  0  0  0  0  0  0  0
   -0.2885    0.4507    0.1749 O   0  0  0  0  0  0  0  0  0  0  0  0
   -0.1502    1.7216   -0.3294 N   0  0  0  0  0  0  0  0  0  0  0  0
    0.9626    2.2353   -0.0219 C   0  0  0  0  0  0  0  0  0  0  0  0
   -1.6392   -0.1356   -1.2844 H   0  0  0  0  0  0  0  0  0  0  0  0
   -2.3597    0.5337    0.2044 H   0  0  0  0  0  0  0  0  0  0  0  0
   -1.5879   -1.0750    0.2318 H   0  0  0  0  0  0  0  0  0  0  0  0
    1.1497    3.2381   -0.3820 H   0  0  0  0  0  0  0  0  0  0  0  0
    1.7060    1.7101    0.5739 H   0  0  0  0  0  0  0  0  0  0  0  0
  1  2  1  0
  1  5  1  0
  1  6  1  0
  1  7  1  0
  2  3  1  0
  3  4  2  3
  4  8  1  0
  4  9  1  0
M  END
>  <reaction>  (1) 
rmg_rxn_15707

>  <mol_properties>  (1) 
{"0": {"label": "donator", "atom_type": "Cs"}, "4": {"label": "d_hydrogen", "atom_type": "H0"}}

>  <type>  (1) 
r1h

$$$$

     RDKit          3D

 11 10  0  0  0  0  0  0  0  0999 V2000
   -1.9423    0.2880    0.5808 C   0  0  0  0  0  0  0  0  0  0  0  0
   -0.3826    1.1347    0.2736 S   0  0  0  0  0  0  0  0  0  0  0  0
   -0.0855    1.8779    1.9329 C   0  0  0  0  0  0  0  0  0  0  0  0
    0.1622    0.8686    2.9726 C   0  0  0  0  0  3  0  0  0  0  0  0
   -2.7113    0.9909    0.9035 H   0  0  0  0  0  0  0  0  0  0  0  0
   -1.8284   -0.5029    1.3208 H   0  0  0  0  0  0  0  0  0  0  0  0
   -2.2503   -0.1583   -0.3638 H   0  0  0  0  0  0  0  0  0  0  0  0
    0.7847    2.5160    1.7689 H   0  0  0  0  0  0  0  0  0  0  0  0
   -0.9380    2.5164    2.1676 H   0  0  0  0  0  0  0  0  0  0  0  0
    1.1155    0.3601    3.0172 H   0  0  0  0  0  0  0  0  0  0  0  0
   -0.6473    0.4888    3.5808 H   0  0  0  0  0  0  0  0  0  0  0  0
  1  2  1  0
  1  5  1  0
  1  6  1  0
  1  7  1  0
  2  3  1  0
  3  4  1  0
  3  8  1  0
  3  9  1  0
  4 10  1  0
  4 11  1  0
M  RAD  1   4   2
M  END
>  <reaction>  (2) 
rmg_rxn_15707

>  <mol_properties>  (2) 
{"3": {"label": "acceptor", "atom_type": "Cs"}}

>  <type>  (2) 
r2

$$$$

     RDKit          3D

 12 11  0  0  0  0  0  0  0  0999 V2000
    1.8075    0.1979    0.4695 C   0  0  0  0  0  0  0  0  0  0  0  0
    1.0072   -0.8859   -0.7259 S   0  0  0  0  0  0  0  0  0  0  0  0
   -0.7258   -0.6904   -0.2447 C   0  0  0  0  0  0  0  0  0  0  0  0
   -1.0856   -1.2776    1.1108 C   0  0  0  0  0  0  0  0  0  0  0  0
    1.7126   -0.1777    1.4878 H   0  0  0  0  0  0  0  0  0  0  0  0
    1.4024    1.2089    0.4095 H   0  0  0  0  0  0  0  0  0  0  0  0
    2.8647    0.2298    0.2095 H   0  0  0  0  0  0  0  0  0  0  0  0
   -1.2866   -1.1892   -1.0369 H   0  0  0  0  0  0  0  0  0  0  0  0
   -0.9814    0.3707   -0.2917 H   0  0  0  0  0  0  0  0  0  0  0  0
   -0.5492   -0.7768    1.9180 H   0  0  0  0  0  0  0  0  0  0  0  0
   -0.8418   -2.3397    1.1503 H   0  0  0  0  0  0  0  0  0  0  0  0
   -2.1545   -1.1604    1.3035 H   0  0  0  0  0  0  0  0  0  0  0  0
  1  2  1  0
  1  5  1  0
  1  6  1  0
  1  7  1  0
  2  3  1  0
  3  4  1  0
  3  8  1  0
  3  9  1  0
  4 10  1  0
  4 11  1  0
  4 12  1  0
M  END
>  <reaction>  (3) 
rmg_rxn_15707

>  <mol_properties>  (3) 
{"0": {"label": "a_hydrogen", "atom_type": "H0"}, "4": {"label": "acceptor", "atom_type": "Cs"}}

>  <type>  (3) 
r2h

$$$$

     RDKit          3D

 20 18  0  0  0  0  0  0  0  0999 V2000
   -2.1618    1.5769    0.0439 C   0  0  0  0  0  0  0  0  0  0  0  0
   -2.5618    0.3290   -0.4182 O   0  0  0  0  0  0  0  0  0  0  0  0
   -2.4788   -0.6112    0.5867 N   0  0  0  0  0  0  0  0  0  0  0  0
   -2.7831   -1.7657    0.1721 C   0  0  0  0  0  0  0  0  0  0  0  0
   -0.8326    1.5655    0.1737 H   0  0  0  0  0  0  0  0  0  0  0  0
   -2.5585    1.8153    1.0302 H   0  0  0  0  0  0  0  0  0  0  0  0
   -2.3967    2.3101   -0.7232 H   0  0  0  0  0  0  0  0  0  0  0  0
   -2.7520   -2.5640    0.9014 H   0  0  0  0  0  0  0  0  0  0  0  0
   -3.0655   -1.9638   -0.8593 H   0  0  0  0  0  0  0  0  0  0  0  0
    3.0726   -0.4657    1.1007 C   0  0  0  0  0  0  0  0  0  0  0  0
    2.5908   -0.2696   -0.6236 S   0  0  0  0  0  0  0  0  0  0  0  0
    0.8177    0.0980   -0.4271 C   0  0  0  0  0  0  0  0  0  0  0  0
    0.5223    1.4050    0.2439 C   0  0  0  0  0  3  0  0  0  0  0  0
    4.1163   -0.7772    1.1056 H   0  0  0  0  0  0  0  0  0  0  0  0
    2.4739   -1.2376    1.5860 H   0  0  0  0  0  0  0  0  0  0  0  0
    2.9853    0.4695    1.6527 H   0  0  0  0  0  0  0  0  0  0  0  0
    0.4276    0.0883   -1.4466 H   0  0  0  0  0  0  0  0  0  0  0  0
    0.3508   -0.7316    0.1065 H   0  0  0  0  0  0  0  0  0  0  0  0
    0.9214    2.2774   -0.2700 H   0  0  0  0  0  0  0  0  0  0  0  0
    0.7214    1.4316    1.3133 H   0  0  0  0  0  0  0  0  0  0  0  0
  1  2  1  0
  1  5  1  0
  1  6  1  0
  1  7  1  0
  2  3  1  0
  3  4  2  3
  4  8  1  0
  4  9  1  0
 10 11  1  0
 10 14  1  0
 10 15  1  0
 10 16  1  0
 11 12  1  0
 12 13  1  0
 12 17  1  0
 12 18  1  0
 13 19  1  0
 13 20  1  0
M  RAD  1  13   2
M  END
>  <reaction>  (4) 
rmg_rxn_15707

>  <mol_properties>  (4) 
{"0": {"label": "*1", "atom_type": "Cs"}, "1": {"label": "*0", "atom_type": "O2s"}, "4": {"label": "*2", "atom_type": "H0"}, "11": {"label": "*4", "atom_type": "Cs"}, "12": {"label": "*3", "atom_type": "Cs"}}

>  <type>  (4) 
ts

$$$$
