
     RDKit          3D

 18 17  0  0  0  0  0  0  0  0999 V2000
    2.2026   -0.7213   -0.2612 C   0  0  0  0  0  0  0  0  0  0  0  0
    1.5384    0.2638    0.6915 C   0  0  0  0  0  0  0  0  0  0  0  0
    2.2584    1.5946    0.7694 C   0  0  0  0  0  0  0  0  0  0  0  0
    2.2212    2.2185   -0.4893 O   0  0  0  0  0  0  0  0  0  0  0  0
    2.8988    3.4488   -0.5204 C   0  0  0  0  0  0  0  0  0  0  0  0
    2.7981    4.0296   -1.9118 C   0  0  0  0  0  0  0  0  0  0  0  0
    3.2294   -0.9309    0.0486 H   0  0  0  0  0  0  0  0  0  0  0  0
    2.2338   -0.3181   -1.2734 H   0  0  0  0  0  0  0  0  0  0  0  0
    1.6610   -1.6680   -0.2875 H   0  0  0  0  0  0  0  0  0  0  0  0
    1.4990   -0.1566    1.7002 H   0  0  0  0  0  0  0  0  0  0  0  0
    0.5055    0.4455    0.3835 H   0  0  0  0  0  0  0  0  0  0  0  0
    3.3038    1.4410    1.0808 H   0  0  0  0  0  0  0  0  0  0  0  0
    1.7844    2.2410    1.5226 H   0  0  0  0  0  0  0  0  0  0  0  0
    2.4596    4.1376    0.2164 H   0  0  0  0  0  0  0  0  0  0  0  0
    3.9524    3.3035   -0.2397 H   0  0  0  0  0  0  0  0  0  0  0  0
    1.7543    4.1869   -2.1856 H   0  0  0  0  0  0  0  0  0  0  0  0
    3.2472    3.3545   -2.6411 H   0  0  0  0  0  0  0  0  0  0  0  0
    3.3178    4.9878   -1.9600 H   0  0  0  0  0  0  0  0  0  0  0  0
  1  2  1  0
  1  7  1  0
  1  8  1  0
  1  9  1  0
  2  3  1  0
  2 10  1  0
  2 11  1  0
  3  4  1  0
  3 12  1  0
  3 13  1  0
  4  5  1  0
  5  6  1  0
  5 14  1  0
  5 15  1  0
  6 16  1  0
  6 17  1  0
  6 18  1  0
M  END
>  <reaction>  (1) 
rmg_rxn_660

>  <mol_properties>  (1) 
{"2": {"label": "donator", "atom_type": "Cs"}, "11": {"label": "d_hydrogen", "atom_type": "H0"}}

>  <type>  (1) 
r1h

$$$$

     RDKit          3D

 14 13  0  0  0  0  0  0  0  0999 V2000
    2.7687   -0.0362   -0.0732 C   0  0  0  0  0  3  0  0  0  0  0  0
    1.6543    0.2105    0.6386 O   0  0  0  0  0  0  0  0  0  0  0  0
    1.8652    0.6968    1.9544 C   0  0  0  0  0  0  0  0  0  0  0  0
    0.5252    0.9355    2.6156 C   0  0  0  0  0  0  0  0  0  0  0  0
   -0.2992    2.0181    1.9317 C   0  0  0  0  0  0  0  0  0  0  0  0
    2.5851   -0.4757   -1.0422 H   0  0  0  0  0  0  0  0  0  0  0  0
    3.6974   -0.2083    0.4611 H   0  0  0  0  0  0  0  0  0  0  0  0
    2.4441    1.6271    1.9039 H   0  0  0  0  0  0  0  0  0  0  0  0
    2.4506   -0.0397    2.5179 H   0  0  0  0  0  0  0  0  0  0  0  0
    0.7150    1.2089    3.6572 H   0  0  0  0  0  0  0  0  0  0  0  0
   -0.0287   -0.0066    2.6327 H   0  0  0  0  0  0  0  0  0  0  0  0
   -0.5056    1.7522    0.8949 H   0  0  0  0  0  0  0  0  0  0  0  0
   -1.2524    2.1635    2.4416 H   0  0  0  0  0  0  0  0  0  0  0  0
    0.2319    2.9729    1.9340 H   0  0  0  0  0  0  0  0  0  0  0  0
  1  2  1  0
  1  6  1  0
  1  7  1  0
  2  3  1  0
  3  4  1  0
  3  8  1  0
  3  9  1  0
  4  5  1  0
  4 10  1  0
  4 11  1  0
  5 12  1  0
  5 13  1  0
  5 14  1  0
M  RAD  1   1   2
M  END
>  <reaction>  (2) 
rmg_rxn_660

>  <mol_properties>  (2) 
{"0": {"label": "acceptor", "atom_type": "Cs"}}

>  <type>  (2) 
r2

$$$$

     RDKit          3D

 15 14  0  0  0  0  0  0  0  0999 V2000
   -1.2811   -0.4129    1.0228 C   0  0  0  0  0  0  0  0  0  0  0  0
   -1.0023   -0.5809   -0.4650 C   0  0  0  0  0  0  0  0  0  0  0  0
   -2.0576    0.0568   -1.3449 C   0  0  0  0  0  0  0  0  0  0  0  0
   -2.0663    1.4464   -1.1307 O   0  0  0  0  0  0  0  0  0  0  0  0
   -3.0424    2.1072   -1.8849 C   0  0  0  0  0  0  0  0  0  0  0  0
   -2.2382   -0.8657    1.2935 H   0  0  0  0  0  0  0  0  0  0  0  0
   -1.3219    0.6426    1.2914 H   0  0  0  0  0  0  0  0  0  0  0  0
   -0.5042   -0.8881    1.6236 H   0  0  0  0  0  0  0  0  0  0  0  0
   -0.0316   -0.1460   -0.7167 H   0  0  0  0  0  0  0  0  0  0  0  0
   -0.9494   -1.6429   -0.7203 H   0  0  0  0  0  0  0  0  0  0  0  0
   -1.8518   -0.1570   -2.4041 H   0  0  0  0  0  0  0  0  0  0  0  0
   -3.0491   -0.3636   -1.1124 H   0  0  0  0  0  0  0  0  0  0  0  0
   -4.0521    1.7545   -1.6343 H   0  0  0  0  0  0  0  0  0  0  0  0
   -2.8850    1.9634   -2.9626 H   0  0  0  0  0  0  0  0  0  0  0  0
   -2.9730    3.1700   -1.6570 H   0  0  0  0  0  0  0  0  0  0  0  0
  1  2  1  0
  1  6  1  0
  1  7  1  0
  1  8  1  0
  2  3  1  0
  2  9  1  0
  2 10  1  0
  3  4  1  0
  3 11  1  0
  3 12  1  0
  4  5  1  0
  5 13  1  0
  5 14  1  0
  5 15  1  0
M  END
>  <reaction>  (3) 
rmg_rxn_660

>  <mol_properties>  (3) 
{"0": {"label": "acceptor", "atom_type": "Cs"}, "14": {"label": "a_hydrogen", "atom_type": "H0"}}

>  <type>  (3) 
r2h

$$$$

     RDKit          3D

 32 30  0  0  0  0  0  0  0  0999 V2000
    1.9277   -0.4135    0.6154 C   0  0  0  0  0  3  0  0  0  0  0  0
    1.5664    0.8703    0.2700 O   0  0  0  0  0  0  0  0  0  0  0  0
    0.9481    0.9676   -0.9987 C   0  0  0  0  0  0  0  0  0  0  0  0
    0.5460    2.4061   -1.2427 C   0  0  0  0  0  0  0  0  0  0  0  0
    1.7282    3.3643   -1.2973 C   0  0  0  0  0  0  0  0  0  0  0  0
    2.4647   -0.4022    1.5615 H   0  0  0  0  0  0  0  0  0  0  0  0
    2.4671   -0.9492   -0.1745 H   0  0  0  0  0  0  0  0  0  0  0  0
    0.0708    0.3119   -1.0302 H   0  0  0  0  0  0  0  0  0  0  0  0
    1.6522    0.6269   -1.7728 H   0  0  0  0  0  0  0  0  0  0  0  0
   -0.1474    2.7095   -0.4532 H   0  0  0  0  0  0  0  0  0  0  0  0
   -0.0122    2.4414   -2.1824 H   0  0  0  0  0  0  0  0  0  0  0  0
    1.3963    4.3878   -1.4772 H   0  0  0  0  0  0  0  0  0  0  0  0
    2.2843    3.3466   -0.3599 H   0  0  0  0  0  0  0  0  0  0  0  0
    2.4158    3.0886   -2.1005 H   0  0  0  0  0  0  0  0  0  0  0  0
   -0.1989   -2.7405   -1.3145 C   0  0  0  0  0  0  0  0  0  0  0  0
   -0.3686   -3.0250    0.1739 C   0  0  0  0  0  0  0  0  0  0  0  0
   -0.4088   -1.7830    1.0220 C   0  0  0  0  0  0  0  0  0  0  0  0
   -1.4201   -0.9288    0.6208 O   0  0  0  0  0  0  0  0  0  0  0  0
   -1.5864    0.2047    1.4495 C   0  0  0  0  0  0  0  0  0  0  0  0
   -2.6381    1.0983    0.8361 C   0  0  0  0  0  0  0  0  0  0  0  0
    0.7311   -2.2018   -1.5074 H   0  0  0  0  0  0  0  0  0  0  0  0
   -1.0221   -2.1308   -1.6875 H   0  0  0  0  0  0  0  0  0  0  0  0
   -0.1757   -3.6682   -1.8877 H   0  0  0  0  0  0  0  0  0  0  0  0
    0.4554   -3.6470    0.5342 H   0  0  0  0  0  0  0  0  0  0  0  0
   -1.2878   -3.6008    0.3332 H   0  0  0  0  0  0  0  0  0  0  0  0
    0.7801   -1.1511    0.8462 H   0  0  0  0  0  0  0  0  0  0  0  0
   -0.4393   -1.9858    2.1005 H   0  0  0  0  0  0  0  0  0  0  0  0
   -1.8883   -0.1200    2.4546 H   0  0  0  0  0  0  0  0  0  0  0  0
   -0.6331    0.7372    1.5409 H   0  0  0  0  0  0  0  0  0  0  0  0
   -3.5869    0.5694    0.7392 H   0  0  0  0  0  0  0  0  0  0  0  0
   -2.3255    1.4295   -0.1554 H   0  0  0  0  0  0  0  0  0  0  0  0
   -2.7935    1.9794    1.4605 H   0  0  0  0  0  0  0  0  0  0  0  0
  1  2  1  0
  1  6  1  0
  1  7  1  0
  2  3  1  0
  3  4  1  0
  3  8  1  0
  3  9  1  0
  4  5  1  0
  4 10  1  0
  4 11  1  0
  5 12  1  0
  5 13  1  0
  5 14  1  0
 15 16  1  0
 15 21  1  0
 15 22  1  0
 15 23  1  0
 16 17  1  0
 16 24  1  0
 16 25  1  0
 17 18  1  0
 17 26  1  0
 17 27  1  0
 18 19  1  0
 19 20  1  0
 19 28  1  0
 19 29  1  0
 20 30  1  0
 20 31  1  0
 20 32  1  0
M  RAD  1   1   2
M  END
>  <reaction>  (4) 
rmg_rxn_660

>  <mol_properties>  (4) 
{"0": {"label": "*3", "atom_type": "Cs"}, "1": {"label": "*4", "atom_type": "O2s"}, "16": {"label": "*1", "atom_type": "Cs"}, "17": {"label": "*0", "atom_type": "O2s"}, "25": {"label": "*2", "atom_type": "H0"}}

>  <type>  (4) 
ts

$$$$
