
     RDKit          3D

  7  6  0  0  0  0  0  0  0  0999 V2000
   -0.8548    0.0121    0.2120 C   0  0  0  0  0  0  0  0  0  0  0  0
    0.1921   -0.9637    0.4698 N   0  0  0  0  0  0  0  0  0  0  0  0
    0.8785   -1.2092   -0.5201 N   0  0  0  0  0  0  0  0  0  0  0  0
   -1.8110   -0.4522    0.4600 H   0  0  0  0  0  0  0  0  0  0  0  0
   -0.7101    0.8457    0.9015 H   0  0  0  0  0  0  0  0  0  0  0  0
   -0.8478    0.3585   -0.8239 H   0  0  0  0  0  0  0  0  0  0  0  0
    1.5811   -1.9033   -0.2318 H   0  0  0  0  0  0  0  0  0  0  0  0
  1  2  1  0
  1  4  1  0
  1  5  1  0
  1  6  1  0
  2  3  2  3
  3  7  1  0
M  END
>  <reaction>  (1) 
rmg_rxn_15664

>  <mol_properties>  (1) 
{"2": {"label": "donator", "atom_type": "N3d"}, "6": {"label": "d_hydrogen", "atom_type": "H0"}}

>  <type>  (1) 
r1h

$$$$

     RDKit          3D

  8  7  0  0  0  0  0  0  0  0999 V2000
    1.7077   -0.1964   -0.0607 C   0  0  0  0  0  3  0  0  0  0  0  0
    0.4209   -0.4565    0.2808 O   0  0  0  0  0  0  0  0  0  0  0  0
   -0.4607    0.4385   -0.2968 N   0  0  0  0  0  0  0  0  0  0  0  0
   -1.6584    0.1416   -0.0244 C   0  0  0  0  0  0  0  0  0  0  0  0
    2.4163   -0.7685    0.5170 H   0  0  0  0  0  0  0  0  0  0  0  0
    1.9214    0.7645   -0.5045 H   0  0  0  0  0  0  0  0  0  0  0  0
   -2.4185    0.7953   -0.4307 H   0  0  0  0  0  0  0  0  0  0  0  0
   -1.9286   -0.7185    0.5831 H   0  0  0  0  0  0  0  0  0  0  0  0
  1  2  1  0
  1  5  1  0
  1  6  1  0
  2  3  1  0
  3  4  2  3
  4  7  1  0
  4  8  1  0
M  RAD  1   1   2
M  END
>  <reaction>  (2) 
rmg_rxn_15664

>  <mol_properties>  (2) 
{"0": {"label": "acceptor", "atom_type": "Cs"}}

>  <type>  (2) 
r2

$$$$

     RDKit          3D

  9  8  0  0  0  0  0  0  0  0999 V2000
   -1.5470   -0.0755   -0.1976 C   0  0  0  0  0  0  0  0  0  0  0  0
   -0.2885    0.4507    0.1749 O   0  0  0  0  0  0  0  0  0  0  0  0
   -0.1502    1.7216   -0.3294 N   0  0  0  0  0  0  0  0  0  0  0  0
    0.9626    2.2353   -0.0219 C   0  0  0  0  0  0  0  0  0  0  0  0
   -1.6392   -0.1356   -1.2844 H   0  0  0  0  0  0  0  0  0  0  0  0
   -2.3597    0.5337    0.2044 H   0  0  0  0  0  0  0  0  0  0  0  0
   -1.5879   -1.0750    0.2318 H   0  0  0  0  0  0  0  0  0  0  0  0
    1.1497    3.2381   -0.3820 H   0  0  0  0  0  0  0  0  0  0  0  0
    1.7060    1.7101    0.5739 H   0  0  0  0  0  0  0  0  0  0  0  0
  1  2  1  0
  1  5  1  0
  1  6  1  0
  1  7  1  0
  2  3  1  0
  3  4  2  3
  4  8  1  0
  4  9  1  0
M  END
>  <reaction>  (3) 
rmg_rxn_15664

>  <mol_properties>  (3) 
{"0": {"label": "a_hydrogen", "atom_type": "H0"}, "1": {"label": "acceptor", "atom_type": "Cs"}}

>  <type>  (3) 
r2h

$$$$

     RDKit          3D

 15 13  0  0  0  0  0  0  0  0999 V2000
    0.5255   -0.9095   -3.4642 C   0  0  0  0  0  0  0  0  0  0  0  0
    0.4433   -1.0187   -2.0068 N   0  0  0  0  0  0  0  0  0  0  0  0
   -0.5423   -0.5148   -1.5158 N   0  0  0  0  0  0  0  0  0  0  0  0
    1.4549   -0.3914   -3.7041 H   0  0  0  0  0  0  0  0  0  0  0  0
    0.5947   -1.9203   -3.8683 H   0  0  0  0  0  0  0  0  0  0  0  0
   -0.3330   -0.3812   -3.8841 H   0  0  0  0  0  0  0  0  0  0  0  0
   -0.4580   -0.6865   -0.3598 H   0  0  0  0  0  0  0  0  0  0  0  0
   -0.1319   -0.9920    1.0734 C   0  0  0  0  0  3  0  0  0  0  0  0
   -0.5707    0.0365    1.8724 O   0  0  0  0  0  0  0  0  0  0  0  0
    0.2971    1.1109    1.8280 N   0  0  0  0  0  0  0  0  0  0  0  0
   -0.1509    2.0920    2.4860 C   0  0  0  0  0  0  0  0  0  0  0  0
    0.9502   -1.0868    1.0103 H   0  0  0  0  0  0  0  0  0  0  0  0
   -0.6949   -1.8913    1.3026 H   0  0  0  0  0  0  0  0  0  0  0  0
    0.4720    2.9760    2.5149 H   0  0  0  0  0  0  0  0  0  0  0  0
   -1.1079    2.0667    3.0015 H   0  0  0  0  0  0  0  0  0  0  0  0
  1  2  1  0
  1  4  1  0
  1  5  1  0
  1  6  1  0
  2  3  2  3
  3  7  1  0
  8  9  1  0
  8 12  1  0
  8 13  1  0
  9 10  1  0
 10 11  2  3
 11 14  1  0
 11 15  1  0
M  RAD  1   8   2
M  END
>  <reaction>  (4) 
rmg_rxn_15664

>  <mol_properties>  (4) 
{"1": {"label": "*0", "atom_type": "N3d"}, "2": {"label": "*1", "atom_type": "N3d"}, "6": {"label": "*2", "atom_type": "H0"}, "7": {"label": "*3", "atom_type": "Cs"}, "8": {"label": "*4", "atom_type": "O2s"}}

>  <type>  (4) 
ts

$$$$
