
     RDKit          3D

 15 14  0  0  0  0  0  0  0  0999 V2000
    2.4145    0.0817    0.4065 C   0  0  0  0  0  0  0  0  0  0  0  0
    1.1257   -0.2220   -0.3219 C   0  0  0  0  0  0  0  0  0  0  0  0
    1.0983   -1.5879   -0.6512 O   0  0  0  0  0  0  0  0  0  0  0  0
   -0.0685   -1.9694   -1.3352 C   0  0  0  0  0  0  0  0  0  0  0  0
    0.0024   -3.4478   -1.6403 C   0  0  0  0  0  0  0  0  0  0  0  0
    3.2736   -0.1534   -0.2229 H   0  0  0  0  0  0  0  0  0  0  0  0
    2.4581    1.1389    0.6728 H   0  0  0  0  0  0  0  0  0  0  0  0
    2.4855   -0.5095    1.3201 H   0  0  0  0  0  0  0  0  0  0  0  0
    0.2597    0.0294    0.3083 H   0  0  0  0  0  0  0  0  0  0  0  0
    1.0482    0.3858   -1.2356 H   0  0  0  0  0  0  0  0  0  0  0  0
   -0.9535   -1.7457   -0.7211 H   0  0  0  0  0  0  0  0  0  0  0  0
   -0.1650   -1.3894   -2.2650 H   0  0  0  0  0  0  0  0  0  0  0  0
    0.0831   -4.0247   -0.7183 H   0  0  0  0  0  0  0  0  0  0  0  0
   -0.8950   -3.7674   -2.1724 H   0  0  0  0  0  0  0  0  0  0  0  0
    0.8712   -3.6686   -2.2613 H   0  0  0  0  0  0  0  0  0  0  0  0
  1  2  1  0
  1  6  1  0
  1  7  1  0
  1  8  1  0
  2  3  1  0
  2  9  1  0
  2 10  1  0
  3  4  1  0
  4  5  1  0
  4 11  1  0
  4 12  1  0
  5 13  1  0
  5 14  1  0
  5 15  1  0
M  END
>  <reaction>  (1) 
rmg_rxn_647

>  <mol_properties>  (1) 
{"0": {"label": "donator", "atom_type": "Cs"}, "5": {"label": "d_hydrogen", "atom_type": "H0"}}

>  <type>  (1) 
r1h

$$$$

     RDKit          3D

  8  7  0  0  0  0  0  0  0  0999 V2000
    1.3778   -0.6812    0.2772 C   0  0  0  0  0  3  0  0  0  0  0  0
    0.4890    0.2108   -0.0590 C   0  0  0  0  0  0  0  0  0  0  0  0
   -1.0010    0.0286   -0.0323 C   0  0  0  0  0  0  0  0  0  0  0  0
    2.4535   -0.7507    0.3287 H   0  0  0  0  0  0  0  0  0  0  0  0
    0.8447    1.1899   -0.3945 H   0  0  0  0  0  0  0  0  0  0  0  0
   -1.4635    0.7638    0.6301 H   0  0  0  0  0  0  0  0  0  0  0  0
   -1.2709   -0.9687    0.3117 H   0  0  0  0  0  0  0  0  0  0  0  0
   -1.4218    0.1801   -1.0289 H   0  0  0  0  0  0  0  0  0  0  0  0
  1  2  2  3
  1  4  1  0
  2  3  1  0
  2  5  1  0
  3  6  1  0
  3  7  1  0
  3  8  1  0
M  RAD  1   1   2
M  END
>  <reaction>  (2) 
rmg_rxn_647

>  <mol_properties>  (2) 
{"0": {"label": "acceptor", "atom_type": "Cd"}}

>  <type>  (2) 
r2

$$$$

     RDKit          3D

  9  8  0  0  0  0  0  0  0  0999 V2000
    1.1303   -0.2933   -0.7510 C   0  0  0  0  0  0  0  0  0  0  0  0
    0.2866    0.4560   -0.0588 C   0  0  0  0  0  0  0  0  0  0  0  0
   -0.9719   -0.0331    0.5823 C   0  0  0  0  0  0  0  0  0  0  0  0
    2.0274    0.1230   -1.1916 H   0  0  0  0  0  0  0  0  0  0  0  0
    0.9532   -1.3530   -0.9023 H   0  0  0  0  0  0  0  0  0  0  0  0
    0.5065    1.5132    0.0659 H   0  0  0  0  0  0  0  0  0  0  0  0
   -0.9526    0.1426    1.6610 H   0  0  0  0  0  0  0  0  0  0  0  0
   -1.1182   -1.1002    0.4106 H   0  0  0  0  0  0  0  0  0  0  0  0
   -1.8412    0.5010    0.1901 H   0  0  0  0  0  0  0  0  0  0  0  0
  1  2  2  3
  1  4  1  0
  1  5  1  0
  2  3  1  0
  2  6  1  0
  3  7  1  0
  3  8  1  0
  3  9  1  0
M  END
>  <reaction>  (3) 
rmg_rxn_647

>  <mol_properties>  (3) 
{"0": {"label": "acceptor", "atom_type": "Cd"}, "8": {"label": "a_hydrogen", "atom_type": "H0"}}

>  <type>  (3) 
r2h

$$$$

     RDKit          3D

 23 21  0  0  0  0  0  0  0  0999 V2000
   -1.0640    1.8917    0.9140 C   0  0  0  0  0  3  0  0  0  0  0  0
   -1.5513    1.3924   -0.2009 C   0  0  0  0  0  0  0  0  0  0  0  0
   -2.8822    1.7422   -0.8001 C   0  0  0  0  0  0  0  0  0  0  0  0
   -1.5213    2.6199    1.5761 H   0  0  0  0  0  0  0  0  0  0  0  0
   -0.9473    0.6671   -0.7429 H   0  0  0  0  0  0  0  0  0  0  0  0
   -2.7541    2.1536   -1.8045 H   0  0  0  0  0  0  0  0  0  0  0  0
   -3.4166    2.4737   -0.1933 H   0  0  0  0  0  0  0  0  0  0  0  0
   -3.5069    0.8504   -0.8963 H   0  0  0  0  0  0  0  0  0  0  0  0
    1.3020    0.8763    1.6242 C   0  0  0  0  0  0  0  0  0  0  0  0
    1.1931   -0.5797    1.2865 C   0  0  0  0  0  0  0  0  0  0  0  0
    1.0982   -0.7263   -0.1094 O   0  0  0  0  0  0  0  0  0  0  0  0
    0.9301   -2.0613   -0.5161 C   0  0  0  0  0  0  0  0  0  0  0  0
    0.8268   -2.1035   -2.0231 C   0  0  0  0  0  0  0  0  0  0  0  0
    0.1817    1.4295    1.3032 H   0  0  0  0  0  0  0  0  0  0  0  0
    1.4008    1.0597    2.6929 H   0  0  0  0  0  0  0  0  0  0  0  0
    2.0618    1.4007    1.0477 H   0  0  0  0  0  0  0  0  0  0  0  0
    2.0714   -1.1326    1.6585 H   0  0  0  0  0  0  0  0  0  0  0  0
    0.3080   -1.0163    1.7730 H   0  0  0  0  0  0  0  0  0  0  0  0
    1.7800   -2.6684   -0.1713 H   0  0  0  0  0  0  0  0  0  0  0  0
    0.0236   -2.4813   -0.0562 H   0  0  0  0  0  0  0  0  0  0  0  0
    1.7280   -1.6932   -2.4798 H   0  0  0  0  0  0  0  0  0  0  0  0
    0.7011   -3.1319   -2.3650 H   0  0  0  0  0  0  0  0  0  0  0  0
   -0.0284   -1.5189   -2.3651 H   0  0  0  0  0  0  0  0  0  0  0  0
  1  2  2  3
  1  4  1  0
  2  3  1  0
  2  5  1  0
  3  6  1  0
  3  7  1  0
  3  8  1  0
  9 10  1  0
  9 14  1  0
  9 15  1  0
  9 16  1  0
 10 11  1  0
 10 17  1  0
 10 18  1  0
 11 12  1  0
 12 13  1  0
 12 19  1  0
 12 20  1  0
 13 21  1  0
 13 22  1  0
 13 23  1  0
M  RAD  1   1   2
M  END
>  <reaction>  (4) 
rmg_rxn_647

>  <mol_properties>  (4) 
{"0": {"label": "*3", "atom_type": "Cd"}, "1": {"label": "*4", "atom_type": "Cd"}, "8": {"label": "*1", "atom_type": "Cs"}, "9": {"label": "*0", "atom_type": "Cs"}, "13": {"label": "*2", "atom_type": "H0"}}

>  <type>  (4) 
ts

$$$$
