
     RDKit          3D

 13 12  0  0  0  0  0  0  0  0999 V2000
   -1.8029   -0.2987    1.0940 C   0  0  0  0  0  0  0  0  0  0  0  0
   -0.9419    0.5805    0.2019 C   0  0  0  0  0  0  0  0  0  0  0  0
    0.3779   -0.0155   -0.1765 C   0  0  0  0  0  0  0  0  0  0  0  0
    0.7319   -1.1672    0.2072 N   0  0  0  0  0  0  0  0  0  0  0  0
    1.9284   -1.6649   -0.2437 N   0  0  0  0  0  0  0  0  0  0  0  0
   -1.2933   -0.5224    2.0314 H   0  0  0  0  0  0  0  0  0  0  0  0
   -2.0225   -1.2499    0.6092 H   0  0  0  0  0  0  0  0  0  0  0  0
   -2.7454    0.2007    1.3226 H   0  0  0  0  0  0  0  0  0  0  0  0
   -1.4810    0.8240   -0.7207 H   0  0  0  0  0  0  0  0  0  0  0  0
   -0.7543    1.5445    0.6880 H   0  0  0  0  0  0  0  0  0  0  0  0
    1.0313    0.5912   -0.8170 H   0  0  0  0  0  0  0  0  0  0  0  0
    2.2863   -2.3390    0.4129 H   0  0  0  0  0  0  0  0  0  0  0  0
    2.6214   -0.9567   -0.4648 H   0  0  0  0  0  0  0  0  0  0  0  0
  1  2  1  0
  1  6  1  0
  1  7  1  0
  1  8  1  0
  2  3  1  0
  2  9  1  0
  2 10  1  0
  3  4  2  3
  3 11  1  0
  4  5  1  0
  5 12  1  0
  5 13  1  0
M  END
>  <reaction>  (1) 
rmg_rxn_15509

>  <mol_properties>  (1) 
{"1": {"label": "donator", "atom_type": "Cs"}, "8": {"label": "d_hydrogen", "atom_type": "H0"}}

>  <type>  (1) 
r1h

$$$$

     RDKit          3D

  5  4  0  0  0  0  0  0  0  0999 V2000
    0.8934    0.3742    0.4948 O   0  0  0  0  0  0  0  0  0  0  0  0
    0.1582   -0.1610   -0.5904 N   0  0  0  0  0  0  0  0  0  0  0  0
   -1.0297   -0.3739   -0.4689 C   0  0  0  0  0  3  0  0  0  0  0  0
    1.7804    0.4382    0.1306 H   0  0  0  0  0  0  0  0  0  0  0  0
   -1.8023   -0.2775    0.2859 H   0  0  0  0  0  0  0  0  0  0  0  0
  1  2  1  0
  1  4  1  0
  2  3  2  3
  3  5  1  0
M  RAD  1   3   2
M  END
>  <reaction>  (2) 
rmg_rxn_15509

>  <mol_properties>  (2) 
{"2": {"label": "acceptor", "atom_type": "Cd"}}

>  <type>  (2) 
r2

$$$$

     RDKit          3D

  6  5  0  0  0  0  0  0  0  0999 V2000
    1.2314    0.0428    0.5088 O   0  0  0  0  0  0  0  0  0  0  0  0
    0.2987    0.2341   -0.4915 N   0  0  0  0  0  0  0  0  0  0  0  0
   -0.8599   -0.1122   -0.1290 C   0  0  0  0  0  0  0  0  0  0  0  0
    2.0507    0.3401    0.1082 H   0  0  0  0  0  0  0  0  0  0  0  0
   -1.0700   -0.5112    0.8610 H   0  0  0  0  0  0  0  0  0  0  0  0
   -1.6509    0.0064   -0.8574 H   0  0  0  0  0  0  0  0  0  0  0  0
  1  2  1  0
  1  4  1  0
  2  3  2  3
  3  5  1  0
  3  6  1  0
M  END
>  <reaction>  (3) 
rmg_rxn_15509

>  <mol_properties>  (3) 
{"2": {"label": "acceptor", "atom_type": "Cd"}, "5": {"label": "a_hydrogen", "atom_type": "H0"}}

>  <type>  (3) 
r2h

$$$$

     RDKit          3D

 18 16  0  0  0  0  0  0  0  0999 V2000
   -2.5409   -3.0878    0.6678 O   0  0  0  0  0  0  0  0  0  0  0  0
   -1.3102   -2.4650    0.3972 N   0  0  0  0  0  0  0  0  0  0  0  0
   -1.3523   -1.2288    0.3534 C   0  0  0  0  0  3  0  0  0  0  0  0
   -2.3100   -4.0197    0.6592 H   0  0  0  0  0  0  0  0  0  0  0  0
   -2.1947   -0.5517    0.4896 H   0  0  0  0  0  0  0  0  0  0  0  0
    0.9859    0.0099   -1.8111 C   0  0  0  0  0  0  0  0  0  0  0  0
    1.0765   -0.1475   -0.3112 C   0  0  0  0  0  0  0  0  0  0  0  0
    1.3099    1.0721    0.4791 C   0  0  0  0  0  0  0  0  0  0  0  0
    1.1738    2.2331   -0.0227 N   0  0  0  0  0  0  0  0  0  0  0  0
    1.3050    3.3117    0.8023 N   0  0  0  0  0  0  0  0  0  0  0  0
    1.9378    0.3503   -2.2244 H   0  0  0  0  0  0  0  0  0  0  0  0
    0.2314    0.7485   -2.0804 H   0  0  0  0  0  0  0  0  0  0  0  0
    0.7273   -0.9419   -2.2760 H   0  0  0  0  0  0  0  0  0  0  0  0
    0.0007   -0.5912    0.0513 H   0  0  0  0  0  0  0  0  0  0  0  0
    1.7465   -0.9531   -0.0045 H   0  0  0  0  0  0  0  0  0  0  0  0
    1.5628    0.9443    1.5386 H   0  0  0  0  0  0  0  0  0  0  0  0
    1.5813    4.1252    0.2781 H   0  0  0  0  0  0  0  0  0  0  0  0
    1.8895    3.1631    1.6186 H   0  0  0  0  0  0  0  0  0  0  0  0
  1  2  1  0
  1  4  1  0
  2  3  2  3
  3  5  1  0
  6  7  1  0
  6 11  1  0
  6 12  1  0
  6 13  1  0
  7  8  1  0
  7 14  1  0
  7 15  1  0
  8  9  2  3
  8 16  1  0
  9 10  1  0
 10 17  1  0
 10 18  1  0
M  RAD  1   3   2
M  END
>  <reaction>  (4) 
rmg_rxn_15509

>  <mol_properties>  (4) 
{"1": {"label": "*4", "atom_type": "N3d"}, "2": {"label": "*3", "atom_type": "Cd"}, "6": {"label": "*1", "atom_type": "Cs"}, "7": {"label": "*0", "atom_type": "Cd"}, "13": {"label": "*2", "atom_type": "H0"}}

>  <type>  (4) 
ts

$$$$
