
     RDKit          3D

 10  9  0  0  0  0  0  0  0  0999 V2000
    2.0403   -0.0570    0.0110 C   0  0  0  0  0  0  0  0  0  0  0  0
    0.5945   -0.0162    0.1892 C   0  0  0  0  0  0  0  0  0  0  0  0
   -0.5945    0.0174    0.3357 C   0  0  0  0  0  0  0  0  0  0  0  0
   -2.0403    0.0580    0.5138 C   0  0  0  0  0  0  0  0  0  0  0  0
    2.4767    0.9348    0.1407 H   0  0  0  0  0  0  0  0  0  0  0  0
    2.2995   -0.4116   -0.9880 H   0  0  0  0  0  0  0  0  0  0  0  0
    2.5033   -0.7269    0.7375 H   0  0  0  0  0  0  0  0  0  0  0  0
   -2.3766    1.0716    0.7385 H   0  0  0  0  0  0  0  0  0  0  0  0
   -2.3497   -0.5900    1.3355 H   0  0  0  0  0  0  0  0  0  0  0  0
   -2.5533   -0.2750   -0.3901 H   0  0  0  0  0  0  0  0  0  0  0  0
  1  2  1  0
  1  5  1  0
  1  6  1  0
  1  7  1  0
  2  3  3  0
  3  4  1  0
  4  8  1  0
  4  9  1  0
  4 10  1  0
M  END
>  <reaction>  (1) 
rmg_rxn_39

>  <mol_properties>  (1) 
{"3": {"label": "donator", "atom_type": "Cs"}, "9": {"label": "d_hydrogen", "atom_type": "H0"}}

>  <type>  (1) 
r1h

$$$$

     RDKit          3D

 13 13  0  0  0  0  0  0  0  0999 V2000
    0.5794    1.5990    0.2108 C   0  0  0  0  0  3  0  0  0  0  0  0
    1.4528    0.6621   -0.2496 O   0  0  0  0  0  0  0  0  0  0  0  0
    1.0751   -0.6763    0.0423 C   0  0  0  0  0  0  0  0  0  0  0  0
   -0.3579   -0.9282   -0.3924 C   0  0  0  0  0  0  0  0  0  0  0  0
   -1.2426    0.1393    0.2269 C   0  0  0  0  0  0  0  0  0  0  0  0
   -0.7410    1.4341   -0.0749 O   0  0  0  0  0  0  0  0  0  0  0  0
    0.9183    2.6078    0.0084 H   0  0  0  0  0  0  0  0  0  0  0  0
    1.1839   -0.8508    1.1199 H   0  0  0  0  0  0  0  0  0  0  0  0
    1.7816   -1.3130   -0.4874 H   0  0  0  0  0  0  0  0  0  0  0  0
   -0.6818   -1.9210   -0.0736 H   0  0  0  0  0  0  0  0  0  0  0  0
   -0.4271   -0.8785   -1.4810 H   0  0  0  0  0  0  0  0  0  0  0  0
   -1.2832    0.0173    1.3164 H   0  0  0  0  0  0  0  0  0  0  0  0
   -2.2575    0.1083   -0.1657 H   0  0  0  0  0  0  0  0  0  0  0  0
  1  2  1  0
  1  6  1  0
  1  7  1  0
  2  3  1  0
  3  4  1  0
  3  8  1  0
  3  9  1  0
  4  5  1  0
  4 10  1  0
  4 11  1  0
  5  6  1  0
  5 12  1  0
  5 13  1  0
M  RAD  1   1   2
M  END
>  <reaction>  (2) 
rmg_rxn_39

>  <mol_properties>  (2) 
{"0": {"label": "acceptor", "atom_type": "Cs"}}

>  <type>  (2) 
r2

$$$$

     RDKit          3D

 14 14  0  0  0  0  0  0  0  0999 V2000
   -1.1778    0.2241    0.1818 C   0  0  0  0  0  0  0  0  0  0  0  0
   -0.5633   -1.1636    0.0678 C   0  0  0  0  0  0  0  0  0  0  0  0
    0.6943   -1.1996    0.7146 O   0  0  0  0  0  0  0  0  0  0  0  0
    1.5547   -0.2288    0.2011 C   0  0  0  0  0  0  0  0  0  0  0  0
    1.0729    1.0696    0.3698 O   0  0  0  0  0  0  0  0  0  0  0  0
   -0.1607    1.2493   -0.2989 C   0  0  0  0  0  0  0  0  0  0  0  0
   -2.0927    0.2866   -0.4117 H   0  0  0  0  0  0  0  0  0  0  0  0
   -1.4303    0.4248    1.2248 H   0  0  0  0  0  0  0  0  0  0  0  0
   -1.1822   -1.9235    0.5431 H   0  0  0  0  0  0  0  0  0  0  0  0
   -0.4389   -1.4347   -0.9919 H   0  0  0  0  0  0  0  0  0  0  0  0
    1.7250   -0.4207   -0.8742 H   0  0  0  0  0  0  0  0  0  0  0  0
    2.4896   -0.3010    0.7524 H   0  0  0  0  0  0  0  0  0  0  0  0
   -0.0080    1.1481   -1.3844 H   0  0  0  0  0  0  0  0  0  0  0  0
   -0.4826    2.2695   -0.0942 H   0  0  0  0  0  0  0  0  0  0  0  0
  1  2  1  0
  1  6  1  0
  1  7  1  0
  1  8  1  0
  2  3  1  0
  2  9  1  0
  2 10  1  0
  3  4  1  0
  4  5  1  0
  4 11  1  0
  4 12  1  0
  5  6  1  0
  6 13  1  0
  6 14  1  0
M  END
>  <reaction>  (3) 
rmg_rxn_39

>  <mol_properties>  (3) 
{"0": {"label": "a_hydrogen", "atom_type": "H0"}, "1": {"label": "acceptor", "atom_type": "Cs"}}

>  <type>  (3) 
r2h

$$$$

     RDKit          3D

 23 22  0  0  0  0  0  0  0  0999 V2000
    3.3229    2.2120   -2.8080 C   0  0  0  0  0  0  0  0  0  0  0  0
    1.9632    1.9559   -2.3541 C   0  0  0  0  0  0  0  0  0  0  0  0
    0.8332    1.7572   -1.9913 C   0  0  0  0  0  0  0  0  0  0  0  0
   -0.4822    1.4747   -1.5145 C   0  0  0  0  0  0  0  0  0  0  0  0
    4.0518    1.8796   -2.0662 H   0  0  0  0  0  0  0  0  0  0  0  0
    3.4823    3.2782   -2.9800 H   0  0  0  0  0  0  0  0  0  0  0  0
    3.5281    1.6850   -3.7414 H   0  0  0  0  0  0  0  0  0  0  0  0
   -1.1347    0.9946   -2.2411 H   0  0  0  0  0  0  0  0  0  0  0  0
   -0.9708    2.3067   -1.0113 H   0  0  0  0  0  0  0  0  0  0  0  0
   -0.3904    0.5841   -0.5779 H   0  0  0  0  0  0  0  0  0  0  0  0
   -0.4007   -0.3736    0.4332 C   0  0  0  0  0  3  0  0  0  0  0  0
   -0.9723    0.2603    1.5089 O   0  0  0  0  0  0  0  0  0  0  0  0
   -1.2295   -0.6309    2.5886 C   0  0  0  0  0  0  0  0  0  0  0  0
   -2.0733   -1.8015    2.1111 C   0  0  0  0  0  0  0  0  0  0  0  0
   -1.4077   -2.4169    0.8908 C   0  0  0  0  0  0  0  0  0  0  0  0
   -1.1394   -1.4111   -0.0799 O   0  0  0  0  0  0  0  0  0  0  0  0
    0.6566   -0.6356    0.5975 H   0  0  0  0  0  0  0  0  0  0  0  0
   -0.2741   -0.9899    2.9969 H   0  0  0  0  0  0  0  0  0  0  0  0
   -1.7346   -0.0471    3.3566 H   0  0  0  0  0  0  0  0  0  0  0  0
   -2.1750   -2.5454    2.9044 H   0  0  0  0  0  0  0  0  0  0  0  0
   -3.0703   -1.4470    1.8426 H   0  0  0  0  0  0  0  0  0  0  0  0
   -2.0445   -3.1537    0.4037 H   0  0  0  0  0  0  0  0  0  0  0  0
   -0.4652   -2.9058    1.1754 H   0  0  0  0  0  0  0  0  0  0  0  0
  1  2  1  0
  1  5  1  0
  1  6  1  0
  1  7  1  0
  2  3  3  0
  3  4  1  0
  4  8  1  0
  4  9  1  0
  4 10  1  0
 11 12  1  0
 11 16  1  0
 11 17  1  0
 12 13  1  0
 13 14  1  0
 13 18  1  0
 13 19  1  0
 14 15  1  0
 14 20  1  0
 14 21  1  0
 15 16  1  0
 15 22  1  0
 15 23  1  0
M  RAD  1  11   2
M  END
>  <reaction>  (4) 
rmg_rxn_39

>  <mol_properties>  (4) 
{"2": {"label": "*0", "atom_type": "Ct"}, "3": {"label": "*1", "atom_type": "Cs"}, "9": {"label": "*2", "atom_type": "H0"}, "10": {"label": "*3", "atom_type": "Cs"}, "11": {"label": "*4", "atom_type": "O2s"}}

>  <type>  (4) 
ts

$$$$
