
     RDKit          3D

  6  5  0  0  0  0  0  0  0  0999 V2000
   -0.4901    0.0045    0.0014 C   0  0  0  0  0  0  0  0  0  0  0  0
    0.9645   -0.0089   -0.0027 C   0  0  0  0  0  0  0  0  0  0  0  0
    2.1108   -0.0195   -0.0059 N   0  0  0  0  0  0  0  0  0  0  0  0
   -0.8700   -0.6407   -0.7900 H   0  0  0  0  0  0  0  0  0  0  0  0
   -0.8625   -0.3540    0.9604 H   0  0  0  0  0  0  0  0  0  0  0  0
   -0.8530    1.0185   -0.1631 H   0  0  0  0  0  0  0  0  0  0  0  0
  1  2  1  0
  1  4  1  0
  1  5  1  0
  1  6  1  0
  2  3  3  0
M  END
>  <reaction>  (1) 
rmg_rxn_387

>  <mol_properties>  (1) 
{"0": {"label": "donator", "atom_type": "Cs"}, "3": {"label": "d_hydrogen", "atom_type": "H0"}}

>  <type>  (1) 
r1h

$$$$

     RDKit          3D

  8  7  0  0  0  0  0  0  0  0999 V2000
   -0.7831    0.1170   -0.1002 C   0  0  0  0  0  0  0  0  0  0  0  0
    0.7183   -0.0910    0.0020 C   0  0  0  0  0  0  0  0  0  0  0  0
    1.2838   -0.8149   -0.9975 O   0  0  0  0  0  1  0  0  0  0  0  0
   -1.3006   -0.8429   -0.1003 H   0  0  0  0  0  0  0  0  0  0  0  0
   -1.1489    0.7073    0.7424 H   0  0  0  0  0  0  0  0  0  0  0  0
   -1.0322    0.6411   -1.0235 H   0  0  0  0  0  0  0  0  0  0  0  0
    1.2602    0.8720    0.0516 H   0  0  0  0  0  0  0  0  0  0  0  0
    0.9978   -0.5790    0.9544 H   0  0  0  0  0  0  0  0  0  0  0  0
  1  2  1  0
  1  4  1  0
  1  5  1  0
  1  6  1  0
  2  3  1  0
  2  7  1  0
  2  8  1  0
M  RAD  1   3   2
M  END
>  <reaction>  (2) 
rmg_rxn_387

>  <mol_properties>  (2) 
{"2": {"label": "acceptor", "atom_type": "O2s"}}

>  <type>  (2) 
r2

$$$$

     RDKit          3D

  9  8  0  0  0  0  0  0  0  0999 V2000
   -0.9895    0.3048    0.1041 C   0  0  0  0  0  0  0  0  0  0  0  0
    0.3761   -0.3562    0.0721 C   0  0  0  0  0  0  0  0  0  0  0  0
    0.3441   -1.6564   -0.4834 O   0  0  0  0  0  0  0  0  0  0  0  0
   -1.6997   -0.3114    0.6572 H   0  0  0  0  0  0  0  0  0  0  0  0
   -0.9320    1.2848    0.5822 H   0  0  0  0  0  0  0  0  0  0  0  0
   -1.3774    0.4507   -0.9077 H   0  0  0  0  0  0  0  0  0  0  0  0
    0.7581   -0.4813    1.0862 H   0  0  0  0  0  0  0  0  0  0  0  0
    1.0900    0.2787   -0.4681 H   0  0  0  0  0  0  0  0  0  0  0  0
    0.0089   -1.5959   -1.3792 H   0  0  0  0  0  0  0  0  0  0  0  0
  1  2  1  0
  1  4  1  0
  1  5  1  0
  1  6  1  0
  2  3  1  0
  2  7  1  0
  2  8  1  0
  3  9  1  0
M  END
>  <reaction>  (3) 
rmg_rxn_387

>  <mol_properties>  (3) 
{"0": {"label": "a_hydrogen", "atom_type": "H0"}, "3": {"label": "acceptor", "atom_type": "O2s"}}

>  <type>  (3) 
r2h

$$$$

     RDKit          3D

 14 12  0  0  0  0  0  0  0  0999 V2000
    1.0634    1.1644    0.6812 C   0  0  0  0  0  0  0  0  0  0  0  0
    0.7212    1.4373   -0.6756 C   0  0  0  0  0  0  0  0  0  0  0  0
    0.3993    1.6158   -1.7664 N   0  0  0  0  0  2  0  0  0  0  0  0
    0.1488    0.3866    1.1437 H   0  0  0  0  0  0  0  0  0  0  0  0
    1.9829    0.5972    0.7955 H   0  0  0  0  0  0  0  0  0  0  0  0
    1.0019    2.0322    1.3322 H   0  0  0  0  0  0  0  0  0  0  0  0
   -0.4856   -1.9662   -0.3298 C   0  0  0  0  0  0  0  0  0  0  0  0
   -1.3335   -0.8739    0.2928 C   0  0  0  0  0  0  0  0  0  0  0  0
   -0.7870   -0.3243    1.4525 O   0  0  0  0  0  0  0  0  0  0  0  0
   -0.2745   -2.7498    0.3986 H   0  0  0  0  0  0  0  0  0  0  0  0
   -1.0006   -2.4091   -1.1840 H   0  0  0  0  0  0  0  0  0  0  0  0
    0.4623   -1.5597   -0.6883 H   0  0  0  0  0  0  0  0  0  0  0  0
   -1.5631   -0.0871   -0.4394 H   0  0  0  0  0  0  0  0  0  0  0  0
   -2.3054   -1.2711    0.6160 H   0  0  0  0  0  0  0  0  0  0  0  0
  1  2  2  0
  1  5  1  0
  1  6  1  0
  2  3  2  0
  4  9  1  0
  7  8  1  0
  7 10  1  0
  7 11  1  0
  7 12  1  0
  8  9  1  0
  8 13  1  0
  8 14  1  0
M  RAD  1   3   2
M  END
>  <reaction>  (4) 
rmg_rxn_387

>  <mol_properties>  (4) 
{"0": {"label": "*3", "atom_type": "Cd"}, "1": {"label": "*4", "atom_type": "Cdd"}, "3": {"label": "*2", "atom_type": "H0"}, "7": {"label": "*0", "atom_type": "Cs"}, "8": {"label": "*1", "atom_type": "O2s"}}

>  <type>  (4) 
ts

$$$$
