
     RDKit          3D

  9  8  0  0  0  0  0  0  0  0999 V2000
   -1.5470   -0.0755   -0.1976 C   0  0  0  0  0  0  0  0  0  0  0  0
   -0.2885    0.4507    0.1749 O   0  0  0  0  0  0  0  0  0  0  0  0
   -0.1502    1.7216   -0.3294 N   0  0  0  0  0  0  0  0  0  0  0  0
    0.9626    2.2353   -0.0219 C   0  0  0  0  0  0  0  0  0  0  0  0
   -1.6392   -0.1356   -1.2844 H   0  0  0  0  0  0  0  0  0  0  0  0
   -2.3597    0.5337    0.2044 H   0  0  0  0  0  0  0  0  0  0  0  0
   -1.5879   -1.0750    0.2318 H   0  0  0  0  0  0  0  0  0  0  0  0
    1.1497    3.2381   -0.3820 H   0  0  0  0  0  0  0  0  0  0  0  0
    1.7060    1.7101    0.5739 H   0  0  0  0  0  0  0  0  0  0  0  0
  1  2  1  0
  1  5  1  0
  1  6  1  0
  1  7  1  0
  2  3  1  0
  3  4  2  3
  4  8  1  0
  4  9  1  0
M  END
>  <reaction>  (1) 
rmg_rxn_15672

>  <mol_properties>  (1) 
{"0": {"label": "donator", "atom_type": "Cs"}, "4": {"label": "d_hydrogen", "atom_type": "H0"}}

>  <type>  (1) 
r1h

$$$$

     RDKit          3D

  9  8  0  0  0  0  0  0  0  0999 V2000
   -1.2868    0.1766    0.0689 C   0  0  0  0  0  3  0  0  0  0  0  0
    0.0524   -0.4053   -0.2125 C   0  0  0  0  0  0  0  0  0  0  0  0
    0.4381   -0.4743   -1.6185 N   0  0  0  0  0  0  0  0  0  0  0  0
   -2.0993    0.0348   -0.6334 H   0  0  0  0  0  0  0  0  0  0  0  0
   -1.5107    0.6312    1.0255 H   0  0  0  0  0  0  0  0  0  0  0  0
    0.1170   -1.4256    0.1926 H   0  0  0  0  0  0  0  0  0  0  0  0
    0.8199    0.1594    0.3261 H   0  0  0  0  0  0  0  0  0  0  0  0
   -0.1822   -1.0926   -2.1251 H   0  0  0  0  0  0  0  0  0  0  0  0
    0.3552    0.4394   -2.0455 H   0  0  0  0  0  0  0  0  0  0  0  0
  1  2  1  0
  1  4  1  0
  1  5  1  0
  2  3  1  0
  2  6  1  0
  2  7  1  0
  3  8  1  0
  3  9  1  0
M  RAD  1   1   2
M  END
>  <reaction>  (2) 
rmg_rxn_15672

>  <mol_properties>  (2) 
{"0": {"label": "acceptor", "atom_type": "Cs"}}

>  <type>  (2) 
r2

$$$$

     RDKit          3D

 10  9  0  0  0  0  0  0  0  0999 V2000
   -1.1906   -0.0419   -0.0385 C   0  0  0  0  0  0  0  0  0  0  0  0
    0.2513    0.4500    0.0348 C   0  0  0  0  0  0  0  0  0  0  0  0
    1.2500   -0.5694    0.3278 N   0  0  0  0  0  0  0  0  0  0  0  0
   -1.4965   -0.4905    0.9100 H   0  0  0  0  0  0  0  0  0  0  0  0
   -1.3035   -0.7985   -0.8190 H   0  0  0  0  0  0  0  0  0  0  0  0
   -1.8789    0.7769   -0.2612 H   0  0  0  0  0  0  0  0  0  0  0  0
    0.3352    1.2278    0.7979 H   0  0  0  0  0  0  0  0  0  0  0  0
    0.5259    0.9233   -0.9113 H   0  0  0  0  0  0  0  0  0  0  0  0
    1.2298   -1.2971   -0.3752 H   0  0  0  0  0  0  0  0  0  0  0  0
    1.0523   -1.0138    1.2153 H   0  0  0  0  0  0  0  0  0  0  0  0
  1  2  1  0
  1  4  1  0
  1  5  1  0
  1  6  1  0
  2  3  1  0
  2  7  1  0
  2  8  1  0
  3  9  1  0
  3 10  1  0
M  END
>  <reaction>  (3) 
rmg_rxn_15672

>  <mol_properties>  (3) 
{"0": {"label": "a_hydrogen", "atom_type": "H0"}, "1": {"label": "acceptor", "atom_type": "Cs"}}

>  <type>  (3) 
r2h

$$$$

     RDKit          3D

 18 16  0  0  0  0  0  0  0  0999 V2000
   -1.1876    0.9036    1.0174 C   0  0  0  0  0  0  0  0  0  0  0  0
   -1.1084    1.2242   -0.3353 O   0  0  0  0  0  0  0  0  0  0  0  0
   -1.0473    0.0828   -1.1016 N   0  0  0  0  0  0  0  0  0  0  0  0
   -0.9252    0.3414   -2.3323 C   0  0  0  0  0  0  0  0  0  0  0  0
    0.0038    0.4827    1.4431 H   0  0  0  0  0  0  0  0  0  0  0  0
   -1.8889    0.0941    1.2204 H   0  0  0  0  0  0  0  0  0  0  0  0
   -1.4014    1.8186    1.5635 H   0  0  0  0  0  0  0  0  0  0  0  0
   -0.8694   -0.5074   -3.0003 H   0  0  0  0  0  0  0  0  0  0  0  0
   -0.8754    1.3581   -2.7145 H   0  0  0  0  0  0  0  0  0  0  0  0
    1.2603    0.0647    1.8011 C   0  0  0  0  0  3  0  0  0  0  0  0
    1.8356   -0.6850    0.6231 C   0  0  0  0  0  0  0  0  0  0  0  0
    1.1244   -1.8906    0.2251 N   0  0  0  0  0  0  0  0  0  0  0  0
    1.0816   -0.5505    2.6840 H   0  0  0  0  0  0  0  0  0  0  0  0
    1.7740    0.9933    2.0508 H   0  0  0  0  0  0  0  0  0  0  0  0
    2.8754   -0.9596    0.8401 H   0  0  0  0  0  0  0  0  0  0  0  0
    1.8804   -0.0213   -0.2448 H   0  0  0  0  0  0  0  0  0  0  0  0
    1.0356   -2.5251    1.0082 H   0  0  0  0  0  0  0  0  0  0  0  0
    0.1897   -1.6491   -0.0835 H   0  0  0  0  0  0  0  0  0  0  0  0
  1  2  1  0
  1  5  1  0
  1  6  1  0
  1  7  1  0
  2  3  1  0
  3  4  2  3
  4  8  1  0
  4  9  1  0
 10 11  1  0
 10 13  1  0
 10 14  1  0
 11 12  1  0
 11 15  1  0
 11 16  1  0
 12 17  1  0
 12 18  1  0
M  RAD  1  10   2
M  END
>  <reaction>  (4) 
rmg_rxn_15672

>  <mol_properties>  (4) 
{"0": {"label": "*1", "atom_type": "Cs"}, "1": {"label": "*0", "atom_type": "O2s"}, "4": {"label": "*2", "atom_type": "H0"}, "9": {"label": "*3", "atom_type": "Cs"}, "10": {"label": "*4", "atom_type": "Cs"}}

>  <type>  (4) 
ts

$$$$
