
     RDKit          3D

  9  8  0  0  0  0  0  0  0  0999 V2000
   -1.5470   -0.0755   -0.1976 C   0  0  0  0  0  0  0  0  0  0  0  0
   -0.2885    0.4507    0.1749 O   0  0  0  0  0  0  0  0  0  0  0  0
   -0.1502    1.7216   -0.3294 N   0  0  0  0  0  0  0  0  0  0  0  0
    0.9626    2.2353   -0.0219 C   0  0  0  0  0  0  0  0  0  0  0  0
   -1.6392   -0.1356   -1.2844 H   0  0  0  0  0  0  0  0  0  0  0  0
   -2.3597    0.5337    0.2044 H   0  0  0  0  0  0  0  0  0  0  0  0
   -1.5879   -1.0750    0.2318 H   0  0  0  0  0  0  0  0  0  0  0  0
    1.1497    3.2381   -0.3820 H   0  0  0  0  0  0  0  0  0  0  0  0
    1.7060    1.7101    0.5739 H   0  0  0  0  0  0  0  0  0  0  0  0
  1  2  1  0
  1  5  1  0
  1  6  1  0
  1  7  1  0
  2  3  1  0
  3  4  2  3
  4  8  1  0
  4  9  1  0
M  END
>  <reaction>  (1) 
rmg_rxn_15714

>  <mol_properties>  (1) 
{"0": {"label": "donator", "atom_type": "Cs"}, "4": {"label": "d_hydrogen", "atom_type": "H0"}}

>  <type>  (1) 
r1h

$$$$

     RDKit          3D

 14 13  0  0  0  0  0  0  0  0999 V2000
   -1.9167    0.6959   -0.2757 C   0  0  0  0  0  3  0  0  0  0  0  0
   -1.2132   -0.5025    0.2432 C   0  0  0  0  0  0  0  0  0  0  0  0
   -2.1451   -1.6324    0.6428 C   0  0  0  0  0  0  0  0  0  0  0  0
   -2.9617   -1.2014    1.7018 O   0  0  0  0  0  0  0  0  0  0  0  0
   -3.8940   -2.1678    2.0979 C   0  0  0  0  0  0  0  0  0  0  0  0
   -2.9039    0.9452    0.0878 H   0  0  0  0  0  0  0  0  0  0  0  0
   -1.3969    1.4143   -0.8945 H   0  0  0  0  0  0  0  0  0  0  0  0
   -0.5037   -0.8823   -0.4987 H   0  0  0  0  0  0  0  0  0  0  0  0
   -0.6099   -0.2396    1.1256 H   0  0  0  0  0  0  0  0  0  0  0  0
   -2.7665   -1.9311   -0.2146 H   0  0  0  0  0  0  0  0  0  0  0  0
   -1.5607   -2.5114    0.9518 H   0  0  0  0  0  0  0  0  0  0  0  0
   -3.4000   -3.0856    2.4446 H   0  0  0  0  0  0  0  0  0  0  0  0
   -4.4753   -1.7487    2.9180 H   0  0  0  0  0  0  0  0  0  0  0  0
   -4.5741   -2.4312    1.2767 H   0  0  0  0  0  0  0  0  0  0  0  0
  1  2  1  0
  1  6  1  0
  1  7  1  0
  2  3  1  0
  2  8  1  0
  2  9  1  0
  3  4  1  0
  3 10  1  0
  3 11  1  0
  4  5  1  0
  5 12  1  0
  5 13  1  0
  5 14  1  0
M  RAD  1   1   2
M  END
>  <reaction>  (2) 
rmg_rxn_15714

>  <mol_properties>  (2) 
{"0": {"label": "acceptor", "atom_type": "Cs"}}

>  <type>  (2) 
r2

$$$$

     RDKit          3D

 15 14  0  0  0  0  0  0  0  0999 V2000
   -1.2811   -0.4129    1.0228 C   0  0  0  0  0  0  0  0  0  0  0  0
   -1.0023   -0.5809   -0.4650 C   0  0  0  0  0  0  0  0  0  0  0  0
   -2.0576    0.0568   -1.3449 C   0  0  0  0  0  0  0  0  0  0  0  0
   -2.0663    1.4464   -1.1307 O   0  0  0  0  0  0  0  0  0  0  0  0
   -3.0424    2.1072   -1.8849 C   0  0  0  0  0  0  0  0  0  0  0  0
   -2.2382   -0.8657    1.2935 H   0  0  0  0  0  0  0  0  0  0  0  0
   -1.3219    0.6426    1.2914 H   0  0  0  0  0  0  0  0  0  0  0  0
   -0.5042   -0.8881    1.6236 H   0  0  0  0  0  0  0  0  0  0  0  0
   -0.0316   -0.1460   -0.7167 H   0  0  0  0  0  0  0  0  0  0  0  0
   -0.9494   -1.6429   -0.7203 H   0  0  0  0  0  0  0  0  0  0  0  0
   -1.8518   -0.1570   -2.4041 H   0  0  0  0  0  0  0  0  0  0  0  0
   -3.0491   -0.3636   -1.1124 H   0  0  0  0  0  0  0  0  0  0  0  0
   -4.0521    1.7545   -1.6343 H   0  0  0  0  0  0  0  0  0  0  0  0
   -2.8850    1.9634   -2.9626 H   0  0  0  0  0  0  0  0  0  0  0  0
   -2.9730    3.1700   -1.6570 H   0  0  0  0  0  0  0  0  0  0  0  0
  1  2  1  0
  1  6  1  0
  1  7  1  0
  1  8  1  0
  2  3  1  0
  2  9  1  0
  2 10  1  0
  3  4  1  0
  3 11  1  0
  3 12  1  0
  4  5  1  0
  5 13  1  0
  5 14  1  0
  5 15  1  0
M  END
>  <reaction>  (3) 
rmg_rxn_15714

>  <mol_properties>  (3) 
{"0": {"label": "a_hydrogen", "atom_type": "H0"}, "1": {"label": "acceptor", "atom_type": "Cs"}}

>  <type>  (3) 
r2h

$$$$

     RDKit          3D

 23 21  0  0  0  0  0  0  0  0999 V2000
   -2.0958    0.3201    0.9331 C   0  0  0  0  0  0  0  0  0  0  0  0
   -1.9670    0.4361   -0.4492 O   0  0  0  0  0  0  0  0  0  0  0  0
   -2.0179   -0.8017   -1.0498 N   0  0  0  0  0  0  0  0  0  0  0  0
   -1.8081   -0.7271   -2.2940 C   0  0  0  0  0  0  0  0  0  0  0  0
   -0.9655   -0.1751    1.4493 H   0  0  0  0  0  0  0  0  0  0  0  0
   -2.8857   -0.3706    1.2269 H   0  0  0  0  0  0  0  0  0  0  0  0
   -2.2076    1.3215    1.3404 H   0  0  0  0  0  0  0  0  0  0  0  0
   -1.8411   -1.6567   -2.8463 H   0  0  0  0  0  0  0  0  0  0  0  0
   -1.6073    0.2147   -2.7997 H   0  0  0  0  0  0  0  0  0  0  0  0
    0.1913   -0.7294    1.9241 C   0  0  0  0  0  3  0  0  0  0  0  0
    0.9802   -1.2276    0.7416 C   0  0  0  0  0  0  0  0  0  0  0  0
    1.4630   -0.1188   -0.1723 C   0  0  0  0  0  0  0  0  0  0  0  0
    2.3532    0.7120    0.5342 O   0  0  0  0  0  0  0  0  0  0  0  0
    2.7920    1.8026   -0.2240 C   0  0  0  0  0  0  0  0  0  0  0  0
    0.6658    0.0805    2.4738 H   0  0  0  0  0  0  0  0  0  0  0  0
   -0.1780   -1.5130    2.5831 H   0  0  0  0  0  0  0  0  0  0  0  0
    1.8541   -1.7943    1.0848 H   0  0  0  0  0  0  0  0  0  0  0  0
    0.3711   -1.9161    0.1496 H   0  0  0  0  0  0  0  0  0  0  0  0
    1.9694   -0.5471   -1.0500 H   0  0  0  0  0  0  0  0  0  0  0  0
    0.6094    0.4707   -0.5358 H   0  0  0  0  0  0  0  0  0  0  0  0
    1.9536    2.4407   -0.5345 H   0  0  0  0  0  0  0  0  0  0  0  0
    3.4698    2.3867    0.3974 H   0  0  0  0  0  0  0  0  0  0  0  0
    3.3289    1.4771   -1.1258 H   0  0  0  0  0  0  0  0  0  0  0  0
  1  2  1  0
  1  5  1  0
  1  6  1  0
  1  7  1  0
  2  3  1  0
  3  4  2  3
  4  8  1  0
  4  9  1  0
 10 11  1  0
 10 15  1  0
 10 16  1  0
 11 12  1  0
 11 17  1  0
 11 18  1  0
 12 13  1  0
 12 19  1  0
 12 20  1  0
 13 14  1  0
 14 21  1  0
 14 22  1  0
 14 23  1  0
M  RAD  1  10   2
M  END
>  <reaction>  (4) 
rmg_rxn_15714

>  <mol_properties>  (4) 
{"0": {"label": "*1", "atom_type": "Cs"}, "1": {"label": "*0", "atom_type": "O2s"}, "4": {"label": "*2", "atom_type": "H0"}, "9": {"label": "*3", "atom_type": "Cs"}, "10": {"label": "*4", "atom_type": "Cs"}}

>  <type>  (4) 
ts

$$$$
