
     RDKit          3D

  7  6  0  0  0  0  0  0  0  0999 V2000
   -0.8548    0.0121    0.2120 C   0  0  0  0  0  0  0  0  0  0  0  0
    0.1921   -0.9637    0.4698 N   0  0  0  0  0  0  0  0  0  0  0  0
    0.8785   -1.2092   -0.5201 N   0  0  0  0  0  0  0  0  0  0  0  0
   -1.8110   -0.4522    0.4600 H   0  0  0  0  0  0  0  0  0  0  0  0
   -0.7101    0.8457    0.9015 H   0  0  0  0  0  0  0  0  0  0  0  0
   -0.8478    0.3585   -0.8239 H   0  0  0  0  0  0  0  0  0  0  0  0
    1.5811   -1.9033   -0.2318 H   0  0  0  0  0  0  0  0  0  0  0  0
  1  2  1  0
  1  4  1  0
  1  5  1  0
  1  6  1  0
  2  3  2  3
  3  7  1  0
M  END
>  <reaction>  (1) 
rmg_rxn_16713

>  <mol_properties>  (1) 
{"2": {"label": "donator", "atom_type": "N3d"}, "6": {"label": "d_hydrogen", "atom_type": "H0"}}

>  <type>  (1) 
r1h

$$$$

     RDKit          3D

  7  6  0  0  0  0  0  0  0  0999 V2000
   -0.6441   -0.1356    0.0624 C   0  0  0  0  0  0  0  0  0  0  0  0
    0.8523    0.0148   -0.0333 C   0  0  0  0  0  0  0  0  0  0  0  0
    1.6700   -0.6077    0.6603 N   0  0  0  0  0  2  0  0  0  0  0  0
   -1.0940    0.8275    0.3091 H   0  0  0  0  0  0  0  0  0  0  0  0
   -0.9104   -0.8656    0.8237 H   0  0  0  0  0  0  0  0  0  0  0  0
   -1.0427   -0.4545   -0.9022 H   0  0  0  0  0  0  0  0  0  0  0  0
    1.2362    0.7308   -0.7748 H   0  0  0  0  0  0  0  0  0  0  0  0
  1  2  1  0
  1  4  1  0
  1  5  1  0
  1  6  1  0
  2  3  2  0
  2  7  1  0
M  RAD  1   3   2
M  END
>  <reaction>  (2) 
rmg_rxn_16713

>  <mol_properties>  (2) 
{"2": {"label": "acceptor", "atom_type": "N3d"}}

>  <type>  (2) 
r2

$$$$

     RDKit          3D

  8  7  0  0  0  0  0  0  0  0999 V2000
    0.9548    0.1194   -0.0790 C   0  0  0  0  0  0  0  0  0  0  0  0
   -0.4838   -0.2649    0.0193 C   0  0  0  0  0  0  0  0  0  0  0  0
   -0.8933   -1.1081    0.8664 N   0  0  0  0  0  0  0  0  0  0  0  0
    1.3360   -0.0983   -1.0800 H   0  0  0  0  0  0  0  0  0  0  0  0
    1.0698    1.1948    0.0786 H   0  0  0  0  0  0  0  0  0  0  0  0
    1.5426   -0.4219    0.6602 H   0  0  0  0  0  0  0  0  0  0  0  0
   -1.1575    0.2324   -0.6905 H   0  0  0  0  0  0  0  0  0  0  0  0
   -1.8989   -1.2455    0.7886 H   0  0  0  0  0  0  0  0  0  0  0  0
  1  2  1  0
  1  4  1  0
  1  5  1  0
  1  6  1  0
  2  3  2  3
  2  7  1  0
  3  8  1  0
M  END
>  <reaction>  (3) 
rmg_rxn_16713

>  <mol_properties>  (3) 
{"0": {"label": "a_hydrogen", "atom_type": "H0"}, "3": {"label": "acceptor", "atom_type": "N3d"}}

>  <type>  (3) 
r2h

$$$$

     RDKit          3D

 14 12  0  0  0  0  0  0  0  0999 V2000
   -2.4823   -0.8909   -0.0058 C   0  0  0  0  0  0  0  0  0  0  0  0
   -2.1944    0.5475    0.0485 N   0  0  0  0  0  0  0  0  0  0  0  0
   -1.0570    0.9432    0.0561 N   0  0  0  0  0  0  0  0  0  0  0  0
   -3.0956   -1.0659   -0.8898 H   0  0  0  0  0  0  0  0  0  0  0  0
   -1.5735   -1.4959   -0.0356 H   0  0  0  0  0  0  0  0  0  0  0  0
   -3.0835   -1.1347    0.8702 H   0  0  0  0  0  0  0  0  0  0  0  0
   -0.2821    0.1138    0.0184 H   0  0  0  0  0  0  0  0  0  0  0  0
    3.3178   -0.2281   -0.0193 C   0  0  0  0  0  0  0  0  0  0  0  0
    1.8555    0.1206    0.0042 C   0  0  0  0  0  0  0  0  0  0  0  0
    0.9432   -0.7311   -0.0229 N   0  0  0  0  0  2  0  0  0  0  0  0
    3.7919    0.2373   -0.8858 H   0  0  0  0  0  0  0  0  0  0  0  0
    3.4580   -1.3062   -0.0625 H   0  0  0  0  0  0  0  0  0  0  0  0
    3.8038    0.1684    0.8744 H   0  0  0  0  0  0  0  0  0  0  0  0
    1.6131    1.1948    0.0479 H   0  0  0  0  0  0  0  0  0  0  0  0
  1  2  1  0
  1  4  1  0
  1  5  1  0
  1  6  1  0
  2  3  2  3
  3  7  1  0
  8  9  1  0
  8 11  1  0
  8 12  1  0
  8 13  1  0
  9 10  2  0
  9 14  1  0
M  RAD  1  10   2
M  END
>  <reaction>  (4) 
rmg_rxn_16713

>  <mol_properties>  (4) 
{"1": {"label": "*0", "atom_type": "N3d"}, "2": {"label": "*1", "atom_type": "N3d"}, "6": {"label": "*2", "atom_type": "H0"}, "8": {"label": "*4", "atom_type": "Cd"}, "9": {"label": "*3", "atom_type": "N3d"}}

>  <type>  (4) 
ts

$$$$
