
     RDKit          3D

 15 14  0  0  0  0  0  0  0  0999 V2000
   -2.0554    0.0723   -0.4910 C   0  0  0  0  0  0  0  0  0  0  0  0
   -0.7461   -0.6266   -0.8178 C   0  0  0  0  0  0  0  0  0  0  0  0
    0.3249    0.2591   -1.9782 S   0  0  0  0  0  0  0  0  0  0  0  0
   -0.7172    0.3642   -3.4551 C   0  0  0  0  0  0  0  0  0  0  0  0
   -1.1375   -0.9737   -4.0409 C   0  0  0  0  0  0  0  0  0  0  0  0
   -2.7005    0.1427   -1.3684 H   0  0  0  0  0  0  0  0  0  0  0  0
   -2.6016   -0.4848    0.2733 H   0  0  0  0  0  0  0  0  0  0  0  0
   -1.8758    1.0825   -0.1213 H   0  0  0  0  0  0  0  0  0  0  0  0
   -0.1320   -0.7246    0.0789 H   0  0  0  0  0  0  0  0  0  0  0  0
   -0.9254   -1.6374   -1.1879 H   0  0  0  0  0  0  0  0  0  0  0  0
   -1.5873    0.9874   -3.2422 H   0  0  0  0  0  0  0  0  0  0  0  0
   -0.1021    0.9161   -4.1678 H   0  0  0  0  0  0  0  0  0  0  0  0
   -1.7876   -1.5224   -3.3574 H   0  0  0  0  0  0  0  0  0  0  0  0
   -0.2676   -1.5962   -4.2534 H   0  0  0  0  0  0  0  0  0  0  0  0
   -1.6916   -0.8229   -4.9700 H   0  0  0  0  0  0  0  0  0  0  0  0
  1  2  1  0
  1  6  1  0
  1  7  1  0
  1  8  1  0
  2  3  1  0
  2  9  1  0
  2 10  1  0
  3  4  1  0
  4  5  1  0
  4 11  1  0
  4 12  1  0
  5 13  1  0
  5 14  1  0
  5 15  1  0
M  END
>  <reaction>  (1) 
rmg_rxn_381

>  <mol_properties>  (1) 
{"1": {"label": "donator", "atom_type": "Cs"}, "8": {"label": "d_hydrogen", "atom_type": "H0"}}

>  <type>  (1) 
r1h

$$$$

     RDKit          3D

  8  7  0  0  0  0  0  0  0  0999 V2000
   -0.7791    0.1334   -0.0748 C   0  0  0  0  0  0  0  0  0  0  0  0
    0.7127   -0.1366   -0.1734 C   0  0  0  0  0  0  0  0  0  0  0  0
    1.3635    0.5025   -1.1789 O   0  0  0  0  0  1  0  0  0  0  0  0
   -1.2169   -0.4199    0.7585 H   0  0  0  0  0  0  0  0  0  0  0  0
   -0.9633    1.1968    0.0816 H   0  0  0  0  0  0  0  0  0  0  0  0
   -1.2818   -0.1704   -0.9936 H   0  0  0  0  0  0  0  0  0  0  0  0
    1.2358    0.1203    0.7666 H   0  0  0  0  0  0  0  0  0  0  0  0
    0.9244   -1.2165   -0.2847 H   0  0  0  0  0  0  0  0  0  0  0  0
  1  2  1  0
  1  4  1  0
  1  5  1  0
  1  6  1  0
  2  3  1  0
  2  7  1  0
  2  8  1  0
M  RAD  1   3   2
M  END
>  <reaction>  (2) 
rmg_rxn_381

>  <mol_properties>  (2) 
{"2": {"label": "acceptor", "atom_type": "O2s"}}

>  <type>  (2) 
r2

$$$$

     RDKit          3D

  9  8  0  0  0  0  0  0  0  0999 V2000
   -0.9895    0.3048    0.1041 C   0  0  0  0  0  0  0  0  0  0  0  0
    0.3761   -0.3562    0.0721 C   0  0  0  0  0  0  0  0  0  0  0  0
    0.3441   -1.6564   -0.4834 O   0  0  0  0  0  0  0  0  0  0  0  0
   -1.6997   -0.3114    0.6572 H   0  0  0  0  0  0  0  0  0  0  0  0
   -0.9320    1.2848    0.5822 H   0  0  0  0  0  0  0  0  0  0  0  0
   -1.3774    0.4507   -0.9077 H   0  0  0  0  0  0  0  0  0  0  0  0
    0.7581   -0.4813    1.0862 H   0  0  0  0  0  0  0  0  0  0  0  0
    1.0900    0.2787   -0.4681 H   0  0  0  0  0  0  0  0  0  0  0  0
    0.0089   -1.5959   -1.3792 H   0  0  0  0  0  0  0  0  0  0  0  0
  1  2  1  0
  1  4  1  0
  1  5  1  0
  1  6  1  0
  2  3  1  0
  2  7  1  0
  2  8  1  0
  3  9  1  0
M  END
>  <reaction>  (3) 
rmg_rxn_381

>  <mol_properties>  (3) 
{"2": {"label": "acceptor", "atom_type": "O2s"}, "8": {"label": "a_hydrogen", "atom_type": "H0"}}

>  <type>  (3) 
r2h

$$$$

     RDKit          3D

 23 21  0  0  0  0  0  0  0  0999 V2000
   -2.7416    0.9141    0.4517 C   0  0  0  0  0  0  0  0  0  0  0  0
   -2.1500   -0.4618    0.7272 C   0  0  0  0  0  0  0  0  0  0  0  0
   -1.7289   -1.0814   -0.4360 O   0  0  0  0  0  1  0  0  0  0  0  0
   -3.0799    1.3762    1.3818 H   0  0  0  0  0  0  0  0  0  0  0  0
   -2.0004    1.5673   -0.0117 H   0  0  0  0  0  0  0  0  0  0  0  0
   -3.5946    0.8344   -0.2233 H   0  0  0  0  0  0  0  0  0  0  0  0
   -1.2857   -0.3447    1.4084 H   0  0  0  0  0  0  0  0  0  0  0  0
   -2.8748   -1.0938    1.2607 H   0  0  0  0  0  0  0  0  0  0  0  0
    1.2898   -1.6875   -1.5178 C   0  0  0  0  0  0  0  0  0  0  0  0
    0.7316   -1.6725   -0.1111 C   0  0  0  0  0  0  0  0  0  0  0  0
    1.3333   -0.4844    1.0474 S   0  0  0  0  0  0  0  0  0  0  0  0
    1.1363    1.0760    0.1423 C   0  0  0  0  0  0  0  0  0  0  0  0
    2.3867    1.5439   -0.5859 C   0  0  0  0  0  0  0  0  0  0  0  0
    2.3678   -1.8632   -1.5166 H   0  0  0  0  0  0  0  0  0  0  0  0
    0.8086   -2.4821   -2.0896 H   0  0  0  0  0  0  0  0  0  0  0  0
    1.0912   -0.7485   -2.0348 H   0  0  0  0  0  0  0  0  0  0  0  0
   -0.4593   -1.4595   -0.2452 H   0  0  0  0  0  0  0  0  0  0  0  0
    0.8002   -2.6431    0.3813 H   0  0  0  0  0  0  0  0  0  0  0  0
    0.2924    0.9465   -0.5375 H   0  0  0  0  0  0  0  0  0  0  0  0
    0.8348    1.8085    0.8919 H   0  0  0  0  0  0  0  0  0  0  0  0
    2.7020    0.8244   -1.3409 H   0  0  0  0  0  0  0  0  0  0  0  0
    3.2140    1.6828    0.1108 H   0  0  0  0  0  0  0  0  0  0  0  0
    2.1956    2.4982   -1.0820 H   0  0  0  0  0  0  0  0  0  0  0  0
  1  2  1  0
  1  4  1  0
  1  5  1  0
  1  6  1  0
  2  3  1  0
  2  7  1  0
  2  8  1  0
  9 10  1  0
  9 14  1  0
  9 15  1  0
  9 16  1  0
 10 11  1  0
 10 17  1  0
 10 18  1  0
 11 12  1  0
 12 13  1  0
 12 19  1  0
 12 20  1  0
 13 21  1  0
 13 22  1  0
 13 23  1  0
M  RAD  1   3   2
M  END
>  <reaction>  (4) 
rmg_rxn_381

>  <mol_properties>  (4) 
{"1": {"label": "*4", "atom_type": "Cs"}, "2": {"label": "*3", "atom_type": "O2s"}, "9": {"label": "*1", "atom_type": "Cs"}, "10": {"label": "*0", "atom_type": "S2s"}, "16": {"label": "*2", "atom_type": "H0"}}

>  <type>  (4) 
ts

$$$$
