
     RDKit          3D

 10  9  0  0  0  0  0  0  0  0999 V2000
    2.0404   -0.0576    0.0123 C   0  0  0  0  0  0  0  0  0  0  0  0
    0.5946   -0.0168    0.1899 C   0  0  0  0  0  0  0  0  0  0  0  0
   -0.5945    0.0168    0.3359 C   0  0  0  0  0  0  0  0  0  0  0  0
   -2.0404    0.0576    0.5134 C   0  0  0  0  0  0  0  0  0  0  0  0
    2.4764    0.9348    0.1389 H   0  0  0  0  0  0  0  0  0  0  0  0
    2.3002   -0.4155   -0.9854 H   0  0  0  0  0  0  0  0  0  0  0  0
    2.5034   -0.7249    0.7412 H   0  0  0  0  0  0  0  0  0  0  0  0
   -2.3769    1.0718    0.7350 H   0  0  0  0  0  0  0  0  0  0  0  0
   -2.3499   -0.5880    1.3371 H   0  0  0  0  0  0  0  0  0  0  0  0
   -2.5531   -0.2783   -0.3895 H   0  0  0  0  0  0  0  0  0  0  0  0
  1  2  1  0
  1  5  1  0
  1  6  1  0
  1  7  1  0
  2  3  3  0
  3  4  1  0
  4  8  1  0
  4  9  1  0
  4 10  1  0
M  END
>  <reaction>  (1) 
rmg_rxn_58

>  <mol_properties>  (1) 
{"3": {"label": "donator", "atom_type": "Cs"}, "9": {"label": "d_hydrogen", "atom_type": "H0"}}

>  <type>  (1) 
r1h

$$$$

     RDKit          3D

 14 13  0  0  0  0  0  0  0  0999 V2000
    2.6194    0.1388   -0.2451 C   0  0  0  0  0  0  0  0  0  0  0  0
    1.2416   -0.4914   -0.3670 C   0  0  0  0  0  0  0  0  0  0  0  0
    0.9567   -1.8675    0.7732 S   0  0  0  0  0  0  0  0  0  0  0  0
    1.9992   -3.0673    0.1320 C   0  0  0  0  0  3  0  0  0  0  0  0
    2.1769   -4.3519    0.8615 C   0  0  0  0  0  0  0  0  0  0  0  0
    3.4009   -0.5920   -0.4552 H   0  0  0  0  0  0  0  0  0  0  0  0
    2.7219    0.9635   -0.9540 H   0  0  0  0  0  0  0  0  0  0  0  0
    2.7821    0.5262    0.7612 H   0  0  0  0  0  0  0  0  0  0  0  0
    1.0587   -0.8507   -1.3815 H   0  0  0  0  0  0  0  0  0  0  0  0
    0.4587    0.2313   -0.1333 H   0  0  0  0  0  0  0  0  0  0  0  0
    2.2677   -2.9922   -0.9152 H   0  0  0  0  0  0  0  0  0  0  0  0
    1.3745   -5.0711    0.6500 H   0  0  0  0  0  0  0  0  0  0  0  0
    3.1173   -4.8269    0.5747 H   0  0  0  0  0  0  0  0  0  0  0  0
    2.1945   -4.1971    1.9428 H   0  0  0  0  0  0  0  0  0  0  0  0
  1  2  1  0
  1  6  1  0
  1  7  1  0
  1  8  1  0
  2  3  1  0
  2  9  1  0
  2 10  1  0
  3  4  1  0
  4  5  1  0
  4 11  1  0
  5 12  1  0
  5 13  1  0
  5 14  1  0
M  RAD  1   4   2
M  END
>  <reaction>  (2) 
rmg_rxn_58

>  <mol_properties>  (2) 
{"3": {"label": "acceptor", "atom_type": "Cs"}}

>  <type>  (2) 
r2

$$$$

     RDKit          3D

 15 14  0  0  0  0  0  0  0  0999 V2000
   -2.0554    0.0723   -0.4910 C   0  0  0  0  0  0  0  0  0  0  0  0
   -0.7461   -0.6266   -0.8178 C   0  0  0  0  0  0  0  0  0  0  0  0
    0.3249    0.2591   -1.9782 S   0  0  0  0  0  0  0  0  0  0  0  0
   -0.7172    0.3642   -3.4551 C   0  0  0  0  0  0  0  0  0  0  0  0
   -1.1375   -0.9737   -4.0409 C   0  0  0  0  0  0  0  0  0  0  0  0
   -2.7005    0.1427   -1.3684 H   0  0  0  0  0  0  0  0  0  0  0  0
   -2.6016   -0.4848    0.2733 H   0  0  0  0  0  0  0  0  0  0  0  0
   -1.8758    1.0825   -0.1213 H   0  0  0  0  0  0  0  0  0  0  0  0
   -0.1320   -0.7246    0.0789 H   0  0  0  0  0  0  0  0  0  0  0  0
   -0.9254   -1.6374   -1.1879 H   0  0  0  0  0  0  0  0  0  0  0  0
   -1.5873    0.9874   -3.2422 H   0  0  0  0  0  0  0  0  0  0  0  0
   -0.1021    0.9161   -4.1678 H   0  0  0  0  0  0  0  0  0  0  0  0
   -1.7876   -1.5224   -3.3574 H   0  0  0  0  0  0  0  0  0  0  0  0
   -0.2676   -1.5962   -4.2534 H   0  0  0  0  0  0  0  0  0  0  0  0
   -1.6916   -0.8229   -4.9700 H   0  0  0  0  0  0  0  0  0  0  0  0
  1  2  1  0
  1  6  1  0
  1  7  1  0
  1  8  1  0
  2  3  1  0
  2  9  1  0
  2 10  1  0
  3  4  1  0
  4  5  1  0
  4 11  1  0
  4 12  1  0
  5 13  1  0
  5 14  1  0
  5 15  1  0
M  END
>  <reaction>  (3) 
rmg_rxn_58

>  <mol_properties>  (3) 
{"0": {"label": "a_hydrogen", "atom_type": "H0"}, "4": {"label": "acceptor", "atom_type": "Cs"}}

>  <type>  (3) 
r2h

$$$$

     RDKit          3D

 24 22  0  0  0  0  0  0  0  0999 V2000
    0.1215    1.4115   -3.1099 C   0  0  0  0  0  0  0  0  0  0  0  0
   -0.5330    1.3466   -1.8119 C   0  0  0  0  0  3  0  0  0  0  0  0
   -1.0723    1.2884   -0.7358 C   0  0  0  0  0  0  0  0  0  0  0  0
   -1.6563    1.1232    0.5474 C   0  0  0  0  0  0  0  0  0  0  0  0
   -0.6122    1.4394   -3.9175 H   0  0  0  0  0  0  0  0  0  0  0  0
    0.7587    0.5378   -3.2643 H   0  0  0  0  0  0  0  0  0  0  0  0
    0.7457    2.3034   -3.1902 H   0  0  0  0  0  0  0  0  0  0  0  0
   -2.7342    0.9739    0.5476 H   0  0  0  0  0  0  0  0  0  0  0  0
   -1.3393    1.8460    1.2966 H   0  0  0  0  0  0  0  0  0  0  0  0
   -1.1823   -0.0601    1.0171 H   0  0  0  0  0  0  0  0  0  0  0  0
    1.8207    0.6060    1.3136 C   0  0  0  0  0  0  0  0  0  0  0  0
    1.9121   -0.9106    1.3570 C   0  0  0  0  0  0  0  0  0  0  0  0
    0.5988   -1.7800    0.4676 S   0  0  0  0  0  0  0  0  0  0  0  0
   -0.8275   -1.3089    1.3879 C   0  0  0  0  0  0  0  0  0  0  0  0
   -2.0500   -2.1293    1.0597 C   0  0  0  0  0  0  0  0  0  0  0  0
    0.9360    0.9619    1.8420 H   0  0  0  0  0  0  0  0  0  0  0  0
    2.6969    1.0478    1.7932 H   0  0  0  0  0  0  0  0  0  0  0  0
    1.7601    0.9661    0.2867 H   0  0  0  0  0  0  0  0  0  0  0  0
    1.9282   -1.2737    2.3868 H   0  0  0  0  0  0  0  0  0  0  0  0
    2.8312   -1.2543    0.8799 H   0  0  0  0  0  0  0  0  0  0  0  0
   -0.6203   -1.2179    2.4552 H   0  0  0  0  0  0  0  0  0  0  0  0
   -1.9301   -3.1752    1.3531 H   0  0  0  0  0  0  0  0  0  0  0  0
   -2.9207   -1.7280    1.5813 H   0  0  0  0  0  0  0  0  0  0  0  0
   -2.2587   -2.1006   -0.0119 H   0  0  0  0  0  0  0  0  0  0  0  0
  1  2  1  0
  1  5  1  0
  1  6  1  0
  1  7  1  0
  2  3  2  0
  3  4  2  0
  4  8  1  0
  4  9  1  0
 10 14  1  0
 11 12  1  0
 11 16  1  0
 11 17  1  0
 11 18  1  0
 12 13  1  0
 12 19  1  0
 12 20  1  0
 13 14  1  0
 14 15  1  0
 14 21  1  0
 15 22  1  0
 15 23  1  0
 15 24  1  0
M  RAD  1   2   2
M  END
>  <reaction>  (4) 
rmg_rxn_58

>  <mol_properties>  (4) 
{"2": {"label": "*4", "atom_type": "Cdd"}, "3": {"label": "*3", "atom_type": "Cd"}, "9": {"label": "*2", "atom_type": "H0"}, "12": {"label": "*0", "atom_type": "S2s"}, "13": {"label": "*1", "atom_type": "Cs"}}

>  <type>  (4) 
ts

$$$$
