
     RDKit          3D

  8  7  0  0  0  0  0  0  0  0999 V2000
    0.9548    0.1194   -0.0790 C   0  0  0  0  0  0  0  0  0  0  0  0
   -0.4838   -0.2649    0.0193 C   0  0  0  0  0  0  0  0  0  0  0  0
   -0.8933   -1.1081    0.8664 N   0  0  0  0  0  0  0  0  0  0  0  0
    1.3360   -0.0983   -1.0800 H   0  0  0  0  0  0  0  0  0  0  0  0
    1.0698    1.1948    0.0786 H   0  0  0  0  0  0  0  0  0  0  0  0
    1.5426   -0.4219    0.6602 H   0  0  0  0  0  0  0  0  0  0  0  0
   -1.1575    0.2324   -0.6905 H   0  0  0  0  0  0  0  0  0  0  0  0
   -1.8989   -1.2455    0.7886 H   0  0  0  0  0  0  0  0  0  0  0  0
  1  2  1  0
  1  4  1  0
  1  5  1  0
  1  6  1  0
  2  3  2  3
  2  7  1  0
  3  8  1  0
M  END
>  <reaction>  (1) 
rmg_rxn_16514

>  <mol_properties>  (1) 
{"2": {"label": "donator", "atom_type": "N3d"}, "7": {"label": "d_hydrogen", "atom_type": "H0"}}

>  <type>  (1) 
r1h

$$$$

     RDKit          3D

  8  7  0  0  0  0  0  0  0  0999 V2000
   -0.9179    0.2391    0.1982 C   0  0  0  0  0  0  0  0  0  0  0  0
    0.4678   -0.2407    0.0057 C   0  0  0  0  0  3  0  0  0  0  0  0
    0.5690   -1.5483   -0.3772 O   0  0  0  0  0  0  0  0  0  0  0  0
   -1.4185   -0.2635    1.0380 H   0  0  0  0  0  0  0  0  0  0  0  0
   -0.9217    1.3106    0.3990 H   0  0  0  0  0  0  0  0  0  0  0  0
   -1.5211    0.0525   -0.6941 H   0  0  0  0  0  0  0  0  0  0  0  0
    1.2867    0.1607    0.5960 H   0  0  0  0  0  0  0  0  0  0  0  0
    1.4925   -1.7959   -0.4346 H   0  0  0  0  0  0  0  0  0  0  0  0
  1  2  1  0
  1  4  1  0
  1  5  1  0
  1  6  1  0
  2  3  1  0
  2  7  1  0
  3  8  1  0
M  RAD  1   2   2
M  END
>  <reaction>  (2) 
rmg_rxn_16514

>  <mol_properties>  (2) 
{"1": {"label": "acceptor", "atom_type": "Cs"}}

>  <type>  (2) 
r2

$$$$

     RDKit          3D

  9  8  0  0  0  0  0  0  0  0999 V2000
   -0.9895    0.3048    0.1041 C   0  0  0  0  0  0  0  0  0  0  0  0
    0.3761   -0.3562    0.0721 C   0  0  0  0  0  0  0  0  0  0  0  0
    0.3441   -1.6564   -0.4834 O   0  0  0  0  0  0  0  0  0  0  0  0
   -1.6997   -0.3114    0.6572 H   0  0  0  0  0  0  0  0  0  0  0  0
   -0.9320    1.2848    0.5822 H   0  0  0  0  0  0  0  0  0  0  0  0
   -1.3774    0.4507   -0.9077 H   0  0  0  0  0  0  0  0  0  0  0  0
    0.7581   -0.4813    1.0862 H   0  0  0  0  0  0  0  0  0  0  0  0
    1.0900    0.2787   -0.4681 H   0  0  0  0  0  0  0  0  0  0  0  0
    0.0089   -1.5959   -1.3792 H   0  0  0  0  0  0  0  0  0  0  0  0
  1  2  1  0
  1  4  1  0
  1  5  1  0
  1  6  1  0
  2  3  1  0
  2  7  1  0
  2  8  1  0
  3  9  1  0
M  END
>  <reaction>  (3) 
rmg_rxn_16514

>  <mol_properties>  (3) 
{"1": {"label": "acceptor", "atom_type": "Cs"}, "8": {"label": "a_hydrogen", "atom_type": "H0"}}

>  <type>  (3) 
r2h

$$$$

     RDKit          3D

 16 14  0  0  0  0  0  0  0  0999 V2000
    0.6415   -1.0622    2.2133 C   0  0  0  0  0  0  0  0  0  0  0  0
   -0.4897   -0.5527    1.3648 C   0  0  0  0  0  3  0  0  0  0  0  0
   -0.6596    0.8250    1.3550 O   0  0  0  0  0  0  0  0  0  0  0  0
    0.5032   -0.7925    3.2648 H   0  0  0  0  0  0  0  0  0  0  0  0
    0.7070   -2.1479    2.1388 H   0  0  0  0  0  0  0  0  0  0  0  0
    1.5973   -0.6514    1.8748 H   0  0  0  0  0  0  0  0  0  0  0  0
   -1.4565   -1.0120    1.5657 H   0  0  0  0  0  0  0  0  0  0  0  0
    0.2044    1.2422    1.3202 H   0  0  0  0  0  0  0  0  0  0  0  0
   -0.2431    0.0349   -3.1976 C   0  0  0  0  0  0  0  0  0  0  0  0
   -0.3776   -0.1376   -1.7134 C   0  0  0  0  0  0  0  0  0  0  0  0
    0.0918   -1.1278   -1.1002 N   0  0  0  0  0  0  0  0  0  0  0  0
   -1.2333    0.0964   -3.6554 H   0  0  0  0  0  0  0  0  0  0  0  0
    0.2744    0.9712   -3.4198 H   0  0  0  0  0  0  0  0  0  0  0  0
    0.3070   -0.7968   -3.6339 H   0  0  0  0  0  0  0  0  0  0  0  0
   -0.9165    0.6596   -1.1799 H   0  0  0  0  0  0  0  0  0  0  0  0
   -0.1900   -0.9546    0.1221 H   0  0  0  0  0  0  0  0  0  0  0  0
  1  2  1  0
  1  4  1  0
  1  5  1  0
  1  6  1  0
  2  3  1  0
  2  7  1  0
  3  8  1  0
  9 10  1  0
  9 12  1  0
  9 13  1  0
  9 14  1  0
 10 11  2  3
 10 15  1  0
 11 16  1  0
M  RAD  1   2   2
M  END
>  <reaction>  (4) 
rmg_rxn_16514

>  <mol_properties>  (4) 
{"1": {"label": "*3", "atom_type": "Cs"}, "2": {"label": "*4", "atom_type": "O2s"}, "9": {"label": "*0", "atom_type": "Cd"}, "10": {"label": "*1", "atom_type": "N3d"}, "15": {"label": "*2", "atom_type": "H0"}}

>  <type>  (4) 
ts

$$$$
