
     RDKit          3D

  6  5  0  0  0  0  0  0  0  0999 V2000
   -0.4547   -0.0097   -0.0070 C   0  0  0  0  0  0  0  0  0  0  0  0
    0.8695   -0.1987   -0.6218 N   0  0  0  0  0  0  0  0  0  0  0  0
    1.0322   -1.2809   -1.0969 O   0  0  0  0  0  0  0  0  0  0  0  0
   -0.2820    0.2687    1.0347 H   0  0  0  0  0  0  0  0  0  0  0  0
   -1.0716   -0.9051   -0.0916 H   0  0  0  0  0  0  0  0  0  0  0  0
   -0.9130    0.8487   -0.5026 H   0  0  0  0  0  0  0  0  0  0  0  0
  1  2  1  0
  1  4  1  0
  1  5  1  0
  1  6  1  0
  2  3  2  0
M  END
>  <reaction>  (1) 
rmg_rxn_16609

>  <mol_properties>  (1) 
{"0": {"label": "donator", "atom_type": "Cs"}, "3": {"label": "d_hydrogen", "atom_type": "H0"}}

>  <type>  (1) 
r1h

$$$$

     RDKit          3D

  7  6  0  0  0  0  0  0  0  0999 V2000
   -0.8792   -0.0521   -0.1112 C   0  0  0  0  0  0  0  0  0  0  0  0
    0.2563    0.5069    0.6632 C   0  0  0  0  0  3  0  0  0  0  0  0
    1.4642    0.2942    0.5559 N   0  0  0  0  0  0  0  0  0  0  0  0
   -0.5276   -0.7504   -0.8762 H   0  0  0  0  0  0  0  0  0  0  0  0
   -1.5656   -0.5647    0.5641 H   0  0  0  0  0  0  0  0  0  0  0  0
   -1.4344    0.7590   -0.5839 H   0  0  0  0  0  0  0  0  0  0  0  0
    2.0853    0.7859    1.1937 H   0  0  0  0  0  0  0  0  0  0  0  0
  1  2  1  0
  1  4  1  0
  1  5  1  0
  1  6  1  0
  2  3  2  3
  3  7  1  0
M  RAD  1   2   2
M  END
>  <reaction>  (2) 
rmg_rxn_16609

>  <mol_properties>  (2) 
{"1": {"label": "acceptor", "atom_type": "Cd"}}

>  <type>  (2) 
r2

$$$$

     RDKit          3D

  8  7  0  0  0  0  0  0  0  0999 V2000
    0.9548    0.1194   -0.0790 C   0  0  0  0  0  0  0  0  0  0  0  0
   -0.4838   -0.2649    0.0193 C   0  0  0  0  0  0  0  0  0  0  0  0
   -0.8933   -1.1081    0.8664 N   0  0  0  0  0  0  0  0  0  0  0  0
    1.3360   -0.0983   -1.0800 H   0  0  0  0  0  0  0  0  0  0  0  0
    1.0698    1.1948    0.0786 H   0  0  0  0  0  0  0  0  0  0  0  0
    1.5426   -0.4219    0.6602 H   0  0  0  0  0  0  0  0  0  0  0  0
   -1.1575    0.2324   -0.6905 H   0  0  0  0  0  0  0  0  0  0  0  0
   -1.8989   -1.2455    0.7886 H   0  0  0  0  0  0  0  0  0  0  0  0
  1  2  1  0
  1  4  1  0
  1  5  1  0
  1  6  1  0
  2  3  2  3
  2  7  1  0
  3  8  1  0
M  END
>  <reaction>  (3) 
rmg_rxn_16609

>  <mol_properties>  (3) 
{"0": {"label": "a_hydrogen", "atom_type": "H0"}, "2": {"label": "acceptor", "atom_type": "Cd"}}

>  <type>  (3) 
r2h

$$$$

     RDKit          3D

 13 11  0  0  0  0  0  0  0  0999 V2000
    1.3372   -0.1535   -0.3621 C   0  0  0  0  0  0  0  0  0  0  0  0
    0.6925   -0.4761   -1.5665 N   0  0  0  0  0  0  0  0  0  0  0  0
    0.4118    0.4907   -2.2588 O   0  0  0  0  0  0  0  0  0  0  0  0
    0.3424    0.1052    0.4218 H   0  0  0  0  0  0  0  0  0  0  0  0
    1.8975    0.7829   -0.3698 H   0  0  0  0  0  0  0  0  0  0  0  0
    1.8300   -1.0089    0.0917 H   0  0  0  0  0  0  0  0  0  0  0  0
   -0.7331    1.0385    2.3956 C   0  0  0  0  0  0  0  0  0  0  0  0
   -0.8837    0.3847    1.0735 C   0  0  0  0  0  3  0  0  0  0  0  0
   -1.8950    0.0516    0.4568 N   0  0  0  0  0  0  0  0  0  0  0  0
   -1.7105    1.2156    2.8461 H   0  0  0  0  0  0  0  0  0  0  0  0
   -0.1320    0.4085    3.0529 H   0  0  0  0  0  0  0  0  0  0  0  0
   -0.2063    1.9864    2.2750 H   0  0  0  0  0  0  0  0  0  0  0  0
   -1.7505   -0.3785   -0.4568 H   0  0  0  0  0  0  0  0  0  0  0  0
  1  2  1  0
  1  4  1  0
  1  5  1  0
  1  6  1  0
  2  3  2  0
  7  8  1  0
  7 10  1  0
  7 11  1  0
  7 12  1  0
  8  9  2  3
  9 13  1  0
M  RAD  1   8   2
M  END
>  <reaction>  (4) 
rmg_rxn_16609

>  <mol_properties>  (4) 
{"0": {"label": "*1", "atom_type": "Cs"}, "1": {"label": "*0", "atom_type": "N3d"}, "3": {"label": "*2", "atom_type": "H0"}, "7": {"label": "*3", "atom_type": "Cd"}, "8": {"label": "*4", "atom_type": "N3d"}}

>  <type>  (4) 
ts

$$$$
