
     RDKit          3D

  6  5  0  0  0  0  0  0  0  0999 V2000
    0.0000    0.0000   -1.1800 C   0  0  0  0  0  0  0  0  0  0  0  0
    0.0000    0.0000    0.2819 C   0  0  0  0  0  0  0  0  0  0  0  0
    0.0000    0.0000    1.4421 N   0  0  0  0  0  0  0  0  0  0  0  0
    0.0000    1.0227   -1.5687 H   0  0  0  0  0  0  0  0  0  0  0  0
    0.8856   -0.5113   -1.5687 H   0  0  0  0  0  0  0  0  0  0  0  0
   -0.8856   -0.5113   -1.5687 H   0  0  0  0  0  0  0  0  0  0  0  0
  1  2  1  0
  1  4  1  0
  1  5  1  0
  1  6  1  0
  2  3  3  0
M  END
>  <reaction>  (1) 
rmg_rxn_1147

>  <mol_properties>  (1) 
{"0": {"label": "donator", "atom_type": "Cs"}, "3": {"label": "d_hydrogen", "atom_type": "H0"}}

>  <type>  (1) 
r1h

$$$$

     RDKit          3D

  1  0  0  0  0  0  0  0  0  0999 V2000
    0.0000    0.0000    0.0000 O   0  0  0  0  0 15  0  0  0  0  0  0
M  END
>  <reaction>  (2) 
rmg_rxn_1147

>  <mol_properties>  (2) 
{"0": {"label": "acceptor", "atom_type": "O2s"}}

>  <type>  (2) 
r2

$$$$

     RDKit          3D

  2  1  0  0  0  0  0  0  0  0999 V2000
    0.0000    0.0000    0.1079 O   0  0  0  0  0  1  0  0  0  0  0  0
    0.0000    0.0000   -0.8631 H   0  0  0  0  0  0  0  0  0  0  0  0
  1  2  1  0
M  RAD  1   1   2
M  END
>  <reaction>  (3) 
rmg_rxn_1147

>  <mol_properties>  (3) 
{"0": {"label": "acceptor", "atom_type": "O2s"}, "1": {"label": "a_hydrogen", "atom_type": "H0"}}

>  <type>  (3) 
r2h

$$$$

     RDKit          3D

  7  5  0  0  0  0  0  0  0  0999 V2000
    1.6919   -1.5084    0.0000 O   0  0  0  0  0  1  0  0  0  0  0  0
   -0.6245   -0.6280    0.0000 C   0  0  0  0  0  0  0  0  0  0  0  0
   -0.6245    0.8340    0.0000 C   0  0  0  0  0  0  0  0  0  0  0  0
   -0.6245    1.9942    0.0000 N   0  0  0  0  0  2  0  0  0  0  0  0
    0.6027   -1.0944    0.0000 H   0  0  0  0  0  0  0  0  0  0  0  0
   -1.1359   -1.0167    0.8856 H   0  0  0  0  0  0  0  0  0  0  0  0
   -1.1359   -1.0167   -0.8856 H   0  0  0  0  0  0  0  0  0  0  0  0
  1  5  1  0
  2  3  2  0
  2  6  1  0
  2  7  1  0
  3  4  2  0
M  RAD  2   1   2   4   2
M  END
>  <reaction>  (4) 
rmg_rxn_1147

>  <mol_properties>  (4) 
{"0": {"label": "*1", "atom_type": "O2s"}, "1": {"label": "*3", "atom_type": "Cd"}, "2": {"label": "*4", "atom_type": "Cdd"}, "4": {"label": "*2", "atom_type": "H0"}}

>  <type>  (4) 
ts

$$$$
