
     RDKit          3D

  6  5  0  0  0  0  0  0  0  0999 V2000
   -1.0966    0.1399   -0.0008 C   0  0  0  0  0  0  0  0  0  0  0  0
    0.2172   -0.5441   -0.0038 N   0  0  0  0  0  0  0  0  0  0  0  0
    1.1593    0.2558   -0.0001 O   0  0  0  0  0  0  0  0  0  0  0  0
   -1.6805   -0.1384   -0.8813 H   0  0  0  0  0  0  0  0  0  0  0  0
   -0.9115    1.2159    0.0041 H   0  0  0  0  0  0  0  0  0  0  0  0
   -1.6230   -0.1547    0.9092 H   0  0  0  0  0  0  0  0  0  0  0  0
  1  2  1  0
  1  4  1  0
  1  5  1  0
  1  6  1  0
  2  3  2  0
M  END
>  <reaction>  (1) 
rmg_rxn_1129

>  <mol_properties>  (1) 
{"0": {"label": "donator", "atom_type": "Cs"}, "3": {"label": "d_hydrogen", "atom_type": "H0"}}

>  <type>  (1) 
r1h

$$$$

     RDKit          3D

  1  0  0  0  0  0  0  0  0  0999 V2000
    0.0000    0.0000    0.0000 O   0  0  0  0  0 15  0  0  0  0  0  0
M  END
>  <reaction>  (2) 
rmg_rxn_1129

>  <mol_properties>  (2) 
{"0": {"label": "acceptor", "atom_type": "O2s"}}

>  <type>  (2) 
r2

$$$$

     RDKit          3D

  2  1  0  0  0  0  0  0  0  0999 V2000
    0.0000    0.0000    0.1079 O   0  0  0  0  0  1  0  0  0  0  0  0
    0.0000    0.0000   -0.8631 H   0  0  0  0  0  0  0  0  0  0  0  0
  1  2  1  0
M  RAD  1   1   2
M  END
>  <reaction>  (3) 
rmg_rxn_1129

>  <mol_properties>  (3) 
{"0": {"label": "acceptor", "atom_type": "O2s"}, "1": {"label": "a_hydrogen", "atom_type": "H0"}}

>  <type>  (3) 
r2h

$$$$

     RDKit          3D

  7  5  0  0  0  0  0  0  0  0999 V2000
    2.3421   -0.3912    0.0481 O   0  0  0  0  0  1  0  0  0  0  0  0
    0.1363    0.7341    0.0668 C   0  0  0  0  0  0  0  0  0  0  0  0
   -0.9049   -0.1410   -0.5198 N   0  0  0  0  0  0  0  0  0  0  0  0
   -1.8173   -0.3799    0.2789 O   0  0  0  0  0  1  0  0  0  0  0  0
    1.3042    0.1383    0.0569 H   0  0  0  0  0  0  0  0  0  0  0  0
   -0.1611    0.9639    1.0919 H   0  0  0  0  0  0  0  0  0  0  0  0
    0.1749    1.6494   -0.5271 H   0  0  0  0  0  0  0  0  0  0  0  0
  1  5  1  0
  2  3  2  3
  2  6  1  0
  2  7  1  0
  3  4  1  0
M  RAD  2   1   2   4   2
M  END
>  <reaction>  (4) 
rmg_rxn_1129

>  <mol_properties>  (4) 
{"0": {"label": "*1", "atom_type": "O2s"}, "1": {"label": "*3", "atom_type": "Cd"}, "2": {"label": "*4", "atom_type": "N3d"}, "4": {"label": "*2", "atom_type": "H0"}}

>  <type>  (4) 
ts

$$$$
