
     RDKit          3D

  9  8  0  0  0  0  0  0  0  0999 V2000
   -1.2461    0.5037    0.0950 C   0  0  0  0  0  0  0  0  0  0  0  0
   -0.0155   -0.3334    0.0640 C   0  0  0  0  0  0  0  0  0  0  0  0
    1.0697    0.1457   -0.3733 N   0  0  0  0  0  0  0  0  0  0  0  0
    2.1001   -0.7834   -0.3224 O   0  0  0  0  0  0  0  0  0  0  0  0
   -2.0357    0.0440   -0.5039 H   0  0  0  0  0  0  0  0  0  0  0  0
   -1.6237    0.5897    1.1166 H   0  0  0  0  0  0  0  0  0  0  0  0
   -1.0397    1.4998   -0.2929 H   0  0  0  0  0  0  0  0  0  0  0  0
   -0.0537   -1.3634    0.4205 H   0  0  0  0  0  0  0  0  0  0  0  0
    2.8478   -0.2985   -0.6758 H   0  0  0  0  0  0  0  0  0  0  0  0
  1  2  1  0
  1  5  1  0
  1  6  1  0
  1  7  1  0
  2  3  2  3
  2  8  1  0
  3  4  1  0
  4  9  1  0
M  END
>  <reaction>  (1) 
rmg_rxn_15596

>  <mol_properties>  (1) 
{"3": {"label": "donator", "atom_type": "O2s"}, "8": {"label": "d_hydrogen", "atom_type": "H0"}}

>  <type>  (1) 
r1h

$$$$

     RDKit          3D

  8  7  0  0  0  0  0  0  0  0999 V2000
    1.7077   -0.1964   -0.0607 C   0  0  0  0  0  3  0  0  0  0  0  0
    0.4209   -0.4565    0.2808 O   0  0  0  0  0  0  0  0  0  0  0  0
   -0.4607    0.4385   -0.2968 N   0  0  0  0  0  0  0  0  0  0  0  0
   -1.6584    0.1416   -0.0244 C   0  0  0  0  0  0  0  0  0  0  0  0
    2.4163   -0.7685    0.5170 H   0  0  0  0  0  0  0  0  0  0  0  0
    1.9214    0.7645   -0.5045 H   0  0  0  0  0  0  0  0  0  0  0  0
   -2.4185    0.7953   -0.4307 H   0  0  0  0  0  0  0  0  0  0  0  0
   -1.9286   -0.7185    0.5831 H   0  0  0  0  0  0  0  0  0  0  0  0
  1  2  1  0
  1  5  1  0
  1  6  1  0
  2  3  1  0
  3  4  2  3
  4  7  1  0
  4  8  1  0
M  RAD  1   1   2
M  END
>  <reaction>  (2) 
rmg_rxn_15596

>  <mol_properties>  (2) 
{"0": {"label": "acceptor", "atom_type": "Cs"}}

>  <type>  (2) 
r2

$$$$

     RDKit          3D

  9  8  0  0  0  0  0  0  0  0999 V2000
   -1.5470   -0.0755   -0.1976 C   0  0  0  0  0  0  0  0  0  0  0  0
   -0.2885    0.4507    0.1749 O   0  0  0  0  0  0  0  0  0  0  0  0
   -0.1502    1.7216   -0.3294 N   0  0  0  0  0  0  0  0  0  0  0  0
    0.9626    2.2353   -0.0219 C   0  0  0  0  0  0  0  0  0  0  0  0
   -1.6392   -0.1356   -1.2844 H   0  0  0  0  0  0  0  0  0  0  0  0
   -2.3597    0.5337    0.2044 H   0  0  0  0  0  0  0  0  0  0  0  0
   -1.5879   -1.0750    0.2318 H   0  0  0  0  0  0  0  0  0  0  0  0
    1.1497    3.2381   -0.3820 H   0  0  0  0  0  0  0  0  0  0  0  0
    1.7060    1.7101    0.5739 H   0  0  0  0  0  0  0  0  0  0  0  0
  1  2  1  0
  1  5  1  0
  1  6  1  0
  1  7  1  0
  2  3  1  0
  3  4  2  3
  4  8  1  0
  4  9  1  0
M  END
>  <reaction>  (3) 
rmg_rxn_15596

>  <mol_properties>  (3) 
{"0": {"label": "acceptor", "atom_type": "Cs"}, "8": {"label": "a_hydrogen", "atom_type": "H0"}}

>  <type>  (3) 
r2h

$$$$

     RDKit          3D

 17 15  0  0  0  0  0  0  0  0999 V2000
   -0.4384    0.6143    2.0597 C   0  0  0  0  0  3  0  0  0  0  0  0
   -0.6852    1.4552    1.0088 O   0  0  0  0  0  0  0  0  0  0  0  0
    0.4781    2.0858    0.5898 N   0  0  0  0  0  0  0  0  0  0  0  0
    0.3056    2.6588   -0.5214 C   0  0  0  0  0  0  0  0  0  0  0  0
    0.3696    0.9513    2.7081 H   0  0  0  0  0  0  0  0  0  0  0  0
   -1.3775    0.3768    2.5533 H   0  0  0  0  0  0  0  0  0  0  0  0
    1.1543    3.1995   -0.9189 H   0  0  0  0  0  0  0  0  0  0  0  0
   -0.6354    2.6175   -1.0637 H   0  0  0  0  0  0  0  0  0  0  0  0
   -0.0688   -1.9872   -2.5801 C   0  0  0  0  0  0  0  0  0  0  0  0
    0.2742   -2.1740   -1.1419 C   0  0  0  0  0  0  0  0  0  0  0  0
   -0.0022   -1.2699   -0.2959 N   0  0  0  0  0  0  0  0  0  0  0  0
    0.3409   -1.5210    0.9626 O   0  0  0  0  0  0  0  0  0  0  0  0
    0.8294   -2.0297   -3.2014 H   0  0  0  0  0  0  0  0  0  0  0  0
   -0.7373   -2.7798   -2.9252 H   0  0  0  0  0  0  0  0  0  0  0  0
   -0.5568   -1.0251   -2.7299 H   0  0  0  0  0  0  0  0  0  0  0  0
    0.7651   -3.0938   -0.8226 H   0  0  0  0  0  0  0  0  0  0  0  0
   -0.0158   -0.5180    1.5761 H   0  0  0  0  0  0  0  0  0  0  0  0
  1  2  1  0
  1  5  1  0
  1  6  1  0
  2  3  1  0
  3  4  2  3
  4  7  1  0
  4  8  1  0
  9 10  1  0
  9 13  1  0
  9 14  1  0
  9 15  1  0
 10 11  2  3
 10 16  1  0
 11 12  1  0
 12 17  1  0
M  RAD  1   1   2
M  END
>  <reaction>  (4) 
rmg_rxn_15596

>  <mol_properties>  (4) 
{"0": {"label": "*3", "atom_type": "Cs"}, "1": {"label": "*4", "atom_type": "O2s"}, "10": {"label": "*0", "atom_type": "N3d"}, "11": {"label": "*1", "atom_type": "O2s"}, "16": {"label": "*2", "atom_type": "H0"}}

>  <type>  (4) 
ts

$$$$
