
     RDKit          3D

 17 16  0  0  0  0  0  0  0  0999 V2000
   -2.7869   -0.6779    0.5598 C   0  0  0  0  0  0  0  0  0  0  0  0
   -2.1882    0.4794   -0.4540 C   0  0  0  0  0  0  0  0  0  0  0  0
   -0.8614    0.6466   -0.6309 C   0  0  0  0  0  0  0  0  0  0  0  0
    0.0462   -0.2590    0.1147 O   0  0  0  0  0  0  0  0  0  0  0  0
    1.4144   -0.0462   -0.2689 N   0  0  0  0  0  0  0  0  0  0  0  0
    2.2735   -1.2242   -0.0705 N   0  0  0  0  0  0  0  0  0  0  0  0
    1.7506    1.2328    0.5709 C   0  0  0  0  0  0  0  0  0  0  0  0
   -3.5441    0.2632    1.1191 H   0  0  0  0  0  0  0  0  0  0  0  0
   -2.1352   -0.7714    1.3813 H   0  0  0  0  0  0  0  0  0  0  0  0
   -3.4264   -1.3209    0.3013 H   0  0  0  0  0  0  0  0  0  0  0  0
   -2.8344    0.6835   -1.3073 H   0  0  0  0  0  0  0  0  0  0  0  0
   -0.4114    0.8849   -1.5492 H   0  0  0  0  0  0  0  0  0  0  0  0
    1.5006   -1.9601   -0.3411 H   0  0  0  0  0  0  0  0  0  0  0  0
    2.8357   -1.1182   -1.0817 H   0  0  0  0  0  0  0  0  0  0  0  0
    1.4790    1.0086    1.8088 H   0  0  0  0  0  0  0  0  0  0  0  0
    1.7873    2.1776    0.1795 H   0  0  0  0  0  0  0  0  0  0  0  0
    3.0785    1.0316    0.6735 H   0  0  0  0  0  0  0  0  0  0  0  0
  1  2  1  0
  1  8  1  0
  1  9  1  0
  1 10  1  0
  2  3  2  3
  2 11  1  0
  3  4  1  0
  3 12  1  0
  4  5  1  0
  5  7  1  0
  5  6  1  0
  6 13  1  0
  6 14  1  0
  7 15  1  0
  7 16  1  0
  7 17  1  0
M  END
>  <reaction>  (1) 
rmg_rxn_16791

>  <mol_properties>  (1) 
{"5": {"label": "donator", "atom_type": "N3s"}, "12": {"label": "d_hydrogen", "atom_type": "H0"}}

>  <type>  (1) 
r1h

$$$$

     RDKit          3D

  7  6  0  0  0  0  0  0  0  0999 V2000
    1.1443   -0.1870   -0.0026 C   0  0  0  0  0  0  0  0  0  0  0  0
   -0.1897    0.4747   -0.0008 C   0  0  0  0  0  0  0  0  0  0  0  0
   -1.4128   -0.3182   -0.0012 N   0  0  0  0  0  2  0  0  0  0  0  0
    1.7295    0.1072   -0.8768 H   0  0  0  0  0  0  0  0  0  0  0  0
    1.0018   -1.2707   -0.0040 H   0  0  0  0  0  0  0  0  0  0  0  0
    1.6793    0.0928    0.9085 H   0  0  0  0  0  0  0  0  0  0  0  0
   -0.2483    1.5721    0.0008 H   0  0  0  0  0  0  0  0  0  0  0  0
  1  2  1  0
  1  4  1  0
  1  5  1  0
  1  6  1  0
  2  3  2  0
  2  7  1  0
M  RAD  1   3   2
M  END
>  <reaction>  (2) 
rmg_rxn_16791

>  <mol_properties>  (2) 
{"2": {"label": "acceptor", "atom_type": "N3d"}}

>  <type>  (2) 
r2

$$$$

     RDKit          3D

  8  7  0  0  0  0  0  0  0  0999 V2000
    1.2099   -0.1388    0.0025 C   0  0  0  0  0  0  0  0  0  0  0  0
   -0.1788    0.4141    0.0007 C   0  0  0  0  0  0  0  0  0  0  0  0
   -1.2100   -0.3603    0.0013 N   0  0  0  0  0  0  0  0  0  0  0  0
    1.7355    0.2223   -0.8851 H   0  0  0  0  0  0  0  0  0  0  0  0
    1.7521    0.1663    0.9007 H   0  0  0  0  0  0  0  0  0  0  0  0
    1.1564   -1.2296   -0.0424 H   0  0  0  0  0  0  0  0  0  0  0  0
   -0.2911    1.5112   -0.0010 H   0  0  0  0  0  0  0  0  0  0  0  0
   -2.0699    0.2005   -0.0002 H   0  0  0  0  0  0  0  0  0  0  0  0
  1  2  1  0
  1  4  1  0
  1  5  1  0
  1  6  1  0
  2  3  2  3
  2  7  1  0
  3  8  1  0
M  END
>  <reaction>  (3) 
rmg_rxn_16791

>  <mol_properties>  (3) 
{"2": {"label": "acceptor", "atom_type": "N3d"}, "7": {"label": "a_hydrogen", "atom_type": "H0"}}

>  <type>  (3) 
r2h

$$$$

     RDKit          3D

 24 22  0  0  0  0  0  0  0  0999 V2000
   -4.1856   -0.9326    0.0034 C   0  0  0  0  0  0  0  0  0  0  0  0
   -2.8908   -0.2997   -0.3928 C   0  0  0  0  0  0  0  0  0  0  0  0
   -1.9021   -0.2203    0.4314 N   0  0  0  0  0  2  0  0  0  0  0  0
   -4.9866   -0.1968   -0.1043 H   0  0  0  0  0  0  0  0  0  0  0  0
   -4.1258   -1.2335    1.0524 H   0  0  0  0  0  0  0  0  0  0  0  0
   -4.4016   -1.8051   -0.6179 H   0  0  0  0  0  0  0  0  0  0  0  0
   -2.8101    0.0984   -1.4182 H   0  0  0  0  0  0  0  0  0  0  0  0
    2.2768   -2.4820   -0.7380 C   0  0  0  0  0  0  0  0  0  0  0  0
    2.0837   -1.8217    0.5876 C   0  0  0  0  0  0  0  0  0  0  0  0
    1.6203   -0.5791    0.7731 C   0  0  0  0  0  0  0  0  0  0  0  0
    1.2598    0.2533   -0.2580 O   0  0  0  0  0  0  0  0  0  0  0  0
    0.8114    1.5226    0.3028 N   0  0  0  0  0  0  0  0  0  0  0  0
   -0.5548    1.7751   -0.0629 N   0  0  0  0  0  0  0  0  0  0  0  0
    1.6624    2.5231   -0.3514 C   0  0  0  0  0  0  0  0  0  0  0  0
    3.3271   -2.7629   -0.8628 H   0  0  0  0  0  0  0  0  0  0  0  0
    1.9962   -1.8376   -1.5765 H   0  0  0  0  0  0  0  0  0  0  0  0
    1.6702   -3.3912   -0.7912 H   0  0  0  0  0  0  0  0  0  0  0  0
    2.3454   -2.4113    1.4626 H   0  0  0  0  0  0  0  0  0  0  0  0
    1.5008   -0.1526    1.7606 H   0  0  0  0  0  0  0  0  0  0  0  0
   -1.2268    0.7799    0.1836 H   0  0  0  0  0  0  0  0  0  0  0  0
   -0.9411    2.5154    0.5253 H   0  0  0  0  0  0  0  0  0  0  0  0
    1.5718    2.4952   -1.4440 H   0  0  0  0  0  0  0  0  0  0  0  0
    2.7128    2.3537   -0.0894 H   0  0  0  0  0  0  0  0  0  0  0  0
    1.4066    3.5317   -0.0070 H   0  0  0  0  0  0  0  0  0  0  0  0
  1  2  1  0
  1  4  1  0
  1  5  1  0
  1  6  1  0
  2  3  2  0
  2  7  1  0
  8  9  1  0
  8 15  1  0
  8 16  1  0
  8 17  1  0
  9 10  2  3
  9 18  1  0
 10 11  1  0
 10 19  1  0
 11 12  1  0
 12 14  1  0
 12 13  1  0
 13 20  1  0
 13 21  1  0
 14 22  1  0
 14 23  1  0
 14 24  1  0
M  RAD  1   3   2
M  END
>  <reaction>  (4) 
rmg_rxn_16791

>  <mol_properties>  (4) 
{"1": {"label": "*4", "atom_type": "Cd"}, "2": {"label": "*3", "atom_type": "N3d"}, "11": {"label": "*0", "atom_type": "N3s"}, "12": {"label": "*1", "atom_type": "N3s"}, "19": {"label": "*2", "atom_type": "H0"}}

>  <type>  (4) 
ts

$$$$
