
     RDKit          3D

  9  8  0  0  0  0  0  0  0  0999 V2000
   -1.5915   -0.3670   -0.0519 C   0  0  0  0  0  0  0  0  0  0  0  0
   -0.4922    0.6696    0.0849 C   0  0  0  0  0  0  0  0  0  0  0  0
    1.1414   -0.1015   -0.0812 S   0  0  0  0  0  0  0  0  0  0  0  0
   -1.5200   -1.1346    0.7261 H   0  0  0  0  0  0  0  0  0  0  0  0
   -1.5611   -0.8586   -1.0302 H   0  0  0  0  0  0  0  0  0  0  0  0
   -2.5706    0.1134    0.0467 H   0  0  0  0  0  0  0  0  0  0  0  0
   -0.5531    1.1600    1.0610 H   0  0  0  0  0  0  0  0  0  0  0  0
   -0.5982    1.4362   -0.6885 H   0  0  0  0  0  0  0  0  0  0  0  0
    1.0422   -0.9077    0.9861 H   0  0  0  0  0  0  0  0  0  0  0  0
  1  2  1  0
  1  4  1  0
  1  5  1  0
  1  6  1  0
  2  3  1  0
  2  7  1  0
  2  8  1  0
  3  9  1  0
M  END
>  <reaction>  (1) 
rmg_rxn_1339

>  <mol_properties>  (1) 
{"2": {"label": "donator", "atom_type": "S2s"}, "8": {"label": "d_hydrogen", "atom_type": "H0"}}

>  <type>  (1) 
r1h

$$$$

     RDKit          3D

 13 12  0  0  0  0  0  0  0  0999 V2000
   -2.7070   -0.4344   -0.2055 C   0  0  0  0  0  3  0  0  0  0  0  0
   -1.6720    0.4487    0.0704 O   0  0  0  0  0  0  0  0  0  0  0  0
   -0.3991   -0.2089    0.0000 C   0  0  0  0  0  0  0  0  0  0  0  0
    0.6760    0.8635    0.0035 C   0  0  0  0  0  0  0  0  0  0  0  0
    2.0575    0.2721   -0.0091 C   0  0  0  0  0  0  0  0  0  0  0  0
    2.2973   -0.9310   -0.0033 O   0  0  0  0  0  0  0  0  0  0  0  0
   -3.6755    0.0422    0.2382 H   0  0  0  0  0  0  0  0  0  0  0  0
   -2.5094   -1.4767    0.5114 H   0  0  0  0  0  0  0  0  0  0  0  0
   -0.3167   -0.8506   -0.8718 H   0  0  0  0  0  0  0  0  0  0  0  0
   -0.2954   -0.8300    0.9139 H   0  0  0  0  0  0  0  0  0  0  0  0
    0.5688    1.4911   -0.8987 H   0  0  0  0  0  0  0  0  0  0  0  0
    0.5799    1.5212    0.8631 H   0  0  0  0  0  0  0  0  0  0  0  0
    2.8808    1.0068   -0.0260 H   0  0  0  0  0  0  0  0  0  0  0  0
  1  2  1  0
  1  7  1  0
  1  8  1  0
  2  3  1  0
  3  4  1  0
  3  9  1  0
  3 10  1  0
  4  5  1  0
  4 11  1  0
  4 12  1  0
  5  6  2  0
  5 13  1  0
M  RAD  1   1   2
M  END
>  <reaction>  (2) 
rmg_rxn_1339

>  <mol_properties>  (2) 
{"0": {"label": "acceptor", "atom_type": "Cs"}}

>  <type>  (2) 
r2

$$$$

     RDKit          3D

 14 13  0  0  0  0  0  0  0  0999 V2000
    2.6835   -0.4133    0.0000 C   0  0  0  0  0  0  0  0  0  0  0  0
    1.5970    0.5046    0.0000 O   0  0  0  0  0  0  0  0  0  0  0  0
    0.3396   -0.1741   -0.0000 C   0  0  0  0  0  0  0  0  0  0  0  0
   -0.7603    0.8710    0.0000 C   0  0  0  0  0  0  0  0  0  0  0  0
   -2.1280    0.2478    0.0000 C   0  0  0  0  0  0  0  0  0  0  0  0
   -2.3411   -0.9603    0.0000 O   0  0  0  0  0  0  0  0  0  0  0  0
    2.6563   -1.0389   -0.8974 H   0  0  0  0  0  0  0  0  0  0  0  0
    2.6563   -1.0389    0.8974 H   0  0  0  0  0  0  0  0  0  0  0  0
    3.6159    0.1574    0.0000 H   0  0  0  0  0  0  0  0  0  0  0  0
    0.2658   -0.8093   -0.8908 H   0  0  0  0  0  0  0  0  0  0  0  0
    0.2658   -0.8093    0.8908 H   0  0  0  0  0  0  0  0  0  0  0  0
   -0.6740    1.5163   -0.8809 H   0  0  0  0  0  0  0  0  0  0  0  0
   -0.6740    1.5163    0.8809 H   0  0  0  0  0  0  0  0  0  0  0  0
   -2.9678    0.9638   -0.0000 H   0  0  0  0  0  0  0  0  0  0  0  0
  1  2  1  0
  1  7  1  0
  1  8  1  0
  1  9  1  0
  2  3  1  0
  3  4  1  0
  3 10  1  0
  3 11  1  0
  4  5  1  0
  4 12  1  0
  4 13  1  0
  5  6  2  0
  5 14  1  0
M  END
>  <reaction>  (3) 
rmg_rxn_1339

>  <mol_properties>  (3) 
{"0": {"label": "a_hydrogen", "atom_type": "H0"}, "1": {"label": "acceptor", "atom_type": "Cs"}}

>  <type>  (3) 
r2h

$$$$

     RDKit          3D

 22 20  0  0  0  0  0  0  0  0999 V2000
   -3.6328    0.2956    0.9952 C   0  0  0  0  0  0  0  0  0  0  0  0
   -3.3790   -0.6107   -0.1946 C   0  0  0  0  0  0  0  0  0  0  0  0
   -1.6308   -1.0884   -0.2762 S   0  0  0  0  0  1  0  0  0  0  0  0
   -3.0515    1.2214    0.9273 H   0  0  0  0  0  0  0  0  0  0  0  0
   -3.3866   -0.2019    1.9394 H   0  0  0  0  0  0  0  0  0  0  0  0
   -4.6917    0.5723    1.0333 H   0  0  0  0  0  0  0  0  0  0  0  0
   -3.6488   -0.1004   -1.1241 H   0  0  0  0  0  0  0  0  0  0  0  0
   -3.9867   -1.5170   -0.1150 H   0  0  0  0  0  0  0  0  0  0  0  0
   -1.0407    0.3957   -0.4751 H   0  0  0  0  0  0  0  0  0  0  0  0
   -0.5592    1.6065   -0.6374 C   0  0  0  0  0  0  0  0  0  0  0  0
    0.7430    1.7040   -0.0737 O   0  0  0  0  0  0  0  0  0  0  0  0
    1.4534    0.4691   -0.1827 C   0  0  0  0  0  0  0  0  0  0  0  0
    2.8247    0.6574    0.4386 C   0  0  0  0  0  0  0  0  0  0  0  0
    3.6500   -0.5968    0.3703 C   0  0  0  0  0  0  0  0  0  0  0  0
    3.2702   -1.6524   -0.1262 O   0  0  0  0  0  0  0  0  0  0  0  0
   -1.0551    2.5745   -0.5270 H   0  0  0  0  0  0  0  0  0  0  0  0
   -0.4982    1.3642   -1.7027 H   0  0  0  0  0  0  0  0  0  0  0  0
    1.5454    0.1911   -1.2394 H   0  0  0  0  0  0  0  0  0  0  0  0
    0.8998   -0.3198    0.3404 H   0  0  0  0  0  0  0  0  0  0  0  0
    3.3691    1.4583   -0.0733 H   0  0  0  0  0  0  0  0  0  0  0  0
    2.7306    0.9530    1.4891 H   0  0  0  0  0  0  0  0  0  0  0  0
    4.6596   -0.5164    0.8089 H   0  0  0  0  0  0  0  0  0  0  0  0
  1  2  1  0
  1  4  1  0
  1  5  1  0
  1  6  1  0
  2  3  1  0
  2  7  1  0
  2  8  1  0
  9 10  1  0
 10 11  1  0
 10 16  1  0
 10 17  1  0
 11 12  1  0
 12 13  1  0
 12 18  1  0
 12 19  1  0
 13 14  1  0
 13 20  1  0
 13 21  1  0
 14 15  2  0
 14 22  1  0
M  RAD  1   3   2
M  END
>  <reaction>  (4) 
rmg_rxn_1339

>  <mol_properties>  (4) 
{"1": {"label": "*4", "atom_type": "Cs"}, "2": {"label": "*3", "atom_type": "S2s"}, "8": {"label": "*2", "atom_type": "H0"}, "9": {"label": "*1", "atom_type": "Cs"}, "10": {"label": "*0", "atom_type": "O2s"}}

>  <type>  (4) 
ts

$$$$
