
     RDKit          3D

 10  9  0  0  0  0  0  0  0  0999 V2000
    2.0404   -0.0573    0.0122 C   0  0  0  0  0  0  0  0  0  0  0  0
    0.5946   -0.0168    0.1900 C   0  0  0  0  0  0  0  0  0  0  0  0
   -0.5945    0.0167    0.3361 C   0  0  0  0  0  0  0  0  0  0  0  0
   -2.0404    0.0573    0.5136 C   0  0  0  0  0  0  0  0  0  0  0  0
    2.4743    0.9378    0.1231 H   0  0  0  0  0  0  0  0  0  0  0  0
    2.3003   -0.4299   -0.9801 H   0  0  0  0  0  0  0  0  0  0  0  0
    2.5053   -0.7123    0.7509 H   0  0  0  0  0  0  0  0  0  0  0  0
   -2.3752    1.0686    0.7507 H   0  0  0  0  0  0  0  0  0  0  0  0
   -2.3514   -0.6004    1.3270 H   0  0  0  0  0  0  0  0  0  0  0  0
   -2.5533   -0.2636   -0.3947 H   0  0  0  0  0  0  0  0  0  0  0  0
  1  2  1  0
  1  5  1  0
  1  6  1  0
  1  7  1  0
  2  3  3  0
  3  4  1  0
  4  8  1  0
  4  9  1  0
  4 10  1  0
M  END
>  <reaction>  (1) 
rmg_rxn_31

>  <mol_properties>  (1) 
{"3": {"label": "donator", "atom_type": "Cs"}, "9": {"label": "d_hydrogen", "atom_type": "H0"}}

>  <type>  (1) 
r1h

$$$$

     RDKit          3D

 13 12  0  0  0  0  0  0  0  0999 V2000
    2.0654   -0.2739   -0.0844 C   0  0  0  0  0  3  0  0  0  0  0  0
    0.6326   -0.4110   -0.4406 C   0  0  0  0  0  0  0  0  0  0  0  0
   -0.3055    0.4151    0.4359 C   0  0  0  0  0  0  0  0  0  0  0  0
   -1.7714    0.2357    0.0671 C   0  0  0  0  0  0  0  0  0  0  0  0
    2.3610    0.0676    0.8995 H   0  0  0  0  0  0  0  0  0  0  0  0
    2.8408   -0.6127   -0.7582 H   0  0  0  0  0  0  0  0  0  0  0  0
    0.3313   -1.4695   -0.3768 H   0  0  0  0  0  0  0  0  0  0  0  0
    0.4826   -0.1432   -1.4940 H   0  0  0  0  0  0  0  0  0  0  0  0
   -0.1518    0.1351    1.4826 H   0  0  0  0  0  0  0  0  0  0  0  0
   -0.0303    1.4705    0.3565 H   0  0  0  0  0  0  0  0  0  0  0  0
   -2.0768   -0.8084    0.1692 H   0  0  0  0  0  0  0  0  0  0  0  0
   -1.9546    0.5339   -0.9679 H   0  0  0  0  0  0  0  0  0  0  0  0
   -2.4194    0.8370    0.7066 H   0  0  0  0  0  0  0  0  0  0  0  0
  1  2  1  0
  1  5  1  0
  1  6  1  0
  2  3  1  0
  2  7  1  0
  2  8  1  0
  3  4  1  0
  3  9  1  0
  3 10  1  0
  4 11  1  0
  4 12  1  0
  4 13  1  0
M  RAD  1   1   2
M  END
>  <reaction>  (2) 
rmg_rxn_31

>  <mol_properties>  (2) 
{"0": {"label": "acceptor", "atom_type": "Cs"}}

>  <type>  (2) 
r2

$$$$

     RDKit          3D

 14 13  0  0  0  0  0  0  0  0999 V2000
    1.8106   -0.5953    0.5577 C   0  0  0  0  0  0  0  0  0  0  0  0
    0.5197    0.2064    0.6554 C   0  0  0  0  0  0  0  0  0  0  0  0
   -0.5206   -0.2080   -0.3788 C   0  0  0  0  0  0  0  0  0  0  0  0
   -1.8114    0.5937   -0.2812 C   0  0  0  0  0  0  0  0  0  0  0  0
    2.2725   -0.4752   -0.4251 H   0  0  0  0  0  0  0  0  0  0  0  0
    1.6214   -1.6612    0.7052 H   0  0  0  0  0  0  0  0  0  0  0  0
    2.5364   -0.2784    1.3084 H   0  0  0  0  0  0  0  0  0  0  0  0
    0.0930    0.0950    1.6574 H   0  0  0  0  0  0  0  0  0  0  0  0
    0.7393    1.2723    0.5354 H   0  0  0  0  0  0  0  0  0  0  0  0
   -0.7402   -1.2739   -0.2588 H   0  0  0  0  0  0  0  0  0  0  0  0
   -0.0938   -0.0965   -1.3808 H   0  0  0  0  0  0  0  0  0  0  0  0
   -1.6222    1.6596   -0.4287 H   0  0  0  0  0  0  0  0  0  0  0  0
   -2.2734    0.4736    0.7017 H   0  0  0  0  0  0  0  0  0  0  0  0
   -2.5373    0.2768   -1.0318 H   0  0  0  0  0  0  0  0  0  0  0  0
  1  2  1  0
  1  5  1  0
  1  6  1  0
  1  7  1  0
  2  3  1  0
  2  8  1  0
  2  9  1  0
  3  4  1  0
  3 10  1  0
  3 11  1  0
  4 12  1  0
  4 13  1  0
  4 14  1  0
M  END
>  <reaction>  (3) 
rmg_rxn_31

>  <mol_properties>  (3) 
{"0": {"label": "a_hydrogen", "atom_type": "H0"}, "1": {"label": "acceptor", "atom_type": "Cs"}}

>  <type>  (3) 
r2h

$$$$

     RDKit          3D

 23 21  0  0  0  0  0  0  0  0999 V2000
    0.6963    1.7155   -2.7611 C   0  0  0  0  0  0  0  0  0  0  0  0
   -0.4297    1.2000   -1.9957 C   0  0  0  0  0  0  0  0  0  0  0  0
   -1.3639    0.7765   -1.3662 C   0  0  0  0  0  0  0  0  0  0  0  0
   -2.4178    0.2419   -0.5644 C   0  0  0  0  0  0  0  0  0  0  0  0
    0.6337    2.8001   -2.8660 H   0  0  0  0  0  0  0  0  0  0  0  0
    0.7205    1.2802   -3.7617 H   0  0  0  0  0  0  0  0  0  0  0  0
    1.6423    1.4795   -2.2687 H   0  0  0  0  0  0  0  0  0  0  0  0
   -3.0042   -0.5339   -1.0535 H   0  0  0  0  0  0  0  0  0  0  0  0
   -3.0540    0.9936   -0.1007 H   0  0  0  0  0  0  0  0  0  0  0  0
   -1.8780   -0.3729    0.4488 H   0  0  0  0  0  0  0  0  0  0  0  0
   -1.2034   -1.0017    1.4990 C   0  0  0  0  0  3  0  0  0  0  0  0
    0.2483   -0.7034    1.2573 C   0  0  0  0  0  0  0  0  0  0  0  0
    1.1775   -1.3189    2.3072 C   0  0  0  0  0  0  0  0  0  0  0  0
    2.6446   -1.0048    2.0443 C   0  0  0  0  0  0  0  0  0  0  0  0
   -1.6387   -0.5411    2.3845 H   0  0  0  0  0  0  0  0  0  0  0  0
   -1.4946   -2.0452    1.3893 H   0  0  0  0  0  0  0  0  0  0  0  0
    0.4011    0.3803    1.2358 H   0  0  0  0  0  0  0  0  0  0  0  0
    0.5367   -1.0678    0.2663 H   0  0  0  0  0  0  0  0  0  0  0  0
    0.8930   -0.9526    3.2981 H   0  0  0  0  0  0  0  0  0  0  0  0
    1.0295   -2.4028    2.3265 H   0  0  0  0  0  0  0  0  0  0  0  0
    2.8201    0.0735    2.0485 H   0  0  0  0  0  0  0  0  0  0  0  0
    2.9574   -1.3870    1.0698 H   0  0  0  0  0  0  0  0  0  0  0  0
    3.2903   -1.4517    2.8020 H   0  0  0  0  0  0  0  0  0  0  0  0
  1  2  1  0
  1  5  1  0
  1  6  1  0
  1  7  1  0
  2  3  3  0
  3  4  1  0
  4  8  1  0
  4  9  1  0
  4 10  1  0
 11 12  1  0
 11 15  1  0
 11 16  1  0
 12 13  1  0
 12 17  1  0
 12 18  1  0
 13 14  1  0
 13 19  1  0
 13 20  1  0
 14 21  1  0
 14 22  1  0
 14 23  1  0
M  RAD  1  11   2
M  END
>  <reaction>  (4) 
rmg_rxn_31

>  <mol_properties>  (4) 
{"2": {"label": "*0", "atom_type": "Ct"}, "3": {"label": "*1", "atom_type": "Cs"}, "9": {"label": "*2", "atom_type": "H0"}, "10": {"label": "*3", "atom_type": "Cs"}, "11": {"label": "*4", "atom_type": "Cs"}}

>  <type>  (4) 
ts

$$$$
