
     RDKit          3D

 14 13  0  0  0  0  0  0  0  0999 V2000
    1.8106   -0.5953    0.5577 C   0  0  0  0  0  0  0  0  0  0  0  0
    0.5197    0.2064    0.6554 C   0  0  0  0  0  0  0  0  0  0  0  0
   -0.5206   -0.2080   -0.3788 C   0  0  0  0  0  0  0  0  0  0  0  0
   -1.8114    0.5937   -0.2812 C   0  0  0  0  0  0  0  0  0  0  0  0
    2.2725   -0.4752   -0.4251 H   0  0  0  0  0  0  0  0  0  0  0  0
    1.6214   -1.6612    0.7052 H   0  0  0  0  0  0  0  0  0  0  0  0
    2.5364   -0.2784    1.3084 H   0  0  0  0  0  0  0  0  0  0  0  0
    0.0930    0.0950    1.6574 H   0  0  0  0  0  0  0  0  0  0  0  0
    0.7393    1.2723    0.5354 H   0  0  0  0  0  0  0  0  0  0  0  0
   -0.7402   -1.2739   -0.2588 H   0  0  0  0  0  0  0  0  0  0  0  0
   -0.0938   -0.0965   -1.3808 H   0  0  0  0  0  0  0  0  0  0  0  0
   -1.6222    1.6596   -0.4287 H   0  0  0  0  0  0  0  0  0  0  0  0
   -2.2734    0.4736    0.7017 H   0  0  0  0  0  0  0  0  0  0  0  0
   -2.5373    0.2768   -1.0318 H   0  0  0  0  0  0  0  0  0  0  0  0
  1  2  1  0
  1  5  1  0
  1  6  1  0
  1  7  1  0
  2  3  1  0
  2  8  1  0
  2  9  1  0
  3  4  1  0
  3 10  1  0
  3 11  1  0
  4 12  1  0
  4 13  1  0
  4 14  1  0
M  END
>  <reaction>  (1) 
rmg_rxn_302

>  <mol_properties>  (1) 
{"3": {"label": "donator", "atom_type": "Cs"}, "12": {"label": "d_hydrogen", "atom_type": "H0"}}

>  <type>  (1) 
r1h

$$$$

     RDKit          3D

 11 10  0  0  0  0  0  0  0  0999 V2000
   -1.2230    0.3768   -0.0849 C   0  0  0  0  0  0  0  0  0  0  0  0
   -0.0734   -0.5533    0.2746 C   0  0  0  0  0  0  0  0  0  0  0  0
   -0.0853   -1.8426   -0.5372 C   0  0  0  0  0  0  0  0  0  0  0  0
    0.0319   -1.6944   -1.8815 O   0  0  0  0  0  1  0  0  0  0  0  0
   -2.1874   -0.0885    0.1341 H   0  0  0  0  0  0  0  0  0  0  0  0
   -1.1670    1.3099    0.4765 H   0  0  0  0  0  0  0  0  0  0  0  0
   -1.2014    0.6189   -1.1483 H   0  0  0  0  0  0  0  0  0  0  0  0
    0.8834   -0.0518    0.1071 H   0  0  0  0  0  0  0  0  0  0  0  0
   -0.1104   -0.8149    1.3362 H   0  0  0  0  0  0  0  0  0  0  0  0
    0.6767   -2.5604   -0.1861 H   0  0  0  0  0  0  0  0  0  0  0  0
   -1.0401   -2.3871   -0.3877 H   0  0  0  0  0  0  0  0  0  0  0  0
  1  2  1  0
  1  5  1  0
  1  6  1  0
  1  7  1  0
  2  3  1  0
  2  8  1  0
  2  9  1  0
  3  4  1  0
  3 10  1  0
  3 11  1  0
M  RAD  1   4   2
M  END
>  <reaction>  (2) 
rmg_rxn_302

>  <mol_properties>  (2) 
{"3": {"label": "acceptor", "atom_type": "O2s"}}

>  <type>  (2) 
r2

$$$$

     RDKit          3D

 12 11  0  0  0  0  0  0  0  0999 V2000
   -1.4643   -0.2505   -0.5284 C   0  0  0  0  0  0  0  0  0  0  0  0
   -0.3946    0.4302    0.3143 C   0  0  0  0  0  0  0  0  0  0  0  0
   -0.5959    0.2382    1.8102 C   0  0  0  0  0  0  0  0  0  0  0  0
   -0.5633   -1.1190    2.2092 O   0  0  0  0  0  0  0  0  0  0  0  0
   -2.4511    0.1644   -0.3109 H   0  0  0  0  0  0  0  0  0  0  0  0
   -1.5019   -1.3198   -0.3181 H   0  0  0  0  0  0  0  0  0  0  0  0
   -1.2720   -0.1182   -1.5941 H   0  0  0  0  0  0  0  0  0  0  0  0
    0.5965    0.0515    0.0385 H   0  0  0  0  0  0  0  0  0  0  0  0
   -0.3776    1.5047    0.1078 H   0  0  0  0  0  0  0  0  0  0  0  0
   -1.5821    0.6048    2.1034 H   0  0  0  0  0  0  0  0  0  0  0  0
    0.1495    0.8220    2.3649 H   0  0  0  0  0  0  0  0  0  0  0  0
    0.3017   -1.4750    1.9997 H   0  0  0  0  0  0  0  0  0  0  0  0
  1  2  1  0
  1  5  1  0
  1  6  1  0
  1  7  1  0
  2  3  1  0
  2  8  1  0
  2  9  1  0
  3  4  1  0
  3 10  1  0
  3 11  1  0
  4 12  1  0
M  END
>  <reaction>  (3) 
rmg_rxn_302

>  <mol_properties>  (3) 
{"3": {"label": "acceptor", "atom_type": "O2s"}, "11": {"label": "a_hydrogen", "atom_type": "H0"}}

>  <type>  (3) 
r2h

$$$$

     RDKit          3D

 25 23  0  0  0  0  0  0  0  0999 V2000
   -0.7547    0.9016    3.5252 C   0  0  0  0  0  0  0  0  0  0  0  0
   -0.0500   -0.1507    2.6813 C   0  0  0  0  0  0  0  0  0  0  0  0
   -0.8128   -0.5041    1.4107 C   0  0  0  0  0  0  0  0  0  0  0  0
   -1.0459    0.5802    0.5636 O   0  0  0  0  0  0  0  0  0  0  0  0
   -1.7299    0.5420    3.8623 H   0  0  0  0  0  0  0  0  0  0  0  0
   -0.1685    1.1581    4.4088 H   0  0  0  0  0  0  0  0  0  0  0  0
   -0.9180    1.8115    2.9468 H   0  0  0  0  0  0  0  0  0  0  0  0
    0.9472    0.2030    2.4014 H   0  0  0  0  0  0  0  0  0  0  0  0
    0.0958   -1.0677    3.2604 H   0  0  0  0  0  0  0  0  0  0  0  0
   -0.3076   -1.3203    0.8758 H   0  0  0  0  0  0  0  0  0  0  0  0
   -1.8139   -0.8756    1.6709 H   0  0  0  0  0  0  0  0  0  0  0  0
    0.3970   -1.0172   -3.6979 C   0  0  0  0  0  0  0  0  0  0  0  0
    0.5638   -0.7020   -2.2182 C   0  0  0  0  0  0  0  0  0  0  0  0
    0.9816    0.7424   -1.9641 C   0  0  0  0  0  0  0  0  0  0  0  0
    1.1727    1.0593   -0.5053 C   0  0  0  0  0  3  0  0  0  0  0  0
    1.3301   -0.8556   -4.2430 H   0  0  0  0  0  0  0  0  0  0  0  0
   -0.3655   -0.3784   -4.1493 H   0  0  0  0  0  0  0  0  0  0  0  0
    0.0958   -2.0544   -3.8519 H   0  0  0  0  0  0  0  0  0  0  0  0
   -0.3745   -0.8914   -1.6901 H   0  0  0  0  0  0  0  0  0  0  0  0
    1.3100   -1.3730   -1.7801 H   0  0  0  0  0  0  0  0  0  0  0  0
    0.2362    1.4195   -2.3916 H   0  0  0  0  0  0  0  0  0  0  0  0
    1.9196    0.9487   -2.4968 H   0  0  0  0  0  0  0  0  0  0  0  0
    1.8389    0.3744    0.0208 H   0  0  0  0  0  0  0  0  0  0  0  0
    0.0553    0.8905    0.0509 H   0  0  0  0  0  0  0  0  0  0  0  0
    1.4074    2.0988   -0.2815 H   0  0  0  0  0  0  0  0  0  0  0  0
  1  2  1  0
  1  5  1  0
  1  6  1  0
  1  7  1  0
  2  3  1  0
  2  8  1  0
  2  9  1  0
  3  4  1  0
  3 10  1  0
  3 11  1  0
  4 24  1  0
 12 13  1  0
 12 16  1  0
 12 17  1  0
 12 18  1  0
 13 14  1  0
 13 19  1  0
 13 20  1  0
 14 15  1  0
 14 21  1  0
 14 22  1  0
 15 23  1  0
 15 25  1  0
M  RAD  1  15   2
M  END
>  <reaction>  (4) 
rmg_rxn_302

>  <mol_properties>  (4) 
{"2": {"label": "*0", "atom_type": "Cs"}, "3": {"label": "*1", "atom_type": "O2s"}, "13": {"label": "*4", "atom_type": "Cs"}, "14": {"label": "*3", "atom_type": "Cs"}, "23": {"label": "*2", "atom_type": "H0"}}

>  <type>  (4) 
ts

$$$$
