
     RDKit          3D

 15 14  0  0  0  0  0  0  0  0999 V2000
   -2.0554    0.0723   -0.4910 C   0  0  0  0  0  0  0  0  0  0  0  0
   -0.7461   -0.6266   -0.8178 C   0  0  0  0  0  0  0  0  0  0  0  0
    0.3249    0.2591   -1.9782 S   0  0  0  0  0  0  0  0  0  0  0  0
   -0.7172    0.3642   -3.4551 C   0  0  0  0  0  0  0  0  0  0  0  0
   -1.1375   -0.9737   -4.0409 C   0  0  0  0  0  0  0  0  0  0  0  0
   -2.7005    0.1427   -1.3684 H   0  0  0  0  0  0  0  0  0  0  0  0
   -2.6016   -0.4848    0.2733 H   0  0  0  0  0  0  0  0  0  0  0  0
   -1.8758    1.0825   -0.1213 H   0  0  0  0  0  0  0  0  0  0  0  0
   -0.1320   -0.7246    0.0789 H   0  0  0  0  0  0  0  0  0  0  0  0
   -0.9254   -1.6374   -1.1879 H   0  0  0  0  0  0  0  0  0  0  0  0
   -1.5873    0.9874   -3.2422 H   0  0  0  0  0  0  0  0  0  0  0  0
   -0.1021    0.9161   -4.1678 H   0  0  0  0  0  0  0  0  0  0  0  0
   -1.7876   -1.5224   -3.3574 H   0  0  0  0  0  0  0  0  0  0  0  0
   -0.2676   -1.5962   -4.2534 H   0  0  0  0  0  0  0  0  0  0  0  0
   -1.6916   -0.8229   -4.9700 H   0  0  0  0  0  0  0  0  0  0  0  0
  1  2  1  0
  1  6  1  0
  1  7  1  0
  1  8  1  0
  2  3  1  0
  2  9  1  0
  2 10  1  0
  3  4  1  0
  4  5  1  0
  4 11  1  0
  4 12  1  0
  5 13  1  0
  5 14  1  0
  5 15  1  0
M  END
>  <reaction>  (1) 
rmg_rxn_668

>  <mol_properties>  (1) 
{"1": {"label": "donator", "atom_type": "Cs"}, "8": {"label": "d_hydrogen", "atom_type": "H0"}}

>  <type>  (1) 
r1h

$$$$

     RDKit          3D

 14 13  0  0  0  0  0  0  0  0999 V2000
    2.7687   -0.0362   -0.0732 C   0  0  0  0  0  3  0  0  0  0  0  0
    1.6543    0.2105    0.6386 O   0  0  0  0  0  0  0  0  0  0  0  0
    1.8652    0.6968    1.9544 C   0  0  0  0  0  0  0  0  0  0  0  0
    0.5252    0.9355    2.6156 C   0  0  0  0  0  0  0  0  0  0  0  0
   -0.2992    2.0181    1.9317 C   0  0  0  0  0  0  0  0  0  0  0  0
    2.5851   -0.4757   -1.0422 H   0  0  0  0  0  0  0  0  0  0  0  0
    3.6974   -0.2083    0.4611 H   0  0  0  0  0  0  0  0  0  0  0  0
    2.4441    1.6271    1.9039 H   0  0  0  0  0  0  0  0  0  0  0  0
    2.4506   -0.0397    2.5179 H   0  0  0  0  0  0  0  0  0  0  0  0
    0.7150    1.2089    3.6572 H   0  0  0  0  0  0  0  0  0  0  0  0
   -0.0287   -0.0066    2.6327 H   0  0  0  0  0  0  0  0  0  0  0  0
   -0.5056    1.7522    0.8949 H   0  0  0  0  0  0  0  0  0  0  0  0
   -1.2524    2.1635    2.4416 H   0  0  0  0  0  0  0  0  0  0  0  0
    0.2319    2.9729    1.9340 H   0  0  0  0  0  0  0  0  0  0  0  0
  1  2  1  0
  1  6  1  0
  1  7  1  0
  2  3  1  0
  3  4  1  0
  3  8  1  0
  3  9  1  0
  4  5  1  0
  4 10  1  0
  4 11  1  0
  5 12  1  0
  5 13  1  0
  5 14  1  0
M  RAD  1   1   2
M  END
>  <reaction>  (2) 
rmg_rxn_668

>  <mol_properties>  (2) 
{"0": {"label": "acceptor", "atom_type": "Cs"}}

>  <type>  (2) 
r2

$$$$

     RDKit          3D

 15 14  0  0  0  0  0  0  0  0999 V2000
   -1.2811   -0.4129    1.0228 C   0  0  0  0  0  0  0  0  0  0  0  0
   -1.0023   -0.5809   -0.4650 C   0  0  0  0  0  0  0  0  0  0  0  0
   -2.0576    0.0568   -1.3449 C   0  0  0  0  0  0  0  0  0  0  0  0
   -2.0663    1.4464   -1.1307 O   0  0  0  0  0  0  0  0  0  0  0  0
   -3.0424    2.1072   -1.8849 C   0  0  0  0  0  0  0  0  0  0  0  0
   -2.2382   -0.8657    1.2935 H   0  0  0  0  0  0  0  0  0  0  0  0
   -1.3219    0.6426    1.2914 H   0  0  0  0  0  0  0  0  0  0  0  0
   -0.5042   -0.8881    1.6236 H   0  0  0  0  0  0  0  0  0  0  0  0
   -0.0316   -0.1460   -0.7167 H   0  0  0  0  0  0  0  0  0  0  0  0
   -0.9494   -1.6429   -0.7203 H   0  0  0  0  0  0  0  0  0  0  0  0
   -1.8518   -0.1570   -2.4041 H   0  0  0  0  0  0  0  0  0  0  0  0
   -3.0491   -0.3636   -1.1124 H   0  0  0  0  0  0  0  0  0  0  0  0
   -4.0521    1.7545   -1.6343 H   0  0  0  0  0  0  0  0  0  0  0  0
   -2.8850    1.9634   -2.9626 H   0  0  0  0  0  0  0  0  0  0  0  0
   -2.9730    3.1700   -1.6570 H   0  0  0  0  0  0  0  0  0  0  0  0
  1  2  1  0
  1  6  1  0
  1  7  1  0
  1  8  1  0
  2  3  1  0
  2  9  1  0
  2 10  1  0
  3  4  1  0
  3 11  1  0
  3 12  1  0
  4  5  1  0
  5 13  1  0
  5 14  1  0
  5 15  1  0
M  END
>  <reaction>  (3) 
rmg_rxn_668

>  <mol_properties>  (3) 
{"0": {"label": "acceptor", "atom_type": "Cs"}, "14": {"label": "a_hydrogen", "atom_type": "H0"}}

>  <type>  (3) 
r2h

$$$$

     RDKit          3D

 29 27  0  0  0  0  0  0  0  0999 V2000
   -1.8867   -0.8756   -0.8956 C   0  0  0  0  0  0  0  0  0  0  0  0
   -1.7856   -1.4040    0.3631 O   0  0  0  0  0  0  0  0  0  0  0  0
   -0.7758   -2.3871    0.4953 C   0  0  0  0  0  0  0  0  0  0  0  0
   -0.7470   -2.8789    1.9257 C   0  0  0  0  0  0  0  0  0  0  0  0
   -2.0392   -3.5605    2.3556 C   0  0  0  0  0  0  0  0  0  0  0  0
   -2.7271   -0.1867   -0.9455 H   0  0  0  0  0  0  0  0  0  0  0  0
   -1.8914   -1.6225   -1.6984 H   0  0  0  0  0  0  0  0  0  0  0  0
    0.1926   -1.9506    0.2228 H   0  0  0  0  0  0  0  0  0  0  0  0
   -0.9854   -3.2163   -0.1967 H   0  0  0  0  0  0  0  0  0  0  0  0
   -0.5318   -2.0283    2.5769 H   0  0  0  0  0  0  0  0  0  0  0  0
    0.0941   -3.5709    2.0214 H   0  0  0  0  0  0  0  0  0  0  0  0
   -1.9742   -3.9068    3.3880 H   0  0  0  0  0  0  0  0  0  0  0  0
   -2.8830   -2.8744    2.2806 H   0  0  0  0  0  0  0  0  0  0  0  0
   -2.2531   -4.4266    1.7244 H   0  0  0  0  0  0  0  0  0  0  0  0
   -0.1890    1.8108   -2.1823 C   0  0  0  0  0  0  0  0  0  0  0  0
    0.3038    0.6609   -1.3455 C   0  0  0  0  0  3  0  0  0  0  0  0
    0.8369    1.0172    0.3132 S   0  0  0  0  0  0  0  0  0  0  0  0
    2.2249    2.1610    0.0452 C   0  0  0  0  0  0  0  0  0  0  0  0
    3.3865    1.5709   -0.7349 C   0  0  0  0  0  0  0  0  0  0  0  0
    0.6223    2.4926   -2.4579 H   0  0  0  0  0  0  0  0  0  0  0  0
   -0.6333    1.4460   -3.1118 H   0  0  0  0  0  0  0  0  0  0  0  0
   -0.9398    2.3900   -1.6419 H   0  0  0  0  0  0  0  0  0  0  0  0
   -0.8099   -0.1345   -1.1329 H   0  0  0  0  0  0  0  0  0  0  0  0
    0.9700   -0.0211   -1.8732 H   0  0  0  0  0  0  0  0  0  0  0  0
    1.8502    3.0666   -0.4345 H   0  0  0  0  0  0  0  0  0  0  0  0
    2.5364    2.4396    1.0535 H   0  0  0  0  0  0  0  0  0  0  0  0
    3.0832    1.2976   -1.7471 H   0  0  0  0  0  0  0  0  0  0  0  0
    3.7696    0.6752   -0.2444 H   0  0  0  0  0  0  0  0  0  0  0  0
    4.1995    2.2962   -0.8163 H   0  0  0  0  0  0  0  0  0  0  0  0
  1  2  1  0
  1  6  1  0
  1  7  1  0
  1 23  1  0
  2  3  1  0
  3  4  1  0
  3  8  1  0
  3  9  1  0
  4  5  1  0
  4 10  1  0
  4 11  1  0
  5 12  1  0
  5 13  1  0
  5 14  1  0
 15 16  1  0
 15 20  1  0
 15 21  1  0
 15 22  1  0
 16 17  1  0
 16 24  1  0
 17 18  1  0
 18 19  1  0
 18 25  1  0
 18 26  1  0
 19 27  1  0
 19 28  1  0
 19 29  1  0
M  RAD  1  16   2
M  END
>  <reaction>  (4) 
rmg_rxn_668

>  <mol_properties>  (4) 
{"0": {"label": "*1", "atom_type": "Cs"}, "1": {"label": "*0", "atom_type": "O2s"}, "15": {"label": "*3", "atom_type": "Cs"}, "16": {"label": "*4", "atom_type": "S2s"}, "22": {"label": "*2", "atom_type": "H0"}}

>  <type>  (4) 
ts

$$$$
