
     RDKit          3D

  6  5  0  0  0  0  0  0  0  0999 V2000
   -0.4547   -0.0097   -0.0070 C   0  0  0  0  0  0  0  0  0  0  0  0
    0.8695   -0.1987   -0.6218 N   0  0  0  0  0  0  0  0  0  0  0  0
    1.0322   -1.2809   -1.0969 O   0  0  0  0  0  0  0  0  0  0  0  0
   -0.2820    0.2687    1.0347 H   0  0  0  0  0  0  0  0  0  0  0  0
   -1.0716   -0.9051   -0.0916 H   0  0  0  0  0  0  0  0  0  0  0  0
   -0.9130    0.8487   -0.5026 H   0  0  0  0  0  0  0  0  0  0  0  0
  1  2  1  0
  1  4  1  0
  1  5  1  0
  1  6  1  0
  2  3  2  0
M  END
>  <reaction>  (1) 
rmg_rxn_610

>  <mol_properties>  (1) 
{"0": {"label": "donator", "atom_type": "Cs"}, "3": {"label": "d_hydrogen", "atom_type": "H0"}}

>  <type>  (1) 
r1h

$$$$

     RDKit          3D

  8  7  0  0  0  0  0  0  0  0999 V2000
   -0.9728    0.1768    0.1542 C   0  0  0  0  0  0  0  0  0  0  0  0
    0.4518   -0.2348    0.0047 C   0  0  0  0  0  3  0  0  0  0  0  0
    1.3116    0.0208    0.9062 N   0  0  0  0  0  2  0  0  0  0  0  0
    2.5018   -0.1901    1.0428 O   0  0  0  0  0  1  0  0  0  0  0  0
   -1.2701    0.8423   -0.6593 H   0  0  0  0  0  0  0  0  0  0  0  0
   -1.6318   -0.6936    0.1212 H   0  0  0  0  0  0  0  0  0  0  0  0
   -1.1258    0.6936    1.1003 H   0  0  0  0  0  0  0  0  0  0  0  0
    0.7882   -0.7655   -0.8838 H   0  0  0  0  0  0  0  0  0  0  0  0
  1  2  1  0
  1  7  1  0
  1  6  1  0
  1  5  1  0
  2  3  1  0
  2  8  1  0
  3  4  1  0
M  RAD  3   2   2   3   2   4   2
M  END
>  <reaction>  (2) 
rmg_rxn_610

>  <mol_properties>  (2) 
{"3": {"label": "acceptor", "atom_type": "O2s"}}

>  <type>  (2) 
r2

$$$$

     RDKit          3D

  9  8  0  0  0  0  0  0  0  0999 V2000
   -1.2461    0.5037    0.0950 C   0  0  0  0  0  0  0  0  0  0  0  0
   -0.0155   -0.3334    0.0640 C   0  0  0  0  0  0  0  0  0  0  0  0
    1.0697    0.1457   -0.3733 N   0  0  0  0  0  0  0  0  0  0  0  0
    2.1001   -0.7834   -0.3224 O   0  0  0  0  0  0  0  0  0  0  0  0
   -2.0357    0.0440   -0.5039 H   0  0  0  0  0  0  0  0  0  0  0  0
   -1.6237    0.5897    1.1166 H   0  0  0  0  0  0  0  0  0  0  0  0
   -1.0397    1.4998   -0.2929 H   0  0  0  0  0  0  0  0  0  0  0  0
   -0.0537   -1.3634    0.4205 H   0  0  0  0  0  0  0  0  0  0  0  0
    2.8478   -0.2985   -0.6758 H   0  0  0  0  0  0  0  0  0  0  0  0
  1  2  1  0
  1  5  1  0
  1  6  1  0
  1  7  1  0
  2  3  2  3
  2  8  1  0
  3  4  1  0
  4  9  1  0
M  END
>  <reaction>  (3) 
rmg_rxn_610

>  <mol_properties>  (3) 
{"0": {"label": "a_hydrogen", "atom_type": "H0"}, "4": {"label": "acceptor", "atom_type": "O2s"}}

>  <type>  (3) 
r2h

$$$$

     RDKit          3D

 14 12  0  0  0  0  0  0  0  0999 V2000
    1.1523    0.7566   -1.1801 C   0  0  0  0  0  0  0  0  0  0  0  0
    0.8787   -0.3553   -0.4288 N   0  0  0  0  0  2  0  0  0  0  0  0
    0.3794   -1.3836   -0.7740 O   0  0  0  0  0  1  0  0  0  0  0  0
    0.2672    1.5415   -0.6621 H   0  0  0  0  0  0  0  0  0  0  0  0
    0.9869    0.6151   -2.2441 H   0  0  0  0  0  0  0  0  0  0  0  0
    2.0855    1.2233   -0.8806 H   0  0  0  0  0  0  0  0  0  0  0  0
   -0.8094   -0.9904    2.5764 C   0  0  0  0  0  0  0  0  0  0  0  0
   -1.0433    0.3448    1.9574 C   0  0  0  0  0  3  0  0  0  0  0  0
   -0.4411    0.6930    0.8968 N   0  0  0  0  0  2  0  0  0  0  0  0
   -0.5747    1.8133    0.2979 O   0  0  0  0  0  1  0  0  0  0  0  0
   -0.4357   -0.8793    3.5970 H   0  0  0  0  0  0  0  0  0  0  0  0
   -1.7424   -1.5559    2.6332 H   0  0  0  0  0  0  0  0  0  0  0  0
   -0.0887   -1.5661    1.9989 H   0  0  0  0  0  0  0  0  0  0  0  0
   -1.7433    1.0433    2.4128 H   0  0  0  0  0  0  0  0  0  0  0  0
  1  4  1  0
  1  2  1  0
  1  6  1  0
  1  5  1  0
  2  3  1  0
  7  8  1  0
  7 12  1  0
  7 13  1  0
  7 11  1  0
  8  9  1  0
  8 14  1  0
  9 10  1  0
M  RAD  5   2   2   3   2   8   2   9   2  10   2
M  END
>  <reaction>  (4) 
rmg_rxn_610

>  <mol_properties>  (4) 
{"0": {"label": "*1", "atom_type": "Cs"}, "1": {"label": "*0", "atom_type": "N3s"}, "3": {"label": "*2", "atom_type": "H0"}, "8": {"label": "*4", "atom_type": "N3s"}, "9": {"label": "*3", "atom_type": "O2s"}}

>  <type>  (4) 
ts

$$$$
