
     RDKit          3D

  8  7  0  0  0  0  0  0  0  0999 V2000
    0.9548    0.1194   -0.0790 C   0  0  0  0  0  0  0  0  0  0  0  0
   -0.4838   -0.2649    0.0193 C   0  0  0  0  0  0  0  0  0  0  0  0
   -0.8933   -1.1081    0.8664 N   0  0  0  0  0  0  0  0  0  0  0  0
    1.3360   -0.0983   -1.0800 H   0  0  0  0  0  0  0  0  0  0  0  0
    1.0698    1.1948    0.0786 H   0  0  0  0  0  0  0  0  0  0  0  0
    1.5426   -0.4219    0.6602 H   0  0  0  0  0  0  0  0  0  0  0  0
   -1.1575    0.2324   -0.6905 H   0  0  0  0  0  0  0  0  0  0  0  0
   -1.8989   -1.2455    0.7886 H   0  0  0  0  0  0  0  0  0  0  0  0
  1  2  1  0
  1  4  1  0
  1  5  1  0
  1  6  1  0
  2  3  2  3
  2  7  1  0
  3  8  1  0
M  END
>  <reaction>  (1) 
rmg_rxn_16524

>  <mol_properties>  (1) 
{"2": {"label": "donator", "atom_type": "N3d"}, "7": {"label": "d_hydrogen", "atom_type": "H0"}}

>  <type>  (1) 
r1h

$$$$

     RDKit          3D

 11 10  0  0  0  0  0  0  0  0999 V2000
   -1.9423    0.2880    0.5808 C   0  0  0  0  0  0  0  0  0  0  0  0
   -0.3826    1.1347    0.2736 S   0  0  0  0  0  0  0  0  0  0  0  0
   -0.0855    1.8779    1.9329 C   0  0  0  0  0  0  0  0  0  0  0  0
    0.1622    0.8686    2.9726 C   0  0  0  0  0  3  0  0  0  0  0  0
   -2.7113    0.9909    0.9035 H   0  0  0  0  0  0  0  0  0  0  0  0
   -1.8284   -0.5029    1.3208 H   0  0  0  0  0  0  0  0  0  0  0  0
   -2.2503   -0.1583   -0.3638 H   0  0  0  0  0  0  0  0  0  0  0  0
    0.7847    2.5160    1.7689 H   0  0  0  0  0  0  0  0  0  0  0  0
   -0.9380    2.5164    2.1676 H   0  0  0  0  0  0  0  0  0  0  0  0
    1.1155    0.3601    3.0172 H   0  0  0  0  0  0  0  0  0  0  0  0
   -0.6473    0.4888    3.5808 H   0  0  0  0  0  0  0  0  0  0  0  0
  1  2  1  0
  1  5  1  0
  1  6  1  0
  1  7  1  0
  2  3  1  0
  3  4  1  0
  3  8  1  0
  3  9  1  0
  4 10  1  0
  4 11  1  0
M  RAD  1   4   2
M  END
>  <reaction>  (2) 
rmg_rxn_16524

>  <mol_properties>  (2) 
{"3": {"label": "acceptor", "atom_type": "Cs"}}

>  <type>  (2) 
r2

$$$$

     RDKit          3D

 12 11  0  0  0  0  0  0  0  0999 V2000
    1.8075    0.1979    0.4695 C   0  0  0  0  0  0  0  0  0  0  0  0
    1.0072   -0.8859   -0.7259 S   0  0  0  0  0  0  0  0  0  0  0  0
   -0.7258   -0.6904   -0.2447 C   0  0  0  0  0  0  0  0  0  0  0  0
   -1.0856   -1.2776    1.1108 C   0  0  0  0  0  0  0  0  0  0  0  0
    1.7126   -0.1777    1.4878 H   0  0  0  0  0  0  0  0  0  0  0  0
    1.4024    1.2089    0.4095 H   0  0  0  0  0  0  0  0  0  0  0  0
    2.8647    0.2298    0.2095 H   0  0  0  0  0  0  0  0  0  0  0  0
   -1.2866   -1.1892   -1.0369 H   0  0  0  0  0  0  0  0  0  0  0  0
   -0.9814    0.3707   -0.2917 H   0  0  0  0  0  0  0  0  0  0  0  0
   -0.5492   -0.7768    1.9180 H   0  0  0  0  0  0  0  0  0  0  0  0
   -0.8418   -2.3397    1.1503 H   0  0  0  0  0  0  0  0  0  0  0  0
   -2.1545   -1.1604    1.3035 H   0  0  0  0  0  0  0  0  0  0  0  0
  1  2  1  0
  1  5  1  0
  1  6  1  0
  1  7  1  0
  2  3  1  0
  3  4  1  0
  3  8  1  0
  3  9  1  0
  4 10  1  0
  4 11  1  0
  4 12  1  0
M  END
>  <reaction>  (3) 
rmg_rxn_16524

>  <mol_properties>  (3) 
{"0": {"label": "a_hydrogen", "atom_type": "H0"}, "4": {"label": "acceptor", "atom_type": "Cs"}}

>  <type>  (3) 
r2h

$$$$

     RDKit          3D

 19 17  0  0  0  0  0  0  0  0999 V2000
    0.7453   -1.1601   -3.4540 C   0  0  0  0  0  0  0  0  0  0  0  0
    1.0047   -0.8596   -2.0105 C   0  0  0  0  0  0  0  0  0  0  0  0
    1.2441    0.3050   -1.6012 N   0  0  0  0  0  0  0  0  0  0  0  0
    1.4710   -1.8905   -3.8192 H   0  0  0  0  0  0  0  0  0  0  0  0
   -0.2460   -1.6060   -3.5653 H   0  0  0  0  0  0  0  0  0  0  0  0
    0.8068   -0.2545   -4.0546 H   0  0  0  0  0  0  0  0  0  0  0  0
    0.9600   -1.7134   -1.3231 H   0  0  0  0  0  0  0  0  0  0  0  0
    1.4050    0.2605   -0.4029 H   0  0  0  0  0  0  0  0  0  0  0  0
   -1.7765    0.6749    0.0020 C   0  0  0  0  0  0  0  0  0  0  0  0
   -1.1484   -0.5240    1.1938 S   0  0  0  0  0  0  0  0  0  0  0  0
    0.3689    0.3132    1.7370 C   0  0  0  0  0  0  0  0  0  0  0  0
    1.6004   -0.0209    0.9462 C   0  0  0  0  0  3  0  0  0  0  0  0
   -1.0531    0.8671   -0.7887 H   0  0  0  0  0  0  0  0  0  0  0  0
   -2.0428    1.6074    0.4997 H   0  0  0  0  0  0  0  0  0  0  0  0
   -2.6759    0.2425   -0.4354 H   0  0  0  0  0  0  0  0  0  0  0  0
    0.1793    1.3879    1.7450 H   0  0  0  0  0  0  0  0  0  0  0  0
    0.5042    0.0131    2.7814 H   0  0  0  0  0  0  0  0  0  0  0  0
    1.8466   -1.0809    0.9190 H   0  0  0  0  0  0  0  0  0  0  0  0
    2.4643    0.6059    1.1641 H   0  0  0  0  0  0  0  0  0  0  0  0
  1  2  1  0
  1  4  1  0
  1  5  1  0
  1  6  1  0
  2  3  2  3
  2  7  1  0
  3  8  1  0
  9 10  1  0
  9 13  1  0
  9 14  1  0
  9 15  1  0
 10 11  1  0
 11 12  1  0
 11 16  1  0
 11 17  1  0
 12 18  1  0
 12 19  1  0
M  RAD  1  12   2
M  END
>  <reaction>  (4) 
rmg_rxn_16524

>  <mol_properties>  (4) 
{"1": {"label": "*0", "atom_type": "Cd"}, "2": {"label": "*1", "atom_type": "N3d"}, "7": {"label": "*2", "atom_type": "H0"}, "10": {"label": "*4", "atom_type": "Cs"}, "11": {"label": "*3", "atom_type": "Cs"}}

>  <type>  (4) 
ts

$$$$
