
     RDKit          3D

 13 12  0  0  0  0  0  0  0  0999 V2000
   -1.8029   -0.2987    1.0940 C   0  0  0  0  0  0  0  0  0  0  0  0
   -0.9419    0.5805    0.2019 C   0  0  0  0  0  0  0  0  0  0  0  0
    0.3779   -0.0155   -0.1765 C   0  0  0  0  0  0  0  0  0  0  0  0
    0.7319   -1.1672    0.2072 N   0  0  0  0  0  0  0  0  0  0  0  0
    1.9284   -1.6649   -0.2437 N   0  0  0  0  0  0  0  0  0  0  0  0
   -1.2933   -0.5224    2.0314 H   0  0  0  0  0  0  0  0  0  0  0  0
   -2.0225   -1.2499    0.6092 H   0  0  0  0  0  0  0  0  0  0  0  0
   -2.7454    0.2007    1.3226 H   0  0  0  0  0  0  0  0  0  0  0  0
   -1.4810    0.8240   -0.7207 H   0  0  0  0  0  0  0  0  0  0  0  0
   -0.7543    1.5445    0.6880 H   0  0  0  0  0  0  0  0  0  0  0  0
    1.0313    0.5912   -0.8170 H   0  0  0  0  0  0  0  0  0  0  0  0
    2.2863   -2.3390    0.4129 H   0  0  0  0  0  0  0  0  0  0  0  0
    2.6214   -0.9567   -0.4648 H   0  0  0  0  0  0  0  0  0  0  0  0
  1  2  1  0
  1  6  1  0
  1  7  1  0
  1  8  1  0
  2  3  1  0
  2  9  1  0
  2 10  1  0
  3  4  2  3
  3 11  1  0
  4  5  1  0
  5 12  1  0
  5 13  1  0
M  END
>  <reaction>  (1) 
rmg_rxn_16735

>  <mol_properties>  (1) 
{"1": {"label": "donator", "atom_type": "Cs"}, "8": {"label": "d_hydrogen", "atom_type": "H0"}}

>  <type>  (1) 
r1h

$$$$

     RDKit          3D

  7  6  0  0  0  0  0  0  0  0999 V2000
   -0.6441   -0.1356    0.0624 C   0  0  0  0  0  0  0  0  0  0  0  0
    0.8523    0.0148   -0.0333 C   0  0  0  0  0  0  0  0  0  0  0  0
    1.6700   -0.6077    0.6603 N   0  0  0  0  0  2  0  0  0  0  0  0
   -1.0940    0.8275    0.3091 H   0  0  0  0  0  0  0  0  0  0  0  0
   -0.9104   -0.8656    0.8237 H   0  0  0  0  0  0  0  0  0  0  0  0
   -1.0427   -0.4545   -0.9022 H   0  0  0  0  0  0  0  0  0  0  0  0
    1.2362    0.7308   -0.7748 H   0  0  0  0  0  0  0  0  0  0  0  0
  1  2  1  0
  1  4  1  0
  1  5  1  0
  1  6  1  0
  2  3  2  0
  2  7  1  0
M  RAD  1   3   2
M  END
>  <reaction>  (2) 
rmg_rxn_16735

>  <mol_properties>  (2) 
{"2": {"label": "acceptor", "atom_type": "N3d"}}

>  <type>  (2) 
r2

$$$$

     RDKit          3D

  8  7  0  0  0  0  0  0  0  0999 V2000
    0.9548    0.1194   -0.0790 C   0  0  0  0  0  0  0  0  0  0  0  0
   -0.4838   -0.2649    0.0193 C   0  0  0  0  0  0  0  0  0  0  0  0
   -0.8933   -1.1081    0.8664 N   0  0  0  0  0  0  0  0  0  0  0  0
    1.3360   -0.0983   -1.0800 H   0  0  0  0  0  0  0  0  0  0  0  0
    1.0698    1.1948    0.0786 H   0  0  0  0  0  0  0  0  0  0  0  0
    1.5426   -0.4219    0.6602 H   0  0  0  0  0  0  0  0  0  0  0  0
   -1.1575    0.2324   -0.6905 H   0  0  0  0  0  0  0  0  0  0  0  0
   -1.8989   -1.2455    0.7886 H   0  0  0  0  0  0  0  0  0  0  0  0
  1  2  1  0
  1  4  1  0
  1  5  1  0
  1  6  1  0
  2  3  2  3
  2  7  1  0
  3  8  1  0
M  END
>  <reaction>  (3) 
rmg_rxn_16735

>  <mol_properties>  (3) 
{"2": {"label": "acceptor", "atom_type": "N3d"}, "7": {"label": "a_hydrogen", "atom_type": "H0"}}

>  <type>  (3) 
r2h

$$$$

     RDKit          3D

 20 18  0  0  0  0  0  0  0  0999 V2000
   -3.2098    0.9470   -0.3448 C   0  0  0  0  0  0  0  0  0  0  0  0
   -1.9118    0.2590   -0.0384 C   0  0  0  0  0  0  0  0  0  0  0  0
   -1.8475   -0.8013    0.6259 N   0  0  0  0  0  2  0  0  0  0  0  0
   -4.0480    0.4043    0.0879 H   0  0  0  0  0  0  0  0  0  0  0  0
   -3.3414    1.0199   -1.4266 H   0  0  0  0  0  0  0  0  0  0  0  0
   -3.1898    1.9651    0.0500 H   0  0  0  0  0  0  0  0  0  0  0  0
   -1.0030    0.7401   -0.4298 H   0  0  0  0  0  0  0  0  0  0  0  0
    0.8138   -1.9650   -0.8255 C   0  0  0  0  0  0  0  0  0  0  0  0
    0.7034   -1.3083    0.5277 C   0  0  0  0  0  0  0  0  0  0  0  0
    1.3256   -0.0067    0.7107 C   0  0  0  0  0  0  0  0  0  0  0  0
    1.6750    0.7276   -0.2777 N   0  0  0  0  0  0  0  0  0  0  0  0
    2.1299    1.9866   -0.0052 N   0  0  0  0  0  0  0  0  0  0  0  0
    0.1974   -2.8634   -0.8644 H   0  0  0  0  0  0  0  0  0  0  0  0
    1.8477   -2.2456   -1.0439 H   0  0  0  0  0  0  0  0  0  0  0  0
    0.4885   -1.2867   -1.6143 H   0  0  0  0  0  0  0  0  0  0  0  0
   -0.5726   -1.1138    0.6940 H   0  0  0  0  0  0  0  0  0  0  0  0
    0.8882   -1.9775    1.3682 H   0  0  0  0  0  0  0  0  0  0  0  0
    1.4350    0.3596    1.7386 H   0  0  0  0  0  0  0  0  0  0  0  0
    2.7397    2.3061   -0.7397 H   0  0  0  0  0  0  0  0  0  0  0  0
    2.5453    2.1045    0.9136 H   0  0  0  0  0  0  0  0  0  0  0  0
  1  2  1  0
  1  4  1  0
  1  5  1  0
  1  6  1  0
  2  3  2  0
  2  7  1  0
  8  9  1  0
  8 13  1  0
  8 14  1  0
  8 15  1  0
  9 10  1  0
  9 16  1  0
  9 17  1  0
 10 11  2  3
 10 18  1  0
 11 12  1  0
 12 19  1  0
 12 20  1  0
M  RAD  1   3   2
M  END
>  <reaction>  (4) 
rmg_rxn_16735

>  <mol_properties>  (4) 
{"1": {"label": "*4", "atom_type": "Cd"}, "2": {"label": "*3", "atom_type": "N3d"}, "8": {"label": "*1", "atom_type": "Cs"}, "9": {"label": "*0", "atom_type": "Cd"}, "15": {"label": "*2", "atom_type": "H0"}}

>  <type>  (4) 
ts

$$$$
