
     RDKit          3D

 18 17  0  0  0  0  0  0  0  0999 V2000
    1.2952   -1.2294    0.8974 C   0  0  0  0  0  0  0  0  0  0  0  0
    0.9866    0.0007    0.0906 C   0  0  0  0  0  0  0  0  0  0  0  0
    0.3534   -0.0733   -1.0557 C   0  0  0  0  0  0  0  0  0  0  0  0
   -0.2134   -0.1912   -2.2217 C   0  0  0  0  0  0  0  0  0  0  0  0
    1.4692    1.1933    0.6363 N   0  0  0  0  0  0  0  0  0  0  0  0
    1.0588    2.4466    0.0389 C   0  0  0  0  0  0  0  0  0  0  0  0
    1.6511    3.6217    0.7933 C   0  0  0  0  0  0  0  0  0  0  0  0
    2.3742   -1.3246    1.0379 H   0  0  0  0  0  0  0  0  0  0  0  0
    0.8319   -1.1664    1.8866 H   0  0  0  0  0  0  0  0  0  0  0  0
    0.9219   -2.1223    0.4017 H   0  0  0  0  0  0  0  0  0  0  0  0
    0.3708   -0.3040   -3.1311 H   0  0  0  0  0  0  0  0  0  0  0  0
   -1.2935   -0.1811   -2.3359 H   0  0  0  0  0  0  0  0  0  0  0  0
    1.4189    1.2001    1.6444 H   0  0  0  0  0  0  0  0  0  0  0  0
    1.4061    2.4525   -0.9971 H   0  0  0  0  0  0  0  0  0  0  0  0
   -0.0368    2.5320   -0.0010 H   0  0  0  0  0  0  0  0  0  0  0  0
    2.7405    3.5649    0.8051 H   0  0  0  0  0  0  0  0  0  0  0  0
    1.2988    3.6441    1.8280 H   0  0  0  0  0  0  0  0  0  0  0  0
    1.3588    4.5620    0.3252 H   0  0  0  0  0  0  0  0  0  0  0  0
  1  2  1  0
  1  8  1  0
  1  9  1  0
  1 10  1  0
  2  3  2  0
  2  5  1  0
  3  4  2  0
  4 11  1  0
  4 12  1  0
  5  6  1  0
  5 13  1  0
  6  7  1  0
  6 14  1  0
  6 15  1  0
  7 16  1  0
  7 17  1  0
  7 18  1  0
M  END
>  <reaction>  (1) 
rmg_rxn_15670

>  <mol_properties>  (1) 
{"4": {"label": "donator", "atom_type": "N3s"}, "12": {"label": "d_hydrogen", "atom_type": "H0"}}

>  <type>  (1) 
r1h

$$$$

     RDKit          3D

  8  7  0  0  0  0  0  0  0  0999 V2000
    1.7077   -0.1964   -0.0607 C   0  0  0  0  0  3  0  0  0  0  0  0
    0.4209   -0.4565    0.2808 O   0  0  0  0  0  0  0  0  0  0  0  0
   -0.4607    0.4385   -0.2968 N   0  0  0  0  0  0  0  0  0  0  0  0
   -1.6584    0.1416   -0.0244 C   0  0  0  0  0  0  0  0  0  0  0  0
    2.4163   -0.7685    0.5170 H   0  0  0  0  0  0  0  0  0  0  0  0
    1.9214    0.7645   -0.5045 H   0  0  0  0  0  0  0  0  0  0  0  0
   -2.4185    0.7953   -0.4307 H   0  0  0  0  0  0  0  0  0  0  0  0
   -1.9286   -0.7185    0.5831 H   0  0  0  0  0  0  0  0  0  0  0  0
  1  2  1  0
  1  5  1  0
  1  6  1  0
  2  3  1  0
  3  4  2  3
  4  7  1  0
  4  8  1  0
M  RAD  1   1   2
M  END
>  <reaction>  (2) 
rmg_rxn_15670

>  <mol_properties>  (2) 
{"0": {"label": "acceptor", "atom_type": "Cs"}}

>  <type>  (2) 
r2

$$$$

     RDKit          3D

  9  8  0  0  0  0  0  0  0  0999 V2000
   -1.5470   -0.0755   -0.1976 C   0  0  0  0  0  0  0  0  0  0  0  0
   -0.2885    0.4507    0.1749 O   0  0  0  0  0  0  0  0  0  0  0  0
   -0.1502    1.7216   -0.3294 N   0  0  0  0  0  0  0  0  0  0  0  0
    0.9626    2.2353   -0.0219 C   0  0  0  0  0  0  0  0  0  0  0  0
   -1.6392   -0.1356   -1.2844 H   0  0  0  0  0  0  0  0  0  0  0  0
   -2.3597    0.5337    0.2044 H   0  0  0  0  0  0  0  0  0  0  0  0
   -1.5879   -1.0750    0.2318 H   0  0  0  0  0  0  0  0  0  0  0  0
    1.1497    3.2381   -0.3820 H   0  0  0  0  0  0  0  0  0  0  0  0
    1.7060    1.7101    0.5739 H   0  0  0  0  0  0  0  0  0  0  0  0
  1  2  1  0
  1  5  1  0
  1  6  1  0
  1  7  1  0
  2  3  1  0
  3  4  2  3
  4  8  1  0
  4  9  1  0
M  END
>  <reaction>  (3) 
rmg_rxn_15670

>  <mol_properties>  (3) 
{"0": {"label": "acceptor", "atom_type": "Cs"}, "8": {"label": "a_hydrogen", "atom_type": "H0"}}

>  <type>  (3) 
r2h

$$$$

     RDKit          3D

 26 24  0  0  0  0  0  0  0  0999 V2000
   -0.0269   -2.0143   -0.7049 C   0  0  0  0  0  3  0  0  0  0  0  0
   -0.8521   -1.2015   -1.4577 O   0  0  0  0  0  0  0  0  0  0  0  0
   -1.9476   -0.7918   -0.7198 N   0  0  0  0  0  0  0  0  0  0  0  0
   -2.6054    0.1003   -1.3247 C   0  0  0  0  0  0  0  0  0  0  0  0
   -0.5709   -2.6553   -0.0131 H   0  0  0  0  0  0  0  0  0  0  0  0
    0.6595   -2.5299   -1.3718 H   0  0  0  0  0  0  0  0  0  0  0  0
   -3.4928    0.4650   -0.8251 H   0  0  0  0  0  0  0  0  0  0  0  0
   -2.3081    0.4943   -2.2933 H   0  0  0  0  0  0  0  0  0  0  0  0
    1.9788    0.7856   -1.3006 C   0  0  0  0  0  0  0  0  0  0  0  0
    1.1211    0.8612   -0.0679 C   0  0  0  0  0  0  0  0  0  0  0  0
    0.3877    1.9276    0.1895 C   0  0  0  0  0  0  0  0  0  0  0  0
   -0.2700    3.0120    0.4717 C   0  0  0  0  0  0  0  0  0  0  0  0
    1.1868   -0.2546    0.7572 N   0  0  0  0  0  0  0  0  0  0  0  0
    0.3704   -0.2218    1.9610 C   0  0  0  0  0  0  0  0  0  0  0  0
    0.5966   -1.4685    2.7961 C   0  0  0  0  0  0  0  0  0  0  0  0
    3.0173    0.6050   -1.0184 H   0  0  0  0  0  0  0  0  0  0  0  0
    1.6529   -0.0444   -1.9321 H   0  0  0  0  0  0  0  0  0  0  0  0
    1.9170    1.7040   -1.8813 H   0  0  0  0  0  0  0  0  0  0  0  0
    0.1597    3.7991    1.0849 H   0  0  0  0  0  0  0  0  0  0  0  0
   -1.2798    3.1733    0.1049 H   0  0  0  0  0  0  0  0  0  0  0  0
    0.7670   -1.2018    0.0835 H   0  0  0  0  0  0  0  0  0  0  0  0
    0.6592    0.6652    2.5323 H   0  0  0  0  0  0  0  0  0  0  0  0
   -0.6948   -0.1057    1.7236 H   0  0  0  0  0  0  0  0  0  0  0  0
    1.6511   -1.5705    3.0554 H   0  0  0  0  0  0  0  0  0  0  0  0
    0.2932   -2.3673    2.2560 H   0  0  0  0  0  0  0  0  0  0  0  0
    0.0141   -1.4214    3.7174 H   0  0  0  0  0  0  0  0  0  0  0  0
  1  2  1  0
  1  5  1  0
  1  6  1  0
  2  3  1  0
  3  4  2  3
  4  7  1  0
  4  8  1  0
  9 10  1  0
  9 16  1  0
  9 17  1  0
  9 18  1  0
 10 11  2  0
 10 13  1  0
 11 12  2  0
 12 19  1  0
 12 20  1  0
 13 14  1  0
 13 21  1  0
 14 15  1  0
 14 22  1  0
 14 23  1  0
 15 24  1  0
 15 25  1  0
 15 26  1  0
M  RAD  1   1   2
M  END
>  <reaction>  (4) 
rmg_rxn_15670

>  <mol_properties>  (4) 
{"0": {"label": "*3", "atom_type": "Cs"}, "1": {"label": "*4", "atom_type": "O2s"}, "9": {"label": "*0", "atom_type": "Cd"}, "12": {"label": "*1", "atom_type": "N3s"}, "20": {"label": "*2", "atom_type": "H0"}}

>  <type>  (4) 
ts

$$$$
