
     RDKit          3D

 10  9  0  0  0  0  0  0  0  0999 V2000
    2.0403   -0.0576    0.0117 C   0  0  0  0  0  0  0  0  0  0  0  0
    0.5945   -0.0168    0.1897 C   0  0  0  0  0  0  0  0  0  0  0  0
   -0.5945    0.0167    0.3361 C   0  0  0  0  0  0  0  0  0  0  0  0
   -2.0403    0.0576    0.5141 C   0  0  0  0  0  0  0  0  0  0  0  0
    2.4704    0.9425    0.0887 H   0  0  0  0  0  0  0  0  0  0  0  0
    2.3007   -0.4622   -0.9679 H   0  0  0  0  0  0  0  0  0  0  0  0
    2.5086   -0.6856    0.7714 H   0  0  0  0  0  0  0  0  0  0  0  0
   -2.3710    1.0616    0.7852 H   0  0  0  0  0  0  0  0  0  0  0  0
   -2.3547   -0.6260    1.3046 H   0  0  0  0  0  0  0  0  0  0  0  0
   -2.5540   -0.2302   -0.4048 H   0  0  0  0  0  0  0  0  0  0  0  0
  1  2  1  0
  1  5  1  0
  1  6  1  0
  1  7  1  0
  2  3  3  0
  3  4  1  0
  4  8  1  0
  4  9  1  0
  4 10  1  0
M  END
>  <reaction>  (1) 
rmg_rxn_505

>  <mol_properties>  (1) 
{"3": {"label": "donator", "atom_type": "Cs"}, "9": {"label": "d_hydrogen", "atom_type": "H0"}}

>  <type>  (1) 
r1h

$$$$

     RDKit          3D

 10  9  0  0  0  0  0  0  0  0999 V2000
    1.4352    0.2660   -0.1351 C   0  0  0  0  0  3  0  0  0  0  0  0
    0.2236   -0.3243    0.4850 C   0  0  0  0  0  0  0  0  0  0  0  0
   -0.8893    0.6872    0.7364 C   0  0  0  0  0  0  0  0  0  0  0  0
    2.3577   -0.2958   -0.1940 H   0  0  0  0  0  0  0  0  0  0  0  0
    1.3935    1.2286   -0.6287 H   0  0  0  0  0  0  0  0  0  0  0  0
   -0.1633   -1.1318   -0.1556 H   0  0  0  0  0  0  0  0  0  0  0  0
    0.4945   -0.8215    1.4240 H   0  0  0  0  0  0  0  0  0  0  0  0
   -1.1991    1.1627   -0.1967 H   0  0  0  0  0  0  0  0  0  0  0  0
   -1.7660    0.2103    1.1768 H   0  0  0  0  0  0  0  0  0  0  0  0
   -0.5545    1.4732    1.4159 H   0  0  0  0  0  0  0  0  0  0  0  0
  1  2  1  0
  1  4  1  0
  1  5  1  0
  2  3  1  0
  2  6  1  0
  2  7  1  0
  3  8  1  0
  3  9  1  0
  3 10  1  0
M  RAD  1   1   2
M  END
>  <reaction>  (2) 
rmg_rxn_505

>  <mol_properties>  (2) 
{"0": {"label": "acceptor", "atom_type": "Cs"}}

>  <type>  (2) 
r2

$$$$

     RDKit          3D

 11 10  0  0  0  0  0  0  0  0999 V2000
   -1.2710    0.1907   -0.2084 C   0  0  0  0  0  0  0  0  0  0  0  0
    0.0202   -0.6130   -0.2928 C   0  0  0  0  0  0  0  0  0  0  0  0
    0.1086   -1.6953    0.7756 C   0  0  0  0  0  0  0  0  0  0  0  0
   -1.3607    0.6851    0.7620 H   0  0  0  0  0  0  0  0  0  0  0  0
   -2.1429   -0.4567   -0.3299 H   0  0  0  0  0  0  0  0  0  0  0  0
   -1.3158    0.9602   -0.9809 H   0  0  0  0  0  0  0  0  0  0  0  0
    0.8757    0.0616   -0.1992 H   0  0  0  0  0  0  0  0  0  0  0  0
    0.0997   -1.0712   -1.2825 H   0  0  0  0  0  0  0  0  0  0  0  0
   -0.7198   -2.4022    0.6850 H   0  0  0  0  0  0  0  0  0  0  0  0
    1.0395   -2.2596    0.6989 H   0  0  0  0  0  0  0  0  0  0  0  0
    0.0624   -1.2603    1.7770 H   0  0  0  0  0  0  0  0  0  0  0  0
  1  2  1  0
  1  4  1  0
  1  5  1  0
  1  6  1  0
  2  3  1  0
  2  7  1  0
  2  8  1  0
  3  9  1  0
  3 10  1  0
  3 11  1  0
M  END
>  <reaction>  (3) 
rmg_rxn_505

>  <mol_properties>  (3) 
{"0": {"label": "acceptor", "atom_type": "Cs"}, "10": {"label": "a_hydrogen", "atom_type": "H0"}}

>  <type>  (3) 
r2h

$$$$

     RDKit          3D

 20 18  0  0  0  0  0  0  0  0999 V2000
    0.8850    0.7769    2.0800 C   0  0  0  0  0  3  0  0  0  0  0  0
    0.1098    1.7173    1.2010 C   0  0  0  0  0  0  0  0  0  0  0  0
   -1.3917    1.4592    1.2311 C   0  0  0  0  0  0  0  0  0  0  0  0
    1.9656    0.9035    2.0736 H   0  0  0  0  0  0  0  0  0  0  0  0
    0.4860    0.6328    3.0833 H   0  0  0  0  0  0  0  0  0  0  0  0
    0.3099    2.7517    1.5083 H   0  0  0  0  0  0  0  0  0  0  0  0
    0.4751    1.6312    0.1732 H   0  0  0  0  0  0  0  0  0  0  0  0
   -1.7835    1.5488    2.2471 H   0  0  0  0  0  0  0  0  0  0  0  0
   -1.9279    2.1704    0.6009 H   0  0  0  0  0  0  0  0  0  0  0  0
   -1.6184    0.4552    0.8675 H   0  0  0  0  0  0  0  0  0  0  0  0
   -0.3128   -0.5624   -3.0104 C   0  0  0  0  0  0  0  0  0  0  0  0
    0.0043   -0.9530   -1.6442 C   0  0  0  0  0  0  0  0  0  0  0  0
    0.2636   -1.2870   -0.5173 C   0  0  0  0  0  0  0  0  0  0  0  0
    0.5682   -1.6004    0.8422 C   0  0  0  0  0  0  0  0  0  0  0  0
    0.4997   -0.8255   -3.6899 H   0  0  0  0  0  0  0  0  0  0  0  0
   -0.4747    0.5153   -3.0808 H   0  0  0  0  0  0  0  0  0  0  0  0
   -1.2192   -1.0612   -3.3584 H   0  0  0  0  0  0  0  0  0  0  0  0
    1.5175   -2.1136    0.9839 H   0  0  0  0  0  0  0  0  0  0  0  0
   -0.2397   -2.0933    1.3800 H   0  0  0  0  0  0  0  0  0  0  0  0
    0.7292   -0.4760    1.4869 H   0  0  0  0  0  0  0  0  0  0  0  0
  1  2  1  0
  1  4  1  0
  1  5  1  0
  2  3  1  0
  2  6  1  0
  2  7  1  0
  3  8  1  0
  3  9  1  0
  3 10  1  0
 11 12  1  0
 11 15  1  0
 11 16  1  0
 11 17  1  0
 12 13  3  0
 13 14  1  0
 14 18  1  0
 14 19  1  0
 14 20  1  0
M  RAD  1   1   2
M  END
>  <reaction>  (4) 
rmg_rxn_505

>  <mol_properties>  (4) 
{"0": {"label": "*3", "atom_type": "Cs"}, "1": {"label": "*4", "atom_type": "Cs"}, "12": {"label": "*0", "atom_type": "Ct"}, "13": {"label": "*1", "atom_type": "Cs"}, "19": {"label": "*2", "atom_type": "H0"}}

>  <type>  (4) 
ts

$$$$
