
     RDKit          3D

 14 14  0  0  0  0  0  0  0  0999 V2000
   -1.1778    0.2241    0.1818 C   0  0  0  0  0  0  0  0  0  0  0  0
   -0.5633   -1.1636    0.0678 C   0  0  0  0  0  0  0  0  0  0  0  0
    0.6943   -1.1996    0.7146 O   0  0  0  0  0  0  0  0  0  0  0  0
    1.5547   -0.2288    0.2011 C   0  0  0  0  0  0  0  0  0  0  0  0
    1.0729    1.0696    0.3698 O   0  0  0  0  0  0  0  0  0  0  0  0
   -0.1607    1.2493   -0.2989 C   0  0  0  0  0  0  0  0  0  0  0  0
   -2.0927    0.2866   -0.4117 H   0  0  0  0  0  0  0  0  0  0  0  0
   -1.4303    0.4248    1.2248 H   0  0  0  0  0  0  0  0  0  0  0  0
   -1.1822   -1.9235    0.5431 H   0  0  0  0  0  0  0  0  0  0  0  0
   -0.4389   -1.4347   -0.9919 H   0  0  0  0  0  0  0  0  0  0  0  0
    1.7250   -0.4207   -0.8742 H   0  0  0  0  0  0  0  0  0  0  0  0
    2.4896   -0.3010    0.7524 H   0  0  0  0  0  0  0  0  0  0  0  0
   -0.0080    1.1481   -1.3844 H   0  0  0  0  0  0  0  0  0  0  0  0
   -0.4826    2.2695   -0.0942 H   0  0  0  0  0  0  0  0  0  0  0  0
  1  2  1  0
  1  6  1  0
  1  7  1  0
  1  8  1  0
  2  3  1  0
  2  9  1  0
  2 10  1  0
  3  4  1  0
  4  5  1  0
  4 11  1  0
  4 12  1  0
  5  6  1  0
  6 13  1  0
  6 14  1  0
M  END
>  <reaction>  (1) 
rmg_rxn_195

>  <mol_properties>  (1) 
{"0": {"label": "donator", "atom_type": "Cs"}, "6": {"label": "d_hydrogen", "atom_type": "H0"}}

>  <type>  (1) 
r1h

$$$$

     RDKit          3D

 14 13  0  0  0  0  0  0  0  0999 V2000
    2.5796   -0.5432    0.2329 C   0  0  0  0  0  3  0  0  0  0  0  0
    1.2594    0.0982    0.3029 C   0  0  0  0  0  0  0  0  0  0  0  0
   -0.0483   -1.0244    0.9576 S   0  0  0  0  0  0  0  0  0  0  0  0
   -0.0049   -2.3732   -0.2491 C   0  0  0  0  0  0  0  0  0  0  0  0
   -0.3891   -1.9781   -1.6653 C   0  0  0  0  0  0  0  0  0  0  0  0
    2.9359   -0.9798   -0.6903 H   0  0  0  0  0  0  0  0  0  0  0  0
    3.1327   -0.7454    1.1400 H   0  0  0  0  0  0  0  0  0  0  0  0
    0.9347    0.4858   -0.6621 H   0  0  0  0  0  0  0  0  0  0  0  0
    1.2442    0.9220    1.0193 H   0  0  0  0  0  0  0  0  0  0  0  0
    0.9819   -2.8380   -0.2257 H   0  0  0  0  0  0  0  0  0  0  0  0
   -0.7110   -3.1037    0.1493 H   0  0  0  0  0  0  0  0  0  0  0  0
    0.3274   -1.2737   -2.0913 H   0  0  0  0  0  0  0  0  0  0  0  0
   -0.4075   -2.8581   -2.3121 H   0  0  0  0  0  0  0  0  0  0  0  0
   -1.3749   -1.5123   -1.6865 H   0  0  0  0  0  0  0  0  0  0  0  0
  1  2  1  0
  1  6  1  0
  1  7  1  0
  2  3  1  0
  2  8  1  0
  2  9  1  0
  3  4  1  0
  4  5  1  0
  4 10  1  0
  4 11  1  0
  5 12  1  0
  5 13  1  0
  5 14  1  0
M  RAD  1   1   2
M  END
>  <reaction>  (2) 
rmg_rxn_195

>  <mol_properties>  (2) 
{"0": {"label": "acceptor", "atom_type": "Cs"}}

>  <type>  (2) 
r2

$$$$

     RDKit          3D

 15 14  0  0  0  0  0  0  0  0999 V2000
   -2.0554    0.0723   -0.4910 C   0  0  0  0  0  0  0  0  0  0  0  0
   -0.7461   -0.6266   -0.8178 C   0  0  0  0  0  0  0  0  0  0  0  0
    0.3249    0.2591   -1.9782 S   0  0  0  0  0  0  0  0  0  0  0  0
   -0.7172    0.3642   -3.4551 C   0  0  0  0  0  0  0  0  0  0  0  0
   -1.1375   -0.9737   -4.0409 C   0  0  0  0  0  0  0  0  0  0  0  0
   -2.7005    0.1427   -1.3684 H   0  0  0  0  0  0  0  0  0  0  0  0
   -2.6016   -0.4848    0.2733 H   0  0  0  0  0  0  0  0  0  0  0  0
   -1.8758    1.0825   -0.1213 H   0  0  0  0  0  0  0  0  0  0  0  0
   -0.1320   -0.7246    0.0789 H   0  0  0  0  0  0  0  0  0  0  0  0
   -0.9254   -1.6374   -1.1879 H   0  0  0  0  0  0  0  0  0  0  0  0
   -1.5873    0.9874   -3.2422 H   0  0  0  0  0  0  0  0  0  0  0  0
   -0.1021    0.9161   -4.1678 H   0  0  0  0  0  0  0  0  0  0  0  0
   -1.7876   -1.5224   -3.3574 H   0  0  0  0  0  0  0  0  0  0  0  0
   -0.2676   -1.5962   -4.2534 H   0  0  0  0  0  0  0  0  0  0  0  0
   -1.6916   -0.8229   -4.9700 H   0  0  0  0  0  0  0  0  0  0  0  0
  1  2  1  0
  1  6  1  0
  1  7  1  0
  1  8  1  0
  2  3  1  0
  2  9  1  0
  2 10  1  0
  3  4  1  0
  4  5  1  0
  4 11  1  0
  4 12  1  0
  5 13  1  0
  5 14  1  0
  5 15  1  0
M  END
>  <reaction>  (3) 
rmg_rxn_195

>  <mol_properties>  (3) 
{"0": {"label": "a_hydrogen", "atom_type": "H0"}, "1": {"label": "acceptor", "atom_type": "Cs"}}

>  <type>  (3) 
r2h

$$$$

     RDKit          3D

 28 27  0  0  0  0  0  0  0  0999 V2000
    1.1286    1.1649    0.6929 C   0  0  0  0  0  0  0  0  0  0  0  0
    1.5945    1.2933   -0.7360 C   0  0  0  0  0  0  0  0  0  0  0  0
    1.4360    2.6379   -1.1741 O   0  0  0  0  0  0  0  0  0  0  0  0
    0.1135    3.0584   -1.0210 C   0  0  0  0  0  0  0  0  0  0  0  0
   -0.3127    3.0448    0.3089 O   0  0  0  0  0  0  0  0  0  0  0  0
   -0.2630    1.7275    0.8429 C   0  0  0  0  0  0  0  0  0  0  0  0
    1.0624   -0.1389    0.9953 H   0  0  0  0  0  0  0  0  0  0  0  0
    1.8369    1.5726    1.4133 H   0  0  0  0  0  0  0  0  0  0  0  0
    2.6500    1.0510   -0.8511 H   0  0  0  0  0  0  0  0  0  0  0  0
    1.0050    0.6292   -1.3839 H   0  0  0  0  0  0  0  0  0  0  0  0
   -0.5492    2.4136   -1.6254 H   0  0  0  0  0  0  0  0  0  0  0  0
    0.0615    4.0892   -1.3651 H   0  0  0  0  0  0  0  0  0  0  0  0
   -0.9806    1.0898    0.3070 H   0  0  0  0  0  0  0  0  0  0  0  0
   -0.5683    1.8022    1.8858 H   0  0  0  0  0  0  0  0  0  0  0  0
    0.9910   -1.4466    1.3190 C   0  0  0  0  0  3  0  0  0  0  0  0
    0.6677   -2.2434    0.0861 C   0  0  0  0  0  0  0  0  0  0  0  0
   -0.8472   -1.7657   -0.7909 S   0  0  0  0  0  0  0  0  0  0  0  0
   -2.0965   -1.8803    0.5135 C   0  0  0  0  0  0  0  0  0  0  0  0
   -2.2424   -3.2561    1.1418 C   0  0  0  0  0  0  0  0  0  0  0  0
    0.2328   -1.4772    2.0996 H   0  0  0  0  0  0  0  0  0  0  0  0
    1.9798   -1.6572    1.7244 H   0  0  0  0  0  0  0  0  0  0  0  0
    0.6174   -3.3115    0.3180 H   0  0  0  0  0  0  0  0  0  0  0  0
    1.4535   -2.1269   -0.6630 H   0  0  0  0  0  0  0  0  0  0  0  0
   -1.8981   -1.1221    1.2735 H   0  0  0  0  0  0  0  0  0  0  0  0
   -3.0209   -1.5879    0.0127 H   0  0  0  0  0  0  0  0  0  0  0  0
   -1.3370   -3.5485    1.6763 H   0  0  0  0  0  0  0  0  0  0  0  0
   -3.0636   -3.2572    1.8616 H   0  0  0  0  0  0  0  0  0  0  0  0
   -2.4468   -4.0115    0.3824 H   0  0  0  0  0  0  0  0  0  0  0  0
  1  2  1  0
  1  6  1  0
  1  7  1  0
  1  8  1  0
  2  3  1  0
  2  9  1  0
  2 10  1  0
  3  4  1  0
  4  5  1  0
  4 11  1  0
  4 12  1  0
  5  6  1  0
  6 13  1  0
  6 14  1  0
 15 16  1  0
 15 20  1  0
 15 21  1  0
 16 17  1  0
 16 22  1  0
 16 23  1  0
 17 18  1  0
 18 19  1  0
 18 24  1  0
 18 25  1  0
 19 26  1  0
 19 27  1  0
 19 28  1  0
M  RAD  1  15   2
M  END
>  <reaction>  (4) 
rmg_rxn_195

>  <mol_properties>  (4) 
{"0": {"label": "*1", "atom_type": "Cs"}, "1": {"label": "*0", "atom_type": "Cs"}, "6": {"label": "*2", "atom_type": "H0"}, "14": {"label": "*3", "atom_type": "Cs"}, "15": {"label": "*4", "atom_type": "Cs"}}

>  <type>  (4) 
ts

$$$$
