
     RDKit          3D

 14 14  0  0  0  0  0  0  0  0999 V2000
   -1.1778    0.2241    0.1818 C   0  0  0  0  0  0  0  0  0  0  0  0
   -0.5633   -1.1636    0.0678 C   0  0  0  0  0  0  0  0  0  0  0  0
    0.6943   -1.1996    0.7146 O   0  0  0  0  0  0  0  0  0  0  0  0
    1.5547   -0.2288    0.2011 C   0  0  0  0  0  0  0  0  0  0  0  0
    1.0729    1.0696    0.3698 O   0  0  0  0  0  0  0  0  0  0  0  0
   -0.1607    1.2493   -0.2989 C   0  0  0  0  0  0  0  0  0  0  0  0
   -2.0927    0.2866   -0.4117 H   0  0  0  0  0  0  0  0  0  0  0  0
   -1.4303    0.4248    1.2248 H   0  0  0  0  0  0  0  0  0  0  0  0
   -1.1822   -1.9235    0.5431 H   0  0  0  0  0  0  0  0  0  0  0  0
   -0.4389   -1.4347   -0.9919 H   0  0  0  0  0  0  0  0  0  0  0  0
    1.7250   -0.4207   -0.8742 H   0  0  0  0  0  0  0  0  0  0  0  0
    2.4896   -0.3010    0.7524 H   0  0  0  0  0  0  0  0  0  0  0  0
   -0.0080    1.1481   -1.3844 H   0  0  0  0  0  0  0  0  0  0  0  0
   -0.4826    2.2695   -0.0942 H   0  0  0  0  0  0  0  0  0  0  0  0
  1  2  1  0
  1  6  1  0
  1  7  1  0
  1  8  1  0
  2  3  1  0
  2  9  1  0
  2 10  1  0
  3  4  1  0
  4  5  1  0
  4 11  1  0
  4 12  1  0
  5  6  1  0
  6 13  1  0
  6 14  1  0
M  END
>  <reaction>  (1) 
rmg_rxn_628

>  <mol_properties>  (1) 
{"0": {"label": "donator", "atom_type": "Cs"}, "6": {"label": "d_hydrogen", "atom_type": "H0"}}

>  <type>  (1) 
r1h

$$$$

     RDKit          3D

 14 13  0  0  0  0  0  0  0  0999 V2000
    2.6694    0.2813   -0.6046 C   0  0  0  0  0  3  0  0  0  0  0  0
    1.5626   -0.5075   -0.0103 C   0  0  0  0  0  0  0  0  0  0  0  0
    0.5522   -0.8487   -0.9278 O   0  0  0  0  0  0  0  0  0  0  0  0
    0.9505   -1.8204   -1.8682 C   0  0  0  0  0  0  0  0  0  0  0  0
   -0.2101   -2.1029   -2.7930 C   0  0  0  0  0  0  0  0  0  0  0  0
    2.4666    0.9443   -1.4355 H   0  0  0  0  0  0  0  0  0  0  0  0
    3.6339    0.3312   -0.1179 H   0  0  0  0  0  0  0  0  0  0  0  0
    1.0573    0.0741    0.7733 H   0  0  0  0  0  0  0  0  0  0  0  0
    1.9580   -1.4106    0.4809 H   0  0  0  0  0  0  0  0  0  0  0  0
    1.8195   -1.4649   -2.4379 H   0  0  0  0  0  0  0  0  0  0  0  0
    1.2587   -2.7372   -1.3440 H   0  0  0  0  0  0  0  0  0  0  0  0
   -0.5051   -1.1971   -3.3238 H   0  0  0  0  0  0  0  0  0  0  0  0
    0.0686   -2.8601   -3.5276 H   0  0  0  0  0  0  0  0  0  0  0  0
   -1.0699   -2.4661   -2.2289 H   0  0  0  0  0  0  0  0  0  0  0  0
  1  2  1  0
  1  6  1  0
  1  7  1  0
  2  3  1  0
  2  8  1  0
  2  9  1  0
  3  4  1  0
  4  5  1  0
  4 10  1  0
  4 11  1  0
  5 12  1  0
  5 13  1  0
  5 14  1  0
M  RAD  1   1   2
M  END
>  <reaction>  (2) 
rmg_rxn_628

>  <mol_properties>  (2) 
{"0": {"label": "acceptor", "atom_type": "Cs"}}

>  <type>  (2) 
r2

$$$$

     RDKit          3D

 15 14  0  0  0  0  0  0  0  0999 V2000
    2.4145    0.0817    0.4065 C   0  0  0  0  0  0  0  0  0  0  0  0
    1.1257   -0.2220   -0.3219 C   0  0  0  0  0  0  0  0  0  0  0  0
    1.0983   -1.5879   -0.6512 O   0  0  0  0  0  0  0  0  0  0  0  0
   -0.0685   -1.9694   -1.3352 C   0  0  0  0  0  0  0  0  0  0  0  0
    0.0024   -3.4478   -1.6403 C   0  0  0  0  0  0  0  0  0  0  0  0
    3.2736   -0.1534   -0.2229 H   0  0  0  0  0  0  0  0  0  0  0  0
    2.4581    1.1389    0.6728 H   0  0  0  0  0  0  0  0  0  0  0  0
    2.4855   -0.5095    1.3201 H   0  0  0  0  0  0  0  0  0  0  0  0
    0.2597    0.0294    0.3083 H   0  0  0  0  0  0  0  0  0  0  0  0
    1.0482    0.3858   -1.2356 H   0  0  0  0  0  0  0  0  0  0  0  0
   -0.9535   -1.7457   -0.7211 H   0  0  0  0  0  0  0  0  0  0  0  0
   -0.1650   -1.3894   -2.2650 H   0  0  0  0  0  0  0  0  0  0  0  0
    0.0831   -4.0247   -0.7183 H   0  0  0  0  0  0  0  0  0  0  0  0
   -0.8950   -3.7674   -2.1724 H   0  0  0  0  0  0  0  0  0  0  0  0
    0.8712   -3.6686   -2.2613 H   0  0  0  0  0  0  0  0  0  0  0  0
  1  2  1  0
  1  6  1  0
  1  7  1  0
  1  8  1  0
  2  3  1  0
  2  9  1  0
  2 10  1  0
  3  4  1  0
  4  5  1  0
  4 11  1  0
  4 12  1  0
  5 13  1  0
  5 14  1  0
  5 15  1  0
M  END
>  <reaction>  (3) 
rmg_rxn_628

>  <mol_properties>  (3) 
{"0": {"label": "a_hydrogen", "atom_type": "H0"}, "1": {"label": "acceptor", "atom_type": "Cs"}}

>  <type>  (3) 
r2h

$$$$

     RDKit          3D

 28 27  0  0  0  0  0  0  0  0999 V2000
   -1.4375    0.7300    0.5543 C   0  0  0  0  0  0  0  0  0  0  0  0
   -0.2914    1.7052    0.6582 C   0  0  0  0  0  0  0  0  0  0  0  0
   -0.3240    2.6120   -0.4396 O   0  0  0  0  0  0  0  0  0  0  0  0
   -0.3120    1.9254   -1.6527 C   0  0  0  0  0  0  0  0  0  0  0  0
   -1.4189    1.0909   -1.8207 O   0  0  0  0  0  0  0  0  0  0  0  0
   -1.4555    0.0890   -0.8110 C   0  0  0  0  0  0  0  0  0  0  0  0
   -1.1929   -0.2361    1.4520 H   0  0  0  0  0  0  0  0  0  0  0  0
   -2.3980    1.1530    0.8456 H   0  0  0  0  0  0  0  0  0  0  0  0
   -0.3445    2.3100    1.5620 H   0  0  0  0  0  0  0  0  0  0  0  0
    0.6608    1.1574    0.6547 H   0  0  0  0  0  0  0  0  0  0  0  0
    0.6131    1.3243   -1.7261 H   0  0  0  0  0  0  0  0  0  0  0  0
   -0.3461    2.6691   -2.4463 H   0  0  0  0  0  0  0  0  0  0  0  0
   -0.5810   -0.5682   -0.9246 H   0  0  0  0  0  0  0  0  0  0  0  0
   -2.3584   -0.4946   -0.9845 H   0  0  0  0  0  0  0  0  0  0  0  0
   -0.8272   -1.2364    2.2778 C   0  0  0  0  0  3  0  0  0  0  0  0
   -0.0207   -2.1741    1.4353 C   0  0  0  0  0  0  0  0  0  0  0  0
    1.0814   -1.4768    0.9086 O   0  0  0  0  0  0  0  0  0  0  0  0
    1.8539   -2.2397    0.0138 C   0  0  0  0  0  0  0  0  0  0  0  0
    2.9652   -1.3715   -0.5278 C   0  0  0  0  0  0  0  0  0  0  0  0
   -0.2575   -0.7416    3.0618 H   0  0  0  0  0  0  0  0  0  0  0  0
   -1.7621   -1.6572    2.6407 H   0  0  0  0  0  0  0  0  0  0  0  0
   -0.6373   -2.5781    0.6177 H   0  0  0  0  0  0  0  0  0  0  0  0
    0.3290   -3.0366    2.0260 H   0  0  0  0  0  0  0  0  0  0  0  0
    2.2639   -3.1207    0.5276 H   0  0  0  0  0  0  0  0  0  0  0  0
    1.2189   -2.6071   -0.8059 H   0  0  0  0  0  0  0  0  0  0  0  0
    3.5985   -1.0100    0.2829 H   0  0  0  0  0  0  0  0  0  0  0  0
    3.5832   -1.9383   -1.2254 H   0  0  0  0  0  0  0  0  0  0  0  0
    2.5532   -0.5086   -1.0534 H   0  0  0  0  0  0  0  0  0  0  0  0
  1  2  1  0
  1  6  1  0
  1  7  1  0
  1  8  1  0
  2  3  1  0
  2  9  1  0
  2 10  1  0
  3  4  1  0
  4  5  1  0
  4 11  1  0
  4 12  1  0
  5  6  1  0
  6 13  1  0
  6 14  1  0
 15 16  1  0
 15 20  1  0
 15 21  1  0
 16 17  1  0
 16 22  1  0
 16 23  1  0
 17 18  1  0
 18 19  1  0
 18 24  1  0
 18 25  1  0
 19 26  1  0
 19 27  1  0
 19 28  1  0
M  RAD  1  15   2
M  END
>  <reaction>  (4) 
rmg_rxn_628

>  <mol_properties>  (4) 
{"0": {"label": "*1", "atom_type": "Cs"}, "1": {"label": "*0", "atom_type": "Cs"}, "6": {"label": "*2", "atom_type": "H0"}, "14": {"label": "*3", "atom_type": "Cs"}, "15": {"label": "*4", "atom_type": "Cs"}}

>  <type>  (4) 
ts

$$$$
