
     RDKit          3D

 15 14  0  0  0  0  0  0  0  0999 V2000
   -2.0554    0.0723   -0.4910 C   0  0  0  0  0  0  0  0  0  0  0  0
   -0.7461   -0.6266   -0.8178 C   0  0  0  0  0  0  0  0  0  0  0  0
    0.3249    0.2591   -1.9782 S   0  0  0  0  0  0  0  0  0  0  0  0
   -0.7172    0.3642   -3.4551 C   0  0  0  0  0  0  0  0  0  0  0  0
   -1.1375   -0.9737   -4.0409 C   0  0  0  0  0  0  0  0  0  0  0  0
   -2.7005    0.1427   -1.3684 H   0  0  0  0  0  0  0  0  0  0  0  0
   -2.6016   -0.4848    0.2733 H   0  0  0  0  0  0  0  0  0  0  0  0
   -1.8758    1.0825   -0.1213 H   0  0  0  0  0  0  0  0  0  0  0  0
   -0.1320   -0.7246    0.0789 H   0  0  0  0  0  0  0  0  0  0  0  0
   -0.9254   -1.6374   -1.1879 H   0  0  0  0  0  0  0  0  0  0  0  0
   -1.5873    0.9874   -3.2422 H   0  0  0  0  0  0  0  0  0  0  0  0
   -0.1021    0.9161   -4.1678 H   0  0  0  0  0  0  0  0  0  0  0  0
   -1.7876   -1.5224   -3.3574 H   0  0  0  0  0  0  0  0  0  0  0  0
   -0.2676   -1.5962   -4.2534 H   0  0  0  0  0  0  0  0  0  0  0  0
   -1.6916   -0.8229   -4.9700 H   0  0  0  0  0  0  0  0  0  0  0  0
  1  2  1  0
  1  6  1  0
  1  7  1  0
  1  8  1  0
  2  3  1  0
  2  9  1  0
  2 10  1  0
  3  4  1  0
  4  5  1  0
  4 11  1  0
  4 12  1  0
  5 13  1  0
  5 14  1  0
  5 15  1  0
M  END
>  <reaction>  (1) 
rmg_rxn_64

>  <mol_properties>  (1) 
{"1": {"label": "donator", "atom_type": "Cs"}, "8": {"label": "d_hydrogen", "atom_type": "H0"}}

>  <type>  (1) 
r1h

$$$$

     RDKit          3D

 13 12  0  0  0  0  0  0  0  0999 V2000
    2.0654   -0.2739   -0.0844 C   0  0  0  0  0  3  0  0  0  0  0  0
    0.6326   -0.4110   -0.4406 C   0  0  0  0  0  0  0  0  0  0  0  0
   -0.3055    0.4151    0.4359 C   0  0  0  0  0  0  0  0  0  0  0  0
   -1.7714    0.2357    0.0671 C   0  0  0  0  0  0  0  0  0  0  0  0
    2.3610    0.0676    0.8995 H   0  0  0  0  0  0  0  0  0  0  0  0
    2.8408   -0.6127   -0.7582 H   0  0  0  0  0  0  0  0  0  0  0  0
    0.3313   -1.4695   -0.3768 H   0  0  0  0  0  0  0  0  0  0  0  0
    0.4826   -0.1432   -1.4940 H   0  0  0  0  0  0  0  0  0  0  0  0
   -0.1518    0.1351    1.4826 H   0  0  0  0  0  0  0  0  0  0  0  0
   -0.0303    1.4705    0.3565 H   0  0  0  0  0  0  0  0  0  0  0  0
   -2.0768   -0.8084    0.1692 H   0  0  0  0  0  0  0  0  0  0  0  0
   -1.9546    0.5339   -0.9679 H   0  0  0  0  0  0  0  0  0  0  0  0
   -2.4194    0.8370    0.7066 H   0  0  0  0  0  0  0  0  0  0  0  0
  1  2  1  0
  1  5  1  0
  1  6  1  0
  2  3  1  0
  2  7  1  0
  2  8  1  0
  3  4  1  0
  3  9  1  0
  3 10  1  0
  4 11  1  0
  4 12  1  0
  4 13  1  0
M  RAD  1   1   2
M  END
>  <reaction>  (2) 
rmg_rxn_64

>  <mol_properties>  (2) 
{"0": {"label": "acceptor", "atom_type": "Cs"}}

>  <type>  (2) 
r2

$$$$

     RDKit          3D

 14 13  0  0  0  0  0  0  0  0999 V2000
    1.8106   -0.5953    0.5577 C   0  0  0  0  0  0  0  0  0  0  0  0
    0.5197    0.2064    0.6554 C   0  0  0  0  0  0  0  0  0  0  0  0
   -0.5206   -0.2080   -0.3788 C   0  0  0  0  0  0  0  0  0  0  0  0
   -1.8114    0.5937   -0.2812 C   0  0  0  0  0  0  0  0  0  0  0  0
    2.2725   -0.4752   -0.4251 H   0  0  0  0  0  0  0  0  0  0  0  0
    1.6214   -1.6612    0.7052 H   0  0  0  0  0  0  0  0  0  0  0  0
    2.5364   -0.2784    1.3084 H   0  0  0  0  0  0  0  0  0  0  0  0
    0.0930    0.0950    1.6574 H   0  0  0  0  0  0  0  0  0  0  0  0
    0.7393    1.2723    0.5354 H   0  0  0  0  0  0  0  0  0  0  0  0
   -0.7402   -1.2739   -0.2588 H   0  0  0  0  0  0  0  0  0  0  0  0
   -0.0938   -0.0965   -1.3808 H   0  0  0  0  0  0  0  0  0  0  0  0
   -1.6222    1.6596   -0.4287 H   0  0  0  0  0  0  0  0  0  0  0  0
   -2.2734    0.4736    0.7017 H   0  0  0  0  0  0  0  0  0  0  0  0
   -2.5373    0.2768   -1.0318 H   0  0  0  0  0  0  0  0  0  0  0  0
  1  2  1  0
  1  5  1  0
  1  6  1  0
  1  7  1  0
  2  3  1  0
  2  8  1  0
  2  9  1  0
  3  4  1  0
  3 10  1  0
  3 11  1  0
  4 12  1  0
  4 13  1  0
  4 14  1  0
M  END
>  <reaction>  (3) 
rmg_rxn_64

>  <mol_properties>  (3) 
{"0": {"label": "acceptor", "atom_type": "Cs"}, "13": {"label": "a_hydrogen", "atom_type": "H0"}}

>  <type>  (3) 
r2h

$$$$

     RDKit          3D

 28 26  0  0  0  0  0  0  0  0999 V2000
   -0.9261   -1.7342    0.9487 C   0  0  0  0  0  3  0  0  0  0  0  0
   -1.9005   -1.4782   -0.1685 C   0  0  0  0  0  0  0  0  0  0  0  0
   -3.2883   -2.0690    0.0909 C   0  0  0  0  0  0  0  0  0  0  0  0
   -4.2617   -1.8014   -1.0496 C   0  0  0  0  0  0  0  0  0  0  0  0
   -0.5910   -2.7656    1.0511 H   0  0  0  0  0  0  0  0  0  0  0  0
   -1.2015   -1.2974    1.9079 H   0  0  0  0  0  0  0  0  0  0  0  0
   -1.5079   -1.8927   -1.1027 H   0  0  0  0  0  0  0  0  0  0  0  0
   -1.9962   -0.3986   -0.3258 H   0  0  0  0  0  0  0  0  0  0  0  0
   -3.1958   -3.1471    0.2530 H   0  0  0  0  0  0  0  0  0  0  0  0
   -3.6852   -1.6514    1.0209 H   0  0  0  0  0  0  0  0  0  0  0  0
   -3.8988   -2.2356   -1.9842 H   0  0  0  0  0  0  0  0  0  0  0  0
   -4.3889   -0.7285   -1.2108 H   0  0  0  0  0  0  0  0  0  0  0  0
   -5.2447   -2.2276   -0.8429 H   0  0  0  0  0  0  0  0  0  0  0  0
    1.3996   -0.7107   -1.2603 C   0  0  0  0  0  0  0  0  0  0  0  0
    1.2419   -0.3456    0.1924 C   0  0  0  0  0  0  0  0  0  0  0  0
    0.7436    1.3249    0.5693 S   0  0  0  0  0  0  0  0  0  0  0  0
    2.0019    2.3156   -0.2866 C   0  0  0  0  0  0  0  0  0  0  0  0
    3.4190    2.0996    0.2157 C   0  0  0  0  0  0  0  0  0  0  0  0
    2.2803   -0.2389   -1.7068 H   0  0  0  0  0  0  0  0  0  0  0  0
    1.5203   -1.7913   -1.3685 H   0  0  0  0  0  0  0  0  0  0  0  0
    0.5258   -0.4006   -1.8358 H   0  0  0  0  0  0  0  0  0  0  0  0
    0.2035   -1.0465    0.6300 H   0  0  0  0  0  0  0  0  0  0  0  0
    2.0538   -0.6992    0.8273 H   0  0  0  0  0  0  0  0  0  0  0  0
    1.9331    2.1297   -1.3596 H   0  0  0  0  0  0  0  0  0  0  0  0
    1.6850    3.3468   -0.1210 H   0  0  0  0  0  0  0  0  0  0  0  0
    3.7429    1.0704    0.0506 H   0  0  0  0  0  0  0  0  0  0  0  0
    3.4888    2.3068    1.2840 H   0  0  0  0  0  0  0  0  0  0  0  0
    4.1151    2.7562   -0.3115 H   0  0  0  0  0  0  0  0  0  0  0  0
  1  2  1  0
  1  5  1  0
  1  6  1  0
  2  3  1  0
  2  7  1  0
  2  8  1  0
  3  4  1  0
  3  9  1  0
  3 10  1  0
  4 11  1  0
  4 12  1  0
  4 13  1  0
 14 15  1  0
 14 19  1  0
 14 20  1  0
 14 21  1  0
 15 16  1  0
 15 22  1  0
 15 23  1  0
 16 17  1  0
 17 18  1  0
 17 24  1  0
 17 25  1  0
 18 26  1  0
 18 27  1  0
 18 28  1  0
M  RAD  1   1   2
M  END
>  <reaction>  (4) 
rmg_rxn_64

>  <mol_properties>  (4) 
{"0": {"label": "*3", "atom_type": "Cs"}, "1": {"label": "*4", "atom_type": "Cs"}, "14": {"label": "*1", "atom_type": "Cs"}, "15": {"label": "*0", "atom_type": "S2s"}, "21": {"label": "*2", "atom_type": "H0"}}

>  <type>  (4) 
ts

$$$$
