
     RDKit          3D

 11 10  0  0  0  0  0  0  0  0999 V2000
   -1.7975    0.1503    0.3817 C   0  0  0  0  0  0  0  0  0  0  0  0
   -0.8638   -0.6174   -0.5008 C   0  0  0  0  0  0  0  0  0  0  0  0
   -0.0947   -1.5923   -0.0466 C   0  0  0  0  0  0  0  0  0  0  0  0
    0.7934   -2.3703   -0.7311 O   0  0  0  0  0  0  0  0  0  0  0  0
    0.8158   -2.0364   -2.1061 O   0  0  0  0  0  0  0  0  0  0  0  0
   -1.5629    1.2176    0.3708 H   0  0  0  0  0  0  0  0  0  0  0  0
   -2.8315    0.0463    0.0437 H   0  0  0  0  0  0  0  0  0  0  0  0
   -1.7470   -0.1930    1.4162 H   0  0  0  0  0  0  0  0  0  0  0  0
   -0.8338   -0.3680   -1.5532 H   0  0  0  0  0  0  0  0  0  0  0  0
   -0.0795   -1.9148    0.9889 H   0  0  0  0  0  0  0  0  0  0  0  0
    1.6362   -1.5328   -2.1654 H   0  0  0  0  0  0  0  0  0  0  0  0
  1  2  1  0
  1  6  1  0
  1  7  1  0
  1  8  1  0
  2  3  2  3
  2  9  1  0
  3  4  1  0
  3 10  1  0
  4  5  1  0
  5 11  1  0
M  END
>  <reaction>  (1) 
rmg_rxn_16751

>  <mol_properties>  (1) 
{"4": {"label": "donator", "atom_type": "O2s"}, "10": {"label": "d_hydrogen", "atom_type": "H0"}}

>  <type>  (1) 
r1h

$$$$

     RDKit          3D

  7  6  0  0  0  0  0  0  0  0999 V2000
   -0.6441   -0.1356    0.0624 C   0  0  0  0  0  0  0  0  0  0  0  0
    0.8523    0.0148   -0.0333 C   0  0  0  0  0  0  0  0  0  0  0  0
    1.6700   -0.6077    0.6603 N   0  0  0  0  0  2  0  0  0  0  0  0
   -1.0940    0.8275    0.3091 H   0  0  0  0  0  0  0  0  0  0  0  0
   -0.9104   -0.8656    0.8237 H   0  0  0  0  0  0  0  0  0  0  0  0
   -1.0427   -0.4545   -0.9022 H   0  0  0  0  0  0  0  0  0  0  0  0
    1.2362    0.7308   -0.7748 H   0  0  0  0  0  0  0  0  0  0  0  0
  1  2  1  0
  1  4  1  0
  1  5  1  0
  1  6  1  0
  2  3  2  0
  2  7  1  0
M  RAD  1   3   2
M  END
>  <reaction>  (2) 
rmg_rxn_16751

>  <mol_properties>  (2) 
{"2": {"label": "acceptor", "atom_type": "N3d"}}

>  <type>  (2) 
r2

$$$$

     RDKit          3D

  8  7  0  0  0  0  0  0  0  0999 V2000
    0.9548    0.1194   -0.0790 C   0  0  0  0  0  0  0  0  0  0  0  0
   -0.4838   -0.2649    0.0193 C   0  0  0  0  0  0  0  0  0  0  0  0
   -0.8933   -1.1081    0.8664 N   0  0  0  0  0  0  0  0  0  0  0  0
    1.3360   -0.0983   -1.0800 H   0  0  0  0  0  0  0  0  0  0  0  0
    1.0698    1.1948    0.0786 H   0  0  0  0  0  0  0  0  0  0  0  0
    1.5426   -0.4219    0.6602 H   0  0  0  0  0  0  0  0  0  0  0  0
   -1.1575    0.2324   -0.6905 H   0  0  0  0  0  0  0  0  0  0  0  0
   -1.8989   -1.2455    0.7886 H   0  0  0  0  0  0  0  0  0  0  0  0
  1  2  1  0
  1  4  1  0
  1  5  1  0
  1  6  1  0
  2  3  2  3
  2  7  1  0
  3  8  1  0
M  END
>  <reaction>  (3) 
rmg_rxn_16751

>  <mol_properties>  (3) 
{"2": {"label": "acceptor", "atom_type": "N3d"}, "7": {"label": "a_hydrogen", "atom_type": "H0"}}

>  <type>  (3) 
r2h

$$$$

     RDKit          3D

 18 16  0  0  0  0  0  0  0  0999 V2000
    3.0571    0.3837    1.3757 C   0  0  0  0  0  0  0  0  0  0  0  0
    1.5689    0.2517    1.2508 C   0  0  0  0  0  0  0  0  0  0  0  0
    0.9510   -0.8144    1.4388 N   0  0  0  0  0  2  0  0  0  0  0  0
    3.4727    0.7270    0.4264 H   0  0  0  0  0  0  0  0  0  0  0  0
    3.5091   -0.5665    1.6514 H   0  0  0  0  0  0  0  0  0  0  0  0
    3.2939    1.1363    2.1301 H   0  0  0  0  0  0  0  0  0  0  0  0
    1.0069    1.1590    0.9754 H   0  0  0  0  0  0  0  0  0  0  0  0
   -0.9013   -0.5336   -3.0929 C   0  0  0  0  0  0  0  0  0  0  0  0
   -1.0439   -0.4394   -1.6082 C   0  0  0  0  0  0  0  0  0  0  0  0
   -1.1327    0.7154   -0.9687 C   0  0  0  0  0  0  0  0  0  0  0  0
   -1.2568    0.9111    0.3813 O   0  0  0  0  0  0  0  0  0  0  0  0
   -1.3726   -0.2556    1.0868 O   0  0  0  0  0  0  0  0  0  0  0  0
    0.0141   -1.0655   -3.3640 H   0  0  0  0  0  0  0  0  0  0  0  0
   -1.7341   -1.0898   -3.5300 H   0  0  0  0  0  0  0  0  0  0  0  0
   -0.8714    0.4517   -3.5604 H   0  0  0  0  0  0  0  0  0  0  0  0
   -1.0880   -1.3578   -1.0376 H   0  0  0  0  0  0  0  0  0  0  0  0
   -1.1065    1.6841   -1.4539 H   0  0  0  0  0  0  0  0  0  0  0  0
   -0.2502   -0.6630    1.2789 H   0  0  0  0  0  0  0  0  0  0  0  0
  1  2  1  0
  1  4  1  0
  1  5  1  0
  1  6  1  0
  2  3  2  0
  2  7  1  0
  8  9  1  0
  8 13  1  0
  8 14  1  0
  8 15  1  0
  9 10  2  3
  9 16  1  0
 10 11  1  0
 10 17  1  0
 11 12  1  0
 12 18  1  0
M  RAD  1   3   2
M  END
>  <reaction>  (4) 
rmg_rxn_16751

>  <mol_properties>  (4) 
{"1": {"label": "*4", "atom_type": "Cd"}, "2": {"label": "*3", "atom_type": "N3d"}, "10": {"label": "*0", "atom_type": "O2s"}, "11": {"label": "*1", "atom_type": "O2s"}, "17": {"label": "*2", "atom_type": "H0"}}

>  <type>  (4) 
ts

$$$$
