
     RDKit          3D

  9  8  0  0  0  0  0  0  0  0999 V2000
   -1.0314    0.2323   -0.1227 C   0  0  0  0  0  0  0  0  0  0  0  0
    0.3094   -0.4511    0.0063 C   0  0  0  0  0  0  0  0  0  0  0  0
    0.3197   -1.7698    0.6841 N   0  0  0  0  0  0  0  0  0  0  0  0
   -0.7498   -2.1455    1.0557 O   0  0  0  0  0  0  0  0  0  0  0  0
   -1.4744    0.4198    0.8552 H   0  0  0  0  0  0  0  0  0  0  0  0
   -0.9073    1.1865   -0.6350 H   0  0  0  0  0  0  0  0  0  0  0  0
   -1.7319   -0.3778   -0.6927 H   0  0  0  0  0  0  0  0  0  0  0  0
    1.0375    0.1401    0.5713 H   0  0  0  0  0  0  0  0  0  0  0  0
    0.7826   -0.6494   -0.9609 H   0  0  0  0  0  0  0  0  0  0  0  0
  1  2  1  0
  1  5  1  0
  1  6  1  0
  1  7  1  0
  2  3  1  0
  2  8  1  0
  2  9  1  0
  3  4  2  0
M  END
>  <reaction>  (1) 
rmg_rxn_7

>  <mol_properties>  (1) 
{"1": {"label": "donator", "atom_type": "Cs"}, "7": {"label": "d_hydrogen", "atom_type": "H0"}}

>  <type>  (1) 
r1h

$$$$

     RDKit          3D

  4  3  0  0  0  0  0  0  0  0999 V2000
    1.2191   -0.0447   -0.0369 N   0  0  0  0  0  1  0  0  0  0  0  0
   -0.0876   -0.0060    0.2202 N   0  0  0  0  0  0  0  0  0  0  0  0
   -0.5966   -0.8143   -0.1273 H   0  0  0  0  0  0  0  0  0  0  0  0
   -0.5329    0.8649   -0.0563 H   0  0  0  0  0  0  0  0  0  0  0  0
  1  2  1  0
  2  3  1  0
  2  4  1  0
M  RAD  1   1   3
M  END
>  <reaction>  (2) 
rmg_rxn_7

>  <mol_properties>  (2) 
{"0": {"label": "acceptor", "atom_type": "N3s"}}

>  <type>  (2) 
r2

$$$$

     RDKit          3D

  5  4  0  0  0  0  0  0  0  0999 V2000
    0.7361   -0.2872    0.4035 N   0  0  0  0  0  2  0  0  0  0  0  0
   -0.3891   -0.1505   -0.3131 N   0  0  0  0  0  0  0  0  0  0  0  0
    1.4909    0.0686   -0.1831 H   0  0  0  0  0  0  0  0  0  0  0  0
   -1.1819   -0.6340    0.0744 H   0  0  0  0  0  0  0  0  0  0  0  0
   -0.3592   -0.1189   -1.3223 H   0  0  0  0  0  0  0  0  0  0  0  0
  1  2  1  0
  1  3  1  0
  2  4  1  0
  2  5  1  0
M  RAD  1   1   2
M  END
>  <reaction>  (3) 
rmg_rxn_7

>  <mol_properties>  (3) 
{"0": {"label": "acceptor", "atom_type": "N3s"}, "4": {"label": "a_hydrogen", "atom_type": "H0"}}

>  <type>  (3) 
r2h

$$$$

     RDKit          3D

 13 11  0  0  0  0  0  0  0  0999 V2000
    0.9429   -1.6904    0.6548 N   0  0  0  0  0  1  0  0  0  0  0  0
    1.9595   -1.2225    0.0655 N   0  0  0  0  0  0  0  0  0  0  0  0
    2.4765   -1.7804   -0.6103 H   0  0  0  0  0  0  0  0  0  0  0  0
    2.3077   -0.2777    0.2251 H   0  0  0  0  0  0  0  0  0  0  0  0
   -0.8904   -0.3779   -1.4726 C   0  0  0  0  0  0  0  0  0  0  0  0
   -0.9934   -0.1395    0.0181 C   0  0  0  0  0  0  0  0  0  0  0  0
   -0.7583    1.1585    0.4388 N   0  0  0  0  0  0  0  0  0  0  0  0
    0.0727    1.9457    0.0287 O   0  0  0  0  0  0  0  0  0  0  0  0
    0.1095   -0.1263   -1.8315 H   0  0  0  0  0  0  0  0  0  0  0  0
   -1.0754   -1.4314   -1.6787 H   0  0  0  0  0  0  0  0  0  0  0  0
   -1.6119    0.2254   -2.0264 H   0  0  0  0  0  0  0  0  0  0  0  0
   -0.0525   -0.8371    0.5847 H   0  0  0  0  0  0  0  0  0  0  0  0
   -1.8961   -0.5185    0.4906 H   0  0  0  0  0  0  0  0  0  0  0  0
  1  2  1  0
  2  3  1  0
  2  4  1  0
  5  6  1  0
  5  9  1  0
  5 10  1  0
  5 11  1  0
  6  7  1  0
  6 12  1  0
  6 13  1  0
  7  8  2  0
M  RAD  1   1   3
M  END
>  <reaction>  (4) 
rmg_rxn_7

>  <mol_properties>  (4) 
{"0": {"label": "*3", "atom_type": "N3s"}, "1": {"label": "*4", "atom_type": "N3s"}, "5": {"label": "*1", "atom_type": "Cs"}, "6": {"label": "*0", "atom_type": "N3d"}, "11": {"label": "*2", "atom_type": "H0"}}

>  <type>  (4) 
ts

$$$$
