
     RDKit          3D

  9  8  0  0  0  0  0  0  0  0999 V2000
   -1.5470   -0.0755   -0.1976 C   0  0  0  0  0  0  0  0  0  0  0  0
   -0.2885    0.4507    0.1749 O   0  0  0  0  0  0  0  0  0  0  0  0
   -0.1502    1.7216   -0.3294 N   0  0  0  0  0  0  0  0  0  0  0  0
    0.9626    2.2353   -0.0219 C   0  0  0  0  0  0  0  0  0  0  0  0
   -1.6392   -0.1356   -1.2844 H   0  0  0  0  0  0  0  0  0  0  0  0
   -2.3597    0.5337    0.2044 H   0  0  0  0  0  0  0  0  0  0  0  0
   -1.5879   -1.0750    0.2318 H   0  0  0  0  0  0  0  0  0  0  0  0
    1.1497    3.2381   -0.3820 H   0  0  0  0  0  0  0  0  0  0  0  0
    1.7060    1.7101    0.5739 H   0  0  0  0  0  0  0  0  0  0  0  0
  1  2  1  0
  1  5  1  0
  1  6  1  0
  1  7  1  0
  2  3  1  0
  3  4  2  3
  4  8  1  0
  4  9  1  0
M  END
>  <reaction>  (1) 
rmg_rxn_15722

>  <mol_properties>  (1) 
{"0": {"label": "donator", "atom_type": "Cs"}, "4": {"label": "d_hydrogen", "atom_type": "H0"}}

>  <type>  (1) 
r1h

$$$$

     RDKit          3D

  8  7  0  0  0  0  0  0  0  0999 V2000
    1.4098   -0.3617   -0.1137 C   0  0  0  0  0  0  0  0  0  0  0  0
    0.1829   -0.1715   -0.5109 C   0  0  0  0  0  3  0  0  0  0  0  0
   -1.1129    0.2669    0.0153 C   0  0  0  0  0  0  0  0  0  0  0  0
    2.1881   -0.7137   -0.7829 H   0  0  0  0  0  0  0  0  0  0  0  0
    1.7065   -0.1722    0.9205 H   0  0  0  0  0  0  0  0  0  0  0  0
   -1.8665   -0.5154   -0.0958 H   0  0  0  0  0  0  0  0  0  0  0  0
   -1.0351    0.5163    1.0818 H   0  0  0  0  0  0  0  0  0  0  0  0
   -1.4726    1.1513   -0.5143 H   0  0  0  0  0  0  0  0  0  0  0  0
  1  2  2  3
  1  4  1  0
  1  5  1  0
  2  3  1  0
  3  6  1  0
  3  7  1  0
  3  8  1  0
M  RAD  1   2   2
M  END
>  <reaction>  (2) 
rmg_rxn_15722

>  <mol_properties>  (2) 
{"1": {"label": "acceptor", "atom_type": "Cd"}}

>  <type>  (2) 
r2

$$$$

     RDKit          3D

  9  8  0  0  0  0  0  0  0  0999 V2000
    1.1303   -0.2933   -0.7510 C   0  0  0  0  0  0  0  0  0  0  0  0
    0.2866    0.4560   -0.0588 C   0  0  0  0  0  0  0  0  0  0  0  0
   -0.9719   -0.0331    0.5823 C   0  0  0  0  0  0  0  0  0  0  0  0
    2.0274    0.1230   -1.1916 H   0  0  0  0  0  0  0  0  0  0  0  0
    0.9532   -1.3530   -0.9023 H   0  0  0  0  0  0  0  0  0  0  0  0
    0.5065    1.5132    0.0659 H   0  0  0  0  0  0  0  0  0  0  0  0
   -0.9526    0.1426    1.6610 H   0  0  0  0  0  0  0  0  0  0  0  0
   -1.1182   -1.1002    0.4106 H   0  0  0  0  0  0  0  0  0  0  0  0
   -1.8412    0.5010    0.1901 H   0  0  0  0  0  0  0  0  0  0  0  0
  1  2  2  3
  1  4  1  0
  1  5  1  0
  2  3  1  0
  2  6  1  0
  3  7  1  0
  3  8  1  0
  3  9  1  0
M  END
>  <reaction>  (3) 
rmg_rxn_15722

>  <mol_properties>  (3) 
{"0": {"label": "a_hydrogen", "atom_type": "H0"}, "2": {"label": "acceptor", "atom_type": "Cd"}}

>  <type>  (3) 
r2h

$$$$

     RDKit          3D

 17 15  0  0  0  0  0  0  0  0999 V2000
   -0.2482   -1.4998   -0.0836 C   0  0  0  0  0  0  0  0  0  0  0  0
   -1.3188   -0.7780    0.4377 O   0  0  0  0  0  0  0  0  0  0  0  0
   -1.7422    0.1768   -0.4606 N   0  0  0  0  0  0  0  0  0  0  0  0
   -2.6824    0.8781    0.0097 C   0  0  0  0  0  0  0  0  0  0  0  0
    0.8058   -0.7428   -0.0677 H   0  0  0  0  0  0  0  0  0  0  0  0
   -0.4011   -1.7940   -1.1218 H   0  0  0  0  0  0  0  0  0  0  0  0
   -0.0522   -2.3324    0.5872 H   0  0  0  0  0  0  0  0  0  0  0  0
   -3.0800    1.6489   -0.6368 H   0  0  0  0  0  0  0  0  0  0  0  0
   -3.0845    0.7266    1.0089 H   0  0  0  0  0  0  0  0  0  0  0  0
    3.0694   -0.3883   -0.1090 C   0  0  0  0  0  0  0  0  0  0  0  0
    1.8748    0.1521   -0.0170 C   0  0  0  0  0  3  0  0  0  0  0  0
    1.4459    1.5622    0.1253 C   0  0  0  0  0  0  0  0  0  0  0  0
    3.2066   -1.4596   -0.2108 H   0  0  0  0  0  0  0  0  0  0  0  0
    3.9732    0.2193   -0.0879 H   0  0  0  0  0  0  0  0  0  0  0  0
    0.7941    1.8503   -0.7022 H   0  0  0  0  0  0  0  0  0  0  0  0
    0.8718    1.7000    1.0447 H   0  0  0  0  0  0  0  0  0  0  0  0
    2.3061    2.2388    0.1487 H   0  0  0  0  0  0  0  0  0  0  0  0
  1  2  1  0
  1  5  1  0
  1  6  1  0
  1  7  1  0
  2  3  1  0
  3  4  2  3
  4  8  1  0
  4  9  1  0
 10 11  2  3
 10 13  1  0
 10 14  1  0
 11 12  1  0
 12 15  1  0
 12 16  1  0
 12 17  1  0
M  RAD  1  11   2
M  END
>  <reaction>  (4) 
rmg_rxn_15722

>  <mol_properties>  (4) 
{"0": {"label": "*1", "atom_type": "Cs"}, "1": {"label": "*0", "atom_type": "O2s"}, "4": {"label": "*2", "atom_type": "H0"}, "9": {"label": "*4", "atom_type": "Cd"}, "10": {"label": "*3", "atom_type": "Cd"}}

>  <type>  (4) 
ts

$$$$
