
     RDKit          3D

  6  5  0  0  0  0  0  0  0  0999 V2000
    0.7119    0.0884   -0.0825 N   0  0  0  0  0  0  0  0  0  0  0  0
   -0.7119   -0.0884   -0.0825 N   0  0  0  0  0  0  0  0  0  0  0  0
    1.2024   -0.8022   -0.2114 H   0  0  0  0  0  0  0  0  0  0  0  0
    1.0692    0.4903    0.7889 H   0  0  0  0  0  0  0  0  0  0  0  0
   -1.2024    0.8022   -0.2114 H   0  0  0  0  0  0  0  0  0  0  0  0
   -1.0692   -0.4903    0.7889 H   0  0  0  0  0  0  0  0  0  0  0  0
  1  2  1  0
  1  3  1  0
  1  4  1  0
  2  5  1  0
  2  6  1  0
M  END
>  <reaction>  (1) 
rmg_rxn_16802

>  <mol_properties>  (1) 
{"1": {"label": "donator", "atom_type": "N3s"}, "4": {"label": "d_hydrogen", "atom_type": "H0"}}

>  <type>  (1) 
r1h

$$$$

     RDKit          3D

  7  6  0  0  0  0  0  0  0  0999 V2000
   -1.2010    0.1038   -0.0002 C   0  0  0  0  0  0  0  0  0  0  0  0
    0.1886   -0.4250   -0.0003 C   0  0  0  0  0  3  0  0  0  0  0  0
    1.3309    0.0272    0.0001 N   0  0  0  0  0  0  0  0  0  0  0  0
   -1.7355   -0.2512    0.8930 H   0  0  0  0  0  0  0  0  0  0  0  0
   -1.2181    1.2094   -0.0132 H   0  0  0  0  0  0  0  0  0  0  0  0
   -1.7468   -0.2736   -0.8772 H   0  0  0  0  0  0  0  0  0  0  0  0
    1.4589    1.0518   -0.0003 H   0  0  0  0  0  0  0  0  0  0  0  0
  1  2  1  0
  1  4  1  0
  1  5  1  0
  1  6  1  0
  2  3  2  3
  3  7  1  0
M  RAD  1   2   2
M  END
>  <reaction>  (2) 
rmg_rxn_16802

>  <mol_properties>  (2) 
{"1": {"label": "acceptor", "atom_type": "Cd"}}

>  <type>  (2) 
r2

$$$$

     RDKit          3D

  8  7  0  0  0  0  0  0  0  0999 V2000
    1.2099   -0.1388    0.0025 C   0  0  0  0  0  0  0  0  0  0  0  0
   -0.1788    0.4141    0.0007 C   0  0  0  0  0  0  0  0  0  0  0  0
   -1.2100   -0.3603    0.0013 N   0  0  0  0  0  0  0  0  0  0  0  0
    1.7355    0.2223   -0.8851 H   0  0  0  0  0  0  0  0  0  0  0  0
    1.7521    0.1663    0.9007 H   0  0  0  0  0  0  0  0  0  0  0  0
    1.1564   -1.2296   -0.0424 H   0  0  0  0  0  0  0  0  0  0  0  0
   -0.2911    1.5112   -0.0010 H   0  0  0  0  0  0  0  0  0  0  0  0
   -2.0699    0.2005   -0.0002 H   0  0  0  0  0  0  0  0  0  0  0  0
  1  2  1  0
  1  4  1  0
  1  5  1  0
  1  6  1  0
  2  3  2  3
  2  7  1  0
  3  8  1  0
M  END
>  <reaction>  (3) 
rmg_rxn_16802

>  <mol_properties>  (3) 
{"0": {"label": "a_hydrogen", "atom_type": "H0"}, "2": {"label": "acceptor", "atom_type": "Cd"}}

>  <type>  (3) 
r2h

$$$$

     RDKit          3D

 13 11  0  0  0  0  0  0  0  0999 V2000
    2.3094    0.4522    0.2379 N   0  0  0  0  0  0  0  0  0  0  0  0
    1.4503   -0.4560   -0.4661 N   0  0  0  0  0  0  0  0  0  0  0  0
    3.2402    0.4980   -0.1886 H   0  0  0  0  0  0  0  0  0  0  0  0
    2.4544    0.1937    1.2180 H   0  0  0  0  0  0  0  0  0  0  0  0
    0.2702   -0.2904   -0.1617 H   0  0  0  0  0  0  0  0  0  0  0  0
    1.6609   -1.4401   -0.2773 H   0  0  0  0  0  0  0  0  0  0  0  0
   -1.5998    1.2310   -0.0975 C   0  0  0  0  0  0  0  0  0  0  0  0
   -0.9996   -0.1123    0.1658 C   0  0  0  0  0  3  0  0  0  0  0  0
   -1.7082   -1.1881    0.1051 N   0  0  0  0  0  0  0  0  0  0  0  0
   -1.1289    1.7084   -0.9601 H   0  0  0  0  0  0  0  0  0  0  0  0
   -2.6702    1.1100   -0.2826 H   0  0  0  0  0  0  0  0  0  0  0  0
   -1.4667    1.8576    0.7881 H   0  0  0  0  0  0  0  0  0  0  0  0
   -1.1237   -2.0055    0.3154 H   0  0  0  0  0  0  0  0  0  0  0  0
  1  2  1  0
  1  3  1  0
  1  4  1  0
  2  5  1  0
  2  6  1  0
  7  8  1  0
  7 10  1  0
  7 11  1  0
  7 12  1  0
  8  9  2  3
  9 13  1  0
M  RAD  1   8   2
M  END
>  <reaction>  (4) 
rmg_rxn_16802

>  <mol_properties>  (4) 
{"0": {"label": "*0", "atom_type": "N3s"}, "1": {"label": "*1", "atom_type": "N3s"}, "4": {"label": "*2", "atom_type": "H0"}, "7": {"label": "*3", "atom_type": "Cd"}, "8": {"label": "*4", "atom_type": "N3d"}}

>  <type>  (4) 
ts

$$$$
