
     RDKit          3D

  9  8  0  0  0  0  0  0  0  0999 V2000
    1.0366    1.3666   -1.0040 O   0  0  0  0  0  1  0  0  0  0  0  0
    0.8763    0.9651    0.1786 N   0  0  0  0  0  0  0  0  0  0  0  0
    0.0999    0.0100    0.5787 C   0  0  0  0  0  3  0  0  0  0  0  0
   -0.7197   -0.7380   -0.4015 C   0  0  0  0  0  0  0  0  0  0  0  0
    1.4193    1.4472    0.9012 H   0  0  0  0  0  0  0  0  0  0  0  0
    0.0997   -0.1874    1.6410 H   0  0  0  0  0  0  0  0  0  0  0  0
   -1.3136   -1.5037    0.0930 H   0  0  0  0  0  0  0  0  0  0  0  0
   -1.3825   -0.0572   -0.9424 H   0  0  0  0  0  0  0  0  0  0  0  0
   -0.0802   -1.2049   -1.1555 H   0  0  0  0  0  0  0  0  0  0  0  0
  1  2  1  0
  2  3  1  0
  2  5  1  0
  3  4  1  0
  3  6  1  0
  4  7  1  0
  4  8  1  0
  4  9  1  0
M  CHG  2   1  -1   3   1
M  END
>  <reaction>  (1) 
rmg_rxn_16672

>  <mol_properties>  (1) 
{"3": {"label": "donator", "atom_type": "Cs"}, "6": {"label": "d_hydrogen", "atom_type": "H0"}}

>  <type>  (1) 
r1h

$$$$

     RDKit          3D

  7  6  0  0  0  0  0  0  0  0999 V2000
   -0.6441   -0.1356    0.0624 C   0  0  0  0  0  0  0  0  0  0  0  0
    0.8523    0.0148   -0.0333 C   0  0  0  0  0  0  0  0  0  0  0  0
    1.6700   -0.6077    0.6603 N   0  0  0  0  0  2  0  0  0  0  0  0
   -1.0940    0.8275    0.3091 H   0  0  0  0  0  0  0  0  0  0  0  0
   -0.9104   -0.8656    0.8237 H   0  0  0  0  0  0  0  0  0  0  0  0
   -1.0427   -0.4545   -0.9022 H   0  0  0  0  0  0  0  0  0  0  0  0
    1.2362    0.7308   -0.7748 H   0  0  0  0  0  0  0  0  0  0  0  0
  1  2  1  0
  1  4  1  0
  1  5  1  0
  1  6  1  0
  2  3  2  0
  2  7  1  0
M  RAD  1   3   2
M  END
>  <reaction>  (2) 
rmg_rxn_16672

>  <mol_properties>  (2) 
{"2": {"label": "acceptor", "atom_type": "N3d"}}

>  <type>  (2) 
r2

$$$$

     RDKit          3D

  8  7  0  0  0  0  0  0  0  0999 V2000
    0.9548    0.1194   -0.0790 C   0  0  0  0  0  0  0  0  0  0  0  0
   -0.4838   -0.2649    0.0193 C   0  0  0  0  0  0  0  0  0  0  0  0
   -0.8933   -1.1081    0.8664 N   0  0  0  0  0  0  0  0  0  0  0  0
    1.3360   -0.0983   -1.0800 H   0  0  0  0  0  0  0  0  0  0  0  0
    1.0698    1.1948    0.0786 H   0  0  0  0  0  0  0  0  0  0  0  0
    1.5426   -0.4219    0.6602 H   0  0  0  0  0  0  0  0  0  0  0  0
   -1.1575    0.2324   -0.6905 H   0  0  0  0  0  0  0  0  0  0  0  0
   -1.8989   -1.2455    0.7886 H   0  0  0  0  0  0  0  0  0  0  0  0
  1  2  1  0
  1  4  1  0
  1  5  1  0
  1  6  1  0
  2  3  2  3
  2  7  1  0
  3  8  1  0
M  END
>  <reaction>  (3) 
rmg_rxn_16672

>  <mol_properties>  (3) 
{"2": {"label": "acceptor", "atom_type": "N3d"}, "7": {"label": "a_hydrogen", "atom_type": "H0"}}

>  <type>  (3) 
r2h

$$$$

     RDKit          3D

 16 14  0  0  0  0  0  0  0  0999 V2000
    3.1708   -0.7163   -0.1236 C   0  0  0  0  0  0  0  0  0  0  0  0
    1.8263   -0.1004    0.1284 C   0  0  0  0  0  0  0  0  0  0  0  0
    1.5456    1.0607   -0.2526 N   0  0  0  0  0  2  0  0  0  0  0  0
    3.0480   -1.6332   -0.7037 H   0  0  0  0  0  0  0  0  0  0  0  0
    3.6322   -0.9913    0.8273 H   0  0  0  0  0  0  0  0  0  0  0  0
    3.8222   -0.0285   -0.6594 H   0  0  0  0  0  0  0  0  0  0  0  0
    1.0875   -0.7213    0.6485 H   0  0  0  0  0  0  0  0  0  0  0  0
   -1.2443   -1.4381    0.1611 O   0  0  0  0  0  1  0  0  0  0  0  0
   -1.8757   -0.5689   -0.5059 N   0  0  0  0  0  0  0  0  0  0  0  0
   -1.7857    0.7339   -0.3819 C   0  0  0  0  0  3  0  0  0  0  0  0
   -0.9059    1.3390    0.5702 C   0  0  0  0  0  0  0  0  0  0  0  0
   -2.5276   -0.9226   -1.2076 H   0  0  0  0  0  0  0  0  0  0  0  0
   -2.3700    1.3025   -1.0923 H   0  0  0  0  0  0  0  0  0  0  0  0
    0.2966    1.3116    0.0959 H   0  0  0  0  0  0  0  0  0  0  0  0
   -1.0842    2.3967    0.7366 H   0  0  0  0  0  0  0  0  0  0  0  0
   -0.7794    0.7641    1.4856 H   0  0  0  0  0  0  0  0  0  0  0  0
  1  2  1  0
  1  4  1  0
  1  5  1  0
  1  6  1  0
  2  3  2  0
  2  7  1  0
  8  9  1  0
  9 10  1  0
  9 12  1  0
 10 11  1  0
 10 13  1  0
 11 14  1  0
 11 15  1  0
 11 16  1  0
M  CHG  2   8  -1  10   1
M  RAD  1   3   2
M  END
>  <reaction>  (4) 
rmg_rxn_16672

>  <mol_properties>  (4) 
{"1": {"label": "*4", "atom_type": "Cd"}, "2": {"label": "*3", "atom_type": "N3d"}, "9": {"label": "*0", "atom_type": "Csc"}, "10": {"label": "*1", "atom_type": "Cs"}, "13": {"label": "*2", "atom_type": "H0"}}

>  <type>  (4) 
ts

$$$$
