
     RDKit          3D

  9  9  0  0  0  0  0  0  0  0999 V2000
    1.4292   -0.6130    0.5042 O   0  0  0  0  0  0  0  0  0  0  0  0
    0.4683   -0.3219   -0.5063 N   0  0  0  0  0  0  0  0  0  0  0  0
   -0.2267    0.9155   -0.1805 C   0  0  0  0  0  0  0  0  0  0  0  0
   -0.8728   -0.3965    0.0559 C   0  0  0  0  0  0  0  0  0  0  0  0
    2.1248   -1.0453    0.0059 H   0  0  0  0  0  0  0  0  0  0  0  0
   -0.4980    1.5264   -1.0321 H   0  0  0  0  0  0  0  0  0  0  0  0
    0.1405    1.4456    0.6886 H   0  0  0  0  0  0  0  0  0  0  0  0
   -0.9339   -0.7359    1.0817 H   0  0  0  0  0  0  0  0  0  0  0  0
   -1.6314   -0.7750   -0.6174 H   0  0  0  0  0  0  0  0  0  0  0  0
  1  2  1  0
  1  5  1  0
  2  3  1  0
  2  4  1  0
  3  4  1  0
  3  6  1  0
  3  7  1  0
  4  8  1  0
  4  9  1  0
M  END
>  <reaction>  (1) 
rmg_rxn_15467

>  <mol_properties>  (1) 
{"0": {"label": "donator", "atom_type": "O2s"}, "4": {"label": "d_hydrogen", "atom_type": "H0"}}

>  <type>  (1) 
r1h

$$$$

     RDKit          3D

  5  4  0  0  0  0  0  0  0  0999 V2000
    0.8934    0.3742    0.4948 O   0  0  0  0  0  0  0  0  0  0  0  0
    0.1582   -0.1610   -0.5904 N   0  0  0  0  0  0  0  0  0  0  0  0
   -1.0297   -0.3739   -0.4689 C   0  0  0  0  0  3  0  0  0  0  0  0
    1.7805    0.4382    0.1306 H   0  0  0  0  0  0  0  0  0  0  0  0
   -1.8023   -0.2775    0.2859 H   0  0  0  0  0  0  0  0  0  0  0  0
  1  2  1  0
  1  4  1  0
  2  3  2  3
  3  5  1  0
M  RAD  1   3   2
M  END
>  <reaction>  (2) 
rmg_rxn_15467

>  <mol_properties>  (2) 
{"2": {"label": "acceptor", "atom_type": "Cd"}}

>  <type>  (2) 
r2

$$$$

     RDKit          3D

  6  5  0  0  0  0  0  0  0  0999 V2000
    1.2314    0.0428    0.5088 O   0  0  0  0  0  0  0  0  0  0  0  0
    0.2987    0.2341   -0.4915 N   0  0  0  0  0  0  0  0  0  0  0  0
   -0.8599   -0.1122   -0.1290 C   0  0  0  0  0  0  0  0  0  0  0  0
    2.0507    0.3401    0.1082 H   0  0  0  0  0  0  0  0  0  0  0  0
   -1.0700   -0.5112    0.8610 H   0  0  0  0  0  0  0  0  0  0  0  0
   -1.6509    0.0064   -0.8574 H   0  0  0  0  0  0  0  0  0  0  0  0
  1  2  1  0
  1  4  1  0
  2  3  2  3
  3  5  1  0
  3  6  1  0
M  END
>  <reaction>  (3) 
rmg_rxn_15467

>  <mol_properties>  (3) 
{"2": {"label": "acceptor", "atom_type": "Cd"}, "5": {"label": "a_hydrogen", "atom_type": "H0"}}

>  <type>  (3) 
r2h

$$$$

     RDKit          3D

 14 13  0  0  0  0  0  0  0  0999 V2000
    1.4173   -2.5602    1.5846 O   0  0  0  0  0  0  0  0  0  0  0  0
    0.8451   -1.4707    0.9298 N   0  0  0  0  0  0  0  0  0  0  0  0
    1.2875   -0.3533    1.1814 C   0  0  0  0  0  3  0  0  0  0  0  0
    0.9203   -3.3043    1.2355 H   0  0  0  0  0  0  0  0  0  0  0  0
    2.0831   -0.0326    1.8532 H   0  0  0  0  0  0  0  0  0  0  0  0
    0.0721    1.4243   -0.1395 O   0  0  0  0  0  0  0  0  0  0  0  0
   -0.8387    0.6949   -0.8617 N   0  0  0  0  0  0  0  0  0  0  0  0
   -1.1001    1.2470   -2.1757 C   0  0  0  0  0  0  0  0  0  0  0  0
   -2.0929    1.3907   -1.0688 C   0  0  0  0  0  0  0  0  0  0  0  0
    0.6279    0.6772    0.4560 H   0  0  0  0  0  0  0  0  0  0  0  0
   -1.2515    0.5225   -2.9659 H   0  0  0  0  0  0  0  0  0  0  0  0
   -0.5379    2.1337   -2.4407 H   0  0  0  0  0  0  0  0  0  0  0  0
   -2.1748    2.3707   -0.6155 H   0  0  0  0  0  0  0  0  0  0  0  0
   -2.9814    0.7729   -1.0369 H   0  0  0  0  0  0  0  0  0  0  0  0
  1  2  1  0
  1  4  1  0
  2  3  2  3
  3  5  1  0
  6  7  1  0
  6 10  1  0
  7  8  1  0
  7  9  1  0
  8  9  1  0
  8 11  1  0
  8 12  1  0
  9 13  1  0
  9 14  1  0
M  RAD  1   3   2
M  END
>  <reaction>  (4) 
rmg_rxn_15467

>  <mol_properties>  (4) 
{"1": {"label": "*4", "atom_type": "N3d"}, "2": {"label": "*3", "atom_type": "Cd"}, "5": {"label": "*1", "atom_type": "O2s"}, "6": {"label": "*0", "atom_type": "N3s"}, "9": {"label": "*2", "atom_type": "H0"}}

>  <type>  (4) 
ts

$$$$
