
     RDKit          3D

  8  7  0  0  0  0  0  0  0  0999 V2000
    0.9548    0.1194   -0.0790 C   0  0  0  0  0  0  0  0  0  0  0  0
   -0.4838   -0.2649    0.0193 C   0  0  0  0  0  0  0  0  0  0  0  0
   -0.8933   -1.1081    0.8664 N   0  0  0  0  0  0  0  0  0  0  0  0
    1.3360   -0.0983   -1.0800 H   0  0  0  0  0  0  0  0  0  0  0  0
    1.0698    1.1948    0.0786 H   0  0  0  0  0  0  0  0  0  0  0  0
    1.5426   -0.4219    0.6602 H   0  0  0  0  0  0  0  0  0  0  0  0
   -1.1575    0.2324   -0.6905 H   0  0  0  0  0  0  0  0  0  0  0  0
   -1.8989   -1.2455    0.7886 H   0  0  0  0  0  0  0  0  0  0  0  0
  1  2  1  0
  1  4  1  0
  1  5  1  0
  1  6  1  0
  2  3  2  3
  2  7  1  0
  3  8  1  0
M  END
>  <reaction>  (1) 
rmg_rxn_16468

>  <mol_properties>  (1) 
{"2": {"label": "donator", "atom_type": "N3d"}, "7": {"label": "d_hydrogen", "atom_type": "H0"}}

>  <type>  (1) 
r1h

$$$$

     RDKit          3D

 13 13  0  0  0  0  0  0  0  0999 V2000
   -0.9087    1.0135    0.2744 C   0  0  0  0  0  3  0  0  0  0  0  0
   -1.1528   -0.4306   -0.0132 C   0  0  0  0  0  0  0  0  0  0  0  0
    0.1597   -1.1985    0.0580 C   0  0  0  0  0  0  0  0  0  0  0  0
    1.1497   -0.5125   -0.6902 O   0  0  0  0  0  0  0  0  0  0  0  0
    1.3593    0.7608   -0.1866 C   0  0  0  0  0  0  0  0  0  0  0  0
    0.2092    1.5798   -0.2538 O   0  0  0  0  0  0  0  0  0  0  0  0
   -1.7260    1.7182    0.3534 H   0  0  0  0  0  0  0  0  0  0  0  0
   -1.8796   -0.8393    0.6913 H   0  0  0  0  0  0  0  0  0  0  0  0
   -1.5725   -0.5507   -1.0227 H   0  0  0  0  0  0  0  0  0  0  0  0
    0.4914   -1.2968    1.1007 H   0  0  0  0  0  0  0  0  0  0  0  0
    0.0732   -2.1931   -0.3758 H   0  0  0  0  0  0  0  0  0  0  0  0
    1.6805    0.7077    0.8652 H   0  0  0  0  0  0  0  0  0  0  0  0
    2.1167    1.2415   -0.8007 H   0  0  0  0  0  0  0  0  0  0  0  0
  1  2  1  0
  1  6  1  0
  1  7  1  0
  2  3  1  0
  2  8  1  0
  2  9  1  0
  3  4  1  0
  3 10  1  0
  3 11  1  0
  4  5  1  0
  5  6  1  0
  5 12  1  0
  5 13  1  0
M  RAD  1   1   2
M  END
>  <reaction>  (2) 
rmg_rxn_16468

>  <mol_properties>  (2) 
{"0": {"label": "acceptor", "atom_type": "Cs"}}

>  <type>  (2) 
r2

$$$$

     RDKit          3D

 14 14  0  0  0  0  0  0  0  0999 V2000
   -1.1778    0.2241    0.1818 C   0  0  0  0  0  0  0  0  0  0  0  0
   -0.5633   -1.1636    0.0678 C   0  0  0  0  0  0  0  0  0  0  0  0
    0.6943   -1.1996    0.7146 O   0  0  0  0  0  0  0  0  0  0  0  0
    1.5547   -0.2288    0.2011 C   0  0  0  0  0  0  0  0  0  0  0  0
    1.0729    1.0696    0.3698 O   0  0  0  0  0  0  0  0  0  0  0  0
   -0.1607    1.2493   -0.2989 C   0  0  0  0  0  0  0  0  0  0  0  0
   -2.0927    0.2866   -0.4117 H   0  0  0  0  0  0  0  0  0  0  0  0
   -1.4303    0.4248    1.2248 H   0  0  0  0  0  0  0  0  0  0  0  0
   -1.1822   -1.9235    0.5431 H   0  0  0  0  0  0  0  0  0  0  0  0
   -0.4389   -1.4347   -0.9919 H   0  0  0  0  0  0  0  0  0  0  0  0
    1.7250   -0.4207   -0.8742 H   0  0  0  0  0  0  0  0  0  0  0  0
    2.4896   -0.3010    0.7524 H   0  0  0  0  0  0  0  0  0  0  0  0
   -0.0080    1.1481   -1.3844 H   0  0  0  0  0  0  0  0  0  0  0  0
   -0.4826    2.2695   -0.0942 H   0  0  0  0  0  0  0  0  0  0  0  0
  1  2  1  0
  1  6  1  0
  1  7  1  0
  1  8  1  0
  2  3  1  0
  2  9  1  0
  2 10  1  0
  3  4  1  0
  4  5  1  0
  4 11  1  0
  4 12  1  0
  5  6  1  0
  6 13  1  0
  6 14  1  0
M  END
>  <reaction>  (3) 
rmg_rxn_16468

>  <mol_properties>  (3) 
{"0": {"label": "a_hydrogen", "atom_type": "H0"}, "1": {"label": "acceptor", "atom_type": "Cs"}}

>  <type>  (3) 
r2h

$$$$

     RDKit          3D

 21 20  0  0  0  0  0  0  0  0999 V2000
    2.8687   -0.8121    0.0737 C   0  0  0  0  0  0  0  0  0  0  0  0
    2.6345    0.5522   -0.5102 C   0  0  0  0  0  0  0  0  0  0  0  0
    1.6421    1.3100   -0.3793 N   0  0  0  0  0  0  0  0  0  0  0  0
    2.0207   -1.1599    0.6599 H   0  0  0  0  0  0  0  0  0  0  0  0
    3.0650   -1.5245   -0.7311 H   0  0  0  0  0  0  0  0  0  0  0  0
    3.7615   -0.7902    0.7030 H   0  0  0  0  0  0  0  0  0  0  0  0
    3.4534    0.9321   -1.1373 H   0  0  0  0  0  0  0  0  0  0  0  0
    0.7697    0.7749    0.3728 H   0  0  0  0  0  0  0  0  0  0  0  0
   -0.2349    0.2922    1.1436 C   0  0  0  0  0  3  0  0  0  0  0  0
   -1.4019    1.1713    0.7599 C   0  0  0  0  0  0  0  0  0  0  0  0
   -1.8693    0.7932   -0.6373 C   0  0  0  0  0  0  0  0  0  0  0  0
   -2.0715   -0.6102   -0.7124 O   0  0  0  0  0  0  0  0  0  0  0  0
   -0.9042   -1.2977   -0.4203 C   0  0  0  0  0  0  0  0  0  0  0  0
   -0.4374   -1.0548    0.8877 O   0  0  0  0  0  0  0  0  0  0  0  0
    0.1257    0.4062    2.1641 H   0  0  0  0  0  0  0  0  0  0  0  0
   -2.2221    1.0281    1.4709 H   0  0  0  0  0  0  0  0  0  0  0  0
   -1.0994    2.2194    0.7915 H   0  0  0  0  0  0  0  0  0  0  0  0
   -2.8210    1.2589   -0.8870 H   0  0  0  0  0  0  0  0  0  0  0  0
   -1.1213    1.0982   -1.3806 H   0  0  0  0  0  0  0  0  0  0  0  0
   -1.1210   -2.3615   -0.4804 H   0  0  0  0  0  0  0  0  0  0  0  0
   -0.1099   -1.0184   -1.1319 H   0  0  0  0  0  0  0  0  0  0  0  0
  1  2  1  0
  1  4  1  0
  1  5  1  0
  1  6  1  0
  2  3  2  3
  2  7  1  0
  3  8  1  0
  9 10  1  0
  9 14  1  0
  9 15  1  0
 10 11  1  0
 10 16  1  0
 10 17  1  0
 11 12  1  0
 11 18  1  0
 11 19  1  0
 12 13  1  0
 13 14  1  0
 13 20  1  0
 13 21  1  0
M  RAD  1   9   2
M  END
>  <reaction>  (4) 
rmg_rxn_16468

>  <mol_properties>  (4) 
{"1": {"label": "*0", "atom_type": "Cd"}, "2": {"label": "*1", "atom_type": "N3d"}, "7": {"label": "*2", "atom_type": "H0"}, "8": {"label": "*3", "atom_type": "Cs"}, "13": {"label": "*4", "atom_type": "O2s"}}

>  <type>  (4) 
ts

$$$$
