
     RDKit          3D

 18 17  0  0  0  0  0  0  0  0999 V2000
   -2.0259    0.7229    0.6723 C   0  0  0  0  0  0  0  0  0  0  0  0
   -2.2633   -0.2033   -0.5051 C   0  0  0  0  0  0  0  0  0  0  0  0
   -3.5759   -0.8351   -0.4348 N   0  0  0  0  0  0  0  0  0  0  0  0
   -3.5393   -1.8229    0.5861 O   0  0  0  0  0  0  0  0  0  0  0  0
   -4.4084   -1.5320    1.5957 C   0  0  0  0  0  0  0  0  0  0  0  0
   -4.4166   -2.2104    2.7340 C   0  0  0  0  0  0  0  0  0  0  0  0
   -3.4994   -3.3391    3.0843 C   0  0  0  0  0  0  0  0  0  0  0  0
   -2.0352    0.1659    1.6099 H   0  0  0  0  0  0  0  0  0  0  0  0
   -1.0559    1.2133    0.5798 H   0  0  0  0  0  0  0  0  0  0  0  0
   -2.8013    1.4887    0.7204 H   0  0  0  0  0  0  0  0  0  0  0  0
   -2.2626    0.3628   -1.4408 H   0  0  0  0  0  0  0  0  0  0  0  0
   -1.4644   -0.9527   -0.5666 H   0  0  0  0  0  0  0  0  0  0  0  0
   -3.7195   -1.3835   -1.2755 H   0  0  0  0  0  0  0  0  0  0  0  0
   -5.0825   -0.7139    1.3763 H   0  0  0  0  0  0  0  0  0  0  0  0
   -5.1648   -1.9154    3.4592 H   0  0  0  0  0  0  0  0  0  0  0  0
   -2.9929   -3.1494    4.0339 H   0  0  0  0  0  0  0  0  0  0  0  0
   -4.0525   -4.2753    3.1986 H   0  0  0  0  0  0  0  0  0  0  0  0
   -2.7409   -3.4889    2.3171 H   0  0  0  0  0  0  0  0  0  0  0  0
  1  2  1  0
  1  8  1  0
  1  9  1  0
  1 10  1  0
  2  3  1  0
  2 11  1  0
  2 12  1  0
  3  4  1  0
  3 13  1  0
  4  5  1  0
  5  6  2  3
  5 14  1  0
  6  7  1  0
  6 15  1  0
  7 16  1  0
  7 17  1  0
  7 18  1  0
M  END
>  <reaction>  (1) 
rmg_rxn_15713

>  <mol_properties>  (1) 
{"2": {"label": "donator", "atom_type": "N3s"}, "12": {"label": "d_hydrogen", "atom_type": "H0"}}

>  <type>  (1) 
r1h

$$$$

     RDKit          3D

  8  7  0  0  0  0  0  0  0  0999 V2000
    1.7077   -0.1964   -0.0607 C   0  0  0  0  0  3  0  0  0  0  0  0
    0.4209   -0.4565    0.2808 O   0  0  0  0  0  0  0  0  0  0  0  0
   -0.4607    0.4385   -0.2968 N   0  0  0  0  0  0  0  0  0  0  0  0
   -1.6584    0.1416   -0.0244 C   0  0  0  0  0  0  0  0  0  0  0  0
    2.4163   -0.7685    0.5170 H   0  0  0  0  0  0  0  0  0  0  0  0
    1.9214    0.7645   -0.5045 H   0  0  0  0  0  0  0  0  0  0  0  0
   -2.4185    0.7953   -0.4307 H   0  0  0  0  0  0  0  0  0  0  0  0
   -1.9286   -0.7185    0.5831 H   0  0  0  0  0  0  0  0  0  0  0  0
  1  2  1  0
  1  5  1  0
  1  6  1  0
  2  3  1  0
  3  4  2  3
  4  7  1  0
  4  8  1  0
M  RAD  1   1   2
M  END
>  <reaction>  (2) 
rmg_rxn_15713

>  <mol_properties>  (2) 
{"0": {"label": "acceptor", "atom_type": "Cs"}}

>  <type>  (2) 
r2

$$$$

     RDKit          3D

  9  8  0  0  0  0  0  0  0  0999 V2000
   -1.5470   -0.0755   -0.1976 C   0  0  0  0  0  0  0  0  0  0  0  0
   -0.2885    0.4507    0.1749 O   0  0  0  0  0  0  0  0  0  0  0  0
   -0.1502    1.7216   -0.3294 N   0  0  0  0  0  0  0  0  0  0  0  0
    0.9626    2.2353   -0.0219 C   0  0  0  0  0  0  0  0  0  0  0  0
   -1.6392   -0.1356   -1.2844 H   0  0  0  0  0  0  0  0  0  0  0  0
   -2.3597    0.5337    0.2044 H   0  0  0  0  0  0  0  0  0  0  0  0
   -1.5879   -1.0750    0.2318 H   0  0  0  0  0  0  0  0  0  0  0  0
    1.1497    3.2381   -0.3820 H   0  0  0  0  0  0  0  0  0  0  0  0
    1.7060    1.7101    0.5739 H   0  0  0  0  0  0  0  0  0  0  0  0
  1  2  1  0
  1  5  1  0
  1  6  1  0
  1  7  1  0
  2  3  1  0
  3  4  2  3
  4  8  1  0
  4  9  1  0
M  END
>  <reaction>  (3) 
rmg_rxn_15713

>  <mol_properties>  (3) 
{"0": {"label": "acceptor", "atom_type": "Cs"}, "8": {"label": "a_hydrogen", "atom_type": "H0"}}

>  <type>  (3) 
r2h

$$$$

     RDKit          3D

 26 24  0  0  0  0  0  0  0  0999 V2000
   -1.8599    0.0153    0.9546 C   0  0  0  0  0  3  0  0  0  0  0  0
   -0.7706    0.6077    1.5574 O   0  0  0  0  0  0  0  0  0  0  0  0
    0.0659   -0.3394    2.1134 N   0  0  0  0  0  0  0  0  0  0  0  0
    1.1130    0.1884    2.5832 C   0  0  0  0  0  0  0  0  0  0  0  0
   -2.2395   -0.8514    1.4939 H   0  0  0  0  0  0  0  0  0  0  0  0
   -2.5904    0.7841    0.7203 H   0  0  0  0  0  0  0  0  0  0  0  0
    1.8227   -0.4815    3.0498 H   0  0  0  0  0  0  0  0  0  0  0  0
    1.3066    1.2568    2.5282 H   0  0  0  0  0  0  0  0  0  0  0  0
    0.2741   -2.9336   -2.0722 C   0  0  0  0  0  0  0  0  0  0  0  0
   -0.4263   -2.2409   -0.9146 C   0  0  0  0  0  0  0  0  0  0  0  0
   -0.8454   -0.8937   -1.2703 N   0  0  0  0  0  0  0  0  0  0  0  0
    0.3203   -0.1109   -1.2660 O   0  0  0  0  0  0  0  0  0  0  0  0
    0.1174    1.0701   -1.9121 C   0  0  0  0  0  0  0  0  0  0  0  0
    0.8606    2.1385   -1.6615 C   0  0  0  0  0  0  0  0  0  0  0  0
    1.9447    2.2156   -0.6355 C   0  0  0  0  0  0  0  0  0  0  0  0
    1.1939   -2.4105   -2.3330 H   0  0  0  0  0  0  0  0  0  0  0  0
    0.5292   -3.9590   -1.7992 H   0  0  0  0  0  0  0  0  0  0  0  0
   -0.3700   -2.9581   -2.9523 H   0  0  0  0  0  0  0  0  0  0  0  0
   -1.3475   -2.7689   -0.6560 H   0  0  0  0  0  0  0  0  0  0  0  0
    0.2122   -2.2301   -0.0243 H   0  0  0  0  0  0  0  0  0  0  0  0
   -1.4416   -0.4822   -0.3031 H   0  0  0  0  0  0  0  0  0  0  0  0
   -0.6770    1.0437   -2.6483 H   0  0  0  0  0  0  0  0  0  0  0  0
    0.6635    3.0156   -2.2656 H   0  0  0  0  0  0  0  0  0  0  0  0
    2.9208    2.3723   -1.1021 H   0  0  0  0  0  0  0  0  0  0  0  0
    1.7748    3.0553    0.0433 H   0  0  0  0  0  0  0  0  0  0  0  0
    1.9933    1.2996   -0.0480 H   0  0  0  0  0  0  0  0  0  0  0  0
  1  2  1  0
  1  5  1  0
  1  6  1  0
  2  3  1  0
  3  4  2  3
  4  7  1  0
  4  8  1  0
  9 10  1  0
  9 16  1  0
  9 17  1  0
  9 18  1  0
 10 11  1  0
 10 19  1  0
 10 20  1  0
 11 12  1  0
 11 21  1  0
 12 13  1  0
 13 14  2  3
 13 22  1  0
 14 15  1  0
 14 23  1  0
 15 24  1  0
 15 25  1  0
 15 26  1  0
M  RAD  1   1   2
M  END
>  <reaction>  (4) 
rmg_rxn_15713

>  <mol_properties>  (4) 
{"0": {"label": "*3", "atom_type": "Cs"}, "1": {"label": "*4", "atom_type": "O2s"}, "10": {"label": "*1", "atom_type": "N3s"}, "11": {"label": "*0", "atom_type": "O2s"}, "20": {"label": "*2", "atom_type": "H0"}}

>  <type>  (4) 
ts

$$$$
