
     RDKit          3D

 14 13  0  0  0  0  0  0  0  0999 V2000
   -2.1430    0.4492    0.2556 C   0  0  0  0  0  0  0  0  0  0  0  0
   -0.8980   -0.1952    0.2757 O   0  0  0  0  0  0  0  0  0  0  0  0
   -0.3667   -0.3041    1.5713 C   0  0  0  0  0  0  0  0  0  0  0  0
    0.9667   -1.0099    1.4715 C   0  0  0  0  0  0  0  0  0  0  0  0
    1.6584   -1.1995    2.7884 C   0  0  0  0  0  0  0  0  0  0  0  0
    1.2262   -0.8381    3.8485 O   0  0  0  0  0  0  0  0  0  0  0  0
   -2.0716    1.4724    0.6470 H   0  0  0  0  0  0  0  0  0  0  0  0
   -2.8872   -0.0973    0.8495 H   0  0  0  0  0  0  0  0  0  0  0  0
   -2.4755    0.4883   -0.7805 H   0  0  0  0  0  0  0  0  0  0  0  0
   -0.2382    0.6884    2.0233 H   0  0  0  0  0  0  0  0  0  0  0  0
   -1.0467   -0.8675    2.2240 H   0  0  0  0  0  0  0  0  0  0  0  0
    1.6454   -0.4596    0.8107 H   0  0  0  0  0  0  0  0  0  0  0  0
    0.8471   -1.9957    1.0089 H   0  0  0  0  0  0  0  0  0  0  0  0
    2.6387   -1.7165    2.7294 H   0  0  0  0  0  0  0  0  0  0  0  0
  1  2  1  0
  1  7  1  0
  1  8  1  0
  1  9  1  0
  2  3  1  0
  3  4  1  0
  3 10  1  0
  3 11  1  0
  4  5  1  0
  4 12  1  0
  4 13  1  0
  5  6  2  0
  5 14  1  0
M  END
>  <reaction>  (1) 
rmg_rxn_15443

>  <mol_properties>  (1) 
{"0": {"label": "donator", "atom_type": "Cs"}, "6": {"label": "d_hydrogen", "atom_type": "H0"}}

>  <type>  (1) 
r1h

$$$$

     RDKit          3D

  5  4  0  0  0  0  0  0  0  0999 V2000
    0.8934    0.3742    0.4948 O   0  0  0  0  0  0  0  0  0  0  0  0
    0.1582   -0.1610   -0.5904 N   0  0  0  0  0  0  0  0  0  0  0  0
   -1.0297   -0.3739   -0.4689 C   0  0  0  0  0  3  0  0  0  0  0  0
    1.7804    0.4382    0.1306 H   0  0  0  0  0  0  0  0  0  0  0  0
   -1.8023   -0.2775    0.2859 H   0  0  0  0  0  0  0  0  0  0  0  0
  1  2  1  0
  1  4  1  0
  2  3  2  3
  3  5  1  0
M  RAD  1   3   2
M  END
>  <reaction>  (2) 
rmg_rxn_15443

>  <mol_properties>  (2) 
{"2": {"label": "acceptor", "atom_type": "Cd"}}

>  <type>  (2) 
r2

$$$$

     RDKit          3D

  6  5  0  0  0  0  0  0  0  0999 V2000
    1.2314    0.0428    0.5088 O   0  0  0  0  0  0  0  0  0  0  0  0
    0.2987    0.2341   -0.4915 N   0  0  0  0  0  0  0  0  0  0  0  0
   -0.8599   -0.1122   -0.1290 C   0  0  0  0  0  0  0  0  0  0  0  0
    2.0507    0.3401    0.1082 H   0  0  0  0  0  0  0  0  0  0  0  0
   -1.0700   -0.5112    0.8610 H   0  0  0  0  0  0  0  0  0  0  0  0
   -1.6509    0.0064   -0.8574 H   0  0  0  0  0  0  0  0  0  0  0  0
  1  2  1  0
  1  4  1  0
  2  3  2  3
  3  5  1  0
  3  6  1  0
M  END
>  <reaction>  (3) 
rmg_rxn_15443

>  <mol_properties>  (3) 
{"2": {"label": "acceptor", "atom_type": "Cd"}, "5": {"label": "a_hydrogen", "atom_type": "H0"}}

>  <type>  (3) 
r2h

$$$$

     RDKit          3D

 19 17  0  0  0  0  0  0  0  0999 V2000
   -3.0488    1.3087   -1.3377 O   0  0  0  0  0  0  0  0  0  0  0  0
   -1.8054    1.2270   -0.6913 N   0  0  0  0  0  0  0  0  0  0  0  0
   -1.1454    2.2799   -0.7211 C   0  0  0  0  0  3  0  0  0  0  0  0
   -3.4058    0.4249   -1.2238 H   0  0  0  0  0  0  0  0  0  0  0  0
   -1.4237    3.2280   -1.1821 H   0  0  0  0  0  0  0  0  0  0  0  0
    1.1514    1.9517    0.7003 C   0  0  0  0  0  0  0  0  0  0  0  0
    1.0336    0.7206    1.2946 O   0  0  0  0  0  0  0  0  0  0  0  0
    1.1681   -0.3617    0.3928 C   0  0  0  0  0  0  0  0  0  0  0  0
    0.8524   -1.6302    1.1499 C   0  0  0  0  0  0  0  0  0  0  0  0
    0.9982   -2.8773    0.3298 C   0  0  0  0  0  0  0  0  0  0  0  0
    1.3482   -2.9058   -0.8180 O   0  0  0  0  0  0  0  0  0  0  0  0
    0.1299    2.1763    0.0085 H   0  0  0  0  0  0  0  0  0  0  0  0
    1.9926    2.0298    0.0013 H   0  0  0  0  0  0  0  0  0  0  0  0
    1.1708    2.7267    1.4642 H   0  0  0  0  0  0  0  0  0  0  0  0
    0.4786   -0.2396   -0.4473 H   0  0  0  0  0  0  0  0  0  0  0  0
    2.1881   -0.3912   -0.0080 H   0  0  0  0  0  0  0  0  0  0  0  0
   -0.1713   -1.5980    1.5376 H   0  0  0  0  0  0  0  0  0  0  0  0
    1.4976   -1.7295    2.0299 H   0  0  0  0  0  0  0  0  0  0  0  0
    0.7549   -3.8179    0.8662 H   0  0  0  0  0  0  0  0  0  0  0  0
  1  2  1  0
  1  4  1  0
  2  3  2  3
  3  5  1  0
  6  7  1  0
  6 12  1  0
  6 13  1  0
  6 14  1  0
  7  8  1  0
  8  9  1  0
  8 15  1  0
  8 16  1  0
  9 10  1  0
  9 17  1  0
  9 18  1  0
 10 11  2  0
 10 19  1  0
M  RAD  1   3   2
M  END
>  <reaction>  (4) 
rmg_rxn_15443

>  <mol_properties>  (4) 
{"1": {"label": "*4", "atom_type": "N3d"}, "2": {"label": "*3", "atom_type": "Cd"}, "5": {"label": "*1", "atom_type": "Cs"}, "6": {"label": "*0", "atom_type": "O2s"}, "11": {"label": "*2", "atom_type": "H0"}}

>  <type>  (4) 
ts

$$$$
