
     RDKit          3D

 10  9  0  0  0  0  0  0  0  0999 V2000
    1.9281   -0.2104    0.0000 C   0  0  0  0  0  0  0  0  0  0  0  0
    0.6881    0.1708    0.0000 C   0  0  0  0  0  0  0  0  0  0  0  0
   -0.5547    0.5538   -0.0000 C   0  0  0  0  0  0  0  0  0  0  0  0
   -1.7319   -0.3629    0.0000 C   0  0  0  0  0  0  0  0  0  0  0  0
    2.4558   -0.3741   -0.9324 H   0  0  0  0  0  0  0  0  0  0  0  0
    2.4558   -0.3741    0.9324 H   0  0  0  0  0  0  0  0  0  0  0  0
   -0.7657    1.6194   -0.0000 H   0  0  0  0  0  0  0  0  0  0  0  0
   -2.3467   -0.1819    0.8869 H   0  0  0  0  0  0  0  0  0  0  0  0
   -1.4304   -1.4153    0.0000 H   0  0  0  0  0  0  0  0  0  0  0  0
   -2.3467   -0.1819   -0.8869 H   0  0  0  0  0  0  0  0  0  0  0  0
  1  2  2  0
  1  5  1  0
  1  6  1  0
  2  3  2  0
  3  4  1  0
  3  7  1  0
  4  8  1  0
  4  9  1  0
  4 10  1  0
M  END
>  <reaction>  (1) 
rmg_rxn_16808

>  <mol_properties>  (1) 
{"3": {"label": "donator", "atom_type": "Cd"}, "7": {"label": "d_hydrogen", "atom_type": "H0"}}

>  <type>  (1) 
r1h

$$$$

     RDKit          3D

  7  6  0  0  0  0  0  0  0  0999 V2000
    1.1980    0.1044   -0.0001 C   0  0  0  0  0  0  0  0  0  0  0  0
   -0.1891   -0.4252    0.0002 C   0  0  0  0  0  3  0  0  0  0  0  0
   -1.3234    0.0281   -0.0002 N   0  0  0  0  0  0  0  0  0  0  0  0
    1.7318   -0.2602   -0.8784 H   0  0  0  0  0  0  0  0  0  0  0  0
    1.2067    1.2008   -0.0009 H   0  0  0  0  0  0  0  0  0  0  0  0
    1.7300   -0.2581    0.8800 H   0  0  0  0  0  0  0  0  0  0  0  0
   -1.4574    1.0456    0.0003 H   0  0  0  0  0  0  0  0  0  0  0  0
  1  2  1  0
  1  4  1  0
  1  5  1  0
  1  6  1  0
  2  3  2  3
  3  7  1  0
M  RAD  1   2   2
M  END
>  <reaction>  (2) 
rmg_rxn_16808

>  <mol_properties>  (2) 
{"2": {"label": "acceptor", "atom_type": "Cd"}}

>  <type>  (2) 
r2

$$$$

     RDKit          3D

  8  7  0  0  0  0  0  0  0  0999 V2000
    1.2099   -0.1388    0.0025 C   0  0  0  0  0  0  0  0  0  0  0  0
   -0.1788    0.4141    0.0007 C   0  0  0  0  0  0  0  0  0  0  0  0
   -1.2100   -0.3603    0.0013 N   0  0  0  0  0  0  0  0  0  0  0  0
    1.7355    0.2223   -0.8851 H   0  0  0  0  0  0  0  0  0  0  0  0
    1.7521    0.1663    0.9007 H   0  0  0  0  0  0  0  0  0  0  0  0
    1.1564   -1.2296   -0.0424 H   0  0  0  0  0  0  0  0  0  0  0  0
   -0.2911    1.5112   -0.0010 H   0  0  0  0  0  0  0  0  0  0  0  0
   -2.0699    0.2005   -0.0002 H   0  0  0  0  0  0  0  0  0  0  0  0
  1  2  1  0
  1  4  1  0
  1  5  1  0
  1  6  1  0
  2  3  2  3
  2  7  1  0
  3  8  1  0
M  END
>  <reaction>  (3) 
rmg_rxn_16808

>  <mol_properties>  (3) 
{"2": {"label": "acceptor", "atom_type": "Cd"}, "6": {"label": "a_hydrogen", "atom_type": "H0"}}

>  <type>  (3) 
r2h

$$$$

     RDKit          3D

 17 15  0  0  0  0  0  0  0  0999 V2000
   -3.1995   -0.3987    0.0992 N   0  0  0  0  0  0  0  0  0  0  0  0
   -1.6799    1.5154   -0.0108 C   0  0  0  0  0  0  0  0  0  0  0  0
    3.1379    0.7142   -0.2975 C   0  0  0  0  0  0  0  0  0  0  0  0
    2.2912   -0.1898    0.5476 C   0  0  0  0  0  3  0  0  0  0  0  0
   -2.0559    0.0766   -0.0211 C   0  0  0  0  0  0  0  0  0  0  0  0
    1.2435   -0.8531    0.1057 C   0  0  0  0  0  0  0  0  0  0  0  0
    0.1682   -1.4072   -0.3000 C   0  0  0  0  0  0  0  0  0  0  0  0
   -1.2280    1.7798   -0.9689 H   0  0  0  0  0  0  0  0  0  0  0  0
   -2.5530    2.1428    0.1716 H   0  0  0  0  0  0  0  0  0  0  0  0
   -0.9256    1.6918    0.7585 H   0  0  0  0  0  0  0  0  0  0  0  0
    4.1595    0.3325   -0.3719 H   0  0  0  0  0  0  0  0  0  0  0  0
    2.7323    0.8072   -1.3041 H   0  0  0  0  0  0  0  0  0  0  0  0
    3.1999    1.7114    0.1457 H   0  0  0  0  0  0  0  0  0  0  0  0
   -0.9723   -0.6944   -0.1669 H   0  0  0  0  0  0  0  0  0  0  0  0
    2.5807   -0.3272    1.5853 H   0  0  0  0  0  0  0  0  0  0  0  0
   -3.2303   -1.4161    0.0674 H   0  0  0  0  0  0  0  0  0  0  0  0
    0.0043   -2.3738   -0.7540 H   0  0  0  0  0  0  0  0  0  0  0  0
  1  5  2  3
  1 16  1  0
  2  5  1  0
  2  8  1  0
  2  9  1  0
  2 10  1  0
  3  4  1  0
  3 11  1  0
  3 12  1  0
  3 13  1  0
  4  6  1  0
  4 15  1  0
  5 14  1  0
  6  7  3  0
  7 17  1  0
M  RAD  1   4   2
M  END
>  <reaction>  (4) 
rmg_rxn_16808

>  <mol_properties>  (4) 
{"0": {"label": "*0", "atom_type": "N3d"}, "4": {"label": "*1", "atom_type": "Cd"}, "5": {"label": "*4", "atom_type": "Ct"}, "6": {"label": "*3", "atom_type": "Ct"}, "13": {"label": "*2", "atom_type": "H0"}}

>  <type>  (4) 
ts

$$$$
