
     RDKit          3D

 10  9  0  0  0  0  0  0  0  0999 V2000
    2.0403   -0.0578    0.0119 C   0  0  0  0  0  0  0  0  0  0  0  0
    0.5945   -0.0169    0.1897 C   0  0  0  0  0  0  0  0  0  0  0  0
   -0.5945    0.0168    0.3360 C   0  0  0  0  0  0  0  0  0  0  0  0
   -2.0403    0.0578    0.5138 C   0  0  0  0  0  0  0  0  0  0  0  0
    2.4765    0.9345    0.1393 H   0  0  0  0  0  0  0  0  0  0  0  0
    2.2999   -0.4148   -0.9861 H   0  0  0  0  0  0  0  0  0  0  0  0
    2.5034   -0.7257    0.7402 H   0  0  0  0  0  0  0  0  0  0  0  0
   -2.5533   -0.2780   -0.3890 H   0  0  0  0  0  0  0  0  0  0  0  0
   -2.3768    1.0720    0.7355 H   0  0  0  0  0  0  0  0  0  0  0  0
   -2.3497   -0.5878    1.3375 H   0  0  0  0  0  0  0  0  0  0  0  0
  1  2  1  0
  1  5  1  0
  1  6  1  0
  1  7  1  0
  2  3  3  0
  3  4  1  0
  4  8  1  0
  4  9  1  0
  4 10  1  0
M  END
>  <reaction>  (1) 
rmg_rxn_675

>  <mol_properties>  (1) 
{"3": {"label": "donator", "atom_type": "Cs"}, "9": {"label": "d_hydrogen", "atom_type": "H0"}}

>  <type>  (1) 
r1h

$$$$

     RDKit          3D

 14 13  0  0  0  0  0  0  0  0999 V2000
    2.7687   -0.0362   -0.0732 C   0  0  0  0  0  3  0  0  0  0  0  0
    1.6543    0.2105    0.6386 O   0  0  0  0  0  0  0  0  0  0  0  0
    1.8652    0.6968    1.9544 C   0  0  0  0  0  0  0  0  0  0  0  0
    0.5252    0.9355    2.6156 C   0  0  0  0  0  0  0  0  0  0  0  0
   -0.2992    2.0181    1.9317 C   0  0  0  0  0  0  0  0  0  0  0  0
    2.5851   -0.4757   -1.0422 H   0  0  0  0  0  0  0  0  0  0  0  0
    3.6974   -0.2083    0.4611 H   0  0  0  0  0  0  0  0  0  0  0  0
    2.4441    1.6271    1.9039 H   0  0  0  0  0  0  0  0  0  0  0  0
    2.4506   -0.0397    2.5179 H   0  0  0  0  0  0  0  0  0  0  0  0
    0.7150    1.2089    3.6572 H   0  0  0  0  0  0  0  0  0  0  0  0
   -0.0287   -0.0066    2.6327 H   0  0  0  0  0  0  0  0  0  0  0  0
   -0.5056    1.7522    0.8949 H   0  0  0  0  0  0  0  0  0  0  0  0
   -1.2524    2.1635    2.4416 H   0  0  0  0  0  0  0  0  0  0  0  0
    0.2319    2.9729    1.9340 H   0  0  0  0  0  0  0  0  0  0  0  0
  1  2  1  0
  1  6  1  0
  1  7  1  0
  2  3  1  0
  3  4  1  0
  3  8  1  0
  3  9  1  0
  4  5  1  0
  4 10  1  0
  4 11  1  0
  5 12  1  0
  5 13  1  0
  5 14  1  0
M  RAD  1   1   2
M  END
>  <reaction>  (2) 
rmg_rxn_675

>  <mol_properties>  (2) 
{"0": {"label": "acceptor", "atom_type": "Cs"}}

>  <type>  (2) 
r2

$$$$

     RDKit          3D

 15 14  0  0  0  0  0  0  0  0999 V2000
   -1.2811   -0.4129    1.0228 C   0  0  0  0  0  0  0  0  0  0  0  0
   -1.0023   -0.5809   -0.4650 C   0  0  0  0  0  0  0  0  0  0  0  0
   -2.0576    0.0568   -1.3449 C   0  0  0  0  0  0  0  0  0  0  0  0
   -2.0663    1.4464   -1.1307 O   0  0  0  0  0  0  0  0  0  0  0  0
   -3.0424    2.1072   -1.8849 C   0  0  0  0  0  0  0  0  0  0  0  0
   -2.2382   -0.8657    1.2935 H   0  0  0  0  0  0  0  0  0  0  0  0
   -1.3219    0.6426    1.2914 H   0  0  0  0  0  0  0  0  0  0  0  0
   -0.5042   -0.8881    1.6236 H   0  0  0  0  0  0  0  0  0  0  0  0
   -0.0316   -0.1460   -0.7167 H   0  0  0  0  0  0  0  0  0  0  0  0
   -0.9494   -1.6429   -0.7203 H   0  0  0  0  0  0  0  0  0  0  0  0
   -1.8518   -0.1570   -2.4041 H   0  0  0  0  0  0  0  0  0  0  0  0
   -3.0491   -0.3636   -1.1124 H   0  0  0  0  0  0  0  0  0  0  0  0
   -4.0521    1.7545   -1.6343 H   0  0  0  0  0  0  0  0  0  0  0  0
   -2.8850    1.9634   -2.9626 H   0  0  0  0  0  0  0  0  0  0  0  0
   -2.9730    3.1700   -1.6570 H   0  0  0  0  0  0  0  0  0  0  0  0
  1  2  1  0
  1  6  1  0
  1  7  1  0
  1  8  1  0
  2  3  1  0
  2  9  1  0
  2 10  1  0
  3  4  1  0
  3 11  1  0
  3 12  1  0
  4  5  1  0
  5 13  1  0
  5 14  1  0
  5 15  1  0
M  END
>  <reaction>  (3) 
rmg_rxn_675

>  <mol_properties>  (3) 
{"0": {"label": "a_hydrogen", "atom_type": "H0"}, "1": {"label": "acceptor", "atom_type": "Cs"}}

>  <type>  (3) 
r2h

$$$$

     RDKit          3D

 24 22  0  0  0  0  0  0  0  0999 V2000
    1.2727    0.4675   -2.8082 C   0  0  0  0  0  0  0  0  0  0  0  0
    0.2389    1.0617   -1.9730 C   0  0  0  0  0  0  0  0  0  0  0  0
   -0.6161    1.5617   -1.2873 C   0  0  0  0  0  0  0  0  0  0  0  0
   -1.5959    2.0929   -0.4018 C   0  0  0  0  0  0  0  0  0  0  0  0
    1.4086    1.0350   -3.7311 H   0  0  0  0  0  0  0  0  0  0  0  0
    1.0136   -0.5577   -3.0794 H   0  0  0  0  0  0  0  0  0  0  0  0
    2.2305    0.4453   -2.2841 H   0  0  0  0  0  0  0  0  0  0  0  0
   -2.6228    1.8234   -0.6408 H   0  0  0  0  0  0  0  0  0  0  0  0
   -1.4908    3.1547   -0.1884 H   0  0  0  0  0  0  0  0  0  0  0  0
   -1.3884    1.5176    0.8051 H   0  0  0  0  0  0  0  0  0  0  0  0
   -1.0270    0.8535    1.9425 C   0  0  0  0  0  3  0  0  0  0  0  0
   -0.0596   -0.0430    1.5891 O   0  0  0  0  0  0  0  0  0  0  0  0
   -0.5446   -1.1695    0.8797 C   0  0  0  0  0  0  0  0  0  0  0  0
    0.6295   -1.9680    0.3586 C   0  0  0  0  0  0  0  0  0  0  0  0
    1.5272   -2.5154    1.4600 C   0  0  0  0  0  0  0  0  0  0  0  0
   -0.6158    1.6163    2.5994 H   0  0  0  0  0  0  0  0  0  0  0  0
   -1.9541    0.4037    2.3142 H   0  0  0  0  0  0  0  0  0  0  0  0
   -1.1708   -0.8332    0.0467 H   0  0  0  0  0  0  0  0  0  0  0  0
   -1.1641   -1.7785    1.5540 H   0  0  0  0  0  0  0  0  0  0  0  0
    1.2029   -1.3259   -0.3147 H   0  0  0  0  0  0  0  0  0  0  0  0
    0.2314   -2.7878   -0.2458 H   0  0  0  0  0  0  0  0  0  0  0  0
    2.3555   -3.0887    1.0411 H   0  0  0  0  0  0  0  0  0  0  0  0
    1.9438   -1.7053    2.0588 H   0  0  0  0  0  0  0  0  0  0  0  0
    0.9682   -3.1743    2.1289 H   0  0  0  0  0  0  0  0  0  0  0  0
  1  2  1  0
  1  5  1  0
  1  6  1  0
  1  7  1  0
  2  3  3  0
  3  4  1  0
  4  8  1  0
  4  9  1  0
  4 10  1  0
 11 12  1  0
 11 16  1  0
 11 17  1  0
 12 13  1  0
 13 14  1  0
 13 18  1  0
 13 19  1  0
 14 15  1  0
 14 20  1  0
 14 21  1  0
 15 22  1  0
 15 23  1  0
 15 24  1  0
M  RAD  1  11   2
M  END
>  <reaction>  (4) 
rmg_rxn_675

>  <mol_properties>  (4) 
{"2": {"label": "*0", "atom_type": "Ct"}, "3": {"label": "*1", "atom_type": "Cs"}, "9": {"label": "*2", "atom_type": "H0"}, "10": {"label": "*3", "atom_type": "Cs"}, "11": {"label": "*4", "atom_type": "O2s"}}

>  <type>  (4) 
ts

$$$$
