
     RDKit          3D

 18 17  0  0  0  0  0  0  0  0999 V2000
   -2.0254    0.7225    0.6719 C   0  0  0  0  0  0  0  0  0  0  0  0
   -2.2626   -0.2040   -0.5052 C   0  0  0  0  0  0  0  0  0  0  0  0
   -3.5754   -0.8355   -0.4351 N   0  0  0  0  0  0  0  0  0  0  0  0
   -3.5392   -1.8231    0.5862 O   0  0  0  0  0  0  0  0  0  0  0  0
   -4.4086   -1.5316    1.5955 C   0  0  0  0  0  0  0  0  0  0  0  0
   -4.4172   -2.2097    2.7340 C   0  0  0  0  0  0  0  0  0  0  0  0
   -3.5003   -3.3384    3.0849 C   0  0  0  0  0  0  0  0  0  0  0  0
   -2.0351    0.1658    1.6097 H   0  0  0  0  0  0  0  0  0  0  0  0
   -1.0553    1.2127    0.5795 H   0  0  0  0  0  0  0  0  0  0  0  0
   -2.8006    1.4885    0.7196 H   0  0  0  0  0  0  0  0  0  0  0  0
   -2.2617    0.3617   -1.4411 H   0  0  0  0  0  0  0  0  0  0  0  0
   -1.4639   -0.9537   -0.5663 H   0  0  0  0  0  0  0  0  0  0  0  0
   -3.7190   -1.3842   -1.2756 H   0  0  0  0  0  0  0  0  0  0  0  0
   -5.0824   -0.7134    1.3757 H   0  0  0  0  0  0  0  0  0  0  0  0
   -5.1655   -1.9143    3.4590 H   0  0  0  0  0  0  0  0  0  0  0  0
   -2.9940   -3.1485    4.0345 H   0  0  0  0  0  0  0  0  0  0  0  0
   -4.0536   -4.2744    3.1995 H   0  0  0  0  0  0  0  0  0  0  0  0
   -2.7416   -3.4886    2.3179 H   0  0  0  0  0  0  0  0  0  0  0  0
  1  2  1  0
  1  8  1  0
  1  9  1  0
  1 10  1  0
  2  3  1  0
  2 11  1  0
  2 12  1  0
  3  4  1  0
  3 13  1  0
  4  5  1  0
  5  6  2  3
  5 14  1  0
  6  7  1  0
  6 15  1  0
  7 16  1  0
  7 17  1  0
  7 18  1  0
M  END
>  <reaction>  (1) 
rmg_rxn_16755

>  <mol_properties>  (1) 
{"2": {"label": "donator", "atom_type": "N3s"}, "12": {"label": "d_hydrogen", "atom_type": "H0"}}

>  <type>  (1) 
r1h

$$$$

     RDKit          3D

  7  6  0  0  0  0  0  0  0  0999 V2000
   -0.6441   -0.1356    0.0624 C   0  0  0  0  0  0  0  0  0  0  0  0
    0.8523    0.0148   -0.0333 C   0  0  0  0  0  0  0  0  0  0  0  0
    1.6700   -0.6077    0.6603 N   0  0  0  0  0  2  0  0  0  0  0  0
   -1.0940    0.8275    0.3091 H   0  0  0  0  0  0  0  0  0  0  0  0
   -0.9104   -0.8656    0.8237 H   0  0  0  0  0  0  0  0  0  0  0  0
   -1.0427   -0.4545   -0.9022 H   0  0  0  0  0  0  0  0  0  0  0  0
    1.2362    0.7308   -0.7748 H   0  0  0  0  0  0  0  0  0  0  0  0
  1  2  1  0
  1  4  1  0
  1  5  1  0
  1  6  1  0
  2  3  2  0
  2  7  1  0
M  RAD  1   3   2
M  END
>  <reaction>  (2) 
rmg_rxn_16755

>  <mol_properties>  (2) 
{"2": {"label": "acceptor", "atom_type": "N3d"}}

>  <type>  (2) 
r2

$$$$

     RDKit          3D

  8  7  0  0  0  0  0  0  0  0999 V2000
    0.9548    0.1194   -0.0790 C   0  0  0  0  0  0  0  0  0  0  0  0
   -0.4838   -0.2649    0.0193 C   0  0  0  0  0  0  0  0  0  0  0  0
   -0.8933   -1.1081    0.8664 N   0  0  0  0  0  0  0  0  0  0  0  0
    1.3360   -0.0983   -1.0800 H   0  0  0  0  0  0  0  0  0  0  0  0
    1.0698    1.1948    0.0786 H   0  0  0  0  0  0  0  0  0  0  0  0
    1.5426   -0.4219    0.6602 H   0  0  0  0  0  0  0  0  0  0  0  0
   -1.1575    0.2324   -0.6905 H   0  0  0  0  0  0  0  0  0  0  0  0
   -1.8989   -1.2455    0.7886 H   0  0  0  0  0  0  0  0  0  0  0  0
  1  2  1  0
  1  4  1  0
  1  5  1  0
  1  6  1  0
  2  3  2  3
  2  7  1  0
  3  8  1  0
M  END
>  <reaction>  (3) 
rmg_rxn_16755

>  <mol_properties>  (3) 
{"2": {"label": "acceptor", "atom_type": "N3d"}, "7": {"label": "a_hydrogen", "atom_type": "H0"}}

>  <type>  (3) 
r2h

$$$$

     RDKit          3D

 25 23  0  0  0  0  0  0  0  0999 V2000
   -0.1691    0.8428    3.3469 C   0  0  0  0  0  0  0  0  0  0  0  0
   -0.4504    0.4227    1.9333 C   0  0  0  0  0  0  0  0  0  0  0  0
   -1.6021    0.3264    1.4582 N   0  0  0  0  0  2  0  0  0  0  0  0
    0.3922    0.0591    3.8604 H   0  0  0  0  0  0  0  0  0  0  0  0
   -1.0949    1.0397    3.8836 H   0  0  0  0  0  0  0  0  0  0  0  0
    0.4513    1.7416    3.3459 H   0  0  0  0  0  0  0  0  0  0  0  0
    0.4316    0.2020    1.3086 H   0  0  0  0  0  0  0  0  0  0  0  0
   -0.8704   -2.6092   -2.0271 C   0  0  0  0  0  0  0  0  0  0  0  0
   -1.1217   -1.9024   -0.7039 C   0  0  0  0  0  0  0  0  0  0  0  0
   -1.1668   -0.4605   -0.8605 N   0  0  0  0  0  0  0  0  0  0  0  0
    0.1560   -0.0433   -1.0185 O   0  0  0  0  0  0  0  0  0  0  0  0
    0.2233    1.2474   -1.4592 C   0  0  0  0  0  0  0  0  0  0  0  0
    1.3369    1.9577   -1.3596 C   0  0  0  0  0  0  0  0  0  0  0  0
    2.6192    1.4919   -0.7491 C   0  0  0  0  0  0  0  0  0  0  0  0
    0.1030   -2.3336   -2.4328 H   0  0  0  0  0  0  0  0  0  0  0  0
   -0.8888   -3.6907   -1.8844 H   0  0  0  0  0  0  0  0  0  0  0  0
   -1.6367   -2.3418   -2.7555 H   0  0  0  0  0  0  0  0  0  0  0  0
   -2.0970   -2.1782   -0.2982 H   0  0  0  0  0  0  0  0  0  0  0  0
   -0.3612   -2.1887    0.0336 H   0  0  0  0  0  0  0  0  0  0  0  0
   -1.5240   -0.0139    0.2065 H   0  0  0  0  0  0  0  0  0  0  0  0
   -0.6966    1.6141   -1.8961 H   0  0  0  0  0  0  0  0  0  0  0  0
    1.3032    2.9586   -1.7718 H   0  0  0  0  0  0  0  0  0  0  0  0
    2.9550    2.1869    0.0244 H   0  0  0  0  0  0  0  0  0  0  0  0
    2.5161    0.5028   -0.3042 H   0  0  0  0  0  0  0  0  0  0  0  0
    3.4138    1.4405   -1.4980 H   0  0  0  0  0  0  0  0  0  0  0  0
  1  2  1  0
  1  4  1  0
  1  5  1  0
  1  6  1  0
  2  3  2  0
  2  7  1  0
  8  9  1  0
  8 15  1  0
  8 16  1  0
  8 17  1  0
  9 10  1  0
  9 18  1  0
  9 19  1  0
 10 11  1  0
 10 20  1  0
 11 12  1  0
 12 13  2  3
 12 21  1  0
 13 14  1  0
 13 22  1  0
 14 23  1  0
 14 24  1  0
 14 25  1  0
M  RAD  1   3   2
M  END
>  <reaction>  (4) 
rmg_rxn_16755

>  <mol_properties>  (4) 
{"1": {"label": "*4", "atom_type": "Cd"}, "2": {"label": "*3", "atom_type": "N3d"}, "9": {"label": "*1", "atom_type": "N3s"}, "10": {"label": "*0", "atom_type": "O2s"}, "19": {"label": "*2", "atom_type": "H0"}}

>  <type>  (4) 
ts

$$$$
