
     RDKit          3D

  4  3  0  0  0  0  0  0  0  0999 V2000
   -0.5192    0.5067    0.5114 O   0  0  0  0  0  0  0  0  0  0  0  0
    0.5296    0.4929   -0.3599 N   0  0  0  0  0  0  0  0  0  0  0  0
    0.7996   -0.5796   -0.7553 O   0  0  0  0  0  0  0  0  0  0  0  0
   -0.8100   -0.4200    0.6039 H   0  0  0  0  0  0  0  0  0  0  0  0
  1  2  1  0
  1  4  1  0
  2  3  2  0
M  END
>  <reaction>  (1) 
rmg_rxn_15442

>  <mol_properties>  (1) 
{"0": {"label": "donator", "atom_type": "O2s"}, "3": {"label": "d_hydrogen", "atom_type": "H0"}}

>  <type>  (1) 
r1h

$$$$

     RDKit          3D

  5  4  0  0  0  0  0  0  0  0999 V2000
    0.8934    0.3742    0.4948 O   0  0  0  0  0  0  0  0  0  0  0  0
    0.1582   -0.1610   -0.5904 N   0  0  0  0  0  0  0  0  0  0  0  0
   -1.0297   -0.3739   -0.4689 C   0  0  0  0  0  3  0  0  0  0  0  0
    1.7804    0.4382    0.1306 H   0  0  0  0  0  0  0  0  0  0  0  0
   -1.8023   -0.2775    0.2859 H   0  0  0  0  0  0  0  0  0  0  0  0
  1  2  1  0
  1  4  1  0
  2  3  2  3
  3  5  1  0
M  RAD  1   3   2
M  END
>  <reaction>  (2) 
rmg_rxn_15442

>  <mol_properties>  (2) 
{"2": {"label": "acceptor", "atom_type": "Cd"}}

>  <type>  (2) 
r2

$$$$

     RDKit          3D

  6  5  0  0  0  0  0  0  0  0999 V2000
    1.2314    0.0428    0.5088 O   0  0  0  0  0  0  0  0  0  0  0  0
    0.2987    0.2341   -0.4915 N   0  0  0  0  0  0  0  0  0  0  0  0
   -0.8599   -0.1122   -0.1290 C   0  0  0  0  0  0  0  0  0  0  0  0
    2.0507    0.3401    0.1082 H   0  0  0  0  0  0  0  0  0  0  0  0
   -1.0700   -0.5112    0.8610 H   0  0  0  0  0  0  0  0  0  0  0  0
   -1.6509    0.0064   -0.8574 H   0  0  0  0  0  0  0  0  0  0  0  0
  1  2  1  0
  1  4  1  0
  2  3  2  3
  3  5  1  0
  3  6  1  0
M  END
>  <reaction>  (3) 
rmg_rxn_15442

>  <mol_properties>  (3) 
{"0": {"label": "a_hydrogen", "atom_type": "H0"}, "3": {"label": "acceptor", "atom_type": "Cd"}}

>  <type>  (3) 
r2h

$$$$

     RDKit          3D

  9  7  0  0  0  0  0  0  0  0999 V2000
    0.5601   -1.3470    0.8747 O   0  0  0  0  0  0  0  0  0  0  0  0
    0.2238   -1.0419    2.0874 N   0  0  0  0  0  0  0  0  0  0  0  0
   -0.4412   -0.0752    2.2502 O   0  0  0  0  0  0  0  0  0  0  0  0
    0.1264   -0.5553    0.1716 H   0  0  0  0  0  0  0  0  0  0  0  0
    0.0692    2.1406   -2.0792 O   0  0  0  0  0  0  0  0  0  0  0  0
    0.4630    1.1587   -1.1850 N   0  0  0  0  0  0  0  0  0  0  0  0
   -0.4075    0.4586   -0.6763 C   0  0  0  0  0  3  0  0  0  0  0  0
    0.8993    2.5551   -2.3298 H   0  0  0  0  0  0  0  0  0  0  0  0
   -1.4930    0.4668   -0.7501 H   0  0  0  0  0  0  0  0  0  0  0  0
  1  2  1  0
  1  4  1  0
  2  3  2  0
  5  6  1  0
  5  8  1  0
  6  7  2  3
  7  9  1  0
M  RAD  1   7   2
M  END
>  <reaction>  (4) 
rmg_rxn_15442

>  <mol_properties>  (4) 
{"0": {"label": "*1", "atom_type": "O2s"}, "1": {"label": "*0", "atom_type": "N3d"}, "3": {"label": "*2", "atom_type": "H0"}, "5": {"label": "*4", "atom_type": "N3d"}, "6": {"label": "*3", "atom_type": "Cd"}}

>  <type>  (4) 
ts

$$$$
