
     RDKit          3D

  9  8  0  0  0  0  0  0  0  0999 V2000
    1.1303   -0.2933   -0.7510 C   0  0  0  0  0  0  0  0  0  0  0  0
    0.2866    0.4560   -0.0588 C   0  0  0  0  0  0  0  0  0  0  0  0
   -0.9719   -0.0331    0.5823 C   0  0  0  0  0  0  0  0  0  0  0  0
    2.0274    0.1230   -1.1916 H   0  0  0  0  0  0  0  0  0  0  0  0
    0.9532   -1.3530   -0.9023 H   0  0  0  0  0  0  0  0  0  0  0  0
    0.5065    1.5132    0.0659 H   0  0  0  0  0  0  0  0  0  0  0  0
   -0.9526    0.1426    1.6610 H   0  0  0  0  0  0  0  0  0  0  0  0
   -1.1182   -1.1002    0.4106 H   0  0  0  0  0  0  0  0  0  0  0  0
   -1.8412    0.5010    0.1901 H   0  0  0  0  0  0  0  0  0  0  0  0
  1  2  2  3
  1  4  1  0
  1  5  1  0
  2  3  1  0
  2  6  1  0
  3  7  1  0
  3  8  1  0
  3  9  1  0
M  END
>  <reaction>  (1) 
rmg_rxn_15428

>  <mol_properties>  (1) 
{"0": {"label": "donator", "atom_type": "Cd"}, "3": {"label": "d_hydrogen", "atom_type": "H0"}}

>  <type>  (1) 
r1h

$$$$

     RDKit          3D

  5  4  0  0  0  0  0  0  0  0999 V2000
    0.8934    0.3742    0.4948 O   0  0  0  0  0  0  0  0  0  0  0  0
    0.1582   -0.1610   -0.5904 N   0  0  0  0  0  0  0  0  0  0  0  0
   -1.0297   -0.3739   -0.4689 C   0  0  0  0  0  3  0  0  0  0  0  0
    1.7805    0.4382    0.1306 H   0  0  0  0  0  0  0  0  0  0  0  0
   -1.8023   -0.2775    0.2859 H   0  0  0  0  0  0  0  0  0  0  0  0
  1  2  1  0
  1  4  1  0
  2  3  2  3
  3  5  1  0
M  RAD  1   3   2
M  END
>  <reaction>  (2) 
rmg_rxn_15428

>  <mol_properties>  (2) 
{"2": {"label": "acceptor", "atom_type": "Cd"}}

>  <type>  (2) 
r2

$$$$

     RDKit          3D

  6  5  0  0  0  0  0  0  0  0999 V2000
    1.2314    0.0428    0.5088 O   0  0  0  0  0  0  0  0  0  0  0  0
    0.2987    0.2341   -0.4915 N   0  0  0  0  0  0  0  0  0  0  0  0
   -0.8599   -0.1122   -0.1290 C   0  0  0  0  0  0  0  0  0  0  0  0
    2.0507    0.3401    0.1082 H   0  0  0  0  0  0  0  0  0  0  0  0
   -1.0700   -0.5112    0.8610 H   0  0  0  0  0  0  0  0  0  0  0  0
   -1.6509    0.0064   -0.8574 H   0  0  0  0  0  0  0  0  0  0  0  0
  1  2  1  0
  1  4  1  0
  2  3  2  3
  3  5  1  0
  3  6  1  0
M  END
>  <reaction>  (3) 
rmg_rxn_15428

>  <mol_properties>  (3) 
{"2": {"label": "acceptor", "atom_type": "Cd"}, "5": {"label": "a_hydrogen", "atom_type": "H0"}}

>  <type>  (3) 
r2h

$$$$

     RDKit          3D

 14 12  0  0  0  0  0  0  0  0999 V2000
    0.0190   -0.6827    2.9632 O   0  0  0  0  0  0  0  0  0  0  0  0
    0.0117   -0.4311    1.5889 N   0  0  0  0  0  0  0  0  0  0  0  0
    0.0208    0.7812    1.2999 C   0  0  0  0  0  3  0  0  0  0  0  0
    0.0105   -1.6415    3.0053 H   0  0  0  0  0  0  0  0  0  0  0  0
    0.0334    1.6201    1.9958 H   0  0  0  0  0  0  0  0  0  0  0  0
    0.0048    1.0546   -1.3302 C   0  0  0  0  0  0  0  0  0  0  0  0
   -0.0102   -0.1191   -1.9205 C   0  0  0  0  0  0  0  0  0  0  0  0
   -0.0227   -0.3451   -3.4030 C   0  0  0  0  0  0  0  0  0  0  0  0
    0.0138    1.0241   -0.0074 H   0  0  0  0  0  0  0  0  0  0  0  0
    0.0107    2.0418   -1.7789 H   0  0  0  0  0  0  0  0  0  0  0  0
   -0.0139   -1.0086   -1.2929 H   0  0  0  0  0  0  0  0  0  0  0  0
    0.8489   -0.9295   -3.7073 H   0  0  0  0  0  0  0  0  0  0  0  0
   -0.0179    0.5959   -3.9531 H   0  0  0  0  0  0  0  0  0  0  0  0
   -0.9091   -0.9134   -3.6950 H   0  0  0  0  0  0  0  0  0  0  0  0
  1  2  1  0
  1  4  1  0
  2  3  2  3
  3  5  1  0
  6  7  2  3
  6  9  1  0
  6 10  1  0
  7  8  1  0
  7 11  1  0
  8 12  1  0
  8 13  1  0
  8 14  1  0
M  RAD  1   3   2
M  END
>  <reaction>  (4) 
rmg_rxn_15428

>  <mol_properties>  (4) 
{"1": {"label": "*4", "atom_type": "N3d"}, "2": {"label": "*3", "atom_type": "Cd"}, "5": {"label": "*1", "atom_type": "Cd"}, "6": {"label": "*0", "atom_type": "Cd"}, "8": {"label": "*2", "atom_type": "H0"}}

>  <type>  (4) 
ts

$$$$
