
     RDKit          3D

 18 17  0  0  0  0  0  0  0  0999 V2000
    1.2952   -1.2294    0.8974 C   0  0  0  0  0  0  0  0  0  0  0  0
    0.9866    0.0007    0.0906 C   0  0  0  0  0  0  0  0  0  0  0  0
    0.3534   -0.0733   -1.0557 C   0  0  0  0  0  0  0  0  0  0  0  0
   -0.2134   -0.1912   -2.2217 C   0  0  0  0  0  0  0  0  0  0  0  0
    1.4692    1.1933    0.6363 N   0  0  0  0  0  0  0  0  0  0  0  0
    1.0588    2.4466    0.0389 C   0  0  0  0  0  0  0  0  0  0  0  0
    1.6511    3.6217    0.7933 C   0  0  0  0  0  0  0  0  0  0  0  0
    2.3742   -1.3246    1.0379 H   0  0  0  0  0  0  0  0  0  0  0  0
    0.8319   -1.1664    1.8866 H   0  0  0  0  0  0  0  0  0  0  0  0
    0.9219   -2.1223    0.4017 H   0  0  0  0  0  0  0  0  0  0  0  0
    0.3708   -0.3040   -3.1311 H   0  0  0  0  0  0  0  0  0  0  0  0
   -1.2935   -0.1811   -2.3359 H   0  0  0  0  0  0  0  0  0  0  0  0
    1.4189    1.2001    1.6444 H   0  0  0  0  0  0  0  0  0  0  0  0
    1.4061    2.4525   -0.9971 H   0  0  0  0  0  0  0  0  0  0  0  0
   -0.0368    2.5320   -0.0010 H   0  0  0  0  0  0  0  0  0  0  0  0
    2.7405    3.5649    0.8051 H   0  0  0  0  0  0  0  0  0  0  0  0
    1.2988    3.6441    1.8280 H   0  0  0  0  0  0  0  0  0  0  0  0
    1.3588    4.5620    0.3252 H   0  0  0  0  0  0  0  0  0  0  0  0
  1  2  1  0
  1  8  1  0
  1  9  1  0
  1 10  1  0
  2  3  2  0
  2  5  1  0
  3  4  2  0
  4 11  1  0
  4 12  1  0
  5  6  1  0
  5 13  1  0
  6  7  1  0
  6 14  1  0
  6 15  1  0
  7 16  1  0
  7 17  1  0
  7 18  1  0
M  END
>  <reaction>  (1) 
rmg_rxn_15476

>  <mol_properties>  (1) 
{"4": {"label": "donator", "atom_type": "N3s"}, "12": {"label": "d_hydrogen", "atom_type": "H0"}}

>  <type>  (1) 
r1h

$$$$

     RDKit          3D

  5  4  0  0  0  0  0  0  0  0999 V2000
    0.8934    0.3742    0.4948 O   0  0  0  0  0  0  0  0  0  0  0  0
    0.1582   -0.1610   -0.5904 N   0  0  0  0  0  0  0  0  0  0  0  0
   -1.0297   -0.3739   -0.4689 C   0  0  0  0  0  3  0  0  0  0  0  0
    1.7805    0.4382    0.1306 H   0  0  0  0  0  0  0  0  0  0  0  0
   -1.8023   -0.2775    0.2859 H   0  0  0  0  0  0  0  0  0  0  0  0
  1  2  1  0
  1  4  1  0
  2  3  2  3
  3  5  1  0
M  RAD  1   3   2
M  END
>  <reaction>  (2) 
rmg_rxn_15476

>  <mol_properties>  (2) 
{"2": {"label": "acceptor", "atom_type": "Cd"}}

>  <type>  (2) 
r2

$$$$

     RDKit          3D

  6  5  0  0  0  0  0  0  0  0999 V2000
    1.2314    0.0428    0.5088 O   0  0  0  0  0  0  0  0  0  0  0  0
    0.2987    0.2341   -0.4915 N   0  0  0  0  0  0  0  0  0  0  0  0
   -0.8599   -0.1122   -0.1290 C   0  0  0  0  0  0  0  0  0  0  0  0
    2.0507    0.3401    0.1082 H   0  0  0  0  0  0  0  0  0  0  0  0
   -1.0700   -0.5112    0.8610 H   0  0  0  0  0  0  0  0  0  0  0  0
   -1.6509    0.0064   -0.8574 H   0  0  0  0  0  0  0  0  0  0  0  0
  1  2  1  0
  1  4  1  0
  2  3  2  3
  3  5  1  0
  3  6  1  0
M  END
>  <reaction>  (3) 
rmg_rxn_15476

>  <mol_properties>  (3) 
{"2": {"label": "acceptor", "atom_type": "Cd"}, "5": {"label": "a_hydrogen", "atom_type": "H0"}}

>  <type>  (3) 
r2h

$$$$

     RDKit          3D

 23 21  0  0  0  0  0  0  0  0999 V2000
   -2.6969   -1.7737   -1.5135 O   0  0  0  0  0  0  0  0  0  0  0  0
   -1.6449   -1.1288   -0.8443 N   0  0  0  0  0  0  0  0  0  0  0  0
   -0.5347   -1.6687   -0.9502 C   0  0  0  0  0  3  0  0  0  0  0  0
   -3.4490   -1.2107   -1.3159 H   0  0  0  0  0  0  0  0  0  0  0  0
   -0.2863   -2.5807   -1.4969 H   0  0  0  0  0  0  0  0  0  0  0  0
    1.4593    1.1273   -1.5373 C   0  0  0  0  0  0  0  0  0  0  0  0
    0.9212    1.0957   -0.1353 C   0  0  0  0  0  0  0  0  0  0  0  0
    0.4435    2.1808    0.4444 C   0  0  0  0  0  0  0  0  0  0  0  0
    0.0642    3.2777    1.0261 C   0  0  0  0  0  0  0  0  0  0  0  0
    0.9930   -0.1388    0.4924 N   0  0  0  0  0  0  0  0  0  0  0  0
    0.3658   -0.2621    1.7970 C   0  0  0  0  0  0  0  0  0  0  0  0
    0.5663   -1.6545    2.3635 C   0  0  0  0  0  0  0  0  0  0  0  0
    2.4883    0.7644   -1.5510 H   0  0  0  0  0  0  0  0  0  0  0  0
    0.8619    0.4713   -2.1766 H   0  0  0  0  0  0  0  0  0  0  0  0
    1.4271    2.1341   -1.9476 H   0  0  0  0  0  0  0  0  0  0  0  0
    0.7527    3.8767    1.6154 H   0  0  0  0  0  0  0  0  0  0  0  0
   -0.9572    3.6366    0.9458 H   0  0  0  0  0  0  0  0  0  0  0  0
    0.5541   -0.9289   -0.1936 H   0  0  0  0  0  0  0  0  0  0  0  0
    0.8218    0.4830    2.4537 H   0  0  0  0  0  0  0  0  0  0  0  0
   -0.7030   -0.0188    1.7379 H   0  0  0  0  0  0  0  0  0  0  0  0
    1.6280   -1.8940    2.4340 H   0  0  0  0  0  0  0  0  0  0  0  0
    0.0855   -2.4058    1.7341 H   0  0  0  0  0  0  0  0  0  0  0  0
    0.1282   -1.7239    3.3599 H   0  0  0  0  0  0  0  0  0  0  0  0
  1  2  1  0
  1  4  1  0
  2  3  2  3
  3  5  1  0
  6  7  1  0
  6 13  1  0
  6 14  1  0
  6 15  1  0
  7  8  2  0
  7 10  1  0
  8  9  2  0
  9 16  1  0
  9 17  1  0
 10 11  1  0
 10 18  1  0
 11 12  1  0
 11 19  1  0
 11 20  1  0
 12 21  1  0
 12 22  1  0
 12 23  1  0
M  RAD  1   3   2
M  END
>  <reaction>  (4) 
rmg_rxn_15476

>  <mol_properties>  (4) 
{"1": {"label": "*4", "atom_type": "N3d"}, "2": {"label": "*3", "atom_type": "Cd"}, "6": {"label": "*0", "atom_type": "Cd"}, "9": {"label": "*1", "atom_type": "N3s"}, "17": {"label": "*2", "atom_type": "H0"}}

>  <type>  (4) 
ts

$$$$
