
     RDKit          3D

  9  8  0  0  0  0  0  0  0  0999 V2000
   -1.0434   -0.0834    0.0221 C   0  0  0  0  0  0  0  0  0  0  0  0
    0.4680   -0.2131    0.0785 C   0  0  0  0  0  0  0  0  0  0  0  0
    0.9450   -1.3136   -0.7058 N   0  0  0  0  0  2  0  0  0  0  0  0
   -1.5170   -0.9919    0.3960 H   0  0  0  0  0  0  0  0  0  0  0  0
   -1.3864    0.7592    0.6249 H   0  0  0  0  0  0  0  0  0  0  0  0
   -1.3736    0.0696   -1.0061 H   0  0  0  0  0  0  0  0  0  0  0  0
    0.8045   -0.3309    1.1214 H   0  0  0  0  0  0  0  0  0  0  0  0
    0.9463    0.7186   -0.2648 H   0  0  0  0  0  0  0  0  0  0  0  0
    1.9638   -1.3321   -0.6157 H   0  0  0  0  0  0  0  0  0  0  0  0
  1  2  1  0
  1  4  1  0
  1  5  1  0
  1  6  1  0
  2  3  1  0
  2  7  1  0
  2  8  1  0
  3  9  1  0
M  RAD  1   3   2
M  END
>  <reaction>  (1) 
rmg_rxn_320

>  <mol_properties>  (1) 
{"2": {"label": "donator", "atom_type": "N3s"}, "8": {"label": "d_hydrogen", "atom_type": "H0"}}

>  <type>  (1) 
r1h

$$$$

     RDKit          3D

 17 16  0  0  0  0  0  0  0  0999 V2000
   -2.5196    0.7765    0.6863 C   0  0  0  0  0  0  0  0  0  0  0  0
   -1.7832    0.2264   -0.5439 C   0  0  0  0  0  0  0  0  0  0  0  0
   -0.5364   -0.5090   -0.2164 C   0  0  0  0  0  3  0  0  0  0  0  0
   -0.7195   -1.6896    0.4220 O   0  0  0  0  0  0  0  0  0  0  0  0
    0.4618   -2.3470    0.8423 C   0  0  0  0  0  0  0  0  0  0  0  0
    0.0797   -3.6206    1.5573 C   0  0  0  0  0  0  0  0  0  0  0  0
   -1.8902    1.4809    1.2340 H   0  0  0  0  0  0  0  0  0  0  0  0
   -3.4347    1.2951    0.3937 H   0  0  0  0  0  0  0  0  0  0  0  0
   -2.7882   -0.0345    1.3642 H   0  0  0  0  0  0  0  0  0  0  0  0
   -2.4551   -0.4399   -1.0937 H   0  0  0  0  0  0  0  0  0  0  0  0
   -1.5294    1.0480   -1.2176 H   0  0  0  0  0  0  0  0  0  0  0  0
    0.3864    0.0229    0.0104 H   0  0  0  0  0  0  0  0  0  0  0  0
    1.0871   -2.5604   -0.0319 H   0  0  0  0  0  0  0  0  0  0  0  0
    1.0283   -1.6824    1.5065 H   0  0  0  0  0  0  0  0  0  0  0  0
   -0.4799   -4.2803    0.8934 H   0  0  0  0  0  0  0  0  0  0  0  0
    0.9764   -4.1449    1.8908 H   0  0  0  0  0  0  0  0  0  0  0  0
   -0.5383   -3.4025    2.4289 H   0  0  0  0  0  0  0  0  0  0  0  0
  1  2  1  0
  1  7  1  0
  1  8  1  0
  1  9  1  0
  2  3  1  0
  2 10  1  0
  2 11  1  0
  3  4  1  0
  3 12  1  0
  4  5  1  0
  5  6  1  0
  5 13  1  0
  5 14  1  0
  6 15  1  0
  6 16  1  0
  6 17  1  0
M  RAD  1   3   2
M  END
>  <reaction>  (2) 
rmg_rxn_320

>  <mol_properties>  (2) 
{"2": {"label": "acceptor", "atom_type": "Cs"}}

>  <type>  (2) 
r2

$$$$

     RDKit          3D

 18 17  0  0  0  0  0  0  0  0999 V2000
    2.2026   -0.7213   -0.2612 C   0  0  0  0  0  0  0  0  0  0  0  0
    1.5384    0.2638    0.6915 C   0  0  0  0  0  0  0  0  0  0  0  0
    2.2584    1.5946    0.7694 C   0  0  0  0  0  0  0  0  0  0  0  0
    2.2212    2.2185   -0.4893 O   0  0  0  0  0  0  0  0  0  0  0  0
    2.8988    3.4488   -0.5204 C   0  0  0  0  0  0  0  0  0  0  0  0
    2.7981    4.0296   -1.9118 C   0  0  0  0  0  0  0  0  0  0  0  0
    3.2294   -0.9309    0.0486 H   0  0  0  0  0  0  0  0  0  0  0  0
    2.2338   -0.3181   -1.2734 H   0  0  0  0  0  0  0  0  0  0  0  0
    1.6610   -1.6680   -0.2875 H   0  0  0  0  0  0  0  0  0  0  0  0
    1.4990   -0.1566    1.7002 H   0  0  0  0  0  0  0  0  0  0  0  0
    0.5055    0.4455    0.3835 H   0  0  0  0  0  0  0  0  0  0  0  0
    3.3038    1.4410    1.0808 H   0  0  0  0  0  0  0  0  0  0  0  0
    1.7844    2.2410    1.5226 H   0  0  0  0  0  0  0  0  0  0  0  0
    2.4596    4.1376    0.2164 H   0  0  0  0  0  0  0  0  0  0  0  0
    3.9524    3.3035   -0.2397 H   0  0  0  0  0  0  0  0  0  0  0  0
    1.7543    4.1869   -2.1856 H   0  0  0  0  0  0  0  0  0  0  0  0
    3.2472    3.3545   -2.6411 H   0  0  0  0  0  0  0  0  0  0  0  0
    3.3178    4.9878   -1.9600 H   0  0  0  0  0  0  0  0  0  0  0  0
  1  2  1  0
  1  7  1  0
  1  8  1  0
  1  9  1  0
  2  3  1  0
  2 10  1  0
  2 11  1  0
  3  4  1  0
  3 12  1  0
  3 13  1  0
  4  5  1  0
  5  6  1  0
  5 14  1  0
  5 15  1  0
  6 16  1  0
  6 17  1  0
  6 18  1  0
M  END
>  <reaction>  (3) 
rmg_rxn_320

>  <mol_properties>  (3) 
{"0": {"label": "a_hydrogen", "atom_type": "H0"}, "3": {"label": "acceptor", "atom_type": "Cs"}}

>  <type>  (3) 
r2h

$$$$

     RDKit          3D

 26 24  0  0  0  0  0  0  0  0999 V2000
    0.9274   -1.0850   -3.7527 C   0  0  0  0  0  0  0  0  0  0  0  0
    0.9560   -0.9776   -2.2337 C   0  0  0  0  0  0  0  0  0  0  0  0
    0.0036   -0.0338   -1.7411 N   0  0  0  0  0  2  0  0  0  0  0  0
    1.1587   -0.1214   -4.2078 H   0  0  0  0  0  0  0  0  0  0  0  0
    1.6574   -1.8172   -4.1031 H   0  0  0  0  0  0  0  0  0  0  0  0
   -0.0619   -1.3916   -4.0941 H   0  0  0  0  0  0  0  0  0  0  0  0
    1.9664   -0.7049   -1.8884 H   0  0  0  0  0  0  0  0  0  0  0  0
    0.7541   -1.9621   -1.7808 H   0  0  0  0  0  0  0  0  0  0  0  0
    0.2115   -0.0043   -0.5019 H   0  0  0  0  0  0  0  0  0  0  0  0
   -0.8256   -2.1859    0.9995 C   0  0  0  0  0  0  0  0  0  0  0  0
    0.4979   -1.4734    1.2547 C   0  0  0  0  0  0  0  0  0  0  0  0
    0.4883   -0.0303    0.8343 C   0  0  0  0  0  3  0  0  0  0  0  0
   -0.4997    0.6855    1.4610 O   0  0  0  0  0  0  0  0  0  0  0  0
   -0.5166    2.0643    1.1388 C   0  0  0  0  0  0  0  0  0  0  0  0
   -1.6437    2.7241    1.8959 C   0  0  0  0  0  0  0  0  0  0  0  0
   -1.0938   -2.1455   -0.0584 H   0  0  0  0  0  0  0  0  0  0  0  0
   -0.7658   -3.2336    1.2968 H   0  0  0  0  0  0  0  0  0  0  0  0
   -1.6316   -1.7161    1.5623 H   0  0  0  0  0  0  0  0  0  0  0  0
    0.7513   -1.5335    2.3196 H   0  0  0  0  0  0  0  0  0  0  0  0
    1.3077   -1.9719    0.7149 H   0  0  0  0  0  0  0  0  0  0  0  0
    1.4681    0.4643    0.8803 H   0  0  0  0  0  0  0  0  0  0  0  0
    0.4496    2.5111    1.4095 H   0  0  0  0  0  0  0  0  0  0  0  0
   -0.6490    2.1810    0.0578 H   0  0  0  0  0  0  0  0  0  0  0  0
   -1.5082    2.6047    2.9715 H   0  0  0  0  0  0  0  0  0  0  0  0
   -1.6738    3.7902    1.6665 H   0  0  0  0  0  0  0  0  0  0  0  0
   -2.6010    2.2834    1.6162 H   0  0  0  0  0  0  0  0  0  0  0  0
  1  2  1  0
  1  4  1  0
  1  5  1  0
  1  6  1  0
  2  3  1  0
  2  7  1  0
  2  8  1  0
  3  9  1  0
 10 11  1  0
 10 16  1  0
 10 17  1  0
 10 18  1  0
 11 12  1  0
 11 19  1  0
 11 20  1  0
 12 13  1  0
 12 21  1  0
 13 14  1  0
 14 15  1  0
 14 22  1  0
 14 23  1  0
 15 24  1  0
 15 25  1  0
 15 26  1  0
M  RAD  2   3   2  12   2
M  END
>  <reaction>  (4) 
rmg_rxn_320

>  <mol_properties>  (4) 
{"1": {"label": "*0", "atom_type": "Cs"}, "2": {"label": "*1", "atom_type": "N3s"}, "8": {"label": "*2", "atom_type": "H0"}, "11": {"label": "*3", "atom_type": "Cs"}, "12": {"label": "*4", "atom_type": "O2s"}}

>  <type>  (4) 
ts

$$$$
