
     RDKit          3D

  8  7  0  0  0  0  0  0  0  0999 V2000
    0.9548    0.1194   -0.0790 C   0  0  0  0  0  0  0  0  0  0  0  0
   -0.4838   -0.2649    0.0193 C   0  0  0  0  0  0  0  0  0  0  0  0
   -0.8933   -1.1081    0.8664 N   0  0  0  0  0  0  0  0  0  0  0  0
    1.3360   -0.0983   -1.0800 H   0  0  0  0  0  0  0  0  0  0  0  0
    1.0698    1.1948    0.0786 H   0  0  0  0  0  0  0  0  0  0  0  0
    1.5426   -0.4219    0.6602 H   0  0  0  0  0  0  0  0  0  0  0  0
   -1.1575    0.2324   -0.6905 H   0  0  0  0  0  0  0  0  0  0  0  0
   -1.8989   -1.2455    0.7886 H   0  0  0  0  0  0  0  0  0  0  0  0
  1  2  1  0
  1  4  1  0
  1  5  1  0
  1  6  1  0
  2  3  2  3
  2  7  1  0
  3  8  1  0
M  END
>  <reaction>  (1) 
rmg_rxn_16504

>  <mol_properties>  (1) 
{"2": {"label": "donator", "atom_type": "N3d"}, "7": {"label": "d_hydrogen", "atom_type": "H0"}}

>  <type>  (1) 
r1h

$$$$

     RDKit          3D

 11 10  0  0  0  0  0  0  0  0999 V2000
   -1.3338    0.1639    0.5181 C   0  0  0  0  0  0  0  0  0  0  0  0
   -0.3239    0.1101   -0.5684 C   0  0  0  0  0  3  0  0  0  0  0  0
    0.9657   -0.6072   -0.3852 C   0  0  0  0  0  0  0  0  0  0  0  0
    1.6686   -0.2149    0.7868 O   0  0  0  0  0  0  0  0  0  0  0  0
   -0.8577    0.1686    1.5000 H   0  0  0  0  0  0  0  0  0  0  0  0
   -1.9752    1.0431    0.4339 H   0  0  0  0  0  0  0  0  0  0  0  0
   -1.9957   -0.7141    0.4872 H   0  0  0  0  0  0  0  0  0  0  0  0
   -0.6101    0.4054   -1.5710 H   0  0  0  0  0  0  0  0  0  0  0  0
    0.7976   -1.6846   -0.2560 H   0  0  0  0  0  0  0  0  0  0  0  0
    1.5948   -0.4872   -1.2750 H   0  0  0  0  0  0  0  0  0  0  0  0
    1.7856    0.7366    0.7517 H   0  0  0  0  0  0  0  0  0  0  0  0
  1  2  1  0
  1  5  1  0
  1  6  1  0
  1  7  1  0
  2  3  1  0
  2  8  1  0
  3  4  1  0
  3  9  1  0
  3 10  1  0
  4 11  1  0
M  RAD  1   2   2
M  END
>  <reaction>  (2) 
rmg_rxn_16504

>  <mol_properties>  (2) 
{"1": {"label": "acceptor", "atom_type": "Cs"}}

>  <type>  (2) 
r2

$$$$

     RDKit          3D

 12 11  0  0  0  0  0  0  0  0999 V2000
   -1.4643   -0.2505   -0.5284 C   0  0  0  0  0  0  0  0  0  0  0  0
   -0.3946    0.4302    0.3143 C   0  0  0  0  0  0  0  0  0  0  0  0
   -0.5959    0.2382    1.8102 C   0  0  0  0  0  0  0  0  0  0  0  0
   -0.5633   -1.1190    2.2092 O   0  0  0  0  0  0  0  0  0  0  0  0
   -2.4511    0.1644   -0.3109 H   0  0  0  0  0  0  0  0  0  0  0  0
   -1.5019   -1.3198   -0.3181 H   0  0  0  0  0  0  0  0  0  0  0  0
   -1.2720   -0.1182   -1.5941 H   0  0  0  0  0  0  0  0  0  0  0  0
    0.5965    0.0515    0.0385 H   0  0  0  0  0  0  0  0  0  0  0  0
   -0.3776    1.5047    0.1078 H   0  0  0  0  0  0  0  0  0  0  0  0
   -1.5821    0.6048    2.1034 H   0  0  0  0  0  0  0  0  0  0  0  0
    0.1495    0.8220    2.3649 H   0  0  0  0  0  0  0  0  0  0  0  0
    0.3017   -1.4750    1.9997 H   0  0  0  0  0  0  0  0  0  0  0  0
  1  2  1  0
  1  5  1  0
  1  6  1  0
  1  7  1  0
  2  3  1  0
  2  8  1  0
  2  9  1  0
  3  4  1  0
  3 10  1  0
  3 11  1  0
  4 12  1  0
M  END
>  <reaction>  (3) 
rmg_rxn_16504

>  <mol_properties>  (3) 
{"0": {"label": "a_hydrogen", "atom_type": "H0"}, "2": {"label": "acceptor", "atom_type": "Cs"}}

>  <type>  (3) 
r2h

$$$$

     RDKit          3D

 19 17  0  0  0  0  0  0  0  0999 V2000
   -3.3919    0.2431    0.1916 C   0  0  0  0  0  0  0  0  0  0  0  0
   -1.9799   -0.1846   -0.0697 C   0  0  0  0  0  0  0  0  0  0  0  0
   -1.0333    0.6345   -0.1714 N   0  0  0  0  0  0  0  0  0  0  0  0
   -3.4562    1.3260    0.2788 H   0  0  0  0  0  0  0  0  0  0  0  0
   -4.0389   -0.0963   -0.6206 H   0  0  0  0  0  0  0  0  0  0  0  0
   -3.7563   -0.2198    1.1117 H   0  0  0  0  0  0  0  0  0  0  0  0
   -1.8175   -1.2668   -0.1689 H   0  0  0  0  0  0  0  0  0  0  0  0
    0.0106   -0.0142   -0.3769 H   0  0  0  0  0  0  0  0  0  0  0  0
    1.0362   -2.0346    0.1072 C   0  0  0  0  0  0  0  0  0  0  0  0
    1.1998   -0.6467   -0.4429 C   0  0  0  0  0  3  0  0  0  0  0  0
    2.0325    0.3099    0.3706 C   0  0  0  0  0  0  0  0  0  0  0  0
    1.9830    1.6279   -0.1235 O   0  0  0  0  0  0  0  0  0  0  0  0
    0.6380   -2.0133    1.1248 H   0  0  0  0  0  0  0  0  0  0  0  0
    0.3667   -2.6359   -0.5101 H   0  0  0  0  0  0  0  0  0  0  0  0
    1.9972   -2.5607    0.1465 H   0  0  0  0  0  0  0  0  0  0  0  0
    1.4249   -0.5987   -1.5087 H   0  0  0  0  0  0  0  0  0  0  0  0
    1.7124    0.2673    1.4219 H   0  0  0  0  0  0  0  0  0  0  0  0
    3.0866    0.0117    0.3458 H   0  0  0  0  0  0  0  0  0  0  0  0
    1.0617    1.9038   -0.1283 H   0  0  0  0  0  0  0  0  0  0  0  0
  1  2  1  0
  1  4  1  0
  1  5  1  0
  1  6  1  0
  2  3  2  3
  2  7  1  0
  3  8  1  0
  9 10  1  0
  9 13  1  0
  9 14  1  0
  9 15  1  0
 10 11  1  0
 10 16  1  0
 11 12  1  0
 11 17  1  0
 11 18  1  0
 12 19  1  0
M  RAD  1  10   2
M  END
>  <reaction>  (4) 
rmg_rxn_16504

>  <mol_properties>  (4) 
{"1": {"label": "*0", "atom_type": "Cd"}, "2": {"label": "*1", "atom_type": "N3d"}, "7": {"label": "*2", "atom_type": "H0"}, "9": {"label": "*3", "atom_type": "Cs"}, "10": {"label": "*4", "atom_type": "Cs"}}

>  <type>  (4) 
ts

$$$$
