
     RDKit          3D

 21 21  0  0  0  0  0  0  0  0999 V2000
    3.6784    0.0079   -0.5979 C   0  0  0  0  0  0  0  0  0  0  0  0
    2.4753    0.0210    0.2878 C   0  0  0  0  0  0  0  0  0  0  0  0
    1.2116   -0.0071   -0.1659 C   0  0  0  0  0  0  0  0  0  0  0  0
   -0.0159    0.0070    0.7205 C   0  0  0  0  0  0  0  0  0  0  0  0
   -0.8042    1.2711    0.4638 C   0  0  0  0  0  0  0  0  0  0  0  0
   -1.9876    1.2745   -0.1672 C   0  0  0  0  0  0  0  0  0  0  0  0
   -2.5805    0.0557   -0.6569 C   0  0  0  0  0  0  0  0  0  0  0  0
   -2.0719   -1.1425   -0.3384 C   0  0  0  0  0  0  0  0  0  0  0  0
   -0.8487   -1.2916    0.5284 C   0  0  0  0  0  0  0  0  0  0  0  0
    3.4116   -0.0282   -1.6588 H   0  0  0  0  0  0  0  0  0  0  0  0
    4.2765    0.9081   -0.4267 H   0  0  0  0  0  0  0  0  0  0  0  0
    4.2978   -0.8653   -0.3717 H   0  0  0  0  0  0  0  0  0  0  0  0
    2.6666    0.0582    1.3579 H   0  0  0  0  0  0  0  0  0  0  0  0
    1.0252   -0.0423   -1.2386 H   0  0  0  0  0  0  0  0  0  0  0  0
    0.3057    0.0287    1.7709 H   0  0  0  0  0  0  0  0  0  0  0  0
   -0.3713    2.2085    0.8020 H   0  0  0  0  0  0  0  0  0  0  0  0
   -2.5206    2.2043   -0.3430 H   0  0  0  0  0  0  0  0  0  0  0  0
   -3.4694    0.1368   -1.2756 H   0  0  0  0  0  0  0  0  0  0  0  0
   -2.5521   -2.0487   -0.6952 H   0  0  0  0  0  0  0  0  0  0  0  0
   -0.2213   -2.0946    0.1212 H   0  0  0  0  0  0  0  0  0  0  0  0
   -1.1884   -1.6420    1.5122 H   0  0  0  0  0  0  0  0  0  0  0  0
  1  2  1  0
  1 10  1  0
  1 11  1  0
  1 12  1  0
  2  3  2  3
  2 13  1  0
  3  4  1  0
  3 14  1  0
  4  5  1  0
  4  9  1  0
  4 15  1  0
  5  6  2  0
  5 16  1  0
  6  7  1  0
  6 17  1  0
  7  8  2  0
  7 18  1  0
  8  9  1  0
  8 19  1  0
  9 20  1  0
  9 21  1  0
M  END
>  <reaction>  (1) 
rmg_rxn_16799

>  <mol_properties>  (1) 
{"8": {"label": "donator", "atom_type": "Cs"}, "19": {"label": "d_hydrogen", "atom_type": "H0"}}

>  <type>  (1) 
r1h

$$$$

     RDKit          3D

  7  6  0  0  0  0  0  0  0  0999 V2000
    1.1443   -0.1870   -0.0026 C   0  0  0  0  0  0  0  0  0  0  0  0
   -0.1897    0.4747   -0.0008 C   0  0  0  0  0  0  0  0  0  0  0  0
   -1.4128   -0.3182   -0.0012 N   0  0  0  0  0  2  0  0  0  0  0  0
    1.7295    0.1072   -0.8768 H   0  0  0  0  0  0  0  0  0  0  0  0
    1.0018   -1.2707   -0.0040 H   0  0  0  0  0  0  0  0  0  0  0  0
    1.6793    0.0928    0.9085 H   0  0  0  0  0  0  0  0  0  0  0  0
   -0.2483    1.5721    0.0008 H   0  0  0  0  0  0  0  0  0  0  0  0
  1  2  1  0
  1  4  1  0
  1  5  1  0
  1  6  1  0
  2  3  2  0
  2  7  1  0
M  RAD  1   3   2
M  END
>  <reaction>  (2) 
rmg_rxn_16799

>  <mol_properties>  (2) 
{"2": {"label": "acceptor", "atom_type": "N3d"}}

>  <type>  (2) 
r2

$$$$

     RDKit          3D

  8  7  0  0  0  0  0  0  0  0999 V2000
    1.2099   -0.1388    0.0025 C   0  0  0  0  0  0  0  0  0  0  0  0
   -0.1788    0.4141    0.0007 C   0  0  0  0  0  0  0  0  0  0  0  0
   -1.2100   -0.3603    0.0013 N   0  0  0  0  0  0  0  0  0  0  0  0
    1.7355    0.2223   -0.8851 H   0  0  0  0  0  0  0  0  0  0  0  0
    1.7521    0.1663    0.9007 H   0  0  0  0  0  0  0  0  0  0  0  0
    1.1564   -1.2296   -0.0424 H   0  0  0  0  0  0  0  0  0  0  0  0
   -0.2911    1.5112   -0.0010 H   0  0  0  0  0  0  0  0  0  0  0  0
   -2.0699    0.2005   -0.0002 H   0  0  0  0  0  0  0  0  0  0  0  0
  1  2  1  0
  1  4  1  0
  1  5  1  0
  1  6  1  0
  2  3  2  3
  2  7  1  0
  3  8  1  0
M  END
>  <reaction>  (3) 
rmg_rxn_16799

>  <mol_properties>  (3) 
{"2": {"label": "acceptor", "atom_type": "N3d"}, "7": {"label": "a_hydrogen", "atom_type": "H0"}}

>  <type>  (3) 
r2h

$$$$

     RDKit          3D

 28 27  0  0  0  0  0  0  0  0999 V2000
    3.2555   -1.7009   -0.6629 C   0  0  0  0  0  0  0  0  0  0  0  0
    2.0172   -1.1302   -0.0506 C   0  0  0  0  0  0  0  0  0  0  0  0
    1.2945   -1.8170    0.7674 N   0  0  0  0  0  0  0  0  0  0  0  0
    3.1502   -1.6886   -1.7507 H   0  0  0  0  0  0  0  0  0  0  0  0
    3.3675   -2.7372   -0.3341 H   0  0  0  0  0  0  0  0  0  0  0  0
    4.1376   -1.1253   -0.3722 H   0  0  0  0  0  0  0  0  0  0  0  0
    1.7421   -0.0977   -0.3237 H   0  0  0  0  0  0  0  0  0  0  0  0
    2.4602    2.2855   -0.3654 C   0  0  0  0  0  0  0  0  0  0  0  0
    1.2329    1.9172    0.4029 C   0  0  0  0  0  0  0  0  0  0  0  0
    0.2666    1.1136   -0.0705 C   0  0  0  0  0  0  0  0  0  0  0  0
   -0.9822    0.7337    0.6968 C   0  0  0  0  0  0  0  0  0  0  0  0
   -2.1961    1.2767   -0.0222 C   0  0  0  0  0  3  0  0  0  0  0  0
   -3.0699    0.4912   -0.6688 C   0  0  0  0  0  0  0  0  0  0  0  0
   -2.8931   -0.9378   -0.7283 C   0  0  0  0  0  0  0  0  0  0  0  0
   -1.9626   -1.5554    0.0124 C   0  0  0  0  0  0  0  0  0  0  0  0
   -1.0377   -0.8019    0.9325 C   0  0  0  0  0  0  0  0  0  0  0  0
    2.4818    1.8245   -1.3579 H   0  0  0  0  0  0  0  0  0  0  0  0
    2.5081    3.3713   -0.4922 H   0  0  0  0  0  0  0  0  0  0  0  0
    3.3519    1.9628    0.1804 H   0  0  0  0  0  0  0  0  0  0  0  0
    1.1444    2.3425    1.4001 H   0  0  0  0  0  0  0  0  0  0  0  0
    0.3589    0.6918   -1.0707 H   0  0  0  0  0  0  0  0  0  0  0  0
   -0.9478    1.2086    1.6870 H   0  0  0  0  0  0  0  0  0  0  0  0
   -2.3433    2.3531   -0.0133 H   0  0  0  0  0  0  0  0  0  0  0  0
   -3.9257    0.9184   -1.1832 H   0  0  0  0  0  0  0  0  0  0  0  0
   -3.5549   -1.5043   -1.3769 H   0  0  0  0  0  0  0  0  0  0  0  0
   -1.8665   -2.6362   -0.0269 H   0  0  0  0  0  0  0  0  0  0  0  0
    0.1673   -1.3264    0.8472 H   0  0  0  0  0  0  0  0  0  0  0  0
   -1.3777   -0.9895    1.9597 H   0  0  0  0  0  0  0  0  0  0  0  0
  1  2  1  0
  1  4  1  0
  1  5  1  0
  1  6  1  0
  2  3  2  3
  2  7  1  0
  3 27  1  0
  8  9  1  0
  8 17  1  0
  8 18  1  0
  8 19  1  0
  9 10  2  3
  9 20  1  0
 10 11  1  0
 10 21  1  0
 11 12  1  0
 11 16  1  0
 11 22  1  0
 12 13  1  0
 12 23  1  0
 13 14  2  0
 13 24  1  0
 14 15  1  0
 14 25  1  0
 15 16  2  0
 15 26  1  0
 16 28  1  0
M  RAD  1  12   2
M  END
>  <reaction>  (4) 
rmg_rxn_16799

>  <mol_properties>  (4) 
{"1": {"label": "*0", "atom_type": "Cd"}, "2": {"label": "*1", "atom_type": "N3d"}, "10": {"label": "*4", "atom_type": "Cs"}, "15": {"label": "*3", "atom_type": "Cd"}, "26": {"label": "*2", "atom_type": "H0"}}

>  <type>  (4) 
ts

$$$$
