
     RDKit          3D

 18 17  0  0  0  0  0  0  0  0999 V2000
    2.2026   -0.7213   -0.2612 C   0  0  0  0  0  0  0  0  0  0  0  0
    1.5384    0.2638    0.6915 C   0  0  0  0  0  0  0  0  0  0  0  0
    2.2584    1.5946    0.7694 C   0  0  0  0  0  0  0  0  0  0  0  0
    2.2212    2.2185   -0.4893 O   0  0  0  0  0  0  0  0  0  0  0  0
    2.8988    3.4488   -0.5204 C   0  0  0  0  0  0  0  0  0  0  0  0
    2.7981    4.0296   -1.9118 C   0  0  0  0  0  0  0  0  0  0  0  0
    3.2294   -0.9309    0.0486 H   0  0  0  0  0  0  0  0  0  0  0  0
    2.2338   -0.3181   -1.2734 H   0  0  0  0  0  0  0  0  0  0  0  0
    1.6610   -1.6680   -0.2875 H   0  0  0  0  0  0  0  0  0  0  0  0
    1.4990   -0.1566    1.7002 H   0  0  0  0  0  0  0  0  0  0  0  0
    0.5055    0.4455    0.3835 H   0  0  0  0  0  0  0  0  0  0  0  0
    3.3038    1.4410    1.0808 H   0  0  0  0  0  0  0  0  0  0  0  0
    1.7844    2.2410    1.5226 H   0  0  0  0  0  0  0  0  0  0  0  0
    2.4596    4.1376    0.2164 H   0  0  0  0  0  0  0  0  0  0  0  0
    3.9524    3.3035   -0.2397 H   0  0  0  0  0  0  0  0  0  0  0  0
    1.7543    4.1869   -2.1856 H   0  0  0  0  0  0  0  0  0  0  0  0
    3.2472    3.3545   -2.6411 H   0  0  0  0  0  0  0  0  0  0  0  0
    3.3178    4.9878   -1.9600 H   0  0  0  0  0  0  0  0  0  0  0  0
  1  2  1  0
  1  7  1  0
  1  8  1  0
  1  9  1  0
  2  3  1  0
  2 10  1  0
  2 11  1  0
  3  4  1  0
  3 12  1  0
  3 13  1  0
  4  5  1  0
  5  6  1  0
  5 14  1  0
  5 15  1  0
  6 16  1  0
  6 17  1  0
  6 18  1  0
M  END
>  <reaction>  (1) 
rmg_rxn_376

>  <mol_properties>  (1) 
{"5": {"label": "donator", "atom_type": "Cs"}, "15": {"label": "d_hydrogen", "atom_type": "H0"}}

>  <type>  (1) 
r1h

$$$$

     RDKit          3D

  8  7  0  0  0  0  0  0  0  0999 V2000
   -0.7873    0.0891   -0.0873 C   0  0  0  0  0  0  0  0  0  0  0  0
    0.7223   -0.0637   -0.0109 C   0  0  0  0  0  0  0  0  0  0  0  0
    1.2867   -0.8404   -0.9706 O   0  0  0  0  0  1  0  0  0  0  0  0
   -1.2724   -0.8840   -0.0044 H   0  0  0  0  0  0  0  0  0  0  0  0
   -1.1517    0.7274    0.7201 H   0  0  0  0  0  0  0  0  0  0  0  0
   -1.0763    0.5365   -1.0389 H   0  0  0  0  0  0  0  0  0  0  0  0
    1.2329    0.9169   -0.0453 H   0  0  0  0  0  0  0  0  0  0  0  0
    1.0411   -0.4722    0.9662 H   0  0  0  0  0  0  0  0  0  0  0  0
  1  2  1  0
  1  4  1  0
  1  5  1  0
  1  6  1  0
  2  3  1  0
  2  7  1  0
  2  8  1  0
M  RAD  1   3   2
M  END
>  <reaction>  (2) 
rmg_rxn_376

>  <mol_properties>  (2) 
{"2": {"label": "acceptor", "atom_type": "O2s"}}

>  <type>  (2) 
r2

$$$$

     RDKit          3D

  9  8  0  0  0  0  0  0  0  0999 V2000
   -0.9895    0.3048    0.1041 C   0  0  0  0  0  0  0  0  0  0  0  0
    0.3761   -0.3562    0.0721 C   0  0  0  0  0  0  0  0  0  0  0  0
    0.3441   -1.6564   -0.4834 O   0  0  0  0  0  0  0  0  0  0  0  0
   -1.6997   -0.3114    0.6572 H   0  0  0  0  0  0  0  0  0  0  0  0
   -0.9320    1.2848    0.5822 H   0  0  0  0  0  0  0  0  0  0  0  0
   -1.3774    0.4507   -0.9077 H   0  0  0  0  0  0  0  0  0  0  0  0
    0.7581   -0.4813    1.0862 H   0  0  0  0  0  0  0  0  0  0  0  0
    1.0900    0.2787   -0.4681 H   0  0  0  0  0  0  0  0  0  0  0  0
    0.0089   -1.5959   -1.3792 H   0  0  0  0  0  0  0  0  0  0  0  0
  1  2  1  0
  1  4  1  0
  1  5  1  0
  1  6  1  0
  2  3  1  0
  2  7  1  0
  2  8  1  0
  3  9  1  0
M  END
>  <reaction>  (3) 
rmg_rxn_376

>  <mol_properties>  (3) 
{"2": {"label": "acceptor", "atom_type": "O2s"}, "8": {"label": "a_hydrogen", "atom_type": "H0"}}

>  <type>  (3) 
r2h

$$$$

     RDKit          3D

 26 24  0  0  0  0  0  0  0  0999 V2000
   -2.3732    0.2412    0.2045 C   0  0  0  0  0  0  0  0  0  0  0  0
   -2.4572    1.5645    0.9437 C   0  0  0  0  0  0  0  0  0  0  0  0
   -1.5341    1.6947    1.9844 O   0  0  0  0  0  0  0  0  0  0  0  0
   -2.5029   -0.5892    0.9006 H   0  0  0  0  0  0  0  0  0  0  0  0
   -3.1511    0.1795   -0.5602 H   0  0  0  0  0  0  0  0  0  0  0  0
   -1.3982    0.1338   -0.2731 H   0  0  0  0  0  0  0  0  0  0  0  0
   -2.3754    2.4060    0.2420 H   0  0  0  0  0  0  0  0  0  0  0  0
   -3.4368    1.6696    1.4282 H   0  0  0  0  0  0  0  0  0  0  0  0
    1.0991   -1.5594   -2.4473 C   0  0  0  0  0  0  0  0  0  0  0  0
    1.0349   -2.0983   -1.0245 C   0  0  0  0  0  0  0  0  0  0  0  0
    1.6975   -1.1888   -0.0105 C   0  0  0  0  0  0  0  0  0  0  0  0
    1.0233    0.0460    0.0083 O   0  0  0  0  0  0  0  0  0  0  0  0
    1.5287    0.9514    0.9498 C   0  0  0  0  0  0  0  0  0  0  0  0
    0.6900    2.1902    0.9496 C   0  0  0  0  0  3  0  0  0  0  0  0
    2.1351   -1.4195   -2.7656 H   0  0  0  0  0  0  0  0  0  0  0  0
    0.5937   -0.5963   -2.5202 H   0  0  0  0  0  0  0  0  0  0  0  0
    0.6234   -2.2469   -3.1480 H   0  0  0  0  0  0  0  0  0  0  0  0
    1.5240   -3.0746   -0.9692 H   0  0  0  0  0  0  0  0  0  0  0  0
   -0.0061   -2.2482   -0.7265 H   0  0  0  0  0  0  0  0  0  0  0  0
    2.7560   -1.0330   -0.2706 H   0  0  0  0  0  0  0  0  0  0  0  0
    1.6662   -1.6456    0.9885 H   0  0  0  0  0  0  0  0  0  0  0  0
    1.5416    0.4991    1.9521 H   0  0  0  0  0  0  0  0  0  0  0  0
    2.5725    1.2104    0.7018 H   0  0  0  0  0  0  0  0  0  0  0  0
   -0.4282    1.9122    1.4875 H   0  0  0  0  0  0  0  0  0  0  0  0
    0.4408    2.5531   -0.0463 H   0  0  0  0  0  0  0  0  0  0  0  0
    1.0713    2.9771    1.5974 H   0  0  0  0  0  0  0  0  0  0  0  0
  1  2  1  0
  1  4  1  0
  1  5  1  0
  1  6  1  0
  2  3  1  0
  2  7  1  0
  2  8  1  0
  3 24  1  0
  9 10  1  0
  9 15  1  0
  9 16  1  0
  9 17  1  0
 10 11  1  0
 10 18  1  0
 10 19  1  0
 11 12  1  0
 11 20  1  0
 11 21  1  0
 12 13  1  0
 13 14  1  0
 13 22  1  0
 13 23  1  0
 14 25  1  0
 14 26  1  0
M  RAD  1  14   2
M  END
>  <reaction>  (4) 
rmg_rxn_376

>  <mol_properties>  (4) 
{"1": {"label": "*0", "atom_type": "Cs"}, "2": {"label": "*1", "atom_type": "O2s"}, "12": {"label": "*4", "atom_type": "Cs"}, "13": {"label": "*3", "atom_type": "Cs"}, "23": {"label": "*2", "atom_type": "H0"}}

>  <type>  (4) 
ts

$$$$
