
     RDKit          3D

 14 14  0  0  0  0  0  0  0  0999 V2000
   -1.1778    0.2241    0.1818 C   0  0  0  0  0  0  0  0  0  0  0  0
   -0.5633   -1.1636    0.0678 C   0  0  0  0  0  0  0  0  0  0  0  0
    0.6943   -1.1996    0.7146 O   0  0  0  0  0  0  0  0  0  0  0  0
    1.5547   -0.2288    0.2011 C   0  0  0  0  0  0  0  0  0  0  0  0
    1.0729    1.0696    0.3698 O   0  0  0  0  0  0  0  0  0  0  0  0
   -0.1607    1.2493   -0.2989 C   0  0  0  0  0  0  0  0  0  0  0  0
   -2.0927    0.2866   -0.4117 H   0  0  0  0  0  0  0  0  0  0  0  0
   -1.4303    0.4248    1.2248 H   0  0  0  0  0  0  0  0  0  0  0  0
   -1.1822   -1.9235    0.5431 H   0  0  0  0  0  0  0  0  0  0  0  0
   -0.4389   -1.4347   -0.9919 H   0  0  0  0  0  0  0  0  0  0  0  0
    1.7250   -0.4207   -0.8742 H   0  0  0  0  0  0  0  0  0  0  0  0
    2.4896   -0.3010    0.7524 H   0  0  0  0  0  0  0  0  0  0  0  0
   -0.0080    1.1481   -1.3844 H   0  0  0  0  0  0  0  0  0  0  0  0
   -0.4826    2.2695   -0.0942 H   0  0  0  0  0  0  0  0  0  0  0  0
  1  2  1  0
  1  6  1  0
  1  7  1  0
  1  8  1  0
  2  3  1  0
  2  9  1  0
  2 10  1  0
  3  4  1  0
  4  5  1  0
  4 11  1  0
  4 12  1  0
  5  6  1  0
  6 13  1  0
  6 14  1  0
M  END
>  <reaction>  (1) 
rmg_rxn_197

>  <mol_properties>  (1) 
{"0": {"label": "donator", "atom_type": "Cs"}, "6": {"label": "d_hydrogen", "atom_type": "H0"}}

>  <type>  (1) 
r1h

$$$$

     RDKit          3D

 13 12  0  0  0  0  0  0  0  0999 V2000
    2.0654   -0.2739   -0.0844 C   0  0  0  0  0  3  0  0  0  0  0  0
    0.6326   -0.4110   -0.4406 C   0  0  0  0  0  0  0  0  0  0  0  0
   -0.3055    0.4151    0.4359 C   0  0  0  0  0  0  0  0  0  0  0  0
   -1.7714    0.2357    0.0671 C   0  0  0  0  0  0  0  0  0  0  0  0
    2.3610    0.0676    0.8995 H   0  0  0  0  0  0  0  0  0  0  0  0
    2.8408   -0.6127   -0.7582 H   0  0  0  0  0  0  0  0  0  0  0  0
    0.3313   -1.4695   -0.3768 H   0  0  0  0  0  0  0  0  0  0  0  0
    0.4826   -0.1432   -1.4940 H   0  0  0  0  0  0  0  0  0  0  0  0
   -0.1518    0.1351    1.4826 H   0  0  0  0  0  0  0  0  0  0  0  0
   -0.0303    1.4705    0.3565 H   0  0  0  0  0  0  0  0  0  0  0  0
   -2.0768   -0.8084    0.1692 H   0  0  0  0  0  0  0  0  0  0  0  0
   -1.9546    0.5339   -0.9679 H   0  0  0  0  0  0  0  0  0  0  0  0
   -2.4194    0.8370    0.7066 H   0  0  0  0  0  0  0  0  0  0  0  0
  1  2  1  0
  1  5  1  0
  1  6  1  0
  2  3  1  0
  2  7  1  0
  2  8  1  0
  3  4  1  0
  3  9  1  0
  3 10  1  0
  4 11  1  0
  4 12  1  0
  4 13  1  0
M  RAD  1   1   2
M  END
>  <reaction>  (2) 
rmg_rxn_197

>  <mol_properties>  (2) 
{"0": {"label": "acceptor", "atom_type": "Cs"}}

>  <type>  (2) 
r2

$$$$

     RDKit          3D

 14 13  0  0  0  0  0  0  0  0999 V2000
    1.8106   -0.5953    0.5577 C   0  0  0  0  0  0  0  0  0  0  0  0
    0.5197    0.2064    0.6554 C   0  0  0  0  0  0  0  0  0  0  0  0
   -0.5206   -0.2080   -0.3788 C   0  0  0  0  0  0  0  0  0  0  0  0
   -1.8114    0.5937   -0.2812 C   0  0  0  0  0  0  0  0  0  0  0  0
    2.2725   -0.4752   -0.4251 H   0  0  0  0  0  0  0  0  0  0  0  0
    1.6214   -1.6612    0.7052 H   0  0  0  0  0  0  0  0  0  0  0  0
    2.5364   -0.2784    1.3084 H   0  0  0  0  0  0  0  0  0  0  0  0
    0.0930    0.0950    1.6574 H   0  0  0  0  0  0  0  0  0  0  0  0
    0.7393    1.2723    0.5354 H   0  0  0  0  0  0  0  0  0  0  0  0
   -0.7402   -1.2739   -0.2588 H   0  0  0  0  0  0  0  0  0  0  0  0
   -0.0938   -0.0965   -1.3808 H   0  0  0  0  0  0  0  0  0  0  0  0
   -1.6222    1.6596   -0.4287 H   0  0  0  0  0  0  0  0  0  0  0  0
   -2.2734    0.4736    0.7017 H   0  0  0  0  0  0  0  0  0  0  0  0
   -2.5373    0.2768   -1.0318 H   0  0  0  0  0  0  0  0  0  0  0  0
  1  2  1  0
  1  5  1  0
  1  6  1  0
  1  7  1  0
  2  3  1  0
  2  8  1  0
  2  9  1  0
  3  4  1  0
  3 10  1  0
  3 11  1  0
  4 12  1  0
  4 13  1  0
  4 14  1  0
M  END
>  <reaction>  (3) 
rmg_rxn_197

>  <mol_properties>  (3) 
{"0": {"label": "a_hydrogen", "atom_type": "H0"}, "1": {"label": "acceptor", "atom_type": "Cs"}}

>  <type>  (3) 
r2h

$$$$

     RDKit          3D

 27 26  0  0  0  0  0  0  0  0999 V2000
    0.8829    0.4960   -0.9884 C   0  0  0  0  0  3  0  0  0  0  0  0
   -0.2843    0.2617   -1.9130 C   0  0  0  0  0  0  0  0  0  0  0  0
   -0.7630    1.4978   -2.4271 O   0  0  0  0  0  0  0  0  0  0  0  0
   -1.0827    2.3799   -1.3938 C   0  0  0  0  0  0  0  0  0  0  0  0
    0.0101    2.6981   -0.5866 O   0  0  0  0  0  0  0  0  0  0  0  0
    0.5310    1.5348    0.0455 C   0  0  0  0  0  0  0  0  0  0  0  0
    1.0932   -0.6688   -0.3403 H   0  0  0  0  0  0  0  0  0  0  0  0
    1.8146    0.7048   -1.5116 H   0  0  0  0  0  0  0  0  0  0  0  0
   -0.0153   -0.3506   -2.7721 H   0  0  0  0  0  0  0  0  0  0  0  0
   -1.0994   -0.2426   -1.3704 H   0  0  0  0  0  0  0  0  0  0  0  0
   -1.8832    1.9399   -0.7707 H   0  0  0  0  0  0  0  0  0  0  0  0
   -1.4249    3.3047   -1.8535 H   0  0  0  0  0  0  0  0  0  0  0  0
   -0.2234    1.1367    0.7411 H   0  0  0  0  0  0  0  0  0  0  0  0
    1.3962    1.8545    0.6239 H   0  0  0  0  0  0  0  0  0  0  0  0
    1.1667   -1.8262    0.3287 C   0  0  0  0  0  0  0  0  0  0  0  0
    0.1585   -1.7638    1.4463 C   0  0  0  0  0  0  0  0  0  0  0  0
    0.0824   -3.0529    2.2666 C   0  0  0  0  0  0  0  0  0  0  0  0
   -0.9400   -2.9739    3.3926 C   0  0  0  0  0  0  0  0  0  0  0  0
    0.9508   -2.5732   -0.4351 H   0  0  0  0  0  0  0  0  0  0  0  0
    2.2059   -1.8768    0.6521 H   0  0  0  0  0  0  0  0  0  0  0  0
   -0.8340   -1.5477    1.0356 H   0  0  0  0  0  0  0  0  0  0  0  0
    0.4009   -0.9323    2.1161 H   0  0  0  0  0  0  0  0  0  0  0  0
   -0.1638   -3.8856    1.6010 H   0  0  0  0  0  0  0  0  0  0  0  0
    1.0714   -3.2724    2.6795 H   0  0  0  0  0  0  0  0  0  0  0  0
   -1.9414   -2.7829    2.9997 H   0  0  0  0  0  0  0  0  0  0  0  0
   -0.6970   -2.1657    4.0863 H   0  0  0  0  0  0  0  0  0  0  0  0
   -0.9768   -3.9034    3.9626 H   0  0  0  0  0  0  0  0  0  0  0  0
  1  2  1  0
  1  6  1  0
  1  8  1  0
  2  3  1  0
  2  9  1  0
  2 10  1  0
  3  4  1  0
  4  5  1  0
  4 11  1  0
  4 12  1  0
  5  6  1  0
  6 13  1  0
  6 14  1  0
  7 15  1  0
 15 16  1  0
 15 19  1  0
 15 20  1  0
 16 17  1  0
 16 21  1  0
 16 22  1  0
 17 18  1  0
 17 23  1  0
 17 24  1  0
 18 25  1  0
 18 26  1  0
 18 27  1  0
M  RAD  1   1   2
M  END
>  <reaction>  (4) 
rmg_rxn_197

>  <mol_properties>  (4) 
{"0": {"label": "*3", "atom_type": "Cs"}, "1": {"label": "*4", "atom_type": "Cs"}, "6": {"label": "*2", "atom_type": "H0"}, "14": {"label": "*1", "atom_type": "Cs"}, "15": {"label": "*0", "atom_type": "Cs"}}

>  <type>  (4) 
ts

$$$$
