
     RDKit          3D

 14 13  0  0  0  0  0  0  0  0999 V2000
   -0.5871    1.3248   -0.1546 C   0  0  0  0  0  0  0  0  0  0  0  0
    0.0884    0.0031    0.0755 C   0  0  0  0  0  0  0  0  0  0  0  0
   -0.3398   -1.1093   -0.4700 C   0  0  0  0  0  0  0  0  0  0  0  0
   -0.8305   -2.2081   -0.9667 C   0  0  0  0  0  0  0  0  0  0  0  0
    1.1793    0.0582    0.9538 N   0  0  0  0  0  0  0  0  0  0  0  0
    2.0220   -1.0575    1.0604 N   0  0  0  0  0  0  0  0  0  0  0  0
   -0.9342    1.7390    0.7942 H   0  0  0  0  0  0  0  0  0  0  0  0
    0.1093    2.0411   -0.6001 H   0  0  0  0  0  0  0  0  0  0  0  0
   -1.4368    1.2118   -0.8233 H   0  0  0  0  0  0  0  0  0  0  0  0
   -1.5657   -2.7988   -0.4266 H   0  0  0  0  0  0  0  0  0  0  0  0
   -0.5309   -2.5788   -1.9426 H   0  0  0  0  0  0  0  0  0  0  0  0
    1.7218    0.9025    0.8562 H   0  0  0  0  0  0  0  0  0  0  0  0
    2.1009   -1.5211    0.1575 H   0  0  0  0  0  0  0  0  0  0  0  0
    1.5938   -1.7166    1.6976 H   0  0  0  0  0  0  0  0  0  0  0  0
  1  2  1  0
  1  7  1  0
  1  8  1  0
  1  9  1  0
  2  3  2  0
  2  5  1  0
  3  4  2  0
  4 10  1  0
  4 11  1  0
  5  6  1  0
  5 12  1  0
  6 13  1  0
  6 14  1  0
M  END
>  <reaction>  (1) 
rmg_rxn_15667

>  <mol_properties>  (1) 
{"4": {"label": "donator", "atom_type": "N3s"}, "11": {"label": "d_hydrogen", "atom_type": "H0"}}

>  <type>  (1) 
r1h

$$$$

     RDKit          3D

  8  7  0  0  0  0  0  0  0  0999 V2000
    1.7077   -0.1964   -0.0607 C   0  0  0  0  0  3  0  0  0  0  0  0
    0.4209   -0.4565    0.2808 O   0  0  0  0  0  0  0  0  0  0  0  0
   -0.4607    0.4385   -0.2968 N   0  0  0  0  0  0  0  0  0  0  0  0
   -1.6584    0.1416   -0.0244 C   0  0  0  0  0  0  0  0  0  0  0  0
    2.4163   -0.7685    0.5170 H   0  0  0  0  0  0  0  0  0  0  0  0
    1.9214    0.7645   -0.5045 H   0  0  0  0  0  0  0  0  0  0  0  0
   -2.4185    0.7953   -0.4307 H   0  0  0  0  0  0  0  0  0  0  0  0
   -1.9286   -0.7185    0.5831 H   0  0  0  0  0  0  0  0  0  0  0  0
  1  2  1  0
  1  5  1  0
  1  6  1  0
  2  3  1  0
  3  4  2  3
  4  7  1  0
  4  8  1  0
M  RAD  1   1   2
M  END
>  <reaction>  (2) 
rmg_rxn_15667

>  <mol_properties>  (2) 
{"0": {"label": "acceptor", "atom_type": "Cs"}}

>  <type>  (2) 
r2

$$$$

     RDKit          3D

  9  8  0  0  0  0  0  0  0  0999 V2000
   -1.5470   -0.0755   -0.1976 C   0  0  0  0  0  0  0  0  0  0  0  0
   -0.2885    0.4507    0.1749 O   0  0  0  0  0  0  0  0  0  0  0  0
   -0.1502    1.7216   -0.3294 N   0  0  0  0  0  0  0  0  0  0  0  0
    0.9626    2.2353   -0.0219 C   0  0  0  0  0  0  0  0  0  0  0  0
   -1.6392   -0.1356   -1.2844 H   0  0  0  0  0  0  0  0  0  0  0  0
   -2.3597    0.5337    0.2044 H   0  0  0  0  0  0  0  0  0  0  0  0
   -1.5879   -1.0750    0.2318 H   0  0  0  0  0  0  0  0  0  0  0  0
    1.1497    3.2381   -0.3820 H   0  0  0  0  0  0  0  0  0  0  0  0
    1.7060    1.7101    0.5739 H   0  0  0  0  0  0  0  0  0  0  0  0
  1  2  1  0
  1  5  1  0
  1  6  1  0
  1  7  1  0
  2  3  1  0
  3  4  2  3
  4  8  1  0
  4  9  1  0
M  END
>  <reaction>  (3) 
rmg_rxn_15667

>  <mol_properties>  (3) 
{"0": {"label": "acceptor", "atom_type": "Cs"}, "8": {"label": "a_hydrogen", "atom_type": "H0"}}

>  <type>  (3) 
r2h

$$$$

     RDKit          3D

 22 20  0  0  0  0  0  0  0  0999 V2000
    1.8659   -1.2976    0.0474 C   0  0  0  0  0  3  0  0  0  0  0  0
    1.9614   -0.1031   -0.6372 O   0  0  0  0  0  0  0  0  0  0  0  0
    1.8087    0.9714    0.2180 N   0  0  0  0  0  0  0  0  0  0  0  0
    1.7855    2.0666   -0.4104 C   0  0  0  0  0  0  0  0  0  0  0  0
    2.1411   -2.1085   -0.6196 H   0  0  0  0  0  0  0  0  0  0  0  0
    2.3580   -1.2876    1.0195 H   0  0  0  0  0  0  0  0  0  0  0  0
    1.6784    2.9625    0.1862 H   0  0  0  0  0  0  0  0  0  0  0  0
    1.8632    2.1232   -1.4932 H   0  0  0  0  0  0  0  0  0  0  0  0
   -1.2317   -1.3168   -1.5806 C   0  0  0  0  0  0  0  0  0  0  0  0
   -1.2624   -0.5682   -0.2788 C   0  0  0  0  0  0  0  0  0  0  0  0
   -1.8275    0.6123   -0.1651 C   0  0  0  0  0  0  0  0  0  0  0  0
   -2.4529    1.7473   -0.0724 C   0  0  0  0  0  0  0  0  0  0  0  0
   -0.6476   -1.2470    0.7799 N   0  0  0  0  0  0  0  0  0  0  0  0
   -0.6200   -0.5206    1.9677 N   0  0  0  0  0  0  0  0  0  0  0  0
   -0.2023   -1.4400   -1.9267 H   0  0  0  0  0  0  0  0  0  0  0  0
   -1.6651   -2.3099   -1.4497 H   0  0  0  0  0  0  0  0  0  0  0  0
   -1.7887   -0.7810   -2.3460 H   0  0  0  0  0  0  0  0  0  0  0  0
   -1.9525    2.6897   -0.2765 H   0  0  0  0  0  0  0  0  0  0  0  0
   -3.4971    1.8002    0.2213 H   0  0  0  0  0  0  0  0  0  0  0  0
    0.4460   -1.4807    0.4269 H   0  0  0  0  0  0  0  0  0  0  0  0
   -0.0444    0.3148    1.8921 H   0  0  0  0  0  0  0  0  0  0  0  0
   -0.2678   -1.1175    2.7005 H   0  0  0  0  0  0  0  0  0  0  0  0
  1  2  1  0
  1  5  1  0
  1  6  1  0
  2  3  1  0
  3  4  2  3
  4  7  1  0
  4  8  1  0
  9 10  1  0
  9 15  1  0
  9 16  1  0
  9 17  1  0
 10 11  2  0
 10 13  1  0
 11 12  2  0
 12 18  1  0
 12 19  1  0
 13 14  1  0
 13 20  1  0
 14 21  1  0
 14 22  1  0
M  RAD  1   1   2
M  END
>  <reaction>  (4) 
rmg_rxn_15667

>  <mol_properties>  (4) 
{"0": {"label": "*3", "atom_type": "Cs"}, "1": {"label": "*4", "atom_type": "O2s"}, "9": {"label": "*0", "atom_type": "Cd"}, "12": {"label": "*1", "atom_type": "N3s"}, "19": {"label": "*2", "atom_type": "H0"}}

>  <type>  (4) 
ts

$$$$
