
     RDKit          3D

 14 13  0  0  0  0  0  0  0  0999 V2000
    1.8106   -0.5953    0.5577 C   0  0  0  0  0  0  0  0  0  0  0  0
    0.5197    0.2064    0.6554 C   0  0  0  0  0  0  0  0  0  0  0  0
   -0.5206   -0.2080   -0.3788 C   0  0  0  0  0  0  0  0  0  0  0  0
   -1.8114    0.5937   -0.2812 C   0  0  0  0  0  0  0  0  0  0  0  0
    2.2725   -0.4752   -0.4251 H   0  0  0  0  0  0  0  0  0  0  0  0
    1.6214   -1.6612    0.7052 H   0  0  0  0  0  0  0  0  0  0  0  0
    2.5364   -0.2784    1.3084 H   0  0  0  0  0  0  0  0  0  0  0  0
    0.0930    0.0950    1.6574 H   0  0  0  0  0  0  0  0  0  0  0  0
    0.7393    1.2723    0.5354 H   0  0  0  0  0  0  0  0  0  0  0  0
   -0.7402   -1.2739   -0.2588 H   0  0  0  0  0  0  0  0  0  0  0  0
   -0.0938   -0.0965   -1.3808 H   0  0  0  0  0  0  0  0  0  0  0  0
   -1.6222    1.6596   -0.4287 H   0  0  0  0  0  0  0  0  0  0  0  0
   -2.2734    0.4736    0.7017 H   0  0  0  0  0  0  0  0  0  0  0  0
   -2.5373    0.2768   -1.0318 H   0  0  0  0  0  0  0  0  0  0  0  0
  1  2  1  0
  1  5  1  0
  1  6  1  0
  1  7  1  0
  2  3  1  0
  2  8  1  0
  2  9  1  0
  3  4  1  0
  3 10  1  0
  3 11  1  0
  4 12  1  0
  4 13  1  0
  4 14  1  0
M  END
>  <reaction>  (1) 
rmg_rxn_35

>  <mol_properties>  (1) 
{"2": {"label": "donator", "atom_type": "Cs"}, "10": {"label": "d_hydrogen", "atom_type": "H0"}}

>  <type>  (1) 
r1h

$$$$

     RDKit          3D

 13 12  0  0  0  0  0  0  0  0999 V2000
    2.0654   -0.2739   -0.0844 C   0  0  0  0  0  3  0  0  0  0  0  0
    0.6326   -0.4110   -0.4406 C   0  0  0  0  0  0  0  0  0  0  0  0
   -0.3055    0.4151    0.4359 C   0  0  0  0  0  0  0  0  0  0  0  0
   -1.7714    0.2357    0.0671 C   0  0  0  0  0  0  0  0  0  0  0  0
    2.3610    0.0676    0.8995 H   0  0  0  0  0  0  0  0  0  0  0  0
    2.8408   -0.6127   -0.7582 H   0  0  0  0  0  0  0  0  0  0  0  0
    0.3313   -1.4695   -0.3768 H   0  0  0  0  0  0  0  0  0  0  0  0
    0.4826   -0.1432   -1.4940 H   0  0  0  0  0  0  0  0  0  0  0  0
   -0.1518    0.1351    1.4826 H   0  0  0  0  0  0  0  0  0  0  0  0
   -0.0303    1.4705    0.3565 H   0  0  0  0  0  0  0  0  0  0  0  0
   -2.0768   -0.8084    0.1692 H   0  0  0  0  0  0  0  0  0  0  0  0
   -1.9546    0.5339   -0.9679 H   0  0  0  0  0  0  0  0  0  0  0  0
   -2.4194    0.8370    0.7066 H   0  0  0  0  0  0  0  0  0  0  0  0
  1  2  1  0
  1  5  1  0
  1  6  1  0
  2  3  1  0
  2  7  1  0
  2  8  1  0
  3  4  1  0
  3  9  1  0
  3 10  1  0
  4 11  1  0
  4 12  1  0
  4 13  1  0
M  RAD  1   1   2
M  END
>  <reaction>  (2) 
rmg_rxn_35

>  <mol_properties>  (2) 
{"0": {"label": "acceptor", "atom_type": "Cs"}}

>  <type>  (2) 
r2

$$$$

     RDKit          3D

 14 13  0  0  0  0  0  0  0  0999 V2000
    1.8106   -0.5953    0.5577 C   0  0  0  0  0  0  0  0  0  0  0  0
    0.5197    0.2064    0.6554 C   0  0  0  0  0  0  0  0  0  0  0  0
   -0.5206   -0.2080   -0.3788 C   0  0  0  0  0  0  0  0  0  0  0  0
   -1.8114    0.5937   -0.2812 C   0  0  0  0  0  0  0  0  0  0  0  0
    2.2725   -0.4752   -0.4251 H   0  0  0  0  0  0  0  0  0  0  0  0
    1.6214   -1.6612    0.7052 H   0  0  0  0  0  0  0  0  0  0  0  0
    2.5364   -0.2784    1.3084 H   0  0  0  0  0  0  0  0  0  0  0  0
    0.0930    0.0950    1.6574 H   0  0  0  0  0  0  0  0  0  0  0  0
    0.7393    1.2723    0.5354 H   0  0  0  0  0  0  0  0  0  0  0  0
   -0.7402   -1.2739   -0.2588 H   0  0  0  0  0  0  0  0  0  0  0  0
   -0.0938   -0.0965   -1.3808 H   0  0  0  0  0  0  0  0  0  0  0  0
   -1.6222    1.6596   -0.4287 H   0  0  0  0  0  0  0  0  0  0  0  0
   -2.2734    0.4736    0.7017 H   0  0  0  0  0  0  0  0  0  0  0  0
   -2.5373    0.2768   -1.0318 H   0  0  0  0  0  0  0  0  0  0  0  0
  1  2  1  0
  1  5  1  0
  1  6  1  0
  1  7  1  0
  2  3  1  0
  2  8  1  0
  2  9  1  0
  3  4  1  0
  3 10  1  0
  3 11  1  0
  4 12  1  0
  4 13  1  0
  4 14  1  0
M  END
>  <reaction>  (3) 
rmg_rxn_35

>  <mol_properties>  (3) 
{"0": {"label": "acceptor", "atom_type": "Cs"}, "13": {"label": "a_hydrogen", "atom_type": "H0"}}

>  <type>  (3) 
r2h

$$$$

     RDKit          3D

 27 25  0  0  0  0  0  0  0  0999 V2000
   -0.4518    1.2720   -0.5026 C   0  0  0  0  0  3  0  0  0  0  0  0
    0.8712    0.9498    0.1393 C   0  0  0  0  0  0  0  0  0  0  0  0
    1.8902    2.0878    0.0519 C   0  0  0  0  0  0  0  0  0  0  0  0
    3.2215    1.7384    0.7042 C   0  0  0  0  0  0  0  0  0  0  0  0
   -0.4206    1.3871   -1.5855 H   0  0  0  0  0  0  0  0  0  0  0  0
   -1.0031    2.0836   -0.0284 H   0  0  0  0  0  0  0  0  0  0  0  0
    1.3000    0.0569   -0.3285 H   0  0  0  0  0  0  0  0  0  0  0  0
    0.7158    0.6961    1.1938 H   0  0  0  0  0  0  0  0  0  0  0  0
    2.0496    2.3440   -0.9998 H   0  0  0  0  0  0  0  0  0  0  0  0
    1.4698    2.9807    0.5242 H   0  0  0  0  0  0  0  0  0  0  0  0
    3.6732    0.8650    0.2278 H   0  0  0  0  0  0  0  0  0  0  0  0
    3.0891    1.5055    1.7634 H   0  0  0  0  0  0  0  0  0  0  0  0
    3.9316    2.5637    0.6301 H   0  0  0  0  0  0  0  0  0  0  0  0
   -0.5309   -2.1917   -1.6384 C   0  0  0  0  0  0  0  0  0  0  0  0
   -0.9931   -2.0570   -0.1933 C   0  0  0  0  0  0  0  0  0  0  0  0
   -1.9408   -0.9028    0.0235 C   0  0  0  0  0  0  0  0  0  0  0  0
   -2.3917   -0.6797    1.4440 C   0  0  0  0  0  0  0  0  0  0  0  0
   -0.0137   -1.2881   -1.9682 H   0  0  0  0  0  0  0  0  0  0  0  0
   -1.3807   -2.3476   -2.3068 H   0  0  0  0  0  0  0  0  0  0  0  0
    0.1515   -3.0340   -1.7622 H   0  0  0  0  0  0  0  0  0  0  0  0
   -1.4761   -2.9903    0.1247 H   0  0  0  0  0  0  0  0  0  0  0  0
   -0.1246   -1.9331    0.4627 H   0  0  0  0  0  0  0  0  0  0  0  0
   -2.7654   -0.8976   -0.6929 H   0  0  0  0  0  0  0  0  0  0  0  0
   -1.2600    0.1819   -0.3026 H   0  0  0  0  0  0  0  0  0  0  0  0
   -1.5338   -0.5496    2.1092 H   0  0  0  0  0  0  0  0  0  0  0  0
   -2.9686   -1.5316    1.8203 H   0  0  0  0  0  0  0  0  0  0  0  0
   -3.0199    0.2087    1.5295 H   0  0  0  0  0  0  0  0  0  0  0  0
  1  2  1  0
  1  5  1  0
  1  6  1  0
  2  3  1  0
  2  7  1  0
  2  8  1  0
  3  4  1  0
  3  9  1  0
  3 10  1  0
  4 11  1  0
  4 12  1  0
  4 13  1  0
 14 15  1  0
 14 18  1  0
 14 19  1  0
 14 20  1  0
 15 16  1  0
 15 21  1  0
 15 22  1  0
 16 17  1  0
 16 23  1  0
 16 24  1  0
 17 25  1  0
 17 26  1  0
 17 27  1  0
M  RAD  1   1   2
M  END
>  <reaction>  (4) 
rmg_rxn_35

>  <mol_properties>  (4) 
{"0": {"label": "*3", "atom_type": "Cs"}, "1": {"label": "*4", "atom_type": "Cs"}, "14": {"label": "*0", "atom_type": "Cs"}, "15": {"label": "*1", "atom_type": "Cs"}, "23": {"label": "*2", "atom_type": "H0"}}

>  <type>  (4) 
ts

$$$$
