
     RDKit          3D

 11 10  0  0  0  0  0  0  0  0999 V2000
   -1.2710    0.1907   -0.2084 C   0  0  0  0  0  0  0  0  0  0  0  0
    0.0202   -0.6130   -0.2928 C   0  0  0  0  0  0  0  0  0  0  0  0
    0.1086   -1.6953    0.7756 C   0  0  0  0  0  0  0  0  0  0  0  0
   -1.3607    0.6851    0.7620 H   0  0  0  0  0  0  0  0  0  0  0  0
   -2.1429   -0.4567   -0.3299 H   0  0  0  0  0  0  0  0  0  0  0  0
   -1.3158    0.9602   -0.9809 H   0  0  0  0  0  0  0  0  0  0  0  0
    0.8757    0.0616   -0.1992 H   0  0  0  0  0  0  0  0  0  0  0  0
    0.0997   -1.0712   -1.2825 H   0  0  0  0  0  0  0  0  0  0  0  0
   -0.7198   -2.4022    0.6850 H   0  0  0  0  0  0  0  0  0  0  0  0
    1.0395   -2.2596    0.6989 H   0  0  0  0  0  0  0  0  0  0  0  0
    0.0624   -1.2603    1.7770 H   0  0  0  0  0  0  0  0  0  0  0  0
  1  2  1  0
  1  4  1  0
  1  5  1  0
  1  6  1  0
  2  3  1  0
  2  7  1  0
  2  8  1  0
  3  9  1  0
  3 10  1  0
  3 11  1  0
M  END
>  <reaction>  (1) 
rmg_rxn_15490

>  <mol_properties>  (1) 
{"1": {"label": "donator", "atom_type": "Cs"}, "6": {"label": "d_hydrogen", "atom_type": "H0"}}

>  <type>  (1) 
r1h

$$$$

     RDKit          3D

  5  4  0  0  0  0  0  0  0  0999 V2000
    0.8934    0.3742    0.4948 O   0  0  0  0  0  0  0  0  0  0  0  0
    0.1582   -0.1610   -0.5904 N   0  0  0  0  0  0  0  0  0  0  0  0
   -1.0297   -0.3739   -0.4689 C   0  0  0  0  0  3  0  0  0  0  0  0
    1.7804    0.4382    0.1306 H   0  0  0  0  0  0  0  0  0  0  0  0
   -1.8023   -0.2775    0.2859 H   0  0  0  0  0  0  0  0  0  0  0  0
  1  2  1  0
  1  4  1  0
  2  3  2  3
  3  5  1  0
M  RAD  1   3   2
M  END
>  <reaction>  (2) 
rmg_rxn_15490

>  <mol_properties>  (2) 
{"2": {"label": "acceptor", "atom_type": "Cd"}}

>  <type>  (2) 
r2

$$$$

     RDKit          3D

  6  5  0  0  0  0  0  0  0  0999 V2000
    1.2314    0.0428    0.5088 O   0  0  0  0  0  0  0  0  0  0  0  0
    0.2987    0.2341   -0.4915 N   0  0  0  0  0  0  0  0  0  0  0  0
   -0.8599   -0.1122   -0.1290 C   0  0  0  0  0  0  0  0  0  0  0  0
    2.0507    0.3401    0.1082 H   0  0  0  0  0  0  0  0  0  0  0  0
   -1.0700   -0.5112    0.8610 H   0  0  0  0  0  0  0  0  0  0  0  0
   -1.6509    0.0064   -0.8574 H   0  0  0  0  0  0  0  0  0  0  0  0
  1  2  1  0
  1  4  1  0
  2  3  2  3
  3  5  1  0
  3  6  1  0
M  END
>  <reaction>  (3) 
rmg_rxn_15490

>  <mol_properties>  (3) 
{"2": {"label": "acceptor", "atom_type": "Cd"}, "5": {"label": "a_hydrogen", "atom_type": "H0"}}

>  <type>  (3) 
r2h

$$$$

     RDKit          3D

 16 14  0  0  0  0  0  0  0  0999 V2000
    2.7917   -0.3223    0.5250 O   0  0  0  0  0  0  0  0  0  0  0  0
    1.4018   -0.1449    0.4456 N   0  0  0  0  0  0  0  0  0  0  0  0
    0.9088   -0.4722   -0.6481 C   0  0  0  0  0  3  0  0  0  0  0  0
    2.9919   -0.0258    1.4158 H   0  0  0  0  0  0  0  0  0  0  0  0
    1.4276   -0.8690   -1.5210 H   0  0  0  0  0  0  0  0  0  0  0  0
   -1.8150    1.4562   -0.2317 C   0  0  0  0  0  0  0  0  0  0  0  0
   -1.7359   -0.0261   -0.5028 C   0  0  0  0  0  0  0  0  0  0  0  0
   -2.1674   -0.9161    0.6368 C   0  0  0  0  0  0  0  0  0  0  0  0
   -1.4454    2.0395   -1.0762 H   0  0  0  0  0  0  0  0  0  0  0  0
   -1.2208    1.7176    0.6466 H   0  0  0  0  0  0  0  0  0  0  0  0
   -2.8483    1.7621   -0.0391 H   0  0  0  0  0  0  0  0  0  0  0  0
   -0.5188   -0.2719   -0.6804 H   0  0  0  0  0  0  0  0  0  0  0  0
   -2.1892   -0.3076   -1.4555 H   0  0  0  0  0  0  0  0  0  0  0  0
   -2.0413   -1.9717    0.3924 H   0  0  0  0  0  0  0  0  0  0  0  0
   -1.5805   -0.7033    1.5330 H   0  0  0  0  0  0  0  0  0  0  0  0
   -3.2217   -0.7518    0.8813 H   0  0  0  0  0  0  0  0  0  0  0  0
  1  2  1  0
  1  4  1  0
  2  3  2  3
  3  5  1  0
  6  7  1  0
  6  9  1  0
  6 10  1  0
  6 11  1  0
  7  8  1  0
  7 12  1  0
  7 13  1  0
  8 14  1  0
  8 15  1  0
  8 16  1  0
M  RAD  1   3   2
M  END
>  <reaction>  (4) 
rmg_rxn_15490

>  <mol_properties>  (4) 
{"1": {"label": "*4", "atom_type": "N3d"}, "2": {"label": "*3", "atom_type": "Cd"}, "5": {"label": "*0", "atom_type": "Cs"}, "6": {"label": "*1", "atom_type": "Cs"}, "11": {"label": "*2", "atom_type": "H0"}}

>  <type>  (4) 
ts

$$$$
