
     RDKit          3D

  6  5  0  0  0  0  0  0  0  0999 V2000
   -0.4901    0.0045    0.0014 C   0  0  0  0  0  0  0  0  0  0  0  0
    0.9645   -0.0089   -0.0027 C   0  0  0  0  0  0  0  0  0  0  0  0
    2.1108   -0.0195   -0.0059 N   0  0  0  0  0  0  0  0  0  0  0  0
   -0.8700   -0.6407   -0.7900 H   0  0  0  0  0  0  0  0  0  0  0  0
   -0.8625   -0.3540    0.9604 H   0  0  0  0  0  0  0  0  0  0  0  0
   -0.8530    1.0185   -0.1631 H   0  0  0  0  0  0  0  0  0  0  0  0
  1  2  1  0
  1  4  1  0
  1  5  1  0
  1  6  1  0
  2  3  3  0
M  END
>  <reaction>  (1) 
rmg_rxn_165

>  <mol_properties>  (1) 
{"0": {"label": "donator", "atom_type": "Cs"}, "3": {"label": "d_hydrogen", "atom_type": "H0"}}

>  <type>  (1) 
r1h

$$$$

     RDKit          3D

 17 16  0  0  0  0  0  0  0  0999 V2000
    3.3619    0.3511   -1.0290 C   0  0  0  0  0  3  0  0  0  0  0  0
    2.1806    1.0643   -0.5073 C   0  0  0  0  0  0  0  0  0  0  0  0
    1.4028    0.1998    0.2757 O   0  0  0  0  0  0  0  0  0  0  0  0
    0.2433    0.8081    0.7885 C   0  0  0  0  0  0  0  0  0  0  0  0
   -0.5040   -0.1878    1.6510 C   0  0  0  0  0  0  0  0  0  0  0  0
    0.2852   -0.6298    2.8762 C   0  0  0  0  0  0  0  0  0  0  0  0
    4.1174    0.8902   -1.5820 H   0  0  0  0  0  0  0  0  0  0  0  0
    3.4399   -0.7198   -0.9141 H   0  0  0  0  0  0  0  0  0  0  0  0
    1.5724    1.4684   -1.3398 H   0  0  0  0  0  0  0  0  0  0  0  0
    2.4896    1.9442    0.0856 H   0  0  0  0  0  0  0  0  0  0  0  0
    0.5169    1.6937    1.3835 H   0  0  0  0  0  0  0  0  0  0  0  0
   -0.3954    1.1528   -0.0379 H   0  0  0  0  0  0  0  0  0  0  0  0
   -0.7611   -1.0545    1.0367 H   0  0  0  0  0  0  0  0  0  0  0  0
   -1.4466    0.2743    1.9571 H   0  0  0  0  0  0  0  0  0  0  0  0
    0.5263    0.2245    3.5136 H   0  0  0  0  0  0  0  0  0  0  0  0
    1.2220   -1.1033    2.5825 H   0  0  0  0  0  0  0  0  0  0  0  0
   -0.2849   -1.3427    3.4737 H   0  0  0  0  0  0  0  0  0  0  0  0
  1  2  1  0
  1  7  1  0
  1  8  1  0
  2  3  1  0
  2  9  1  0
  2 10  1  0
  3  4  1  0
  4  5  1  0
  4 11  1  0
  4 12  1  0
  5  6  1  0
  5 13  1  0
  5 14  1  0
  6 15  1  0
  6 16  1  0
  6 17  1  0
M  RAD  1   1   2
M  END
>  <reaction>  (2) 
rmg_rxn_165

>  <mol_properties>  (2) 
{"0": {"label": "acceptor", "atom_type": "Cs"}}

>  <type>  (2) 
r2

$$$$

     RDKit          3D

 18 17  0  0  0  0  0  0  0  0999 V2000
    2.2026   -0.7213   -0.2612 C   0  0  0  0  0  0  0  0  0  0  0  0
    1.5384    0.2638    0.6915 C   0  0  0  0  0  0  0  0  0  0  0  0
    2.2584    1.5946    0.7694 C   0  0  0  0  0  0  0  0  0  0  0  0
    2.2212    2.2185   -0.4893 O   0  0  0  0  0  0  0  0  0  0  0  0
    2.8988    3.4488   -0.5204 C   0  0  0  0  0  0  0  0  0  0  0  0
    2.7981    4.0296   -1.9118 C   0  0  0  0  0  0  0  0  0  0  0  0
    3.2294   -0.9309    0.0486 H   0  0  0  0  0  0  0  0  0  0  0  0
    2.2338   -0.3181   -1.2734 H   0  0  0  0  0  0  0  0  0  0  0  0
    1.6610   -1.6680   -0.2875 H   0  0  0  0  0  0  0  0  0  0  0  0
    1.4990   -0.1566    1.7002 H   0  0  0  0  0  0  0  0  0  0  0  0
    0.5055    0.4455    0.3835 H   0  0  0  0  0  0  0  0  0  0  0  0
    3.3038    1.4410    1.0808 H   0  0  0  0  0  0  0  0  0  0  0  0
    1.7844    2.2410    1.5226 H   0  0  0  0  0  0  0  0  0  0  0  0
    2.4596    4.1376    0.2164 H   0  0  0  0  0  0  0  0  0  0  0  0
    3.9524    3.3035   -0.2397 H   0  0  0  0  0  0  0  0  0  0  0  0
    1.7543    4.1869   -2.1856 H   0  0  0  0  0  0  0  0  0  0  0  0
    3.2472    3.3545   -2.6411 H   0  0  0  0  0  0  0  0  0  0  0  0
    3.3178    4.9878   -1.9600 H   0  0  0  0  0  0  0  0  0  0  0  0
  1  2  1  0
  1  7  1  0
  1  8  1  0
  1  9  1  0
  2  3  1  0
  2 10  1  0
  2 11  1  0
  3  4  1  0
  3 12  1  0
  3 13  1  0
  4  5  1  0
  5  6  1  0
  5 14  1  0
  5 15  1  0
  6 16  1  0
  6 17  1  0
  6 18  1  0
M  END
>  <reaction>  (3) 
rmg_rxn_165

>  <mol_properties>  (3) 
{"0": {"label": "a_hydrogen", "atom_type": "H0"}, "1": {"label": "acceptor", "atom_type": "Cs"}}

>  <type>  (3) 
r2h

$$$$

     RDKit          3D

 23 21  0  0  0  0  0  0  0  0999 V2000
    2.7973    2.0822    0.2526 C   0  0  0  0  0  0  0  0  0  0  0  0
    2.6214    1.9412   -1.1577 C   0  0  0  0  0  0  0  0  0  0  0  0
    2.4306    1.7876   -2.2822 N   0  0  0  0  0  0  0  0  0  0  0  0
    1.8772    1.3313    0.8283 H   0  0  0  0  0  0  0  0  0  0  0  0
    3.7395    1.6811    0.6149 H   0  0  0  0  0  0  0  0  0  0  0  0
    2.5951    3.0851    0.6173 H   0  0  0  0  0  0  0  0  0  0  0  0
    0.9021    0.5354    1.3647 C   0  0  0  0  0  3  0  0  0  0  0  0
    0.1984   -0.0457    0.1748 C   0  0  0  0  0  0  0  0  0  0  0  0
   -0.8334   -0.8866    0.6315 O   0  0  0  0  0  0  0  0  0  0  0  0
   -1.5606   -1.4832   -0.4191 C   0  0  0  0  0  0  0  0  0  0  0  0
   -2.6712   -2.3325    0.1629 C   0  0  0  0  0  0  0  0  0  0  0  0
   -3.6966   -1.5244    0.9468 C   0  0  0  0  0  0  0  0  0  0  0  0
    0.3108    1.2269    1.9600 H   0  0  0  0  0  0  0  0  0  0  0  0
    1.4603   -0.1775    1.9665 H   0  0  0  0  0  0  0  0  0  0  0  0
    0.9045   -0.6124   -0.4482 H   0  0  0  0  0  0  0  0  0  0  0  0
   -0.2136    0.7552   -0.4548 H   0  0  0  0  0  0  0  0  0  0  0  0
   -1.9806   -0.7023   -1.0711 H   0  0  0  0  0  0  0  0  0  0  0  0
   -0.8890   -2.0985   -1.0340 H   0  0  0  0  0  0  0  0  0  0  0  0
   -2.2251   -3.0972    0.8040 H   0  0  0  0  0  0  0  0  0  0  0  0
   -3.1582   -2.8573   -0.6636 H   0  0  0  0  0  0  0  0  0  0  0  0
   -4.1672   -0.7704    0.3110 H   0  0  0  0  0  0  0  0  0  0  0  0
   -3.2257   -1.0100    1.7846 H   0  0  0  0  0  0  0  0  0  0  0  0
   -4.4841   -2.1679    1.3415 H   0  0  0  0  0  0  0  0  0  0  0  0
  1  2  1  0
  1  4  1  0
  1  5  1  0
  1  6  1  0
  2  3  3  0
  7  8  1  0
  7 13  1  0
  7 14  1  0
  8  9  1  0
  8 15  1  0
  8 16  1  0
  9 10  1  0
 10 11  1  0
 10 17  1  0
 10 18  1  0
 11 12  1  0
 11 19  1  0
 11 20  1  0
 12 21  1  0
 12 22  1  0
 12 23  1  0
M  RAD  1   7   2
M  END
>  <reaction>  (4) 
rmg_rxn_165

>  <mol_properties>  (4) 
{"0": {"label": "*1", "atom_type": "Cs"}, "1": {"label": "*0", "atom_type": "Ct"}, "3": {"label": "*2", "atom_type": "H0"}, "6": {"label": "*3", "atom_type": "Cs"}, "7": {"label": "*4", "atom_type": "Cs"}}

>  <type>  (4) 
ts

$$$$
