
     RDKit          3D

  5  4  0  0  0  0  0  0  0  0999 V2000
   -0.4583    0.0384    0.1517 N   0  0  0  0  0  0  0  0  0  0  0  0
    0.7454   -0.3487    0.5322 N   0  0  0  0  0  0  0  0  0  0  0  0
    0.7566   -1.0388    1.5193 O   0  0  0  0  0  0  0  0  0  0  0  0
   -1.2688   -0.2521    0.6850 H   0  0  0  0  0  0  0  0  0  0  0  0
   -0.5137    0.6154   -0.6670 H   0  0  0  0  0  0  0  0  0  0  0  0
  1  2  1  0
  1  4  1  0
  1  5  1  0
  2  3  2  0
M  END
>  <reaction>  (1) 
rmg_rxn_1561

>  <mol_properties>  (1) 
{"0": {"label": "donator", "atom_type": "N3s"}, "3": {"label": "d_hydrogen", "atom_type": "H0"}}

>  <type>  (1) 
r1h

$$$$

     RDKit          3D

 13 12  0  0  0  0  0  0  0  0999 V2000
    2.2389    0.7017    0.3130 C   0  0  0  0  0  3  0  0  0  0  0  0
    0.9433    0.8223   -0.0376 O   0  0  0  0  0  0  0  0  0  0  0  0
    0.4736    2.1521   -0.1615 C   0  0  0  0  0  0  0  0  0  0  0  0
   -0.9782    2.0920   -0.5770 C   0  0  0  0  0  0  0  0  0  0  0  0
   -1.6070    3.4420   -0.7601 C   0  0  0  0  0  0  0  0  0  0  0  0
   -1.0369    4.4869   -0.6064 O   0  0  0  0  0  0  0  0  0  0  0  0
    2.5950   -0.3170    0.3352 H   0  0  0  0  0  0  0  0  0  0  0  0
    2.9060    1.5360    0.1249 H   0  0  0  0  0  0  0  0  0  0  0  0
    1.0668    2.6899   -0.9083 H   0  0  0  0  0  0  0  0  0  0  0  0
    0.5827    2.6771    0.7919 H   0  0  0  0  0  0  0  0  0  0  0  0
   -1.0904    1.5380   -1.5153 H   0  0  0  0  0  0  0  0  0  0  0  0
   -1.5701    1.5405    0.1613 H   0  0  0  0  0  0  0  0  0  0  0  0
   -2.6749    3.4222   -1.0597 H   0  0  0  0  0  0  0  0  0  0  0  0
  1  2  1  0
  1  7  1  0
  1  8  1  0
  2  3  1  0
  3  4  1  0
  3  9  1  0
  3 10  1  0
  4  5  1  0
  4 11  1  0
  4 12  1  0
  5  6  2  0
  5 13  1  0
M  RAD  1   1   2
M  END
>  <reaction>  (2) 
rmg_rxn_1561

>  <mol_properties>  (2) 
{"0": {"label": "acceptor", "atom_type": "Cs"}}

>  <type>  (2) 
r2

$$$$

     RDKit          3D

 14 13  0  0  0  0  0  0  0  0999 V2000
   -2.1430    0.4492    0.2556 C   0  0  0  0  0  0  0  0  0  0  0  0
   -0.8980   -0.1952    0.2757 O   0  0  0  0  0  0  0  0  0  0  0  0
   -0.3667   -0.3041    1.5713 C   0  0  0  0  0  0  0  0  0  0  0  0
    0.9667   -1.0099    1.4715 C   0  0  0  0  0  0  0  0  0  0  0  0
    1.6584   -1.1995    2.7884 C   0  0  0  0  0  0  0  0  0  0  0  0
    1.2262   -0.8381    3.8485 O   0  0  0  0  0  0  0  0  0  0  0  0
   -2.0716    1.4724    0.6470 H   0  0  0  0  0  0  0  0  0  0  0  0
   -2.8872   -0.0973    0.8495 H   0  0  0  0  0  0  0  0  0  0  0  0
   -2.4755    0.4883   -0.7805 H   0  0  0  0  0  0  0  0  0  0  0  0
   -0.2382    0.6884    2.0233 H   0  0  0  0  0  0  0  0  0  0  0  0
   -1.0467   -0.8675    2.2240 H   0  0  0  0  0  0  0  0  0  0  0  0
    1.6454   -0.4596    0.8107 H   0  0  0  0  0  0  0  0  0  0  0  0
    0.8471   -1.9957    1.0089 H   0  0  0  0  0  0  0  0  0  0  0  0
    2.6387   -1.7165    2.7294 H   0  0  0  0  0  0  0  0  0  0  0  0
  1  2  1  0
  1  7  1  0
  1  8  1  0
  1  9  1  0
  2  3  1  0
  3  4  1  0
  3 10  1  0
  3 11  1  0
  4  5  1  0
  4 12  1  0
  4 13  1  0
  5  6  2  0
  5 14  1  0
M  END
>  <reaction>  (3) 
rmg_rxn_1561

>  <mol_properties>  (3) 
{"0": {"label": "a_hydrogen", "atom_type": "H0"}, "1": {"label": "acceptor", "atom_type": "Cs"}}

>  <type>  (3) 
r2h

$$$$

     RDKit          3D

 18 16  0  0  0  0  0  0  0  0999 V2000
   -0.2036   -2.5163    0.9219 N   0  0  0  0  0  0  0  0  0  0  0  0
   -1.3849   -2.2458    1.3352 N   0  0  0  0  0  0  0  0  0  0  0  0
   -1.8731   -1.1672    1.0852 O   0  0  0  0  0  0  0  0  0  0  0  0
    0.2878   -1.7737   -0.0500 H   0  0  0  0  0  0  0  0  0  0  0  0
    0.0368   -3.4913    1.0590 H   0  0  0  0  0  0  0  0  0  0  0  0
    0.7379   -1.0139   -1.0443 C   0  0  0  0  0  3  0  0  0  0  0  0
    1.1256    0.1865   -0.5407 O   0  0  0  0  0  0  0  0  0  0  0  0
    0.0709    1.1156   -0.3374 C   0  0  0  0  0  0  0  0  0  0  0  0
    0.6401    2.3033    0.4024 C   0  0  0  0  0  0  0  0  0  0  0  0
   -0.3282    3.4421    0.5457 C   0  0  0  0  0  0  0  0  0  0  0  0
   -1.4238    3.4733    0.0583 O   0  0  0  0  0  0  0  0  0  0  0  0
   -0.0982   -0.9706   -1.7480 H   0  0  0  0  0  0  0  0  0  0  0  0
    1.6009   -1.5667   -1.4126 H   0  0  0  0  0  0  0  0  0  0  0  0
   -0.7307    0.6354    0.2340 H   0  0  0  0  0  0  0  0  0  0  0  0
   -0.3406    1.4190   -1.3051 H   0  0  0  0  0  0  0  0  0  0  0  0
    0.9805    2.0155    1.4020 H   0  0  0  0  0  0  0  0  0  0  0  0
    1.5270    2.6908   -0.1121 H   0  0  0  0  0  0  0  0  0  0  0  0
    0.0457    4.2962    1.1471 H   0  0  0  0  0  0  0  0  0  0  0  0
  1  2  1  0
  1  4  1  0
  1  5  1  0
  2  3  2  0
  6  7  1  0
  6 12  1  0
  6 13  1  0
  7  8  1  0
  8  9  1  0
  8 14  1  0
  8 15  1  0
  9 10  1  0
  9 16  1  0
  9 17  1  0
 10 11  2  0
 10 18  1  0
M  RAD  1   6   2
M  END
>  <reaction>  (4) 
rmg_rxn_1561

>  <mol_properties>  (4) 
{"0": {"label": "*1", "atom_type": "N3s"}, "1": {"label": "*0", "atom_type": "N3d"}, "3": {"label": "*2", "atom_type": "H0"}, "5": {"label": "*3", "atom_type": "Cs"}, "6": {"label": "*4", "atom_type": "O2s"}}

>  <type>  (4) 
ts

$$$$
