
     RDKit          3D

 10  9  0  0  0  0  0  0  0  0999 V2000
    2.0404   -0.0582    0.0133 C   0  0  0  0  0  0  0  0  0  0  0  0
    0.5946   -0.0174    0.1905 C   0  0  0  0  0  0  0  0  0  0  0  0
   -0.5946    0.0163    0.3362 C   0  0  0  0  0  0  0  0  0  0  0  0
   -2.0404    0.0572    0.5135 C   0  0  0  0  0  0  0  0  0  0  0  0
    2.4764    0.9342    0.1402 H   0  0  0  0  0  0  0  0  0  0  0  0
    2.3005   -0.4158   -0.9845 H   0  0  0  0  0  0  0  0  0  0  0  0
    2.5033   -0.7257    0.7421 H   0  0  0  0  0  0  0  0  0  0  0  0
   -2.5531   -0.2795   -0.3892 H   0  0  0  0  0  0  0  0  0  0  0  0
   -2.3771    1.0716    0.7341 H   0  0  0  0  0  0  0  0  0  0  0  0
   -2.3500   -0.5877    1.3377 H   0  0  0  0  0  0  0  0  0  0  0  0
  1  2  1  0
  1  5  1  0
  1  6  1  0
  1  7  1  0
  2  3  3  0
  3  4  1  0
  4  8  1  0
  4  9  1  0
  4 10  1  0
M  END
>  <reaction>  (1) 
rmg_rxn_296

>  <mol_properties>  (1) 
{"3": {"label": "donator", "atom_type": "Cs"}, "9": {"label": "d_hydrogen", "atom_type": "H0"}}

>  <type>  (1) 
r1h

$$$$

     RDKit          3D

 11 10  0  0  0  0  0  0  0  0999 V2000
   -1.2230    0.3768   -0.0849 C   0  0  0  0  0  0  0  0  0  0  0  0
   -0.0734   -0.5533    0.2746 C   0  0  0  0  0  0  0  0  0  0  0  0
   -0.0853   -1.8426   -0.5372 C   0  0  0  0  0  0  0  0  0  0  0  0
    0.0319   -1.6944   -1.8815 O   0  0  0  0  0  1  0  0  0  0  0  0
   -2.1874   -0.0885    0.1341 H   0  0  0  0  0  0  0  0  0  0  0  0
   -1.1670    1.3099    0.4765 H   0  0  0  0  0  0  0  0  0  0  0  0
   -1.2014    0.6189   -1.1483 H   0  0  0  0  0  0  0  0  0  0  0  0
    0.8834   -0.0518    0.1071 H   0  0  0  0  0  0  0  0  0  0  0  0
   -0.1104   -0.8149    1.3362 H   0  0  0  0  0  0  0  0  0  0  0  0
    0.6767   -2.5604   -0.1861 H   0  0  0  0  0  0  0  0  0  0  0  0
   -1.0401   -2.3871   -0.3877 H   0  0  0  0  0  0  0  0  0  0  0  0
  1  2  1  0
  1  5  1  0
  1  6  1  0
  1  7  1  0
  2  3  1  0
  2  8  1  0
  2  9  1  0
  3  4  1  0
  3 10  1  0
  3 11  1  0
M  RAD  1   4   2
M  END
>  <reaction>  (2) 
rmg_rxn_296

>  <mol_properties>  (2) 
{"3": {"label": "acceptor", "atom_type": "O2s"}}

>  <type>  (2) 
r2

$$$$

     RDKit          3D

 12 11  0  0  0  0  0  0  0  0999 V2000
   -1.4643   -0.2505   -0.5284 C   0  0  0  0  0  0  0  0  0  0  0  0
   -0.3946    0.4302    0.3143 C   0  0  0  0  0  0  0  0  0  0  0  0
   -0.5959    0.2382    1.8102 C   0  0  0  0  0  0  0  0  0  0  0  0
   -0.5633   -1.1190    2.2092 O   0  0  0  0  0  0  0  0  0  0  0  0
   -2.4511    0.1644   -0.3109 H   0  0  0  0  0  0  0  0  0  0  0  0
   -1.5019   -1.3198   -0.3181 H   0  0  0  0  0  0  0  0  0  0  0  0
   -1.2720   -0.1182   -1.5941 H   0  0  0  0  0  0  0  0  0  0  0  0
    0.5965    0.0515    0.0385 H   0  0  0  0  0  0  0  0  0  0  0  0
   -0.3776    1.5047    0.1078 H   0  0  0  0  0  0  0  0  0  0  0  0
   -1.5821    0.6048    2.1034 H   0  0  0  0  0  0  0  0  0  0  0  0
    0.1495    0.8220    2.3649 H   0  0  0  0  0  0  0  0  0  0  0  0
    0.3017   -1.4750    1.9997 H   0  0  0  0  0  0  0  0  0  0  0  0
  1  2  1  0
  1  5  1  0
  1  6  1  0
  1  7  1  0
  2  3  1  0
  2  8  1  0
  2  9  1  0
  3  4  1  0
  3 10  1  0
  3 11  1  0
  4 12  1  0
M  END
>  <reaction>  (3) 
rmg_rxn_296

>  <mol_properties>  (3) 
{"3": {"label": "acceptor", "atom_type": "O2s"}, "11": {"label": "a_hydrogen", "atom_type": "H0"}}

>  <type>  (3) 
r2h

$$$$

     RDKit          3D

 21 19  0  0  0  0  0  0  0  0999 V2000
    0.3564    0.5770    3.2131 C   0  0  0  0  0  0  0  0  0  0  0  0
    0.6893    0.3195    1.7505 C   0  0  0  0  0  0  0  0  0  0  0  0
    0.1598   -1.0163    1.2458 C   0  0  0  0  0  0  0  0  0  0  0  0
   -1.2159   -1.1595    1.3485 O   0  0  0  0  0  1  0  0  0  0  0  0
    0.8167   -0.1762    3.8574 H   0  0  0  0  0  0  0  0  0  0  0  0
    0.7136    1.5564    3.5351 H   0  0  0  0  0  0  0  0  0  0  0  0
   -0.7217    0.5373    3.3733 H   0  0  0  0  0  0  0  0  0  0  0  0
    0.2723    1.1129    1.1229 H   0  0  0  0  0  0  0  0  0  0  0  0
    1.7729    0.3402    1.5976 H   0  0  0  0  0  0  0  0  0  0  0  0
    0.4880   -1.1886    0.2087 H   0  0  0  0  0  0  0  0  0  0  0  0
    0.5837   -1.8447    1.8341 H   0  0  0  0  0  0  0  0  0  0  0  0
    1.1986    0.5262   -3.0142 C   0  0  0  0  0  0  0  0  0  0  0  0
    0.0129    0.3901   -2.1828 C   0  0  0  0  0  0  0  0  0  0  0  0
   -0.9771    0.2874   -1.5046 C   0  0  0  0  0  0  0  0  0  0  0  0
   -2.0997    0.1340   -0.6412 C   0  0  0  0  0  0  0  0  0  0  0  0
    1.1064    1.3865   -3.6796 H   0  0  0  0  0  0  0  0  0  0  0  0
    1.3509   -0.3636   -3.6267 H   0  0  0  0  0  0  0  0  0  0  0  0
    2.0872    0.6730   -2.3974 H   0  0  0  0  0  0  0  0  0  0  0  0
   -2.8936   -0.4914   -1.0464 H   0  0  0  0  0  0  0  0  0  0  0  0
   -2.4824    1.0698   -0.2369 H   0  0  0  0  0  0  0  0  0  0  0  0
   -1.7328   -0.4936    0.3635 H   0  0  0  0  0  0  0  0  0  0  0  0
  1  2  1  0
  1  5  1  0
  1  6  1  0
  1  7  1  0
  2  3  1  0
  2  8  1  0
  2  9  1  0
  3  4  1  0
  3 10  1  0
  3 11  1  0
 12 13  1  0
 12 16  1  0
 12 17  1  0
 12 18  1  0
 13 14  3  0
 14 15  1  0
 15 19  1  0
 15 20  1  0
 15 21  1  0
M  RAD  1   4   2
M  END
>  <reaction>  (4) 
rmg_rxn_296

>  <mol_properties>  (4) 
{"2": {"label": "*4", "atom_type": "Cs"}, "3": {"label": "*3", "atom_type": "O2s"}, "13": {"label": "*0", "atom_type": "Ct"}, "14": {"label": "*1", "atom_type": "Cs"}, "20": {"label": "*2", "atom_type": "H0"}}

>  <type>  (4) 
ts

$$$$
