
     RDKit          3D

 15 14  0  0  0  0  0  0  0  0999 V2000
   -2.0554    0.0723   -0.4910 C   0  0  0  0  0  0  0  0  0  0  0  0
   -0.7461   -0.6266   -0.8178 C   0  0  0  0  0  0  0  0  0  0  0  0
    0.3249    0.2591   -1.9782 S   0  0  0  0  0  0  0  0  0  0  0  0
   -0.7172    0.3642   -3.4551 C   0  0  0  0  0  0  0  0  0  0  0  0
   -1.1375   -0.9737   -4.0409 C   0  0  0  0  0  0  0  0  0  0  0  0
   -2.7005    0.1427   -1.3684 H   0  0  0  0  0  0  0  0  0  0  0  0
   -2.6016   -0.4848    0.2733 H   0  0  0  0  0  0  0  0  0  0  0  0
   -1.8758    1.0825   -0.1213 H   0  0  0  0  0  0  0  0  0  0  0  0
   -0.1320   -0.7246    0.0789 H   0  0  0  0  0  0  0  0  0  0  0  0
   -0.9254   -1.6374   -1.1879 H   0  0  0  0  0  0  0  0  0  0  0  0
   -1.5873    0.9874   -3.2422 H   0  0  0  0  0  0  0  0  0  0  0  0
   -0.1021    0.9161   -4.1678 H   0  0  0  0  0  0  0  0  0  0  0  0
   -1.7876   -1.5224   -3.3574 H   0  0  0  0  0  0  0  0  0  0  0  0
   -0.2676   -1.5962   -4.2534 H   0  0  0  0  0  0  0  0  0  0  0  0
   -1.6916   -0.8229   -4.9700 H   0  0  0  0  0  0  0  0  0  0  0  0
  1  2  1  0
  1  6  1  0
  1  7  1  0
  1  8  1  0
  2  3  1  0
  2  9  1  0
  2 10  1  0
  3  4  1  0
  4  5  1  0
  4 11  1  0
  4 12  1  0
  5 13  1  0
  5 14  1  0
  5 15  1  0
M  END
>  <reaction>  (1) 
rmg_rxn_382

>  <mol_properties>  (1) 
{"0": {"label": "donator", "atom_type": "Cs"}, "5": {"label": "d_hydrogen", "atom_type": "H0"}}

>  <type>  (1) 
r1h

$$$$

     RDKit          3D

  8  7  0  0  0  0  0  0  0  0999 V2000
   -0.7840    0.1126   -0.1155 C   0  0  0  0  0  0  0  0  0  0  0  0
    0.7195   -0.0851   -0.0227 C   0  0  0  0  0  0  0  0  0  0  0  0
    1.2695   -0.8864   -0.9704 O   0  0  0  0  0  1  0  0  0  0  0  0
   -1.2991   -0.8447   -0.0298 H   0  0  0  0  0  0  0  0  0  0  0  0
   -1.1368    0.7683    0.6831 H   0  0  0  0  0  0  0  0  0  0  0  0
   -1.0499    0.5607   -1.0735 H   0  0  0  0  0  0  0  0  0  0  0  0
    1.2598    0.8793   -0.0598 H   0  0  0  0  0  0  0  0  0  0  0  0
    1.0161   -0.4950    0.9608 H   0  0  0  0  0  0  0  0  0  0  0  0
  1  2  1  0
  1  4  1  0
  1  5  1  0
  1  6  1  0
  2  3  1  0
  2  7  1  0
  2  8  1  0
M  RAD  1   3   2
M  END
>  <reaction>  (2) 
rmg_rxn_382

>  <mol_properties>  (2) 
{"2": {"label": "acceptor", "atom_type": "O2s"}}

>  <type>  (2) 
r2

$$$$

     RDKit          3D

  9  8  0  0  0  0  0  0  0  0999 V2000
   -0.9895    0.3048    0.1041 C   0  0  0  0  0  0  0  0  0  0  0  0
    0.3761   -0.3562    0.0721 C   0  0  0  0  0  0  0  0  0  0  0  0
    0.3441   -1.6564   -0.4834 O   0  0  0  0  0  0  0  0  0  0  0  0
   -1.6997   -0.3114    0.6572 H   0  0  0  0  0  0  0  0  0  0  0  0
   -0.9320    1.2848    0.5822 H   0  0  0  0  0  0  0  0  0  0  0  0
   -1.3774    0.4507   -0.9077 H   0  0  0  0  0  0  0  0  0  0  0  0
    0.7581   -0.4813    1.0862 H   0  0  0  0  0  0  0  0  0  0  0  0
    1.0900    0.2787   -0.4681 H   0  0  0  0  0  0  0  0  0  0  0  0
    0.0089   -1.5959   -1.3792 H   0  0  0  0  0  0  0  0  0  0  0  0
  1  2  1  0
  1  4  1  0
  1  5  1  0
  1  6  1  0
  2  3  1  0
  2  7  1  0
  2  8  1  0
  3  9  1  0
M  END
>  <reaction>  (3) 
rmg_rxn_382

>  <mol_properties>  (3) 
{"2": {"label": "acceptor", "atom_type": "O2s"}, "8": {"label": "a_hydrogen", "atom_type": "H0"}}

>  <type>  (3) 
r2h

$$$$

     RDKit          3D

 23 21  0  0  0  0  0  0  0  0999 V2000
    2.6814   -0.1081   -2.0573 C   0  0  0  0  0  0  0  0  0  0  0  0
    1.5927   -0.9869   -1.4669 C   0  0  0  0  0  0  0  0  0  0  0  0
    1.7304   -1.2254   -0.0992 O   0  0  0  0  0  0  0  0  0  0  0  0
    3.6659   -0.5194   -1.8321 H   0  0  0  0  0  0  0  0  0  0  0  0
    2.5712   -0.0362   -3.1412 H   0  0  0  0  0  0  0  0  0  0  0  0
    2.6300    0.9016   -1.6454 H   0  0  0  0  0  0  0  0  0  0  0  0
    0.5989   -0.5789   -1.6995 H   0  0  0  0  0  0  0  0  0  0  0  0
    1.6242   -1.9835   -1.9258 H   0  0  0  0  0  0  0  0  0  0  0  0
    1.2524    0.9711    1.0179 C   0  0  0  0  0  3  0  0  0  0  0  0
   -0.1024    1.4666    0.5880 C   0  0  0  0  0  0  0  0  0  0  0  0
   -1.5152    0.6568    1.3745 S   0  0  0  0  0  0  0  0  0  0  0  0
   -1.6205   -0.8988    0.4499 C   0  0  0  0  0  0  0  0  0  0  0  0
   -2.2390   -0.7602   -0.9322 C   0  0  0  0  0  0  0  0  0  0  0  0
    1.4942   -0.1603    0.5028 H   0  0  0  0  0  0  0  0  0  0  0  0
    2.0776    1.5865    0.6593 H   0  0  0  0  0  0  0  0  0  0  0  0
    1.3346    0.7550    2.0817 H   0  0  0  0  0  0  0  0  0  0  0  0
   -0.2040    2.5205    0.8660 H   0  0  0  0  0  0  0  0  0  0  0  0
   -0.2109    1.4331   -0.4991 H   0  0  0  0  0  0  0  0  0  0  0  0
   -0.6278   -1.3475    0.4038 H   0  0  0  0  0  0  0  0  0  0  0  0
   -2.2354   -1.5454    1.0778 H   0  0  0  0  0  0  0  0  0  0  0  0
   -1.6716   -0.0691   -1.5585 H   0  0  0  0  0  0  0  0  0  0  0  0
   -3.2610   -0.3857   -0.8676 H   0  0  0  0  0  0  0  0  0  0  0  0
   -2.2551   -1.7278   -1.4395 H   0  0  0  0  0  0  0  0  0  0  0  0
  1  2  1  0
  1  4  1  0
  1  5  1  0
  1  6  1  0
  2  3  1  0
  2  7  1  0
  2  8  1  0
  3 14  1  0
  9 10  1  0
  9 15  1  0
  9 16  1  0
 10 11  1  0
 10 17  1  0
 10 18  1  0
 11 12  1  0
 12 13  1  0
 12 19  1  0
 12 20  1  0
 13 21  1  0
 13 22  1  0
 13 23  1  0
M  RAD  1   9   2
M  END
>  <reaction>  (4) 
rmg_rxn_382

>  <mol_properties>  (4) 
{"1": {"label": "*0", "atom_type": "Cs"}, "2": {"label": "*1", "atom_type": "O2s"}, "8": {"label": "*3", "atom_type": "Cs"}, "9": {"label": "*4", "atom_type": "Cs"}, "13": {"label": "*2", "atom_type": "H0"}}

>  <type>  (4) 
ts

$$$$
