
     RDKit          3D

  8  7  0  0  0  0  0  0  0  0999 V2000
    1.2099   -0.1388    0.0025 C   0  0  0  0  0  0  0  0  0  0  0  0
   -0.1788    0.4141    0.0007 C   0  0  0  0  0  0  0  0  0  0  0  0
   -1.2100   -0.3603    0.0013 N   0  0  0  0  0  0  0  0  0  0  0  0
    1.7355    0.2223   -0.8851 H   0  0  0  0  0  0  0  0  0  0  0  0
    1.7521    0.1663    0.9007 H   0  0  0  0  0  0  0  0  0  0  0  0
    1.1564   -1.2296   -0.0424 H   0  0  0  0  0  0  0  0  0  0  0  0
   -0.2911    1.5112   -0.0010 H   0  0  0  0  0  0  0  0  0  0  0  0
   -2.0699    0.2005   -0.0002 H   0  0  0  0  0  0  0  0  0  0  0  0
  1  2  1  0
  1  4  1  0
  1  5  1  0
  1  6  1  0
  2  3  2  3
  2  7  1  0
  3  8  1  0
M  END
>  <reaction>  (1) 
rmg_rxn_16773

>  <mol_properties>  (1) 
{"2": {"label": "donator", "atom_type": "N3d"}, "7": {"label": "d_hydrogen", "atom_type": "H0"}}

>  <type>  (1) 
r1h

$$$$

     RDKit          3D

  9  8  0  0  0  0  0  0  0  0999 V2000
   -1.1985   -0.3171   -0.0433 C   0  0  0  0  0  3  0  0  0  0  0  0
   -0.0279    0.5813    0.0746 C   0  0  0  0  0  0  0  0  0  0  0  0
    1.1983   -0.1803   -0.0447 N   0  0  0  0  0  0  0  0  0  0  0  0
   -1.2197   -1.2811    0.4508 H   0  0  0  0  0  0  0  0  0  0  0  0
   -2.1352    0.0829   -0.4154 H   0  0  0  0  0  0  0  0  0  0  0  0
   -0.0525    1.0996    1.0379 H   0  0  0  0  0  0  0  0  0  0  0  0
   -0.0624    1.3408   -0.7126 H   0  0  0  0  0  0  0  0  0  0  0  0
    1.2423   -0.8800    0.6930 H   0  0  0  0  0  0  0  0  0  0  0  0
    1.1979   -0.6858   -0.9288 H   0  0  0  0  0  0  0  0  0  0  0  0
  1  2  1  0
  1  4  1  0
  1  5  1  0
  2  3  1  0
  2  6  1  0
  2  7  1  0
  3  8  1  0
  3  9  1  0
M  RAD  1   1   2
M  END
>  <reaction>  (2) 
rmg_rxn_16773

>  <mol_properties>  (2) 
{"0": {"label": "acceptor", "atom_type": "Cs"}}

>  <type>  (2) 
r2

$$$$

     RDKit          3D

 10  9  0  0  0  0  0  0  0  0999 V2000
   -1.1931   -0.2772    0.0000 C   0  0  0  0  0  0  0  0  0  0  0  0
    0.0433    0.6056    0.0000 C   0  0  0  0  0  0  0  0  0  0  0  0
    1.2617   -0.1946    0.0000 N   0  0  0  0  0  0  0  0  0  0  0  0
   -1.2226   -0.9183    0.8874 H   0  0  0  0  0  0  0  0  0  0  0  0
   -1.2226   -0.9183   -0.8874 H   0  0  0  0  0  0  0  0  0  0  0  0
   -2.0972    0.3401   -0.0000 H   0  0  0  0  0  0  0  0  0  0  0  0
    0.0379    1.2535    0.8825 H   0  0  0  0  0  0  0  0  0  0  0  0
    0.0379    1.2535   -0.8825 H   0  0  0  0  0  0  0  0  0  0  0  0
    1.2666   -0.8092   -0.8134 H   0  0  0  0  0  0  0  0  0  0  0  0
    1.2666   -0.8092    0.8134 H   0  0  0  0  0  0  0  0  0  0  0  0
  1  2  1  0
  1  4  1  0
  1  5  1  0
  1  6  1  0
  2  3  1  0
  2  7  1  0
  2  8  1  0
  3  9  1  0
  3 10  1  0
M  END
>  <reaction>  (3) 
rmg_rxn_16773

>  <mol_properties>  (3) 
{"0": {"label": "a_hydrogen", "atom_type": "H0"}, "1": {"label": "acceptor", "atom_type": "Cs"}}

>  <type>  (3) 
r2h

$$$$

     RDKit          3D

 17 15  0  0  0  0  0  0  0  0999 V2000
   -3.5318   -0.1415    0.1090 C   0  0  0  0  0  0  0  0  0  0  0  0
   -2.0934    0.2624    0.1517 C   0  0  0  0  0  0  0  0  0  0  0  0
   -1.1954   -0.3798   -0.5150 N   0  0  0  0  0  0  0  0  0  0  0  0
   -3.8632   -0.3775    1.1234 H   0  0  0  0  0  0  0  0  0  0  0  0
   -4.1514    0.6584   -0.3037 H   0  0  0  0  0  0  0  0  0  0  0  0
   -3.6293   -1.0381   -0.5083 H   0  0  0  0  0  0  0  0  0  0  0  0
   -1.8257    1.1318    0.7753 H   0  0  0  0  0  0  0  0  0  0  0  0
   -0.0888    0.1287   -0.3287 H   0  0  0  0  0  0  0  0  0  0  0  0
    1.0911    0.6710   -0.1302 C   0  0  0  0  0  3  0  0  0  0  0  0
    2.0381   -0.3464    0.4831 C   0  0  0  0  0  0  0  0  0  0  0  0
    3.3782   -0.2230   -0.0770 N   0  0  0  0  0  0  0  0  0  0  0  0
    1.0072    0.5321   -1.2133 H   0  0  0  0  0  0  0  0  0  0  0  0
    1.4320    1.6945    0.0589 H   0  0  0  0  0  0  0  0  0  0  0  0
    1.6639   -1.3593    0.3023 H   0  0  0  0  0  0  0  0  0  0  0  0
    2.0863   -0.2035    1.5675 H   0  0  0  0  0  0  0  0  0  0  0  0
    3.3379   -0.3431   -1.0886 H   0  0  0  0  0  0  0  0  0  0  0  0
    3.7272    0.7223    0.0776 H   0  0  0  0  0  0  0  0  0  0  0  0
  1  2  1  0
  1  4  1  0
  1  5  1  0
  1  6  1  0
  2  3  2  3
  2  7  1  0
  3  8  1  0
  9 10  1  0
  9 12  1  0
  9 13  1  0
 10 11  1  0
 10 14  1  0
 10 15  1  0
 11 16  1  0
 11 17  1  0
M  RAD  1   9   2
M  END
>  <reaction>  (4) 
rmg_rxn_16773

>  <mol_properties>  (4) 
{"1": {"label": "*0", "atom_type": "Cd"}, "2": {"label": "*1", "atom_type": "N3d"}, "7": {"label": "*2", "atom_type": "H0"}, "8": {"label": "*3", "atom_type": "Cs"}, "9": {"label": "*4", "atom_type": "Cs"}}

>  <type>  (4) 
ts

$$$$
