
     RDKit          3D

  9  8  0  0  0  0  0  0  0  0999 V2000
   -1.5470   -0.0755   -0.1976 C   0  0  0  0  0  0  0  0  0  0  0  0
   -0.2885    0.4507    0.1749 O   0  0  0  0  0  0  0  0  0  0  0  0
   -0.1502    1.7216   -0.3294 N   0  0  0  0  0  0  0  0  0  0  0  0
    0.9626    2.2353   -0.0219 C   0  0  0  0  0  0  0  0  0  0  0  0
   -1.6392   -0.1356   -1.2844 H   0  0  0  0  0  0  0  0  0  0  0  0
   -2.3597    0.5337    0.2044 H   0  0  0  0  0  0  0  0  0  0  0  0
   -1.5879   -1.0750    0.2318 H   0  0  0  0  0  0  0  0  0  0  0  0
    1.1497    3.2381   -0.3820 H   0  0  0  0  0  0  0  0  0  0  0  0
    1.7060    1.7101    0.5739 H   0  0  0  0  0  0  0  0  0  0  0  0
  1  2  1  0
  1  5  1  0
  1  6  1  0
  1  7  1  0
  2  3  1  0
  3  4  2  3
  4  8  1  0
  4  9  1  0
M  END
>  <reaction>  (1) 
rmg_rxn_15660

>  <mol_properties>  (1) 
{"0": {"label": "donator", "atom_type": "Cs"}, "4": {"label": "d_hydrogen", "atom_type": "H0"}}

>  <type>  (1) 
r1h

$$$$

     RDKit          3D

  8  7  0  0  0  0  0  0  0  0999 V2000
   -0.9782    0.4241    0.0826 C   0  0  0  0  0  3  0  0  0  0  0  0
    0.0504   -0.5484   -0.3049 C   0  0  0  0  0  0  0  0  0  0  0  0
    1.5829   -0.3827    0.7251 S   0  0  0  0  0  0  0  0  0  0  0  0
   -1.0358    1.3853   -0.4103 H   0  0  0  0  0  0  0  0  0  0  0  0
   -1.5488    0.2794    0.9896 H   0  0  0  0  0  0  0  0  0  0  0  0
    0.3373   -0.4650   -1.3511 H   0  0  0  0  0  0  0  0  0  0  0  0
   -0.2617   -1.5762   -0.1147 H   0  0  0  0  0  0  0  0  0  0  0  0
    1.8538    0.8835    0.3837 H   0  0  0  0  0  0  0  0  0  0  0  0
  1  2  1  0
  1  4  1  0
  1  5  1  0
  2  3  1  0
  2  6  1  0
  2  7  1  0
  3  8  1  0
M  RAD  1   1   2
M  END
>  <reaction>  (2) 
rmg_rxn_15660

>  <mol_properties>  (2) 
{"0": {"label": "acceptor", "atom_type": "Cs"}}

>  <type>  (2) 
r2

$$$$

     RDKit          3D

  9  8  0  0  0  0  0  0  0  0999 V2000
   -0.8818   -0.3578    0.1297 C   0  0  0  0  0  0  0  0  0  0  0  0
    0.6153   -0.3021   -0.1188 C   0  0  0  0  0  0  0  0  0  0  0  0
    1.5354   -1.7170    0.5545 S   0  0  0  0  0  0  0  0  0  0  0  0
   -1.1018   -0.3317    1.1984 H   0  0  0  0  0  0  0  0  0  0  0  0
   -1.3114   -1.2723   -0.2799 H   0  0  0  0  0  0  0  0  0  0  0  0
   -1.3767    0.4976   -0.3363 H   0  0  0  0  0  0  0  0  0  0  0  0
    1.0467    0.6194    0.2718 H   0  0  0  0  0  0  0  0  0  0  0  0
    0.8295   -0.3275   -1.1882 H   0  0  0  0  0  0  0  0  0  0  0  0
    1.2306   -1.5077    1.8423 H   0  0  0  0  0  0  0  0  0  0  0  0
  1  2  1  0
  1  4  1  0
  1  5  1  0
  1  6  1  0
  2  3  1  0
  2  7  1  0
  2  8  1  0
  3  9  1  0
M  END
>  <reaction>  (3) 
rmg_rxn_15660

>  <mol_properties>  (3) 
{"0": {"label": "acceptor", "atom_type": "Cs"}, "8": {"label": "a_hydrogen", "atom_type": "H0"}}

>  <type>  (3) 
r2h

$$$$

     RDKit          3D

 17 15  0  0  0  0  0  0  0  0999 V2000
    1.3618    1.5860   -0.4616 C   0  0  0  0  0  3  0  0  0  0  0  0
    1.7297    0.1755   -0.8242 C   0  0  0  0  0  0  0  0  0  0  0  0
    1.9644   -0.9333    0.5993 S   0  0  0  0  0  0  0  0  0  0  0  0
    2.0316    2.0579    0.2545 H   0  0  0  0  0  0  0  0  0  0  0  0
    1.1499    2.2236   -1.3199 H   0  0  0  0  0  0  0  0  0  0  0  0
    2.6875    0.1481   -1.3525 H   0  0  0  0  0  0  0  0  0  0  0  0
    0.9892   -0.2660   -1.4915 H   0  0  0  0  0  0  0  0  0  0  0  0
    0.6649   -1.0265    0.9183 H   0  0  0  0  0  0  0  0  0  0  0  0
   -1.0318    1.5041    0.7855 C   0  0  0  0  0  0  0  0  0  0  0  0
   -1.8986    0.7605   -0.0099 O   0  0  0  0  0  0  0  0  0  0  0  0
   -1.6002   -0.5802    0.0706 N   0  0  0  0  0  0  0  0  0  0  0  0
   -2.3413   -1.2790   -0.6769 C   0  0  0  0  0  0  0  0  0  0  0  0
    0.1592    1.5612    0.2010 H   0  0  0  0  0  0  0  0  0  0  0  0
   -0.8647    1.0598    1.7665 H   0  0  0  0  0  0  0  0  0  0  0  0
   -1.4037    2.5247    0.8192 H   0  0  0  0  0  0  0  0  0  0  0  0
   -2.1693   -2.3469   -0.6650 H   0  0  0  0  0  0  0  0  0  0  0  0
   -3.1166   -0.8447   -1.3036 H   0  0  0  0  0  0  0  0  0  0  0  0
  1  2  1  0
  1  4  1  0
  1  5  1  0
  2  3  1  0
  2  6  1  0
  2  7  1  0
  3  8  1  0
  9 10  1  0
  9 13  1  0
  9 14  1  0
  9 15  1  0
 10 11  1  0
 11 12  2  3
 12 16  1  0
 12 17  1  0
M  RAD  1   1   2
M  END
>  <reaction>  (4) 
rmg_rxn_15660

>  <mol_properties>  (4) 
{"0": {"label": "*3", "atom_type": "Cs"}, "1": {"label": "*4", "atom_type": "Cs"}, "8": {"label": "*1", "atom_type": "Cs"}, "9": {"label": "*0", "atom_type": "O2s"}, "12": {"label": "*2", "atom_type": "H0"}}

>  <type>  (4) 
ts

$$$$
