
     RDKit          3D

 17 16  0  0  0  0  0  0  0  0999 V2000
    3.1099   -1.8290   -0.4133 C   0  0  0  0  0  0  0  0  0  0  0  0
    3.2191   -0.3608   -0.6746 C   0  0  0  0  0  0  0  0  0  0  0  0
    2.3786    0.5666   -0.2369 C   0  0  0  0  0  0  0  0  0  0  0  0
    1.2672    0.2611    0.4868 O   0  0  0  0  0  0  0  0  0  0  0  0
    0.8726    1.3903    1.3069 N   0  0  0  0  0  0  0  0  0  0  0  0
    1.4437    1.2702    2.5675 N   0  0  0  0  0  0  0  0  0  0  0  0
   -0.5688    1.2617    1.4132 C   0  0  0  0  0  0  0  0  0  0  0  0
    2.8525   -2.3739   -1.3257 H   0  0  0  0  0  0  0  0  0  0  0  0
    2.3430   -2.0431    0.3302 H   0  0  0  0  0  0  0  0  0  0  0  0
    4.0609   -2.2324   -0.0579 H   0  0  0  0  0  0  0  0  0  0  0  0
    4.0336   -0.0133   -1.2988 H   0  0  0  0  0  0  0  0  0  0  0  0
    2.4961    1.6238   -0.4474 H   0  0  0  0  0  0  0  0  0  0  0  0
    1.3456    0.3206    2.9243 H   0  0  0  0  0  0  0  0  0  0  0  0
    2.4253    1.5018    2.5027 H   0  0  0  0  0  0  0  0  0  0  0  0
   -0.8613    0.3089    1.8737 H   0  0  0  0  0  0  0  0  0  0  0  0
   -0.9985    1.3247    0.4163 H   0  0  0  0  0  0  0  0  0  0  0  0
   -0.9281    2.0857    2.0250 H   0  0  0  0  0  0  0  0  0  0  0  0
  1  2  1  0
  1  8  1  0
  1  9  1  0
  1 10  1  0
  2  3  2  3
  2 11  1  0
  3  4  1  0
  3 12  1  0
  4  5  1  0
  5  7  1  0
  5  6  1  0
  6 13  1  0
  6 14  1  0
  7 15  1  0
  7 16  1  0
  7 17  1  0
M  END
>  <reaction>  (1) 
rmg_rxn_15517

>  <mol_properties>  (1) 
{"5": {"label": "donator", "atom_type": "N3s"}, "12": {"label": "d_hydrogen", "atom_type": "H0"}}

>  <type>  (1) 
r1h

$$$$

     RDKit          3D

  5  4  0  0  0  0  0  0  0  0999 V2000
    0.8934    0.3742    0.4948 O   0  0  0  0  0  0  0  0  0  0  0  0
    0.1582   -0.1610   -0.5904 N   0  0  0  0  0  0  0  0  0  0  0  0
   -1.0297   -0.3739   -0.4689 C   0  0  0  0  0  3  0  0  0  0  0  0
    1.7804    0.4382    0.1306 H   0  0  0  0  0  0  0  0  0  0  0  0
   -1.8023   -0.2775    0.2859 H   0  0  0  0  0  0  0  0  0  0  0  0
  1  2  1  0
  1  4  1  0
  2  3  2  3
  3  5  1  0
M  RAD  1   3   2
M  END
>  <reaction>  (2) 
rmg_rxn_15517

>  <mol_properties>  (2) 
{"2": {"label": "acceptor", "atom_type": "Cd"}}

>  <type>  (2) 
r2

$$$$

     RDKit          3D

  6  5  0  0  0  0  0  0  0  0999 V2000
    1.2314    0.0428    0.5088 O   0  0  0  0  0  0  0  0  0  0  0  0
    0.2987    0.2341   -0.4915 N   0  0  0  0  0  0  0  0  0  0  0  0
   -0.8599   -0.1122   -0.1290 C   0  0  0  0  0  0  0  0  0  0  0  0
    2.0507    0.3401    0.1082 H   0  0  0  0  0  0  0  0  0  0  0  0
   -1.0700   -0.5112    0.8610 H   0  0  0  0  0  0  0  0  0  0  0  0
   -1.6509    0.0064   -0.8574 H   0  0  0  0  0  0  0  0  0  0  0  0
  1  2  1  0
  1  4  1  0
  2  3  2  3
  3  5  1  0
  3  6  1  0
M  END
>  <reaction>  (3) 
rmg_rxn_15517

>  <mol_properties>  (3) 
{"2": {"label": "acceptor", "atom_type": "Cd"}, "5": {"label": "a_hydrogen", "atom_type": "H0"}}

>  <type>  (3) 
r2h

$$$$

     RDKit          3D

 22 20  0  0  0  0  0  0  0  0999 V2000
   -1.9606    0.4065   -2.8885 O   0  0  0  0  0  0  0  0  0  0  0  0
   -1.7273    0.4145   -1.5053 N   0  0  0  0  0  0  0  0  0  0  0  0
   -0.9265    1.2746   -1.1142 C   0  0  0  0  0  3  0  0  0  0  0  0
   -2.5927   -0.3088   -2.9915 H   0  0  0  0  0  0  0  0  0  0  0  0
   -0.3739    2.0097   -1.6994 H   0  0  0  0  0  0  0  0  0  0  0  0
    0.7406   -2.3583   -1.1856 C   0  0  0  0  0  0  0  0  0  0  0  0
    0.8245   -2.5274    0.2965 C   0  0  0  0  0  0  0  0  0  0  0  0
    1.0550   -1.5625    1.1747 C   0  0  0  0  0  0  0  0  0  0  0  0
    1.3038   -0.2761    0.7894 O   0  0  0  0  0  0  0  0  0  0  0  0
    0.7201    0.6492    1.7342 N   0  0  0  0  0  0  0  0  0  0  0  0
   -0.5936    0.8876    1.4699 N   0  0  0  0  0  0  0  0  0  0  0  0
    1.5101    1.8577    1.6203 C   0  0  0  0  0  0  0  0  0  0  0  0
    1.6000   -2.8183   -1.6809 H   0  0  0  0  0  0  0  0  0  0  0  0
    0.7088   -1.3064   -1.4637 H   0  0  0  0  0  0  0  0  0  0  0  0
   -0.1550   -2.8453   -1.5771 H   0  0  0  0  0  0  0  0  0  0  0  0
    0.7198   -3.5272    0.7017 H   0  0  0  0  0  0  0  0  0  0  0  0
    1.0975   -1.7266    2.2461 H   0  0  0  0  0  0  0  0  0  0  0  0
   -0.7364    1.2219    0.3891 H   0  0  0  0  0  0  0  0  0  0  0  0
   -1.0925    0.0023    1.5211 H   0  0  0  0  0  0  0  0  0  0  0  0
    1.4584    2.2724    0.6060 H   0  0  0  0  0  0  0  0  0  0  0  0
    2.5435    1.6238    1.8625 H   0  0  0  0  0  0  0  0  0  0  0  0
    1.1137    2.5792    2.3302 H   0  0  0  0  0  0  0  0  0  0  0  0
  1  2  1  0
  1  4  1  0
  2  3  2  3
  3  5  1  0
  6  7  1  0
  6 13  1  0
  6 14  1  0
  6 15  1  0
  7  8  2  3
  7 16  1  0
  8  9  1  0
  8 17  1  0
  9 10  1  0
 10 12  1  0
 10 11  1  0
 11 18  1  0
 11 19  1  0
 12 20  1  0
 12 21  1  0
 12 22  1  0
M  RAD  1   3   2
M  END
>  <reaction>  (4) 
rmg_rxn_15517

>  <mol_properties>  (4) 
{"1": {"label": "*4", "atom_type": "N3d"}, "2": {"label": "*3", "atom_type": "Cd"}, "9": {"label": "*0", "atom_type": "N3s"}, "10": {"label": "*1", "atom_type": "N3s"}, "17": {"label": "*2", "atom_type": "H0"}}

>  <type>  (4) 
ts

$$$$
