
     RDKit          3D

 10  9  0  0  0  0  0  0  0  0999 V2000
    0.3026    0.7569   -1.8958 C   0  0  0  0  0  0  0  0  0  0  0  0
    0.0881    0.2203   -0.5517 C   0  0  0  0  0  0  0  0  0  0  0  0
   -0.0881   -0.2203    0.5517 C   0  0  0  0  0  0  0  0  0  0  0  0
   -0.3026   -0.7569    1.8958 C   0  0  0  0  0  0  0  0  0  0  0  0
    0.1056    1.8328   -1.9212 H   0  0  0  0  0  0  0  0  0  0  0  0
   -0.3614    0.2730   -2.6184 H   0  0  0  0  0  0  0  0  0  0  0  0
    1.3347    0.5928   -2.2200 H   0  0  0  0  0  0  0  0  0  0  0  0
   -1.2076   -1.3708    1.9297 H   0  0  0  0  0  0  0  0  0  0  0  0
   -0.4134    0.0519    2.6244 H   0  0  0  0  0  0  0  0  0  0  0  0
    0.5421   -1.3796    2.2055 H   0  0  0  0  0  0  0  0  0  0  0  0
  1  2  1  0
  1  5  1  0
  1  6  1  0
  1  7  1  0
  2  3  3  0
  3  4  1  0
  4  8  1  0
  4  9  1  0
  4 10  1  0
M  END
>  <reaction>  (1) 
rmg_rxn_1130

>  <mol_properties>  (1) 
{"3": {"label": "donator", "atom_type": "Cs"}, "9": {"label": "d_hydrogen", "atom_type": "H0"}}

>  <type>  (1) 
r1h

$$$$

     RDKit          3D

  1  0  0  0  0  0  0  0  0  0999 V2000
    0.0000    0.0000    0.0000 O   0  0  0  0  0 15  0  0  0  0  0  0
M  END
>  <reaction>  (2) 
rmg_rxn_1130

>  <mol_properties>  (2) 
{"0": {"label": "acceptor", "atom_type": "O2s"}}

>  <type>  (2) 
r2

$$$$

     RDKit          3D

  2  1  0  0  0  0  0  0  0  0999 V2000
    0.0000    0.0000    0.1079 O   0  0  0  0  0  1  0  0  0  0  0  0
    0.0000    0.0000   -0.8631 H   0  0  0  0  0  0  0  0  0  0  0  0
  1  2  1  0
M  RAD  1   1   2
M  END
>  <reaction>  (3) 
rmg_rxn_1130

>  <mol_properties>  (3) 
{"0": {"label": "acceptor", "atom_type": "O2s"}, "1": {"label": "a_hydrogen", "atom_type": "H0"}}

>  <type>  (3) 
r2h

$$$$

     RDKit          3D

 11  9  0  0  0  0  0  0  0  0999 V2000
   -2.8345   -0.9549    0.0000 O   0  0  0  0  0 15  0  0  0  0  0  0
    2.6978   -0.4364    0.0003 C   0  0  0  0  0  0  0  0  0  0  0  0
    1.3284    0.0642    0.0014 C   0  0  0  0  0  0  0  0  0  0  0  0
    0.1920    0.4920    0.0004 C   0  0  0  0  0  0  0  0  0  0  0  0
   -1.1643    0.9483   -0.0003 C   0  0  0  0  0  0  0  0  0  0  0  0
    3.3652    0.2540   -0.5370 H   0  0  0  0  0  0  0  0  0  0  0  0
    2.7535   -1.4159   -0.4981 H   0  0  0  0  0  0  0  0  0  0  0  0
    3.0778   -0.5533    1.0258 H   0  0  0  0  0  0  0  0  0  0  0  0
   -1.4644    1.4866   -0.9097 H   0  0  0  0  0  0  0  0  0  0  0  0
   -1.4631    1.4913    0.9067 H   0  0  0  0  0  0  0  0  0  0  0  0
   -1.9164   -0.0321    0.0014 H   0  0  0  0  0  0  0  0  0  0  0  0
  2  3  1  0
  2  6  1  0
  2  7  1  0
  2  8  1  0
  3  4  3  0
  4  5  1  0
  5  9  1  0
  5 10  1  0
  5 11  1  0
M  END
>  <reaction>  (4) 
rmg_rxn_1130

>  <mol_properties>  (4) 
{"0": {"label": "*3", "atom_type": "O2s"}, "3": {"label": "*0", "atom_type": "Ct"}, "4": {"label": "*1", "atom_type": "Cs"}, "10": {"label": "*2", "atom_type": "H0"}}

>  <type>  (4) 
ts

$$$$
