
     RDKit          3D

  8  7  0  0  0  0  0  0  0  0999 V2000
    0.9548    0.1194   -0.0790 C   0  0  0  0  0  0  0  0  0  0  0  0
   -0.4838   -0.2649    0.0193 C   0  0  0  0  0  0  0  0  0  0  0  0
   -0.8933   -1.1081    0.8664 N   0  0  0  0  0  0  0  0  0  0  0  0
    1.3360   -0.0983   -1.0800 H   0  0  0  0  0  0  0  0  0  0  0  0
    1.0698    1.1948    0.0786 H   0  0  0  0  0  0  0  0  0  0  0  0
    1.5426   -0.4219    0.6602 H   0  0  0  0  0  0  0  0  0  0  0  0
   -1.1575    0.2324   -0.6905 H   0  0  0  0  0  0  0  0  0  0  0  0
   -1.8989   -1.2455    0.7886 H   0  0  0  0  0  0  0  0  0  0  0  0
  1  2  1  0
  1  4  1  0
  1  5  1  0
  1  6  1  0
  2  3  2  3
  2  7  1  0
  3  8  1  0
M  END
>  <reaction>  (1) 
rmg_rxn_16547

>  <mol_properties>  (1) 
{"1": {"label": "donator", "atom_type": "Cd"}, "6": {"label": "d_hydrogen", "atom_type": "H0"}}

>  <type>  (1) 
r1h

$$$$

     RDKit          3D

 17 16  0  0  0  0  0  0  0  0999 V2000
    2.3128   -0.1525    1.1776 C   0  0  0  0  0  3  0  0  0  0  0  0
    1.7469    0.7266    0.1254 C   0  0  0  0  0  0  0  0  0  0  0  0
    1.6374    2.1830    0.5408 C   0  0  0  0  0  0  0  0  0  0  0  0
    2.9244    2.6874    0.7877 O   0  0  0  0  0  0  0  0  0  0  0  0
    2.9227    4.0197    1.2361 C   0  0  0  0  0  0  0  0  0  0  0  0
    4.3491    4.4603    1.4693 C   0  0  0  0  0  0  0  0  0  0  0  0
    2.1394   -1.2196    1.1556 H   0  0  0  0  0  0  0  0  0  0  0  0
    3.0314    0.2400    1.8837 H   0  0  0  0  0  0  0  0  0  0  0  0
    0.7555    0.3746   -0.1763 H   0  0  0  0  0  0  0  0  0  0  0  0
    2.3677    0.6841   -0.7826 H   0  0  0  0  0  0  0  0  0  0  0  0
    1.0170    2.2718    1.4450 H   0  0  0  0  0  0  0  0  0  0  0  0
    1.1498    2.7653   -0.2545 H   0  0  0  0  0  0  0  0  0  0  0  0
    2.4378    4.6655    0.4892 H   0  0  0  0  0  0  0  0  0  0  0  0
    2.3377    4.1014    2.1639 H   0  0  0  0  0  0  0  0  0  0  0  0
    4.9260    4.3921    0.5464 H   0  0  0  0  0  0  0  0  0  0  0  0
    4.3728    5.4939    1.8180 H   0  0  0  0  0  0  0  0  0  0  0  0
    4.8260    3.8299    2.2206 H   0  0  0  0  0  0  0  0  0  0  0  0
  1  2  1  0
  1  7  1  0
  1  8  1  0
  2  3  1  0
  2  9  1  0
  2 10  1  0
  3  4  1  0
  3 11  1  0
  3 12  1  0
  4  5  1  0
  5  6  1  0
  5 13  1  0
  5 14  1  0
  6 15  1  0
  6 16  1  0
  6 17  1  0
M  RAD  1   1   2
M  END
>  <reaction>  (2) 
rmg_rxn_16547

>  <mol_properties>  (2) 
{"0": {"label": "acceptor", "atom_type": "Cs"}}

>  <type>  (2) 
r2

$$$$

     RDKit          3D

 18 17  0  0  0  0  0  0  0  0999 V2000
    2.2026   -0.7213   -0.2612 C   0  0  0  0  0  0  0  0  0  0  0  0
    1.5384    0.2638    0.6915 C   0  0  0  0  0  0  0  0  0  0  0  0
    2.2584    1.5946    0.7694 C   0  0  0  0  0  0  0  0  0  0  0  0
    2.2212    2.2185   -0.4893 O   0  0  0  0  0  0  0  0  0  0  0  0
    2.8988    3.4488   -0.5204 C   0  0  0  0  0  0  0  0  0  0  0  0
    2.7981    4.0296   -1.9118 C   0  0  0  0  0  0  0  0  0  0  0  0
    3.2294   -0.9309    0.0486 H   0  0  0  0  0  0  0  0  0  0  0  0
    2.2338   -0.3181   -1.2734 H   0  0  0  0  0  0  0  0  0  0  0  0
    1.6610   -1.6680   -0.2875 H   0  0  0  0  0  0  0  0  0  0  0  0
    1.4990   -0.1566    1.7002 H   0  0  0  0  0  0  0  0  0  0  0  0
    0.5055    0.4455    0.3835 H   0  0  0  0  0  0  0  0  0  0  0  0
    3.3038    1.4410    1.0808 H   0  0  0  0  0  0  0  0  0  0  0  0
    1.7844    2.2410    1.5226 H   0  0  0  0  0  0  0  0  0  0  0  0
    2.4596    4.1376    0.2164 H   0  0  0  0  0  0  0  0  0  0  0  0
    3.9524    3.3035   -0.2397 H   0  0  0  0  0  0  0  0  0  0  0  0
    1.7543    4.1869   -2.1856 H   0  0  0  0  0  0  0  0  0  0  0  0
    3.2472    3.3545   -2.6411 H   0  0  0  0  0  0  0  0  0  0  0  0
    3.3178    4.9878   -1.9600 H   0  0  0  0  0  0  0  0  0  0  0  0
  1  2  1  0
  1  7  1  0
  1  8  1  0
  1  9  1  0
  2  3  1  0
  2 10  1  0
  2 11  1  0
  3  4  1  0
  3 12  1  0
  3 13  1  0
  4  5  1  0
  5  6  1  0
  5 14  1  0
  5 15  1  0
  6 16  1  0
  6 17  1  0
  6 18  1  0
M  END
>  <reaction>  (3) 
rmg_rxn_16547

>  <mol_properties>  (3) 
{"0": {"label": "a_hydrogen", "atom_type": "H0"}, "1": {"label": "acceptor", "atom_type": "Cs"}}

>  <type>  (3) 
r2h

$$$$

     RDKit          3D

 25 23  0  0  0  0  0  0  0  0999 V2000
   -3.0616   -0.7988    0.7162 C   0  0  0  0  0  0  0  0  0  0  0  0
   -1.8313   -0.5871   -0.0980 C   0  0  0  0  0  0  0  0  0  0  0  0
   -1.2894   -1.4374   -0.8342 N   0  0  0  0  0  0  0  0  0  0  0  0
   -3.8323   -0.0860    0.4144 H   0  0  0  0  0  0  0  0  0  0  0  0
   -3.4368   -1.8157    0.5953 H   0  0  0  0  0  0  0  0  0  0  0  0
   -2.8467   -0.6104    1.7705 H   0  0  0  0  0  0  0  0  0  0  0  0
   -1.3628    0.6358   -0.0421 H   0  0  0  0  0  0  0  0  0  0  0  0
   -0.4507   -1.0625   -1.2808 H   0  0  0  0  0  0  0  0  0  0  0  0
   -0.9668    1.9844   -0.0983 C   0  0  0  0  0  3  0  0  0  0  0  0
    0.4453    2.1320    0.4001 C   0  0  0  0  0  0  0  0  0  0  0  0
    1.4956    1.4822   -0.4933 C   0  0  0  0  0  0  0  0  0  0  0  0
    1.4001    0.0804   -0.6040 O   0  0  0  0  0  0  0  0  0  0  0  0
    1.7227   -0.6225    0.5778 C   0  0  0  0  0  0  0  0  0  0  0  0
    1.9621   -2.0762    0.2408 C   0  0  0  0  0  0  0  0  0  0  0  0
   -1.7209    2.4648    0.5228 H   0  0  0  0  0  0  0  0  0  0  0  0
   -1.1037    2.2170   -1.1541 H   0  0  0  0  0  0  0  0  0  0  0  0
    0.5327    1.7482    1.4210 H   0  0  0  0  0  0  0  0  0  0  0  0
    0.7054    3.1971    0.4661 H   0  0  0  0  0  0  0  0  0  0  0  0
    2.4980    1.7509   -0.1317 H   0  0  0  0  0  0  0  0  0  0  0  0
    1.3957    1.8639   -1.5119 H   0  0  0  0  0  0  0  0  0  0  0  0
    2.6217   -0.1808    1.0301 H   0  0  0  0  0  0  0  0  0  0  0  0
    0.9084   -0.5359    1.3085 H   0  0  0  0  0  0  0  0  0  0  0  0
    2.7634   -2.1714   -0.4928 H   0  0  0  0  0  0  0  0  0  0  0  0
    2.2475   -2.6234    1.1409 H   0  0  0  0  0  0  0  0  0  0  0  0
    1.0592   -2.5348   -0.1632 H   0  0  0  0  0  0  0  0  0  0  0  0
  1  2  1  0
  1  4  1  0
  1  5  1  0
  1  6  1  0
  2  3  2  3
  2  7  1  0
  3  8  1  0
  9 10  1  0
  9 15  1  0
  9 16  1  0
 10 11  1  0
 10 17  1  0
 10 18  1  0
 11 12  1  0
 11 19  1  0
 11 20  1  0
 12 13  1  0
 13 14  1  0
 13 21  1  0
 13 22  1  0
 14 23  1  0
 14 24  1  0
 14 25  1  0
M  RAD  1   9   2
M  END
>  <reaction>  (4) 
rmg_rxn_16547

>  <mol_properties>  (4) 
{"1": {"label": "*1", "atom_type": "Cd"}, "2": {"label": "*0", "atom_type": "N3d"}, "6": {"label": "*2", "atom_type": "H0"}, "8": {"label": "*3", "atom_type": "Cs"}, "9": {"label": "*4", "atom_type": "Cs"}}

>  <type>  (4) 
ts

$$$$
