
     RDKit          3D

  8  7  0  0  0  0  0  0  0  0999 V2000
    0.9548    0.1194   -0.0790 C   0  0  0  0  0  0  0  0  0  0  0  0
   -0.4838   -0.2649    0.0193 C   0  0  0  0  0  0  0  0  0  0  0  0
   -0.8933   -1.1081    0.8664 N   0  0  0  0  0  0  0  0  0  0  0  0
    1.3360   -0.0983   -1.0800 H   0  0  0  0  0  0  0  0  0  0  0  0
    1.0698    1.1948    0.0786 H   0  0  0  0  0  0  0  0  0  0  0  0
    1.5426   -0.4219    0.6602 H   0  0  0  0  0  0  0  0  0  0  0  0
   -1.1575    0.2324   -0.6905 H   0  0  0  0  0  0  0  0  0  0  0  0
   -1.8989   -1.2455    0.7886 H   0  0  0  0  0  0  0  0  0  0  0  0
  1  2  1  0
  1  4  1  0
  1  5  1  0
  1  6  1  0
  2  3  2  3
  2  7  1  0
  3  8  1  0
M  END
>  <reaction>  (1) 
rmg_rxn_16647

>  <mol_properties>  (1) 
{"2": {"label": "donator", "atom_type": "N3d"}, "7": {"label": "d_hydrogen", "atom_type": "H0"}}

>  <type>  (1) 
r1h

$$$$

     RDKit          3D

 13 12  0  0  0  0  0  0  0  0999 V2000
   -1.5401    1.0768   -0.0810 C   0  0  0  0  0  3  0  0  0  0  0  0
   -0.9872   -0.2180    0.3862 C   0  0  0  0  0  0  0  0  0  0  0  0
    0.4181   -0.1223    0.9560 C   0  0  0  0  0  0  0  0  0  0  0  0
    1.3493    0.4014   -0.0058 O   0  0  0  0  0  0  0  0  0  0  0  0
    1.8614   -0.4592   -0.8810 C   0  0  0  0  0  0  0  0  0  0  0  0
    1.6307   -1.6314   -0.9398 O   0  0  0  0  0  0  0  0  0  0  0  0
   -0.8853    1.8880   -0.3685 H   0  0  0  0  0  0  0  0  0  0  0  0
   -2.5992    1.1812   -0.2705 H   0  0  0  0  0  0  0  0  0  0  0  0
   -0.9798   -0.9570   -0.4274 H   0  0  0  0  0  0  0  0  0  0  0  0
   -1.6301   -0.6513    1.1606 H   0  0  0  0  0  0  0  0  0  0  0  0
    0.7650   -1.0992    1.2919 H   0  0  0  0  0  0  0  0  0  0  0  0
    0.4564    0.5843    1.7836 H   0  0  0  0  0  0  0  0  0  0  0  0
    2.5468    0.0745   -1.5530 H   0  0  0  0  0  0  0  0  0  0  0  0
  1  2  1  0
  1  7  1  0
  1  8  1  0
  2  3  1  0
  2  9  1  0
  2 10  1  0
  3  4  1  0
  3 11  1  0
  3 12  1  0
  4  5  1  0
  5  6  2  0
  5 13  1  0
M  RAD  1   1   2
M  END
>  <reaction>  (2) 
rmg_rxn_16647

>  <mol_properties>  (2) 
{"0": {"label": "acceptor", "atom_type": "Cs"}}

>  <type>  (2) 
r2

$$$$

     RDKit          3D

 14 13  0  0  0  0  0  0  0  0999 V2000
    2.1277    0.0527   -0.0768 C   0  0  0  0  0  0  0  0  0  0  0  0
    0.8550    0.0849    0.7591 C   0  0  0  0  0  0  0  0  0  0  0  0
    0.7150    1.3361    1.5963 C   0  0  0  0  0  0  0  0  0  0  0  0
    0.5975    2.4604    0.7083 O   0  0  0  0  0  0  0  0  0  0  0  0
    0.5113    3.6572    1.2782 C   0  0  0  0  0  0  0  0  0  0  0  0
    0.5224    3.8788    2.4534 O   0  0  0  0  0  0  0  0  0  0  0  0
    3.0138    0.1211    0.5584 H   0  0  0  0  0  0  0  0  0  0  0  0
    2.1544    0.8845   -0.7813 H   0  0  0  0  0  0  0  0  0  0  0  0
    2.1955   -0.8742   -0.6473 H   0  0  0  0  0  0  0  0  0  0  0  0
    0.8361   -0.7663    1.4449 H   0  0  0  0  0  0  0  0  0  0  0  0
   -0.0232   -0.0114    0.1158 H   0  0  0  0  0  0  0  0  0  0  0  0
   -0.1715    1.3001    2.2317 H   0  0  0  0  0  0  0  0  0  0  0  0
    1.5840    1.4884    2.2407 H   0  0  0  0  0  0  0  0  0  0  0  0
    0.4263    4.4265    0.4986 H   0  0  0  0  0  0  0  0  0  0  0  0
  1  2  1  0
  1  7  1  0
  1  8  1  0
  1  9  1  0
  2  3  1  0
  2 10  1  0
  2 11  1  0
  3  4  1  0
  3 12  1  0
  3 13  1  0
  4  5  1  0
  5  6  2  0
  5 14  1  0
M  END
>  <reaction>  (3) 
rmg_rxn_16647

>  <mol_properties>  (3) 
{"0": {"label": "a_hydrogen", "atom_type": "H0"}, "1": {"label": "acceptor", "atom_type": "Cs"}}

>  <type>  (3) 
r2h

$$$$

     RDKit          3D

 21 19  0  0  0  0  0  0  0  0999 V2000
    0.7716   -1.0542   -3.5572 C   0  0  0  0  0  0  0  0  0  0  0  0
    0.8555   -1.1437   -2.0648 C   0  0  0  0  0  0  0  0  0  0  0  0
    1.9220   -0.9021   -1.4420 N   0  0  0  0  0  0  0  0  0  0  0  0
    0.4728   -2.0206   -3.9700 H   0  0  0  0  0  0  0  0  0  0  0  0
    0.0020   -0.3320   -3.8392 H   0  0  0  0  0  0  0  0  0  0  0  0
    1.7281   -0.7566   -3.9831 H   0  0  0  0  0  0  0  0  0  0  0  0
   -0.0695   -1.4161   -1.5457 H   0  0  0  0  0  0  0  0  0  0  0  0
    1.7171   -1.0473   -0.2644 H   0  0  0  0  0  0  0  0  0  0  0  0
    1.3609   -1.1371    1.0814 C   0  0  0  0  0  3  0  0  0  0  0  0
    1.3343    0.2848    1.5681 C   0  0  0  0  0  0  0  0  0  0  0  0
    0.1695    1.0971    1.0373 C   0  0  0  0  0  0  0  0  0  0  0  0
   -1.0633    0.6559    1.6401 O   0  0  0  0  0  0  0  0  0  0  0  0
   -1.9447    0.0028    0.8957 C   0  0  0  0  0  0  0  0  0  0  0  0
   -1.8396   -0.2836   -0.2626 O   0  0  0  0  0  0  0  0  0  0  0  0
    0.4085   -1.6635    1.0839 H   0  0  0  0  0  0  0  0  0  0  0  0
    2.1728   -1.7434    1.4752 H   0  0  0  0  0  0  0  0  0  0  0  0
    2.2547    0.7932    1.2647 H   0  0  0  0  0  0  0  0  0  0  0  0
    1.3119    0.3193    2.6640 H   0  0  0  0  0  0  0  0  0  0  0  0
    0.0903    1.0197   -0.0462 H   0  0  0  0  0  0  0  0  0  0  0  0
    0.2666    2.1443    1.3207 H   0  0  0  0  0  0  0  0  0  0  0  0
   -2.8184   -0.2458    1.5130 H   0  0  0  0  0  0  0  0  0  0  0  0
  1  2  1  0
  1  4  1  0
  1  5  1  0
  1  6  1  0
  2  3  2  3
  2  7  1  0
  3  8  1  0
  9 10  1  0
  9 15  1  0
  9 16  1  0
 10 11  1  0
 10 17  1  0
 10 18  1  0
 11 12  1  0
 11 19  1  0
 11 20  1  0
 12 13  1  0
 13 14  2  0
 13 21  1  0
M  RAD  1   9   2
M  END
>  <reaction>  (4) 
rmg_rxn_16647

>  <mol_properties>  (4) 
{"1": {"label": "*0", "atom_type": "Cd"}, "2": {"label": "*1", "atom_type": "N3d"}, "7": {"label": "*2", "atom_type": "H0"}, "8": {"label": "*3", "atom_type": "Cs"}, "9": {"label": "*4", "atom_type": "Cs"}}

>  <type>  (4) 
ts

$$$$
