
     RDKit          3D

  6  5  0  0  0  0  0  0  0  0999 V2000
    1.2314    0.0428    0.5088 O   0  0  0  0  0  0  0  0  0  0  0  0
    0.2987    0.2341   -0.4915 N   0  0  0  0  0  0  0  0  0  0  0  0
   -0.8599   -0.1122   -0.1290 C   0  0  0  0  0  0  0  0  0  0  0  0
    2.0507    0.3401    0.1082 H   0  0  0  0  0  0  0  0  0  0  0  0
   -1.0700   -0.5112    0.8610 H   0  0  0  0  0  0  0  0  0  0  0  0
   -1.6509    0.0064   -0.8574 H   0  0  0  0  0  0  0  0  0  0  0  0
  1  2  1  0
  1  4  1  0
  2  3  2  3
  3  5  1  0
  3  6  1  0
M  END
>  <reaction>  (1) 
rmg_rxn_15401

>  <mol_properties>  (1) 
{"2": {"label": "donator", "atom_type": "Cd"}, "4": {"label": "d_hydrogen", "atom_type": "H0"}}

>  <type>  (1) 
r1h

$$$$

     RDKit          3D

  1  0  0  0  0  0  0  0  0  0999 V2000
    0.0000    0.0000    0.0000 H   0  0  0  0  0 15  0  0  0  0  0  0
M  END
>  <reaction>  (2) 
rmg_rxn_15401

>  <mol_properties>  (2) 
{"0": {"label": "acceptor", "atom_type": "H0"}}

>  <type>  (2) 
r2

$$$$

     RDKit          3D

  2  1  0  0  0  0  0  0  0  0999 V2000
    0.0000    0.0000    0.3721 H   0  0  0  0  0  0  0  0  0  0  0  0
    0.0000    0.0000   -0.3721 H   0  0  0  0  0  0  0  0  0  0  0  0
  1  2  1  0
M  END
>  <reaction>  (3) 
rmg_rxn_15401

>  <mol_properties>  (3) 
{"0": {"label": "acceptor", "atom_type": "H0"}, "1": {"label": "a_hydrogen", "atom_type": "H0"}}

>  <type>  (3) 
r2h

$$$$

     RDKit          3D

  7  5  0  0  0  0  0  0  0  0999 V2000
    0.0000    2.5715   -0.4459 H   0  0  0  0  0 15  0  0  0  0  0  0
    0.0000   -0.4384   -1.0145 O   0  0  0  0  0  0  0  0  0  0  0  0
    0.0000   -0.4224    0.3666 N   0  0  0  0  0  0  0  0  0  0  0  0
    0.0000    0.7100    0.8823 C   0  0  0  0  0  0  0  0  0  0  0  0
    0.0000   -1.3754   -1.2235 H   0  0  0  0  0  0  0  0  0  0  0  0
    0.0000    1.8285    0.1004 H   0  0  0  0  0  0  0  0  0  0  0  0
    0.0000    0.8365    1.9588 H   0  0  0  0  0  0  0  0  0  0  0  0
  2  3  1  0
  2  5  1  0
  3  4  2  3
  4  6  1  0
  4  7  1  0
M  END
>  <reaction>  (4) 
rmg_rxn_15401

>  <mol_properties>  (4) 
{"0": {"label": "*1", "atom_type": "H0"}, "2": {"label": "*4", "atom_type": "N3d"}, "3": {"label": "*3", "atom_type": "Cd"}, "5": {"label": "*2", "atom_type": "H0"}}

>  <type>  (4) 
ts

$$$$
