
     RDKit          3D

 12 11  0  0  0  0  0  0  0  0999 V2000
   -1.4643   -0.2505   -0.5284 C   0  0  0  0  0  0  0  0  0  0  0  0
   -0.3946    0.4302    0.3143 C   0  0  0  0  0  0  0  0  0  0  0  0
   -0.5959    0.2382    1.8102 C   0  0  0  0  0  0  0  0  0  0  0  0
   -0.5633   -1.1190    2.2092 O   0  0  0  0  0  0  0  0  0  0  0  0
   -2.4511    0.1644   -0.3109 H   0  0  0  0  0  0  0  0  0  0  0  0
   -1.5019   -1.3198   -0.3181 H   0  0  0  0  0  0  0  0  0  0  0  0
   -1.2720   -0.1182   -1.5941 H   0  0  0  0  0  0  0  0  0  0  0  0
    0.5965    0.0515    0.0385 H   0  0  0  0  0  0  0  0  0  0  0  0
   -0.3776    1.5047    0.1078 H   0  0  0  0  0  0  0  0  0  0  0  0
   -1.5821    0.6048    2.1034 H   0  0  0  0  0  0  0  0  0  0  0  0
    0.1495    0.8220    2.3649 H   0  0  0  0  0  0  0  0  0  0  0  0
    0.3017   -1.4750    1.9997 H   0  0  0  0  0  0  0  0  0  0  0  0
  1  2  1  0
  1  5  1  0
  1  6  1  0
  1  7  1  0
  2  3  1  0
  2  8  1  0
  2  9  1  0
  3  4  1  0
  3 10  1  0
  3 11  1  0
  4 12  1  0
M  END
>  <reaction>  (1) 
rmg_rxn_16585

>  <mol_properties>  (1) 
{"3": {"label": "donator", "atom_type": "O2s"}, "11": {"label": "d_hydrogen", "atom_type": "H0"}}

>  <type>  (1) 
r1h

$$$$

     RDKit          3D

  7  6  0  0  0  0  0  0  0  0999 V2000
   -0.8571   -0.1277   -0.1351 C   0  0  0  0  0  0  0  0  0  0  0  0
    0.5127   -0.3685    0.3817 C   0  0  0  0  0  3  0  0  0  0  0  0
    1.4504    0.4165    0.5251 N   0  0  0  0  0  0  0  0  0  0  0  0
   -1.0377   -0.7631   -1.0031 H   0  0  0  0  0  0  0  0  0  0  0  0
   -1.5888   -0.4023    0.6258 H   0  0  0  0  0  0  0  0  0  0  0  0
   -0.9936    0.9212   -0.4136 H   0  0  0  0  0  0  0  0  0  0  0  0
    2.3193    0.0451    0.9013 H   0  0  0  0  0  0  0  0  0  0  0  0
  1  2  1  0
  1  4  1  0
  1  5  1  0
  1  6  1  0
  2  3  2  3
  3  7  1  0
M  RAD  1   2   2
M  END
>  <reaction>  (2) 
rmg_rxn_16585

>  <mol_properties>  (2) 
{"1": {"label": "acceptor", "atom_type": "Cd"}}

>  <type>  (2) 
r2

$$$$

     RDKit          3D

  8  7  0  0  0  0  0  0  0  0999 V2000
    0.9548    0.1194   -0.0790 C   0  0  0  0  0  0  0  0  0  0  0  0
   -0.4838   -0.2649    0.0193 C   0  0  0  0  0  0  0  0  0  0  0  0
   -0.8933   -1.1081    0.8664 N   0  0  0  0  0  0  0  0  0  0  0  0
    1.3360   -0.0983   -1.0800 H   0  0  0  0  0  0  0  0  0  0  0  0
    1.0698    1.1948    0.0786 H   0  0  0  0  0  0  0  0  0  0  0  0
    1.5426   -0.4219    0.6602 H   0  0  0  0  0  0  0  0  0  0  0  0
   -1.1575    0.2324   -0.6905 H   0  0  0  0  0  0  0  0  0  0  0  0
   -1.8989   -1.2455    0.7886 H   0  0  0  0  0  0  0  0  0  0  0  0
  1  2  1  0
  1  4  1  0
  1  5  1  0
  1  6  1  0
  2  3  2  3
  2  7  1  0
  3  8  1  0
M  END
>  <reaction>  (3) 
rmg_rxn_16585

>  <mol_properties>  (3) 
{"1": {"label": "acceptor", "atom_type": "Cd"}, "7": {"label": "a_hydrogen", "atom_type": "H0"}}

>  <type>  (3) 
r2h

$$$$

     RDKit          3D

 19 17  0  0  0  0  0  0  0  0999 V2000
   -2.6463   -1.0302    0.6683 C   0  0  0  0  0  0  0  0  0  0  0  0
   -1.4185   -0.2214    0.9108 C   0  0  0  0  0  0  0  0  0  0  0  0
   -1.0028    0.1640    2.0197 N   0  0  0  0  0  0  0  0  0  0  0  0
   -3.3162   -0.4843    0.0018 H   0  0  0  0  0  0  0  0  0  0  0  0
   -2.3759   -1.9589    0.1626 H   0  0  0  0  0  0  0  0  0  0  0  0
   -3.1520   -1.2503    1.6077 H   0  0  0  0  0  0  0  0  0  0  0  0
   -0.1406    0.7059    1.9842 H   0  0  0  0  0  0  0  0  0  0  0  0
    2.4609   -1.1464   -1.3050 C   0  0  0  0  0  0  0  0  0  0  0  0
    2.0561   -0.2153   -0.1713 C   0  0  0  0  0  0  0  0  0  0  0  0
    1.1046    0.8864   -0.6242 C   0  0  0  0  0  0  0  0  0  0  0  0
   -0.0873    0.4291   -1.1628 O   0  0  0  0  0  1  0  0  0  0  0  0
    3.0009   -0.6015   -2.0831 H   0  0  0  0  0  0  0  0  0  0  0  0
    1.5801   -1.5966   -1.7639 H   0  0  0  0  0  0  0  0  0  0  0  0
    3.1078   -1.9482   -0.9468 H   0  0  0  0  0  0  0  0  0  0  0  0
    1.5725   -0.7890    0.6257 H   0  0  0  0  0  0  0  0  0  0  0  0
    2.9412    0.2517    0.2716 H   0  0  0  0  0  0  0  0  0  0  0  0
    1.5762    1.4875   -1.4170 H   0  0  0  0  0  0  0  0  0  0  0  0
    0.9160    1.5978    0.1983 H   0  0  0  0  0  0  0  0  0  0  0  0
   -0.8261    0.0480   -0.1171 H   0  0  0  0  0  0  0  0  0  0  0  0
  1  2  1  0
  1  4  1  0
  1  5  1  0
  1  6  1  0
  2  3  2  3
  2 19  1  0
  3  7  1  0
  8  9  1  0
  8 12  1  0
  8 13  1  0
  8 14  1  0
  9 10  1  0
  9 15  1  0
  9 16  1  0
 10 11  1  0
 10 17  1  0
 10 18  1  0
M  RAD  1  11   2
M  END
>  <reaction>  (4) 
rmg_rxn_16585

>  <mol_properties>  (4) 
{"1": {"label": "*1", "atom_type": "Cd"}, "2": {"label": "*0", "atom_type": "N3d"}, "9": {"label": "*4", "atom_type": "Cs"}, "10": {"label": "*3", "atom_type": "O2s"}, "18": {"label": "*2", "atom_type": "H0"}}

>  <type>  (4) 
ts

$$$$
