
     RDKit          3D

  9  9  0  0  0  0  0  0  0  0999 V2000
    1.4292   -0.6130    0.5042 O   0  0  0  0  0  0  0  0  0  0  0  0
    0.4683   -0.3219   -0.5063 N   0  0  0  0  0  0  0  0  0  0  0  0
   -0.2267    0.9155   -0.1805 C   0  0  0  0  0  0  0  0  0  0  0  0
   -0.8728   -0.3965    0.0559 C   0  0  0  0  0  0  0  0  0  0  0  0
    2.1248   -1.0453    0.0059 H   0  0  0  0  0  0  0  0  0  0  0  0
   -0.4980    1.5264   -1.0321 H   0  0  0  0  0  0  0  0  0  0  0  0
    0.1405    1.4456    0.6886 H   0  0  0  0  0  0  0  0  0  0  0  0
   -0.9339   -0.7359    1.0817 H   0  0  0  0  0  0  0  0  0  0  0  0
   -1.6314   -0.7750   -0.6174 H   0  0  0  0  0  0  0  0  0  0  0  0
  1  2  1  0
  1  5  1  0
  2  3  1  0
  2  4  1  0
  3  4  1  0
  3  6  1  0
  3  7  1  0
  4  8  1  0
  4  9  1  0
M  END
>  <reaction>  (1) 
rmg_rxn_16649

>  <mol_properties>  (1) 
{"0": {"label": "donator", "atom_type": "O2s"}, "4": {"label": "d_hydrogen", "atom_type": "H0"}}

>  <type>  (1) 
r1h

$$$$

     RDKit          3D

  7  6  0  0  0  0  0  0  0  0999 V2000
   -0.6441   -0.1356    0.0624 C   0  0  0  0  0  0  0  0  0  0  0  0
    0.8523    0.0148   -0.0333 C   0  0  0  0  0  0  0  0  0  0  0  0
    1.6700   -0.6077    0.6603 N   0  0  0  0  0  2  0  0  0  0  0  0
   -1.0940    0.8275    0.3091 H   0  0  0  0  0  0  0  0  0  0  0  0
   -0.9104   -0.8656    0.8237 H   0  0  0  0  0  0  0  0  0  0  0  0
   -1.0427   -0.4545   -0.9022 H   0  0  0  0  0  0  0  0  0  0  0  0
    1.2362    0.7308   -0.7748 H   0  0  0  0  0  0  0  0  0  0  0  0
  1  2  1  0
  1  4  1  0
  1  5  1  0
  1  6  1  0
  2  3  2  0
  2  7  1  0
M  RAD  1   3   2
M  END
>  <reaction>  (2) 
rmg_rxn_16649

>  <mol_properties>  (2) 
{"2": {"label": "acceptor", "atom_type": "N3d"}}

>  <type>  (2) 
r2

$$$$

     RDKit          3D

  8  7  0  0  0  0  0  0  0  0999 V2000
    0.9548    0.1194   -0.0790 C   0  0  0  0  0  0  0  0  0  0  0  0
   -0.4838   -0.2649    0.0193 C   0  0  0  0  0  0  0  0  0  0  0  0
   -0.8933   -1.1081    0.8664 N   0  0  0  0  0  0  0  0  0  0  0  0
    1.3360   -0.0983   -1.0800 H   0  0  0  0  0  0  0  0  0  0  0  0
    1.0698    1.1948    0.0786 H   0  0  0  0  0  0  0  0  0  0  0  0
    1.5426   -0.4219    0.6602 H   0  0  0  0  0  0  0  0  0  0  0  0
   -1.1575    0.2324   -0.6905 H   0  0  0  0  0  0  0  0  0  0  0  0
   -1.8989   -1.2455    0.7886 H   0  0  0  0  0  0  0  0  0  0  0  0
  1  2  1  0
  1  4  1  0
  1  5  1  0
  1  6  1  0
  2  3  2  3
  2  7  1  0
  3  8  1  0
M  END
>  <reaction>  (3) 
rmg_rxn_16649

>  <mol_properties>  (3) 
{"2": {"label": "acceptor", "atom_type": "N3d"}, "7": {"label": "a_hydrogen", "atom_type": "H0"}}

>  <type>  (3) 
r2h

$$$$

     RDKit          3D

 16 15  0  0  0  0  0  0  0  0999 V2000
    2.5375   -1.9035    0.9325 C   0  0  0  0  0  0  0  0  0  0  0  0
    1.2729   -1.1115    0.7768 C   0  0  0  0  0  0  0  0  0  0  0  0
    0.3291   -1.1209    1.5867 N   0  0  0  0  0  2  0  0  0  0  0  0
    2.5194   -2.4882    1.8497 H   0  0  0  0  0  0  0  0  0  0  0  0
    3.3936   -1.2262    0.9462 H   0  0  0  0  0  0  0  0  0  0  0  0
    2.6599   -2.5689    0.0757 H   0  0  0  0  0  0  0  0  0  0  0  0
    1.1727   -0.4720   -0.1252 H   0  0  0  0  0  0  0  0  0  0  0  0
   -1.2673    0.3917    0.5991 O   0  0  0  0  0  0  0  0  0  0  0  0
   -0.6047    0.7562   -0.5217 N   0  0  0  0  0  0  0  0  0  0  0  0
   -0.8132    2.1265   -0.9469 C   0  0  0  0  0  0  0  0  0  0  0  0
   -1.4367    0.9855   -1.6866 C   0  0  0  0  0  0  0  0  0  0  0  0
   -0.5647   -0.3825    1.2011 H   0  0  0  0  0  0  0  0  0  0  0  0
    0.0524    2.6350   -1.3523 H   0  0  0  0  0  0  0  0  0  0  0  0
   -1.4664    2.7175   -0.3178 H   0  0  0  0  0  0  0  0  0  0  0  0
   -2.4981    0.8296   -1.5418 H   0  0  0  0  0  0  0  0  0  0  0  0
   -1.0280    0.6577   -2.6342 H   0  0  0  0  0  0  0  0  0  0  0  0
  1  2  1  0
  1  4  1  0
  1  5  1  0
  1  6  1  0
  2  3  2  0
  2  7  1  0
  8  9  1  0
  8 12  1  0
  9 10  1  0
  9 11  1  0
 10 11  1  0
 10 13  1  0
 10 14  1  0
 11 15  1  0
 11 16  1  0
M  RAD  1   3   2
M  END
>  <reaction>  (4) 
rmg_rxn_16649

>  <mol_properties>  (4) 
{"1": {"label": "*4", "atom_type": "Cd"}, "2": {"label": "*3", "atom_type": "N3d"}, "7": {"label": "*1", "atom_type": "O2s"}, "8": {"label": "*0", "atom_type": "N3s"}, "11": {"label": "*2", "atom_type": "H0"}}

>  <type>  (4) 
ts

$$$$
