
     RDKit          3D

  9  9  0  0  0  0  0  0  0  0999 V2000
    1.4292   -0.6130    0.5042 O   0  0  0  0  0  0  0  0  0  0  0  0
    0.4683   -0.3219   -0.5063 N   0  0  0  0  0  0  0  0  0  0  0  0
   -0.2267    0.9155   -0.1805 C   0  0  0  0  0  0  0  0  0  0  0  0
   -0.8728   -0.3965    0.0559 C   0  0  0  0  0  0  0  0  0  0  0  0
    2.1248   -1.0453    0.0059 H   0  0  0  0  0  0  0  0  0  0  0  0
   -0.4980    1.5264   -1.0321 H   0  0  0  0  0  0  0  0  0  0  0  0
    0.1405    1.4456    0.6886 H   0  0  0  0  0  0  0  0  0  0  0  0
   -0.9339   -0.7359    1.0817 H   0  0  0  0  0  0  0  0  0  0  0  0
   -1.6314   -0.7750   -0.6174 H   0  0  0  0  0  0  0  0  0  0  0  0
  1  2  1  0
  1  5  1  0
  2  3  1  0
  2  4  1  0
  3  4  1  0
  3  6  1  0
  3  7  1  0
  4  8  1  0
  4  9  1  0
M  END
>  <reaction>  (1) 
rmg_rxn_15661

>  <mol_properties>  (1) 
{"0": {"label": "donator", "atom_type": "O2s"}, "4": {"label": "d_hydrogen", "atom_type": "H0"}}

>  <type>  (1) 
r1h

$$$$

     RDKit          3D

  8  7  0  0  0  0  0  0  0  0999 V2000
    1.7077   -0.1964   -0.0607 C   0  0  0  0  0  3  0  0  0  0  0  0
    0.4209   -0.4565    0.2808 O   0  0  0  0  0  0  0  0  0  0  0  0
   -0.4607    0.4385   -0.2968 N   0  0  0  0  0  0  0  0  0  0  0  0
   -1.6584    0.1416   -0.0244 C   0  0  0  0  0  0  0  0  0  0  0  0
    2.4163   -0.7685    0.5170 H   0  0  0  0  0  0  0  0  0  0  0  0
    1.9214    0.7645   -0.5045 H   0  0  0  0  0  0  0  0  0  0  0  0
   -2.4185    0.7953   -0.4307 H   0  0  0  0  0  0  0  0  0  0  0  0
   -1.9286   -0.7185    0.5831 H   0  0  0  0  0  0  0  0  0  0  0  0
  1  2  1  0
  1  5  1  0
  1  6  1  0
  2  3  1  0
  3  4  2  3
  4  7  1  0
  4  8  1  0
M  RAD  1   1   2
M  END
>  <reaction>  (2) 
rmg_rxn_15661

>  <mol_properties>  (2) 
{"0": {"label": "acceptor", "atom_type": "Cs"}}

>  <type>  (2) 
r2

$$$$

     RDKit          3D

  9  8  0  0  0  0  0  0  0  0999 V2000
   -1.5470   -0.0755   -0.1976 C   0  0  0  0  0  0  0  0  0  0  0  0
   -0.2885    0.4507    0.1749 O   0  0  0  0  0  0  0  0  0  0  0  0
   -0.1502    1.7216   -0.3294 N   0  0  0  0  0  0  0  0  0  0  0  0
    0.9626    2.2353   -0.0219 C   0  0  0  0  0  0  0  0  0  0  0  0
   -1.6392   -0.1356   -1.2844 H   0  0  0  0  0  0  0  0  0  0  0  0
   -2.3597    0.5337    0.2044 H   0  0  0  0  0  0  0  0  0  0  0  0
   -1.5879   -1.0750    0.2318 H   0  0  0  0  0  0  0  0  0  0  0  0
    1.1497    3.2381   -0.3820 H   0  0  0  0  0  0  0  0  0  0  0  0
    1.7060    1.7101    0.5739 H   0  0  0  0  0  0  0  0  0  0  0  0
  1  2  1  0
  1  5  1  0
  1  6  1  0
  1  7  1  0
  2  3  1  0
  3  4  2  3
  4  8  1  0
  4  9  1  0
M  END
>  <reaction>  (3) 
rmg_rxn_15661

>  <mol_properties>  (3) 
{"0": {"label": "acceptor", "atom_type": "Cs"}, "8": {"label": "a_hydrogen", "atom_type": "H0"}}

>  <type>  (3) 
r2h

$$$$

     RDKit          3D

 17 16  0  0  0  0  0  0  0  0999 V2000
    0.7951    1.6051    0.1742 C   0  0  0  0  0  3  0  0  0  0  0  0
    1.6021    0.6595   -0.4165 O   0  0  0  0  0  0  0  0  0  0  0  0
    1.8718   -0.3833    0.4495 N   0  0  0  0  0  0  0  0  0  0  0  0
    2.5222   -1.3023   -0.1238 C   0  0  0  0  0  0  0  0  0  0  0  0
    0.9398    1.6916    1.2492 H   0  0  0  0  0  0  0  0  0  0  0  0
    0.8571    2.5295   -0.3933 H   0  0  0  0  0  0  0  0  0  0  0  0
    2.7853   -2.1568    0.4851 H   0  0  0  0  0  0  0  0  0  0  0  0
    2.8134   -1.2513   -1.1701 H   0  0  0  0  0  0  0  0  0  0  0  0
   -1.7193    1.2296   -0.0692 O   0  0  0  0  0  0  0  0  0  0  0  0
   -2.1775   -0.0485   -0.0743 N   0  0  0  0  0  0  0  0  0  0  0  0
   -1.4833   -1.0361    0.7271 C   0  0  0  0  0  0  0  0  0  0  0  0
   -1.3979   -1.0571   -0.7653 C   0  0  0  0  0  0  0  0  0  0  0  0
   -0.5747    1.2992    0.0374 H   0  0  0  0  0  0  0  0  0  0  0  0
   -2.1139   -1.7433    1.2516 H   0  0  0  0  0  0  0  0  0  0  0  0
   -0.6029   -0.7015    1.2640 H   0  0  0  0  0  0  0  0  0  0  0  0
   -0.4666   -0.7297   -1.2120 H   0  0  0  0  0  0  0  0  0  0  0  0
   -1.9679   -1.7767   -1.3398 H   0  0  0  0  0  0  0  0  0  0  0  0
  1  2  1  0
  1  5  1  0
  1  6  1  0
  2  3  1  0
  3  4  2  3
  4  7  1  0
  4  8  1  0
  9 10  1  0
  9 13  1  0
 10 11  1  0
 10 12  1  0
 11 12  1  0
 11 14  1  0
 11 15  1  0
 12 16  1  0
 12 17  1  0
M  RAD  1   1   2
M  END
>  <reaction>  (4) 
rmg_rxn_15661

>  <mol_properties>  (4) 
{"0": {"label": "*3", "atom_type": "Cs"}, "1": {"label": "*4", "atom_type": "O2s"}, "8": {"label": "*1", "atom_type": "O2s"}, "9": {"label": "*0", "atom_type": "N3s"}, "12": {"label": "*2", "atom_type": "H0"}}

>  <type>  (4) 
ts

$$$$
