
     RDKit          3D

 17 16  0  0  0  0  0  0  0  0999 V2000
    3.1099   -1.8290   -0.4133 C   0  0  0  0  0  0  0  0  0  0  0  0
    3.2191   -0.3608   -0.6746 C   0  0  0  0  0  0  0  0  0  0  0  0
    2.3786    0.5666   -0.2369 C   0  0  0  0  0  0  0  0  0  0  0  0
    1.2672    0.2611    0.4868 O   0  0  0  0  0  0  0  0  0  0  0  0
    0.8726    1.3903    1.3069 N   0  0  0  0  0  0  0  0  0  0  0  0
    1.4437    1.2702    2.5675 N   0  0  0  0  0  0  0  0  0  0  0  0
   -0.5688    1.2617    1.4132 C   0  0  0  0  0  0  0  0  0  0  0  0
    2.8525   -2.3739   -1.3257 H   0  0  0  0  0  0  0  0  0  0  0  0
    2.3430   -2.0431    0.3302 H   0  0  0  0  0  0  0  0  0  0  0  0
    4.0609   -2.2324   -0.0579 H   0  0  0  0  0  0  0  0  0  0  0  0
    4.0336   -0.0133   -1.2988 H   0  0  0  0  0  0  0  0  0  0  0  0
    2.4961    1.6238   -0.4474 H   0  0  0  0  0  0  0  0  0  0  0  0
    1.3456    0.3206    2.9243 H   0  0  0  0  0  0  0  0  0  0  0  0
    2.4253    1.5018    2.5027 H   0  0  0  0  0  0  0  0  0  0  0  0
   -0.8613    0.3089    1.8737 H   0  0  0  0  0  0  0  0  0  0  0  0
   -0.9985    1.3247    0.4163 H   0  0  0  0  0  0  0  0  0  0  0  0
   -0.9281    2.0857    2.0250 H   0  0  0  0  0  0  0  0  0  0  0  0
  1  2  1  0
  1  8  1  0
  1  9  1  0
  1 10  1  0
  2  3  2  3
  2 11  1  0
  3  4  1  0
  3 12  1  0
  4  5  1  0
  5  7  1  0
  5  6  1  0
  6 13  1  0
  6 14  1  0
  7 15  1  0
  7 16  1  0
  7 17  1  0
M  END
>  <reaction>  (1) 
rmg_rxn_15711

>  <mol_properties>  (1) 
{"5": {"label": "donator", "atom_type": "N3s"}, "12": {"label": "d_hydrogen", "atom_type": "H0"}}

>  <type>  (1) 
r1h

$$$$

     RDKit          3D

  8  7  0  0  0  0  0  0  0  0999 V2000
    1.7077   -0.1964   -0.0607 C   0  0  0  0  0  3  0  0  0  0  0  0
    0.4209   -0.4565    0.2808 O   0  0  0  0  0  0  0  0  0  0  0  0
   -0.4607    0.4385   -0.2968 N   0  0  0  0  0  0  0  0  0  0  0  0
   -1.6584    0.1416   -0.0244 C   0  0  0  0  0  0  0  0  0  0  0  0
    2.4163   -0.7685    0.5170 H   0  0  0  0  0  0  0  0  0  0  0  0
    1.9214    0.7645   -0.5045 H   0  0  0  0  0  0  0  0  0  0  0  0
   -2.4185    0.7953   -0.4307 H   0  0  0  0  0  0  0  0  0  0  0  0
   -1.9286   -0.7185    0.5831 H   0  0  0  0  0  0  0  0  0  0  0  0
  1  2  1  0
  1  5  1  0
  1  6  1  0
  2  3  1  0
  3  4  2  3
  4  7  1  0
  4  8  1  0
M  RAD  1   1   2
M  END
>  <reaction>  (2) 
rmg_rxn_15711

>  <mol_properties>  (2) 
{"0": {"label": "acceptor", "atom_type": "Cs"}}

>  <type>  (2) 
r2

$$$$

     RDKit          3D

  9  8  0  0  0  0  0  0  0  0999 V2000
   -1.5470   -0.0755   -0.1976 C   0  0  0  0  0  0  0  0  0  0  0  0
   -0.2885    0.4507    0.1749 O   0  0  0  0  0  0  0  0  0  0  0  0
   -0.1502    1.7216   -0.3294 N   0  0  0  0  0  0  0  0  0  0  0  0
    0.9626    2.2353   -0.0219 C   0  0  0  0  0  0  0  0  0  0  0  0
   -1.6392   -0.1356   -1.2844 H   0  0  0  0  0  0  0  0  0  0  0  0
   -2.3597    0.5337    0.2044 H   0  0  0  0  0  0  0  0  0  0  0  0
   -1.5879   -1.0750    0.2318 H   0  0  0  0  0  0  0  0  0  0  0  0
    1.1497    3.2381   -0.3820 H   0  0  0  0  0  0  0  0  0  0  0  0
    1.7060    1.7101    0.5739 H   0  0  0  0  0  0  0  0  0  0  0  0
  1  2  1  0
  1  5  1  0
  1  6  1  0
  1  7  1  0
  2  3  1  0
  3  4  2  3
  4  8  1  0
  4  9  1  0
M  END
>  <reaction>  (3) 
rmg_rxn_15711

>  <mol_properties>  (3) 
{"0": {"label": "acceptor", "atom_type": "Cs"}, "8": {"label": "a_hydrogen", "atom_type": "H0"}}

>  <type>  (3) 
r2h

$$$$

     RDKit          3D

 25 23  0  0  0  0  0  0  0  0999 V2000
   -2.0768   -0.1409    0.9539 C   0  0  0  0  0  3  0  0  0  0  0  0
   -1.4841   -1.3229    0.5544 O   0  0  0  0  0  0  0  0  0  0  0  0
   -1.6098   -1.5042   -0.8071 N   0  0  0  0  0  0  0  0  0  0  0  0
   -0.9463   -2.5015   -1.2071 C   0  0  0  0  0  0  0  0  0  0  0  0
   -2.9980    0.0824    0.4165 H   0  0  0  0  0  0  0  0  0  0  0  0
   -2.1711   -0.1516    2.0369 H   0  0  0  0  0  0  0  0  0  0  0  0
   -0.9982   -2.7217   -2.2648 H   0  0  0  0  0  0  0  0  0  0  0  0
   -0.3472   -3.1154   -0.5394 H   0  0  0  0  0  0  0  0  0  0  0  0
    2.1848   -1.5412    0.9703 C   0  0  0  0  0  0  0  0  0  0  0  0
    2.7869   -0.2127    0.6407 C   0  0  0  0  0  0  0  0  0  0  0  0
    2.1928    0.7401   -0.0650 C   0  0  0  0  0  0  0  0  0  0  0  0
    0.9660    0.5607   -0.6264 O   0  0  0  0  0  0  0  0  0  0  0  0
    0.2216    1.8111   -0.6075 N   0  0  0  0  0  0  0  0  0  0  0  0
   -0.5200    1.9392    0.5241 N   0  0  0  0  0  0  0  0  0  0  0  0
   -0.6126    1.7769   -1.7940 C   0  0  0  0  0  0  0  0  0  0  0  0
    2.6001   -2.3327    0.3393 H   0  0  0  0  0  0  0  0  0  0  0  0
    1.1042   -1.5247    0.8282 H   0  0  0  0  0  0  0  0  0  0  0  0
    2.3949   -1.8150    2.0062 H   0  0  0  0  0  0  0  0  0  0  0  0
    3.7980   -0.0093    0.9726 H   0  0  0  0  0  0  0  0  0  0  0  0
    2.6482    1.7032   -0.2697 H   0  0  0  0  0  0  0  0  0  0  0  0
   -1.2678    0.9655    0.6872 H   0  0  0  0  0  0  0  0  0  0  0  0
    0.1203    1.8903    1.3143 H   0  0  0  0  0  0  0  0  0  0  0  0
    0.0312    1.7230   -2.6688 H   0  0  0  0  0  0  0  0  0  0  0  0
   -1.1877    2.6996   -1.8143 H   0  0  0  0  0  0  0  0  0  0  0  0
   -1.2877    0.9140   -1.7819 H   0  0  0  0  0  0  0  0  0  0  0  0
  1  2  1  0
  1  5  1  0
  1  6  1  0
  2  3  1  0
  3  4  2  3
  4  7  1  0
  4  8  1  0
  9 10  1  0
  9 16  1  0
  9 17  1  0
  9 18  1  0
 10 11  2  3
 10 19  1  0
 11 12  1  0
 11 20  1  0
 12 13  1  0
 13 15  1  0
 13 14  1  0
 14 21  1  0
 14 22  1  0
 15 23  1  0
 15 24  1  0
 15 25  1  0
M  RAD  1   1   2
M  END
>  <reaction>  (4) 
rmg_rxn_15711

>  <mol_properties>  (4) 
{"0": {"label": "*3", "atom_type": "Cs"}, "1": {"label": "*4", "atom_type": "O2s"}, "12": {"label": "*0", "atom_type": "N3s"}, "13": {"label": "*1", "atom_type": "N3s"}, "20": {"label": "*2", "atom_type": "H0"}}

>  <type>  (4) 
ts

$$$$
