
     RDKit          3D

  8  7  0  0  0  0  0  0  0  0999 V2000
    0.9548    0.1194   -0.0790 C   0  0  0  0  0  0  0  0  0  0  0  0
   -0.4838   -0.2649    0.0193 C   0  0  0  0  0  0  0  0  0  0  0  0
   -0.8933   -1.1081    0.8664 N   0  0  0  0  0  0  0  0  0  0  0  0
    1.3360   -0.0983   -1.0800 H   0  0  0  0  0  0  0  0  0  0  0  0
    1.0698    1.1948    0.0786 H   0  0  0  0  0  0  0  0  0  0  0  0
    1.5426   -0.4219    0.6602 H   0  0  0  0  0  0  0  0  0  0  0  0
   -1.1575    0.2324   -0.6905 H   0  0  0  0  0  0  0  0  0  0  0  0
   -1.8989   -1.2455    0.7886 H   0  0  0  0  0  0  0  0  0  0  0  0
  1  2  1  0
  1  4  1  0
  1  5  1  0
  1  6  1  0
  2  3  2  3
  2  7  1  0
  3  8  1  0
M  END
>  <reaction>  (1) 
rmg_rxn_16515

>  <mol_properties>  (1) 
{"2": {"label": "donator", "atom_type": "N3d"}, "7": {"label": "d_hydrogen", "atom_type": "H0"}}

>  <type>  (1) 
r1h

$$$$

     RDKit          3D

  8  7  0  0  0  0  0  0  0  0999 V2000
    0.9383    0.2996   -0.2216 C   0  0  0  0  0  3  0  0  0  0  0  0
   -0.2599   -0.3612    0.3424 C   0  0  0  0  0  0  0  0  0  0  0  0
   -1.4623    0.3337    0.0690 O   0  0  0  0  0  0  0  0  0  0  0  0
    1.8278   -0.2698   -0.4548 H   0  0  0  0  0  0  0  0  0  0  0  0
    0.9841    1.3806   -0.2544 H   0  0  0  0  0  0  0  0  0  0  0  0
   -0.3172   -1.4027   -0.0032 H   0  0  0  0  0  0  0  0  0  0  0  0
   -0.1994   -0.4050    1.4381 H   0  0  0  0  0  0  0  0  0  0  0  0
   -1.5169    0.4672   -0.8790 H   0  0  0  0  0  0  0  0  0  0  0  0
  1  2  1  0
  1  4  1  0
  1  5  1  0
  2  3  1  0
  2  6  1  0
  2  7  1  0
  3  8  1  0
M  RAD  1   1   2
M  END
>  <reaction>  (2) 
rmg_rxn_16515

>  <mol_properties>  (2) 
{"0": {"label": "acceptor", "atom_type": "Cs"}}

>  <type>  (2) 
r2

$$$$

     RDKit          3D

  9  8  0  0  0  0  0  0  0  0999 V2000
   -0.9895    0.3048    0.1041 C   0  0  0  0  0  0  0  0  0  0  0  0
    0.3761   -0.3562    0.0721 C   0  0  0  0  0  0  0  0  0  0  0  0
    0.3441   -1.6564   -0.4834 O   0  0  0  0  0  0  0  0  0  0  0  0
   -1.6997   -0.3114    0.6572 H   0  0  0  0  0  0  0  0  0  0  0  0
   -0.9320    1.2848    0.5822 H   0  0  0  0  0  0  0  0  0  0  0  0
   -1.3774    0.4507   -0.9077 H   0  0  0  0  0  0  0  0  0  0  0  0
    0.7581   -0.4813    1.0862 H   0  0  0  0  0  0  0  0  0  0  0  0
    1.0900    0.2787   -0.4681 H   0  0  0  0  0  0  0  0  0  0  0  0
    0.0089   -1.5959   -1.3792 H   0  0  0  0  0  0  0  0  0  0  0  0
  1  2  1  0
  1  4  1  0
  1  5  1  0
  1  6  1  0
  2  3  1  0
  2  7  1  0
  2  8  1  0
  3  9  1  0
M  END
>  <reaction>  (3) 
rmg_rxn_16515

>  <mol_properties>  (3) 
{"0": {"label": "acceptor", "atom_type": "Cs"}, "8": {"label": "a_hydrogen", "atom_type": "H0"}}

>  <type>  (3) 
r2h

$$$$

     RDKit          3D

 16 14  0  0  0  0  0  0  0  0999 V2000
    0.5840    0.2973    1.5897 C   0  0  0  0  0  3  0  0  0  0  0  0
   -0.3343   -0.6790    2.2683 C   0  0  0  0  0  0  0  0  0  0  0  0
   -1.6911   -0.4341    1.9708 O   0  0  0  0  0  0  0  0  0  0  0  0
    1.6458    0.0651    1.6443 H   0  0  0  0  0  0  0  0  0  0  0  0
    0.3517    1.3453    1.7674 H   0  0  0  0  0  0  0  0  0  0  0  0
   -0.0504   -1.7048    1.9984 H   0  0  0  0  0  0  0  0  0  0  0  0
   -0.2426   -0.5977    3.3564 H   0  0  0  0  0  0  0  0  0  0  0  0
   -1.7967   -0.4953    1.0171 H   0  0  0  0  0  0  0  0  0  0  0  0
    0.3795    0.2726   -3.1501 C   0  0  0  0  0  0  0  0  0  0  0  0
    0.5971    0.3687   -1.6717 C   0  0  0  0  0  0  0  0  0  0  0  0
   -0.2043   -0.1270   -0.8403 N   0  0  0  0  0  0  0  0  0  0  0  0
    0.3250    1.2741   -3.5829 H   0  0  0  0  0  0  0  0  0  0  0  0
    1.2251   -0.2372   -3.6176 H   0  0  0  0  0  0  0  0  0  0  0  0
   -0.5385   -0.2691   -3.3700 H   0  0  0  0  0  0  0  0  0  0  0  0
    1.5024    0.9009   -1.3518 H   0  0  0  0  0  0  0  0  0  0  0  0
    0.2207    0.1040    0.2813 H   0  0  0  0  0  0  0  0  0  0  0  0
  1  2  1  0
  1  4  1  0
  1  5  1  0
  2  3  1  0
  2  6  1  0
  2  7  1  0
  3  8  1  0
  9 10  1  0
  9 12  1  0
  9 13  1  0
  9 14  1  0
 10 11  2  3
 10 15  1  0
 11 16  1  0
M  RAD  1   1   2
M  END
>  <reaction>  (4) 
rmg_rxn_16515

>  <mol_properties>  (4) 
{"0": {"label": "*3", "atom_type": "Cs"}, "1": {"label": "*4", "atom_type": "Cs"}, "9": {"label": "*0", "atom_type": "Cd"}, "10": {"label": "*1", "atom_type": "N3d"}, "15": {"label": "*2", "atom_type": "H0"}}

>  <type>  (4) 
ts

$$$$
