
     RDKit          3D

 14 14  0  0  0  0  0  0  0  0999 V2000
    0.6827    1.2401    0.0000 C   0  0  0  0  0  0  0  0  0  0  0  0
    0.0177    0.6645    1.2385 C   0  0  0  0  0  0  0  0  0  0  0  0
    0.0177   -0.7579    1.1790 O   0  0  0  0  0  0  0  0  0  0  0  0
   -0.6317   -1.2178    0.0000 C   0  0  0  0  0  0  0  0  0  0  0  0
    0.0177   -0.7579   -1.1790 O   0  0  0  0  0  0  0  0  0  0  0  0
    0.0177    0.6645   -1.2385 C   0  0  0  0  0  0  0  0  0  0  0  0
    0.6376    2.3333    0.0000 H   0  0  0  0  0  0  0  0  0  0  0  0
    1.7374    0.9389    0.0000 H   0  0  0  0  0  0  0  0  0  0  0  0
    0.5646    0.9666    2.1371 H   0  0  0  0  0  0  0  0  0  0  0  0
   -1.0132    1.0237    1.3411 H   0  0  0  0  0  0  0  0  0  0  0  0
   -1.6888   -0.9240    0.0000 H   0  0  0  0  0  0  0  0  0  0  0  0
   -0.5898   -2.3108    0.0000 H   0  0  0  0  0  0  0  0  0  0  0  0
   -1.0132    1.0237   -1.3411 H   0  0  0  0  0  0  0  0  0  0  0  0
    0.5646    0.9666   -2.1371 H   0  0  0  0  0  0  0  0  0  0  0  0
  1  2  1  0
  1  6  1  0
  1  7  1  0
  1  8  1  0
  2  3  1  0
  2  9  1  0
  2 10  1  0
  3  4  1  0
  4  5  1  0
  4 11  1  0
  4 12  1  0
  5  6  1  0
  6 13  1  0
  6 14  1  0
M  END
>  <reaction>  (1) 
rmg_rxn_1155

>  <mol_properties>  (1) 
{"0": {"label": "donator", "atom_type": "Cs"}, "6": {"label": "d_hydrogen", "atom_type": "H0"}}

>  <type>  (1) 
r1h

$$$$

     RDKit          3D

  1  0  0  0  0  0  0  0  0  0999 V2000
    0.0000    0.0000    0.0000 O   0  0  0  0  0 15  0  0  0  0  0  0
M  END
>  <reaction>  (2) 
rmg_rxn_1155

>  <mol_properties>  (2) 
{"0": {"label": "acceptor", "atom_type": "O2s"}}

>  <type>  (2) 
r2

$$$$

     RDKit          3D

  2  1  0  0  0  0  0  0  0  0999 V2000
    0.0000    0.0000    0.1079 O   0  0  0  0  0  1  0  0  0  0  0  0
    0.0000    0.0000   -0.8631 H   0  0  0  0  0  0  0  0  0  0  0  0
  1  2  1  0
M  RAD  1   1   2
M  END
>  <reaction>  (3) 
rmg_rxn_1155

>  <mol_properties>  (3) 
{"0": {"label": "acceptor", "atom_type": "O2s"}, "1": {"label": "a_hydrogen", "atom_type": "H0"}}

>  <type>  (3) 
r2h

$$$$

     RDKit          3D

 15 14  0  0  0  0  0  0  0  0999 V2000
    3.1420   -0.0001    0.2853 O   0  0  0  0  0  1  0  0  0  0  0  0
    0.7707    0.0026   -0.5335 C   0  0  0  0  0  3  0  0  0  0  0  0
    0.1274   -1.2444    0.0269 C   0  0  0  0  0  0  0  0  0  0  0  0
   -1.2737   -1.1646   -0.1803 O   0  0  0  0  0  0  0  0  0  0  0  0
   -1.8042   -0.0023    0.3844 C   0  0  0  0  0  0  0  0  0  0  0  0
   -1.2780    1.1619   -0.1799 O   0  0  0  0  0  0  0  0  0  0  0  0
    0.1226    1.2466    0.0285 C   0  0  0  0  0  0  0  0  0  0  0  0
    1.9928    0.0041   -0.1385 H   0  0  0  0  0  0  0  0  0  0  0  0
    0.8583    0.0044   -1.6193 H   0  0  0  0  0  0  0  0  0  0  0  0
    0.4739   -2.1478   -0.4698 H   0  0  0  0  0  0  0  0  0  0  0  0
    0.3401   -1.3309    1.1017 H   0  0  0  0  0  0  0  0  0  0  0  0
   -1.6160   -0.0021    1.4725 H   0  0  0  0  0  0  0  0  0  0  0  0
   -2.8723   -0.0054    0.1804 H   0  0  0  0  0  0  0  0  0  0  0  0
    0.3347    1.3343    1.1032 H   0  0  0  0  0  0  0  0  0  0  0  0
    0.4667    2.1508   -0.4686 H   0  0  0  0  0  0  0  0  0  0  0  0
  1  8  1  0
  2  3  1  0
  2  7  1  0
  2  9  1  0
  3  4  1  0
  3 10  1  0
  3 11  1  0
  4  5  1  0
  5  6  1  0
  5 12  1  0
  5 13  1  0
  6  7  1  0
  7 14  1  0
  7 15  1  0
M  RAD  2   1   2   2   2
M  END
>  <reaction>  (4) 
rmg_rxn_1155

>  <mol_properties>  (4) 
{"0": {"label": "*1", "atom_type": "O2s"}, "1": {"label": "*3", "atom_type": "Cs"}, "2": {"label": "*4", "atom_type": "Cs"}, "7": {"label": "*2", "atom_type": "H0"}}

>  <type>  (4) 
ts

$$$$
