
     RDKit          3D

 14 13  0  0  0  0  0  0  0  0999 V2000
   -2.6591   -0.0450    0.7000 C   0  0  0  0  0  0  0  0  0  0  0  0
   -1.3737    0.0499    0.9953 C   0  0  0  0  0  0  0  0  0  0  0  0
   -0.2409   -0.3751    0.1081 C   0  0  0  0  0  0  0  0  0  0  0  0
   -0.6541   -1.0253   -1.0741 O   0  0  0  0  0  0  0  0  0  0  0  0
   -0.8556   -2.4003   -0.9287 C   0  0  0  0  0  0  0  0  0  0  0  0
    0.3393   -3.1125   -0.7901 O   0  0  0  0  0  0  0  0  0  0  0  0
   -2.9891   -0.4550   -0.2467 H   0  0  0  0  0  0  0  0  0  0  0  0
   -3.4198    0.2910    1.3925 H   0  0  0  0  0  0  0  0  0  0  0  0
   -1.0669    0.4739    1.9478 H   0  0  0  0  0  0  0  0  0  0  0  0
    0.4535   -1.0117    0.6689 H   0  0  0  0  0  0  0  0  0  0  0  0
    0.3247    0.5078   -0.2023 H   0  0  0  0  0  0  0  0  0  0  0  0
   -1.4079   -2.7062   -1.8216 H   0  0  0  0  0  0  0  0  0  0  0  0
   -1.4388   -2.6266   -0.0318 H   0  0  0  0  0  0  0  0  0  0  0  0
    0.8543   -2.9921   -1.5911 H   0  0  0  0  0  0  0  0  0  0  0  0
  1  2  2  3
  1  7  1  0
  1  8  1  0
  2  3  1  0
  2  9  1  0
  3  4  1  0
  3 10  1  0
  3 11  1  0
  4  5  1  0
  5  6  1  0
  5 12  1  0
  5 13  1  0
  6 14  1  0
M  END
>  <reaction>  (1) 
rmg_rxn_15450

>  <mol_properties>  (1) 
{"5": {"label": "donator", "atom_type": "O2s"}, "13": {"label": "d_hydrogen", "atom_type": "H0"}}

>  <type>  (1) 
r1h

$$$$

     RDKit          3D

  5  4  0  0  0  0  0  0  0  0999 V2000
    0.8934    0.3742    0.4948 O   0  0  0  0  0  0  0  0  0  0  0  0
    0.1582   -0.1610   -0.5904 N   0  0  0  0  0  0  0  0  0  0  0  0
   -1.0297   -0.3739   -0.4689 C   0  0  0  0  0  3  0  0  0  0  0  0
    1.7804    0.4382    0.1306 H   0  0  0  0  0  0  0  0  0  0  0  0
   -1.8023   -0.2775    0.2859 H   0  0  0  0  0  0  0  0  0  0  0  0
  1  2  1  0
  1  4  1  0
  2  3  2  3
  3  5  1  0
M  RAD  1   3   2
M  END
>  <reaction>  (2) 
rmg_rxn_15450

>  <mol_properties>  (2) 
{"2": {"label": "acceptor", "atom_type": "Cd"}}

>  <type>  (2) 
r2

$$$$

     RDKit          3D

  6  5  0  0  0  0  0  0  0  0999 V2000
    1.2314    0.0428    0.5088 O   0  0  0  0  0  0  0  0  0  0  0  0
    0.2987    0.2341   -0.4915 N   0  0  0  0  0  0  0  0  0  0  0  0
   -0.8599   -0.1122   -0.1290 C   0  0  0  0  0  0  0  0  0  0  0  0
    2.0507    0.3401    0.1082 H   0  0  0  0  0  0  0  0  0  0  0  0
   -1.0700   -0.5112    0.8610 H   0  0  0  0  0  0  0  0  0  0  0  0
   -1.6509    0.0064   -0.8574 H   0  0  0  0  0  0  0  0  0  0  0  0
  1  2  1  0
  1  4  1  0
  2  3  2  3
  3  5  1  0
  3  6  1  0
M  END
>  <reaction>  (3) 
rmg_rxn_15450

>  <mol_properties>  (3) 
{"2": {"label": "acceptor", "atom_type": "Cd"}, "5": {"label": "a_hydrogen", "atom_type": "H0"}}

>  <type>  (3) 
r2h

$$$$

     RDKit          3D

 19 17  0  0  0  0  0  0  0  0999 V2000
    3.2208   -0.6008   -0.7653 O   0  0  0  0  0  0  0  0  0  0  0  0
    3.3074    0.1576    0.3806 N   0  0  0  0  0  0  0  0  0  0  0  0
    2.3305    0.8856    0.6310 C   0  0  0  0  0  3  0  0  0  0  0  0
    4.0565   -1.0734   -0.7829 H   0  0  0  0  0  0  0  0  0  0  0  0
    2.3137    1.4969    1.5264 H   0  0  0  0  0  0  0  0  0  0  0  0
   -3.8605    0.3970   -0.5157 C   0  0  0  0  0  0  0  0  0  0  0  0
   -3.1210   -0.3904    0.2490 C   0  0  0  0  0  0  0  0  0  0  0  0
   -1.9032    0.0647    0.9948 C   0  0  0  0  0  0  0  0  0  0  0  0
   -0.7542   -0.6956    0.6549 O   0  0  0  0  0  0  0  0  0  0  0  0
   -0.2322   -0.4188   -0.6132 C   0  0  0  0  0  0  0  0  0  0  0  0
    0.2572    0.8585   -0.7570 O   0  0  0  0  0  0  0  0  0  0  0  0
   -3.6112    1.4441   -0.6520 H   0  0  0  0  0  0  0  0  0  0  0  0
   -4.7416    0.0301   -1.0274 H   0  0  0  0  0  0  0  0  0  0  0  0
   -3.3782   -1.4398    0.3622 H   0  0  0  0  0  0  0  0  0  0  0  0
   -2.0403   -0.0878    2.0670 H   0  0  0  0  0  0  0  0  0  0  0  0
   -1.7233    1.1304    0.8221 H   0  0  0  0  0  0  0  0  0  0  0  0
   -1.0098   -0.5055   -1.3892 H   0  0  0  0  0  0  0  0  0  0  0  0
    0.5348   -1.1782   -0.7855 H   0  0  0  0  0  0  0  0  0  0  0  0
    1.2980    0.9383   -0.1218 H   0  0  0  0  0  0  0  0  0  0  0  0
  1  2  1  0
  1  4  1  0
  2  3  2  3
  3  5  1  0
  6  7  2  3
  6 12  1  0
  6 13  1  0
  7  8  1  0
  7 14  1  0
  8  9  1  0
  8 15  1  0
  8 16  1  0
  9 10  1  0
 10 11  1  0
 10 17  1  0
 10 18  1  0
 11 19  1  0
M  RAD  1   3   2
M  END
>  <reaction>  (4) 
rmg_rxn_15450

>  <mol_properties>  (4) 
{"1": {"label": "*4", "atom_type": "N3d"}, "2": {"label": "*3", "atom_type": "Cd"}, "9": {"label": "*0", "atom_type": "Cs"}, "10": {"label": "*1", "atom_type": "O2s"}, "18": {"label": "*2", "atom_type": "H0"}}

>  <type>  (4) 
ts

$$$$
