
     RDKit          3D

  5  4  0  0  0  0  0  0  0  0999 V2000
   -0.4583    0.0384    0.1517 N   0  0  0  0  0  0  0  0  0  0  0  0
    0.7454   -0.3487    0.5322 N   0  0  0  0  0  0  0  0  0  0  0  0
    0.7566   -1.0388    1.5193 O   0  0  0  0  0  0  0  0  0  0  0  0
   -1.2688   -0.2521    0.6850 H   0  0  0  0  0  0  0  0  0  0  0  0
   -0.5137    0.6154   -0.6670 H   0  0  0  0  0  0  0  0  0  0  0  0
  1  2  1  0
  1  4  1  0
  1  5  1  0
  2  3  2  0
M  END
>  <reaction>  (1) 
rmg_rxn_16654

>  <mol_properties>  (1) 
{"0": {"label": "donator", "atom_type": "N3s"}, "3": {"label": "d_hydrogen", "atom_type": "H0"}}

>  <type>  (1) 
r1h

$$$$

     RDKit          3D

  7  6  0  0  0  0  0  0  0  0999 V2000
   -0.8566   -0.1293   -0.1363 C   0  0  0  0  0  0  0  0  0  0  0  0
    0.5139   -0.3681    0.3798 C   0  0  0  0  0  3  0  0  0  0  0  0
    1.4482    0.4197    0.5295 N   0  0  0  0  0  0  0  0  0  0  0  0
   -1.0339   -0.7591   -1.0090 H   0  0  0  0  0  0  0  0  0  0  0  0
   -1.5877   -0.4123    0.6220 H   0  0  0  0  0  0  0  0  0  0  0  0
   -0.9972    0.9210   -0.4074 H   0  0  0  0  0  0  0  0  0  0  0  0
    2.3183    0.0492    0.9037 H   0  0  0  0  0  0  0  0  0  0  0  0
  1  2  1  0
  1  4  1  0
  1  5  1  0
  1  6  1  0
  2  3  2  3
  3  7  1  0
M  RAD  1   2   2
M  END
>  <reaction>  (2) 
rmg_rxn_16654

>  <mol_properties>  (2) 
{"1": {"label": "acceptor", "atom_type": "Cd"}}

>  <type>  (2) 
r2

$$$$

     RDKit          3D

  8  7  0  0  0  0  0  0  0  0999 V2000
    0.9548    0.1194   -0.0790 C   0  0  0  0  0  0  0  0  0  0  0  0
   -0.4838   -0.2649    0.0193 C   0  0  0  0  0  0  0  0  0  0  0  0
   -0.8933   -1.1081    0.8664 N   0  0  0  0  0  0  0  0  0  0  0  0
    1.3360   -0.0983   -1.0800 H   0  0  0  0  0  0  0  0  0  0  0  0
    1.0698    1.1948    0.0786 H   0  0  0  0  0  0  0  0  0  0  0  0
    1.5426   -0.4219    0.6602 H   0  0  0  0  0  0  0  0  0  0  0  0
   -1.1575    0.2324   -0.6905 H   0  0  0  0  0  0  0  0  0  0  0  0
   -1.8989   -1.2455    0.7886 H   0  0  0  0  0  0  0  0  0  0  0  0
  1  2  1  0
  1  4  1  0
  1  5  1  0
  1  6  1  0
  2  3  2  3
  2  7  1  0
  3  8  1  0
M  END
>  <reaction>  (3) 
rmg_rxn_16654

>  <mol_properties>  (3) 
{"0": {"label": "a_hydrogen", "atom_type": "H0"}, "2": {"label": "acceptor", "atom_type": "Cd"}}

>  <type>  (3) 
r2h

$$$$

     RDKit          3D

 12 10  0  0  0  0  0  0  0  0999 V2000
    0.9836    1.1004   -0.4652 N   0  0  0  0  0  0  0  0  0  0  0  0
    1.8979    0.4252    0.1254 N   0  0  0  0  0  0  0  0  0  0  0  0
    1.5773   -0.3714    0.9763 O   0  0  0  0  0  0  0  0  0  0  0  0
   -0.2251    0.6306   -0.2722 H   0  0  0  0  0  0  0  0  0  0  0  0
    1.3306    1.6232   -1.2610 H   0  0  0  0  0  0  0  0  0  0  0  0
   -1.4311   -1.3820   -0.4552 C   0  0  0  0  0  0  0  0  0  0  0  0
   -1.3785    0.0294    0.0127 C   0  0  0  0  0  3  0  0  0  0  0  0
   -2.2588    0.6569    0.6180 N   0  0  0  0  0  0  0  0  0  0  0  0
   -2.4065   -1.8211   -0.2449 H   0  0  0  0  0  0  0  0  0  0  0  0
   -1.2247   -1.4270   -1.5258 H   0  0  0  0  0  0  0  0  0  0  0  0
   -0.6460   -1.9433    0.0539 H   0  0  0  0  0  0  0  0  0  0  0  0
   -2.0295    1.6102    0.8873 H   0  0  0  0  0  0  0  0  0  0  0  0
  1  2  1  0
  1  4  1  0
  1  5  1  0
  2  3  2  0
  6  7  1  0
  6  9  1  0
  6 10  1  0
  6 11  1  0
  7  8  2  3
  8 12  1  0
M  RAD  1   7   2
M  END
>  <reaction>  (4) 
rmg_rxn_16654

>  <mol_properties>  (4) 
{"0": {"label": "*1", "atom_type": "N3s"}, "1": {"label": "*0", "atom_type": "N3d"}, "3": {"label": "*2", "atom_type": "H0"}, "6": {"label": "*3", "atom_type": "Cd"}, "7": {"label": "*4", "atom_type": "N3d"}}

>  <type>  (4) 
ts

$$$$
