
     RDKit          3D

 21 21  0  0  0  0  0  0  0  0999 V2000
    3.6134   -0.5397    0.5524 C   0  0  0  0  0  0  0  0  0  0  0  0
    2.4069    0.0144   -0.1346 C   0  0  0  0  0  0  0  0  0  0  0  0
    1.2502    0.2817    0.4539 C   0  0  0  0  0  0  0  0  0  0  0  0
    0.0328    0.8413   -0.2413 C   0  0  0  0  0  0  0  0  0  0  0  0
   -0.3305    2.1846    0.3335 C   0  0  0  0  0  0  0  0  0  0  0  0
   -1.4888    2.4541    0.9167 C   0  0  0  0  0  0  0  0  0  0  0  0
   -2.5976    1.4577    1.0560 C   0  0  0  0  0  0  0  0  0  0  0  0
   -2.2732    0.1386    0.4266 C   0  0  0  0  0  0  0  0  0  0  0  0
   -1.1146   -0.1300   -0.1564 C   0  0  0  0  0  0  0  0  0  0  0  0
    3.9131   -1.4926    0.1084 H   0  0  0  0  0  0  0  0  0  0  0  0
    4.4655    0.1379    0.4536 H   0  0  0  0  0  0  0  0  0  0  0  0
    3.4270   -0.7014    1.6147 H   0  0  0  0  0  0  0  0  0  0  0  0
    2.5051    0.2069   -1.2012 H   0  0  0  0  0  0  0  0  0  0  0  0
    1.1312    0.0964    1.5197 H   0  0  0  0  0  0  0  0  0  0  0  0
    0.2976    0.9752   -1.2978 H   0  0  0  0  0  0  0  0  0  0  0  0
    0.4326    2.9530    0.2666 H   0  0  0  0  0  0  0  0  0  0  0  0
   -1.6671    3.4467    1.3168 H   0  0  0  0  0  0  0  0  0  0  0  0
   -2.8369    1.3143    2.1168 H   0  0  0  0  0  0  0  0  0  0  0  0
   -3.5159    1.8624    0.6138 H   0  0  0  0  0  0  0  0  0  0  0  0
   -3.0457   -0.6226    0.4554 H   0  0  0  0  0  0  0  0  0  0  0  0
   -0.9431   -1.1083   -0.5931 H   0  0  0  0  0  0  0  0  0  0  0  0
  1  2  1  0
  1 10  1  0
  1 11  1  0
  1 12  1  0
  2  3  2  3
  2 13  1  0
  3  4  1  0
  3 14  1  0
  4  5  1  0
  4  9  1  0
  4 15  1  0
  5  6  2  0
  5 16  1  0
  6  7  1  0
  6 17  1  0
  7  8  1  0
  7 18  1  0
  7 19  1  0
  8  9  2  0
  8 20  1  0
  9 21  1  0
M  END
>  <reaction>  (1) 
rmg_rxn_15540

>  <mol_properties>  (1) 
{"6": {"label": "donator", "atom_type": "Cs"}, "17": {"label": "d_hydrogen", "atom_type": "H0"}}

>  <type>  (1) 
r1h

$$$$

     RDKit          3D

  5  4  0  0  0  0  0  0  0  0999 V2000
    0.8934    0.3742    0.4948 O   0  0  0  0  0  0  0  0  0  0  0  0
    0.1582   -0.1610   -0.5904 N   0  0  0  0  0  0  0  0  0  0  0  0
   -1.0297   -0.3739   -0.4689 C   0  0  0  0  0  3  0  0  0  0  0  0
    1.7805    0.4382    0.1306 H   0  0  0  0  0  0  0  0  0  0  0  0
   -1.8023   -0.2775    0.2859 H   0  0  0  0  0  0  0  0  0  0  0  0
  1  2  1  0
  1  4  1  0
  2  3  2  3
  3  5  1  0
M  RAD  1   3   2
M  END
>  <reaction>  (2) 
rmg_rxn_15540

>  <mol_properties>  (2) 
{"2": {"label": "acceptor", "atom_type": "Cd"}}

>  <type>  (2) 
r2

$$$$

     RDKit          3D

  6  5  0  0  0  0  0  0  0  0999 V2000
    1.2314    0.0428    0.5088 O   0  0  0  0  0  0  0  0  0  0  0  0
    0.2987    0.2341   -0.4915 N   0  0  0  0  0  0  0  0  0  0  0  0
   -0.8599   -0.1122   -0.1290 C   0  0  0  0  0  0  0  0  0  0  0  0
    2.0507    0.3401    0.1082 H   0  0  0  0  0  0  0  0  0  0  0  0
   -1.0700   -0.5112    0.8610 H   0  0  0  0  0  0  0  0  0  0  0  0
   -1.6509    0.0064   -0.8574 H   0  0  0  0  0  0  0  0  0  0  0  0
  1  2  1  0
  1  4  1  0
  2  3  2  3
  3  5  1  0
  3  6  1  0
M  END
>  <reaction>  (3) 
rmg_rxn_15540

>  <mol_properties>  (3) 
{"2": {"label": "acceptor", "atom_type": "Cd"}, "5": {"label": "a_hydrogen", "atom_type": "H0"}}

>  <type>  (3) 
r2h

$$$$

     RDKit          3D

 26 25  0  0  0  0  0  0  0  0999 V2000
   -1.7772   -3.2634   -0.0561 O   0  0  0  0  0  0  0  0  0  0  0  0
   -1.6069   -1.8673   -0.0397 N   0  0  0  0  0  0  0  0  0  0  0  0
   -2.6471   -1.2034   -0.0436 C   0  0  0  0  0  3  0  0  0  0  0  0
   -0.8725   -3.5851   -0.0500 H   0  0  0  0  0  0  0  0  0  0  0  0
   -3.6882   -1.5221   -0.0578 H   0  0  0  0  0  0  0  0  0  0  0  0
    3.6137   -1.5969    0.0177 C   0  0  0  0  0  0  0  0  0  0  0  0
    2.9923   -0.2370    0.0255 C   0  0  0  0  0  0  0  0  0  0  0  0
    1.6890    0.0013    0.0144 C   0  0  0  0  0  0  0  0  0  0  0  0
    1.0614    1.3772    0.0223 C   0  0  0  0  0  0  0  0  0  0  0  0
    0.2259    1.5540    1.2605 C   0  0  0  0  0  0  0  0  0  0  0  0
   -1.1015    1.5977    1.2438 C   0  0  0  0  0  0  0  0  0  0  0  0
   -1.8819    1.4709   -0.0075 C   0  0  0  0  0  0  0  0  0  0  0  0
   -1.0755    1.6238   -1.2392 C   0  0  0  0  0  0  0  0  0  0  0  0
    0.2519    1.5801   -1.2291 C   0  0  0  0  0  0  0  0  0  0  0  0
    4.2402   -1.7472    0.9009 H   0  0  0  0  0  0  0  0  0  0  0  0
    2.8538   -2.3793    0.0015 H   0  0  0  0  0  0  0  0  0  0  0  0
    4.2585   -1.7287   -0.8551 H   0  0  0  0  0  0  0  0  0  0  0  0
    3.6792    0.6069    0.0415 H   0  0  0  0  0  0  0  0  0  0  0  0
    0.9749   -0.8195   -0.0017 H   0  0  0  0  0  0  0  0  0  0  0  0
    1.8772    2.1096    0.0385 H   0  0  0  0  0  0  0  0  0  0  0  0
    0.7628    1.6196    2.2003 H   0  0  0  0  0  0  0  0  0  0  0  0
   -1.6515    1.7010    2.1723 H   0  0  0  0  0  0  0  0  0  0  0  0
   -2.3185    0.3500   -0.0238 H   0  0  0  0  0  0  0  0  0  0  0  0
   -2.7924    2.0735   -0.0107 H   0  0  0  0  0  0  0  0  0  0  0  0
   -1.6060    1.7467   -2.1766 H   0  0  0  0  0  0  0  0  0  0  0  0
    0.8083    1.6654   -2.1559 H   0  0  0  0  0  0  0  0  0  0  0  0
  1  2  1  0
  1  4  1  0
  2  3  2  3
  3  5  1  0
  6  7  1  0
  6 15  1  0
  6 16  1  0
  6 17  1  0
  7  8  2  3
  7 18  1  0
  8  9  1  0
  8 19  1  0
  9 10  1  0
  9 14  1  0
  9 20  1  0
 10 11  2  0
 10 21  1  0
 11 12  1  0
 11 22  1  0
 12 13  1  0
 12 23  1  0
 12 24  1  0
 13 14  2  0
 13 25  1  0
 14 26  1  0
M  RAD  1   3   2
M  END
>  <reaction>  (4) 
rmg_rxn_15540

>  <mol_properties>  (4) 
{"1": {"label": "*4", "atom_type": "N3d"}, "2": {"label": "*3", "atom_type": "Cd"}, "10": {"label": "*0", "atom_type": "Cd"}, "11": {"label": "*1", "atom_type": "Cs"}, "22": {"label": "*2", "atom_type": "H0"}}

>  <type>  (4) 
ts

$$$$
