
     RDKit          3D

  6  5  0  0  0  0  0  0  0  0999 V2000
    1.2314    0.0428    0.5088 O   0  0  0  0  0  0  0  0  0  0  0  0
    0.2987    0.2341   -0.4915 N   0  0  0  0  0  0  0  0  0  0  0  0
   -0.8599   -0.1122   -0.1290 C   0  0  0  0  0  0  0  0  0  0  0  0
    2.0507    0.3401    0.1082 H   0  0  0  0  0  0  0  0  0  0  0  0
   -1.0700   -0.5112    0.8610 H   0  0  0  0  0  0  0  0  0  0  0  0
   -1.6509    0.0064   -0.8574 H   0  0  0  0  0  0  0  0  0  0  0  0
  1  2  1  0
  1  4  1  0
  2  3  2  3
  3  5  1  0
  3  6  1  0
M  END
>  <reaction>  (1) 
rmg_rxn_15379

>  <mol_properties>  (1) 
{"2": {"label": "donator", "atom_type": "Cd"}, "4": {"label": "d_hydrogen", "atom_type": "H0"}}

>  <type>  (1) 
r1h

$$$$

     RDKit          3D

  2  1  0  0  0  0  0  0  0  0999 V2000
    0.0000    0.0000    0.4855 O   0  0  0  0  0  1  0  0  0  0  0  0
    0.0000    0.0000   -0.4855 H   0  0  0  0  0  0  0  0  0  0  0  0
  1  2  1  0
M  RAD  1   1   2
M  END
>  <reaction>  (2) 
rmg_rxn_15379

>  <mol_properties>  (2) 
{"0": {"label": "acceptor", "atom_type": "O2s"}}

>  <type>  (2) 
r2

$$$$

     RDKit          3D

  3  2  0  0  0  0  0  0  0  0999 V2000
   -0.0003    0.3867    0.0000 O   0  0  0  0  0  0  0  0  0  0  0  0
   -0.7617   -0.1940    0.0000 H   0  0  0  0  0  0  0  0  0  0  0  0
    0.7620   -0.1927    0.0000 H   0  0  0  0  0  0  0  0  0  0  0  0
  1  2  1  0
  1  3  1  0
M  END
>  <reaction>  (3) 
rmg_rxn_15379

>  <mol_properties>  (3) 
{"0": {"label": "acceptor", "atom_type": "O2s"}, "2": {"label": "a_hydrogen", "atom_type": "H0"}}

>  <type>  (3) 
r2h

$$$$

     RDKit          3D

  8  6  0  0  0  0  0  0  0  0999 V2000
   -1.8870   -0.2615   -0.0850 O   0  0  0  0  0  1  0  0  0  0  0  0
   -2.1578   -0.0909    0.8290 H   0  0  0  0  0  0  0  0  0  0  0  0
    0.7824   -1.0441    0.0199 O   0  0  0  0  0  0  0  0  0  0  0  0
    1.1097    0.2564    0.0639 N   0  0  0  0  0  0  0  0  0  0  0  0
    0.2204    1.1300   -0.0313 C   0  0  0  0  0  0  0  0  0  0  0  0
   -0.2003   -1.0962   -0.0387 H   0  0  0  0  0  0  0  0  0  0  0  0
   -0.8905    0.7690   -0.2051 H   0  0  0  0  0  0  0  0  0  0  0  0
    0.4496    2.1860    0.0411 H   0  0  0  0  0  0  0  0  0  0  0  0
  1  2  1  0
  3  4  1  0
  3  6  1  0
  4  5  2  3
  5  7  1  0
  5  8  1  0
M  RAD  1   1   2
M  END
>  <reaction>  (4) 
rmg_rxn_15379

>  <mol_properties>  (4) 
{"0": {"label": "*3", "atom_type": "O2s"}, "1": {"label": "*4", "atom_type": "H0"}, "3": {"label": "*0", "atom_type": "N3d"}, "4": {"label": "*1", "atom_type": "Cd"}, "6": {"label": "*2", "atom_type": "H0"}}

>  <type>  (4) 
ts

$$$$
