
     RDKit          3D

 14 14  0  0  0  0  0  0  0  0999 V2000
   -1.1778    0.2241    0.1818 C   0  0  0  0  0  0  0  0  0  0  0  0
   -0.5633   -1.1636    0.0678 C   0  0  0  0  0  0  0  0  0  0  0  0
    0.6943   -1.1996    0.7146 O   0  0  0  0  0  0  0  0  0  0  0  0
    1.5547   -0.2288    0.2011 C   0  0  0  0  0  0  0  0  0  0  0  0
    1.0729    1.0696    0.3698 O   0  0  0  0  0  0  0  0  0  0  0  0
   -0.1607    1.2493   -0.2989 C   0  0  0  0  0  0  0  0  0  0  0  0
   -2.0927    0.2866   -0.4117 H   0  0  0  0  0  0  0  0  0  0  0  0
   -1.4303    0.4248    1.2248 H   0  0  0  0  0  0  0  0  0  0  0  0
   -1.1822   -1.9235    0.5431 H   0  0  0  0  0  0  0  0  0  0  0  0
   -0.4389   -1.4347   -0.9919 H   0  0  0  0  0  0  0  0  0  0  0  0
    1.7250   -0.4207   -0.8742 H   0  0  0  0  0  0  0  0  0  0  0  0
    2.4896   -0.3010    0.7524 H   0  0  0  0  0  0  0  0  0  0  0  0
   -0.0080    1.1481   -1.3844 H   0  0  0  0  0  0  0  0  0  0  0  0
   -0.4826    2.2695   -0.0942 H   0  0  0  0  0  0  0  0  0  0  0  0
  1  2  1  0
  1  6  1  0
  1  7  1  0
  1  8  1  0
  2  3  1  0
  2  9  1  0
  2 10  1  0
  3  4  1  0
  4  5  1  0
  4 11  1  0
  4 12  1  0
  5  6  1  0
  6 13  1  0
  6 14  1  0
M  END
>  <reaction>  (1) 
rmg_rxn_292

>  <mol_properties>  (1) 
{"1": {"label": "donator", "atom_type": "Cs"}, "8": {"label": "d_hydrogen", "atom_type": "H0"}}

>  <type>  (1) 
r1h

$$$$

     RDKit          3D

 17 16  0  0  0  0  0  0  0  0999 V2000
   -3.2378    0.0781    0.0468 C   0  0  0  0  0  0  0  0  0  0  0  0
   -1.9072   -0.5430    0.2348 C   0  0  0  0  0  3  0  0  0  0  0  0
   -1.5607   -0.7743    1.5229 O   0  0  0  0  0  0  0  0  0  0  0  0
   -0.2678   -1.3170    1.7206 C   0  0  0  0  0  0  0  0  0  0  0  0
    0.0055   -1.4164    3.2061 C   0  0  0  0  0  0  0  0  0  0  0  0
    0.0347   -0.0632    3.9042 C   0  0  0  0  0  0  0  0  0  0  0  0
   -3.2816    1.0982    0.4537 H   0  0  0  0  0  0  0  0  0  0  0  0
   -3.4818    0.1310   -1.0144 H   0  0  0  0  0  0  0  0  0  0  0  0
   -4.0139   -0.5033    0.5509 H   0  0  0  0  0  0  0  0  0  0  0  0
   -1.0896   -0.3480   -0.4562 H   0  0  0  0  0  0  0  0  0  0  0  0
   -0.2142   -2.3036    1.2476 H   0  0  0  0  0  0  0  0  0  0  0  0
    0.4751   -0.6679    1.2371 H   0  0  0  0  0  0  0  0  0  0  0  0
   -0.7555   -2.0574    3.6583 H   0  0  0  0  0  0  0  0  0  0  0  0
    0.9642   -1.9267    3.3334 H   0  0  0  0  0  0  0  0  0  0  0  0
   -0.9209    0.4499    3.7952 H   0  0  0  0  0  0  0  0  0  0  0  0
    0.2399   -0.1765    4.9695 H   0  0  0  0  0  0  0  0  0  0  0  0
    0.8109    0.5782    3.4796 H   0  0  0  0  0  0  0  0  0  0  0  0
  1  2  1  0
  1  7  1  0
  1  8  1  0
  1  9  1  0
  2  3  1  0
  2 10  1  0
  3  4  1  0
  4  5  1  0
  4 11  1  0
  4 12  1  0
  5  6  1  0
  5 13  1  0
  5 14  1  0
  6 15  1  0
  6 16  1  0
  6 17  1  0
M  RAD  1   2   2
M  END
>  <reaction>  (2) 
rmg_rxn_292

>  <mol_properties>  (2) 
{"1": {"label": "acceptor", "atom_type": "Cs"}}

>  <type>  (2) 
r2

$$$$

     RDKit          3D

 18 17  0  0  0  0  0  0  0  0999 V2000
    2.2026   -0.7213   -0.2612 C   0  0  0  0  0  0  0  0  0  0  0  0
    1.5384    0.2638    0.6915 C   0  0  0  0  0  0  0  0  0  0  0  0
    2.2584    1.5946    0.7694 C   0  0  0  0  0  0  0  0  0  0  0  0
    2.2212    2.2185   -0.4893 O   0  0  0  0  0  0  0  0  0  0  0  0
    2.8988    3.4488   -0.5204 C   0  0  0  0  0  0  0  0  0  0  0  0
    2.7981    4.0296   -1.9118 C   0  0  0  0  0  0  0  0  0  0  0  0
    3.2294   -0.9309    0.0486 H   0  0  0  0  0  0  0  0  0  0  0  0
    2.2338   -0.3181   -1.2734 H   0  0  0  0  0  0  0  0  0  0  0  0
    1.6610   -1.6680   -0.2875 H   0  0  0  0  0  0  0  0  0  0  0  0
    1.4990   -0.1566    1.7002 H   0  0  0  0  0  0  0  0  0  0  0  0
    0.5055    0.4455    0.3835 H   0  0  0  0  0  0  0  0  0  0  0  0
    3.3038    1.4410    1.0808 H   0  0  0  0  0  0  0  0  0  0  0  0
    1.7844    2.2410    1.5226 H   0  0  0  0  0  0  0  0  0  0  0  0
    2.4596    4.1376    0.2164 H   0  0  0  0  0  0  0  0  0  0  0  0
    3.9524    3.3035   -0.2397 H   0  0  0  0  0  0  0  0  0  0  0  0
    1.7543    4.1869   -2.1856 H   0  0  0  0  0  0  0  0  0  0  0  0
    3.2472    3.3545   -2.6411 H   0  0  0  0  0  0  0  0  0  0  0  0
    3.3178    4.9878   -1.9600 H   0  0  0  0  0  0  0  0  0  0  0  0
  1  2  1  0
  1  7  1  0
  1  8  1  0
  1  9  1  0
  2  3  1  0
  2 10  1  0
  2 11  1  0
  3  4  1  0
  3 12  1  0
  3 13  1  0
  4  5  1  0
  5  6  1  0
  5 14  1  0
  5 15  1  0
  6 16  1  0
  6 17  1  0
  6 18  1  0
M  END
>  <reaction>  (3) 
rmg_rxn_292

>  <mol_properties>  (3) 
{"0": {"label": "a_hydrogen", "atom_type": "H0"}, "2": {"label": "acceptor", "atom_type": "Cs"}}

>  <type>  (3) 
r2h

$$$$

     RDKit          3D

 31 30  0  0  0  0  0  0  0  0999 V2000
    1.3587    1.0425   -0.6268 C   0  0  0  0  0  0  0  0  0  0  0  0
    0.7135    1.2868    0.7118 C   0  0  0  0  0  3  0  0  0  0  0  0
   -0.5891    1.7804    0.5954 O   0  0  0  0  0  0  0  0  0  0  0  0
   -0.6491    2.9153   -0.2287 C   0  0  0  0  0  0  0  0  0  0  0  0
   -0.1859    2.6670   -1.5169 O   0  0  0  0  0  0  0  0  0  0  0  0
    1.1748    2.2763   -1.5075 C   0  0  0  0  0  0  0  0  0  0  0  0
    2.4192    0.8152   -0.5024 H   0  0  0  0  0  0  0  0  0  0  0  0
    0.8849    0.1831   -1.1087 H   0  0  0  0  0  0  0  0  0  0  0  0
    0.5384    0.0237    1.2989 H   0  0  0  0  0  0  0  0  0  0  0  0
    1.3135    1.8724    1.4182 H   0  0  0  0  0  0  0  0  0  0  0  0
   -0.0589    3.7274    0.2305 H   0  0  0  0  0  0  0  0  0  0  0  0
   -1.6964    3.1999   -0.3065 H   0  0  0  0  0  0  0  0  0  0  0  0
    1.7921    3.1059   -1.1330 H   0  0  0  0  0  0  0  0  0  0  0  0
    1.4509    2.0812   -2.5433 H   0  0  0  0  0  0  0  0  0  0  0  0
    1.7149   -1.6931    2.1533 C   0  0  0  0  0  0  0  0  0  0  0  0
    0.3894   -1.2356    1.6201 C   0  0  0  0  0  0  0  0  0  0  0  0
    0.0547   -1.9174    0.4675 O   0  0  0  0  0  0  0  0  0  0  0  0
   -1.2493   -1.6404   -0.0115 C   0  0  0  0  0  0  0  0  0  0  0  0
   -1.4601   -2.3733   -1.3187 C   0  0  0  0  0  0  0  0  0  0  0  0
   -1.3769   -3.8878   -1.1829 C   0  0  0  0  0  0  0  0  0  0  0  0
    2.4920   -1.5699    1.3964 H   0  0  0  0  0  0  0  0  0  0  0  0
    1.9894   -1.1056    3.0307 H   0  0  0  0  0  0  0  0  0  0  0  0
    1.6854   -2.7478    2.4389 H   0  0  0  0  0  0  0  0  0  0  0  0
   -0.4209   -1.2373    2.3598 H   0  0  0  0  0  0  0  0  0  0  0  0
   -1.9859   -1.9684    0.7362 H   0  0  0  0  0  0  0  0  0  0  0  0
   -1.3707   -0.5603   -0.1478 H   0  0  0  0  0  0  0  0  0  0  0  0
   -2.4396   -2.0827   -1.7080 H   0  0  0  0  0  0  0  0  0  0  0  0
   -0.7185   -2.0191   -2.0399 H   0  0  0  0  0  0  0  0  0  0  0  0
   -2.1312   -4.2579   -0.4842 H   0  0  0  0  0  0  0  0  0  0  0  0
   -1.5415   -4.3778   -2.1436 H   0  0  0  0  0  0  0  0  0  0  0  0
   -0.3983   -4.1903   -0.8098 H   0  0  0  0  0  0  0  0  0  0  0  0
  1  2  1  0
  1  6  1  0
  1  7  1  0
  1  8  1  0
  2  3  1  0
  2 10  1  0
  3  4  1  0
  4  5  1  0
  4 11  1  0
  4 12  1  0
  5  6  1  0
  6 13  1  0
  6 14  1  0
  9 16  1  0
 15 16  1  0
 15 21  1  0
 15 22  1  0
 15 23  1  0
 16 17  1  0
 16 24  1  0
 17 18  1  0
 18 19  1  0
 18 25  1  0
 18 26  1  0
 19 20  1  0
 19 27  1  0
 19 28  1  0
 20 29  1  0
 20 30  1  0
 20 31  1  0
M  RAD  1   2   2
M  END
>  <reaction>  (4) 
rmg_rxn_292

>  <mol_properties>  (4) 
{"1": {"label": "*3", "atom_type": "Cs"}, "2": {"label": "*4", "atom_type": "O2s"}, "8": {"label": "*2", "atom_type": "H0"}, "15": {"label": "*1", "atom_type": "Cs"}, "16": {"label": "*0", "atom_type": "O2s"}}

>  <type>  (4) 
ts

$$$$
