
     RDKit          3D

 18 17  0  0  0  0  0  0  0  0999 V2000
    2.2026   -0.7213   -0.2612 C   0  0  0  0  0  0  0  0  0  0  0  0
    1.5384    0.2638    0.6915 C   0  0  0  0  0  0  0  0  0  0  0  0
    2.2584    1.5946    0.7694 C   0  0  0  0  0  0  0  0  0  0  0  0
    2.2212    2.2185   -0.4893 O   0  0  0  0  0  0  0  0  0  0  0  0
    2.8988    3.4488   -0.5204 C   0  0  0  0  0  0  0  0  0  0  0  0
    2.7981    4.0296   -1.9118 C   0  0  0  0  0  0  0  0  0  0  0  0
    3.2294   -0.9309    0.0486 H   0  0  0  0  0  0  0  0  0  0  0  0
    2.2338   -0.3181   -1.2734 H   0  0  0  0  0  0  0  0  0  0  0  0
    1.6610   -1.6680   -0.2875 H   0  0  0  0  0  0  0  0  0  0  0  0
    1.4990   -0.1566    1.7002 H   0  0  0  0  0  0  0  0  0  0  0  0
    0.5055    0.4455    0.3835 H   0  0  0  0  0  0  0  0  0  0  0  0
    3.3038    1.4410    1.0808 H   0  0  0  0  0  0  0  0  0  0  0  0
    1.7844    2.2410    1.5226 H   0  0  0  0  0  0  0  0  0  0  0  0
    2.4596    4.1376    0.2164 H   0  0  0  0  0  0  0  0  0  0  0  0
    3.9524    3.3035   -0.2397 H   0  0  0  0  0  0  0  0  0  0  0  0
    1.7543    4.1869   -2.1856 H   0  0  0  0  0  0  0  0  0  0  0  0
    3.2472    3.3545   -2.6411 H   0  0  0  0  0  0  0  0  0  0  0  0
    3.3178    4.9878   -1.9600 H   0  0  0  0  0  0  0  0  0  0  0  0
  1  2  1  0
  1  7  1  0
  1  8  1  0
  1  9  1  0
  2  3  1  0
  2 10  1  0
  2 11  1  0
  3  4  1  0
  3 12  1  0
  3 13  1  0
  4  5  1  0
  5  6  1  0
  5 14  1  0
  5 15  1  0
  6 16  1  0
  6 17  1  0
  6 18  1  0
M  END
>  <reaction>  (1) 
rmg_rxn_311

>  <mol_properties>  (1) 
{"5": {"label": "donator", "atom_type": "Cs"}, "15": {"label": "d_hydrogen", "atom_type": "H0"}}

>  <type>  (1) 
r1h

$$$$

     RDKit          3D

 11 10  0  0  0  0  0  0  0  0999 V2000
   -1.2230    0.3768   -0.0849 C   0  0  0  0  0  0  0  0  0  0  0  0
   -0.0734   -0.5533    0.2746 C   0  0  0  0  0  0  0  0  0  0  0  0
   -0.0853   -1.8426   -0.5372 C   0  0  0  0  0  0  0  0  0  0  0  0
    0.0319   -1.6944   -1.8815 O   0  0  0  0  0  1  0  0  0  0  0  0
   -2.1874   -0.0885    0.1341 H   0  0  0  0  0  0  0  0  0  0  0  0
   -1.1670    1.3099    0.4765 H   0  0  0  0  0  0  0  0  0  0  0  0
   -1.2014    0.6189   -1.1483 H   0  0  0  0  0  0  0  0  0  0  0  0
    0.8834   -0.0518    0.1071 H   0  0  0  0  0  0  0  0  0  0  0  0
   -0.1104   -0.8149    1.3362 H   0  0  0  0  0  0  0  0  0  0  0  0
    0.6767   -2.5604   -0.1861 H   0  0  0  0  0  0  0  0  0  0  0  0
   -1.0401   -2.3871   -0.3877 H   0  0  0  0  0  0  0  0  0  0  0  0
  1  2  1  0
  1  5  1  0
  1  6  1  0
  1  7  1  0
  2  3  1  0
  2  8  1  0
  2  9  1  0
  3  4  1  0
  3 10  1  0
  3 11  1  0
M  RAD  1   4   2
M  END
>  <reaction>  (2) 
rmg_rxn_311

>  <mol_properties>  (2) 
{"3": {"label": "acceptor", "atom_type": "O2s"}}

>  <type>  (2) 
r2

$$$$

     RDKit          3D

 12 11  0  0  0  0  0  0  0  0999 V2000
   -1.4643   -0.2505   -0.5284 C   0  0  0  0  0  0  0  0  0  0  0  0
   -0.3946    0.4302    0.3143 C   0  0  0  0  0  0  0  0  0  0  0  0
   -0.5959    0.2382    1.8102 C   0  0  0  0  0  0  0  0  0  0  0  0
   -0.5633   -1.1190    2.2092 O   0  0  0  0  0  0  0  0  0  0  0  0
   -2.4511    0.1644   -0.3109 H   0  0  0  0  0  0  0  0  0  0  0  0
   -1.5019   -1.3198   -0.3181 H   0  0  0  0  0  0  0  0  0  0  0  0
   -1.2720   -0.1182   -1.5941 H   0  0  0  0  0  0  0  0  0  0  0  0
    0.5965    0.0515    0.0385 H   0  0  0  0  0  0  0  0  0  0  0  0
   -0.3776    1.5047    0.1078 H   0  0  0  0  0  0  0  0  0  0  0  0
   -1.5821    0.6048    2.1034 H   0  0  0  0  0  0  0  0  0  0  0  0
    0.1495    0.8220    2.3649 H   0  0  0  0  0  0  0  0  0  0  0  0
    0.3017   -1.4750    1.9997 H   0  0  0  0  0  0  0  0  0  0  0  0
  1  2  1  0
  1  5  1  0
  1  6  1  0
  1  7  1  0
  2  3  1  0
  2  8  1  0
  2  9  1  0
  3  4  1  0
  3 10  1  0
  3 11  1  0
  4 12  1  0
M  END
>  <reaction>  (3) 
rmg_rxn_311

>  <mol_properties>  (3) 
{"3": {"label": "acceptor", "atom_type": "O2s"}, "11": {"label": "a_hydrogen", "atom_type": "H0"}}

>  <type>  (3) 
r2h

$$$$

     RDKit          3D

 29 27  0  0  0  0  0  0  0  0999 V2000
   -1.7518   -1.6176   -0.0180 C   0  0  0  0  0  0  0  0  0  0  0  0
   -1.9729   -0.4002   -0.9017 C   0  0  0  0  0  0  0  0  0  0  0  0
   -2.7470    0.7122   -0.2062 C   0  0  0  0  0  0  0  0  0  0  0  0
   -2.1680    1.1721    0.9786 O   0  0  0  0  0  0  0  0  0  0  0  0
   -2.7020   -2.0601    0.2917 H   0  0  0  0  0  0  0  0  0  0  0  0
   -1.1792   -2.3835   -0.5444 H   0  0  0  0  0  0  0  0  0  0  0  0
   -1.1993   -1.3367    0.8787 H   0  0  0  0  0  0  0  0  0  0  0  0
   -1.0046   -0.0063   -1.2209 H   0  0  0  0  0  0  0  0  0  0  0  0
   -2.5218   -0.6790   -1.8067 H   0  0  0  0  0  0  0  0  0  0  0  0
   -2.9311    1.5418   -0.9028 H   0  0  0  0  0  0  0  0  0  0  0  0
   -3.7345    0.3401    0.1013 H   0  0  0  0  0  0  0  0  0  0  0  0
    1.9288   -1.8519   -1.5449 C   0  0  0  0  0  0  0  0  0  0  0  0
    2.0434   -1.8547   -0.0267 C   0  0  0  0  0  0  0  0  0  0  0  0
    2.2103   -0.4702    0.5649 C   0  0  0  0  0  0  0  0  0  0  0  0
    1.1108    0.3263    0.1960 O   0  0  0  0  0  0  0  0  0  0  0  0
    1.0914    1.5820    0.8154 C   0  0  0  0  0  0  0  0  0  0  0  0
   -0.0757    2.3692    0.3089 C   0  0  0  0  0  3  0  0  0  0  0  0
    2.8062   -1.3899   -2.0044 H   0  0  0  0  0  0  0  0  0  0  0  0
    1.0495   -1.2929   -1.8655 H   0  0  0  0  0  0  0  0  0  0  0  0
    1.8439   -2.8686   -1.9311 H   0  0  0  0  0  0  0  0  0  0  0  0
    2.9011   -2.4565    0.2860 H   0  0  0  0  0  0  0  0  0  0  0  0
    1.1551   -2.3154    0.4118 H   0  0  0  0  0  0  0  0  0  0  0  0
    3.1420   -0.0076    0.2035 H   0  0  0  0  0  0  0  0  0  0  0  0
    2.2765   -0.5336    1.6601 H   0  0  0  0  0  0  0  0  0  0  0  0
    1.0346    1.4703    1.9077 H   0  0  0  0  0  0  0  0  0  0  0  0
    2.0255    2.1281    0.5965 H   0  0  0  0  0  0  0  0  0  0  0  0
   -1.1323    1.7616    0.6837 H   0  0  0  0  0  0  0  0  0  0  0  0
   -0.1466    2.4071   -0.7768 H   0  0  0  0  0  0  0  0  0  0  0  0
   -0.1762    3.3504    0.7685 H   0  0  0  0  0  0  0  0  0  0  0  0
  1  2  1  0
  1  5  1  0
  1  6  1  0
  1  7  1  0
  2  3  1  0
  2  8  1  0
  2  9  1  0
  3  4  1  0
  3 10  1  0
  3 11  1  0
  4 27  1  0
 12 13  1  0
 12 18  1  0
 12 19  1  0
 12 20  1  0
 13 14  1  0
 13 21  1  0
 13 22  1  0
 14 15  1  0
 14 23  1  0
 14 24  1  0
 15 16  1  0
 16 17  1  0
 16 25  1  0
 16 26  1  0
 17 28  1  0
 17 29  1  0
M  RAD  1  17   2
M  END
>  <reaction>  (4) 
rmg_rxn_311

>  <mol_properties>  (4) 
{"2": {"label": "*0", "atom_type": "Cs"}, "3": {"label": "*1", "atom_type": "O2s"}, "15": {"label": "*4", "atom_type": "Cs"}, "16": {"label": "*3", "atom_type": "Cs"}, "26": {"label": "*2", "atom_type": "H0"}}

>  <type>  (4) 
ts

$$$$
