
     RDKit          3D

  9  8  0  0  0  0  0  0  0  0999 V2000
   -0.8818   -0.3578    0.1297 C   0  0  0  0  0  0  0  0  0  0  0  0
    0.6153   -0.3021   -0.1188 C   0  0  0  0  0  0  0  0  0  0  0  0
    1.5354   -1.7170    0.5545 S   0  0  0  0  0  0  0  0  0  0  0  0
   -1.1018   -0.3317    1.1984 H   0  0  0  0  0  0  0  0  0  0  0  0
   -1.3114   -1.2723   -0.2799 H   0  0  0  0  0  0  0  0  0  0  0  0
   -1.3767    0.4976   -0.3363 H   0  0  0  0  0  0  0  0  0  0  0  0
    1.0467    0.6194    0.2718 H   0  0  0  0  0  0  0  0  0  0  0  0
    0.8295   -0.3275   -1.1882 H   0  0  0  0  0  0  0  0  0  0  0  0
    1.2306   -1.5077    1.8423 H   0  0  0  0  0  0  0  0  0  0  0  0
  1  2  1  0
  1  4  1  0
  1  5  1  0
  1  6  1  0
  2  3  1  0
  2  7  1  0
  2  8  1  0
  3  9  1  0
M  END
>  <reaction>  (1) 
rmg_rxn_15491

>  <mol_properties>  (1) 
{"1": {"label": "donator", "atom_type": "Cs"}, "6": {"label": "d_hydrogen", "atom_type": "H0"}}

>  <type>  (1) 
r1h

$$$$

     RDKit          3D

  5  4  0  0  0  0  0  0  0  0999 V2000
    0.8934    0.3742    0.4948 O   0  0  0  0  0  0  0  0  0  0  0  0
    0.1582   -0.1610   -0.5904 N   0  0  0  0  0  0  0  0  0  0  0  0
   -1.0297   -0.3739   -0.4689 C   0  0  0  0  0  3  0  0  0  0  0  0
    1.7805    0.4382    0.1306 H   0  0  0  0  0  0  0  0  0  0  0  0
   -1.8023   -0.2775    0.2859 H   0  0  0  0  0  0  0  0  0  0  0  0
  1  2  1  0
  1  4  1  0
  2  3  2  3
  3  5  1  0
M  RAD  1   3   2
M  END
>  <reaction>  (2) 
rmg_rxn_15491

>  <mol_properties>  (2) 
{"2": {"label": "acceptor", "atom_type": "Cd"}}

>  <type>  (2) 
r2

$$$$

     RDKit          3D

  6  5  0  0  0  0  0  0  0  0999 V2000
    1.2314    0.0428    0.5088 O   0  0  0  0  0  0  0  0  0  0  0  0
    0.2987    0.2341   -0.4915 N   0  0  0  0  0  0  0  0  0  0  0  0
   -0.8599   -0.1122   -0.1290 C   0  0  0  0  0  0  0  0  0  0  0  0
    2.0507    0.3401    0.1082 H   0  0  0  0  0  0  0  0  0  0  0  0
   -1.0700   -0.5112    0.8610 H   0  0  0  0  0  0  0  0  0  0  0  0
   -1.6509    0.0064   -0.8574 H   0  0  0  0  0  0  0  0  0  0  0  0
  1  2  1  0
  1  4  1  0
  2  3  2  3
  3  5  1  0
  3  6  1  0
M  END
>  <reaction>  (3) 
rmg_rxn_15491

>  <mol_properties>  (3) 
{"2": {"label": "acceptor", "atom_type": "Cd"}, "5": {"label": "a_hydrogen", "atom_type": "H0"}}

>  <type>  (3) 
r2h

$$$$

     RDKit          3D

 14 12  0  0  0  0  0  0  0  0999 V2000
    2.7369   -1.9548    0.4134 O   0  0  0  0  0  0  0  0  0  0  0  0
    1.5420   -1.3988   -0.0686 N   0  0  0  0  0  0  0  0  0  0  0  0
    0.7977   -0.9358    0.8098 C   0  0  0  0  0  3  0  0  0  0  0  0
    3.1698   -2.2542   -0.3895 H   0  0  0  0  0  0  0  0  0  0  0  0
    0.9502   -0.9056    1.8885 H   0  0  0  0  0  0  0  0  0  0  0  0
   -1.0543    0.1442   -1.7866 C   0  0  0  0  0  0  0  0  0  0  0  0
   -1.4077    0.1384   -0.3197 C   0  0  0  0  0  0  0  0  0  0  0  0
   -1.7956    1.7101    0.4313 S   0  0  0  0  0  0  0  0  0  0  0  0
   -0.1901    0.7837   -1.9750 H   0  0  0  0  0  0  0  0  0  0  0  0
   -1.8881    0.5082   -2.3905 H   0  0  0  0  0  0  0  0  0  0  0  0
   -0.7968   -0.8649   -2.1124 H   0  0  0  0  0  0  0  0  0  0  0  0
   -0.4333   -0.3431    0.2735 H   0  0  0  0  0  0  0  0  0  0  0  0
   -2.2258   -0.5398   -0.0761 H   0  0  0  0  0  0  0  0  0  0  0  0
   -0.7253    2.3741   -0.0277 H   0  0  0  0  0  0  0  0  0  0  0  0
  1  2  1  0
  1  4  1  0
  2  3  2  3
  3  5  1  0
  6  7  1  0
  6  9  1  0
  6 10  1  0
  6 11  1  0
  7  8  1  0
  7 12  1  0
  7 13  1  0
  8 14  1  0
M  RAD  1   3   2
M  END
>  <reaction>  (4) 
rmg_rxn_15491

>  <mol_properties>  (4) 
{"1": {"label": "*4", "atom_type": "N3d"}, "2": {"label": "*3", "atom_type": "Cd"}, "6": {"label": "*1", "atom_type": "Cs"}, "7": {"label": "*0", "atom_type": "S2s"}, "11": {"label": "*2", "atom_type": "H0"}}

>  <type>  (4) 
ts

$$$$
