
     RDKit          3D

 14 13  0  0  0  0  0  0  0  0999 V2000
    2.1277    0.0527   -0.0768 C   0  0  0  0  0  0  0  0  0  0  0  0
    0.8550    0.0849    0.7591 C   0  0  0  0  0  0  0  0  0  0  0  0
    0.7150    1.3361    1.5963 C   0  0  0  0  0  0  0  0  0  0  0  0
    0.5975    2.4604    0.7083 O   0  0  0  0  0  0  0  0  0  0  0  0
    0.5113    3.6572    1.2782 C   0  0  0  0  0  0  0  0  0  0  0  0
    0.5224    3.8788    2.4534 O   0  0  0  0  0  0  0  0  0  0  0  0
    3.0138    0.1211    0.5584 H   0  0  0  0  0  0  0  0  0  0  0  0
    2.1544    0.8845   -0.7813 H   0  0  0  0  0  0  0  0  0  0  0  0
    2.1955   -0.8742   -0.6473 H   0  0  0  0  0  0  0  0  0  0  0  0
    0.8361   -0.7663    1.4449 H   0  0  0  0  0  0  0  0  0  0  0  0
   -0.0232   -0.0114    0.1158 H   0  0  0  0  0  0  0  0  0  0  0  0
   -0.1715    1.3001    2.2317 H   0  0  0  0  0  0  0  0  0  0  0  0
    1.5840    1.4884    2.2407 H   0  0  0  0  0  0  0  0  0  0  0  0
    0.4263    4.4265    0.4986 H   0  0  0  0  0  0  0  0  0  0  0  0
  1  2  1  0
  1  7  1  0
  1  8  1  0
  1  9  1  0
  2  3  1  0
  2 10  1  0
  2 11  1  0
  3  4  1  0
  3 12  1  0
  3 13  1  0
  4  5  1  0
  5  6  2  0
  5 14  1  0
M  END
>  <reaction>  (1) 
rmg_rxn_15439

>  <mol_properties>  (1) 
{"0": {"label": "donator", "atom_type": "Cs"}, "6": {"label": "d_hydrogen", "atom_type": "H0"}}

>  <type>  (1) 
r1h

$$$$

     RDKit          3D

  5  4  0  0  0  0  0  0  0  0999 V2000
    0.8934    0.3742    0.4948 O   0  0  0  0  0  0  0  0  0  0  0  0
    0.1582   -0.1610   -0.5904 N   0  0  0  0  0  0  0  0  0  0  0  0
   -1.0297   -0.3739   -0.4689 C   0  0  0  0  0  3  0  0  0  0  0  0
    1.7804    0.4382    0.1306 H   0  0  0  0  0  0  0  0  0  0  0  0
   -1.8023   -0.2775    0.2859 H   0  0  0  0  0  0  0  0  0  0  0  0
  1  2  1  0
  1  4  1  0
  2  3  2  3
  3  5  1  0
M  RAD  1   3   2
M  END
>  <reaction>  (2) 
rmg_rxn_15439

>  <mol_properties>  (2) 
{"2": {"label": "acceptor", "atom_type": "Cd"}}

>  <type>  (2) 
r2

$$$$

     RDKit          3D

  6  5  0  0  0  0  0  0  0  0999 V2000
    1.2314    0.0428    0.5088 O   0  0  0  0  0  0  0  0  0  0  0  0
    0.2987    0.2341   -0.4915 N   0  0  0  0  0  0  0  0  0  0  0  0
   -0.8599   -0.1122   -0.1290 C   0  0  0  0  0  0  0  0  0  0  0  0
    2.0507    0.3401    0.1082 H   0  0  0  0  0  0  0  0  0  0  0  0
   -1.0700   -0.5112    0.8610 H   0  0  0  0  0  0  0  0  0  0  0  0
   -1.6509    0.0064   -0.8574 H   0  0  0  0  0  0  0  0  0  0  0  0
  1  2  1  0
  1  4  1  0
  2  3  2  3
  3  5  1  0
  3  6  1  0
M  END
>  <reaction>  (3) 
rmg_rxn_15439

>  <mol_properties>  (3) 
{"2": {"label": "acceptor", "atom_type": "Cd"}, "5": {"label": "a_hydrogen", "atom_type": "H0"}}

>  <type>  (3) 
r2h

$$$$

     RDKit          3D

 19 17  0  0  0  0  0  0  0  0999 V2000
    2.3639   -1.7340   -0.1191 O   0  0  0  0  0  0  0  0  0  0  0  0
    1.7550   -0.4923   -0.2112 N   0  0  0  0  0  0  0  0  0  0  0  0
    2.4241    0.4801    0.1824 C   0  0  0  0  0  3  0  0  0  0  0  0
    1.6505   -2.3279   -0.3715 H   0  0  0  0  0  0  0  0  0  0  0  0
    3.4314    0.4874    0.5988 H   0  0  0  0  0  0  0  0  0  0  0  0
    0.6847    2.4773   -0.0870 C   0  0  0  0  0  0  0  0  0  0  0  0
   -0.5286    1.6907   -0.5181 C   0  0  0  0  0  0  0  0  0  0  0  0
   -1.1258    0.8834    0.6197 C   0  0  0  0  0  0  0  0  0  0  0  0
   -2.3105    0.1994    0.1771 O   0  0  0  0  0  0  0  0  0  0  0  0
   -2.2149   -1.0890   -0.1348 C   0  0  0  0  0  0  0  0  0  0  0  0
   -1.2399   -1.7787   -0.0641 O   0  0  0  0  0  0  0  0  0  0  0  0
    1.6470    1.6191    0.0947 H   0  0  0  0  0  0  0  0  0  0  0  0
    0.5874    2.9912    0.8696 H   0  0  0  0  0  0  0  0  0  0  0  0
    1.0814    3.1375   -0.8556 H   0  0  0  0  0  0  0  0  0  0  0  0
   -0.2552    1.0081   -1.3266 H   0  0  0  0  0  0  0  0  0  0  0  0
   -1.2939    2.3686   -0.9113 H   0  0  0  0  0  0  0  0  0  0  0  0
   -0.4093    0.1576    0.9994 H   0  0  0  0  0  0  0  0  0  0  0  0
   -1.4568    1.5350    1.4291 H   0  0  0  0  0  0  0  0  0  0  0  0
   -3.1980   -1.4445   -0.4728 H   0  0  0  0  0  0  0  0  0  0  0  0
  1  2  1  0
  1  4  1  0
  2  3  2  3
  3  5  1  0
  6  7  1  0
  6 12  1  0
  6 13  1  0
  6 14  1  0
  7  8  1  0
  7 15  1  0
  7 16  1  0
  8  9  1  0
  8 17  1  0
  8 18  1  0
  9 10  1  0
 10 11  2  0
 10 19  1  0
M  RAD  1   3   2
M  END
>  <reaction>  (4) 
rmg_rxn_15439

>  <mol_properties>  (4) 
{"1": {"label": "*4", "atom_type": "N3d"}, "2": {"label": "*3", "atom_type": "Cd"}, "5": {"label": "*1", "atom_type": "Cs"}, "6": {"label": "*0", "atom_type": "Cs"}, "11": {"label": "*2", "atom_type": "H0"}}

>  <type>  (4) 
ts

$$$$
