
     RDKit          3D

  6  5  0  0  0  0  0  0  0  0999 V2000
    1.2314    0.0428    0.5088 O   0  0  0  0  0  0  0  0  0  0  0  0
    0.2987    0.2341   -0.4915 N   0  0  0  0  0  0  0  0  0  0  0  0
   -0.8599   -0.1122   -0.1290 C   0  0  0  0  0  0  0  0  0  0  0  0
    2.0507    0.3401    0.1082 H   0  0  0  0  0  0  0  0  0  0  0  0
   -1.0700   -0.5112    0.8610 H   0  0  0  0  0  0  0  0  0  0  0  0
   -1.6509    0.0064   -0.8574 H   0  0  0  0  0  0  0  0  0  0  0  0
  1  2  1  0
  1  4  1  0
  2  3  2  3
  3  5  1  0
  3  6  1  0
M  END
>  <reaction>  (1) 
rmg_rxn_15469

>  <mol_properties>  (1) 
{"2": {"label": "donator", "atom_type": "Cd"}, "4": {"label": "d_hydrogen", "atom_type": "H0"}}

>  <type>  (1) 
r1h

$$$$

     RDKit          3D

  3  2  0  0  0  0  0  0  0  0999 V2000
    0.0000    0.0000    0.1037 C   0  0  0  0  0  2  0  0  0  0  0  0
    0.0000    0.9954   -0.3147 H   0  0  0  0  0  0  0  0  0  0  0  0
    0.0000   -0.9954   -0.3147 H   0  0  0  0  0  0  0  0  0  0  0  0
  1  2  1  0
  1  3  1  0
M  RAD  1   1   3
M  END
>  <reaction>  (2) 
rmg_rxn_15469

>  <mol_properties>  (2) 
{"0": {"label": "acceptor", "atom_type": "Cs"}}

>  <type>  (2) 
r2

$$$$

     RDKit          3D

  4  3  0  0  0  0  0  0  0  0999 V2000
    0.0000    0.0000    0.0000 C   0  0  0  0  0  3  0  0  0  0  0  0
    1.0638   -0.1747    0.0540 H   0  0  0  0  0  0  0  0  0  0  0  0
   -0.6833   -0.8351   -0.0280 H   0  0  0  0  0  0  0  0  0  0  0  0
   -0.3805    1.0098   -0.0260 H   0  0  0  0  0  0  0  0  0  0  0  0
  1  2  1  0
  1  3  1  0
  1  4  1  0
M  RAD  1   1   2
M  END
>  <reaction>  (3) 
rmg_rxn_15469

>  <mol_properties>  (3) 
{"0": {"label": "acceptor", "atom_type": "Cs"}, "3": {"label": "a_hydrogen", "atom_type": "H0"}}

>  <type>  (3) 
r2h

$$$$

     RDKit          3D

  9  7  0  0  0  0  0  0  0  0999 V2000
    0.0110    2.2941   -0.3710 C   0  0  0  0  0  2  0  0  0  0  0  0
   -0.1599    3.2418    0.1228 H   0  0  0  0  0  0  0  0  0  0  0  0
    0.2640    2.1648   -1.4140 H   0  0  0  0  0  0  0  0  0  0  0  0
    0.3099   -0.9817   -0.8366 O   0  0  0  0  0  0  0  0  0  0  0  0
   -0.0033   -1.0521    0.5109 N   0  0  0  0  0  0  0  0  0  0  0  0
   -0.1942    0.0589    1.0490 C   0  0  0  0  0  0  0  0  0  0  0  0
    0.4210   -1.9025   -1.0829 H   0  0  0  0  0  0  0  0  0  0  0  0
   -0.0985    1.1659    0.3713 H   0  0  0  0  0  0  0  0  0  0  0  0
   -0.4450    0.1066    2.1029 H   0  0  0  0  0  0  0  0  0  0  0  0
  1  2  1  0
  1  3  1  0
  4  5  1  0
  4  7  1  0
  5  6  2  3
  6  8  1  0
  6  9  1  0
M  RAD  1   1   3
M  END
>  <reaction>  (4) 
rmg_rxn_15469

>  <mol_properties>  (4) 
{"0": {"label": "*3", "atom_type": "Cs"}, "1": {"label": "*4", "atom_type": "H0"}, "4": {"label": "*0", "atom_type": "N3d"}, "5": {"label": "*1", "atom_type": "Cd"}, "7": {"label": "*2", "atom_type": "H0"}}

>  <type>  (4) 
ts

$$$$
