
     RDKit          3D

  8  7  0  0  0  0  0  0  0  0999 V2000
    0.9548    0.1194   -0.0790 C   0  0  0  0  0  0  0  0  0  0  0  0
   -0.4838   -0.2649    0.0193 C   0  0  0  0  0  0  0  0  0  0  0  0
   -0.8933   -1.1081    0.8664 N   0  0  0  0  0  0  0  0  0  0  0  0
    1.3360   -0.0983   -1.0800 H   0  0  0  0  0  0  0  0  0  0  0  0
    1.0698    1.1948    0.0786 H   0  0  0  0  0  0  0  0  0  0  0  0
    1.5426   -0.4219    0.6602 H   0  0  0  0  0  0  0  0  0  0  0  0
   -1.1575    0.2324   -0.6905 H   0  0  0  0  0  0  0  0  0  0  0  0
   -1.8989   -1.2455    0.7886 H   0  0  0  0  0  0  0  0  0  0  0  0
  1  2  1  0
  1  4  1  0
  1  5  1  0
  1  6  1  0
  2  3  2  3
  2  7  1  0
  3  8  1  0
M  END
>  <reaction>  (1) 
rmg_rxn_16506

>  <mol_properties>  (1) 
{"2": {"label": "donator", "atom_type": "N3d"}, "7": {"label": "d_hydrogen", "atom_type": "H0"}}

>  <type>  (1) 
r1h

$$$$

     RDKit          3D

 11 10  0  0  0  0  0  0  0  0999 V2000
    1.3935    0.3989    0.3491 C   0  0  0  0  0  3  0  0  0  0  0  0
    0.5250   -0.7560    0.0089 C   0  0  0  0  0  0  0  0  0  0  0  0
   -0.6359   -0.9293    0.9859 C   0  0  0  0  0  0  0  0  0  0  0  0
   -1.5467    0.1465    0.9437 O   0  0  0  0  0  0  0  0  0  0  0  0
    1.8267    1.0293   -0.4146 H   0  0  0  0  0  0  0  0  0  0  0  0
    1.7199    0.5477    1.3723 H   0  0  0  0  0  0  0  0  0  0  0  0
    0.1296   -0.6553   -1.0046 H   0  0  0  0  0  0  0  0  0  0  0  0
    1.1132   -1.6869    0.0240 H   0  0  0  0  0  0  0  0  0  0  0  0
   -0.2393   -1.0667    2.0017 H   0  0  0  0  0  0  0  0  0  0  0  0
   -1.2091   -1.8217    0.7319 H   0  0  0  0  0  0  0  0  0  0  0  0
   -1.0474    0.9595    1.0517 H   0  0  0  0  0  0  0  0  0  0  0  0
  1  2  1  0
  1  5  1  0
  1  6  1  0
  2  3  1  0
  2  7  1  0
  2  8  1  0
  3  4  1  0
  3  9  1  0
  3 10  1  0
  4 11  1  0
M  RAD  1   1   2
M  END
>  <reaction>  (2) 
rmg_rxn_16506

>  <mol_properties>  (2) 
{"0": {"label": "acceptor", "atom_type": "Cs"}}

>  <type>  (2) 
r2

$$$$

     RDKit          3D

 12 11  0  0  0  0  0  0  0  0999 V2000
   -1.4643   -0.2505   -0.5284 C   0  0  0  0  0  0  0  0  0  0  0  0
   -0.3946    0.4302    0.3143 C   0  0  0  0  0  0  0  0  0  0  0  0
   -0.5959    0.2382    1.8102 C   0  0  0  0  0  0  0  0  0  0  0  0
   -0.5633   -1.1190    2.2092 O   0  0  0  0  0  0  0  0  0  0  0  0
   -2.4511    0.1644   -0.3109 H   0  0  0  0  0  0  0  0  0  0  0  0
   -1.5019   -1.3198   -0.3181 H   0  0  0  0  0  0  0  0  0  0  0  0
   -1.2720   -0.1182   -1.5941 H   0  0  0  0  0  0  0  0  0  0  0  0
    0.5965    0.0515    0.0385 H   0  0  0  0  0  0  0  0  0  0  0  0
   -0.3776    1.5047    0.1078 H   0  0  0  0  0  0  0  0  0  0  0  0
   -1.5821    0.6048    2.1034 H   0  0  0  0  0  0  0  0  0  0  0  0
    0.1495    0.8220    2.3649 H   0  0  0  0  0  0  0  0  0  0  0  0
    0.3017   -1.4750    1.9997 H   0  0  0  0  0  0  0  0  0  0  0  0
  1  2  1  0
  1  5  1  0
  1  6  1  0
  1  7  1  0
  2  3  1  0
  2  8  1  0
  2  9  1  0
  3  4  1  0
  3 10  1  0
  3 11  1  0
  4 12  1  0
M  END
>  <reaction>  (3) 
rmg_rxn_16506

>  <mol_properties>  (3) 
{"0": {"label": "a_hydrogen", "atom_type": "H0"}, "1": {"label": "acceptor", "atom_type": "Cs"}}

>  <type>  (3) 
r2h

$$$$

     RDKit          3D

 19 17  0  0  0  0  0  0  0  0999 V2000
   -3.4912   -0.3432    0.0284 C   0  0  0  0  0  0  0  0  0  0  0  0
   -2.1859    0.3889    0.0018 C   0  0  0  0  0  0  0  0  0  0  0  0
   -1.0821   -0.2014   -0.0952 N   0  0  0  0  0  0  0  0  0  0  0  0
   -4.0237   -0.1171    0.9550 H   0  0  0  0  0  0  0  0  0  0  0  0
   -4.1216   -0.0073   -0.7982 H   0  0  0  0  0  0  0  0  0  0  0  0
   -3.3329   -1.4172   -0.0474 H   0  0  0  0  0  0  0  0  0  0  0  0
   -2.2435    1.4831    0.0727 H   0  0  0  0  0  0  0  0  0  0  0  0
   -0.1836    0.6347   -0.0916 H   0  0  0  0  0  0  0  0  0  0  0  0
    0.8424    1.5372   -0.1368 C   0  0  0  0  0  3  0  0  0  0  0  0
    2.0626    0.8069    0.3556 C   0  0  0  0  0  0  0  0  0  0  0  0
    2.3027   -0.5461   -0.3175 C   0  0  0  0  0  0  0  0  0  0  0  0
    1.4849   -1.5771    0.1756 O   0  0  0  0  0  0  0  0  0  0  0  0
    0.4971    2.3626    0.4828 H   0  0  0  0  0  0  0  0  0  0  0  0
    0.8545    1.7878   -1.1973 H   0  0  0  0  0  0  0  0  0  0  0  0
    2.9429    1.4387    0.1753 H   0  0  0  0  0  0  0  0  0  0  0  0
    2.0065    0.6473    1.4350 H   0  0  0  0  0  0  0  0  0  0  0  0
    3.3298   -0.8626   -0.1271 H   0  0  0  0  0  0  0  0  0  0  0  0
    2.1937   -0.4351   -1.4065 H   0  0  0  0  0  0  0  0  0  0  0  0
    0.5576   -1.3660    0.0065 H   0  0  0  0  0  0  0  0  0  0  0  0
  1  2  1  0
  1  4  1  0
  1  5  1  0
  1  6  1  0
  2  3  2  3
  2  7  1  0
  3  8  1  0
  9 10  1  0
  9 13  1  0
  9 14  1  0
 10 11  1  0
 10 15  1  0
 10 16  1  0
 11 12  1  0
 11 17  1  0
 11 18  1  0
 12 19  1  0
M  RAD  1   9   2
M  END
>  <reaction>  (4) 
rmg_rxn_16506

>  <mol_properties>  (4) 
{"1": {"label": "*0", "atom_type": "Cd"}, "2": {"label": "*1", "atom_type": "N3d"}, "7": {"label": "*2", "atom_type": "H0"}, "8": {"label": "*3", "atom_type": "Cs"}, "9": {"label": "*4", "atom_type": "Cs"}}

>  <type>  (4) 
ts

$$$$
