
     RDKit          3D

 10  9  0  0  0  0  0  0  0  0999 V2000
    2.0403   -0.0576    0.0117 C   0  0  0  0  0  0  0  0  0  0  0  0
    0.5945   -0.0168    0.1897 C   0  0  0  0  0  0  0  0  0  0  0  0
   -0.5945    0.0167    0.3361 C   0  0  0  0  0  0  0  0  0  0  0  0
   -2.0403    0.0576    0.5141 C   0  0  0  0  0  0  0  0  0  0  0  0
    2.4704    0.9425    0.0887 H   0  0  0  0  0  0  0  0  0  0  0  0
    2.3007   -0.4622   -0.9679 H   0  0  0  0  0  0  0  0  0  0  0  0
    2.5086   -0.6856    0.7714 H   0  0  0  0  0  0  0  0  0  0  0  0
   -2.3710    1.0616    0.7852 H   0  0  0  0  0  0  0  0  0  0  0  0
   -2.3547   -0.6260    1.3046 H   0  0  0  0  0  0  0  0  0  0  0  0
   -2.5540   -0.2302   -0.4048 H   0  0  0  0  0  0  0  0  0  0  0  0
  1  2  1  0
  1  5  1  0
  1  6  1  0
  1  7  1  0
  2  3  3  0
  3  4  1  0
  4  8  1  0
  4  9  1  0
  4 10  1  0
M  END
>  <reaction>  (1) 
rmg_rxn_3

>  <mol_properties>  (1) 
{"3": {"label": "donator", "atom_type": "Cs"}, "9": {"label": "d_hydrogen", "atom_type": "H0"}}

>  <type>  (1) 
r1h

$$$$

     RDKit          3D

  9  8  0  0  0  0  0  0  0  0999 V2000
    1.3246   -0.8124   -0.0809 C   0  0  0  0  0  2  0  0  0  0  0  0
    0.4082    0.3080    0.1518 C   0  0  0  0  0  0  0  0  0  0  0  0
   -1.0545   -0.0277   -0.1520 C   0  0  0  0  0  0  0  0  0  0  0  0
    2.3933   -0.9471    0.0203 H   0  0  0  0  0  0  0  0  0  0  0  0
    0.4898    0.6406    1.1970 H   0  0  0  0  0  0  0  0  0  0  0  0
    0.7134    1.1680   -0.4624 H   0  0  0  0  0  0  0  0  0  0  0  0
   -1.4014   -0.8515    0.4727 H   0  0  0  0  0  0  0  0  0  0  0  0
   -1.1767   -0.3214   -1.1952 H   0  0  0  0  0  0  0  0  0  0  0  0
   -1.6915    0.8372    0.0370 H   0  0  0  0  0  0  0  0  0  0  0  0
  1  2  1  0
  1  4  1  0
  2  3  1  0
  2  5  1  0
  2  6  1  0
  3  7  1  0
  3  8  1  0
  3  9  1  0
M  RAD  1   1   3
M  END
>  <reaction>  (2) 
rmg_rxn_3

>  <mol_properties>  (2) 
{"0": {"label": "acceptor", "atom_type": "Cs"}}

>  <type>  (2) 
r2

$$$$

     RDKit          3D

 10  9  0  0  0  0  0  0  0  0999 V2000
    1.4352    0.2660   -0.1351 C   0  0  0  0  0  3  0  0  0  0  0  0
    0.2236   -0.3243    0.4850 C   0  0  0  0  0  0  0  0  0  0  0  0
   -0.8893    0.6872    0.7364 C   0  0  0  0  0  0  0  0  0  0  0  0
    2.3577   -0.2958   -0.1940 H   0  0  0  0  0  0  0  0  0  0  0  0
    1.3935    1.2286   -0.6287 H   0  0  0  0  0  0  0  0  0  0  0  0
   -0.1633   -1.1318   -0.1556 H   0  0  0  0  0  0  0  0  0  0  0  0
    0.4945   -0.8215    1.4240 H   0  0  0  0  0  0  0  0  0  0  0  0
   -1.1991    1.1627   -0.1967 H   0  0  0  0  0  0  0  0  0  0  0  0
   -1.7660    0.2103    1.1768 H   0  0  0  0  0  0  0  0  0  0  0  0
   -0.5545    1.4732    1.4159 H   0  0  0  0  0  0  0  0  0  0  0  0
  1  2  1  0
  1  4  1  0
  1  5  1  0
  2  3  1  0
  2  6  1  0
  2  7  1  0
  3  8  1  0
  3  9  1  0
  3 10  1  0
M  RAD  1   1   2
M  END
>  <reaction>  (3) 
rmg_rxn_3

>  <mol_properties>  (3) 
{"0": {"label": "acceptor", "atom_type": "Cs"}, "9": {"label": "a_hydrogen", "atom_type": "H0"}}

>  <type>  (3) 
r2h

$$$$

     RDKit          3D

 19 17  0  0  0  0  0  0  0  0999 V2000
   -0.5082    1.0324    2.1533 C   0  0  0  0  0  2  0  0  0  0  0  0
    0.3278    1.8016    1.2134 C   0  0  0  0  0  0  0  0  0  0  0  0
    1.7717    1.2827    1.1262 C   0  0  0  0  0  0  0  0  0  0  0  0
   -0.5767    1.1510    3.2289 H   0  0  0  0  0  0  0  0  0  0  0  0
   -0.1176    1.7515    0.2141 H   0  0  0  0  0  0  0  0  0  0  0  0
    0.3360    2.8598    1.5016 H   0  0  0  0  0  0  0  0  0  0  0  0
    1.7800    0.2466    0.7851 H   0  0  0  0  0  0  0  0  0  0  0  0
    2.2639    1.3270    2.0992 H   0  0  0  0  0  0  0  0  0  0  0  0
    2.3526    1.8820    0.4221 H   0  0  0  0  0  0  0  0  0  0  0  0
    0.6263   -1.0518   -2.5729 C   0  0  0  0  0  0  0  0  0  0  0  0
   -0.1617   -1.0860   -1.3491 C   0  0  0  0  0  0  0  0  0  0  0  0
   -0.8133   -1.1205   -0.3390 C   0  0  0  0  0  0  0  0  0  0  0  0
   -1.5413   -1.0927    0.8940 C   0  0  0  0  0  0  0  0  0  0  0  0
    0.0104   -0.7627   -3.4262 H   0  0  0  0  0  0  0  0  0  0  0  0
    1.0605   -2.0304   -2.7849 H   0  0  0  0  0  0  0  0  0  0  0  0
    1.4436   -0.3326   -2.4878 H   0  0  0  0  0  0  0  0  0  0  0  0
   -1.3721   -1.9615    1.5279 H   0  0  0  0  0  0  0  0  0  0  0  0
   -2.6034   -0.8837    0.7781 H   0  0  0  0  0  0  0  0  0  0  0  0
   -1.0947   -0.1198    1.5752 H   0  0  0  0  0  0  0  0  0  0  0  0
  1  2  1  0
  1  4  1  0
  2  3  1  0
  2  5  1  0
  2  6  1  0
  3  7  1  0
  3  8  1  0
  3  9  1  0
 10 11  1  0
 10 14  1  0
 10 15  1  0
 10 16  1  0
 11 12  3  0
 12 13  1  0
 13 17  1  0
 13 18  1  0
 13 19  1  0
M  RAD  1   1   3
M  END
>  <reaction>  (4) 
rmg_rxn_3

>  <mol_properties>  (4) 
{"0": {"label": "*3", "atom_type": "Cs"}, "1": {"label": "*4", "atom_type": "Cs"}, "11": {"label": "*0", "atom_type": "Ct"}, "12": {"label": "*1", "atom_type": "Cs"}, "18": {"label": "*2", "atom_type": "H0"}}

>  <type>  (4) 
ts

$$$$
