
     RDKit          3D

  8  7  0  0  0  0  0  0  0  0999 V2000
    0.9548    0.1194   -0.0790 C   0  0  0  0  0  0  0  0  0  0  0  0
   -0.4838   -0.2649    0.0193 C   0  0  0  0  0  0  0  0  0  0  0  0
   -0.8933   -1.1081    0.8664 N   0  0  0  0  0  0  0  0  0  0  0  0
    1.3360   -0.0983   -1.0800 H   0  0  0  0  0  0  0  0  0  0  0  0
    1.0698    1.1948    0.0786 H   0  0  0  0  0  0  0  0  0  0  0  0
    1.5426   -0.4219    0.6602 H   0  0  0  0  0  0  0  0  0  0  0  0
   -1.1575    0.2324   -0.6905 H   0  0  0  0  0  0  0  0  0  0  0  0
   -1.8989   -1.2455    0.7886 H   0  0  0  0  0  0  0  0  0  0  0  0
  1  2  1  0
  1  4  1  0
  1  5  1  0
  1  6  1  0
  2  3  2  3
  2  7  1  0
  3  8  1  0
M  END
>  <reaction>  (1) 
rmg_rxn_16466

>  <mol_properties>  (1) 
{"2": {"label": "donator", "atom_type": "N3d"}, "7": {"label": "d_hydrogen", "atom_type": "H0"}}

>  <type>  (1) 
r1h

$$$$

     RDKit          3D

 17 16  0  0  0  0  0  0  0  0999 V2000
    3.3619    0.3511   -1.0290 C   0  0  0  0  0  3  0  0  0  0  0  0
    2.1806    1.0643   -0.5073 C   0  0  0  0  0  0  0  0  0  0  0  0
    1.4028    0.1998    0.2757 O   0  0  0  0  0  0  0  0  0  0  0  0
    0.2433    0.8081    0.7885 C   0  0  0  0  0  0  0  0  0  0  0  0
   -0.5040   -0.1878    1.6510 C   0  0  0  0  0  0  0  0  0  0  0  0
    0.2852   -0.6298    2.8762 C   0  0  0  0  0  0  0  0  0  0  0  0
    4.1174    0.8902   -1.5820 H   0  0  0  0  0  0  0  0  0  0  0  0
    3.4399   -0.7198   -0.9141 H   0  0  0  0  0  0  0  0  0  0  0  0
    1.5724    1.4684   -1.3398 H   0  0  0  0  0  0  0  0  0  0  0  0
    2.4896    1.9442    0.0856 H   0  0  0  0  0  0  0  0  0  0  0  0
    0.5169    1.6937    1.3835 H   0  0  0  0  0  0  0  0  0  0  0  0
   -0.3954    1.1528   -0.0379 H   0  0  0  0  0  0  0  0  0  0  0  0
   -0.7611   -1.0545    1.0367 H   0  0  0  0  0  0  0  0  0  0  0  0
   -1.4466    0.2743    1.9571 H   0  0  0  0  0  0  0  0  0  0  0  0
    0.5263    0.2245    3.5136 H   0  0  0  0  0  0  0  0  0  0  0  0
    1.2220   -1.1033    2.5825 H   0  0  0  0  0  0  0  0  0  0  0  0
   -0.2849   -1.3427    3.4737 H   0  0  0  0  0  0  0  0  0  0  0  0
  1  2  1  0
  1  7  1  0
  1  8  1  0
  2  3  1  0
  2  9  1  0
  2 10  1  0
  3  4  1  0
  4  5  1  0
  4 11  1  0
  4 12  1  0
  5  6  1  0
  5 13  1  0
  5 14  1  0
  6 15  1  0
  6 16  1  0
  6 17  1  0
M  RAD  1   1   2
M  END
>  <reaction>  (2) 
rmg_rxn_16466

>  <mol_properties>  (2) 
{"0": {"label": "acceptor", "atom_type": "Cs"}}

>  <type>  (2) 
r2

$$$$

     RDKit          3D

 18 17  0  0  0  0  0  0  0  0999 V2000
    2.2026   -0.7213   -0.2612 C   0  0  0  0  0  0  0  0  0  0  0  0
    1.5384    0.2638    0.6915 C   0  0  0  0  0  0  0  0  0  0  0  0
    2.2584    1.5946    0.7694 C   0  0  0  0  0  0  0  0  0  0  0  0
    2.2212    2.2185   -0.4893 O   0  0  0  0  0  0  0  0  0  0  0  0
    2.8988    3.4488   -0.5204 C   0  0  0  0  0  0  0  0  0  0  0  0
    2.7981    4.0296   -1.9118 C   0  0  0  0  0  0  0  0  0  0  0  0
    3.2294   -0.9309    0.0486 H   0  0  0  0  0  0  0  0  0  0  0  0
    2.2338   -0.3181   -1.2734 H   0  0  0  0  0  0  0  0  0  0  0  0
    1.6610   -1.6680   -0.2875 H   0  0  0  0  0  0  0  0  0  0  0  0
    1.4990   -0.1566    1.7002 H   0  0  0  0  0  0  0  0  0  0  0  0
    0.5055    0.4455    0.3835 H   0  0  0  0  0  0  0  0  0  0  0  0
    3.3038    1.4410    1.0808 H   0  0  0  0  0  0  0  0  0  0  0  0
    1.7844    2.2410    1.5226 H   0  0  0  0  0  0  0  0  0  0  0  0
    2.4596    4.1376    0.2164 H   0  0  0  0  0  0  0  0  0  0  0  0
    3.9524    3.3035   -0.2397 H   0  0  0  0  0  0  0  0  0  0  0  0
    1.7543    4.1869   -2.1856 H   0  0  0  0  0  0  0  0  0  0  0  0
    3.2472    3.3545   -2.6411 H   0  0  0  0  0  0  0  0  0  0  0  0
    3.3178    4.9878   -1.9600 H   0  0  0  0  0  0  0  0  0  0  0  0
  1  2  1  0
  1  7  1  0
  1  8  1  0
  1  9  1  0
  2  3  1  0
  2 10  1  0
  2 11  1  0
  3  4  1  0
  3 12  1  0
  3 13  1  0
  4  5  1  0
  5  6  1  0
  5 14  1  0
  5 15  1  0
  6 16  1  0
  6 17  1  0
  6 18  1  0
M  END
>  <reaction>  (3) 
rmg_rxn_16466

>  <mol_properties>  (3) 
{"0": {"label": "a_hydrogen", "atom_type": "H0"}, "1": {"label": "acceptor", "atom_type": "Cs"}}

>  <type>  (3) 
r2h

$$$$

     RDKit          3D

 25 23  0  0  0  0  0  0  0  0999 V2000
    2.9657    1.4869    0.3121 C   0  0  0  0  0  0  0  0  0  0  0  0
    2.1062    0.2615    0.2633 C   0  0  0  0  0  0  0  0  0  0  0  0
    2.2080   -0.5854   -0.6617 N   0  0  0  0  0  0  0  0  0  0  0  0
    2.3343    2.3787    0.2919 H   0  0  0  0  0  0  0  0  0  0  0  0
    3.5295    1.5108    1.2477 H   0  0  0  0  0  0  0  0  0  0  0  0
    3.6556    1.5107   -0.5295 H   0  0  0  0  0  0  0  0  0  0  0  0
    1.3684    0.1484    1.0649 H   0  0  0  0  0  0  0  0  0  0  0  0
    1.3989   -1.4570   -0.4727 H   0  0  0  0  0  0  0  0  0  0  0  0
    0.3601   -2.3408   -0.1669 C   0  0  0  0  0  3  0  0  0  0  0  0
   -0.9134   -1.5733   -0.3054 C   0  0  0  0  0  0  0  0  0  0  0  0
   -0.9912   -0.6257    0.7333 O   0  0  0  0  0  0  0  0  0  0  0  0
   -2.1792    0.1320    0.7515 C   0  0  0  0  0  0  0  0  0  0  0  0
   -2.3146    1.1167   -0.4045 C   0  0  0  0  0  0  0  0  0  0  0  0
   -1.1034    2.0267   -0.5553 C   0  0  0  0  0  0  0  0  0  0  0  0
    0.5783   -2.6824    0.8422 H   0  0  0  0  0  0  0  0  0  0  0  0
    0.5105   -3.1038   -0.9269 H   0  0  0  0  0  0  0  0  0  0  0  0
   -1.7850   -2.2488   -0.2538 H   0  0  0  0  0  0  0  0  0  0  0  0
   -0.9465   -1.0849   -1.2890 H   0  0  0  0  0  0  0  0  0  0  0  0
   -3.0500   -0.5386    0.7761 H   0  0  0  0  0  0  0  0  0  0  0  0
   -2.1540    0.6794    1.6965 H   0  0  0  0  0  0  0  0  0  0  0  0
   -3.2148    1.7099   -0.2200 H   0  0  0  0  0  0  0  0  0  0  0  0
   -2.4946    0.5793   -1.3393 H   0  0  0  0  0  0  0  0  0  0  0  0
   -1.2606    2.7627   -1.3447 H   0  0  0  0  0  0  0  0  0  0  0  0
   -0.2118    1.4497   -0.8048 H   0  0  0  0  0  0  0  0  0  0  0  0
   -0.9017    2.5658    0.3738 H   0  0  0  0  0  0  0  0  0  0  0  0
  1  2  1  0
  1  4  1  0
  1  5  1  0
  1  6  1  0
  2  3  2  3
  2  7  1  0
  3  8  1  0
  9 10  1  0
  9 15  1  0
  9 16  1  0
 10 11  1  0
 10 17  1  0
 10 18  1  0
 11 12  1  0
 12 13  1  0
 12 19  1  0
 12 20  1  0
 13 14  1  0
 13 21  1  0
 13 22  1  0
 14 23  1  0
 14 24  1  0
 14 25  1  0
M  RAD  1   9   2
M  END
>  <reaction>  (4) 
rmg_rxn_16466

>  <mol_properties>  (4) 
{"1": {"label": "*0", "atom_type": "Cd"}, "2": {"label": "*1", "atom_type": "N3d"}, "7": {"label": "*2", "atom_type": "H0"}, "8": {"label": "*3", "atom_type": "Cs"}, "9": {"label": "*4", "atom_type": "Cs"}}

>  <type>  (4) 
ts

$$$$
