
     RDKit          3D

 14 13  0  0  0  0  0  0  0  0999 V2000
   -1.9312   -0.1255    0.0000 C   0  0  0  0  0  0  0  0  0  0  0  0
   -0.5563    0.5232   -0.0000 C   0  0  0  0  0  0  0  0  0  0  0  0
    0.5563   -0.5232   -0.0000 C   0  0  0  0  0  0  0  0  0  0  0  0
    1.9312    0.1255    0.0000 C   0  0  0  0  0  0  0  0  0  0  0  0
   -2.0697   -0.7514    0.8874 H   0  0  0  0  0  0  0  0  0  0  0  0
   -2.0698   -0.7514   -0.8873 H   0  0  0  0  0  0  0  0  0  0  0  0
   -2.7122    0.6414    0.0000 H   0  0  0  0  0  0  0  0  0  0  0  0
   -0.4623    1.1669   -0.8824 H   0  0  0  0  0  0  0  0  0  0  0  0
   -0.4622    1.1670    0.8823 H   0  0  0  0  0  0  0  0  0  0  0  0
    0.4623   -1.1669   -0.8824 H   0  0  0  0  0  0  0  0  0  0  0  0
    0.4622   -1.1670    0.8823 H   0  0  0  0  0  0  0  0  0  0  0  0
    2.0697    0.7514    0.8874 H   0  0  0  0  0  0  0  0  0  0  0  0
    2.0698    0.7515   -0.8873 H   0  0  0  0  0  0  0  0  0  0  0  0
    2.7122   -0.6414    0.0000 H   0  0  0  0  0  0  0  0  0  0  0  0
  1  2  1  0
  1  5  1  0
  1  6  1  0
  1  7  1  0
  2  3  1  0
  2  8  1  0
  2  9  1  0
  3  4  1  0
  3 10  1  0
  3 11  1  0
  4 12  1  0
  4 13  1  0
  4 14  1  0
M  END
>  <reaction>  (1) 
rmg_rxn_1142

>  <mol_properties>  (1) 
{"3": {"label": "donator", "atom_type": "Cs"}, "12": {"label": "d_hydrogen", "atom_type": "H0"}}

>  <type>  (1) 
r1h

$$$$

     RDKit          3D

  1  0  0  0  0  0  0  0  0  0999 V2000
    0.0000    0.0000    0.0000 O   0  0  0  0  0 15  0  0  0  0  0  0
M  END
>  <reaction>  (2) 
rmg_rxn_1142

>  <mol_properties>  (2) 
{"0": {"label": "acceptor", "atom_type": "O2s"}}

>  <type>  (2) 
r2

$$$$

     RDKit          3D

  2  1  0  0  0  0  0  0  0  0999 V2000
    0.0000    0.0000    0.1079 O   0  0  0  0  0  1  0  0  0  0  0  0
    0.0000    0.0000   -0.8631 H   0  0  0  0  0  0  0  0  0  0  0  0
  1  2  1  0
M  RAD  1   1   2
M  END
>  <reaction>  (3) 
rmg_rxn_1142

>  <mol_properties>  (3) 
{"0": {"label": "acceptor", "atom_type": "O2s"}, "1": {"label": "a_hydrogen", "atom_type": "H0"}}

>  <type>  (3) 
r2h

$$$$

     RDKit          3D

 15 13  0  0  0  0  0  0  0  0999 V2000
   -2.2769   -1.2253   -0.1389 O   0  0  0  0  0  1  0  0  0  0  0  0
    2.3392   -0.4481   -0.1217 C   0  0  0  0  0  0  0  0  0  0  0  0
    0.9240   -0.2487    0.4060 C   0  0  0  0  0  0  0  0  0  0  0  0
    0.1577    0.8543   -0.3232 C   0  0  0  0  0  0  0  0  0  0  0  0
   -1.2500    1.0407    0.1778 C   0  0  0  0  0  3  0  0  0  0  0  0
    2.9405    0.4689   -0.0151 H   0  0  0  0  0  0  0  0  0  0  0  0
    2.3312   -0.7173   -1.1897 H   0  0  0  0  0  0  0  0  0  0  0  0
    2.8591   -1.2524    0.4193 H   0  0  0  0  0  0  0  0  0  0  0  0
    0.3452   -1.1816    0.3128 H   0  0  0  0  0  0  0  0  0  0  0  0
    0.9571   -0.0125    1.4838 H   0  0  0  0  0  0  0  0  0  0  0  0
    0.1402    0.6411   -1.4057 H   0  0  0  0  0  0  0  0  0  0  0  0
    0.6969    1.8157   -0.2170 H   0  0  0  0  0  0  0  0  0  0  0  0
   -1.3436    1.1980    1.2623 H   0  0  0  0  0  0  0  0  0  0  0  0
   -1.8602   -0.0839    0.0214 H   0  0  0  0  0  0  0  0  0  0  0  0
   -1.8768    1.7375   -0.3944 H   0  0  0  0  0  0  0  0  0  0  0  0
  1 14  1  0
  2  3  1  0
  2  6  1  0
  2  7  1  0
  2  8  1  0
  3  4  1  0
  3  9  1  0
  3 10  1  0
  4  5  1  0
  4 11  1  0
  4 12  1  0
  5 13  1  0
  5 15  1  0
M  RAD  2   1   2   5   2
M  END
>  <reaction>  (4) 
rmg_rxn_1142

>  <mol_properties>  (4) 
{"0": {"label": "*1", "atom_type": "O2s"}, "3": {"label": "*4", "atom_type": "Cs"}, "4": {"label": "*3", "atom_type": "Cs"}, "13": {"label": "*2", "atom_type": "H0"}}

>  <type>  (4) 
ts

$$$$
