
     RDKit          3D

  9  8  0  0  0  0  0  0  0  0999 V2000
   -1.2749   -0.2244    0.0004 C   0  0  0  0  0  0  0  0  0  0  0  0
   -0.1272    0.4645    0.0017 C   0  0  0  0  0  0  0  0  0  0  0  0
    1.2277   -0.1636    0.0010 C   0  0  0  0  0  0  0  0  0  0  0  0
   -2.2311    0.2898    0.0010 H   0  0  0  0  0  0  0  0  0  0  0  0
   -1.2897   -1.3099   -0.0012 H   0  0  0  0  0  0  0  0  0  0  0  0
   -0.1618    1.5518    0.0033 H   0  0  0  0  0  0  0  0  0  0  0  0
    1.7852    0.1535   -0.8856 H   0  0  0  0  0  0  0  0  0  0  0  0
    1.1333   -1.2535   -0.0230 H   0  0  0  0  0  0  0  0  0  0  0  0
    1.8102    0.1094    0.8866 H   0  0  0  0  0  0  0  0  0  0  0  0
  1  2  2  3
  1  4  1  0
  1  5  1  0
  2  3  1  0
  2  6  1  0
  3  7  1  0
  3  8  1  0
  3  9  1  0
M  END
>  <reaction>  (1) 
rmg_rxn_1163

>  <mol_properties>  (1) 
{"0": {"label": "donator", "atom_type": "Cd"}, "3": {"label": "d_hydrogen", "atom_type": "H0"}}

>  <type>  (1) 
r1h

$$$$

     RDKit          3D

  1  0  0  0  0  0  0  0  0  0999 V2000
    0.0000    0.0000    0.0000 O   0  0  0  0  0 15  0  0  0  0  0  0
M  END
>  <reaction>  (2) 
rmg_rxn_1163

>  <mol_properties>  (2) 
{"0": {"label": "acceptor", "atom_type": "O2s"}}

>  <type>  (2) 
r2

$$$$

     RDKit          3D

  2  1  0  0  0  0  0  0  0  0999 V2000
    0.0000    0.0000    0.1079 O   0  0  0  0  0  1  0  0  0  0  0  0
    0.0000    0.0000   -0.8631 H   0  0  0  0  0  0  0  0  0  0  0  0
  1  2  1  0
M  RAD  1   1   2
M  END
>  <reaction>  (3) 
rmg_rxn_1163

>  <mol_properties>  (3) 
{"0": {"label": "acceptor", "atom_type": "O2s"}, "1": {"label": "a_hydrogen", "atom_type": "H0"}}

>  <type>  (3) 
r2h

$$$$

     RDKit          3D

 10  8  0  0  0  0  0  0  0  0999 V2000
    2.5731   -0.2660   -0.0001 O   0  0  0  0  0  1  0  0  0  0  0  0
    0.2762    0.6843    0.0002 C   0  0  0  0  0  3  0  0  0  0  0  0
   -0.6103   -0.2951    0.0001 C   0  0  0  0  0  0  0  0  0  0  0  0
   -2.1019   -0.1147   -0.0001 C   0  0  0  0  0  0  0  0  0  0  0  0
    1.5795    0.2787    0.0001 H   0  0  0  0  0  0  0  0  0  0  0  0
    0.1640    1.7725   -0.0002 H   0  0  0  0  0  0  0  0  0  0  0  0
   -0.2343   -1.3263    0.0004 H   0  0  0  0  0  0  0  0  0  0  0  0
   -2.5455   -0.5982   -0.8845 H   0  0  0  0  0  0  0  0  0  0  0  0
   -2.3872    0.9463   -0.0032 H   0  0  0  0  0  0  0  0  0  0  0  0
   -2.5452   -0.5929    0.8873 H   0  0  0  0  0  0  0  0  0  0  0  0
  1  5  1  0
  2  3  2  3
  2  6  1  0
  3  4  1  0
  3  7  1  0
  4  8  1  0
  4  9  1  0
  4 10  1  0
M  RAD  2   1   2   2   2
M  END
>  <reaction>  (4) 
rmg_rxn_1163

>  <mol_properties>  (4) 
{"0": {"label": "*1", "atom_type": "O2s"}, "1": {"label": "*3", "atom_type": "Cd"}, "2": {"label": "*4", "atom_type": "Cd"}, "4": {"label": "*2", "atom_type": "H0"}}

>  <type>  (4) 
ts

$$$$
