
     RDKit          3D

 13 12  0  0  0  0  0  0  0  0999 V2000
    1.9466    0.1090    0.9245 N   0  0  0  0  0  2  0  0  0  0  0  0
    1.4466   -0.6584   -0.0107 N   0  0  0  0  0  0  0  0  0  0  0  0
    0.1805   -0.8050   -0.2944 C   0  0  0  0  0  3  0  0  0  0  0  0
   -0.8545   -0.0639    0.4699 C   0  0  0  0  0  0  0  0  0  0  0  0
   -1.0896   -0.6293    1.8757 C   0  0  0  0  0  0  0  0  0  0  0  0
    2.9554    0.0279    0.8555 H   0  0  0  0  0  0  0  0  0  0  0  0
    2.0766   -1.2050   -0.5920 H   0  0  0  0  0  0  0  0  0  0  0  0
   -0.0468   -1.4951   -1.0924 H   0  0  0  0  0  0  0  0  0  0  0  0
   -1.7858   -0.0735   -0.0987 H   0  0  0  0  0  0  0  0  0  0  0  0
   -0.5293    0.9778    0.5630 H   0  0  0  0  0  0  0  0  0  0  0  0
   -0.1608   -0.6126    2.4456 H   0  0  0  0  0  0  0  0  0  0  0  0
   -1.4532   -1.6574    1.8281 H   0  0  0  0  0  0  0  0  0  0  0  0
   -1.8300   -0.0307    2.4087 H   0  0  0  0  0  0  0  0  0  0  0  0
  1  2  1  0
  1  6  1  0
  2  3  1  0
  2  7  1  0
  3  4  1  0
  3  8  1  0
  4  5  1  0
  4  9  1  0
  4 10  1  0
  5 11  1  0
  5 12  1  0
  5 13  1  0
M  CHG  2   1  -1   3   1
M  END
>  <reaction>  (1) 
rmg_rxn_15651

>  <mol_properties>  (1) 
{"0": {"label": "donator", "atom_type": "N1sc"}, "5": {"label": "d_hydrogen", "atom_type": "H0"}}

>  <type>  (1) 
r1h

$$$$

     RDKit          3D

  8  7  0  0  0  0  0  0  0  0999 V2000
    1.7077   -0.1964   -0.0607 C   0  0  0  0  0  3  0  0  0  0  0  0
    0.4209   -0.4565    0.2808 O   0  0  0  0  0  0  0  0  0  0  0  0
   -0.4607    0.4385   -0.2968 N   0  0  0  0  0  0  0  0  0  0  0  0
   -1.6584    0.1416   -0.0244 C   0  0  0  0  0  0  0  0  0  0  0  0
    2.4163   -0.7685    0.5170 H   0  0  0  0  0  0  0  0  0  0  0  0
    1.9214    0.7645   -0.5045 H   0  0  0  0  0  0  0  0  0  0  0  0
   -2.4185    0.7953   -0.4307 H   0  0  0  0  0  0  0  0  0  0  0  0
   -1.9286   -0.7185    0.5831 H   0  0  0  0  0  0  0  0  0  0  0  0
  1  2  1  0
  1  5  1  0
  1  6  1  0
  2  3  1  0
  3  4  2  3
  4  7  1  0
  4  8  1  0
M  RAD  1   1   2
M  END
>  <reaction>  (2) 
rmg_rxn_15651

>  <mol_properties>  (2) 
{"0": {"label": "acceptor", "atom_type": "Cs"}}

>  <type>  (2) 
r2

$$$$

     RDKit          3D

  9  8  0  0  0  0  0  0  0  0999 V2000
   -1.5470   -0.0755   -0.1976 C   0  0  0  0  0  0  0  0  0  0  0  0
   -0.2885    0.4507    0.1749 O   0  0  0  0  0  0  0  0  0  0  0  0
   -0.1502    1.7216   -0.3294 N   0  0  0  0  0  0  0  0  0  0  0  0
    0.9626    2.2353   -0.0219 C   0  0  0  0  0  0  0  0  0  0  0  0
   -1.6392   -0.1356   -1.2844 H   0  0  0  0  0  0  0  0  0  0  0  0
   -2.3597    0.5337    0.2044 H   0  0  0  0  0  0  0  0  0  0  0  0
   -1.5879   -1.0750    0.2318 H   0  0  0  0  0  0  0  0  0  0  0  0
    1.1497    3.2381   -0.3820 H   0  0  0  0  0  0  0  0  0  0  0  0
    1.7060    1.7101    0.5739 H   0  0  0  0  0  0  0  0  0  0  0  0
  1  2  1  0
  1  5  1  0
  1  6  1  0
  1  7  1  0
  2  3  1  0
  3  4  2  3
  4  8  1  0
  4  9  1  0
M  END
>  <reaction>  (3) 
rmg_rxn_15651

>  <mol_properties>  (3) 
{"0": {"label": "acceptor", "atom_type": "Cs"}, "8": {"label": "a_hydrogen", "atom_type": "H0"}}

>  <type>  (3) 
r2h

$$$$

     RDKit          3D

 21 19  0  0  0  0  0  0  0  0999 V2000
    2.1973    0.0605    1.0877 C   0  0  0  0  0  3  0  0  0  0  0  0
    2.4757    0.8808   -0.0043 O   0  0  0  0  0  0  0  0  0  0  0  0
    1.4219    1.7256   -0.2587 N   0  0  0  0  0  0  0  0  0  0  0  0
    1.6807    2.5552   -1.1760 C   0  0  0  0  0  0  0  0  0  0  0  0
    3.0407   -0.6097    1.2227 H   0  0  0  0  0  0  0  0  0  0  0  0
    1.9214    0.6208    1.9819 H   0  0  0  0  0  0  0  0  0  0  0  0
    0.8943    3.2485   -1.4419 H   0  0  0  0  0  0  0  0  0  0  0  0
    2.6421    2.5799   -1.6824 H   0  0  0  0  0  0  0  0  0  0  0  0
    0.0450   -1.2877    0.6350 N   0  0  0  0  0  2  0  0  0  0  0  0
   -0.7519   -0.2847    0.3809 N   0  0  0  0  0  0  0  0  0  0  0  0
   -2.0430   -0.3314    0.1873 C   0  0  0  0  0  3  0  0  0  0  0  0
   -2.7698   -1.6253    0.2557 C   0  0  0  0  0  0  0  0  0  0  0  0
   -2.5389   -2.5190   -0.9688 C   0  0  0  0  0  0  0  0  0  0  0  0
    1.1286   -0.7626    0.8284 H   0  0  0  0  0  0  0  0  0  0  0  0
   -0.3092    0.6373    0.2998 H   0  0  0  0  0  0  0  0  0  0  0  0
   -2.5177    0.6090   -0.0481 H   0  0  0  0  0  0  0  0  0  0  0  0
   -3.8360   -1.4266    0.3773 H   0  0  0  0  0  0  0  0  0  0  0  0
   -2.4283   -2.1620    1.1485 H   0  0  0  0  0  0  0  0  0  0  0  0
   -1.4751   -2.7241   -1.0911 H   0  0  0  0  0  0  0  0  0  0  0  0
   -2.9059   -2.0386   -1.8775 H   0  0  0  0  0  0  0  0  0  0  0  0
   -3.0590   -3.4713   -0.8524 H   0  0  0  0  0  0  0  0  0  0  0  0
  1  2  1  0
  1  5  1  0
  1  6  1  0
  2  3  1  0
  3  4  2  3
  4  7  1  0
  4  8  1  0
  9 10  1  0
  9 14  1  0
 10 11  1  0
 10 15  1  0
 11 12  1  0
 11 16  1  0
 12 13  1  0
 12 17  1  0
 12 18  1  0
 13 19  1  0
 13 20  1  0
 13 21  1  0
M  CHG  2   9  -1  11   1
M  RAD  1   1   2
M  END
>  <reaction>  (4) 
rmg_rxn_15651

>  <mol_properties>  (4) 
{"0": {"label": "*3", "atom_type": "Cs"}, "1": {"label": "*4", "atom_type": "O2s"}, "8": {"label": "*1", "atom_type": "N1sc"}, "9": {"label": "*0", "atom_type": "N3s"}, "13": {"label": "*2", "atom_type": "H0"}}

>  <type>  (4) 
ts

$$$$
