
     RDKit          3D

  9  8  0  0  0  0  0  0  0  0999 V2000
   -1.5470   -0.0755   -0.1976 C   0  0  0  0  0  0  0  0  0  0  0  0
   -0.2885    0.4507    0.1749 O   0  0  0  0  0  0  0  0  0  0  0  0
   -0.1502    1.7216   -0.3294 N   0  0  0  0  0  0  0  0  0  0  0  0
    0.9626    2.2353   -0.0219 C   0  0  0  0  0  0  0  0  0  0  0  0
   -1.6392   -0.1356   -1.2844 H   0  0  0  0  0  0  0  0  0  0  0  0
   -2.3597    0.5337    0.2044 H   0  0  0  0  0  0  0  0  0  0  0  0
   -1.5879   -1.0750    0.2318 H   0  0  0  0  0  0  0  0  0  0  0  0
    1.1497    3.2381   -0.3820 H   0  0  0  0  0  0  0  0  0  0  0  0
    1.7060    1.7101    0.5739 H   0  0  0  0  0  0  0  0  0  0  0  0
  1  2  1  0
  1  5  1  0
  1  6  1  0
  1  7  1  0
  2  3  1  0
  3  4  2  3
  4  8  1  0
  4  9  1  0
M  END
>  <reaction>  (1) 
rmg_rxn_15633

>  <mol_properties>  (1) 
{"0": {"label": "donator", "atom_type": "Cs"}, "4": {"label": "d_hydrogen", "atom_type": "H0"}}

>  <type>  (1) 
r1h

$$$$

     RDKit          3D

 13 12  0  0  0  0  0  0  0  0999 V2000
   -1.5799    1.1067    0.0515 C   0  0  0  0  0  3  0  0  0  0  0  0
   -0.9928   -0.2393    0.2618 C   0  0  0  0  0  0  0  0  0  0  0  0
   -1.7555   -1.0997    1.2551 C   0  0  0  0  0  0  0  0  0  0  0  0
   -1.8361   -0.4775    2.5485 O   0  0  0  0  0  0  0  0  0  0  0  0
   -0.7917   -0.6299    3.3579 C   0  0  0  0  0  0  0  0  0  0  0  0
    0.2062   -1.2445    3.1186 O   0  0  0  0  0  0  0  0  0  0  0  0
   -1.2812    1.7056   -0.7974 H   0  0  0  0  0  0  0  0  0  0  0  0
   -2.2051    1.5632    0.8066 H   0  0  0  0  0  0  0  0  0  0  0  0
    0.0498   -0.1629    0.6011 H   0  0  0  0  0  0  0  0  0  0  0  0
   -0.9461   -0.7884   -0.6853 H   0  0  0  0  0  0  0  0  0  0  0  0
   -1.2850   -2.0771    1.3590 H   0  0  0  0  0  0  0  0  0  0  0  0
   -2.7930   -1.2235    0.9483 H   0  0  0  0  0  0  0  0  0  0  0  0
   -0.9863   -0.1022    4.3012 H   0  0  0  0  0  0  0  0  0  0  0  0
  1  2  1  0
  1  7  1  0
  1  8  1  0
  2  3  1  0
  2  9  1  0
  2 10  1  0
  3  4  1  0
  3 11  1  0
  3 12  1  0
  4  5  1  0
  5  6  2  0
  5 13  1  0
M  RAD  1   1   2
M  END
>  <reaction>  (2) 
rmg_rxn_15633

>  <mol_properties>  (2) 
{"0": {"label": "acceptor", "atom_type": "Cs"}}

>  <type>  (2) 
r2

$$$$

     RDKit          3D

 14 13  0  0  0  0  0  0  0  0999 V2000
    2.1277    0.0527   -0.0768 C   0  0  0  0  0  0  0  0  0  0  0  0
    0.8550    0.0849    0.7591 C   0  0  0  0  0  0  0  0  0  0  0  0
    0.7150    1.3361    1.5963 C   0  0  0  0  0  0  0  0  0  0  0  0
    0.5975    2.4604    0.7083 O   0  0  0  0  0  0  0  0  0  0  0  0
    0.5113    3.6572    1.2782 C   0  0  0  0  0  0  0  0  0  0  0  0
    0.5224    3.8788    2.4534 O   0  0  0  0  0  0  0  0  0  0  0  0
    3.0138    0.1211    0.5584 H   0  0  0  0  0  0  0  0  0  0  0  0
    2.1544    0.8845   -0.7813 H   0  0  0  0  0  0  0  0  0  0  0  0
    2.1955   -0.8742   -0.6473 H   0  0  0  0  0  0  0  0  0  0  0  0
    0.8361   -0.7663    1.4449 H   0  0  0  0  0  0  0  0  0  0  0  0
   -0.0232   -0.0114    0.1158 H   0  0  0  0  0  0  0  0  0  0  0  0
   -0.1715    1.3001    2.2317 H   0  0  0  0  0  0  0  0  0  0  0  0
    1.5840    1.4884    2.2407 H   0  0  0  0  0  0  0  0  0  0  0  0
    0.4263    4.4265    0.4986 H   0  0  0  0  0  0  0  0  0  0  0  0
  1  2  1  0
  1  7  1  0
  1  8  1  0
  1  9  1  0
  2  3  1  0
  2 10  1  0
  2 11  1  0
  3  4  1  0
  3 12  1  0
  3 13  1  0
  4  5  1  0
  5  6  2  0
  5 14  1  0
M  END
>  <reaction>  (3) 
rmg_rxn_15633

>  <mol_properties>  (3) 
{"0": {"label": "a_hydrogen", "atom_type": "H0"}, "1": {"label": "acceptor", "atom_type": "Cs"}}

>  <type>  (3) 
r2h

$$$$

     RDKit          3D

 22 20  0  0  0  0  0  0  0  0999 V2000
   -2.6076   -0.8169    0.5238 C   0  0  0  0  0  0  0  0  0  0  0  0
   -2.5869    0.3837   -0.1716 O   0  0  0  0  0  0  0  0  0  0  0  0
   -1.4798    1.1214    0.2071 N   0  0  0  0  0  0  0  0  0  0  0  0
   -1.3399    2.1631   -0.4917 C   0  0  0  0  0  0  0  0  0  0  0  0
   -1.6220   -1.5799    0.0778 H   0  0  0  0  0  0  0  0  0  0  0  0
   -3.5345   -1.3315    0.2836 H   0  0  0  0  0  0  0  0  0  0  0  0
   -2.4330   -0.6948    1.5936 H   0  0  0  0  0  0  0  0  0  0  0  0
   -0.4811    2.7788   -0.2624 H   0  0  0  0  0  0  0  0  0  0  0  0
   -2.0271    2.4244   -1.2935 H   0  0  0  0  0  0  0  0  0  0  0  0
   -0.5977   -2.3344   -0.4694 C   0  0  0  0  0  3  0  0  0  0  0  0
    0.6489   -1.4987   -0.6075 C   0  0  0  0  0  0  0  0  0  0  0  0
    1.1439   -0.9821    0.7321 C   0  0  0  0  0  0  0  0  0  0  0  0
    2.5018   -0.5084    0.6465 O   0  0  0  0  0  0  0  0  0  0  0  0
    2.7022    0.7372    0.2410 C   0  0  0  0  0  0  0  0  0  0  0  0
    1.8648    1.5354   -0.0674 O   0  0  0  0  0  0  0  0  0  0  0  0
   -0.5111   -3.1679    0.2280 H   0  0  0  0  0  0  0  0  0  0  0  0
   -1.0324   -2.6475   -1.4160 H   0  0  0  0  0  0  0  0  0  0  0  0
    0.4696   -0.6526   -1.2741 H   0  0  0  0  0  0  0  0  0  0  0  0
    1.4474   -2.1003   -1.0589 H   0  0  0  0  0  0  0  0  0  0  0  0
    1.1881   -1.7882    1.4644 H   0  0  0  0  0  0  0  0  0  0  0  0
    0.4993   -0.1836    1.0995 H   0  0  0  0  0  0  0  0  0  0  0  0
    3.7818    0.9419    0.2314 H   0  0  0  0  0  0  0  0  0  0  0  0
  1  2  1  0
  1  5  1  0
  1  6  1  0
  1  7  1  0
  2  3  1  0
  3  4  2  3
  4  8  1  0
  4  9  1  0
 10 11  1  0
 10 16  1  0
 10 17  1  0
 11 12  1  0
 11 18  1  0
 11 19  1  0
 12 13  1  0
 12 20  1  0
 12 21  1  0
 13 14  1  0
 14 15  2  0
 14 22  1  0
M  RAD  1  10   2
M  END
>  <reaction>  (4) 
rmg_rxn_15633

>  <mol_properties>  (4) 
{"0": {"label": "*1", "atom_type": "Cs"}, "1": {"label": "*0", "atom_type": "O2s"}, "4": {"label": "*2", "atom_type": "H0"}, "9": {"label": "*3", "atom_type": "Cs"}, "10": {"label": "*4", "atom_type": "Cs"}}

>  <type>  (4) 
ts

$$$$
