
     RDKit          3D

  3  2  0  0  0  0  0  0  0  0999 V2000
    0.9943   -0.1797    0.0000 O   0  0  0  0  0  1  0  0  0  0  0  0
   -0.1595    0.4394    0.0000 O   0  0  0  0  0  0  0  0  0  0  0  0
   -0.8348   -0.2597    0.0000 H   0  0  0  0  0  0  0  0  0  0  0  0
  1  2  1  0
  2  3  1  0
M  RAD  1   1   2
M  END
>  <reaction>  (1) 
rmg_rxn_1527

>  <mol_properties>  (1) 
{"1": {"label": "donator", "atom_type": "O2s"}, "2": {"label": "d_hydrogen", "atom_type": "H0"}}

>  <type>  (1) 
r1h

$$$$

     RDKit          3D

  4  3  0  0  0  0  0  0  0  0999 V2000
   -0.8019    0.4189    0.0192 N   0  0  0  0  0  0  0  0  0  0  0  0
    0.3609    0.8266    0.0061 N   0  0  0  0  0  0  0  0  0  0  0  0
    0.8339    1.9183    0.0142 O   0  0  0  0  0  1  0  0  0  0  0  0
   -0.7779   -0.6002    0.0040 H   0  0  0  0  0  0  0  0  0  0  0  0
  1  2  2  3
  1  4  1  0
  2  3  1  0
M  RAD  1   3   2
M  END
>  <reaction>  (2) 
rmg_rxn_1527

>  <mol_properties>  (2) 
{"0": {"label": "acceptor", "atom_type": "N3s"}}

>  <type>  (2) 
r2

$$$$

     RDKit          3D

  5  4  0  0  0  0  0  0  0  0999 V2000
   -0.4583    0.0384    0.1517 N   0  0  0  0  0  0  0  0  0  0  0  0
    0.7454   -0.3487    0.5322 N   0  0  0  0  0  0  0  0  0  0  0  0
    0.7566   -1.0388    1.5193 O   0  0  0  0  0  0  0  0  0  0  0  0
   -1.2688   -0.2521    0.6850 H   0  0  0  0  0  0  0  0  0  0  0  0
   -0.5137    0.6154   -0.6670 H   0  0  0  0  0  0  0  0  0  0  0  0
  1  2  1  0
  1  4  1  0
  1  5  1  0
  2  3  2  0
M  END
>  <reaction>  (3) 
rmg_rxn_1527

>  <mol_properties>  (3) 
{"0": {"label": "a_hydrogen", "atom_type": "H0"}, "1": {"label": "acceptor", "atom_type": "N3s"}}

>  <type>  (3) 
r2h

$$$$

     RDKit          3D

  7  5  0  0  0  0  0  0  0  0999 V2000
    0.7385   -1.9896   -0.3388 O   0  0  0  0  0  1  0  0  0  0  0  0
   -0.3437   -1.6403    0.2190 O   0  0  0  0  0  0  0  0  0  0  0  0
   -0.2100   -0.5633    0.6119 H   0  0  0  0  0  0  0  0  0  0  0  0
    0.0138    0.6763    1.0224 N   0  0  0  0  0  0  0  0  0  0  0  0
   -0.0920    1.6695    0.2569 N   0  0  0  0  0  0  0  0  0  0  0  0
   -0.4622    1.6432   -0.8725 O   0  0  0  0  0  1  0  0  0  0  0  0
    0.3556    0.9434    1.9380 H   0  0  0  0  0  0  0  0  0  0  0  0
  1  2  1  0
  2  3  1  0
  4  5  2  3
  4  7  1  0
  5  6  1  0
M  RAD  2   1   2   6   2
M  END
>  <reaction>  (4) 
rmg_rxn_1527

>  <mol_properties>  (4) 
{"0": {"label": "*0", "atom_type": "O2s"}, "1": {"label": "*1", "atom_type": "O2s"}, "2": {"label": "*2", "atom_type": "H0"}, "3": {"label": "*3", "atom_type": "N3d"}, "4": {"label": "*4", "atom_type": "N3d"}}

>  <type>  (4) 
ts

$$$$
