
     RDKit          3D

 10  9  0  0  0  0  0  0  0  0999 V2000
    2.0402   -0.0569    0.0108 C   0  0  0  0  0  0  0  0  0  0  0  0
    0.5945   -0.0165    0.1895 C   0  0  0  0  0  0  0  0  0  0  0  0
   -0.5945    0.0167    0.3364 C   0  0  0  0  0  0  0  0  0  0  0  0
   -2.0402    0.0569    0.5150 C   0  0  0  0  0  0  0  0  0  0  0  0
    2.4759    0.9359    0.1356 H   0  0  0  0  0  0  0  0  0  0  0  0
    2.2993   -0.4160   -0.9866 H   0  0  0  0  0  0  0  0  0  0  0  0
    2.5042   -0.7230    0.7402 H   0  0  0  0  0  0  0  0  0  0  0  0
   -2.3769    1.0708    0.7381 H   0  0  0  0  0  0  0  0  0  0  0  0
   -2.3490   -0.5898    1.3379 H   0  0  0  0  0  0  0  0  0  0  0  0
   -2.5535   -0.2779   -0.3881 H   0  0  0  0  0  0  0  0  0  0  0  0
  1  2  1  0
  1  5  1  0
  1  6  1  0
  1  7  1  0
  2  3  3  0
  3  4  1  0
  4  8  1  0
  4  9  1  0
  4 10  1  0
M  END
>  <reaction>  (1) 
rmg_rxn_15585

>  <mol_properties>  (1) 
{"3": {"label": "donator", "atom_type": "Cs"}, "9": {"label": "d_hydrogen", "atom_type": "H0"}}

>  <type>  (1) 
r1h

$$$$

     RDKit          3D

  8  7  0  0  0  0  0  0  0  0999 V2000
    1.7077   -0.1964   -0.0607 C   0  0  0  0  0  3  0  0  0  0  0  0
    0.4209   -0.4565    0.2808 O   0  0  0  0  0  0  0  0  0  0  0  0
   -0.4607    0.4385   -0.2968 N   0  0  0  0  0  0  0  0  0  0  0  0
   -1.6584    0.1416   -0.0244 C   0  0  0  0  0  0  0  0  0  0  0  0
    2.4163   -0.7685    0.5170 H   0  0  0  0  0  0  0  0  0  0  0  0
    1.9214    0.7645   -0.5045 H   0  0  0  0  0  0  0  0  0  0  0  0
   -2.4185    0.7953   -0.4307 H   0  0  0  0  0  0  0  0  0  0  0  0
   -1.9286   -0.7185    0.5831 H   0  0  0  0  0  0  0  0  0  0  0  0
  1  2  1  0
  1  5  1  0
  1  6  1  0
  2  3  1  0
  3  4  2  3
  4  7  1  0
  4  8  1  0
M  RAD  1   1   2
M  END
>  <reaction>  (2) 
rmg_rxn_15585

>  <mol_properties>  (2) 
{"0": {"label": "acceptor", "atom_type": "Cs"}}

>  <type>  (2) 
r2

$$$$

     RDKit          3D

  9  8  0  0  0  0  0  0  0  0999 V2000
   -1.5470   -0.0755   -0.1976 C   0  0  0  0  0  0  0  0  0  0  0  0
   -0.2885    0.4507    0.1749 O   0  0  0  0  0  0  0  0  0  0  0  0
   -0.1502    1.7216   -0.3294 N   0  0  0  0  0  0  0  0  0  0  0  0
    0.9626    2.2353   -0.0219 C   0  0  0  0  0  0  0  0  0  0  0  0
   -1.6392   -0.1356   -1.2844 H   0  0  0  0  0  0  0  0  0  0  0  0
   -2.3597    0.5337    0.2044 H   0  0  0  0  0  0  0  0  0  0  0  0
   -1.5879   -1.0750    0.2318 H   0  0  0  0  0  0  0  0  0  0  0  0
    1.1497    3.2381   -0.3820 H   0  0  0  0  0  0  0  0  0  0  0  0
    1.7060    1.7101    0.5739 H   0  0  0  0  0  0  0  0  0  0  0  0
  1  2  1  0
  1  5  1  0
  1  6  1  0
  1  7  1  0
  2  3  1  0
  3  4  2  3
  4  8  1  0
  4  9  1  0
M  END
>  <reaction>  (3) 
rmg_rxn_15585

>  <mol_properties>  (3) 
{"0": {"label": "acceptor", "atom_type": "Cs"}, "8": {"label": "a_hydrogen", "atom_type": "H0"}}

>  <type>  (3) 
r2h

$$$$

     RDKit          3D

 18 16  0  0  0  0  0  0  0  0999 V2000
   -1.0926   -0.8103    1.6891 C   0  0  0  0  0  3  0  0  0  0  0  0
    0.0112   -1.2999    1.0222 O   0  0  0  0  0  0  0  0  0  0  0  0
    1.1536   -0.6299    1.4153 N   0  0  0  0  0  0  0  0  0  0  0  0
    2.1382   -0.9263    0.6818 C   0  0  0  0  0  0  0  0  0  0  0  0
   -1.9404   -1.4572    1.4834 H   0  0  0  0  0  0  0  0  0  0  0  0
   -0.9091   -0.5948    2.7408 H   0  0  0  0  0  0  0  0  0  0  0  0
    3.0817   -0.4584    0.9291 H   0  0  0  0  0  0  0  0  0  0  0  0
    2.0581   -1.6113   -0.1586 H   0  0  0  0  0  0  0  0  0  0  0  0
    0.1683    0.7675   -3.2154 C   0  0  0  0  0  0  0  0  0  0  0  0
   -0.4224    1.0669   -1.9190 C   0  0  0  0  0  0  0  0  0  0  0  0
   -0.9126    1.3258   -0.8504 C   0  0  0  0  0  0  0  0  0  0  0  0
   -1.4729    1.5494    0.4401 C   0  0  0  0  0  0  0  0  0  0  0  0
    0.3681   -0.3016   -3.3156 H   0  0  0  0  0  0  0  0  0  0  0  0
    1.1118    1.3004   -3.3471 H   0  0  0  0  0  0  0  0  0  0  0  0
   -0.5001    1.0601   -4.0274 H   0  0  0  0  0  0  0  0  0  0  0  0
   -2.5404    1.7615    0.4435 H   0  0  0  0  0  0  0  0  0  0  0  0
   -0.9134    2.2443    1.0629 H   0  0  0  0  0  0  0  0  0  0  0  0
   -1.3780    0.4054    1.1094 H   0  0  0  0  0  0  0  0  0  0  0  0
  1  2  1  0
  1  5  1  0
  1  6  1  0
  2  3  1  0
  3  4  2  3
  4  7  1  0
  4  8  1  0
  9 10  1  0
  9 13  1  0
  9 14  1  0
  9 15  1  0
 10 11  3  0
 11 12  1  0
 12 16  1  0
 12 17  1  0
 12 18  1  0
M  RAD  1   1   2
M  END
>  <reaction>  (4) 
rmg_rxn_15585

>  <mol_properties>  (4) 
{"0": {"label": "*3", "atom_type": "Cs"}, "1": {"label": "*4", "atom_type": "O2s"}, "10": {"label": "*0", "atom_type": "Ct"}, "11": {"label": "*1", "atom_type": "Cs"}, "17": {"label": "*2", "atom_type": "H0"}}

>  <type>  (4) 
ts

$$$$
