
     RDKit          3D

  9  8  0  0  0  0  0  0  0  0999 V2000
   -1.0314    0.2323   -0.1227 C   0  0  0  0  0  0  0  0  0  0  0  0
    0.3094   -0.4511    0.0063 C   0  0  0  0  0  0  0  0  0  0  0  0
    0.3197   -1.7698    0.6841 N   0  0  0  0  0  0  0  0  0  0  0  0
   -0.7498   -2.1455    1.0557 O   0  0  0  0  0  0  0  0  0  0  0  0
   -1.4744    0.4198    0.8552 H   0  0  0  0  0  0  0  0  0  0  0  0
   -0.9073    1.1865   -0.6350 H   0  0  0  0  0  0  0  0  0  0  0  0
   -1.7319   -0.3778   -0.6927 H   0  0  0  0  0  0  0  0  0  0  0  0
    1.0375    0.1401    0.5713 H   0  0  0  0  0  0  0  0  0  0  0  0
    0.7826   -0.6494   -0.9609 H   0  0  0  0  0  0  0  0  0  0  0  0
  1  2  1  0
  1  5  1  0
  1  6  1  0
  1  7  1  0
  2  3  1  0
  2  8  1  0
  2  9  1  0
  3  4  2  0
M  END
>  <reaction>  (1) 
rmg_rxn_15419

>  <mol_properties>  (1) 
{"0": {"label": "donator", "atom_type": "Cs"}, "4": {"label": "d_hydrogen", "atom_type": "H0"}}

>  <type>  (1) 
r1h

$$$$

     RDKit          3D

  5  4  0  0  0  0  0  0  0  0999 V2000
    0.8934    0.3742    0.4948 O   0  0  0  0  0  0  0  0  0  0  0  0
    0.1582   -0.1610   -0.5904 N   0  0  0  0  0  0  0  0  0  0  0  0
   -1.0297   -0.3739   -0.4689 C   0  0  0  0  0  3  0  0  0  0  0  0
    1.7805    0.4382    0.1306 H   0  0  0  0  0  0  0  0  0  0  0  0
   -1.8023   -0.2775    0.2859 H   0  0  0  0  0  0  0  0  0  0  0  0
  1  2  1  0
  1  4  1  0
  2  3  2  3
  3  5  1  0
M  RAD  1   3   2
M  END
>  <reaction>  (2) 
rmg_rxn_15419

>  <mol_properties>  (2) 
{"2": {"label": "acceptor", "atom_type": "Cd"}}

>  <type>  (2) 
r2

$$$$

     RDKit          3D

  6  5  0  0  0  0  0  0  0  0999 V2000
    1.2314    0.0428    0.5088 O   0  0  0  0  0  0  0  0  0  0  0  0
    0.2987    0.2341   -0.4915 N   0  0  0  0  0  0  0  0  0  0  0  0
   -0.8599   -0.1122   -0.1290 C   0  0  0  0  0  0  0  0  0  0  0  0
    2.0507    0.3401    0.1082 H   0  0  0  0  0  0  0  0  0  0  0  0
   -1.0700   -0.5112    0.8610 H   0  0  0  0  0  0  0  0  0  0  0  0
   -1.6509    0.0064   -0.8574 H   0  0  0  0  0  0  0  0  0  0  0  0
  1  2  1  0
  1  4  1  0
  2  3  2  3
  3  5  1  0
  3  6  1  0
M  END
>  <reaction>  (3) 
rmg_rxn_15419

>  <mol_properties>  (3) 
{"2": {"label": "acceptor", "atom_type": "Cd"}, "5": {"label": "a_hydrogen", "atom_type": "H0"}}

>  <type>  (3) 
r2h

$$$$

     RDKit          3D

 14 12  0  0  0  0  0  0  0  0999 V2000
   -2.7305    0.2340   -1.1924 O   0  0  0  0  0  0  0  0  0  0  0  0
   -1.6048    0.4528   -0.3952 N   0  0  0  0  0  0  0  0  0  0  0  0
   -0.6784    1.0509   -0.9715 C   0  0  0  0  0  3  0  0  0  0  0  0
   -3.3225   -0.2400   -0.6038 H   0  0  0  0  0  0  0  0  0  0  0  0
   -0.6437    1.4050   -2.0009 H   0  0  0  0  0  0  0  0  0  0  0  0
    1.3308    1.2157    0.7638 C   0  0  0  0  0  0  0  0  0  0  0  0
    1.1556   -0.0659    1.5146 C   0  0  0  0  0  0  0  0  0  0  0  0
    1.5358   -1.3113    0.8031 N   0  0  0  0  0  0  0  0  0  0  0  0
    1.9439   -1.1476   -0.3054 O   0  0  0  0  0  0  0  0  0  0  0  0
    0.4251    1.2169   -0.1534 H   0  0  0  0  0  0  0  0  0  0  0  0
    1.1035    2.0953    1.3612 H   0  0  0  0  0  0  0  0  0  0  0  0
    2.2701    1.3059    0.2239 H   0  0  0  0  0  0  0  0  0  0  0  0
    0.1142   -0.2353    1.8094 H   0  0  0  0  0  0  0  0  0  0  0  0
    1.7377   -0.1052    2.4435 H   0  0  0  0  0  0  0  0  0  0  0  0
  1  2  1  0
  1  4  1  0
  2  3  2  3
  3  5  1  0
  6  7  1  0
  6 10  1  0
  6 11  1  0
  6 12  1  0
  7  8  1  0
  7 13  1  0
  7 14  1  0
  8  9  2  0
M  RAD  1   3   2
M  END
>  <reaction>  (4) 
rmg_rxn_15419

>  <mol_properties>  (4) 
{"1": {"label": "*4", "atom_type": "N3d"}, "2": {"label": "*3", "atom_type": "Cd"}, "5": {"label": "*1", "atom_type": "Cs"}, "6": {"label": "*0", "atom_type": "Cs"}, "9": {"label": "*2", "atom_type": "H0"}}

>  <type>  (4) 
ts

$$$$
