
     RDKit          3D

  9  8  0  0  0  0  0  0  0  0999 V2000
   -1.0314    0.2323   -0.1227 C   0  0  0  0  0  0  0  0  0  0  0  0
    0.3094   -0.4511    0.0063 C   0  0  0  0  0  0  0  0  0  0  0  0
    0.3197   -1.7698    0.6841 N   0  0  0  0  0  0  0  0  0  0  0  0
   -0.7498   -2.1455    1.0557 O   0  0  0  0  0  0  0  0  0  0  0  0
   -1.4744    0.4198    0.8552 H   0  0  0  0  0  0  0  0  0  0  0  0
   -0.9073    1.1865   -0.6350 H   0  0  0  0  0  0  0  0  0  0  0  0
   -1.7319   -0.3778   -0.6927 H   0  0  0  0  0  0  0  0  0  0  0  0
    1.0375    0.1401    0.5713 H   0  0  0  0  0  0  0  0  0  0  0  0
    0.7826   -0.6494   -0.9609 H   0  0  0  0  0  0  0  0  0  0  0  0
  1  2  1  0
  1  5  1  0
  1  6  1  0
  1  7  1  0
  2  3  1  0
  2  8  1  0
  2  9  1  0
  3  4  2  0
M  END
>  <reaction>  (1) 
rmg_rxn_599

>  <mol_properties>  (1) 
{"1": {"label": "donator", "atom_type": "Cs"}, "7": {"label": "d_hydrogen", "atom_type": "H0"}}

>  <type>  (1) 
r1h

$$$$

     RDKit          3D

  5  4  0  0  0  0  0  0  0  0999 V2000
   -0.4986    0.0189   -0.0212 C   0  0  0  0  0  0  0  0  0  0  0  0
    0.6799   -0.4410    0.1054 N   0  0  0  0  0  0  0  0  0  0  0  0
    1.7950    0.0236    0.0595 O   0  0  0  0  0  1  0  0  0  0  0  0
   -1.3180   -0.6753    0.0776 H   0  0  0  0  0  0  0  0  0  0  0  0
   -0.6584    1.0737   -0.2213 H   0  0  0  0  0  0  0  0  0  0  0  0
  1  2  2  3
  1  4  1  0
  1  5  1  0
  2  3  1  0
M  RAD  1   3   2
M  END
>  <reaction>  (2) 
rmg_rxn_599

>  <mol_properties>  (2) 
{"0": {"label": "acceptor", "atom_type": "Cs"}}

>  <type>  (2) 
r2

$$$$

     RDKit          3D

  6  5  0  0  0  0  0  0  0  0999 V2000
   -0.4547   -0.0097   -0.0070 C   0  0  0  0  0  0  0  0  0  0  0  0
    0.8695   -0.1987   -0.6218 N   0  0  0  0  0  0  0  0  0  0  0  0
    1.0322   -1.2809   -1.0969 O   0  0  0  0  0  0  0  0  0  0  0  0
   -0.2820    0.2687    1.0347 H   0  0  0  0  0  0  0  0  0  0  0  0
   -1.0716   -0.9051   -0.0916 H   0  0  0  0  0  0  0  0  0  0  0  0
   -0.9130    0.8487   -0.5026 H   0  0  0  0  0  0  0  0  0  0  0  0
  1  2  1  0
  1  4  1  0
  1  5  1  0
  1  6  1  0
  2  3  2  0
M  END
>  <reaction>  (3) 
rmg_rxn_599

>  <mol_properties>  (3) 
{"0": {"label": "acceptor", "atom_type": "Cs"}, "5": {"label": "a_hydrogen", "atom_type": "H0"}}

>  <type>  (3) 
r2h

$$$$

     RDKit          3D

 14 12  0  0  0  0  0  0  0  0999 V2000
    1.1817   -1.2176    0.0823 C   0  0  0  0  0  0  0  0  0  0  0  0
    1.0134   -1.4676    1.4370 N   0  0  0  0  0  0  0  0  0  0  0  0
    0.7232   -0.5492    2.1648 O   0  0  0  0  0  1  0  0  0  0  0  0
    1.3835   -2.1116   -0.4968 H   0  0  0  0  0  0  0  0  0  0  0  0
    1.7954   -0.3453   -0.1475 H   0  0  0  0  0  0  0  0  0  0  0  0
   -1.0771   -0.2398   -2.1858 C   0  0  0  0  0  0  0  0  0  0  0  0
   -1.0886   -0.0396   -0.6917 C   0  0  0  0  0  0  0  0  0  0  0  0
   -0.8153    1.2512   -0.2079 N   0  0  0  0  0  0  0  0  0  0  0  0
    0.1053    1.8535   -0.7035 O   0  0  0  0  0  0  0  0  0  0  0  0
   -0.1508    0.1421   -2.6144 H   0  0  0  0  0  0  0  0  0  0  0  0
   -1.1732   -1.2999   -2.4192 H   0  0  0  0  0  0  0  0  0  0  0  0
   -1.9131    0.2870   -2.6500 H   0  0  0  0  0  0  0  0  0  0  0  0
   -0.0180   -0.7162   -0.2720 H   0  0  0  0  0  0  0  0  0  0  0  0
   -1.9157   -0.4842   -0.1447 H   0  0  0  0  0  0  0  0  0  0  0  0
  1  2  2  3
  1  4  1  0
  1  5  1  0
  2  3  1  0
  6  7  1  0
  6 10  1  0
  6 11  1  0
  6 12  1  0
  7  8  1  0
  7 13  1  0
  7 14  1  0
  8  9  2  0
M  RAD  1   3   2
M  END
>  <reaction>  (4) 
rmg_rxn_599

>  <mol_properties>  (4) 
{"0": {"label": "*3", "atom_type": "Cd"}, "1": {"label": "*4", "atom_type": "N3d"}, "6": {"label": "*1", "atom_type": "Cs"}, "7": {"label": "*0", "atom_type": "N3d"}, "12": {"label": "*2", "atom_type": "H0"}}

>  <type>  (4) 
ts

$$$$
