
     RDKit          3D

 18 17  0  0  0  0  0  0  0  0999 V2000
    2.2026   -0.7213   -0.2612 C   0  0  0  0  0  0  0  0  0  0  0  0
    1.5384    0.2638    0.6915 C   0  0  0  0  0  0  0  0  0  0  0  0
    2.2584    1.5946    0.7694 C   0  0  0  0  0  0  0  0  0  0  0  0
    2.2212    2.2185   -0.4893 O   0  0  0  0  0  0  0  0  0  0  0  0
    2.8988    3.4488   -0.5204 C   0  0  0  0  0  0  0  0  0  0  0  0
    2.7981    4.0296   -1.9118 C   0  0  0  0  0  0  0  0  0  0  0  0
    3.2294   -0.9309    0.0486 H   0  0  0  0  0  0  0  0  0  0  0  0
    2.2338   -0.3181   -1.2734 H   0  0  0  0  0  0  0  0  0  0  0  0
    1.6610   -1.6680   -0.2875 H   0  0  0  0  0  0  0  0  0  0  0  0
    1.4990   -0.1566    1.7002 H   0  0  0  0  0  0  0  0  0  0  0  0
    0.5055    0.4455    0.3835 H   0  0  0  0  0  0  0  0  0  0  0  0
    3.3038    1.4410    1.0808 H   0  0  0  0  0  0  0  0  0  0  0  0
    1.7844    2.2410    1.5226 H   0  0  0  0  0  0  0  0  0  0  0  0
    2.4596    4.1376    0.2164 H   0  0  0  0  0  0  0  0  0  0  0  0
    3.9524    3.3035   -0.2397 H   0  0  0  0  0  0  0  0  0  0  0  0
    1.7543    4.1869   -2.1856 H   0  0  0  0  0  0  0  0  0  0  0  0
    3.2472    3.3545   -2.6411 H   0  0  0  0  0  0  0  0  0  0  0  0
    3.3178    4.9878   -1.9600 H   0  0  0  0  0  0  0  0  0  0  0  0
  1  2  1  0
  1  7  1  0
  1  8  1  0
  1  9  1  0
  2  3  1  0
  2 10  1  0
  2 11  1  0
  3  4  1  0
  3 12  1  0
  3 13  1  0
  4  5  1  0
  5  6  1  0
  5 14  1  0
  5 15  1  0
  6 16  1  0
  6 17  1  0
  6 18  1  0
M  END
>  <reaction>  (1) 
rmg_rxn_288

>  <mol_properties>  (1) 
{"4": {"label": "donator", "atom_type": "Cs"}, "13": {"label": "d_hydrogen", "atom_type": "H0"}}

>  <type>  (1) 
r1h

$$$$

     RDKit          3D

  8  7  0  0  0  0  0  0  0  0999 V2000
   -1.0336    0.3440   -0.0356 C   0  0  0  0  0  3  0  0  0  0  0  0
    0.1991   -0.4326   -0.0698 C   0  0  0  0  0  0  0  0  0  0  0  0
    0.9631   -0.0368    1.2269 N   0  0  0  0  0  0  0  0  0  0  0  0
    0.8138   -0.8074    2.1160 O   0  0  0  0  0  0  0  0  0  0  0  0
   -1.0668    1.3490   -0.4321 H   0  0  0  0  0  0  0  0  0  0  0  0
   -1.8598    0.0102    0.5774 H   0  0  0  0  0  0  0  0  0  0  0  0
    0.0447   -1.5108   -0.0264 H   0  0  0  0  0  0  0  0  0  0  0  0
    0.8639   -0.1518   -0.8851 H   0  0  0  0  0  0  0  0  0  0  0  0
  1  2  1  0
  1  5  1  0
  1  6  1  0
  2  3  1  0
  2  7  1  0
  2  8  1  0
  3  4  2  0
M  RAD  1   1   2
M  END
>  <reaction>  (2) 
rmg_rxn_288

>  <mol_properties>  (2) 
{"0": {"label": "acceptor", "atom_type": "Cs"}}

>  <type>  (2) 
r2

$$$$

     RDKit          3D

  9  8  0  0  0  0  0  0  0  0999 V2000
   -1.0314    0.2323   -0.1227 C   0  0  0  0  0  0  0  0  0  0  0  0
    0.3094   -0.4511    0.0063 C   0  0  0  0  0  0  0  0  0  0  0  0
    0.3197   -1.7698    0.6841 N   0  0  0  0  0  0  0  0  0  0  0  0
   -0.7498   -2.1455    1.0557 O   0  0  0  0  0  0  0  0  0  0  0  0
   -1.4744    0.4198    0.8552 H   0  0  0  0  0  0  0  0  0  0  0  0
   -0.9073    1.1865   -0.6350 H   0  0  0  0  0  0  0  0  0  0  0  0
   -1.7319   -0.3778   -0.6927 H   0  0  0  0  0  0  0  0  0  0  0  0
    1.0375    0.1401    0.5713 H   0  0  0  0  0  0  0  0  0  0  0  0
    0.7826   -0.6494   -0.9609 H   0  0  0  0  0  0  0  0  0  0  0  0
  1  2  1  0
  1  5  1  0
  1  6  1  0
  1  7  1  0
  2  3  1  0
  2  8  1  0
  2  9  1  0
  3  4  2  0
M  END
>  <reaction>  (3) 
rmg_rxn_288

>  <mol_properties>  (3) 
{"0": {"label": "acceptor", "atom_type": "Cs"}, "8": {"label": "a_hydrogen", "atom_type": "H0"}}

>  <type>  (3) 
r2h

$$$$

     RDKit          3D

 26 24  0  0  0  0  0  0  0  0999 V2000
    0.1430    0.6624    1.5012 C   0  0  0  0  0  3  0  0  0  0  0  0
   -0.6803    1.8151    1.9611 C   0  0  0  0  0  0  0  0  0  0  0  0
   -0.8284    2.0167    3.4404 N   0  0  0  0  0  0  0  0  0  0  0  0
   -0.2605    1.2158    4.1138 O   0  0  0  0  0  0  0  0  0  0  0  0
    1.2023    0.7263    1.7359 H   0  0  0  0  0  0  0  0  0  0  0  0
   -0.2696   -0.3189    1.7210 H   0  0  0  0  0  0  0  0  0  0  0  0
   -0.2963    2.7814    1.6165 H   0  0  0  0  0  0  0  0  0  0  0  0
   -1.7168    1.7666    1.6108 H   0  0  0  0  0  0  0  0  0  0  0  0
    0.6166   -2.9093   -3.3512 C   0  0  0  0  0  0  0  0  0  0  0  0
    0.8870   -2.8162   -1.8555 C   0  0  0  0  0  0  0  0  0  0  0  0
    1.0775   -1.3948   -1.3707 C   0  0  0  0  0  0  0  0  0  0  0  0
   -0.1167   -0.6689   -1.5770 O   0  0  0  0  0  0  0  0  0  0  0  0
   -0.0398    0.6584   -1.2107 C   0  0  0  0  0  0  0  0  0  0  0  0
   -1.3118    1.3844   -1.5380 C   0  0  0  0  0  0  0  0  0  0  0  0
    1.4437   -2.4834   -3.9244 H   0  0  0  0  0  0  0  0  0  0  0  0
   -0.2902   -2.3654   -3.6159 H   0  0  0  0  0  0  0  0  0  0  0  0
    0.4935   -3.9474   -3.6627 H   0  0  0  0  0  0  0  0  0  0  0  0
    1.7891   -3.3785   -1.6001 H   0  0  0  0  0  0  0  0  0  0  0  0
    0.0644   -3.2677   -1.2951 H   0  0  0  0  0  0  0  0  0  0  0  0
    1.8994   -0.9102   -1.9179 H   0  0  0  0  0  0  0  0  0  0  0  0
    1.3344   -1.3818   -0.3041 H   0  0  0  0  0  0  0  0  0  0  0  0
    0.1001    0.7049    0.0734 H   0  0  0  0  0  0  0  0  0  0  0  0
    0.8649    1.1463   -1.5976 H   0  0  0  0  0  0  0  0  0  0  0  0
   -2.1606    0.9055   -1.0467 H   0  0  0  0  0  0  0  0  0  0  0  0
   -1.4994    1.3846   -2.6145 H   0  0  0  0  0  0  0  0  0  0  0  0
   -1.2523    2.4199   -1.1996 H   0  0  0  0  0  0  0  0  0  0  0  0
  1  2  1  0
  1  5  1  0
  1  6  1  0
  2  3  1  0
  2  7  1  0
  2  8  1  0
  3  4  2  0
  9 10  1  0
  9 15  1  0
  9 16  1  0
  9 17  1  0
 10 11  1  0
 10 18  1  0
 10 19  1  0
 11 12  1  0
 11 20  1  0
 11 21  1  0
 12 13  1  0
 13 14  1  0
 13 22  1  0
 13 23  1  0
 14 24  1  0
 14 25  1  0
 14 26  1  0
M  RAD  1   1   2
M  END
>  <reaction>  (4) 
rmg_rxn_288

>  <mol_properties>  (4) 
{"0": {"label": "*3", "atom_type": "Cs"}, "1": {"label": "*4", "atom_type": "Cs"}, "11": {"label": "*0", "atom_type": "O2s"}, "12": {"label": "*1", "atom_type": "Cs"}, "21": {"label": "*2", "atom_type": "H0"}}

>  <type>  (4) 
ts

$$$$
