
     RDKit          3D

 10  9  0  0  0  0  0  0  0  0999 V2000
    1.9281   -0.2104    0.0000 C   0  0  0  0  0  0  0  0  0  0  0  0
    0.6881    0.1708    0.0000 C   0  0  0  0  0  0  0  0  0  0  0  0
   -0.5547    0.5538   -0.0000 C   0  0  0  0  0  0  0  0  0  0  0  0
   -1.7319   -0.3629    0.0000 C   0  0  0  0  0  0  0  0  0  0  0  0
    2.4558   -0.3741   -0.9324 H   0  0  0  0  0  0  0  0  0  0  0  0
    2.4558   -0.3741    0.9324 H   0  0  0  0  0  0  0  0  0  0  0  0
   -0.7657    1.6194   -0.0000 H   0  0  0  0  0  0  0  0  0  0  0  0
   -2.3467   -0.1819    0.8869 H   0  0  0  0  0  0  0  0  0  0  0  0
   -1.4304   -1.4153    0.0000 H   0  0  0  0  0  0  0  0  0  0  0  0
   -2.3467   -0.1819   -0.8869 H   0  0  0  0  0  0  0  0  0  0  0  0
  1  2  2  0
  1  5  1  0
  1  6  1  0
  2  3  2  0
  3  4  1  0
  3  7  1  0
  4  8  1  0
  4  9  1  0
  4 10  1  0
M  END
>  <reaction>  (1) 
rmg_rxn_16804

>  <mol_properties>  (1) 
{"2": {"label": "donator", "atom_type": "Cd"}, "6": {"label": "d_hydrogen", "atom_type": "H0"}}

>  <type>  (1) 
r1h

$$$$

     RDKit          3D

  7  6  0  0  0  0  0  0  0  0999 V2000
    1.1443   -0.1870   -0.0026 C   0  0  0  0  0  0  0  0  0  0  0  0
   -0.1897    0.4747   -0.0008 C   0  0  0  0  0  0  0  0  0  0  0  0
   -1.4128   -0.3182   -0.0012 N   0  0  0  0  0  2  0  0  0  0  0  0
    1.7295    0.1072   -0.8768 H   0  0  0  0  0  0  0  0  0  0  0  0
    1.0018   -1.2707   -0.0040 H   0  0  0  0  0  0  0  0  0  0  0  0
    1.6793    0.0928    0.9085 H   0  0  0  0  0  0  0  0  0  0  0  0
   -0.2483    1.5721    0.0008 H   0  0  0  0  0  0  0  0  0  0  0  0
  1  2  1  0
  1  4  1  0
  1  5  1  0
  1  6  1  0
  2  3  2  0
  2  7  1  0
M  RAD  1   3   2
M  END
>  <reaction>  (2) 
rmg_rxn_16804

>  <mol_properties>  (2) 
{"2": {"label": "acceptor", "atom_type": "N3d"}}

>  <type>  (2) 
r2

$$$$

     RDKit          3D

  8  7  0  0  0  0  0  0  0  0999 V2000
    1.2099   -0.1388    0.0025 C   0  0  0  0  0  0  0  0  0  0  0  0
   -0.1788    0.4141    0.0007 C   0  0  0  0  0  0  0  0  0  0  0  0
   -1.2100   -0.3603    0.0013 N   0  0  0  0  0  0  0  0  0  0  0  0
    1.7355    0.2223   -0.8851 H   0  0  0  0  0  0  0  0  0  0  0  0
    1.7521    0.1663    0.9007 H   0  0  0  0  0  0  0  0  0  0  0  0
    1.1564   -1.2296   -0.0424 H   0  0  0  0  0  0  0  0  0  0  0  0
   -0.2911    1.5112   -0.0010 H   0  0  0  0  0  0  0  0  0  0  0  0
   -2.0699    0.2005   -0.0002 H   0  0  0  0  0  0  0  0  0  0  0  0
  1  2  1  0
  1  4  1  0
  1  5  1  0
  1  6  1  0
  2  3  2  3
  2  7  1  0
  3  8  1  0
M  END
>  <reaction>  (3) 
rmg_rxn_16804

>  <mol_properties>  (3) 
{"2": {"label": "acceptor", "atom_type": "N3d"}, "7": {"label": "a_hydrogen", "atom_type": "H0"}}

>  <type>  (3) 
r2h

$$$$

     RDKit          3D

 17 15  0  0  0  0  0  0  0  0999 V2000
    3.4047   -0.1336   -0.2583 C   0  0  0  0  0  0  0  0  0  0  0  0
    1.9685   -0.5393   -0.1768 C   0  0  0  0  0  0  0  0  0  0  0  0
    1.2472   -0.2535    0.8534 N   0  0  0  0  0  0  0  0  0  0  0  0
    4.0192   -1.0296   -0.3776 H   0  0  0  0  0  0  0  0  0  0  0  0
    3.6859    0.3616    0.6746 H   0  0  0  0  0  0  0  0  0  0  0  0
    3.5737    0.5431   -1.0994 H   0  0  0  0  0  0  0  0  0  0  0  0
    1.5455   -1.0936   -1.0313 H   0  0  0  0  0  0  0  0  0  0  0  0
   -2.9044   -1.3556   -0.1354 C   0  0  0  0  0  0  0  0  0  0  0  0
   -1.9881   -0.4459   -0.0097 C   0  0  0  0  0  0  0  0  0  0  0  0
   -1.0696    0.4661    0.1163 C   0  0  0  0  0  3  0  0  0  0  0  0
   -1.2691    1.9220   -0.1422 C   0  0  0  0  0  0  0  0  0  0  0  0
   -3.0496   -1.8667   -1.0800 H   0  0  0  0  0  0  0  0  0  0  0  0
   -3.5412   -1.6177    0.7015 H   0  0  0  0  0  0  0  0  0  0  0  0
    0.1215    0.0962    0.4953 H   0  0  0  0  0  0  0  0  0  0  0  0
   -1.0556    2.4955    0.7649 H   0  0  0  0  0  0  0  0  0  0  0  0
   -2.2939    2.1447   -0.4562 H   0  0  0  0  0  0  0  0  0  0  0  0
   -0.5879    2.2586   -0.9297 H   0  0  0  0  0  0  0  0  0  0  0  0
  1  2  1  0
  1  4  1  0
  1  5  1  0
  1  6  1  0
  2  3  2  3
  2  7  1  0
  3 14  1  0
  8  9  2  0
  8 12  1  0
  8 13  1  0
  9 10  2  0
 10 11  1  0
 11 15  1  0
 11 16  1  0
 11 17  1  0
M  RAD  1  10   2
M  END
>  <reaction>  (4) 
rmg_rxn_16804

>  <mol_properties>  (4) 
{"1": {"label": "*0", "atom_type": "Cd"}, "2": {"label": "*1", "atom_type": "N3d"}, "8": {"label": "*4", "atom_type": "Cdd"}, "9": {"label": "*3", "atom_type": "Cd"}, "13": {"label": "*2", "atom_type": "H0"}}

>  <type>  (4) 
ts

$$$$
