
     RDKit          3D

  6  5  0  0  0  0  0  0  0  0999 V2000
   -0.4901    0.0045    0.0014 C   0  0  0  0  0  0  0  0  0  0  0  0
    0.9645   -0.0089   -0.0027 C   0  0  0  0  0  0  0  0  0  0  0  0
    2.1108   -0.0195   -0.0059 N   0  0  0  0  0  0  0  0  0  0  0  0
   -0.8700   -0.6407   -0.7900 H   0  0  0  0  0  0  0  0  0  0  0  0
   -0.8625   -0.3540    0.9604 H   0  0  0  0  0  0  0  0  0  0  0  0
   -0.8530    1.0185   -0.1631 H   0  0  0  0  0  0  0  0  0  0  0  0
  1  2  1  0
  1  4  1  0
  1  5  1  0
  1  6  1  0
  2  3  3  0
M  END
>  <reaction>  (1) 
rmg_rxn_307

>  <mol_properties>  (1) 
{"0": {"label": "donator", "atom_type": "Cs"}, "3": {"label": "d_hydrogen", "atom_type": "H0"}}

>  <type>  (1) 
r1h

$$$$

     RDKit          3D

 11 10  0  0  0  0  0  0  0  0999 V2000
   -1.2230    0.3768   -0.0849 C   0  0  0  0  0  0  0  0  0  0  0  0
   -0.0734   -0.5533    0.2746 C   0  0  0  0  0  0  0  0  0  0  0  0
   -0.0853   -1.8426   -0.5372 C   0  0  0  0  0  0  0  0  0  0  0  0
    0.0319   -1.6944   -1.8815 O   0  0  0  0  0  1  0  0  0  0  0  0
   -2.1874   -0.0885    0.1341 H   0  0  0  0  0  0  0  0  0  0  0  0
   -1.1670    1.3099    0.4765 H   0  0  0  0  0  0  0  0  0  0  0  0
   -1.2014    0.6189   -1.1483 H   0  0  0  0  0  0  0  0  0  0  0  0
    0.8834   -0.0518    0.1071 H   0  0  0  0  0  0  0  0  0  0  0  0
   -0.1104   -0.8149    1.3362 H   0  0  0  0  0  0  0  0  0  0  0  0
    0.6767   -2.5604   -0.1861 H   0  0  0  0  0  0  0  0  0  0  0  0
   -1.0401   -2.3871   -0.3877 H   0  0  0  0  0  0  0  0  0  0  0  0
  1  2  1  0
  1  5  1  0
  1  6  1  0
  1  7  1  0
  2  3  1  0
  2  8  1  0
  2  9  1  0
  3  4  1  0
  3 10  1  0
  3 11  1  0
M  RAD  1   4   2
M  END
>  <reaction>  (2) 
rmg_rxn_307

>  <mol_properties>  (2) 
{"3": {"label": "acceptor", "atom_type": "O2s"}}

>  <type>  (2) 
r2

$$$$

     RDKit          3D

 12 11  0  0  0  0  0  0  0  0999 V2000
   -1.4643   -0.2505   -0.5284 C   0  0  0  0  0  0  0  0  0  0  0  0
   -0.3946    0.4302    0.3143 C   0  0  0  0  0  0  0  0  0  0  0  0
   -0.5959    0.2382    1.8102 C   0  0  0  0  0  0  0  0  0  0  0  0
   -0.5633   -1.1190    2.2092 O   0  0  0  0  0  0  0  0  0  0  0  0
   -2.4511    0.1644   -0.3109 H   0  0  0  0  0  0  0  0  0  0  0  0
   -1.5019   -1.3198   -0.3181 H   0  0  0  0  0  0  0  0  0  0  0  0
   -1.2720   -0.1182   -1.5941 H   0  0  0  0  0  0  0  0  0  0  0  0
    0.5965    0.0515    0.0385 H   0  0  0  0  0  0  0  0  0  0  0  0
   -0.3776    1.5047    0.1078 H   0  0  0  0  0  0  0  0  0  0  0  0
   -1.5821    0.6048    2.1034 H   0  0  0  0  0  0  0  0  0  0  0  0
    0.1495    0.8220    2.3649 H   0  0  0  0  0  0  0  0  0  0  0  0
    0.3017   -1.4750    1.9997 H   0  0  0  0  0  0  0  0  0  0  0  0
  1  2  1  0
  1  5  1  0
  1  6  1  0
  1  7  1  0
  2  3  1  0
  2  8  1  0
  2  9  1  0
  3  4  1  0
  3 10  1  0
  3 11  1  0
  4 12  1  0
M  END
>  <reaction>  (3) 
rmg_rxn_307

>  <mol_properties>  (3) 
{"0": {"label": "a_hydrogen", "atom_type": "H0"}, "4": {"label": "acceptor", "atom_type": "O2s"}}

>  <type>  (3) 
r2h

$$$$

     RDKit          3D

 17 15  0  0  0  0  0  0  0  0999 V2000
    1.0624    1.6339    0.5973 C   0  0  0  0  0  0  0  0  0  0  0  0
    0.6453    1.9633   -0.7256 C   0  0  0  0  0  0  0  0  0  0  0  0
    0.2648    2.1870   -1.7888 N   0  0  0  0  0  2  0  0  0  0  0  0
    0.1880    0.8139    1.0670 H   0  0  0  0  0  0  0  0  0  0  0  0
    1.9984    1.0837    0.6371 H   0  0  0  0  0  0  0  0  0  0  0  0
    1.0159    2.4674    1.2929 H   0  0  0  0  0  0  0  0  0  0  0  0
   -0.0709   -2.6953    0.4040 C   0  0  0  0  0  0  0  0  0  0  0  0
   -0.4197   -1.5045   -0.4772 C   0  0  0  0  0  0  0  0  0  0  0  0
   -1.2800   -0.4680    0.2288 C   0  0  0  0  0  0  0  0  0  0  0  0
   -0.7086    0.0602    1.3867 O   0  0  0  0  0  0  0  0  0  0  0  0
   -0.9725   -3.2288    0.7144 H   0  0  0  0  0  0  0  0  0  0  0  0
    0.5701   -3.4017   -0.1246 H   0  0  0  0  0  0  0  0  0  0  0  0
    0.4501   -2.3718    1.3059 H   0  0  0  0  0  0  0  0  0  0  0  0
    0.4933   -1.0165   -0.8325 H   0  0  0  0  0  0  0  0  0  0  0  0
   -0.9544   -1.8346   -1.3720 H   0  0  0  0  0  0  0  0  0  0  0  0
   -1.5715    0.3353   -0.4620 H   0  0  0  0  0  0  0  0  0  0  0  0
   -2.2194   -0.9221    0.5770 H   0  0  0  0  0  0  0  0  0  0  0  0
  1  2  2  0
  1  5  1  0
  1  6  1  0
  2  3  2  0
  4 10  1  0
  7  8  1  0
  7 11  1  0
  7 12  1  0
  7 13  1  0
  8  9  1  0
  8 14  1  0
  8 15  1  0
  9 10  1  0
  9 16  1  0
  9 17  1  0
M  RAD  1   3   2
M  END
>  <reaction>  (4) 
rmg_rxn_307

>  <mol_properties>  (4) 
{"0": {"label": "*3", "atom_type": "Cd"}, "1": {"label": "*4", "atom_type": "Cdd"}, "3": {"label": "*2", "atom_type": "H0"}, "8": {"label": "*0", "atom_type": "Cs"}, "9": {"label": "*1", "atom_type": "O2s"}}

>  <type>  (4) 
ts

$$$$
