
     RDKit          3D

 14 14  0  0  0  0  0  0  0  0999 V2000
   -1.1778    0.2241    0.1818 C   0  0  0  0  0  0  0  0  0  0  0  0
   -0.5633   -1.1636    0.0678 C   0  0  0  0  0  0  0  0  0  0  0  0
    0.6943   -1.1996    0.7146 O   0  0  0  0  0  0  0  0  0  0  0  0
    1.5547   -0.2288    0.2011 C   0  0  0  0  0  0  0  0  0  0  0  0
    1.0729    1.0696    0.3698 O   0  0  0  0  0  0  0  0  0  0  0  0
   -0.1607    1.2493   -0.2989 C   0  0  0  0  0  0  0  0  0  0  0  0
   -2.0927    0.2866   -0.4117 H   0  0  0  0  0  0  0  0  0  0  0  0
   -1.4303    0.4248    1.2248 H   0  0  0  0  0  0  0  0  0  0  0  0
   -1.1822   -1.9235    0.5431 H   0  0  0  0  0  0  0  0  0  0  0  0
   -0.4389   -1.4347   -0.9919 H   0  0  0  0  0  0  0  0  0  0  0  0
    1.7250   -0.4207   -0.8742 H   0  0  0  0  0  0  0  0  0  0  0  0
    2.4896   -0.3010    0.7524 H   0  0  0  0  0  0  0  0  0  0  0  0
   -0.0080    1.1481   -1.3844 H   0  0  0  0  0  0  0  0  0  0  0  0
   -0.4826    2.2695   -0.0942 H   0  0  0  0  0  0  0  0  0  0  0  0
  1  2  1  0
  1  6  1  0
  1  7  1  0
  1  8  1  0
  2  3  1  0
  2  9  1  0
  2 10  1  0
  3  4  1  0
  4  5  1  0
  4 11  1  0
  4 12  1  0
  5  6  1  0
  6 13  1  0
  6 14  1  0
M  END
>  <reaction>  (1) 
rmg_rxn_15423

>  <mol_properties>  (1) 
{"1": {"label": "donator", "atom_type": "Cs"}, "8": {"label": "d_hydrogen", "atom_type": "H0"}}

>  <type>  (1) 
r1h

$$$$

     RDKit          3D

  5  4  0  0  0  0  0  0  0  0999 V2000
    0.8934    0.3742    0.4948 O   0  0  0  0  0  0  0  0  0  0  0  0
    0.1582   -0.1610   -0.5904 N   0  0  0  0  0  0  0  0  0  0  0  0
   -1.0297   -0.3739   -0.4689 C   0  0  0  0  0  3  0  0  0  0  0  0
    1.7805    0.4382    0.1306 H   0  0  0  0  0  0  0  0  0  0  0  0
   -1.8023   -0.2775    0.2859 H   0  0  0  0  0  0  0  0  0  0  0  0
  1  2  1  0
  1  4  1  0
  2  3  2  3
  3  5  1  0
M  RAD  1   3   2
M  END
>  <reaction>  (2) 
rmg_rxn_15423

>  <mol_properties>  (2) 
{"2": {"label": "acceptor", "atom_type": "Cd"}}

>  <type>  (2) 
r2

$$$$

     RDKit          3D

  6  5  0  0  0  0  0  0  0  0999 V2000
    1.2314    0.0428    0.5088 O   0  0  0  0  0  0  0  0  0  0  0  0
    0.2987    0.2341   -0.4915 N   0  0  0  0  0  0  0  0  0  0  0  0
   -0.8599   -0.1122   -0.1290 C   0  0  0  0  0  0  0  0  0  0  0  0
    2.0507    0.3401    0.1082 H   0  0  0  0  0  0  0  0  0  0  0  0
   -1.0700   -0.5112    0.8610 H   0  0  0  0  0  0  0  0  0  0  0  0
   -1.6509    0.0064   -0.8574 H   0  0  0  0  0  0  0  0  0  0  0  0
  1  2  1  0
  1  4  1  0
  2  3  2  3
  3  5  1  0
  3  6  1  0
M  END
>  <reaction>  (3) 
rmg_rxn_15423

>  <mol_properties>  (3) 
{"2": {"label": "acceptor", "atom_type": "Cd"}, "5": {"label": "a_hydrogen", "atom_type": "H0"}}

>  <type>  (3) 
r2h

$$$$

     RDKit          3D

 19 18  0  0  0  0  0  0  0  0999 V2000
    3.6723   -0.3521    0.0845 O   0  0  0  0  0  0  0  0  0  0  0  0
    2.3145   -0.2027   -0.2402 N   0  0  0  0  0  0  0  0  0  0  0  0
    1.8291    0.8947    0.0853 C   0  0  0  0  0  3  0  0  0  0  0  0
    3.8706   -1.2364   -0.2324 H   0  0  0  0  0  0  0  0  0  0  0  0
    2.3293    1.7277    0.5798 H   0  0  0  0  0  0  0  0  0  0  0  0
   -1.0248   -0.2361   -1.4423 C   0  0  0  0  0  0  0  0  0  0  0  0
   -0.7756    1.0731   -0.7220 C   0  0  0  0  0  0  0  0  0  0  0  0
   -1.6032    1.2706    0.3744 O   0  0  0  0  0  0  0  0  0  0  0  0
   -1.6273    0.1604    1.2401 C   0  0  0  0  0  0  0  0  0  0  0  0
   -2.0256   -1.0077    0.6071 O   0  0  0  0  0  0  0  0  0  0  0  0
   -1.1162   -1.3620   -0.4232 C   0  0  0  0  0  0  0  0  0  0  0  0
   -1.9641   -0.1682   -1.9987 H   0  0  0  0  0  0  0  0  0  0  0  0
   -0.2171   -0.4276   -2.1509 H   0  0  0  0  0  0  0  0  0  0  0  0
    0.4057    1.0412   -0.3262 H   0  0  0  0  0  0  0  0  0  0  0  0
   -0.8323    1.9552   -1.3582 H   0  0  0  0  0  0  0  0  0  0  0  0
   -2.3571    0.3848    2.0142 H   0  0  0  0  0  0  0  0  0  0  0  0
   -0.6225    0.0319    1.6757 H   0  0  0  0  0  0  0  0  0  0  0  0
   -1.4930   -2.2804   -0.8700 H   0  0  0  0  0  0  0  0  0  0  0  0
   -0.1267   -1.5604    0.0079 H   0  0  0  0  0  0  0  0  0  0  0  0
  1  2  1  0
  1  4  1  0
  2  3  2  3
  3  5  1  0
  6  7  1  0
  6 11  1  0
  6 12  1  0
  6 13  1  0
  7  8  1  0
  7 14  1  0
  7 15  1  0
  8  9  1  0
  9 10  1  0
  9 16  1  0
  9 17  1  0
 10 11  1  0
 11 18  1  0
 11 19  1  0
M  RAD  1   3   2
M  END
>  <reaction>  (4) 
rmg_rxn_15423

>  <mol_properties>  (4) 
{"1": {"label": "*4", "atom_type": "N3d"}, "2": {"label": "*3", "atom_type": "Cd"}, "6": {"label": "*1", "atom_type": "Cs"}, "7": {"label": "*0", "atom_type": "O2s"}, "13": {"label": "*2", "atom_type": "H0"}}

>  <type>  (4) 
ts

$$$$
