
     RDKit          3D

  9  8  0  0  0  0  0  0  0  0999 V2000
   -1.0434   -0.0834    0.0221 C   0  0  0  0  0  0  0  0  0  0  0  0
    0.4680   -0.2131    0.0785 C   0  0  0  0  0  0  0  0  0  0  0  0
    0.9450   -1.3136   -0.7058 N   0  0  0  0  0  2  0  0  0  0  0  0
   -1.5170   -0.9919    0.3960 H   0  0  0  0  0  0  0  0  0  0  0  0
   -1.3864    0.7592    0.6249 H   0  0  0  0  0  0  0  0  0  0  0  0
   -1.3736    0.0696   -1.0061 H   0  0  0  0  0  0  0  0  0  0  0  0
    0.8045   -0.3309    1.1214 H   0  0  0  0  0  0  0  0  0  0  0  0
    0.9463    0.7186   -0.2648 H   0  0  0  0  0  0  0  0  0  0  0  0
    1.9638   -1.3321   -0.6157 H   0  0  0  0  0  0  0  0  0  0  0  0
  1  2  1  0
  1  4  1  0
  1  5  1  0
  1  6  1  0
  2  3  1  0
  2  7  1  0
  2  8  1  0
  3  9  1  0
M  RAD  1   3   2
M  END
>  <reaction>  (1) 
rmg_rxn_4

>  <mol_properties>  (1) 
{"2": {"label": "donator", "atom_type": "N3s"}, "8": {"label": "d_hydrogen", "atom_type": "H0"}}

>  <type>  (1) 
r1h

$$$$

     RDKit          3D

  9  8  0  0  0  0  0  0  0  0999 V2000
    1.3246   -0.8124   -0.0809 C   0  0  0  0  0  2  0  0  0  0  0  0
    0.4082    0.3080    0.1518 C   0  0  0  0  0  0  0  0  0  0  0  0
   -1.0545   -0.0277   -0.1520 C   0  0  0  0  0  0  0  0  0  0  0  0
    2.3933   -0.9471    0.0203 H   0  0  0  0  0  0  0  0  0  0  0  0
    0.4898    0.6406    1.1970 H   0  0  0  0  0  0  0  0  0  0  0  0
    0.7134    1.1680   -0.4624 H   0  0  0  0  0  0  0  0  0  0  0  0
   -1.4014   -0.8515    0.4727 H   0  0  0  0  0  0  0  0  0  0  0  0
   -1.1767   -0.3214   -1.1952 H   0  0  0  0  0  0  0  0  0  0  0  0
   -1.6915    0.8372    0.0370 H   0  0  0  0  0  0  0  0  0  0  0  0
  1  2  1  0
  1  4  1  0
  2  3  1  0
  2  5  1  0
  2  6  1  0
  3  7  1  0
  3  8  1  0
  3  9  1  0
M  RAD  1   1   3
M  END
>  <reaction>  (2) 
rmg_rxn_4

>  <mol_properties>  (2) 
{"0": {"label": "acceptor", "atom_type": "Cs"}}

>  <type>  (2) 
r2

$$$$

     RDKit          3D

 10  9  0  0  0  0  0  0  0  0999 V2000
    1.3802    0.3101   -0.1184 C   0  0  0  0  0  3  0  0  0  0  0  0
    0.1674   -0.3214    0.4572 C   0  0  0  0  0  0  0  0  0  0  0  0
   -0.8660    0.6823    0.9569 C   0  0  0  0  0  0  0  0  0  0  0  0
    2.2617   -0.2782   -0.3355 H   0  0  0  0  0  0  0  0  0  0  0  0
    1.3734    1.3484   -0.4248 H   0  0  0  0  0  0  0  0  0  0  0  0
   -0.3013   -0.9748   -0.2947 H   0  0  0  0  0  0  0  0  0  0  0  0
    0.4543   -0.9974    1.2713 H   0  0  0  0  0  0  0  0  0  0  0  0
   -1.1928    1.3380    0.1470 H   0  0  0  0  0  0  0  0  0  0  0  0
   -1.7471    0.1781    1.3563 H   0  0  0  0  0  0  0  0  0  0  0  0
   -0.4486    1.3102    1.7464 H   0  0  0  0  0  0  0  0  0  0  0  0
  1  2  1  0
  1  4  1  0
  1  5  1  0
  2  3  1  0
  2  6  1  0
  2  7  1  0
  3  8  1  0
  3  9  1  0
  3 10  1  0
M  RAD  1   1   2
M  END
>  <reaction>  (3) 
rmg_rxn_4

>  <mol_properties>  (3) 
{"0": {"label": "a_hydrogen", "atom_type": "H0"}, "1": {"label": "acceptor", "atom_type": "Cs"}}

>  <type>  (3) 
r2h

$$$$

     RDKit          3D

 18 16  0  0  0  0  0  0  0  0999 V2000
   -0.2690   -0.2638   -2.9646 C   0  0  0  0  0  0  0  0  0  0  0  0
   -0.7435   -0.2862   -1.5192 C   0  0  0  0  0  0  0  0  0  0  0  0
   -0.2611    0.8413   -0.7815 N   0  0  0  0  0  2  0  0  0  0  0  0
    0.8202   -0.2945   -3.0101 H   0  0  0  0  0  0  0  0  0  0  0  0
   -0.6618   -1.1229   -3.5114 H   0  0  0  0  0  0  0  0  0  0  0  0
   -0.6032    0.6466   -3.4628 H   0  0  0  0  0  0  0  0  0  0  0  0
   -0.4401   -1.2201   -1.0207 H   0  0  0  0  0  0  0  0  0  0  0  0
   -1.8445   -0.2900   -1.4745 H   0  0  0  0  0  0  0  0  0  0  0  0
   -0.6514    0.5863    0.2839 H   0  0  0  0  0  0  0  0  0  0  0  0
   -0.6510    0.5403    1.6969 C   0  0  0  0  0  2  0  0  0  0  0  0
    0.6653    0.1475    2.2386 C   0  0  0  0  0  0  0  0  0  0  0  0
    1.2290   -1.1614    1.7022 C   0  0  0  0  0  0  0  0  0  0  0  0
   -0.9460    1.5426    2.0337 H   0  0  0  0  0  0  0  0  0  0  0  0
    1.3938    0.9623    2.1182 H   0  0  0  0  0  0  0  0  0  0  0  0
    0.5107    0.0866    3.3283 H   0  0  0  0  0  0  0  0  0  0  0  0
    1.4610   -1.0667    0.6400 H   0  0  0  0  0  0  0  0  0  0  0  0
    0.5058   -1.9698    1.8196 H   0  0  0  0  0  0  0  0  0  0  0  0
    2.1471   -1.4411    2.2208 H   0  0  0  0  0  0  0  0  0  0  0  0
  1  2  1  0
  1  4  1  0
  1  5  1  0
  1  6  1  0
  2  3  1  0
  2  7  1  0
  2  8  1  0
  3  9  1  0
 10 11  1  0
 10 13  1  0
 11 12  1  0
 11 14  1  0
 11 15  1  0
 12 16  1  0
 12 17  1  0
 12 18  1  0
M  RAD  2   3   2  10   3
M  END
>  <reaction>  (4) 
rmg_rxn_4

>  <mol_properties>  (4) 
{"1": {"label": "*0", "atom_type": "Cs"}, "2": {"label": "*1", "atom_type": "N3s"}, "8": {"label": "*2", "atom_type": "H0"}, "9": {"label": "*3", "atom_type": "Cs"}, "10": {"label": "*4", "atom_type": "Cs"}}

>  <type>  (4) 
ts

$$$$
