
     RDKit          3D

 14 13  0  0  0  0  0  0  0  0999 V2000
    2.1277    0.0527   -0.0768 C   0  0  0  0  0  0  0  0  0  0  0  0
    0.8550    0.0849    0.7591 C   0  0  0  0  0  0  0  0  0  0  0  0
    0.7150    1.3361    1.5963 C   0  0  0  0  0  0  0  0  0  0  0  0
    0.5975    2.4604    0.7083 O   0  0  0  0  0  0  0  0  0  0  0  0
    0.5113    3.6572    1.2782 C   0  0  0  0  0  0  0  0  0  0  0  0
    0.5224    3.8788    2.4534 O   0  0  0  0  0  0  0  0  0  0  0  0
    3.0138    0.1211    0.5584 H   0  0  0  0  0  0  0  0  0  0  0  0
    2.1544    0.8845   -0.7813 H   0  0  0  0  0  0  0  0  0  0  0  0
    2.1955   -0.8742   -0.6473 H   0  0  0  0  0  0  0  0  0  0  0  0
    0.8361   -0.7663    1.4449 H   0  0  0  0  0  0  0  0  0  0  0  0
   -0.0232   -0.0114    0.1158 H   0  0  0  0  0  0  0  0  0  0  0  0
   -0.1715    1.3001    2.2317 H   0  0  0  0  0  0  0  0  0  0  0  0
    1.5840    1.4884    2.2407 H   0  0  0  0  0  0  0  0  0  0  0  0
    0.4263    4.4265    0.4986 H   0  0  0  0  0  0  0  0  0  0  0  0
  1  2  1  0
  1  7  1  0
  1  8  1  0
  1  9  1  0
  2  3  1  0
  2 10  1  0
  2 11  1  0
  3  4  1  0
  3 12  1  0
  3 13  1  0
  4  5  1  0
  5  6  2  0
  5 14  1  0
M  END
>  <reaction>  (1) 
rmg_rxn_1449

>  <mol_properties>  (1) 
{"0": {"label": "donator", "atom_type": "Cs"}, "6": {"label": "d_hydrogen", "atom_type": "H0"}}

>  <type>  (1) 
r1h

$$$$

     RDKit          3D

  8  7  0  0  0  0  0  0  0  0999 V2000
    1.3778   -0.6812    0.2772 C   0  0  0  0  0  3  0  0  0  0  0  0
    0.4890    0.2108   -0.0590 C   0  0  0  0  0  0  0  0  0  0  0  0
   -1.0010    0.0286   -0.0323 C   0  0  0  0  0  0  0  0  0  0  0  0
    2.4535   -0.7507    0.3287 H   0  0  0  0  0  0  0  0  0  0  0  0
    0.8447    1.1899   -0.3945 H   0  0  0  0  0  0  0  0  0  0  0  0
   -1.4635    0.7638    0.6301 H   0  0  0  0  0  0  0  0  0  0  0  0
   -1.2709   -0.9687    0.3117 H   0  0  0  0  0  0  0  0  0  0  0  0
   -1.4218    0.1801   -1.0289 H   0  0  0  0  0  0  0  0  0  0  0  0
  1  2  2  3
  1  4  1  0
  2  3  1  0
  2  5  1  0
  3  6  1  0
  3  7  1  0
  3  8  1  0
M  RAD  1   1   2
M  END
>  <reaction>  (2) 
rmg_rxn_1449

>  <mol_properties>  (2) 
{"0": {"label": "acceptor", "atom_type": "Cd"}}

>  <type>  (2) 
r2

$$$$

     RDKit          3D

  9  8  0  0  0  0  0  0  0  0999 V2000
    1.1303   -0.2933   -0.7510 C   0  0  0  0  0  0  0  0  0  0  0  0
    0.2866    0.4560   -0.0588 C   0  0  0  0  0  0  0  0  0  0  0  0
   -0.9719   -0.0331    0.5823 C   0  0  0  0  0  0  0  0  0  0  0  0
    2.0274    0.1230   -1.1916 H   0  0  0  0  0  0  0  0  0  0  0  0
    0.9532   -1.3530   -0.9023 H   0  0  0  0  0  0  0  0  0  0  0  0
    0.5065    1.5132    0.0659 H   0  0  0  0  0  0  0  0  0  0  0  0
   -0.9526    0.1426    1.6610 H   0  0  0  0  0  0  0  0  0  0  0  0
   -1.1182   -1.1002    0.4106 H   0  0  0  0  0  0  0  0  0  0  0  0
   -1.8412    0.5010    0.1901 H   0  0  0  0  0  0  0  0  0  0  0  0
  1  2  2  3
  1  4  1  0
  1  5  1  0
  2  3  1  0
  2  6  1  0
  3  7  1  0
  3  8  1  0
  3  9  1  0
M  END
>  <reaction>  (3) 
rmg_rxn_1449

>  <mol_properties>  (3) 
{"0": {"label": "acceptor", "atom_type": "Cd"}, "8": {"label": "a_hydrogen", "atom_type": "H0"}}

>  <type>  (3) 
r2h

$$$$

     RDKit          3D

 22 20  0  0  0  0  0  0  0  0999 V2000
    2.3411    0.9413   -0.2509 C   0  0  0  0  0  3  0  0  0  0  0  0
    2.2310   -0.3340    0.0533 C   0  0  0  0  0  0  0  0  0  0  0  0
    3.3168   -1.3580   -0.1085 C   0  0  0  0  0  0  0  0  0  0  0  0
    3.2070    1.4563   -0.6541 H   0  0  0  0  0  0  0  0  0  0  0  0
    1.2883   -0.7099    0.4482 H   0  0  0  0  0  0  0  0  0  0  0  0
    4.2260   -0.9194   -0.5205 H   0  0  0  0  0  0  0  0  0  0  0  0
    2.9856   -2.1622   -0.7698 H   0  0  0  0  0  0  0  0  0  0  0  0
    3.5562   -1.8149    0.8548 H   0  0  0  0  0  0  0  0  0  0  0  0
    0.1719    2.4201    0.2732 C   0  0  0  0  0  0  0  0  0  0  0  0
   -0.9293    1.4280    0.5581 C   0  0  0  0  0  0  0  0  0  0  0  0
   -1.2905    0.6283   -0.6797 C   0  0  0  0  0  0  0  0  0  0  0  0
   -2.3800   -0.2759   -0.4278 O   0  0  0  0  0  0  0  0  0  0  0  0
   -2.0820   -1.4446    0.1247 C   0  0  0  0  0  0  0  0  0  0  0  0
   -0.9905   -1.8287    0.4339 O   0  0  0  0  0  0  0  0  0  0  0  0
    1.2411    1.7541   -0.0156 H   0  0  0  0  0  0  0  0  0  0  0  0
    0.4597    3.0149    1.1375 H   0  0  0  0  0  0  0  0  0  0  0  0
   -0.0064    3.0530   -0.5968 H   0  0  0  0  0  0  0  0  0  0  0  0
   -1.8268    1.9437    0.9166 H   0  0  0  0  0  0  0  0  0  0  0  0
   -0.6169    0.7438    1.3504 H   0  0  0  0  0  0  0  0  0  0  0  0
   -1.6538    1.2819   -1.4721 H   0  0  0  0  0  0  0  0  0  0  0  0
   -0.4314    0.0663   -1.0468 H   0  0  0  0  0  0  0  0  0  0  0  0
   -3.0027   -2.0281    0.2580 H   0  0  0  0  0  0  0  0  0  0  0  0
  1  2  2  3
  1  4  1  0
  2  3  1  0
  2  5  1  0
  3  6  1  0
  3  7  1  0
  3  8  1  0
  9 10  1  0
  9 15  1  0
  9 16  1  0
  9 17  1  0
 10 11  1  0
 10 18  1  0
 10 19  1  0
 11 12  1  0
 11 20  1  0
 11 21  1  0
 12 13  1  0
 13 14  2  0
 13 22  1  0
M  RAD  1   1   2
M  END
>  <reaction>  (4) 
rmg_rxn_1449

>  <mol_properties>  (4) 
{"0": {"label": "*3", "atom_type": "Cd"}, "1": {"label": "*4", "atom_type": "Cd"}, "8": {"label": "*1", "atom_type": "Cs"}, "9": {"label": "*0", "atom_type": "Cs"}, "14": {"label": "*2", "atom_type": "H0"}}

>  <type>  (4) 
ts

$$$$
