
     RDKit          3D

 18 17  0  0  0  0  0  0  0  0999 V2000
    2.3520    0.9498    0.2303 C   0  0  0  0  0  0  0  0  0  0  0  0
    1.9456   -0.3826   -0.3833 C   0  0  0  0  0  0  0  0  0  0  0  0
    0.6129   -0.8880    0.1586 C   0  0  0  0  0  0  0  0  0  0  0  0
   -0.4216    0.0223   -0.2088 O   0  0  0  0  0  0  0  0  0  0  0  0
   -1.6937   -0.3990    0.2766 C   0  0  0  0  0  0  0  0  0  0  0  0
   -2.7315    0.6179   -0.1548 C   0  0  0  0  0  0  0  0  0  0  0  0
    2.4361    0.8699    1.3188 H   0  0  0  0  0  0  0  0  0  0  0  0
    1.6247    1.7340   -0.0020 H   0  0  0  0  0  0  0  0  0  0  0  0
    3.3238    1.2651   -0.1628 H   0  0  0  0  0  0  0  0  0  0  0  0
    2.7250   -1.1255   -0.1814 H   0  0  0  0  0  0  0  0  0  0  0  0
    1.8763   -0.2576   -1.4701 H   0  0  0  0  0  0  0  0  0  0  0  0
    0.6566   -0.9798    1.2501 H   0  0  0  0  0  0  0  0  0  0  0  0
    0.3966   -1.8732   -0.2699 H   0  0  0  0  0  0  0  0  0  0  0  0
   -1.9410   -1.3825   -0.1378 H   0  0  0  0  0  0  0  0  0  0  0  0
   -1.6694   -0.4651    1.3699 H   0  0  0  0  0  0  0  0  0  0  0  0
   -2.7548    0.7058   -1.2461 H   0  0  0  0  0  0  0  0  0  0  0  0
   -2.4866    1.6097    0.2395 H   0  0  0  0  0  0  0  0  0  0  0  0
   -3.7268    0.3335    0.1978 H   0  0  0  0  0  0  0  0  0  0  0  0
  1  2  1  0
  1  7  1  0
  1  8  1  0
  1  9  1  0
  2  3  1  0
  2 10  1  0
  2 11  1  0
  3  4  1  0
  3 12  1  0
  3 13  1  0
  4  5  1  0
  5  6  1  0
  5 14  1  0
  5 15  1  0
  6 16  1  0
  6 17  1  0
  6 18  1  0
M  END
>  <reaction>  (1) 
rmg_rxn_1156

>  <mol_properties>  (1) 
{"1": {"label": "donator", "atom_type": "Cs"}, "9": {"label": "d_hydrogen", "atom_type": "H0"}}

>  <type>  (1) 
r1h

$$$$

     RDKit          3D

  1  0  0  0  0  0  0  0  0  0999 V2000
    0.0000    0.0000    0.0000 O   0  0  0  0  0 15  0  0  0  0  0  0
M  END
>  <reaction>  (2) 
rmg_rxn_1156

>  <mol_properties>  (2) 
{"0": {"label": "acceptor", "atom_type": "O2s"}}

>  <type>  (2) 
r2

$$$$

     RDKit          3D

  2  1  0  0  0  0  0  0  0  0999 V2000
    0.0000    0.0000    0.1079 O   0  0  0  0  0  1  0  0  0  0  0  0
    0.0000    0.0000   -0.8631 H   0  0  0  0  0  0  0  0  0  0  0  0
  1  2  1  0
M  RAD  1   1   2
M  END
>  <reaction>  (3) 
rmg_rxn_1156

>  <mol_properties>  (3) 
{"0": {"label": "acceptor", "atom_type": "O2s"}, "1": {"label": "a_hydrogen", "atom_type": "H0"}}

>  <type>  (3) 
r2h

$$$$

     RDKit          3D

 19 17  0  0  0  0  0  0  0  0999 V2000
    3.3903   -1.0840    0.1431 O   0  0  0  0  0 15  0  0  0  0  0  0
    1.5545    1.6346    0.2189 C   0  0  0  0  0  0  0  0  0  0  0  0
    1.3556    0.2905   -0.4252 C   0  0  0  0  0  0  0  0  0  0  0  0
    0.2254   -0.5482    0.1135 C   0  0  0  0  0  0  0  0  0  0  0  0
   -0.9869    0.0919   -0.2019 O   0  0  0  0  0  0  0  0  0  0  0  0
   -2.1179   -0.6108    0.2582 C   0  0  0  0  0  0  0  0  0  0  0  0
   -3.3597    0.1586   -0.1261 C   0  0  0  0  0  0  0  0  0  0  0  0
    1.6578    1.5417    1.3018 H   0  0  0  0  0  0  0  0  0  0  0  0
    0.6835    2.2654    0.0207 H   0  0  0  0  0  0  0  0  0  0  0  0
    2.4374    2.1387   -0.1736 H   0  0  0  0  0  0  0  0  0  0  0  0
    2.3866   -0.3854   -0.1747 H   0  0  0  0  0  0  0  0  0  0  0  0
    1.3669    0.3213   -1.5156 H   0  0  0  0  0  0  0  0  0  0  0  0
    0.3270   -0.6604    1.2029 H   0  0  0  0  0  0  0  0  0  0  0  0
    0.2544   -1.5539   -0.3269 H   0  0  0  0  0  0  0  0  0  0  0  0
   -2.1355   -1.6177   -0.1824 H   0  0  0  0  0  0  0  0  0  0  0  0
   -2.0613   -0.7332    1.3493 H   0  0  0  0  0  0  0  0  0  0  0  0
   -3.4212    0.2696   -1.2091 H   0  0  0  0  0  0  0  0  0  0  0  0
   -3.3487    1.1524    0.3227 H   0  0  0  0  0  0  0  0  0  0  0  0
   -4.2505   -0.3680    0.2197 H   0  0  0  0  0  0  0  0  0  0  0  0
  2  3  1  0
  2  8  1  0
  2  9  1  0
  2 10  1  0
  3  4  1  0
  3 11  1  0
  3 12  1  0
  4  5  1  0
  4 13  1  0
  4 14  1  0
  5  6  1  0
  6  7  1  0
  6 15  1  0
  6 16  1  0
  7 17  1  0
  7 18  1  0
  7 19  1  0
M  END
>  <reaction>  (4) 
rmg_rxn_1156

>  <mol_properties>  (4) 
{"0": {"label": "*3", "atom_type": "O2s"}, "2": {"label": "*1", "atom_type": "Cs"}, "3": {"label": "*0", "atom_type": "Cs"}, "10": {"label": "*2", "atom_type": "H0"}}

>  <type>  (4) 
ts

$$$$
