
     RDKit          3D

  8  7  0  0  0  0  0  0  0  0999 V2000
    0.9548    0.1194   -0.0790 C   0  0  0  0  0  0  0  0  0  0  0  0
   -0.4838   -0.2649    0.0193 C   0  0  0  0  0  0  0  0  0  0  0  0
   -0.8933   -1.1081    0.8664 N   0  0  0  0  0  0  0  0  0  0  0  0
    1.3360   -0.0983   -1.0800 H   0  0  0  0  0  0  0  0  0  0  0  0
    1.0698    1.1948    0.0786 H   0  0  0  0  0  0  0  0  0  0  0  0
    1.5426   -0.4219    0.6602 H   0  0  0  0  0  0  0  0  0  0  0  0
   -1.1575    0.2324   -0.6905 H   0  0  0  0  0  0  0  0  0  0  0  0
   -1.8989   -1.2455    0.7886 H   0  0  0  0  0  0  0  0  0  0  0  0
  1  2  1  0
  1  4  1  0
  1  5  1  0
  1  6  1  0
  2  3  2  3
  2  7  1  0
  3  8  1  0
M  END
>  <reaction>  (1) 
rmg_rxn_16765

>  <mol_properties>  (1) 
{"2": {"label": "donator", "atom_type": "N3d"}, "7": {"label": "d_hydrogen", "atom_type": "H0"}}

>  <type>  (1) 
r1h

$$$$

     RDKit          3D

  2  1  0  0  0  0  0  0  0  0999 V2000
    0.0000    0.0000    0.5193 N   0  0  0  0  0  1  0  0  0  0  0  0
    0.0000    0.0000   -0.5193 H   0  0  0  0  0  0  0  0  0  0  0  0
  1  2  1  0
M  RAD  1   1   3
M  END
>  <reaction>  (2) 
rmg_rxn_16765

>  <mol_properties>  (2) 
{"0": {"label": "acceptor", "atom_type": "N3s"}}

>  <type>  (2) 
r2

$$$$

     RDKit          3D

  3  2  0  0  0  0  0  0  0  0999 V2000
    0.0002    0.4233    0.0000 N   0  0  0  0  0  2  0  0  0  0  0  0
   -0.8051   -0.2112    0.0000 H   0  0  0  0  0  0  0  0  0  0  0  0
    0.8049   -0.2121    0.0000 H   0  0  0  0  0  0  0  0  0  0  0  0
  1  2  1  0
  1  3  1  0
M  RAD  1   1   2
M  END
>  <reaction>  (3) 
rmg_rxn_16765

>  <mol_properties>  (3) 
{"0": {"label": "acceptor", "atom_type": "N3s"}, "2": {"label": "a_hydrogen", "atom_type": "H0"}}

>  <type>  (3) 
r2h

$$$$

     RDKit          3D

 10  8  0  0  0  0  0  0  0  0999 V2000
    2.3663   -0.4448    0.1563 N   0  0  0  0  0  1  0  0  0  0  0  0
    3.0420    0.3288    0.2675 H   0  0  0  0  0  0  0  0  0  0  0  0
   -2.1212   -0.0881   -0.0102 C   0  0  0  0  0  0  0  0  0  0  0  0
   -0.6353   -0.2665    0.0387 C   0  0  0  0  0  0  0  0  0  0  0  0
    0.1535    0.6999    0.1751 N   0  0  0  0  0  0  0  0  0  0  0  0
   -2.5869   -0.6607    0.7947 H   0  0  0  0  0  0  0  0  0  0  0  0
   -2.3890    0.9620    0.0870 H   0  0  0  0  0  0  0  0  0  0  0  0
   -2.5076   -0.4786   -0.9540 H   0  0  0  0  0  0  0  0  0  0  0  0
   -0.2553   -1.2921   -0.0509 H   0  0  0  0  0  0  0  0  0  0  0  0
    1.2744    0.2321    0.1772 H   0  0  0  0  0  0  0  0  0  0  0  0
  1  2  1  0
  3  4  1  0
  3  6  1  0
  3  7  1  0
  3  8  1  0
  4  5  2  3
  4  9  1  0
  5 10  1  0
M  RAD  1   1   3
M  END
>  <reaction>  (4) 
rmg_rxn_16765

>  <mol_properties>  (4) 
{"0": {"label": "*3", "atom_type": "N3s"}, "1": {"label": "*4", "atom_type": "H0"}, "3": {"label": "*0", "atom_type": "Cd"}, "4": {"label": "*1", "atom_type": "N3d"}, "9": {"label": "*2", "atom_type": "H0"}}

>  <type>  (4) 
ts

$$$$
