
     RDKit          3D

  8  7  0  0  0  0  0  0  0  0999 V2000
    0.9548    0.1194   -0.0790 C   0  0  0  0  0  0  0  0  0  0  0  0
   -0.4838   -0.2649    0.0193 C   0  0  0  0  0  0  0  0  0  0  0  0
   -0.8933   -1.1081    0.8664 N   0  0  0  0  0  0  0  0  0  0  0  0
    1.3360   -0.0983   -1.0800 H   0  0  0  0  0  0  0  0  0  0  0  0
    1.0698    1.1948    0.0786 H   0  0  0  0  0  0  0  0  0  0  0  0
    1.5426   -0.4219    0.6602 H   0  0  0  0  0  0  0  0  0  0  0  0
   -1.1575    0.2324   -0.6905 H   0  0  0  0  0  0  0  0  0  0  0  0
   -1.8989   -1.2455    0.7886 H   0  0  0  0  0  0  0  0  0  0  0  0
  1  2  1  0
  1  4  1  0
  1  5  1  0
  1  6  1  0
  2  3  2  3
  2  7  1  0
  3  8  1  0
M  END
>  <reaction>  (1) 
rmg_rxn_16597

>  <mol_properties>  (1) 
{"1": {"label": "donator", "atom_type": "Cd"}, "6": {"label": "d_hydrogen", "atom_type": "H0"}}

>  <type>  (1) 
r1h

$$$$

     RDKit          3D

  8  7  0  0  0  0  0  0  0  0999 V2000
    0.9383    0.2996   -0.2216 C   0  0  0  0  0  3  0  0  0  0  0  0
   -0.2599   -0.3612    0.3424 C   0  0  0  0  0  0  0  0  0  0  0  0
   -1.4623    0.3337    0.0690 O   0  0  0  0  0  0  0  0  0  0  0  0
    1.8278   -0.2698   -0.4548 H   0  0  0  0  0  0  0  0  0  0  0  0
    0.9841    1.3806   -0.2544 H   0  0  0  0  0  0  0  0  0  0  0  0
   -0.3172   -1.4027   -0.0032 H   0  0  0  0  0  0  0  0  0  0  0  0
   -0.1994   -0.4050    1.4381 H   0  0  0  0  0  0  0  0  0  0  0  0
   -1.5169    0.4672   -0.8790 H   0  0  0  0  0  0  0  0  0  0  0  0
  1  2  1  0
  1  4  1  0
  1  5  1  0
  2  3  1  0
  2  6  1  0
  2  7  1  0
  3  8  1  0
M  RAD  1   1   2
M  END
>  <reaction>  (2) 
rmg_rxn_16597

>  <mol_properties>  (2) 
{"0": {"label": "acceptor", "atom_type": "Cs"}}

>  <type>  (2) 
r2

$$$$

     RDKit          3D

  9  8  0  0  0  0  0  0  0  0999 V2000
   -0.9895    0.3048    0.1041 C   0  0  0  0  0  0  0  0  0  0  0  0
    0.3761   -0.3562    0.0721 C   0  0  0  0  0  0  0  0  0  0  0  0
    0.3441   -1.6564   -0.4834 O   0  0  0  0  0  0  0  0  0  0  0  0
   -1.6997   -0.3114    0.6572 H   0  0  0  0  0  0  0  0  0  0  0  0
   -0.9320    1.2848    0.5822 H   0  0  0  0  0  0  0  0  0  0  0  0
   -1.3774    0.4507   -0.9077 H   0  0  0  0  0  0  0  0  0  0  0  0
    0.7581   -0.4813    1.0862 H   0  0  0  0  0  0  0  0  0  0  0  0
    1.0900    0.2787   -0.4681 H   0  0  0  0  0  0  0  0  0  0  0  0
    0.0089   -1.5959   -1.3792 H   0  0  0  0  0  0  0  0  0  0  0  0
  1  2  1  0
  1  4  1  0
  1  5  1  0
  1  6  1  0
  2  3  1  0
  2  7  1  0
  2  8  1  0
  3  9  1  0
M  END
>  <reaction>  (3) 
rmg_rxn_16597

>  <mol_properties>  (3) 
{"0": {"label": "acceptor", "atom_type": "Cs"}, "8": {"label": "a_hydrogen", "atom_type": "H0"}}

>  <type>  (3) 
r2h

$$$$

     RDKit          3D

 16 14  0  0  0  0  0  0  0  0999 V2000
   -0.9551   -1.3395    0.2173 C   0  0  0  0  0  3  0  0  0  0  0  0
   -1.9266   -0.3833   -0.4106 C   0  0  0  0  0  0  0  0  0  0  0  0
   -1.9408    0.8872    0.2251 O   0  0  0  0  0  0  0  0  0  0  0  0
   -0.7988   -2.2607   -0.3406 H   0  0  0  0  0  0  0  0  0  0  0  0
   -1.1102   -1.5226    1.2808 H   0  0  0  0  0  0  0  0  0  0  0  0
   -1.6473   -0.1869   -1.4475 H   0  0  0  0  0  0  0  0  0  0  0  0
   -2.9416   -0.8063   -0.4272 H   0  0  0  0  0  0  0  0  0  0  0  0
   -2.1727    0.7643    1.1472 H   0  0  0  0  0  0  0  0  0  0  0  0
    2.6304   -0.6352   -0.0168 C   0  0  0  0  0  0  0  0  0  0  0  0
    1.3360    0.1029    0.0224 C   0  0  0  0  0  0  0  0  0  0  0  0
    1.1932    1.3383   -0.0734 N   0  0  0  0  0  0  0  0  0  0  0  0
    3.4646    0.0568   -0.1373 H   0  0  0  0  0  0  0  0  0  0  0  0
    2.7597   -1.2085    0.9038 H   0  0  0  0  0  0  0  0  0  0  0  0
    2.6254   -1.3498   -0.8427 H   0  0  0  0  0  0  0  0  0  0  0  0
    0.2907   -0.6590    0.1546 H   0  0  0  0  0  0  0  0  0  0  0  0
    0.2113    1.6153   -0.0181 H   0  0  0  0  0  0  0  0  0  0  0  0
  1  2  1  0
  1  4  1  0
  1  5  1  0
  2  3  1  0
  2  6  1  0
  2  7  1  0
  3  8  1  0
  9 10  1  0
  9 12  1  0
  9 13  1  0
  9 14  1  0
 10 11  2  3
 10 15  1  0
 11 16  1  0
M  RAD  1   1   2
M  END
>  <reaction>  (4) 
rmg_rxn_16597

>  <mol_properties>  (4) 
{"0": {"label": "*3", "atom_type": "Cs"}, "1": {"label": "*4", "atom_type": "Cs"}, "9": {"label": "*1", "atom_type": "Cd"}, "10": {"label": "*0", "atom_type": "N3d"}, "14": {"label": "*2", "atom_type": "H0"}}

>  <type>  (4) 
ts

$$$$
