
     RDKit          3D

  9  8  0  0  0  0  0  0  0  0999 V2000
   -1.2461    0.5037    0.0950 C   0  0  0  0  0  0  0  0  0  0  0  0
   -0.0155   -0.3334    0.0640 C   0  0  0  0  0  0  0  0  0  0  0  0
    1.0697    0.1457   -0.3733 N   0  0  0  0  0  0  0  0  0  0  0  0
    2.1001   -0.7834   -0.3224 O   0  0  0  0  0  0  0  0  0  0  0  0
   -2.0357    0.0440   -0.5039 H   0  0  0  0  0  0  0  0  0  0  0  0
   -1.6237    0.5897    1.1166 H   0  0  0  0  0  0  0  0  0  0  0  0
   -1.0397    1.4998   -0.2929 H   0  0  0  0  0  0  0  0  0  0  0  0
   -0.0537   -1.3634    0.4205 H   0  0  0  0  0  0  0  0  0  0  0  0
    2.8478   -0.2985   -0.6758 H   0  0  0  0  0  0  0  0  0  0  0  0
  1  2  1  0
  1  5  1  0
  1  6  1  0
  1  7  1  0
  2  3  2  3
  2  8  1  0
  3  4  1  0
  4  9  1  0
M  END
>  <reaction>  (1) 
rmg_rxn_156

>  <mol_properties>  (1) 
{"3": {"label": "donator", "atom_type": "O2s"}, "8": {"label": "d_hydrogen", "atom_type": "H0"}}

>  <type>  (1) 
r1h

$$$$

     RDKit          3D

 17 16  0  0  0  0  0  0  0  0999 V2000
    3.2128    0.1260   -0.7228 C   0  0  0  0  0  3  0  0  0  0  0  0
    2.0005    0.6432   -0.0603 C   0  0  0  0  0  0  0  0  0  0  0  0
    0.8631    0.3123   -0.8102 O   0  0  0  0  0  0  0  0  0  0  0  0
   -0.3318    0.7959   -0.2483 C   0  0  0  0  0  0  0  0  0  0  0  0
   -1.5012    0.3530   -1.1031 C   0  0  0  0  0  0  0  0  0  0  0  0
   -1.6702   -1.1598   -1.1495 C   0  0  0  0  0  0  0  0  0  0  0  0
    4.1735    0.2150   -0.2365 H   0  0  0  0  0  0  0  0  0  0  0  0
    3.1498   -0.2830   -1.7203 H   0  0  0  0  0  0  0  0  0  0  0  0
    2.0642    1.7419    0.0626 H   0  0  0  0  0  0  0  0  0  0  0  0
    1.9152    0.2371    0.9639 H   0  0  0  0  0  0  0  0  0  0  0  0
   -0.4457    0.4112    0.7774 H   0  0  0  0  0  0  0  0  0  0  0  0
   -0.2986    1.8934   -0.1852 H   0  0  0  0  0  0  0  0  0  0  0  0
   -1.3614    0.7468   -2.1131 H   0  0  0  0  0  0  0  0  0  0  0  0
   -2.4051    0.8206   -0.7031 H   0  0  0  0  0  0  0  0  0  0  0  0
   -1.8374   -1.5641   -0.1481 H   0  0  0  0  0  0  0  0  0  0  0  0
   -0.7790   -1.6360   -1.5583 H   0  0  0  0  0  0  0  0  0  0  0  0
   -2.5223   -1.4403   -1.7702 H   0  0  0  0  0  0  0  0  0  0  0  0
  1  2  1  0
  1  7  1  0
  1  8  1  0
  2  3  1  0
  2  9  1  0
  2 10  1  0
  3  4  1  0
  4  5  1  0
  4 11  1  0
  4 12  1  0
  5  6  1  0
  5 13  1  0
  5 14  1  0
  6 15  1  0
  6 16  1  0
  6 17  1  0
M  RAD  1   1   2
M  END
>  <reaction>  (2) 
rmg_rxn_156

>  <mol_properties>  (2) 
{"0": {"label": "acceptor", "atom_type": "Cs"}}

>  <type>  (2) 
r2

$$$$

     RDKit          3D

 18 17  0  0  0  0  0  0  0  0999 V2000
    2.2026   -0.7213   -0.2612 C   0  0  0  0  0  0  0  0  0  0  0  0
    1.5384    0.2638    0.6915 C   0  0  0  0  0  0  0  0  0  0  0  0
    2.2584    1.5946    0.7694 C   0  0  0  0  0  0  0  0  0  0  0  0
    2.2212    2.2185   -0.4893 O   0  0  0  0  0  0  0  0  0  0  0  0
    2.8988    3.4488   -0.5204 C   0  0  0  0  0  0  0  0  0  0  0  0
    2.7981    4.0296   -1.9118 C   0  0  0  0  0  0  0  0  0  0  0  0
    3.2294   -0.9309    0.0486 H   0  0  0  0  0  0  0  0  0  0  0  0
    2.2338   -0.3181   -1.2734 H   0  0  0  0  0  0  0  0  0  0  0  0
    1.6610   -1.6680   -0.2875 H   0  0  0  0  0  0  0  0  0  0  0  0
    1.4990   -0.1566    1.7002 H   0  0  0  0  0  0  0  0  0  0  0  0
    0.5055    0.4455    0.3835 H   0  0  0  0  0  0  0  0  0  0  0  0
    3.3038    1.4410    1.0808 H   0  0  0  0  0  0  0  0  0  0  0  0
    1.7844    2.2410    1.5226 H   0  0  0  0  0  0  0  0  0  0  0  0
    2.4596    4.1376    0.2164 H   0  0  0  0  0  0  0  0  0  0  0  0
    3.9524    3.3035   -0.2397 H   0  0  0  0  0  0  0  0  0  0  0  0
    1.7543    4.1869   -2.1856 H   0  0  0  0  0  0  0  0  0  0  0  0
    3.2472    3.3545   -2.6411 H   0  0  0  0  0  0  0  0  0  0  0  0
    3.3178    4.9878   -1.9600 H   0  0  0  0  0  0  0  0  0  0  0  0
  1  2  1  0
  1  7  1  0
  1  8  1  0
  1  9  1  0
  2  3  1  0
  2 10  1  0
  2 11  1  0
  3  4  1  0
  3 12  1  0
  3 13  1  0
  4  5  1  0
  5  6  1  0
  5 14  1  0
  5 15  1  0
  6 16  1  0
  6 17  1  0
  6 18  1  0
M  END
>  <reaction>  (3) 
rmg_rxn_156

>  <mol_properties>  (3) 
{"0": {"label": "a_hydrogen", "atom_type": "H0"}, "1": {"label": "acceptor", "atom_type": "Cs"}}

>  <type>  (3) 
r2h

$$$$

     RDKit          3D

 26 24  0  0  0  0  0  0  0  0999 V2000
   -0.9550   -2.2303   -2.7266 C   0  0  0  0  0  0  0  0  0  0  0  0
    0.0291   -2.4954   -1.6401 C   0  0  0  0  0  0  0  0  0  0  0  0
    0.6832   -1.5400   -1.1231 N   0  0  0  0  0  0  0  0  0  0  0  0
    1.5382   -1.8819   -0.1577 O   0  0  0  0  0  0  0  0  0  0  0  0
   -0.6887   -2.7802   -3.6326 H   0  0  0  0  0  0  0  0  0  0  0  0
   -1.9538   -2.5605   -2.4308 H   0  0  0  0  0  0  0  0  0  0  0  0
   -0.9886   -1.1663   -2.9569 H   0  0  0  0  0  0  0  0  0  0  0  0
    0.1814   -3.5172   -1.2915 H   0  0  0  0  0  0  0  0  0  0  0  0
    2.0087   -0.8533    0.2176 H   0  0  0  0  0  0  0  0  0  0  0  0
    2.4337    0.3717    0.5056 C   0  0  0  0  0  3  0  0  0  0  0  0
    1.3339    1.2693    0.0569 C   0  0  0  0  0  0  0  0  0  0  0  0
    0.2510    1.1569    0.9368 O   0  0  0  0  0  0  0  0  0  0  0  0
   -0.9160    1.7846    0.4643 C   0  0  0  0  0  0  0  0  0  0  0  0
   -2.0198    1.6187    1.4878 C   0  0  0  0  0  0  0  0  0  0  0  0
   -1.7146    2.2983    2.8160 C   0  0  0  0  0  0  0  0  0  0  0  0
    3.3549    0.4585   -0.0655 H   0  0  0  0  0  0  0  0  0  0  0  0
    2.5824    0.3250    1.5822 H   0  0  0  0  0  0  0  0  0  0  0  0
    1.0283    0.9954   -0.9645 H   0  0  0  0  0  0  0  0  0  0  0  0
    1.6928    2.3137    0.0179 H   0  0  0  0  0  0  0  0  0  0  0  0
   -0.7221    2.8541    0.2861 H   0  0  0  0  0  0  0  0  0  0  0  0
   -1.2125    1.3365   -0.4943 H   0  0  0  0  0  0  0  0  0  0  0  0
   -2.1888    0.5500    1.6423 H   0  0  0  0  0  0  0  0  0  0  0  0
   -2.9391    2.0271    1.0588 H   0  0  0  0  0  0  0  0  0  0  0  0
   -1.5631    3.3720    2.6791 H   0  0  0  0  0  0  0  0  0  0  0  0
   -0.8095    1.8860    3.2619 H   0  0  0  0  0  0  0  0  0  0  0  0
   -2.5344    2.1637    3.5232 H   0  0  0  0  0  0  0  0  0  0  0  0
  1  2  1  0
  1  5  1  0
  1  6  1  0
  1  7  1  0
  2  3  2  3
  2  8  1  0
  3  4  1  0
  4  9  1  0
 10 11  1  0
 10 16  1  0
 10 17  1  0
 11 12  1  0
 11 18  1  0
 11 19  1  0
 12 13  1  0
 13 14  1  0
 13 20  1  0
 13 21  1  0
 14 15  1  0
 14 22  1  0
 14 23  1  0
 15 24  1  0
 15 25  1  0
 15 26  1  0
M  RAD  1  10   2
M  END
>  <reaction>  (4) 
rmg_rxn_156

>  <mol_properties>  (4) 
{"2": {"label": "*0", "atom_type": "N3d"}, "3": {"label": "*1", "atom_type": "O2s"}, "8": {"label": "*2", "atom_type": "H0"}, "9": {"label": "*3", "atom_type": "Cs"}, "10": {"label": "*4", "atom_type": "Cs"}}

>  <type>  (4) 
ts

$$$$
