
     RDKit          3D

  8  7  0  0  0  0  0  0  0  0999 V2000
    0.9548    0.1194   -0.0790 C   0  0  0  0  0  0  0  0  0  0  0  0
   -0.4838   -0.2649    0.0193 C   0  0  0  0  0  0  0  0  0  0  0  0
   -0.8933   -1.1081    0.8664 N   0  0  0  0  0  0  0  0  0  0  0  0
    1.3360   -0.0983   -1.0800 H   0  0  0  0  0  0  0  0  0  0  0  0
    1.0698    1.1948    0.0786 H   0  0  0  0  0  0  0  0  0  0  0  0
    1.5426   -0.4219    0.6602 H   0  0  0  0  0  0  0  0  0  0  0  0
   -1.1575    0.2324   -0.6905 H   0  0  0  0  0  0  0  0  0  0  0  0
   -1.8989   -1.2455    0.7886 H   0  0  0  0  0  0  0  0  0  0  0  0
  1  2  1  0
  1  4  1  0
  1  5  1  0
  1  6  1  0
  2  3  2  3
  2  7  1  0
  3  8  1  0
M  END
>  <reaction>  (1) 
rmg_rxn_16528

>  <mol_properties>  (1) 
{"2": {"label": "donator", "atom_type": "N3d"}, "7": {"label": "d_hydrogen", "atom_type": "H0"}}

>  <type>  (1) 
r1h

$$$$

     RDKit          3D

 14 13  0  0  0  0  0  0  0  0999 V2000
   -2.4803   -0.3698   -0.1229 C   0  0  0  0  0  0  0  0  0  0  0  0
   -1.1475    0.2507   -0.2967 C   0  0  0  0  0  3  0  0  0  0  0  0
   -1.0074    1.4744    0.2664 O   0  0  0  0  0  0  0  0  0  0  0  0
    0.2422    2.1039    0.0486 C   0  0  0  0  0  0  0  0  0  0  0  0
    0.2255    3.4586    0.7150 C   0  0  0  0  0  0  0  0  0  0  0  0
   -3.2683    0.1812   -0.6553 H   0  0  0  0  0  0  0  0  0  0  0  0
   -2.4720   -1.3915   -0.5031 H   0  0  0  0  0  0  0  0  0  0  0  0
   -2.7626   -0.3964    0.9325 H   0  0  0  0  0  0  0  0  0  0  0  0
   -0.5432    0.0541   -1.1800 H   0  0  0  0  0  0  0  0  0  0  0  0
    0.4141    2.2031   -1.0306 H   0  0  0  0  0  0  0  0  0  0  0  0
    1.0402    1.4749    0.4587 H   0  0  0  0  0  0  0  0  0  0  0  0
    0.0592    3.3565    1.7877 H   0  0  0  0  0  0  0  0  0  0  0  0
   -0.5674    4.0820    0.3003 H   0  0  0  0  0  0  0  0  0  0  0  0
    1.1802    3.9629    0.5591 H   0  0  0  0  0  0  0  0  0  0  0  0
  1  2  1  0
  1  6  1  0
  1  7  1  0
  1  8  1  0
  2  3  1  0
  2  9  1  0
  3  4  1  0
  4  5  1  0
  4 10  1  0
  4 11  1  0
  5 12  1  0
  5 13  1  0
  5 14  1  0
M  RAD  1   2   2
M  END
>  <reaction>  (2) 
rmg_rxn_16528

>  <mol_properties>  (2) 
{"1": {"label": "acceptor", "atom_type": "Cs"}}

>  <type>  (2) 
r2

$$$$

     RDKit          3D

 15 14  0  0  0  0  0  0  0  0999 V2000
    2.4145    0.0817    0.4065 C   0  0  0  0  0  0  0  0  0  0  0  0
    1.1257   -0.2220   -0.3219 C   0  0  0  0  0  0  0  0  0  0  0  0
    1.0983   -1.5879   -0.6512 O   0  0  0  0  0  0  0  0  0  0  0  0
   -0.0685   -1.9694   -1.3352 C   0  0  0  0  0  0  0  0  0  0  0  0
    0.0024   -3.4478   -1.6403 C   0  0  0  0  0  0  0  0  0  0  0  0
    3.2736   -0.1534   -0.2229 H   0  0  0  0  0  0  0  0  0  0  0  0
    2.4581    1.1389    0.6728 H   0  0  0  0  0  0  0  0  0  0  0  0
    2.4855   -0.5095    1.3201 H   0  0  0  0  0  0  0  0  0  0  0  0
    0.2597    0.0294    0.3083 H   0  0  0  0  0  0  0  0  0  0  0  0
    1.0482    0.3858   -1.2356 H   0  0  0  0  0  0  0  0  0  0  0  0
   -0.9535   -1.7457   -0.7211 H   0  0  0  0  0  0  0  0  0  0  0  0
   -0.1650   -1.3894   -2.2650 H   0  0  0  0  0  0  0  0  0  0  0  0
    0.0831   -4.0247   -0.7183 H   0  0  0  0  0  0  0  0  0  0  0  0
   -0.8950   -3.7674   -2.1724 H   0  0  0  0  0  0  0  0  0  0  0  0
    0.8712   -3.6686   -2.2613 H   0  0  0  0  0  0  0  0  0  0  0  0
  1  2  1  0
  1  6  1  0
  1  7  1  0
  1  8  1  0
  2  3  1  0
  2  9  1  0
  2 10  1  0
  3  4  1  0
  4  5  1  0
  4 11  1  0
  4 12  1  0
  5 13  1  0
  5 14  1  0
  5 15  1  0
M  END
>  <reaction>  (3) 
rmg_rxn_16528

>  <mol_properties>  (3) 
{"0": {"label": "a_hydrogen", "atom_type": "H0"}, "2": {"label": "acceptor", "atom_type": "Cs"}}

>  <type>  (3) 
r2h

$$$$

     RDKit          3D

 22 20  0  0  0  0  0  0  0  0999 V2000
   -0.0053   -0.4812   -3.3142 C   0  0  0  0  0  0  0  0  0  0  0  0
   -0.3082   -0.4530   -1.8452 C   0  0  0  0  0  0  0  0  0  0  0  0
   -1.4605   -0.2471   -1.3916 N   0  0  0  0  0  0  0  0  0  0  0  0
    0.7433    0.2773   -3.5556 H   0  0  0  0  0  0  0  0  0  0  0  0
    0.4168   -1.4509   -3.5886 H   0  0  0  0  0  0  0  0  0  0  0  0
   -0.9066   -0.3000   -3.8969 H   0  0  0  0  0  0  0  0  0  0  0  0
    0.5469   -0.6232   -1.1724 H   0  0  0  0  0  0  0  0  0  0  0  0
   -1.3578   -0.3016   -0.1240 H   0  0  0  0  0  0  0  0  0  0  0  0
   -1.1185   -1.9202    1.4556 C   0  0  0  0  0  0  0  0  0  0  0  0
   -0.9809   -0.4591    1.1544 C   0  0  0  0  0  3  0  0  0  0  0  0
    0.3277   -0.0400    1.2657 O   0  0  0  0  0  0  0  0  0  0  0  0
    0.5001    1.3613    1.1623 C   0  0  0  0  0  0  0  0  0  0  0  0
    1.9766    1.6728    1.2074 C   0  0  0  0  0  0  0  0  0  0  0  0
   -0.8566   -2.1382    2.4949 H   0  0  0  0  0  0  0  0  0  0  0  0
   -2.1457   -2.2408    1.2809 H   0  0  0  0  0  0  0  0  0  0  0  0
   -0.4615   -2.5051    0.8095 H   0  0  0  0  0  0  0  0  0  0  0  0
   -1.6800    0.1918    1.6938 H   0  0  0  0  0  0  0  0  0  0  0  0
   -0.0289    1.8527    1.9889 H   0  0  0  0  0  0  0  0  0  0  0  0
    0.0538    1.7158    0.2258 H   0  0  0  0  0  0  0  0  0  0  0  0
    2.4949    1.1988    0.3728 H   0  0  0  0  0  0  0  0  0  0  0  0
    2.4182    1.3119    2.1367 H   0  0  0  0  0  0  0  0  0  0  0  0
    2.1339    2.7504    1.1440 H   0  0  0  0  0  0  0  0  0  0  0  0
  1  2  1  0
  1  4  1  0
  1  5  1  0
  1  6  1  0
  2  3  2  3
  2  7  1  0
  3  8  1  0
  9 10  1  0
  9 14  1  0
  9 15  1  0
  9 16  1  0
 10 11  1  0
 10 17  1  0
 11 12  1  0
 12 13  1  0
 12 18  1  0
 12 19  1  0
 13 20  1  0
 13 21  1  0
 13 22  1  0
M  RAD  1  10   2
M  END
>  <reaction>  (4) 
rmg_rxn_16528

>  <mol_properties>  (4) 
{"1": {"label": "*0", "atom_type": "Cd"}, "2": {"label": "*1", "atom_type": "N3d"}, "7": {"label": "*2", "atom_type": "H0"}, "9": {"label": "*3", "atom_type": "Cs"}, "10": {"label": "*4", "atom_type": "O2s"}}

>  <type>  (4) 
ts

$$$$
