
     RDKit          3D

  3  2  0  0  0  0  0  0  0  0999 V2000
    0.9943   -0.1797    0.0000 O   0  0  0  0  0  1  0  0  0  0  0  0
   -0.1595    0.4394    0.0000 O   0  0  0  0  0  0  0  0  0  0  0  0
   -0.8348   -0.2597    0.0000 H   0  0  0  0  0  0  0  0  0  0  0  0
  1  2  1  0
  2  3  1  0
M  RAD  1   1   2
M  END
>  <reaction>  (1) 
rmg_rxn_417

>  <mol_properties>  (1) 
{"1": {"label": "donator", "atom_type": "O2s"}, "2": {"label": "d_hydrogen", "atom_type": "H0"}}

>  <type>  (1) 
r1h

$$$$

     RDKit          3D

  8  7  0  0  0  0  0  0  0  0999 V2000
   -0.7853    0.0326    0.0393 C   0  0  0  0  0  0  0  0  0  0  0  0
    0.7379   -0.1211   -0.0579 C   0  0  0  0  0  0  0  0  0  0  0  0
    1.1315   -0.8282   -1.2106 N   0  0  0  0  0  1  0  0  0  0  0  0
   -1.2679   -0.9438    0.0768 H   0  0  0  0  0  0  0  0  0  0  0  0
   -1.0464    0.5840    0.9431 H   0  0  0  0  0  0  0  0  0  0  0  0
   -1.1718    0.5760   -0.8227 H   0  0  0  0  0  0  0  0  0  0  0  0
    1.2178    0.8698   -0.0686 H   0  0  0  0  0  0  0  0  0  0  0  0
    1.1219   -0.6479    0.8296 H   0  0  0  0  0  0  0  0  0  0  0  0
  1  2  1  0
  1  4  1  0
  1  5  1  0
  1  6  1  0
  2  3  1  0
  2  7  1  0
  2  8  1  0
M  RAD  1   3   3
M  END
>  <reaction>  (2) 
rmg_rxn_417

>  <mol_properties>  (2) 
{"2": {"label": "acceptor", "atom_type": "N3s"}}

>  <type>  (2) 
r2

$$$$

     RDKit          3D

  9  8  0  0  0  0  0  0  0  0999 V2000
   -1.0434   -0.0834    0.0221 C   0  0  0  0  0  0  0  0  0  0  0  0
    0.4680   -0.2131    0.0785 C   0  0  0  0  0  0  0  0  0  0  0  0
    0.9450   -1.3136   -0.7058 N   0  0  0  0  0  2  0  0  0  0  0  0
   -1.5170   -0.9919    0.3960 H   0  0  0  0  0  0  0  0  0  0  0  0
   -1.3864    0.7592    0.6249 H   0  0  0  0  0  0  0  0  0  0  0  0
   -1.3736    0.0696   -1.0061 H   0  0  0  0  0  0  0  0  0  0  0  0
    0.8045   -0.3309    1.1214 H   0  0  0  0  0  0  0  0  0  0  0  0
    0.9463    0.7186   -0.2648 H   0  0  0  0  0  0  0  0  0  0  0  0
    1.9638   -1.3321   -0.6157 H   0  0  0  0  0  0  0  0  0  0  0  0
  1  2  1  0
  1  4  1  0
  1  5  1  0
  1  6  1  0
  2  3  1  0
  2  7  1  0
  2  8  1  0
  3  9  1  0
M  RAD  1   3   2
M  END
>  <reaction>  (3) 
rmg_rxn_417

>  <mol_properties>  (3) 
{"0": {"label": "a_hydrogen", "atom_type": "H0"}, "3": {"label": "acceptor", "atom_type": "N3s"}}

>  <type>  (3) 
r2h

$$$$

     RDKit          3D

 11  9  0  0  0  0  0  0  0  0999 V2000
   -1.0143   -1.4289   -0.7885 O   0  0  0  0  0  1  0  0  0  0  0  0
   -0.5954   -1.6696    0.3952 O   0  0  0  0  0  0  0  0  0  0  0  0
    0.0246   -0.8243    0.7222 H   0  0  0  0  0  0  0  0  0  0  0  0
   -0.1633    2.4886    0.0193 C   0  0  0  0  0  0  0  0  0  0  0  0
    0.5462    1.1573   -0.2714 C   0  0  0  0  0  0  0  0  0  0  0  0
    0.7189    0.3757    0.8665 N   0  0  0  0  0  1  0  0  0  0  0  0
    0.4115    3.0815    0.7295 H   0  0  0  0  0  0  0  0  0  0  0  0
   -0.2698    3.0515   -0.9078 H   0  0  0  0  0  0  0  0  0  0  0  0
   -1.1544    2.3084    0.4337 H   0  0  0  0  0  0  0  0  0  0  0  0
   -0.0372    0.5731   -1.0162 H   0  0  0  0  0  0  0  0  0  0  0  0
    1.5333    1.3418   -0.7252 H   0  0  0  0  0  0  0  0  0  0  0  0
  1  2  1  0
  2  3  1  0
  4  5  1  0
  4  7  1  0
  4  8  1  0
  4  9  1  0
  5  6  1  0
  5 10  1  0
  5 11  1  0
M  RAD  2   1   2   6   3
M  END
>  <reaction>  (4) 
rmg_rxn_417

>  <mol_properties>  (4) 
{"0": {"label": "*0", "atom_type": "O2s"}, "1": {"label": "*1", "atom_type": "O2s"}, "2": {"label": "*2", "atom_type": "H0"}, "4": {"label": "*4", "atom_type": "Cs"}, "5": {"label": "*3", "atom_type": "N3s"}}

>  <type>  (4) 
ts

$$$$
