
     RDKit          3D

 12 11  0  0  0  0  0  0  0  0999 V2000
    1.8075    0.1979    0.4695 C   0  0  0  0  0  0  0  0  0  0  0  0
    1.0072   -0.8859   -0.7259 S   0  0  0  0  0  0  0  0  0  0  0  0
   -0.7258   -0.6904   -0.2447 C   0  0  0  0  0  0  0  0  0  0  0  0
   -1.0856   -1.2776    1.1108 C   0  0  0  0  0  0  0  0  0  0  0  0
    1.7126   -0.1777    1.4878 H   0  0  0  0  0  0  0  0  0  0  0  0
    1.4024    1.2089    0.4095 H   0  0  0  0  0  0  0  0  0  0  0  0
    2.8647    0.2298    0.2095 H   0  0  0  0  0  0  0  0  0  0  0  0
   -1.2866   -1.1892   -1.0369 H   0  0  0  0  0  0  0  0  0  0  0  0
   -0.9814    0.3707   -0.2917 H   0  0  0  0  0  0  0  0  0  0  0  0
   -0.5492   -0.7768    1.9180 H   0  0  0  0  0  0  0  0  0  0  0  0
   -0.8418   -2.3397    1.1503 H   0  0  0  0  0  0  0  0  0  0  0  0
   -2.1545   -1.1604    1.3035 H   0  0  0  0  0  0  0  0  0  0  0  0
  1  2  1  0
  1  5  1  0
  1  6  1  0
  1  7  1  0
  2  3  1  0
  3  4  1  0
  3  8  1  0
  3  9  1  0
  4 10  1  0
  4 11  1  0
  4 12  1  0
M  END
>  <reaction>  (1) 
rmg_rxn_531

>  <mol_properties>  (1) 
{"0": {"label": "donator", "atom_type": "Cs"}, "4": {"label": "d_hydrogen", "atom_type": "H0"}}

>  <type>  (1) 
r1h

$$$$

     RDKit          3D

 14 13  0  0  0  0  0  0  0  0999 V2000
    2.5796   -0.5432    0.2329 C   0  0  0  0  0  3  0  0  0  0  0  0
    1.2594    0.0982    0.3029 C   0  0  0  0  0  0  0  0  0  0  0  0
   -0.0483   -1.0244    0.9576 S   0  0  0  0  0  0  0  0  0  0  0  0
   -0.0049   -2.3732   -0.2491 C   0  0  0  0  0  0  0  0  0  0  0  0
   -0.3891   -1.9781   -1.6653 C   0  0  0  0  0  0  0  0  0  0  0  0
    2.9359   -0.9798   -0.6903 H   0  0  0  0  0  0  0  0  0  0  0  0
    3.1327   -0.7454    1.1400 H   0  0  0  0  0  0  0  0  0  0  0  0
    0.9347    0.4858   -0.6621 H   0  0  0  0  0  0  0  0  0  0  0  0
    1.2442    0.9220    1.0193 H   0  0  0  0  0  0  0  0  0  0  0  0
    0.9819   -2.8380   -0.2257 H   0  0  0  0  0  0  0  0  0  0  0  0
   -0.7110   -3.1037    0.1493 H   0  0  0  0  0  0  0  0  0  0  0  0
    0.3274   -1.2737   -2.0913 H   0  0  0  0  0  0  0  0  0  0  0  0
   -0.4075   -2.8581   -2.3121 H   0  0  0  0  0  0  0  0  0  0  0  0
   -1.3749   -1.5123   -1.6865 H   0  0  0  0  0  0  0  0  0  0  0  0
  1  2  1  0
  1  6  1  0
  1  7  1  0
  2  3  1  0
  2  8  1  0
  2  9  1  0
  3  4  1  0
  4  5  1  0
  4 10  1  0
  4 11  1  0
  5 12  1  0
  5 13  1  0
  5 14  1  0
M  RAD  1   1   2
M  END
>  <reaction>  (2) 
rmg_rxn_531

>  <mol_properties>  (2) 
{"0": {"label": "acceptor", "atom_type": "Cs"}}

>  <type>  (2) 
r2

$$$$

     RDKit          3D

 15 14  0  0  0  0  0  0  0  0999 V2000
   -2.0554    0.0723   -0.4910 C   0  0  0  0  0  0  0  0  0  0  0  0
   -0.7461   -0.6266   -0.8178 C   0  0  0  0  0  0  0  0  0  0  0  0
    0.3249    0.2591   -1.9782 S   0  0  0  0  0  0  0  0  0  0  0  0
   -0.7172    0.3642   -3.4551 C   0  0  0  0  0  0  0  0  0  0  0  0
   -1.1375   -0.9737   -4.0409 C   0  0  0  0  0  0  0  0  0  0  0  0
   -2.7005    0.1427   -1.3684 H   0  0  0  0  0  0  0  0  0  0  0  0
   -2.6016   -0.4848    0.2733 H   0  0  0  0  0  0  0  0  0  0  0  0
   -1.8758    1.0825   -0.1213 H   0  0  0  0  0  0  0  0  0  0  0  0
   -0.1320   -0.7246    0.0789 H   0  0  0  0  0  0  0  0  0  0  0  0
   -0.9254   -1.6374   -1.1879 H   0  0  0  0  0  0  0  0  0  0  0  0
   -1.5873    0.9874   -3.2422 H   0  0  0  0  0  0  0  0  0  0  0  0
   -0.1021    0.9161   -4.1678 H   0  0  0  0  0  0  0  0  0  0  0  0
   -1.7876   -1.5224   -3.3574 H   0  0  0  0  0  0  0  0  0  0  0  0
   -0.2676   -1.5962   -4.2534 H   0  0  0  0  0  0  0  0  0  0  0  0
   -1.6916   -0.8229   -4.9700 H   0  0  0  0  0  0  0  0  0  0  0  0
  1  2  1  0
  1  6  1  0
  1  7  1  0
  1  8  1  0
  2  3  1  0
  2  9  1  0
  2 10  1  0
  3  4  1  0
  4  5  1  0
  4 11  1  0
  4 12  1  0
  5 13  1  0
  5 14  1  0
  5 15  1  0
M  END
>  <reaction>  (3) 
rmg_rxn_531

>  <mol_properties>  (3) 
{"0": {"label": "a_hydrogen", "atom_type": "H0"}, "1": {"label": "acceptor", "atom_type": "Cs"}}

>  <type>  (3) 
r2h

$$$$

     RDKit          3D

 26 24  0  0  0  0  0  0  0  0999 V2000
    0.4521   -0.5344    1.6488 C   0  0  0  0  0  0  0  0  0  0  0  0
   -1.3110   -0.5626    1.5905 S   0  0  0  0  0  0  0  0  0  0  0  0
   -1.6279   -2.3315    1.3837 C   0  0  0  0  0  0  0  0  0  0  0  0
   -1.1310   -2.9234    0.0751 C   0  0  0  0  0  0  0  0  0  0  0  0
    0.9650   -0.6206    0.4563 H   0  0  0  0  0  0  0  0  0  0  0  0
    0.8827   -1.3517    2.2278 H   0  0  0  0  0  0  0  0  0  0  0  0
    0.7905    0.4394    1.9941 H   0  0  0  0  0  0  0  0  0  0  0  0
   -2.7122   -2.4258    1.4614 H   0  0  0  0  0  0  0  0  0  0  0  0
   -1.1965   -2.8582    2.2377 H   0  0  0  0  0  0  0  0  0  0  0  0
   -0.0452   -2.8573   -0.0011 H   0  0  0  0  0  0  0  0  0  0  0  0
   -1.5627   -2.3994   -0.7787 H   0  0  0  0  0  0  0  0  0  0  0  0
   -1.4078   -3.9780    0.0084 H   0  0  0  0  0  0  0  0  0  0  0  0
    1.4905   -0.6268   -0.8402 C   0  0  0  0  0  3  0  0  0  0  0  0
    2.1297    0.7055   -1.1038 C   0  0  0  0  0  0  0  0  0  0  0  0
    1.1342    2.1631   -0.6698 S   0  0  0  0  0  0  0  0  0  0  0  0
   -0.4266    1.8205   -1.5191 C   0  0  0  0  0  0  0  0  0  0  0  0
   -0.3160    1.6844   -3.0285 C   0  0  0  0  0  0  0  0  0  0  0  0
    0.5996   -0.8401   -1.4273 H   0  0  0  0  0  0  0  0  0  0  0  0
    2.1875   -1.4635   -0.8437 H   0  0  0  0  0  0  0  0  0  0  0  0
    2.4301    0.7883   -2.1533 H   0  0  0  0  0  0  0  0  0  0  0  0
    3.0382    0.8215   -0.5101 H   0  0  0  0  0  0  0  0  0  0  0  0
   -0.8896    0.9394   -1.0705 H   0  0  0  0  0  0  0  0  0  0  0  0
   -1.0567    2.6720   -1.2568 H   0  0  0  0  0  0  0  0  0  0  0  0
    0.2940    0.8235   -3.3082 H   0  0  0  0  0  0  0  0  0  0  0  0
   -1.3057    1.5426   -3.4685 H   0  0  0  0  0  0  0  0  0  0  0  0
    0.1343    2.5744   -3.4696 H   0  0  0  0  0  0  0  0  0  0  0  0
  1  2  1  0
  1  5  1  0
  1  6  1  0
  1  7  1  0
  2  3  1  0
  3  4  1  0
  3  8  1  0
  3  9  1  0
  4 10  1  0
  4 11  1  0
  4 12  1  0
 13 14  1  0
 13 18  1  0
 13 19  1  0
 14 15  1  0
 14 20  1  0
 14 21  1  0
 15 16  1  0
 16 17  1  0
 16 22  1  0
 16 23  1  0
 17 24  1  0
 17 25  1  0
 17 26  1  0
M  RAD  1  13   2
M  END
>  <reaction>  (4) 
rmg_rxn_531

>  <mol_properties>  (4) 
{"0": {"label": "*1", "atom_type": "Cs"}, "1": {"label": "*0", "atom_type": "S2s"}, "4": {"label": "*2", "atom_type": "H0"}, "12": {"label": "*3", "atom_type": "Cs"}, "13": {"label": "*4", "atom_type": "Cs"}}

>  <type>  (4) 
ts

$$$$
