
     RDKit          3D

  9  8  0  0  0  0  0  0  0  0999 V2000
   -1.2461    0.5037    0.0950 C   0  0  0  0  0  0  0  0  0  0  0  0
   -0.0155   -0.3334    0.0640 C   0  0  0  0  0  0  0  0  0  0  0  0
    1.0697    0.1457   -0.3733 N   0  0  0  0  0  0  0  0  0  0  0  0
    2.1001   -0.7834   -0.3224 O   0  0  0  0  0  0  0  0  0  0  0  0
   -2.0357    0.0440   -0.5039 H   0  0  0  0  0  0  0  0  0  0  0  0
   -1.6237    0.5897    1.1166 H   0  0  0  0  0  0  0  0  0  0  0  0
   -1.0397    1.4998   -0.2929 H   0  0  0  0  0  0  0  0  0  0  0  0
   -0.0537   -1.3634    0.4205 H   0  0  0  0  0  0  0  0  0  0  0  0
    2.8478   -0.2985   -0.6758 H   0  0  0  0  0  0  0  0  0  0  0  0
  1  2  1  0
  1  5  1  0
  1  6  1  0
  1  7  1  0
  2  3  2  3
  2  8  1  0
  3  4  1  0
  4  9  1  0
M  END
>  <reaction>  (1) 
rmg_rxn_51

>  <mol_properties>  (1) 
{"3": {"label": "donator", "atom_type": "O2s"}, "8": {"label": "d_hydrogen", "atom_type": "H0"}}

>  <type>  (1) 
r1h

$$$$

     RDKit          3D

  8  7  0  0  0  0  0  0  0  0999 V2000
   -0.7853    0.0326    0.0393 C   0  0  0  0  0  0  0  0  0  0  0  0
    0.7379   -0.1211   -0.0579 C   0  0  0  0  0  0  0  0  0  0  0  0
    1.1315   -0.8282   -1.2106 N   0  0  0  0  0  1  0  0  0  0  0  0
   -1.2679   -0.9438    0.0768 H   0  0  0  0  0  0  0  0  0  0  0  0
   -1.0464    0.5840    0.9431 H   0  0  0  0  0  0  0  0  0  0  0  0
   -1.1718    0.5760   -0.8227 H   0  0  0  0  0  0  0  0  0  0  0  0
    1.2178    0.8698   -0.0686 H   0  0  0  0  0  0  0  0  0  0  0  0
    1.1219   -0.6479    0.8296 H   0  0  0  0  0  0  0  0  0  0  0  0
  1  2  1  0
  1  4  1  0
  1  5  1  0
  1  6  1  0
  2  3  1  0
  2  7  1  0
  2  8  1  0
M  RAD  1   3   3
M  END
>  <reaction>  (2) 
rmg_rxn_51

>  <mol_properties>  (2) 
{"2": {"label": "acceptor", "atom_type": "N3s"}}

>  <type>  (2) 
r2

$$$$

     RDKit          3D

  9  8  0  0  0  0  0  0  0  0999 V2000
   -1.0434   -0.0834    0.0221 C   0  0  0  0  0  0  0  0  0  0  0  0
    0.4680   -0.2131    0.0785 C   0  0  0  0  0  0  0  0  0  0  0  0
    0.9450   -1.3136   -0.7058 N   0  0  0  0  0  2  0  0  0  0  0  0
   -1.5170   -0.9919    0.3960 H   0  0  0  0  0  0  0  0  0  0  0  0
   -1.3864    0.7592    0.6249 H   0  0  0  0  0  0  0  0  0  0  0  0
   -1.3736    0.0696   -1.0061 H   0  0  0  0  0  0  0  0  0  0  0  0
    0.8045   -0.3309    1.1214 H   0  0  0  0  0  0  0  0  0  0  0  0
    0.9463    0.7186   -0.2648 H   0  0  0  0  0  0  0  0  0  0  0  0
    1.9638   -1.3321   -0.6157 H   0  0  0  0  0  0  0  0  0  0  0  0
  1  2  1  0
  1  4  1  0
  1  5  1  0
  1  6  1  0
  2  3  1  0
  2  7  1  0
  2  8  1  0
  3  9  1  0
M  RAD  1   3   2
M  END
>  <reaction>  (3) 
rmg_rxn_51

>  <mol_properties>  (3) 
{"2": {"label": "acceptor", "atom_type": "N3s"}, "8": {"label": "a_hydrogen", "atom_type": "H0"}}

>  <type>  (3) 
r2h

$$$$

     RDKit          3D

 17 15  0  0  0  0  0  0  0  0999 V2000
   -0.4124    2.6943    0.5990 C   0  0  0  0  0  0  0  0  0  0  0  0
    0.8533    1.8366    0.7461 C   0  0  0  0  0  0  0  0  0  0  0  0
    0.7864    1.0268    1.8934 N   0  0  0  0  0  2  0  0  0  0  0  0
   -0.5493    3.3364    1.4686 H   0  0  0  0  0  0  0  0  0  0  0  0
   -0.3281    3.3186   -0.2907 H   0  0  0  0  0  0  0  0  0  0  0  0
   -1.2889    2.0549    0.4938 H   0  0  0  0  0  0  0  0  0  0  0  0
    0.9555    1.1942   -0.1499 H   0  0  0  0  0  0  0  0  0  0  0  0
    1.7416    2.4777    0.8113 H   0  0  0  0  0  0  0  0  0  0  0  0
   -0.2108   -1.6293   -2.5297 C   0  0  0  0  0  0  0  0  0  0  0  0
   -0.3834   -1.7761   -1.0580 C   0  0  0  0  0  3  0  0  0  0  0  0
    0.0106   -0.8639   -0.2677 N   0  0  0  0  0  2  0  0  0  0  0  0
   -0.1585   -1.0230    1.0192 O   0  0  0  0  0  1  0  0  0  0  0  0
    0.3998   -2.4424   -2.9296 H   0  0  0  0  0  0  0  0  0  0  0  0
   -1.1772   -1.6718   -3.0378 H   0  0  0  0  0  0  0  0  0  0  0  0
    0.2694   -0.6804   -2.7649 H   0  0  0  0  0  0  0  0  0  0  0  0
   -0.8504   -2.6746   -0.6556 H   0  0  0  0  0  0  0  0  0  0  0  0
    0.3425   -0.0229    1.6142 H   0  0  0  0  0  0  0  0  0  0  0  0
  1  4  1  0
  1  2  1  0
  1  6  1  0
  1  5  1  0
  2  7  1  0
  2  3  1  0
  2  8  1  0
  3 17  1  0
  9 14  1  0
  9 15  1  0
  9 10  1  0
  9 13  1  0
 10 16  1  0
 10 11  1  0
 11 12  1  0
M  RAD  4   3   2  10   2  11   2  12   2
M  END
>  <reaction>  (4) 
rmg_rxn_51

>  <mol_properties>  (4) 
{"1": {"label": "*0", "atom_type": "Cs"}, "2": {"label": "*1", "atom_type": "N3s"}, "10": {"label": "*4", "atom_type": "N3s"}, "11": {"label": "*3", "atom_type": "O2s"}, "16": {"label": "*2", "atom_type": "H0"}}

>  <type>  (4) 
ts

$$$$
