
     RDKit          3D

 12 11  0  0  0  0  0  0  0  0999 V2000
    2.1696    0.6854    1.1310 C   0  0  0  0  0  0  0  0  0  0  0  0
    1.2518    0.4145    0.4134 C   0  0  0  0  0  0  0  0  0  0  0  0
    0.1391    0.0443   -0.4683 C   0  0  0  0  0  0  0  0  0  0  0  0
   -0.2054   -1.4492   -0.3339 C   0  0  0  0  0  0  0  0  0  0  0  0
   -1.0375    0.8853   -0.2222 C   0  0  0  0  0  0  0  0  0  0  0  0
   -2.0160    1.5463   -0.0311 C   0  0  0  0  0  0  0  0  0  0  0  0
    2.9819    0.9356    1.7702 H   0  0  0  0  0  0  0  0  0  0  0  0
    0.4629    0.2285   -1.4981 H   0  0  0  0  0  0  0  0  0  0  0  0
   -0.5327   -1.6703    0.6812 H   0  0  0  0  0  0  0  0  0  0  0  0
    0.6727   -2.0535   -0.5593 H   0  0  0  0  0  0  0  0  0  0  0  0
   -1.0064   -1.7081   -1.0256 H   0  0  0  0  0  0  0  0  0  0  0  0
   -2.8802    2.1413    0.1426 H   0  0  0  0  0  0  0  0  0  0  0  0
  1  2  3  0
  1  7  1  0
  2  3  1  0
  3  4  1  0
  3  5  1  0
  3  8  1  0
  4  9  1  0
  4 10  1  0
  4 11  1  0
  5  6  3  0
  6 12  1  0
M  END
>  <reaction>  (1) 
rxn_1429

>  <mol_properties>  (1) 
{"2": {"label": "donator", "atom_type": "Cs"}, "7": {"label": "d_hydrogen", "atom_type": "H0"}}

>  <type>  (1) 
r1h

$$$$

     RDKit          3D

  6  5  0  0  0  0  0  0  0  0999 V2000
   -0.5036    0.1196    0.0353 C   0  0  0  0  0  0  0  0  0  0  0  0
    0.9526    0.1121    0.2227 C   0  0  0  0  0  3  0  0  0  0  0  0
    2.2066   -0.6670   -0.2771 S   0  0  0  0  0  0  0  0  0  0  0  0
   -0.8527   -0.6450   -0.6655 H   0  0  0  0  0  0  0  0  0  0  0  0
   -0.8134    1.1060   -0.3189 H   0  0  0  0  0  0  0  0  0  0  0  0
   -0.9894   -0.0257    1.0035 H   0  0  0  0  0  0  0  0  0  0  0  0
  1  2  1  0
  1  4  1  0
  1  5  1  0
  1  6  1  0
  2  3  2  0
M  RAD  1   2   2
M  END
>  <reaction>  (2) 
rxn_1429

>  <mol_properties>  (2) 
{"1": {"label": "acceptor", "atom_type": "CS"}}

>  <type>  (2) 
r2

$$$$

     RDKit          3D

  7  6  0  0  0  0  0  0  0  0999 V2000
   -0.6782    0.0507    0.0301 C   0  0  0  0  0  0  0  0  0  0  0  0
    0.8092    0.0996    0.0213 C   0  0  0  0  0  0  0  0  0  0  0  0
    1.7473    0.7521    1.1507 S   0  0  0  0  0  0  0  0  0  0  0  0
   -1.0667    0.5456   -0.8653 H   0  0  0  0  0  0  0  0  0  0  0  0
   -1.0112   -0.9904   -0.0239 H   0  0  0  0  0  0  0  0  0  0  0  0
   -1.0920    0.5225    0.9188 H   0  0  0  0  0  0  0  0  0  0  0  0
    1.2740   -0.3620   -0.8520 H   0  0  0  0  0  0  0  0  0  0  0  0
  1  2  1  0
  1  4  1  0
  1  5  1  0
  1  6  1  0
  2  3  2  0
  2  7  1  0
M  END
>  <reaction>  (3) 
rxn_1429

>  <mol_properties>  (3) 
{"0": {"label": "a_hydrogen", "atom_type": "H0"}, "2": {"label": "acceptor", "atom_type": "CS"}}

>  <type>  (3) 
r2h

$$$$

     RDKit          3D

 18 16  0  0  0  0  0  0  0  0999 V2000
   -0.9244    0.6694   -3.1081 C   0  0  0  0  0  0  0  0  0  0  0  0
   -1.0390    0.4919   -1.9267 C   0  0  0  0  0  0  0  0  0  0  0  0
   -1.1031    0.3254   -0.4979 C   0  0  0  0  0  0  0  0  0  0  0  0
   -1.8011    1.4491    0.2571 C   0  0  0  0  0  0  0  0  0  0  0  0
   -1.4325   -1.0063   -0.0605 C   0  0  0  0  0  0  0  0  0  0  0  0
   -1.6545   -2.1104    0.3543 C   0  0  0  0  0  0  0  0  0  0  0  0
   -0.8495    0.8187   -4.1583 H   0  0  0  0  0  0  0  0  0  0  0  0
    0.1413    0.4732   -0.1169 H   0  0  0  0  0  0  0  0  0  0  0  0
   -2.8704    1.4580    0.0387 H   0  0  0  0  0  0  0  0  0  0  0  0
   -1.3772    2.4102   -0.0335 H   0  0  0  0  0  0  0  0  0  0  0  0
   -1.6647    1.3155    1.3301 H   0  0  0  0  0  0  0  0  0  0  0  0
   -1.8755   -3.0884    0.7084 H   0  0  0  0  0  0  0  0  0  0  0  0
    2.1968   -0.5080   -0.4713 C   0  0  0  0  0  0  0  0  0  0  0  0
    1.4930    0.5720    0.2474 C   0  0  0  0  0  3  0  0  0  0  0  0
    1.9365    1.7043    1.2500 S   0  0  0  0  0  0  0  0  0  0  0  0
    3.2667   -0.5285   -0.2622 H   0  0  0  0  0  0  0  0  0  0  0  0
    2.0238   -0.3842   -1.5443 H   0  0  0  0  0  0  0  0  0  0  0  0
    1.7402   -1.4641   -0.1993 H   0  0  0  0  0  0  0  0  0  0  0  0
  1  2  3  0
  1  7  1  0
  2  3  1  0
  3  4  1  0
  3  5  1  0
  3  8  1  0
  4  9  1  0
  4 10  1  0
  4 11  1  0
  5  6  3  0
  6 12  1  0
 13 14  1  0
 13 16  1  0
 13 17  1  0
 13 18  1  0
 14 15  2  0
M  RAD  1  14   2
M  END
>  <reaction>  (4) 
rxn_1429

>  <mol_properties>  (4) 
{"1": {"label": "*0", "atom_type": "Ct"}, "2": {"label": "*1", "atom_type": "Cs"}, "7": {"label": "*2", "atom_type": "H0"}, "13": {"label": "*3", "atom_type": "CS"}, "14": {"label": "*4", "atom_type": "S2d"}}

>  <type>  (4) 
ts

$$$$
