
     RDKit          3D

 12 11  0  0  0  0  0  0  0  0999 V2000
    2.1696    0.6854    1.1310 C   0  0  0  0  0  0  0  0  0  0  0  0
    1.2518    0.4145    0.4134 C   0  0  0  0  0  0  0  0  0  0  0  0
    0.1391    0.0443   -0.4683 C   0  0  0  0  0  0  0  0  0  0  0  0
   -0.2054   -1.4492   -0.3339 C   0  0  0  0  0  0  0  0  0  0  0  0
   -1.0375    0.8853   -0.2222 C   0  0  0  0  0  0  0  0  0  0  0  0
   -2.0160    1.5463   -0.0311 C   0  0  0  0  0  0  0  0  0  0  0  0
    2.9819    0.9356    1.7702 H   0  0  0  0  0  0  0  0  0  0  0  0
    0.4629    0.2285   -1.4981 H   0  0  0  0  0  0  0  0  0  0  0  0
   -0.5327   -1.6703    0.6812 H   0  0  0  0  0  0  0  0  0  0  0  0
    0.6727   -2.0535   -0.5593 H   0  0  0  0  0  0  0  0  0  0  0  0
   -1.0064   -1.7081   -1.0256 H   0  0  0  0  0  0  0  0  0  0  0  0
   -2.8802    2.1413    0.1426 H   0  0  0  0  0  0  0  0  0  0  0  0
  1  2  3  0
  1  7  1  0
  2  3  1  0
  3  4  1  0
  3  5  1  0
  3  8  1  0
  4  9  1  0
  4 10  1  0
  4 11  1  0
  5  6  3  0
  6 12  1  0
M  END
>  <reaction>  (1) 
rxn_1414

>  <mol_properties>  (1) 
{"2": {"label": "donator", "atom_type": "Cs"}, "7": {"label": "d_hydrogen", "atom_type": "H0"}}

>  <type>  (1) 
r1h

$$$$

     RDKit          3D

  6  5  0  0  0  0  0  0  0  0999 V2000
   -0.7309   -0.0987    0.0327 C   0  0  0  0  0  0  0  0  0  0  0  0
    0.6208    0.0065   -0.0096 C   0  0  0  0  0  0  0  0  0  0  0  0
    1.6572   -1.2972    0.2837 S   0  0  0  0  0  1  0  0  0  0  0  0
   -1.3651    0.7588   -0.1608 H   0  0  0  0  0  0  0  0  0  0  0  0
   -1.2044   -1.0453    0.2616 H   0  0  0  0  0  0  0  0  0  0  0  0
    1.0609    0.9725   -0.2426 H   0  0  0  0  0  0  0  0  0  0  0  0
  1  2  2  3
  1  4  1  0
  1  5  1  0
  2  3  1  0
  2  6  1  0
M  RAD  1   3   2
M  END
>  <reaction>  (2) 
rxn_1414

>  <mol_properties>  (2) 
{"0": {"label": "acceptor", "atom_type": "Cs"}}

>  <type>  (2) 
r2

$$$$

     RDKit          3D

  7  6  0  0  0  0  0  0  0  0999 V2000
   -0.6782    0.0507    0.0301 C   0  0  0  0  0  0  0  0  0  0  0  0
    0.8092    0.0996    0.0213 C   0  0  0  0  0  0  0  0  0  0  0  0
    1.7473    0.7521    1.1507 S   0  0  0  0  0  0  0  0  0  0  0  0
   -1.0667    0.5456   -0.8653 H   0  0  0  0  0  0  0  0  0  0  0  0
   -1.0112   -0.9904   -0.0239 H   0  0  0  0  0  0  0  0  0  0  0  0
   -1.0920    0.5225    0.9188 H   0  0  0  0  0  0  0  0  0  0  0  0
    1.2740   -0.3620   -0.8520 H   0  0  0  0  0  0  0  0  0  0  0  0
  1  2  1  0
  1  4  1  0
  1  5  1  0
  1  6  1  0
  2  3  2  0
  2  7  1  0
M  END
>  <reaction>  (3) 
rxn_1414

>  <mol_properties>  (3) 
{"0": {"label": "a_hydrogen", "atom_type": "H0"}, "1": {"label": "acceptor", "atom_type": "Cs"}}

>  <type>  (3) 
r2h

$$$$

     RDKit          3D

 18 16  0  0  0  0  0  0  0  0999 V2000
   -1.3487   -1.3838   -2.8071 C   0  0  0  0  0  0  0  0  0  0  0  0
   -1.4087   -0.8659   -1.7265 C   0  0  0  0  0  0  0  0  0  0  0  0
   -1.4185   -0.2134   -0.4495 C   0  0  0  0  0  3  0  0  0  0  0  0
   -1.8297    1.2499   -0.4434 C   0  0  0  0  0  0  0  0  0  0  0  0
   -1.8872   -0.9947    0.6540 C   0  0  0  0  0  0  0  0  0  0  0  0
   -2.1929   -1.6091    1.6387 C   0  0  0  0  0  0  0  0  0  0  0  0
   -1.3139   -1.8504   -3.7624 H   0  0  0  0  0  0  0  0  0  0  0  0
   -0.1113   -0.1277   -0.1295 H   0  0  0  0  0  0  0  0  0  0  0  0
   -2.9049    1.3413   -0.6062 H   0  0  0  0  0  0  0  0  0  0  0  0
   -1.3108    1.7868   -1.2367 H   0  0  0  0  0  0  0  0  0  0  0  0
   -1.5798    1.6987    0.5180 H   0  0  0  0  0  0  0  0  0  0  0  0
   -2.4905   -2.1555    2.5014 H   0  0  0  0  0  0  0  0  0  0  0  0
    1.1673    0.0907    0.2262 C   0  0  0  0  0  0  0  0  0  0  0  0
    1.1672   -0.1055    1.6363 C   0  0  0  0  0  0  0  0  0  0  0  0
    0.8704    1.0665    2.7441 S   0  0  0  0  0  0  0  0  0  0  0  0
    1.6449   -0.6688   -0.3880 H   0  0  0  0  0  0  0  0  0  0  0  0
    1.2729    1.1134   -0.1251 H   0  0  0  0  0  0  0  0  0  0  0  0
    1.3262   -1.1263    1.9801 H   0  0  0  0  0  0  0  0  0  0  0  0
  1  2  3  0
  1  7  1  0
  2  3  1  0
  3  4  1  0
  3  5  1  0
  4  9  1  0
  4 10  1  0
  4 11  1  0
  5  6  3  0
  6 12  1  0
  8 13  1  0
 13 14  1  0
 13 16  1  0
 13 17  1  0
 14 15  2  0
 14 18  1  0
M  RAD  1   3   2
M  END
>  <reaction>  (4) 
rxn_1414

>  <mol_properties>  (4) 
{"1": {"label": "*4", "atom_type": "Ct"}, "2": {"label": "*3", "atom_type": "Cs"}, "7": {"label": "*2", "atom_type": "H0"}, "12": {"label": "*1", "atom_type": "Cs"}, "13": {"label": "*0", "atom_type": "CS"}}

>  <type>  (4) 
ts

$$$$
