
     RDKit          3D

 18 18  0  0  0  0  0  0  0  0999 V2000
   -2.4852    0.3210   -0.3966 C   0  0  0  0  0  0  0  0  0  0  0  0
   -1.5917   -0.2708    0.6941 C   0  0  0  0  0  0  0  0  0  0  0  0
   -0.1292   -0.1692    0.3493 C   0  0  0  0  0  0  0  0  0  0  0  0
    0.6099    0.9558    0.7015 C   0  0  0  0  0  0  0  0  0  0  0  0
    1.9447    1.0728    0.3458 C   0  0  0  0  0  0  0  0  0  0  0  0
    2.5646    0.0613   -0.3720 C   0  0  0  0  0  0  0  0  0  0  0  0
    1.8399   -1.0657   -0.7287 C   0  0  0  0  0  0  0  0  0  0  0  0
    0.5055   -1.1769   -0.3700 C   0  0  0  0  0  0  0  0  0  0  0  0
   -2.3325   -0.1971   -1.3452 H   0  0  0  0  0  0  0  0  0  0  0  0
   -2.2554    1.3763   -0.5546 H   0  0  0  0  0  0  0  0  0  0  0  0
   -3.5397    0.2376   -0.1280 H   0  0  0  0  0  0  0  0  0  0  0  0
   -1.7801    0.2462    1.6380 H   0  0  0  0  0  0  0  0  0  0  0  0
   -1.8568   -1.3190    0.8516 H   0  0  0  0  0  0  0  0  0  0  0  0
    0.1327    1.7497    1.2656 H   0  0  0  0  0  0  0  0  0  0  0  0
    2.5033    1.9550    0.6330 H   0  0  0  0  0  0  0  0  0  0  0  0
    3.6077    0.1491   -0.6484 H   0  0  0  0  0  0  0  0  0  0  0  0
    2.3163   -1.8632   -1.2854 H   0  0  0  0  0  0  0  0  0  0  0  0
   -0.0540   -2.0629   -0.6500 H   0  0  0  0  0  0  0  0  0  0  0  0
  1  2  1  0
  1  9  1  0
  1 10  1  0
  1 11  1  0
  2  3  1  0
  2 12  1  0
  2 13  1  0
  3  4  2  0
  3  8  1  0
  4  5  1  0
  4 14  1  0
  5  6  2  0
  5 15  1  0
  6  7  1  0
  6 16  1  0
  7  8  2  0
  7 17  1  0
  8 18  1  0
M  END
>  <reaction>  (1) 
rxn_1491

>  <mol_properties>  (1) 
{"1": {"label": "donator", "atom_type": "Cs"}, "11": {"label": "d_hydrogen", "atom_type": "H0"}}

>  <type>  (1) 
r1h

$$$$

     RDKit          3D

 11 10  0  0  0  0  0  0  0  0999 V2000
   -0.9580    1.1013   -2.2955 C   0  0  0  0  0  0  0  0  0  0  0  0
   -0.5129    0.5941   -1.2929 C   0  0  0  0  0  0  0  0  0  0  0  0
   -0.0301   -0.0160   -0.1357 C   0  0  0  0  0  3  0  0  0  0  0  0
   -0.6593   -1.2845    0.3661 C   0  0  0  0  0  0  0  0  0  0  0  0
    1.0691    0.5292    0.5269 C   0  0  0  0  0  0  0  0  0  0  0  0
    2.0168    0.9794    1.1266 C   0  0  0  0  0  0  0  0  0  0  0  0
   -1.3415    1.5561   -3.1769 H   0  0  0  0  0  0  0  0  0  0  0  0
   -1.7166   -1.3186    0.1054 H   0  0  0  0  0  0  0  0  0  0  0  0
   -0.1742   -2.1550   -0.0865 H   0  0  0  0  0  0  0  0  0  0  0  0
   -0.5505   -1.3663    1.4470 H   0  0  0  0  0  0  0  0  0  0  0  0
    2.8514    1.3842    1.6465 H   0  0  0  0  0  0  0  0  0  0  0  0
  1  2  3  0
  1  7  1  0
  2  3  1  0
  3  4  1  0
  3  5  1  0
  4  8  1  0
  4  9  1  0
  4 10  1  0
  5  6  3  0
  6 11  1  0
M  RAD  1   3   2
M  END
>  <reaction>  (2) 
rxn_1491

>  <mol_properties>  (2) 
{"2": {"label": "acceptor", "atom_type": "Cs"}}

>  <type>  (2) 
r2

$$$$

     RDKit          3D

 12 11  0  0  0  0  0  0  0  0999 V2000
    2.1696    0.6854    1.1310 C   0  0  0  0  0  0  0  0  0  0  0  0
    1.2518    0.4145    0.4134 C   0  0  0  0  0  0  0  0  0  0  0  0
    0.1391    0.0443   -0.4683 C   0  0  0  0  0  0  0  0  0  0  0  0
   -0.2054   -1.4492   -0.3339 C   0  0  0  0  0  0  0  0  0  0  0  0
   -1.0375    0.8853   -0.2222 C   0  0  0  0  0  0  0  0  0  0  0  0
   -2.0160    1.5463   -0.0311 C   0  0  0  0  0  0  0  0  0  0  0  0
    2.9819    0.9356    1.7702 H   0  0  0  0  0  0  0  0  0  0  0  0
    0.4629    0.2285   -1.4981 H   0  0  0  0  0  0  0  0  0  0  0  0
   -0.5327   -1.6703    0.6812 H   0  0  0  0  0  0  0  0  0  0  0  0
    0.6727   -2.0535   -0.5593 H   0  0  0  0  0  0  0  0  0  0  0  0
   -1.0064   -1.7081   -1.0256 H   0  0  0  0  0  0  0  0  0  0  0  0
   -2.8802    2.1413    0.1426 H   0  0  0  0  0  0  0  0  0  0  0  0
  1  2  3  0
  1  7  1  0
  2  3  1  0
  3  4  1  0
  3  5  1  0
  3  8  1  0
  4  9  1  0
  4 10  1  0
  4 11  1  0
  5  6  3  0
  6 12  1  0
M  END
>  <reaction>  (3) 
rxn_1491

>  <mol_properties>  (3) 
{"2": {"label": "acceptor", "atom_type": "Cs"}, "11": {"label": "a_hydrogen", "atom_type": "H0"}}

>  <type>  (3) 
r2h

$$$$

     RDKit          3D

 29 28  0  0  0  0  0  0  0  0999 V2000
   -1.7098   -3.5523   -1.3612 C   0  0  0  0  0  0  0  0  0  0  0  0
   -1.2971   -2.7463   -0.5733 C   0  0  0  0  0  0  0  0  0  0  0  0
   -0.7998   -1.7327    0.3169 C   0  0  0  0  0  0  0  0  0  0  0  0
   -1.8200   -0.6886    0.7497 C   0  0  0  0  0  0  0  0  0  0  0  0
    0.0673   -2.2089    1.3602 C   0  0  0  0  0  0  0  0  0  0  0  0
    0.8309   -2.5498    2.2212 C   0  0  0  0  0  0  0  0  0  0  0  0
   -2.0786   -4.2794   -2.0437 H   0  0  0  0  0  0  0  0  0  0  0  0
   -2.3200   -0.2727   -0.1251 H   0  0  0  0  0  0  0  0  0  0  0  0
   -2.5733   -1.1324    1.4030 H   0  0  0  0  0  0  0  0  0  0  0  0
   -1.3212    0.1190    1.2853 H   0  0  0  0  0  0  0  0  0  0  0  0
    1.4904   -2.8714    2.9907 H   0  0  0  0  0  0  0  0  0  0  0  0
    0.2623   -0.3295   -2.5762 C   0  0  0  0  0  0  0  0  0  0  0  0
    0.8340   -0.2036   -1.1924 C   0  0  0  0  0  0  0  0  0  0  0  0
    0.7890    1.0684   -0.4729 C   0  0  0  0  0  0  0  0  0  0  0  0
   -0.0072    2.1406   -0.8889 C   0  0  0  0  0  3  0  0  0  0  0  0
   -0.0810    3.3028   -0.1395 C   0  0  0  0  0  0  0  0  0  0  0  0
    0.6316    3.4214    1.0446 C   0  0  0  0  0  0  0  0  0  0  0  0
    1.4282    2.3661    1.4713 C   0  0  0  0  0  0  0  0  0  0  0  0
    1.5069    1.2075    0.7225 C   0  0  0  0  0  0  0  0  0  0  0  0
    0.7973    0.3084   -3.2872 H   0  0  0  0  0  0  0  0  0  0  0  0
   -0.7919   -0.0464   -2.6064 H   0  0  0  0  0  0  0  0  0  0  0  0
    0.3327   -1.3595   -2.9243 H   0  0  0  0  0  0  0  0  0  0  0  0
    0.0200   -1.0174   -0.4384 H   0  0  0  0  0  0  0  0  0  0  0  0
    1.7550   -0.7616   -1.0303 H   0  0  0  0  0  0  0  0  0  0  0  0
   -0.5714    2.0677   -1.8098 H   0  0  0  0  0  0  0  0  0  0  0  0
   -0.6999    4.1226   -0.4827 H   0  0  0  0  0  0  0  0  0  0  0  0
    0.5701    4.3300    1.6297 H   0  0  0  0  0  0  0  0  0  0  0  0
    1.9896    2.4492    2.3934 H   0  0  0  0  0  0  0  0  0  0  0  0
    2.1192    0.3814    1.0656 H   0  0  0  0  0  0  0  0  0  0  0  0
  1  2  3  0
  1  7  1  0
  2  3  1  0
  3  4  1  0
  3  5  1  0
  3 23  1  0
  4  8  1  0
  4  9  1  0
  4 10  1  0
  5  6  3  0
  6 11  1  0
 12 13  1  0
 12 20  1  0
 12 21  1  0
 12 22  1  0
 13 14  2  3
 13 24  1  0
 14 15  1  0
 14 19  1  0
 15 16  1  0
 15 25  1  0
 16 17  2  0
 16 26  1  0
 17 18  1  0
 17 27  1  0
 18 19  2  0
 18 28  1  0
 19 29  1  0
M  RAD  1  15   2
M  END
>  <reaction>  (4) 
rxn_1491

>  <mol_properties>  (4) 
{"1": {"label": "*0", "atom_type": "Ct"}, "2": {"label": "*1", "atom_type": "Cs"}, "12": {"label": "*3", "atom_type": "Cd"}, "13": {"label": "*4", "atom_type": "Cd"}, "22": {"label": "*2", "atom_type": "H0"}}

>  <type>  (4) 
ts

$$$$
