
     RDKit          3D

 15 15  0  0  0  0  0  0  0  0999 V2000
    2.2031   -0.2111   -0.1693 C   0  0  0  0  0  0  0  0  0  0  0  0
    0.7140   -0.0314   -0.0623 C   0  0  0  0  0  0  0  0  0  0  0  0
   -0.0114    0.5491   -1.0982 C   0  0  0  0  0  0  0  0  0  0  0  0
   -1.3882    0.6886   -1.0150 C   0  0  0  0  0  0  0  0  0  0  0  0
   -2.0661    0.2493    0.1118 C   0  0  0  0  0  0  0  0  0  0  0  0
   -1.3551   -0.3278    1.1528 C   0  0  0  0  0  0  0  0  0  0  0  0
    0.0216   -0.4648    1.0642 C   0  0  0  0  0  0  0  0  0  0  0  0
    2.6776   -0.1836    0.8122 H   0  0  0  0  0  0  0  0  0  0  0  0
    2.4446   -1.1749   -0.6249 H   0  0  0  0  0  0  0  0  0  0  0  0
    2.6532    0.5664   -0.7875 H   0  0  0  0  0  0  0  0  0  0  0  0
    0.5104    0.8989   -1.9819 H   0  0  0  0  0  0  0  0  0  0  0  0
   -1.9328    1.1452   -1.8322 H   0  0  0  0  0  0  0  0  0  0  0  0
   -3.1409    0.3597    0.1800 H   0  0  0  0  0  0  0  0  0  0  0  0
   -1.8736   -0.6702    2.0398 H   0  0  0  0  0  0  0  0  0  0  0  0
    0.5695   -0.9141    1.8849 H   0  0  0  0  0  0  0  0  0  0  0  0
  1  2  1  0
  1  8  1  0
  1  9  1  0
  1 10  1  0
  2  3  2  0
  2  7  1  0
  3  4  1  0
  3 11  1  0
  4  5  2  0
  4 12  1  0
  5  6  1  0
  5 13  1  0
  6  7  2  0
  6 14  1  0
  7 15  1  0
M  END
>  <reaction>  (1) 
rxn_1451

>  <mol_properties>  (1) 
{"0": {"label": "donator", "atom_type": "Cs"}, "7": {"label": "d_hydrogen", "atom_type": "H0"}}

>  <type>  (1) 
r1h

$$$$

     RDKit          3D

  8  7  0  0  0  0  0  0  0  0999 V2000
    1.4097   -0.3618   -0.1144 C   0  0  0  0  0  0  0  0  0  0  0  0
    0.1804   -0.1811   -0.5085 C   0  0  0  0  0  3  0  0  0  0  0  0
   -1.1132    0.2655    0.0162 C   0  0  0  0  0  0  0  0  0  0  0  0
    2.1849   -0.7256   -0.7809 H   0  0  0  0  0  0  0  0  0  0  0  0
    1.7118   -0.1519    0.9143 H   0  0  0  0  0  0  0  0  0  0  0  0
   -1.8662   -0.5198   -0.0756 H   0  0  0  0  0  0  0  0  0  0  0  0
   -1.0300    0.5356    1.0772 H   0  0  0  0  0  0  0  0  0  0  0  0
   -1.4772    1.1391   -0.5284 H   0  0  0  0  0  0  0  0  0  0  0  0
  1  2  2  3
  1  4  1  0
  1  5  1  0
  2  3  1  0
  3  6  1  0
  3  7  1  0
  3  8  1  0
M  RAD  1   2   2
M  END
>  <reaction>  (2) 
rxn_1451

>  <mol_properties>  (2) 
{"1": {"label": "acceptor", "atom_type": "Cd"}}

>  <type>  (2) 
r2

$$$$

     RDKit          3D

  9  8  0  0  0  0  0  0  0  0999 V2000
    1.1303   -0.2933   -0.7510 C   0  0  0  0  0  0  0  0  0  0  0  0
    0.2866    0.4560   -0.0588 C   0  0  0  0  0  0  0  0  0  0  0  0
   -0.9719   -0.0331    0.5823 C   0  0  0  0  0  0  0  0  0  0  0  0
    2.0274    0.1230   -1.1916 H   0  0  0  0  0  0  0  0  0  0  0  0
    0.9532   -1.3530   -0.9023 H   0  0  0  0  0  0  0  0  0  0  0  0
    0.5065    1.5132    0.0659 H   0  0  0  0  0  0  0  0  0  0  0  0
   -0.9526    0.1426    1.6610 H   0  0  0  0  0  0  0  0  0  0  0  0
   -1.1182   -1.1002    0.4106 H   0  0  0  0  0  0  0  0  0  0  0  0
   -1.8412    0.5010    0.1901 H   0  0  0  0  0  0  0  0  0  0  0  0
  1  2  2  3
  1  4  1  0
  1  5  1  0
  2  3  1  0
  2  6  1  0
  3  7  1  0
  3  8  1  0
  3  9  1  0
M  END
>  <reaction>  (3) 
rxn_1451

>  <mol_properties>  (3) 
{"1": {"label": "acceptor", "atom_type": "Cd"}, "8": {"label": "a_hydrogen", "atom_type": "H0"}}

>  <type>  (3) 
r2h

$$$$

     RDKit          3D

 23 22  0  0  0  0  0  0  0  0999 V2000
   -1.5689   -1.6187    1.1915 C   0  0  0  0  0  0  0  0  0  0  0  0
   -0.9520   -1.0999    2.2268 C   0  0  0  0  0  3  0  0  0  0  0  0
   -1.0766   -1.3160    3.6847 C   0  0  0  0  0  0  0  0  0  0  0  0
   -1.3249   -1.3184    0.1773 H   0  0  0  0  0  0  0  0  0  0  0  0
   -2.3490   -2.3699    1.3108 H   0  0  0  0  0  0  0  0  0  0  0  0
   -1.3433   -0.3879    4.1955 H   0  0  0  0  0  0  0  0  0  0  0  0
   -1.8452   -2.0633    3.9075 H   0  0  0  0  0  0  0  0  0  0  0  0
   -0.1312   -1.6600    4.1106 H   0  0  0  0  0  0  0  0  0  0  0  0
    0.8685    0.6924    1.3619 C   0  0  0  0  0  0  0  0  0  0  0  0
    0.7220    0.6504   -0.1027 C   0  0  0  0  0  0  0  0  0  0  0  0
   -0.2022    1.4694   -0.7552 C   0  0  0  0  0  0  0  0  0  0  0  0
   -0.3918    1.3812   -2.1238 C   0  0  0  0  0  0  0  0  0  0  0  0
    0.3374    0.4687   -2.8730 C   0  0  0  0  0  0  0  0  0  0  0  0
    1.2596   -0.3521   -2.2393 C   0  0  0  0  0  0  0  0  0  0  0  0
    1.4481   -0.2626   -0.8707 C   0  0  0  0  0  0  0  0  0  0  0  0
    0.0353   -0.1332    1.8375 H   0  0  0  0  0  0  0  0  0  0  0  0
    1.8285    0.3368    1.7314 H   0  0  0  0  0  0  0  0  0  0  0  0
    0.5873    1.6395    1.8183 H   0  0  0  0  0  0  0  0  0  0  0  0
   -0.7798    2.1808   -0.1762 H   0  0  0  0  0  0  0  0  0  0  0  0
   -1.1124    2.0277   -2.6092 H   0  0  0  0  0  0  0  0  0  0  0  0
    0.1899    0.3995   -3.9432 H   0  0  0  0  0  0  0  0  0  0  0  0
    1.8352   -1.0661   -2.8154 H   0  0  0  0  0  0  0  0  0  0  0  0
    2.1662   -0.9113   -0.3823 H   0  0  0  0  0  0  0  0  0  0  0  0
  1  2  2  3
  1  4  1  0
  1  5  1  0
  2  3  1  0
  3  6  1  0
  3  7  1  0
  3  8  1  0
  9 10  1  0
  9 16  1  0
  9 17  1  0
  9 18  1  0
 10 11  2  0
 10 15  1  0
 11 12  1  0
 11 19  1  0
 12 13  2  0
 12 20  1  0
 13 14  1  0
 13 21  1  0
 14 15  2  0
 14 22  1  0
 15 23  1  0
M  RAD  1   2   2
M  END
>  <reaction>  (4) 
rxn_1451

>  <mol_properties>  (4) 
{"0": {"label": "*4", "atom_type": "Cd"}, "1": {"label": "*3", "atom_type": "Cd"}, "8": {"label": "*1", "atom_type": "Cs"}, "9": {"label": "*0", "atom_type": "Cd"}, "15": {"label": "*2", "atom_type": "H0"}}

>  <type>  (4) 
ts

$$$$
