
     RDKit          3D

 16 15  0  0  0  0  0  0  0  0999 V2000
    1.7961   -0.3807    1.6176 C   0  0  0  0  0  0  0  0  0  0  0  0
    0.8562   -0.8708    0.8256 C   0  0  0  0  0  0  0  0  0  0  0  0
    0.0895   -0.0826   -0.2048 C   0  0  0  0  0  0  0  0  0  0  0  0
   -1.4061   -0.1111    0.0982 C   0  0  0  0  0  0  0  0  0  0  0  0
    0.4476   -0.5902   -1.5797 C   0  0  0  0  0  0  0  0  0  0  0  0
   -0.3793   -1.1113   -2.4728 C   0  0  0  0  0  0  0  0  0  0  0  0
    2.3110   -1.0032    2.3386 H   0  0  0  0  0  0  0  0  0  0  0  0
    2.0846    0.6643    1.5737 H   0  0  0  0  0  0  0  0  0  0  0  0
    0.5921   -1.9241    0.8925 H   0  0  0  0  0  0  0  0  0  0  0  0
    0.4358    0.9557   -0.1462 H   0  0  0  0  0  0  0  0  0  0  0  0
   -1.5968    0.3080    1.0865 H   0  0  0  0  0  0  0  0  0  0  0  0
   -1.9674    0.4693   -0.6359 H   0  0  0  0  0  0  0  0  0  0  0  0
   -1.7902   -1.1338    0.0883 H   0  0  0  0  0  0  0  0  0  0  0  0
    1.5049   -0.5197   -1.8214 H   0  0  0  0  0  0  0  0  0  0  0  0
   -1.4421   -1.2131   -2.2889 H   0  0  0  0  0  0  0  0  0  0  0  0
   -0.0162   -1.4558   -3.4328 H   0  0  0  0  0  0  0  0  0  0  0  0
  1  2  2  3
  1  7  1  0
  1  8  1  0
  2  3  1  0
  2  9  1  0
  3  4  1  0
  3  5  1  0
  3 10  1  0
  4 11  1  0
  4 12  1  0
  4 13  1  0
  5  6  2  3
  5 14  1  0
  6 15  1  0
  6 16  1  0
M  END
>  <reaction>  (1) 
rxn_1183

>  <mol_properties>  (1) 
{"2": {"label": "donator", "atom_type": "Cs"}, "9": {"label": "d_hydrogen", "atom_type": "H0"}}

>  <type>  (1) 
r1h

$$$$

     RDKit          3D

 14 14  0  0  0  0  0  0  0  0999 V2000
    2.3111    0.1295    0.0255 C   0  0  0  0  0  0  0  0  0  0  0  0
    0.9132    0.0511    0.0101 C   0  0  0  0  0  0  0  0  0  0  0  0
    0.2446   -1.1981    0.0389 C   0  0  0  0  0  3  0  0  0  0  0  0
   -1.1306   -1.2689    0.0235 C   0  0  0  0  0  0  0  0  0  0  0  0
   -1.8967   -0.1062   -0.0209 C   0  0  0  0  0  0  0  0  0  0  0  0
   -1.2644    1.1347   -0.0499 C   0  0  0  0  0  0  0  0  0  0  0  0
    0.1101    1.2180   -0.0350 C   0  0  0  0  0  0  0  0  0  0  0  0
    2.9188   -0.7647    0.0599 H   0  0  0  0  0  0  0  0  0  0  0  0
    2.8158    1.0859    0.0034 H   0  0  0  0  0  0  0  0  0  0  0  0
    0.8353   -2.1058    0.0735 H   0  0  0  0  0  0  0  0  0  0  0  0
   -1.6191   -2.2351    0.0461 H   0  0  0  0  0  0  0  0  0  0  0  0
   -2.9772   -0.1668   -0.0328 H   0  0  0  0  0  0  0  0  0  0  0  0
   -1.8572    2.0404   -0.0845 H   0  0  0  0  0  0  0  0  0  0  0  0
    0.5964    2.1860   -0.0577 H   0  0  0  0  0  0  0  0  0  0  0  0
  1  2  2  3
  1  8  1  0
  1  9  1  0
  2  3  1  0
  2  7  1  0
  3  4  1  0
  3 10  1  0
  4  5  2  0
  4 11  1  0
  5  6  1  0
  5 12  1  0
  6  7  2  0
  6 13  1  0
  7 14  1  0
M  RAD  1   3   2
M  END
>  <reaction>  (2) 
rxn_1183

>  <mol_properties>  (2) 
{"0": {"label": "acceptor", "atom_type": "Cs"}}

>  <type>  (2) 
r2

$$$$

     RDKit          3D

 15 15  0  0  0  0  0  0  0  0999 V2000
    2.2031   -0.2111   -0.1693 C   0  0  0  0  0  0  0  0  0  0  0  0
    0.7140   -0.0314   -0.0623 C   0  0  0  0  0  0  0  0  0  0  0  0
   -0.0114    0.5491   -1.0982 C   0  0  0  0  0  0  0  0  0  0  0  0
   -1.3882    0.6886   -1.0150 C   0  0  0  0  0  0  0  0  0  0  0  0
   -2.0661    0.2493    0.1118 C   0  0  0  0  0  0  0  0  0  0  0  0
   -1.3551   -0.3278    1.1528 C   0  0  0  0  0  0  0  0  0  0  0  0
    0.0216   -0.4648    1.0642 C   0  0  0  0  0  0  0  0  0  0  0  0
    2.6776   -0.1836    0.8122 H   0  0  0  0  0  0  0  0  0  0  0  0
    2.4446   -1.1749   -0.6249 H   0  0  0  0  0  0  0  0  0  0  0  0
    2.6532    0.5664   -0.7875 H   0  0  0  0  0  0  0  0  0  0  0  0
    0.5104    0.8989   -1.9819 H   0  0  0  0  0  0  0  0  0  0  0  0
   -1.9328    1.1452   -1.8322 H   0  0  0  0  0  0  0  0  0  0  0  0
   -3.1409    0.3597    0.1800 H   0  0  0  0  0  0  0  0  0  0  0  0
   -1.8736   -0.6702    2.0398 H   0  0  0  0  0  0  0  0  0  0  0  0
    0.5695   -0.9141    1.8849 H   0  0  0  0  0  0  0  0  0  0  0  0
  1  2  1  0
  1  8  1  0
  1  9  1  0
  1 10  1  0
  2  3  2  0
  2  7  1  0
  3  4  1  0
  3 11  1  0
  4  5  2  0
  4 12  1  0
  5  6  1  0
  5 13  1  0
  6  7  2  0
  6 14  1  0
  7 15  1  0
M  END
>  <reaction>  (3) 
rxn_1183

>  <mol_properties>  (3) 
{"0": {"label": "a_hydrogen", "atom_type": "H0"}, "1": {"label": "acceptor", "atom_type": "Cs"}}

>  <type>  (3) 
r2h

$$$$

     RDKit          3D

 30 29  0  0  0  0  0  0  0  0999 V2000
   -1.6523   -2.2207   -0.8967 C   0  0  0  0  0  0  0  0  0  0  0  0
   -2.0918   -1.4828    0.1193 C   0  0  0  0  0  0  0  0  0  0  0  0
   -1.2777   -0.8917    1.2020 C   0  0  0  0  0  0  0  0  0  0  0  0
    0.1487   -1.3740    1.3203 C   0  0  0  0  0  0  0  0  0  0  0  0
   -2.0242   -0.6970    2.4629 C   0  0  0  0  0  0  0  0  0  0  0  0
   -1.5352   -0.7581    3.6981 C   0  0  0  0  0  0  0  0  0  0  0  0
   -2.3357   -2.5804   -1.6550 H   0  0  0  0  0  0  0  0  0  0  0  0
   -0.6114   -2.4982   -1.0052 H   0  0  0  0  0  0  0  0  0  0  0  0
   -3.1527   -1.2471    0.1606 H   0  0  0  0  0  0  0  0  0  0  0  0
   -1.1178    0.3093    0.7774 H   0  0  0  0  0  0  0  0  0  0  0  0
    0.6648   -1.3101    0.3623 H   0  0  0  0  0  0  0  0  0  0  0  0
    0.7095   -0.7602    2.0257 H   0  0  0  0  0  0  0  0  0  0  0  0
    0.1827   -2.4115    1.6634 H   0  0  0  0  0  0  0  0  0  0  0  0
   -3.0773   -0.4548    2.3394 H   0  0  0  0  0  0  0  0  0  0  0  0
   -0.5008   -1.0054    3.9015 H   0  0  0  0  0  0  0  0  0  0  0  0
   -2.1702   -0.5729    4.5547 H   0  0  0  0  0  0  0  0  0  0  0  0
   -0.7995    1.5950    0.2057 C   0  0  0  0  0  0  0  0  0  0  0  0
    0.4153    1.3779   -0.5485 C   0  0  0  0  0  0  0  0  0  0  0  0
    0.3704    0.8430   -1.8443 C   0  0  0  0  0  3  0  0  0  0  0  0
    1.5328    0.5544   -2.5346 C   0  0  0  0  0  0  0  0  0  0  0  0
    2.7716    0.7918   -1.9527 C   0  0  0  0  0  0  0  0  0  0  0  0
    2.8348    1.3262   -0.6719 C   0  0  0  0  0  0  0  0  0  0  0  0
    1.6744    1.6136    0.0217 C   0  0  0  0  0  0  0  0  0  0  0  0
   -1.7169    1.7298   -0.3594 H   0  0  0  0  0  0  0  0  0  0  0  0
   -0.7296    2.1979    1.1059 H   0  0  0  0  0  0  0  0  0  0  0  0
   -0.5933    0.6441   -2.2979 H   0  0  0  0  0  0  0  0  0  0  0  0
    1.4750    0.1407   -3.5338 H   0  0  0  0  0  0  0  0  0  0  0  0
    3.6809    0.5656   -2.4945 H   0  0  0  0  0  0  0  0  0  0  0  0
    3.7968    1.5186   -0.2131 H   0  0  0  0  0  0  0  0  0  0  0  0
    1.7308    2.0241    1.0233 H   0  0  0  0  0  0  0  0  0  0  0  0
  1  2  2  3
  1  7  1  0
  1  8  1  0
  2  3  1  0
  2  9  1  0
  3  4  1  0
  3  5  1  0
  3 10  1  0
  4 11  1  0
  4 12  1  0
  4 13  1  0
  5  6  2  3
  5 14  1  0
  6 15  1  0
  6 16  1  0
 17 18  2  3
 17 24  1  0
 17 25  1  0
 18 19  1  0
 18 23  1  0
 19 20  1  0
 19 26  1  0
 20 21  2  0
 20 27  1  0
 21 22  1  0
 21 28  1  0
 22 23  2  0
 22 29  1  0
 23 30  1  0
M  RAD  1  19   2
M  END
>  <reaction>  (4) 
rxn_1183

>  <mol_properties>  (4) 
{"1": {"label": "*0", "atom_type": "Cd"}, "2": {"label": "*1", "atom_type": "Cs"}, "9": {"label": "*2", "atom_type": "H0"}, "16": {"label": "*3", "atom_type": "Cd"}, "17": {"label": "*4", "atom_type": "Cd"}}

>  <type>  (4) 
ts

$$$$
