
     RDKit          3D

  7  6  0  0  0  0  0  0  0  0999 V2000
    1.2985   -0.0065   -0.2721 C   0  0  0  0  0  0  0  0  0  0  0  0
    0.0000    0.0000   -0.2926 C   0  0  0  0  0  0  0  0  0  0  0  0
   -1.2985    0.0065   -0.3130 C   0  0  0  0  0  0  0  0  0  0  0  0
    1.8444   -0.7551    0.2895 H   0  0  0  0  0  0  0  0  0  0  0  0
    1.8693    0.7364   -0.8162 H   0  0  0  0  0  0  0  0  0  0  0  0
   -1.8658    0.5623    0.4239 H   0  0  0  0  0  0  0  0  0  0  0  0
   -1.8479   -0.5437   -1.0675 H   0  0  0  0  0  0  0  0  0  0  0  0
  1  2  2  0
  1  4  1  0
  1  5  1  0
  2  3  2  0
  3  6  1  0
  3  7  1  0
M  END
>  <reaction>  (1) 
rxn_256

>  <mol_properties>  (1) 
{"2": {"label": "donator", "atom_type": "Cd"}, "6": {"label": "d_hydrogen", "atom_type": "H0"}}

>  <type>  (1) 
r1h

$$$$

     RDKit          3D

  2  1  0  0  0  0  0  0  0  0999 V2000
    0.0000    0.0000    0.4855 O   0  0  0  0  0  1  0  0  0  0  0  0
    0.0000    0.0000   -0.4855 H   0  0  0  0  0  0  0  0  0  0  0  0
  1  2  1  0
M  RAD  1   1   2
M  END
>  <reaction>  (2) 
rxn_256

>  <mol_properties>  (2) 
{"0": {"label": "acceptor", "atom_type": "O2s"}}

>  <type>  (2) 
r2

$$$$

     RDKit          3D

  3  2  0  0  0  0  0  0  0  0999 V2000
   -0.0003    0.3867    0.0000 O   0  0  0  0  0  0  0  0  0  0  0  0
   -0.7617   -0.1940    0.0000 H   0  0  0  0  0  0  0  0  0  0  0  0
    0.7620   -0.1927    0.0000 H   0  0  0  0  0  0  0  0  0  0  0  0
  1  2  1  0
  1  3  1  0
M  END
>  <reaction>  (3) 
rxn_256

>  <mol_properties>  (3) 
{"0": {"label": "acceptor", "atom_type": "O2s"}, "1": {"label": "a_hydrogen", "atom_type": "H0"}}

>  <type>  (3) 
r2h

$$$$

     RDKit          3D

  9  7  0  0  0  0  0  0  0  0999 V2000
    2.4273    0.8575   -0.1131 O   0  0  0  0  0  1  0  0  0  0  0  0
   -1.8806    0.1920    0.1854 C   0  0  0  0  0  0  0  0  0  0  0  0
   -0.7004   -0.2869   -0.1000 C   0  0  0  0  0  0  0  0  0  0  0  0
    0.4753   -0.7180   -0.3888 C   0  0  0  0  0  0  0  0  0  0  0  0
   -2.5364    0.5572   -0.5955 H   0  0  0  0  0  0  0  0  0  0  0  0
   -2.2368    0.2261    1.2078 H   0  0  0  0  0  0  0  0  0  0  0  0
    0.7640   -1.7398   -0.5944 H   0  0  0  0  0  0  0  0  0  0  0  0
    1.3616    0.0583   -0.4507 H   0  0  0  0  0  0  0  0  0  0  0  0
    2.3260    0.8535    0.8494 H   0  0  0  0  0  0  0  0  0  0  0  0
  1  9  1  0
  2  3  2  0
  2  5  1  0
  2  6  1  0
  3  4  2  0
  4  7  1  0
  4  8  1  0
M  RAD  1   1   2
M  END
>  <reaction>  (4) 
rxn_256

>  <mol_properties>  (4) 
{"0": {"label": "*3", "atom_type": "O2s"}, "2": {"label": "*0", "atom_type": "Cdd"}, "3": {"label": "*1", "atom_type": "Cd"}, "7": {"label": "*2", "atom_type": "H0"}, "8": {"label": "*4", "atom_type": "H0"}}

>  <type>  (4) 
ts

$$$$
