
     RDKit          3D

 12 11  0  0  0  0  0  0  0  0999 V2000
    1.9877    0.1011    0.4814 C   0  0  0  0  0  0  0  0  0  0  0  0
    0.8179    0.5502    0.0525 C   0  0  0  0  0  0  0  0  0  0  0  0
   -0.2939   -0.2692   -0.5320 C   0  0  0  0  0  0  0  0  0  0  0  0
   -0.0292   -1.7631   -0.6328 C   0  0  0  0  0  0  0  0  0  0  0  0
    2.2522   -0.9490    0.4436 H   0  0  0  0  0  0  0  0  0  0  0  0
    2.7295    0.7757    0.8896 H   0  0  0  0  0  0  0  0  0  0  0  0
    0.6162    1.6164    0.1190 H   0  0  0  0  0  0  0  0  0  0  0  0
   -0.5268    0.1319   -1.5245 H   0  0  0  0  0  0  0  0  0  0  0  0
   -1.1959   -0.0938    0.0644 H   0  0  0  0  0  0  0  0  0  0  0  0
    0.1590   -2.1992    0.3502 H   0  0  0  0  0  0  0  0  0  0  0  0
    0.8382   -1.9701   -1.2626 H   0  0  0  0  0  0  0  0  0  0  0  0
   -0.8879   -2.2759   -1.0672 H   0  0  0  0  0  0  0  0  0  0  0  0
  1  2  2  3
  1  5  1  0
  1  6  1  0
  2  3  1  0
  2  7  1  0
  3  4  1  0
  3  8  1  0
  3  9  1  0
  4 10  1  0
  4 11  1  0
  4 12  1  0
M  END
>  <reaction>  (1) 
rxn_1071

>  <mol_properties>  (1) 
{"2": {"label": "donator", "atom_type": "Cs"}, "7": {"label": "d_hydrogen", "atom_type": "H0"}}

>  <type>  (1) 
r1h

$$$$

     RDKit          3D

 10  9  0  0  0  0  0  0  0  0999 V2000
   -1.3354   -0.2069    0.0525 C   0  0  0  0  0  0  0  0  0  0  0  0
    0.0851    0.2624    0.0266 C   0  0  0  0  0  0  0  0  0  0  0  0
    0.4841    1.3876    0.7359 C   0  0  0  0  0  0  0  0  0  0  0  0
    2.0191    2.0303    0.8057 S   0  0  0  0  0  1  0  0  0  0  0  0
    1.1566   -0.6823   -0.9297 S   0  0  0  0  0  0  0  0  0  0  0  0
   -1.7589   -0.2174   -0.9545 H   0  0  0  0  0  0  0  0  0  0  0  0
   -1.4004   -1.2253    0.4427 H   0  0  0  0  0  0  0  0  0  0  0  0
   -1.9442    0.4442    0.6783 H   0  0  0  0  0  0  0  0  0  0  0  0
   -0.3073    1.8814    1.2951 H   0  0  0  0  0  0  0  0  0  0  0  0
    2.2383    0.0827   -0.6554 H   0  0  0  0  0  0  0  0  0  0  0  0
  1  2  1  0
  1  6  1  0
  1  7  1  0
  1  8  1  0
  2  3  2  3
  2  5  1  0
  3  4  1  0
  3  9  1  0
  5 10  1  0
M  RAD  1   4   2
M  END
>  <reaction>  (2) 
rxn_1071

>  <mol_properties>  (2) 
{"1": {"label": "acceptor", "atom_type": "Cs"}}

>  <type>  (2) 
r2

$$$$

     RDKit          3D

 11 10  0  0  0  0  0  0  0  0999 V2000
   -1.0997   -0.5860   -0.1182 C   0  0  0  0  0  0  0  0  0  0  0  0
    0.0827    0.2961    0.2270 C   0  0  0  0  0  0  0  0  0  0  0  0
    0.1622    1.6171   -0.4774 C   0  0  0  0  0  0  0  0  0  0  0  0
   -0.9879    2.3087   -1.3633 S   0  0  0  0  0  0  0  0  0  0  0  0
    0.2176    0.6619    2.0187 S   0  0  0  0  0  0  0  0  0  0  0  0
   -1.1052   -0.8107   -1.1861 H   0  0  0  0  0  0  0  0  0  0  0  0
   -2.0402   -0.0893    0.1198 H   0  0  0  0  0  0  0  0  0  0  0  0
   -1.0438   -1.5182    0.4423 H   0  0  0  0  0  0  0  0  0  0  0  0
    1.0207   -0.2324    0.0280 H   0  0  0  0  0  0  0  0  0  0  0  0
    1.1091    2.1333   -0.3182 H   0  0  0  0  0  0  0  0  0  0  0  0
   -0.9205    1.3661    2.0994 H   0  0  0  0  0  0  0  0  0  0  0  0
  1  2  1  0
  1  6  1  0
  1  7  1  0
  1  8  1  0
  2  3  1  0
  2  5  1  0
  2  9  1  0
  3  4  2  0
  3 10  1  0
  5 11  1  0
M  END
>  <reaction>  (3) 
rxn_1071

>  <mol_properties>  (3) 
{"1": {"label": "acceptor", "atom_type": "Cs"}, "10": {"label": "a_hydrogen", "atom_type": "H0"}}

>  <type>  (3) 
r2h

$$$$

     RDKit          3D

 22 20  0  0  0  0  0  0  0  0999 V2000
    0.9425   -1.4494    0.5948 C   0  0  0  0  0  0  0  0  0  0  0  0
    0.5900   -0.0066    0.3249 C   0  0  0  0  0  0  0  0  0  0  0  0
    0.0899    0.8192    1.4083 C   0  0  0  0  0  0  0  0  0  0  0  0
   -0.5765    0.2870    2.7939 S   0  0  0  0  0  0  0  0  0  0  0  0
    1.7320    0.8935   -0.7310 S   0  0  0  0  0  0  0  0  0  0  0  0
    1.8623   -1.5142    1.1784 H   0  0  0  0  0  0  0  0  0  0  0  0
    0.1446   -1.9315    1.1594 H   0  0  0  0  0  0  0  0  0  0  0  0
    1.0919   -1.9838   -0.3446 H   0  0  0  0  0  0  0  0  0  0  0  0
    0.1178    1.8914    1.2110 H   0  0  0  0  0  0  0  0  0  0  0  0
    1.6169    0.0767   -1.7888 H   0  0  0  0  0  0  0  0  0  0  0  0
   -0.6789   -0.4368   -3.5537 C   0  0  0  0  0  0  0  0  0  0  0  0
   -1.0679   -0.9951   -2.3950 C   0  0  0  0  0  0  0  0  0  0  0  0
   -1.5863   -0.2877   -1.2510 C   0  0  0  0  0  3  0  0  0  0  0  0
   -2.0161    1.1465   -1.3507 C   0  0  0  0  0  0  0  0  0  0  0  0
   -0.7628    0.6278   -3.7338 H   0  0  0  0  0  0  0  0  0  0  0  0
   -0.2809   -1.0418   -4.3574 H   0  0  0  0  0  0  0  0  0  0  0  0
   -0.9637   -2.0702   -2.2818 H   0  0  0  0  0  0  0  0  0  0  0  0
   -0.4568   -0.1243   -0.4135 H   0  0  0  0  0  0  0  0  0  0  0  0
   -2.1573   -0.8989   -0.5552 H   0  0  0  0  0  0  0  0  0  0  0  0
   -2.8881    1.2483   -2.0029 H   0  0  0  0  0  0  0  0  0  0  0  0
   -1.2193    1.7742   -1.7557 H   0  0  0  0  0  0  0  0  0  0  0  0
   -2.2840    1.5350   -0.3677 H   0  0  0  0  0  0  0  0  0  0  0  0
  1  2  1  0
  1  6  1  0
  1  7  1  0
  1  8  1  0
  2  3  1  0
  2  5  1  0
  2 18  1  0
  3  4  2  0
  3  9  1  0
  5 10  1  0
 11 12  2  3
 11 15  1  0
 11 16  1  0
 12 13  1  0
 12 17  1  0
 13 14  1  0
 13 19  1  0
 14 20  1  0
 14 21  1  0
 14 22  1  0
M  RAD  1  13   2
M  END
>  <reaction>  (4) 
rxn_1071

>  <mol_properties>  (4) 
{"1": {"label": "*1", "atom_type": "Cs"}, "2": {"label": "*0", "atom_type": "CS"}, "11": {"label": "*4", "atom_type": "Cd"}, "12": {"label": "*3", "atom_type": "Cs"}, "17": {"label": "*2", "atom_type": "H0"}}

>  <type>  (4) 
ts

$$$$
