
     RDKit          3D

  5  4  0  0  0  0  0  0  0  0999 V2000
    0.0000    0.0000    0.0000 C   0  0  0  0  0  0  0  0  0  0  0  0
   -0.6486   -0.7720   -0.4113 H   0  0  0  0  0  0  0  0  0  0  0  0
   -0.3482    0.9787   -0.3267 H   0  0  0  0  0  0  0  0  0  0  0  0
   -0.0223   -0.0487    1.0876 H   0  0  0  0  0  0  0  0  0  0  0  0
    1.0191   -0.1580   -0.3496 H   0  0  0  0  0  0  0  0  0  0  0  0
  1  2  1  0
  1  3  1  0
  1  4  1  0
  1  5  1  0
M  END
>  <reaction>  (1) 
rxn_688

>  <mol_properties>  (1) 
{"0": {"label": "donator", "atom_type": "Cs"}, "1": {"label": "d_hydrogen", "atom_type": "H0"}}

>  <type>  (1) 
r1h

$$$$

     RDKit          3D

  3  2  0  0  0  0  0  0  0  0999 V2000
   -1.2036   -0.0000    0.0000 N   0  0  0  0  0  0  0  0  0  0  0  0
    0.0175    0.0000    0.0000 C   0  0  0  0  0  0  0  0  0  0  0  0
    1.1862    0.0000    0.0000 O   0  0  0  0  0  1  0  0  0  0  0  0
  1  2  3  0
  2  3  1  0
M  RAD  1   3   2
M  END
>  <reaction>  (2) 
rxn_688

>  <mol_properties>  (2) 
{"0": {"label": "acceptor", "atom_type": "N3d"}}

>  <type>  (2) 
r2

$$$$

     RDKit          3D

  4  3  0  0  0  0  0  0  0  0999 V2000
   -0.6811    0.2130   -0.1145 N   0  0  0  0  0  0  0  0  0  0  0  0
    0.4886    0.0558    0.1399 C   0  0  0  0  0  0  0  0  0  0  0  0
    1.6370   -0.0014    0.2890 O   0  0  0  0  0  0  0  0  0  0  0  0
   -1.4444   -0.2674    0.3244 H   0  0  0  0  0  0  0  0  0  0  0  0
  1  2  2  0
  1  4  1  0
  2  3  2  0
M  END
>  <reaction>  (3) 
rxn_688

>  <mol_properties>  (3) 
{"0": {"label": "a_hydrogen", "atom_type": "H0"}, "1": {"label": "acceptor", "atom_type": "N3d"}}

>  <type>  (3) 
r2h

$$$$

     RDKit          3D

  8  6  0  0  0  0  0  0  0  0999 V2000
    0.3535   -2.3680   -0.2568 C   0  0  0  0  0  0  0  0  0  0  0  0
    0.7002   -1.1926   -0.0097 H   0  0  0  0  0  0  0  0  0  0  0  0
    0.6465   -2.9120    0.6364 H   0  0  0  0  0  0  0  0  0  0  0  0
   -0.7190   -2.3468   -0.4250 H   0  0  0  0  0  0  0  0  0  0  0  0
    0.9310   -2.6223   -1.1407 H   0  0  0  0  0  0  0  0  0  0  0  0
    0.8982    0.1023    0.2332 N   0  0  0  0  0  0  0  0  0  0  0  0
   -0.1727    0.6843    0.1567 C   0  0  0  0  0  0  0  0  0  0  0  0
   -1.1616    1.2971    0.0983 O   0  0  0  0  0  1  0  0  0  0  0  0
  1  2  1  0
  1  3  1  0
  1  4  1  0
  1  5  1  0
  6  7  3  0
  7  8  1  0
M  RAD  1   8   2
M  END
>  <reaction>  (4) 
rxn_688

>  <mol_properties>  (4) 
{"0": {"label": "*1", "atom_type": "Cs"}, "1": {"label": "*2", "atom_type": "H0"}, "2": {"label": "*0", "atom_type": "H0"}, "5": {"label": "*3", "atom_type": "N3t"}, "6": {"label": "*4", "atom_type": "Ct"}}

>  <type>  (4) 
ts

$$$$
