
     RDKit          3D

 18 18  0  0  0  0  0  0  0  0999 V2000
   -2.4852    0.3210   -0.3966 C   0  0  0  0  0  0  0  0  0  0  0  0
   -1.5917   -0.2708    0.6941 C   0  0  0  0  0  0  0  0  0  0  0  0
   -0.1292   -0.1692    0.3493 C   0  0  0  0  0  0  0  0  0  0  0  0
    0.6099    0.9558    0.7015 C   0  0  0  0  0  0  0  0  0  0  0  0
    1.9447    1.0728    0.3458 C   0  0  0  0  0  0  0  0  0  0  0  0
    2.5646    0.0613   -0.3720 C   0  0  0  0  0  0  0  0  0  0  0  0
    1.8399   -1.0657   -0.7287 C   0  0  0  0  0  0  0  0  0  0  0  0
    0.5055   -1.1769   -0.3700 C   0  0  0  0  0  0  0  0  0  0  0  0
   -2.3325   -0.1971   -1.3452 H   0  0  0  0  0  0  0  0  0  0  0  0
   -2.2554    1.3763   -0.5546 H   0  0  0  0  0  0  0  0  0  0  0  0
   -3.5397    0.2376   -0.1280 H   0  0  0  0  0  0  0  0  0  0  0  0
   -1.7801    0.2462    1.6380 H   0  0  0  0  0  0  0  0  0  0  0  0
   -1.8568   -1.3190    0.8516 H   0  0  0  0  0  0  0  0  0  0  0  0
    0.1327    1.7497    1.2656 H   0  0  0  0  0  0  0  0  0  0  0  0
    2.5033    1.9550    0.6330 H   0  0  0  0  0  0  0  0  0  0  0  0
    3.6077    0.1491   -0.6484 H   0  0  0  0  0  0  0  0  0  0  0  0
    2.3163   -1.8632   -1.2854 H   0  0  0  0  0  0  0  0  0  0  0  0
   -0.0540   -2.0629   -0.6500 H   0  0  0  0  0  0  0  0  0  0  0  0
  1  2  1  0
  1  9  1  0
  1 10  1  0
  1 11  1  0
  2  3  1  0
  2 12  1  0
  2 13  1  0
  3  4  2  0
  3  8  1  0
  4  5  1  0
  4 14  1  0
  5  6  2  0
  5 15  1  0
  6  7  1  0
  6 16  1  0
  7  8  2  0
  7 17  1  0
  8 18  1  0
M  END
>  <reaction>  (1) 
rxn_1495

>  <mol_properties>  (1) 
{"2": {"label": "donator", "atom_type": "Cs"}, "11": {"label": "d_hydrogen", "atom_type": "H0"}}

>  <type>  (1) 
r1h

$$$$

     RDKit          3D

  8  7  0  0  0  0  0  0  0  0999 V2000
    1.4038   -0.4003    0.0140 C   0  0  0  0  0  0  0  0  0  0  0  0
    0.2804    0.0563    0.4920 C   0  0  0  0  0  3  0  0  0  0  0  0
   -1.0935    0.3323    0.0625 C   0  0  0  0  0  0  0  0  0  0  0  0
    1.4898   -0.7154   -1.0285 H   0  0  0  0  0  0  0  0  0  0  0  0
    2.2990   -0.4891    0.6210 H   0  0  0  0  0  0  0  0  0  0  0  0
   -1.3399    1.3883    0.1900 H   0  0  0  0  0  0  0  0  0  0  0  0
   -1.2285    0.0762   -0.9967 H   0  0  0  0  0  0  0  0  0  0  0  0
   -1.8111   -0.2482    0.6457 H   0  0  0  0  0  0  0  0  0  0  0  0
  1  2  2  3
  1  4  1  0
  1  5  1  0
  2  3  1  0
  3  6  1  0
  3  7  1  0
  3  8  1  0
M  RAD  1   2   2
M  END
>  <reaction>  (2) 
rxn_1495

>  <mol_properties>  (2) 
{"1": {"label": "acceptor", "atom_type": "Cd"}}

>  <type>  (2) 
r2

$$$$

     RDKit          3D

  9  8  0  0  0  0  0  0  0  0999 V2000
    1.1303   -0.2933   -0.7510 C   0  0  0  0  0  0  0  0  0  0  0  0
    0.2866    0.4560   -0.0588 C   0  0  0  0  0  0  0  0  0  0  0  0
   -0.9719   -0.0331    0.5823 C   0  0  0  0  0  0  0  0  0  0  0  0
    2.0274    0.1230   -1.1916 H   0  0  0  0  0  0  0  0  0  0  0  0
    0.9532   -1.3530   -0.9023 H   0  0  0  0  0  0  0  0  0  0  0  0
    0.5065    1.5132    0.0659 H   0  0  0  0  0  0  0  0  0  0  0  0
   -0.9526    0.1426    1.6610 H   0  0  0  0  0  0  0  0  0  0  0  0
   -1.1182   -1.1002    0.4106 H   0  0  0  0  0  0  0  0  0  0  0  0
   -1.8412    0.5010    0.1901 H   0  0  0  0  0  0  0  0  0  0  0  0
  1  2  2  3
  1  4  1  0
  1  5  1  0
  2  3  1  0
  2  6  1  0
  3  7  1  0
  3  8  1  0
  3  9  1  0
M  END
>  <reaction>  (3) 
rxn_1495

>  <mol_properties>  (3) 
{"1": {"label": "acceptor", "atom_type": "Cd"}, "6": {"label": "a_hydrogen", "atom_type": "H0"}}

>  <type>  (3) 
r2h

$$$$

     RDKit          3D

 26 25  0  0  0  0  0  0  0  0999 V2000
    1.6989    1.2967   -1.1490 C   0  0  0  0  0  0  0  0  0  0  0  0
    0.4628   -0.7483    2.3851 C   0  0  0  0  0  0  0  0  0  0  0  0
   -0.9342   -0.5118    0.2349 C   0  0  0  0  0  0  0  0  0  0  0  0
    0.2576   -1.0664    0.9219 C   0  0  0  0  0  0  0  0  0  0  0  0
    2.2807    0.1815   -0.3740 C   0  0  0  0  0  3  0  0  0  0  0  0
   -1.6419    0.5840    0.7282 C   0  0  0  0  0  0  0  0  0  0  0  0
   -1.3314   -1.0470   -0.9934 C   0  0  0  0  0  0  0  0  0  0  0  0
   -2.7046    1.1247    0.0198 C   0  0  0  0  0  0  0  0  0  0  0  0
   -3.0826    0.5847   -1.1991 C   0  0  0  0  0  0  0  0  0  0  0  0
   -2.3897   -0.5082   -1.7025 C   0  0  0  0  0  0  0  0  0  0  0  0
    3.5062   -0.2544   -0.2015 C   0  0  0  0  0  0  0  0  0  0  0  0
    2.4732    1.8511   -1.6895 H   0  0  0  0  0  0  0  0  0  0  0  0
    0.9655    0.9260   -1.8688 H   0  0  0  0  0  0  0  0  0  0  0  0
    1.1694    1.9898   -0.4912 H   0  0  0  0  0  0  0  0  0  0  0  0
    1.3575   -1.2464    2.7594 H   0  0  0  0  0  0  0  0  0  0  0  0
    0.5965    0.3229    2.5489 H   0  0  0  0  0  0  0  0  0  0  0  0
   -0.3865   -1.0761    2.9911 H   0  0  0  0  0  0  0  0  0  0  0  0
    1.2278   -0.5529    0.3264 H   0  0  0  0  0  0  0  0  0  0  0  0
    0.3839   -2.1275    0.7039 H   0  0  0  0  0  0  0  0  0  0  0  0
   -1.3656    1.0209    1.6794 H   0  0  0  0  0  0  0  0  0  0  0  0
   -3.2412    1.9737    0.4253 H   0  0  0  0  0  0  0  0  0  0  0  0
   -3.9124    1.0074   -1.7510 H   0  0  0  0  0  0  0  0  0  0  0  0
   -2.6783   -0.9431   -2.6515 H   0  0  0  0  0  0  0  0  0  0  0  0
   -0.7932   -1.8986   -1.3949 H   0  0  0  0  0  0  0  0  0  0  0  0
    4.3559    0.2304   -0.6820 H   0  0  0  0  0  0  0  0  0  0  0  0
    3.7257   -1.1132    0.4238 H   0  0  0  0  0  0  0  0  0  0  0  0
  1  5  1  0
  1 12  1  0
  1 13  1  0
  1 14  1  0
  2  4  1  0
  2 15  1  0
  2 16  1  0
  2 17  1  0
  3  4  1  0
  3  6  2  0
  3  7  1  0
  4 18  1  0
  4 19  1  0
  5 11  2  3
  6  8  1  0
  6 20  1  0
  7 10  2  0
  7 24  1  0
  8  9  2  0
  8 21  1  0
  9 10  1  0
  9 22  1  0
 10 23  1  0
 11 25  1  0
 11 26  1  0
M  RAD  1   5   2
M  END
>  <reaction>  (4) 
rxn_1495

>  <mol_properties>  (4) 
{"0": {"label": "*4", "atom_type": "Cs"}, "2": {"label": "*0", "atom_type": "Cd"}, "3": {"label": "*1", "atom_type": "Cs"}, "4": {"label": "*3", "atom_type": "Cd"}, "17": {"label": "*2", "atom_type": "H0"}}

>  <type>  (4) 
ts

$$$$
