
     RDKit          3D

  7  6  0  0  0  0  0  0  0  0999 V2000
   -0.6782    0.0507    0.0301 C   0  0  0  0  0  0  0  0  0  0  0  0
    0.8092    0.0996    0.0213 C   0  0  0  0  0  0  0  0  0  0  0  0
    1.7473    0.7521    1.1507 S   0  0  0  0  0  0  0  0  0  0  0  0
   -1.0667    0.5456   -0.8653 H   0  0  0  0  0  0  0  0  0  0  0  0
   -1.0112   -0.9904   -0.0239 H   0  0  0  0  0  0  0  0  0  0  0  0
   -1.0920    0.5225    0.9188 H   0  0  0  0  0  0  0  0  0  0  0  0
    1.2740   -0.3620   -0.8520 H   0  0  0  0  0  0  0  0  0  0  0  0
  1  2  1  0
  1  4  1  0
  1  5  1  0
  1  6  1  0
  2  3  2  0
  2  7  1  0
M  END
>  <reaction>  (1) 
rxn_1992

>  <mol_properties>  (1) 
{"0": {"label": "donator", "atom_type": "Cs"}, "3": {"label": "d_hydrogen", "atom_type": "H0"}}

>  <type>  (1) 
r1h

$$$$

     RDKit          3D

  7  6  0  0  0  0  0  0  0  0999 V2000
   -0.6904   -0.9066   -0.0346 C   0  0  0  0  0  0  0  0  0  0  0  0
    0.1413    0.0254   -0.6161 C   0  0  0  0  0  0  0  0  0  0  0  0
    0.4603    0.1105   -1.9267 C   0  0  0  0  0  3  0  0  0  0  0  0
    0.8318    0.2180   -3.4201 S   0  0  0  0  0  0  0  0  0  0  0  0
   -0.8731   -0.8770    1.0287 H   0  0  0  0  0  0  0  0  0  0  0  0
   -1.1718   -1.6767   -0.6199 H   0  0  0  0  0  0  0  0  0  0  0  0
    0.6090    0.7866    0.0044 H   0  0  0  0  0  0  0  0  0  0  0  0
  1  2  2  3
  1  5  1  0
  1  6  1  0
  2  3  1  0
  2  7  1  0
  3  4  2  0
M  RAD  1   3   2
M  END
>  <reaction>  (2) 
rxn_1992

>  <mol_properties>  (2) 
{"2": {"label": "acceptor", "atom_type": "CS"}}

>  <type>  (2) 
r2

$$$$

     RDKit          3D

  8  7  0  0  0  0  0  0  0  0999 V2000
   -1.1617    0.0338    0.5053 C   0  0  0  0  0  0  0  0  0  0  0  0
   -0.1023    0.4503   -0.1863 C   0  0  0  0  0  0  0  0  0  0  0  0
    1.0978   -0.3557   -0.3104 C   0  0  0  0  0  0  0  0  0  0  0  0
    2.4251    0.0667   -1.1256 S   0  0  0  0  0  0  0  0  0  0  0  0
   -1.1653   -0.9292    1.0039 H   0  0  0  0  0  0  0  0  0  0  0  0
   -2.0546    0.6389    0.5948 H   0  0  0  0  0  0  0  0  0  0  0  0
   -0.0991    1.4132   -0.6847 H   0  0  0  0  0  0  0  0  0  0  0  0
    1.0601   -1.3180    0.2032 H   0  0  0  0  0  0  0  0  0  0  0  0
  1  2  2  3
  1  5  1  0
  1  6  1  0
  2  3  1  0
  2  7  1  0
  3  4  2  0
  3  8  1  0
M  END
>  <reaction>  (3) 
rxn_1992

>  <mol_properties>  (3) 
{"2": {"label": "acceptor", "atom_type": "CS"}, "7": {"label": "a_hydrogen", "atom_type": "H0"}}

>  <type>  (3) 
r2h

$$$$

     RDKit          3D

 14 12  0  0  0  0  0  0  0  0999 V2000
   -1.8012   -1.2573   -0.1045 C   0  0  0  0  0  0  0  0  0  0  0  0
   -1.6856   -0.7103    1.1063 C   0  0  0  0  0  0  0  0  0  0  0  0
   -0.5374    0.0637    1.5044 C   0  0  0  0  0  3  0  0  0  0  0  0
   -0.1107    0.7294    2.8720 S   0  0  0  0  0  0  0  0  0  0  0  0
   -2.6750   -1.8425   -0.3620 H   0  0  0  0  0  0  0  0  0  0  0  0
   -1.0324   -1.1572   -0.8628 H   0  0  0  0  0  0  0  0  0  0  0  0
   -2.4649   -0.8431    1.8515 H   0  0  0  0  0  0  0  0  0  0  0  0
    1.1787    0.5245   -0.5482 C   0  0  0  0  0  0  0  0  0  0  0  0
    1.9087   -0.6664   -0.8751 C   0  0  0  0  0  0  0  0  0  0  0  0
    1.4896   -1.7590   -2.0138 S   0  0  0  0  0  0  0  0  0  0  0  0
    0.3683    0.2212    0.4317 H   0  0  0  0  0  0  0  0  0  0  0  0
    1.7432    1.3100   -0.0484 H   0  0  0  0  0  0  0  0  0  0  0  0
    0.4915    0.8821   -1.3107 H   0  0  0  0  0  0  0  0  0  0  0  0
    2.7896   -0.8630   -0.2638 H   0  0  0  0  0  0  0  0  0  0  0  0
  1  2  2  3
  1  5  1  0
  1  6  1  0
  2  3  1  0
  2  7  1  0
  3  4  2  0
  8  9  1  0
  8 11  1  0
  8 12  1  0
  8 13  1  0
  9 10  2  0
  9 14  1  0
M  RAD  1   3   2
M  END
>  <reaction>  (4) 
rxn_1992

>  <mol_properties>  (4) 
{"2": {"label": "*3", "atom_type": "CS"}, "3": {"label": "*4", "atom_type": "S2d"}, "7": {"label": "*1", "atom_type": "Cs"}, "8": {"label": "*0", "atom_type": "CS"}, "10": {"label": "*2", "atom_type": "H0"}}

>  <type>  (4) 
ts

$$$$
