
     RDKit          3D

 10  9  0  0  0  0  0  0  0  0999 V2000
    1.8334    0.0847   -0.1062 C   0  0  0  0  0  0  0  0  0  0  0  0
    0.5993   -0.4071   -0.0750 C   0  0  0  0  0  0  0  0  0  0  0  0
   -0.5993    0.4071    0.0750 C   0  0  0  0  0  0  0  0  0  0  0  0
   -1.8334   -0.0847    0.1062 C   0  0  0  0  0  0  0  0  0  0  0  0
    2.0179    1.1498   -0.0189 H   0  0  0  0  0  0  0  0  0  0  0  0
    2.6972   -0.5572   -0.2194 H   0  0  0  0  0  0  0  0  0  0  0  0
    0.4465   -1.4793   -0.1649 H   0  0  0  0  0  0  0  0  0  0  0  0
   -0.4465    1.4793    0.1649 H   0  0  0  0  0  0  0  0  0  0  0  0
   -2.0179   -1.1498    0.0189 H   0  0  0  0  0  0  0  0  0  0  0  0
   -2.6972    0.5572    0.2194 H   0  0  0  0  0  0  0  0  0  0  0  0
  1  2  2  3
  1  5  1  0
  1  6  1  0
  2  3  1  0
  2  7  1  0
  3  4  2  3
  3  8  1  0
  4  9  1  0
  4 10  1  0
M  END
>  <reaction>  (1) 
rxn_1663

>  <mol_properties>  (1) 
{"2": {"label": "donator", "atom_type": "Cd"}, "7": {"label": "d_hydrogen", "atom_type": "H0"}}

>  <type>  (1) 
r1h

$$$$

     RDKit          3D

 20 20  0  0  0  0  0  0  0  0999 V2000
   -2.4774    0.8083    0.1488 C   0  0  0  0  0  0  0  0  0  0  0  0
   -1.4172   -0.1696   -0.2476 C   0  0  0  0  0  3  0  0  0  0  0  0
   -0.2904    0.2932   -1.1156 C   0  0  0  0  0  0  0  0  0  0  0  0
   -1.4797   -1.5204    0.1947 C   0  0  0  0  0  0  0  0  0  0  0  0
   -0.4907   -2.4664   -0.1650 C   0  0  0  0  0  0  0  0  0  0  0  0
   -0.5559   -3.7750    0.2665 C   0  0  0  0  0  0  0  0  0  0  0  0
   -1.6038   -4.2041    1.0733 C   0  0  0  0  0  0  0  0  0  0  0  0
   -2.5899   -3.2959    1.4424 C   0  0  0  0  0  0  0  0  0  0  0  0
   -2.5339   -1.9852    1.0162 C   0  0  0  0  0  0  0  0  0  0  0  0
   -3.4697    0.4933   -0.1924 H   0  0  0  0  0  0  0  0  0  0  0  0
   -2.5434    0.9184    1.2368 H   0  0  0  0  0  0  0  0  0  0  0  0
   -2.2829    1.7944   -0.2706 H   0  0  0  0  0  0  0  0  0  0  0  0
   -0.2452   -0.2661   -2.0565 H   0  0  0  0  0  0  0  0  0  0  0  0
   -0.3905    1.3487   -1.3647 H   0  0  0  0  0  0  0  0  0  0  0  0
    0.6811    0.1589   -0.6274 H   0  0  0  0  0  0  0  0  0  0  0  0
    0.3373   -2.1635   -0.7918 H   0  0  0  0  0  0  0  0  0  0  0  0
    0.2187   -4.4725   -0.0281 H   0  0  0  0  0  0  0  0  0  0  0  0
   -1.6513   -5.2316    1.4097 H   0  0  0  0  0  0  0  0  0  0  0  0
   -3.4116   -3.6175    2.0706 H   0  0  0  0  0  0  0  0  0  0  0  0
   -3.3164   -1.3029    1.3205 H   0  0  0  0  0  0  0  0  0  0  0  0
  1  2  1  0
  1 10  1  0
  1 11  1  0
  1 12  1  0
  2  3  1  0
  2  4  1  0
  3 13  1  0
  3 14  1  0
  3 15  1  0
  4  5  2  0
  4  9  1  0
  5  6  1  0
  5 16  1  0
  6  7  2  0
  6 17  1  0
  7  8  1  0
  7 18  1  0
  8  9  2  0
  8 19  1  0
  9 20  1  0
M  RAD  1   2   2
M  END
>  <reaction>  (2) 
rxn_1663

>  <mol_properties>  (2) 
{"1": {"label": "acceptor", "atom_type": "Cs"}}

>  <type>  (2) 
r2

$$$$

     RDKit          3D

 21 21  0  0  0  0  0  0  0  0999 V2000
   -1.3695    1.3367   -1.0719 C   0  0  0  0  0  0  0  0  0  0  0  0
   -1.4091   -0.0981   -0.5428 C   0  0  0  0  0  0  0  0  0  0  0  0
   -0.1819   -0.3999    0.3191 C   0  0  0  0  0  0  0  0  0  0  0  0
   -1.5636   -1.1028   -1.6652 C   0  0  0  0  0  0  0  0  0  0  0  0
   -0.5920   -1.2314   -2.6553 C   0  0  0  0  0  0  0  0  0  0  0  0
   -0.7353   -2.1509   -3.6809 C   0  0  0  0  0  0  0  0  0  0  0  0
   -1.8582   -2.9642   -3.7377 C   0  0  0  0  0  0  0  0  0  0  0  0
   -2.8325   -2.8475   -2.7602 C   0  0  0  0  0  0  0  0  0  0  0  0
   -2.6828   -1.9241   -1.7351 C   0  0  0  0  0  0  0  0  0  0  0  0
   -0.4920    1.4974   -1.7025 H   0  0  0  0  0  0  0  0  0  0  0  0
   -2.2553    1.5607   -1.6679 H   0  0  0  0  0  0  0  0  0  0  0  0
   -1.3211    2.0496   -0.2461 H   0  0  0  0  0  0  0  0  0  0  0  0
   -2.2930   -0.1918    0.0948 H   0  0  0  0  0  0  0  0  0  0  0  0
   -0.1215    0.2955    1.1588 H   0  0  0  0  0  0  0  0  0  0  0  0
   -0.2200   -1.4155    0.7159 H   0  0  0  0  0  0  0  0  0  0  0  0
    0.7383   -0.3016   -0.2615 H   0  0  0  0  0  0  0  0  0  0  0  0
    0.2915   -0.6040   -2.6263 H   0  0  0  0  0  0  0  0  0  0  0  0
    0.0326   -2.2338   -4.4401 H   0  0  0  0  0  0  0  0  0  0  0  0
   -1.9712   -3.6833   -4.5391 H   0  0  0  0  0  0  0  0  0  0  0  0
   -3.7135   -3.4765   -2.7932 H   0  0  0  0  0  0  0  0  0  0  0  0
   -3.4509   -1.8400   -0.9743 H   0  0  0  0  0  0  0  0  0  0  0  0
  1  2  1  0
  1 10  1  0
  1 11  1  0
  1 12  1  0
  2  3  1  0
  2  4  1  0
  2 13  1  0
  3 14  1  0
  3 15  1  0
  3 16  1  0
  4  5  2  0
  4  9  1  0
  5  6  1  0
  5 17  1  0
  6  7  2  0
  6 18  1  0
  7  8  1  0
  7 19  1  0
  8  9  2  0
  8 20  1  0
  9 21  1  0
M  END
>  <reaction>  (3) 
rxn_1663

>  <mol_properties>  (3) 
{"0": {"label": "a_hydrogen", "atom_type": "H0"}, "2": {"label": "acceptor", "atom_type": "Cs"}}

>  <type>  (3) 
r2h

$$$$

     RDKit          3D

 30 29  0  0  0  0  0  0  0  0999 V2000
   -0.3066   -2.5238   -1.2739 C   0  0  0  0  0  0  0  0  0  0  0  0
   -0.5580   -2.9977   -0.0571 C   0  0  0  0  0  0  0  0  0  0  0  0
   -0.7550   -2.1834    1.1198 C   0  0  0  0  0  3  0  0  0  0  0  0
   -0.8689   -2.5206    2.3890 C   0  0  0  0  0  0  0  0  0  0  0  0
   -0.2216   -1.4603   -1.4632 H   0  0  0  0  0  0  0  0  0  0  0  0
   -0.1647   -3.1913   -2.1138 H   0  0  0  0  0  0  0  0  0  0  0  0
   -0.6252   -4.0757    0.0937 H   0  0  0  0  0  0  0  0  0  0  0  0
   -0.8909   -0.7370    0.8504 H   0  0  0  0  0  0  0  0  0  0  0  0
   -0.8057   -3.5602    2.7088 H   0  0  0  0  0  0  0  0  0  0  0  0
   -1.0248   -1.7812    3.1664 H   0  0  0  0  0  0  0  0  0  0  0  0
   -2.4253    0.5848    0.0375 C   0  0  0  0  0  0  0  0  0  0  0  0
   -1.0621    0.4792    0.6874 C   0  0  0  0  0  0  0  0  0  0  0  0
   -1.0432    1.0540    2.0939 C   0  0  0  0  0  0  0  0  0  0  0  0
    0.1044    0.9051   -0.1516 C   0  0  0  0  0  0  0  0  0  0  0  0
   -0.0452    1.6050   -1.3462 C   0  0  0  0  0  0  0  0  0  0  0  0
    1.0589    1.9636   -2.1077 C   0  0  0  0  0  0  0  0  0  0  0  0
    2.3349    1.6217   -1.6939 C   0  0  0  0  0  0  0  0  0  0  0  0
    2.4996    0.9155   -0.5098 C   0  0  0  0  0  0  0  0  0  0  0  0
    1.3982    0.5642    0.2489 C   0  0  0  0  0  0  0  0  0  0  0  0
   -2.4466    0.0942   -0.9370 H   0  0  0  0  0  0  0  0  0  0  0  0
   -3.1755    0.1067    0.6692 H   0  0  0  0  0  0  0  0  0  0  0  0
   -2.7258    1.6286   -0.0985 H   0  0  0  0  0  0  0  0  0  0  0  0
   -1.1958    2.1374    2.0649 H   0  0  0  0  0  0  0  0  0  0  0  0
   -1.8421    0.6189    2.6980 H   0  0  0  0  0  0  0  0  0  0  0  0
   -0.0937    0.8667    2.5965 H   0  0  0  0  0  0  0  0  0  0  0  0
   -1.0330    1.8807   -1.6917 H   0  0  0  0  0  0  0  0  0  0  0  0
    0.9165    2.5125   -3.0304 H   0  0  0  0  0  0  0  0  0  0  0  0
    3.1955    1.8971   -2.2900 H   0  0  0  0  0  0  0  0  0  0  0  0
    3.4914    0.6312   -0.1809 H   0  0  0  0  0  0  0  0  0  0  0  0
    1.5370   -0.0086    1.1587 H   0  0  0  0  0  0  0  0  0  0  0  0
  1  2  2  3
  1  5  1  0
  1  6  1  0
  2  3  1  0
  2  7  1  0
  3  4  2  3
  4  9  1  0
  4 10  1  0
  8 12  1  0
 11 12  1  0
 11 20  1  0
 11 21  1  0
 11 22  1  0
 12 13  1  0
 12 14  1  0
 13 23  1  0
 13 24  1  0
 13 25  1  0
 14 15  2  0
 14 19  1  0
 15 16  1  0
 15 26  1  0
 16 17  2  0
 16 27  1  0
 17 18  1  0
 17 28  1  0
 18 19  2  0
 18 29  1  0
 19 30  1  0
M  RAD  1   3   2
M  END
>  <reaction>  (4) 
rxn_1663

>  <mol_properties>  (4) 
{"1": {"label": "*4", "atom_type": "Cd"}, "2": {"label": "*3", "atom_type": "Cd"}, "7": {"label": "*2", "atom_type": "H0"}, "11": {"label": "*1", "atom_type": "Cs"}, "13": {"label": "*0", "atom_type": "Cd"}}

>  <type>  (4) 
ts

$$$$
