
     RDKit          3D

 13 12  0  0  0  0  0  0  0  0999 V2000
    2.2975   -0.6134    0.7685 C   0  0  0  0  0  0  0  0  0  0  0  0
    1.1676   -0.5248    0.3802 C   0  0  0  0  0  0  0  0  0  0  0  0
   -0.2109   -0.3926   -0.0948 C   0  0  0  0  0  0  0  0  0  0  0  0
   -0.2501    0.2584   -1.4808 C   0  0  0  0  0  0  0  0  0  0  0  0
   -1.0633    0.3831    0.9141 C   0  0  0  0  0  0  0  0  0  0  0  0
    3.2999   -0.6974    1.1133 H   0  0  0  0  0  0  0  0  0  0  0  0
   -0.6209   -1.4038   -0.1814 H   0  0  0  0  0  0  0  0  0  0  0  0
    0.3402   -0.3102   -2.1992 H   0  0  0  0  0  0  0  0  0  0  0  0
    0.1511    1.2724   -1.4369 H   0  0  0  0  0  0  0  0  0  0  0  0
   -1.2791    0.3109   -1.8407 H   0  0  0  0  0  0  0  0  0  0  0  0
   -0.6861    1.4008    1.0287 H   0  0  0  0  0  0  0  0  0  0  0  0
   -1.0492   -0.0971    1.8924 H   0  0  0  0  0  0  0  0  0  0  0  0
   -2.0971    0.4363    0.5680 H   0  0  0  0  0  0  0  0  0  0  0  0
  1  2  3  0
  1  6  1  0
  2  3  1  0
  3  4  1  0
  3  5  1  0
  3  7  1  0
  4  8  1  0
  4  9  1  0
  4 10  1  0
  5 11  1  0
  5 12  1  0
  5 13  1  0
M  END
>  <reaction>  (1) 
rxn_1316

>  <mol_properties>  (1) 
{"2": {"label": "donator", "atom_type": "Cs"}, "5": {"label": "d_hydrogen", "atom_type": "H0"}}

>  <type>  (1) 
r1h

$$$$

     RDKit          3D

 17 17  0  0  0  0  0  0  0  0999 V2000
    2.7069    0.2860   -0.1817 C   0  0  0  0  0  0  0  0  0  0  0  0
    1.6304   -0.7245    0.0085 C   0  0  0  0  0  0  0  0  0  0  0  0
    1.4786   -1.8800   -0.7837 C   0  0  0  0  0  0  0  0  0  0  0  0
    0.4231   -2.7891   -0.5312 C   0  0  0  0  0  3  0  0  0  0  0  0
    0.2582   -3.9235   -1.2940 C   0  0  0  0  0  0  0  0  0  0  0  0
    1.1348   -4.2030   -2.3401 C   0  0  0  0  0  0  0  0  0  0  0  0
    2.1804   -3.3260   -2.6093 C   0  0  0  0  0  0  0  0  0  0  0  0
    2.3549   -2.1866   -1.8513 C   0  0  0  0  0  0  0  0  0  0  0  0
    2.6698    0.7343   -1.1808 H   0  0  0  0  0  0  0  0  0  0  0  0
    3.7029   -0.1584   -0.0766 H   0  0  0  0  0  0  0  0  0  0  0  0
    2.6250    1.0917    0.5463 H   0  0  0  0  0  0  0  0  0  0  0  0
    0.9136   -0.5677    0.8059 H   0  0  0  0  0  0  0  0  0  0  0  0
   -0.2629   -2.5783    0.2811 H   0  0  0  0  0  0  0  0  0  0  0  0
   -0.5582   -4.6017   -1.0785 H   0  0  0  0  0  0  0  0  0  0  0  0
    1.0033   -5.0952   -2.9384 H   0  0  0  0  0  0  0  0  0  0  0  0
    2.8650   -3.5382   -3.4214 H   0  0  0  0  0  0  0  0  0  0  0  0
    3.1750   -1.5169   -2.0772 H   0  0  0  0  0  0  0  0  0  0  0  0
  1  2  1  0
  1  9  1  0
  1 10  1  0
  1 11  1  0
  2  3  2  3
  2 12  1  0
  3  4  1  0
  3  8  1  0
  4  5  1  0
  4 13  1  0
  5  6  2  0
  5 14  1  0
  6  7  1  0
  6 15  1  0
  7  8  2  0
  7 16  1  0
  8 17  1  0
M  RAD  1   4   2
M  END
>  <reaction>  (2) 
rxn_1316

>  <mol_properties>  (2) 
{"0": {"label": "acceptor", "atom_type": "Cs"}}

>  <type>  (2) 
r2

$$$$

     RDKit          3D

 18 18  0  0  0  0  0  0  0  0999 V2000
   -2.4852    0.3210   -0.3966 C   0  0  0  0  0  0  0  0  0  0  0  0
   -1.5917   -0.2708    0.6941 C   0  0  0  0  0  0  0  0  0  0  0  0
   -0.1292   -0.1692    0.3493 C   0  0  0  0  0  0  0  0  0  0  0  0
    0.6099    0.9558    0.7015 C   0  0  0  0  0  0  0  0  0  0  0  0
    1.9447    1.0728    0.3458 C   0  0  0  0  0  0  0  0  0  0  0  0
    2.5646    0.0613   -0.3720 C   0  0  0  0  0  0  0  0  0  0  0  0
    1.8399   -1.0657   -0.7287 C   0  0  0  0  0  0  0  0  0  0  0  0
    0.5055   -1.1769   -0.3700 C   0  0  0  0  0  0  0  0  0  0  0  0
   -2.3325   -0.1971   -1.3452 H   0  0  0  0  0  0  0  0  0  0  0  0
   -2.2554    1.3763   -0.5546 H   0  0  0  0  0  0  0  0  0  0  0  0
   -3.5397    0.2376   -0.1280 H   0  0  0  0  0  0  0  0  0  0  0  0
   -1.7801    0.2462    1.6380 H   0  0  0  0  0  0  0  0  0  0  0  0
   -1.8568   -1.3190    0.8516 H   0  0  0  0  0  0  0  0  0  0  0  0
    0.1327    1.7497    1.2656 H   0  0  0  0  0  0  0  0  0  0  0  0
    2.5033    1.9550    0.6330 H   0  0  0  0  0  0  0  0  0  0  0  0
    3.6077    0.1491   -0.6484 H   0  0  0  0  0  0  0  0  0  0  0  0
    2.3163   -1.8632   -1.2854 H   0  0  0  0  0  0  0  0  0  0  0  0
   -0.0540   -2.0629   -0.6500 H   0  0  0  0  0  0  0  0  0  0  0  0
  1  2  1  0
  1  9  1  0
  1 10  1  0
  1 11  1  0
  2  3  1  0
  2 12  1  0
  2 13  1  0
  3  4  2  0
  3  8  1  0
  4  5  1  0
  4 14  1  0
  5  6  2  0
  5 15  1  0
  6  7  1  0
  6 16  1  0
  7  8  2  0
  7 17  1  0
  8 18  1  0
M  END
>  <reaction>  (3) 
rxn_1316

>  <mol_properties>  (3) 
{"0": {"label": "acceptor", "atom_type": "Cs"}, "9": {"label": "a_hydrogen", "atom_type": "H0"}}

>  <type>  (3) 
r2h

$$$$

     RDKit          3D

 30 29  0  0  0  0  0  0  0  0999 V2000
    0.2490   -0.1161   -1.3585 C   0  0  0  0  0  0  0  0  0  0  0  0
   -0.0286   -1.4512   -1.9970 C   0  0  0  0  0  0  0  0  0  0  0  0
   -1.5783   -0.6332    1.3611 C   0  0  0  0  0  0  0  0  0  0  0  0
   -1.8891    1.7371    0.4688 C   0  0  0  0  0  0  0  0  0  0  0  0
    1.3591    0.0329   -0.4111 C   0  0  0  0  0  0  0  0  0  0  0  0
   -1.9247    0.2506    0.1813 C   0  0  0  0  0  0  0  0  0  0  0  0
    1.9443   -1.0596    0.2367 C   0  0  0  0  0  3  0  0  0  0  0  0
    1.8228    1.3122   -0.0793 C   0  0  0  0  0  0  0  0  0  0  0  0
    2.9441   -0.8785    1.1781 C   0  0  0  0  0  0  0  0  0  0  0  0
    3.3853    0.3964    1.4994 C   0  0  0  0  0  0  0  0  0  0  0  0
    2.8193    1.4929    0.8616 C   0  0  0  0  0  0  0  0  0  0  0  0
   -3.0303   -0.1915   -0.6093 C   0  0  0  0  0  0  0  0  0  0  0  0
   -3.9293   -0.5732   -1.3123 C   0  0  0  0  0  0  0  0  0  0  0  0
    0.1625    0.7252   -2.0451 H   0  0  0  0  0  0  0  0  0  0  0  0
   -0.8602    0.0881   -0.6210 H   0  0  0  0  0  0  0  0  0  0  0  0
    0.8189   -1.7920   -2.5997 H   0  0  0  0  0  0  0  0  0  0  0  0
   -0.2346   -2.2213   -1.2506 H   0  0  0  0  0  0  0  0  0  0  0  0
   -0.9037   -1.3863   -2.6431 H   0  0  0  0  0  0  0  0  0  0  0  0
   -2.3245   -0.5312    2.1548 H   0  0  0  0  0  0  0  0  0  0  0  0
   -1.5387   -1.6831    1.0695 H   0  0  0  0  0  0  0  0  0  0  0  0
   -0.6061   -0.3498    1.7688 H   0  0  0  0  0  0  0  0  0  0  0  0
   -2.6701    2.0142    1.1831 H   0  0  0  0  0  0  0  0  0  0  0  0
   -0.9239    2.0094    0.9007 H   0  0  0  0  0  0  0  0  0  0  0  0
   -2.0425    2.3187   -0.4406 H   0  0  0  0  0  0  0  0  0  0  0  0
    1.6156   -2.0637    0.0016 H   0  0  0  0  0  0  0  0  0  0  0  0
    3.3832   -1.7410    1.6642 H   0  0  0  0  0  0  0  0  0  0  0  0
    1.3872    2.1733   -0.5739 H   0  0  0  0  0  0  0  0  0  0  0  0
    4.1666    0.5354    2.2354 H   0  0  0  0  0  0  0  0  0  0  0  0
    3.1604    2.4932    1.0980 H   0  0  0  0  0  0  0  0  0  0  0  0
   -4.7337   -0.9080   -1.9214 H   0  0  0  0  0  0  0  0  0  0  0  0
  1  2  1  0
  1  5  2  3
  1 14  1  0
  2 16  1  0
  2 17  1  0
  2 18  1  0
  3  6  1  0
  3 19  1  0
  3 20  1  0
  3 21  1  0
  4  6  1  0
  4 22  1  0
  4 23  1  0
  4 24  1  0
  5  7  1  0
  5  8  1  0
  6 12  1  0
  6 15  1  0
  7  9  1  0
  7 25  1  0
  8 11  2  0
  8 27  1  0
  9 10  2  0
  9 26  1  0
 10 11  1  0
 10 28  1  0
 11 29  1  0
 12 13  3  0
 13 30  1  0
M  RAD  1   7   2
M  END
>  <reaction>  (4) 
rxn_1316

>  <mol_properties>  (4) 
{"0": {"label": "*3", "atom_type": "Cd"}, "4": {"label": "*4", "atom_type": "Cd"}, "5": {"label": "*1", "atom_type": "Cs"}, "11": {"label": "*0", "atom_type": "Ct"}, "14": {"label": "*2", "atom_type": "H0"}}

>  <type>  (4) 
ts

$$$$
