
     RDKit          3D

 12 11  0  0  0  0  0  0  0  0999 V2000
    2.1696    0.6854    1.1310 C   0  0  0  0  0  0  0  0  0  0  0  0
    1.2518    0.4145    0.4134 C   0  0  0  0  0  0  0  0  0  0  0  0
    0.1391    0.0443   -0.4683 C   0  0  0  0  0  0  0  0  0  0  0  0
   -0.2054   -1.4492   -0.3339 C   0  0  0  0  0  0  0  0  0  0  0  0
   -1.0375    0.8853   -0.2222 C   0  0  0  0  0  0  0  0  0  0  0  0
   -2.0160    1.5463   -0.0311 C   0  0  0  0  0  0  0  0  0  0  0  0
    2.9819    0.9356    1.7702 H   0  0  0  0  0  0  0  0  0  0  0  0
    0.4629    0.2285   -1.4981 H   0  0  0  0  0  0  0  0  0  0  0  0
   -0.5327   -1.6703    0.6812 H   0  0  0  0  0  0  0  0  0  0  0  0
    0.6727   -2.0535   -0.5593 H   0  0  0  0  0  0  0  0  0  0  0  0
   -1.0064   -1.7081   -1.0256 H   0  0  0  0  0  0  0  0  0  0  0  0
   -2.8802    2.1413    0.1426 H   0  0  0  0  0  0  0  0  0  0  0  0
  1  2  3  0
  1  7  1  0
  2  3  1  0
  3  4  1  0
  3  5  1  0
  3  8  1  0
  4  9  1  0
  4 10  1  0
  4 11  1  0
  5  6  3  0
  6 12  1  0
M  END
>  <reaction>  (1) 
rxn_1410

>  <mol_properties>  (1) 
{"2": {"label": "donator", "atom_type": "Cs"}, "7": {"label": "d_hydrogen", "atom_type": "H0"}}

>  <type>  (1) 
r1h

$$$$

     RDKit          3D

  7  6  0  0  0  0  0  0  0  0999 V2000
    1.3002    0.7433    2.1279 C   0  0  0  0  0  0  0  0  0  0  0  0
    0.5758    0.3292    1.2319 C   0  0  0  0  0  0  0  0  0  0  0  0
   -0.2057   -0.1176    0.2652 C   0  0  0  0  0  3  0  0  0  0  0  0
   -0.9747   -0.5572   -0.6858 C   0  0  0  0  0  0  0  0  0  0  0  0
    1.9293    1.1030    2.9060 H   0  0  0  0  0  0  0  0  0  0  0  0
   -1.9977   -0.8727   -0.4932 H   0  0  0  0  0  0  0  0  0  0  0  0
   -0.6274   -0.6280   -1.7143 H   0  0  0  0  0  0  0  0  0  0  0  0
  1  2  3  0
  1  5  1  0
  2  3  1  0
  3  4  2  3
  4  6  1  0
  4  7  1  0
M  RAD  1   3   2
M  END
>  <reaction>  (2) 
rxn_1410

>  <mol_properties>  (2) 
{"2": {"label": "acceptor", "atom_type": "Cd"}}

>  <type>  (2) 
r2

$$$$

     RDKit          3D

  8  7  0  0  0  0  0  0  0  0999 V2000
    1.9029    0.9046   -0.2050 C   0  0  0  0  0  0  0  0  0  0  0  0
    0.8517    0.4283    0.1217 C   0  0  0  0  0  0  0  0  0  0  0  0
   -0.3908   -0.1311    0.5404 C   0  0  0  0  0  0  0  0  0  0  0  0
   -1.2847   -0.6576   -0.2899 C   0  0  0  0  0  0  0  0  0  0  0  0
    2.8335    1.3255   -0.5014 H   0  0  0  0  0  0  0  0  0  0  0  0
   -0.5867   -0.1096    1.6074 H   0  0  0  0  0  0  0  0  0  0  0  0
   -2.2126   -1.0686    0.0850 H   0  0  0  0  0  0  0  0  0  0  0  0
   -1.1134   -0.6914   -1.3582 H   0  0  0  0  0  0  0  0  0  0  0  0
  1  2  3  0
  1  5  1  0
  2  3  1  0
  3  4  2  3
  3  6  1  0
  4  7  1  0
  4  8  1  0
M  END
>  <reaction>  (3) 
rxn_1410

>  <mol_properties>  (3) 
{"0": {"label": "a_hydrogen", "atom_type": "H0"}, "3": {"label": "acceptor", "atom_type": "Cd"}}

>  <type>  (3) 
r2h

$$$$

     RDKit          3D

 19 17  0  0  0  0  0  0  0  0999 V2000
   -0.7635   -0.2635   -2.7677 C   0  0  0  0  0  0  0  0  0  0  0  0
   -0.9104   -0.1661   -1.5822 C   0  0  0  0  0  0  0  0  0  0  0  0
   -1.0340   -0.0081   -0.1516 C   0  0  0  0  0  0  0  0  0  0  0  0
   -1.5585    1.3569    0.2863 C   0  0  0  0  0  0  0  0  0  0  0  0
   -1.6548   -1.1288    0.5167 C   0  0  0  0  0  0  0  0  0  0  0  0
   -2.1454   -2.0466    1.1127 C   0  0  0  0  0  0  0  0  0  0  0  0
   -0.6420   -0.3589   -3.8197 H   0  0  0  0  0  0  0  0  0  0  0  0
    0.1446   -0.0042    0.2652 H   0  0  0  0  0  0  0  0  0  0  0  0
   -2.5899    1.4947   -0.0406 H   0  0  0  0  0  0  0  0  0  0  0  0
   -0.9429    2.1431   -0.1503 H   0  0  0  0  0  0  0  0  0  0  0  0
   -1.5191    1.4364    1.3723 H   0  0  0  0  0  0  0  0  0  0  0  0
   -2.5928   -2.8629    1.6269 H   0  0  0  0  0  0  0  0  0  0  0  0
    2.7116    2.1229   -0.0810 C   0  0  0  0  0  0  0  0  0  0  0  0
    2.1922    1.1415    0.3920 C   0  0  0  0  0  0  0  0  0  0  0  0
    1.4775    0.0524    0.8546 C   0  0  0  0  0  3  0  0  0  0  0  0
    1.6649   -0.9508    1.6840 C   0  0  0  0  0  0  0  0  0  0  0  0
    3.1947    2.9797   -0.4854 H   0  0  0  0  0  0  0  0  0  0  0  0
    2.6012   -1.0791    2.2201 H   0  0  0  0  0  0  0  0  0  0  0  0
    0.8829   -1.6830    1.8535 H   0  0  0  0  0  0  0  0  0  0  0  0
  1  2  3  0
  1  7  1  0
  2  3  1  0
  3  4  1  0
  3  5  1  0
  3  8  1  0
  4  9  1  0
  4 10  1  0
  4 11  1  0
  5  6  3  0
  6 12  1  0
 13 14  3  0
 13 17  1  0
 14 15  1  0
 15 16  2  3
 16 18  1  0
 16 19  1  0
M  RAD  1  15   2
M  END
>  <reaction>  (4) 
rxn_1410

>  <mol_properties>  (4) 
{"1": {"label": "*0", "atom_type": "Ct"}, "2": {"label": "*1", "atom_type": "Cs"}, "7": {"label": "*2", "atom_type": "H0"}, "13": {"label": "*4", "atom_type": "Ct"}, "14": {"label": "*3", "atom_type": "Cd"}}

>  <type>  (4) 
ts

$$$$
