
     RDKit          3D

  7  7  0  0  0  0  0  0  0  0999 V2000
   -0.2697    0.7649    0.0640 C   0  0  0  0  0  0  0  0  0  0  0  0
   -0.5205   -0.6227   -0.0575 C   0  0  0  0  0  0  0  0  0  0  0  0
    0.6182   -1.2406   -0.1024 N   0  0  0  0  0  0  0  0  0  0  0  0
    1.5618   -0.2812   -0.0128 O   0  0  0  0  0  0  0  0  0  0  0  0
    1.0136    0.9469    0.0891 N   0  0  0  0  0  0  0  0  0  0  0  0
   -0.9525    1.5949    0.1305 H   0  0  0  0  0  0  0  0  0  0  0  0
   -1.4508   -1.1622   -0.1109 H   0  0  0  0  0  0  0  0  0  0  0  0
  1  2  1  0
  1  5  2  0
  1  6  1  0
  2  3  2  0
  2  7  1  0
  3  4  1  0
  4  5  1  0
M  END
>  <reaction>  (1) 
rxn_3178

>  <mol_properties>  (1) 
{"0": {"label": "donator", "atom_type": "Cd"}, "5": {"label": "d_hydrogen", "atom_type": "H0"}}

>  <type>  (1) 
r1h

$$$$

     RDKit          3D

  6  6  0  0  0  0  0  0  0  0999 V2000
    1.9594    0.0134   -0.3734 N   0  0  0  0  0  2  0  0  0  0  0  0
    0.7437    0.0051   -0.0788 C   0  0  0  0  0  0  0  0  0  0  0  0
   -0.0745    1.0868    0.0233 O   0  0  0  0  0  0  0  0  0  0  0  0
   -1.3223    0.5972    0.3682 N   0  0  0  0  0  0  0  0  0  0  0  0
   -1.2899   -0.6150    0.4676 N   0  0  0  0  0  0  0  0  0  0  0  0
   -0.0165   -1.0874    0.2015 O   0  0  0  0  0  0  0  0  0  0  0  0
  1  2  2  0
  2  3  1  0
  2  6  1  0
  3  4  1  0
  4  5  2  0
  5  6  1  0
M  RAD  1   1   2
M  END
>  <reaction>  (2) 
rxn_3178

>  <mol_properties>  (2) 
{"0": {"label": "acceptor", "atom_type": "N3d"}}

>  <type>  (2) 
r2

$$$$

     RDKit          3D

  7  7  0  0  0  0  0  0  0  0999 V2000
    1.6064   -0.4313    0.1905 N   0  0  0  0  0  0  0  0  0  0  0  0
    0.3982   -0.1725    0.0701 C   0  0  0  0  0  0  0  0  0  0  0  0
   -0.6051   -1.0481    0.3497 O   0  0  0  0  0  0  0  0  0  0  0  0
   -1.7906   -0.4044    0.0958 N   0  0  0  0  0  0  0  0  0  0  0  0
   -1.5819    0.7348   -0.2956 N   0  0  0  0  0  0  0  0  0  0  0  0
   -0.2229    0.9708   -0.3436 O   0  0  0  0  0  0  0  0  0  0  0  0
    2.1958    0.3506   -0.0669 H   0  0  0  0  0  0  0  0  0  0  0  0
  1  2  2  3
  1  7  1  0
  2  3  1  0
  2  6  1  0
  3  4  1  0
  4  5  2  0
  5  6  1  0
M  END
>  <reaction>  (3) 
rxn_3178

>  <mol_properties>  (3) 
{"0": {"label": "acceptor", "atom_type": "N3d"}, "6": {"label": "a_hydrogen", "atom_type": "H0"}}

>  <type>  (3) 
r2h

$$$$

     RDKit          3D

 13 13  0  0  0  0  0  0  0  0999 V2000
    1.0626   -0.5018    1.0563 N   0  0  0  0  0  0  0  0  0  0  0  0
    0.2605   -1.4413    0.8552 C   0  0  0  0  0  0  0  0  0  0  0  0
    0.3792   -2.6660    1.4263 O   0  0  0  0  0  0  0  0  0  0  0  0
   -0.6770   -3.4248    0.9681 N   0  0  0  0  0  0  0  0  0  0  0  0
   -1.3704   -2.7688    0.2090 N   0  0  0  0  0  0  0  0  0  0  0  0
   -0.8497   -1.4944    0.0770 O   0  0  0  0  0  0  0  0  0  0  0  0
    0.1774    1.4663   -0.3402 C   0  0  0  0  0  0  0  0  0  0  0  0
    0.7860    2.1920   -1.3949 C   0  0  0  0  0  0  0  0  0  0  0  0
   -0.0807    3.0596   -1.8138 N   0  0  0  0  0  2  0  0  0  0  0  0
   -1.1897    2.8876   -1.0592 O   0  0  0  0  0  0  0  0  0  0  0  0
   -1.0152    1.8895   -0.1461 N   0  0  0  0  0  0  0  0  0  0  0  0
    0.7490    0.4395    0.4785 H   0  0  0  0  0  0  0  0  0  0  0  0
    1.7681    2.1128   -1.8275 H   0  0  0  0  0  0  0  0  0  0  0  0
  1  2  2  3
  1 12  1  0
  2  3  1  0
  2  6  1  0
  3  4  1  0
  4  5  2  0
  5  6  1  0
  7  8  2  0
  7 11  2  0
  8  9  1  0
  8 13  1  0
  9 10  1  0
 10 11  1  0
M  RAD  1   9   2
M  END
>  <reaction>  (4) 
rxn_3178

>  <mol_properties>  (4) 
{"0": {"label": "*1", "atom_type": "N3d"}, "1": {"label": "*0", "atom_type": "Cd"}, "6": {"label": "*3", "atom_type": "Cdd"}, "10": {"label": "*4", "atom_type": "N3d"}, "11": {"label": "*2", "atom_type": "H0"}}

>  <type>  (4) 
ts

$$$$
