
     RDKit          3D

  5  4  0  0  0  0  0  0  0  0999 V2000
    0.0000    0.0000    0.0000 C   0  0  0  0  0  0  0  0  0  0  0  0
   -0.6486   -0.7720   -0.4113 H   0  0  0  0  0  0  0  0  0  0  0  0
   -0.3482    0.9787   -0.3267 H   0  0  0  0  0  0  0  0  0  0  0  0
   -0.0223   -0.0487    1.0876 H   0  0  0  0  0  0  0  0  0  0  0  0
    1.0191   -0.1580   -0.3496 H   0  0  0  0  0  0  0  0  0  0  0  0
  1  2  1  0
  1  3  1  0
  1  4  1  0
  1  5  1  0
M  END
>  <reaction>  (1) 
rxn_852

>  <mol_properties>  (1) 
{"0": {"label": "donator", "atom_type": "Cs"}, "1": {"label": "d_hydrogen", "atom_type": "H0"}}

>  <type>  (1) 
r1h

$$$$

     RDKit          3D

 12 11  0  0  0  0  0  0  0  0999 V2000
    2.7049    0.9350   -0.4404 S   0  0  0  0  0  1  0  0  0  0  0  0
    1.0313    1.0813   -0.4080 C   0  0  0  0  0  0  0  0  0  0  0  0
    0.1364    0.1019   -0.0473 C   0  0  0  0  0  0  0  0  0  0  0  0
    0.5360   -1.2679    0.3784 C   0  0  0  0  0  0  0  0  0  0  0  0
   -1.3304    0.3842   -0.0689 C   0  0  0  0  0  0  0  0  0  0  0  0
    0.6069    2.0398   -0.6990 H   0  0  0  0  0  0  0  0  0  0  0  0
    0.1578   -1.4699    1.3849 H   0  0  0  0  0  0  0  0  0  0  0  0
    0.0783   -2.0109   -0.2814 H   0  0  0  0  0  0  0  0  0  0  0  0
    1.6154   -1.3973    0.3689 H   0  0  0  0  0  0  0  0  0  0  0  0
   -1.8406   -0.3126   -0.7406 H   0  0  0  0  0  0  0  0  0  0  0  0
   -1.5514    1.4016   -0.3887 H   0  0  0  0  0  0  0  0  0  0  0  0
   -1.7610    0.2281    0.9247 H   0  0  0  0  0  0  0  0  0  0  0  0
  1  2  1  0
  2  3  2  3
  2  6  1  0
  3  4  1  0
  3  5  1  0
  4  7  1  0
  4  8  1  0
  4  9  1  0
  5 10  1  0
  5 11  1  0
  5 12  1  0
M  RAD  1   1   2
M  END
>  <reaction>  (2) 
rxn_852

>  <mol_properties>  (2) 
{"2": {"label": "acceptor", "atom_type": "Cs"}}

>  <type>  (2) 
r2

$$$$

     RDKit          3D

 13 12  0  0  0  0  0  0  0  0999 V2000
    2.7452   -1.1134   -0.3601 S   0  0  0  0  0  0  0  0  0  0  0  0
    1.4120   -0.4899    0.2856 C   0  0  0  0  0  0  0  0  0  0  0  0
    0.1714   -0.0257   -0.4180 C   0  0  0  0  0  0  0  0  0  0  0  0
   -0.0717    1.4493   -0.0658 C   0  0  0  0  0  0  0  0  0  0  0  0
    0.1609   -0.2576   -1.9191 C   0  0  0  0  0  0  0  0  0  0  0  0
    1.3665   -0.3550    1.3690 H   0  0  0  0  0  0  0  0  0  0  0  0
   -0.6453   -0.6023    0.0382 H   0  0  0  0  0  0  0  0  0  0  0  0
    0.7161    2.0755   -0.4895 H   0  0  0  0  0  0  0  0  0  0  0  0
   -0.0915    1.6095    1.0136 H   0  0  0  0  0  0  0  0  0  0  0  0
   -1.0268    1.7797   -0.4755 H   0  0  0  0  0  0  0  0  0  0  0  0
    0.3131   -1.3093   -2.1616 H   0  0  0  0  0  0  0  0  0  0  0  0
    0.9567    0.3095   -2.4051 H   0  0  0  0  0  0  0  0  0  0  0  0
   -0.7945    0.0619   -2.3384 H   0  0  0  0  0  0  0  0  0  0  0  0
  1  2  2  0
  2  3  1  0
  2  6  1  0
  3  4  1  0
  3  5  1  0
  3  7  1  0
  4  8  1  0
  4  9  1  0
  4 10  1  0
  5 11  1  0
  5 12  1  0
  5 13  1  0
M  END
>  <reaction>  (3) 
rxn_852

>  <mol_properties>  (3) 
{"2": {"label": "acceptor", "atom_type": "Cs"}, "12": {"label": "a_hydrogen", "atom_type": "H0"}}

>  <type>  (3) 
r2h

$$$$

     RDKit          3D

 17 15  0  0  0  0  0  0  0  0999 V2000
   -2.0549    0.5251    0.1058 S   0  0  0  0  0  0  0  0  0  0  0  0
   -0.5336    0.5981   -0.4416 C   0  0  0  0  0  0  0  0  0  0  0  0
    0.6671   -0.0018    0.1550 C   0  0  0  0  0  0  0  0  0  0  0  0
    1.9399    0.7837   -0.1246 C   0  0  0  0  0  0  0  0  0  0  0  0
    0.5502   -0.4896    1.5828 C   0  0  0  0  0  0  0  0  0  0  0  0
   -0.3452    1.1105   -1.3878 H   0  0  0  0  0  0  0  0  0  0  0  0
    1.9719    1.6940    0.4794 H   0  0  0  0  0  0  0  0  0  0  0  0
    2.8188    0.1867    0.1240 H   0  0  0  0  0  0  0  0  0  0  0  0
    2.0109    1.0717   -1.1751 H   0  0  0  0  0  0  0  0  0  0  0  0
    1.4485   -1.0408    1.8662 H   0  0  0  0  0  0  0  0  0  0  0  0
   -0.3168   -1.1360    1.7118 H   0  0  0  0  0  0  0  0  0  0  0  0
    0.4362    0.3545    2.2676 H   0  0  0  0  0  0  0  0  0  0  0  0
    1.0959   -2.3868   -1.1678 C   0  0  0  0  0  3  0  0  0  0  0  0
    0.7945   -1.0134   -0.5071 H   0  0  0  0  0  0  0  0  0  0  0  0
    1.9189   -2.7534   -0.5667 H   0  0  0  0  0  0  0  0  0  0  0  0
    0.1381   -2.8711   -1.0222 H   0  0  0  0  0  0  0  0  0  0  0  0
    1.3355   -2.0854   -2.1804 H   0  0  0  0  0  0  0  0  0  0  0  0
  1  2  2  0
  2  3  1  0
  2  6  1  0
  3  4  1  0
  3  5  1  0
  3 14  1  0
  4  7  1  0
  4  8  1  0
  4  9  1  0
  5 10  1  0
  5 11  1  0
  5 12  1  0
 13 15  1  0
 13 16  1  0
 13 17  1  0
M  RAD  1  13   2
M  END
>  <reaction>  (4) 
rxn_852

>  <mol_properties>  (4) 
{"1": {"label": "*0", "atom_type": "CS"}, "2": {"label": "*1", "atom_type": "Cs"}, "12": {"label": "*3", "atom_type": "Cs"}, "13": {"label": "*2", "atom_type": "H0"}, "14": {"label": "*4", "atom_type": "H0"}}

>  <type>  (4) 
ts

$$$$
