
     RDKit          3D

 12 11  0  0  0  0  0  0  0  0999 V2000
    0.2765    1.4875   -0.3235 C   0  0  0  0  0  0  0  0  0  0  0  0
    0.0387    0.2116   -0.0470 C   0  0  0  0  0  0  0  0  0  0  0  0
    1.1382   -0.7557    0.2806 C   0  0  0  0  0  0  0  0  0  0  0  0
   -1.3481   -0.3618   -0.0405 C   0  0  0  0  0  0  0  0  0  0  0  0
    1.2833    1.8882   -0.3245 H   0  0  0  0  0  0  0  0  0  0  0  0
   -0.5275    2.1750   -0.5584 H   0  0  0  0  0  0  0  0  0  0  0  0
    0.9863   -1.1895    1.2731 H   0  0  0  0  0  0  0  0  0  0  0  0
    1.1431   -1.5878   -0.4293 H   0  0  0  0  0  0  0  0  0  0  0  0
    2.1177   -0.2788    0.2593 H   0  0  0  0  0  0  0  0  0  0  0  0
   -1.4296   -1.1802   -0.7616 H   0  0  0  0  0  0  0  0  0  0  0  0
   -1.5864   -0.7819    0.9408 H   0  0  0  0  0  0  0  0  0  0  0  0
   -2.0987    0.3891   -0.2854 H   0  0  0  0  0  0  0  0  0  0  0  0
  1  2  2  3
  1  5  1  0
  1  6  1  0
  2  3  1  0
  2  4  1  0
  3  7  1  0
  3  8  1  0
  3  9  1  0
  4 10  1  0
  4 11  1  0
  4 12  1  0
M  END
>  <reaction>  (1) 
rxn_15

>  <mol_properties>  (1) 
{"2": {"label": "donator", "atom_type": "Cs"}, "6": {"label": "d_hydrogen", "atom_type": "H0"}}

>  <type>  (1) 
r1h

$$$$

     RDKit          3D

 14 13  0  0  0  0  0  0  0  0999 V2000
    0.1523    1.4701    0.0231 C   0  0  0  0  0  0  0  0  0  0  0  0
    0.0724   -0.0001   -0.3729 C   0  0  0  0  0  0  0  0  0  0  0  0
    1.2475   -0.8003    0.1742 C   0  0  0  0  0  0  0  0  0  0  0  0
   -0.0122   -0.1270   -1.8938 C   0  0  0  0  0  0  0  0  0  0  0  0
   -0.1589   -1.3812   -2.3858 O   0  0  0  0  0  1  0  0  0  0  0  0
    1.0590    1.9320   -0.3785 H   0  0  0  0  0  0  0  0  0  0  0  0
    0.1791    1.5803    1.1081 H   0  0  0  0  0  0  0  0  0  0  0  0
   -0.7050    2.0353   -0.3494 H   0  0  0  0  0  0  0  0  0  0  0  0
   -0.8540   -0.4209    0.0315 H   0  0  0  0  0  0  0  0  0  0  0  0
    1.2631   -0.7766    1.2651 H   0  0  0  0  0  0  0  0  0  0  0  0
    1.1915   -1.8416   -0.1447 H   0  0  0  0  0  0  0  0  0  0  0  0
    2.1953   -0.3859   -0.1825 H   0  0  0  0  0  0  0  0  0  0  0  0
    0.9155    0.2678   -2.3597 H   0  0  0  0  0  0  0  0  0  0  0  0
   -0.8028    0.5214   -2.3139 H   0  0  0  0  0  0  0  0  0  0  0  0
  1  2  1  0
  1  6  1  0
  1  7  1  0
  1  8  1  0
  2  3  1  0
  2  4  1  0
  2  9  1  0
  3 10  1  0
  3 11  1  0
  3 12  1  0
  4  5  1  0
  4 13  1  0
  4 14  1  0
M  RAD  1   5   2
M  END
>  <reaction>  (2) 
rxn_15

>  <mol_properties>  (2) 
{"4": {"label": "acceptor", "atom_type": "O2s"}}

>  <type>  (2) 
r2

$$$$

     RDKit          3D

 15 14  0  0  0  0  0  0  0  0999 V2000
   -0.6986    1.3248   -0.1642 C   0  0  0  0  0  0  0  0  0  0  0  0
   -0.2590   -0.0343    0.3671 C   0  0  0  0  0  0  0  0  0  0  0  0
   -0.4735   -0.1428    1.8733 C   0  0  0  0  0  0  0  0  0  0  0  0
   -0.9840   -1.1723   -0.3462 C   0  0  0  0  0  0  0  0  0  0  0  0
   -0.7804   -1.1913   -1.7444 O   0  0  0  0  0  0  0  0  0  0  0  0
   -0.1247    2.1306    0.2975 H   0  0  0  0  0  0  0  0  0  0  0  0
   -1.7558    1.4964    0.0579 H   0  0  0  0  0  0  0  0  0  0  0  0
   -0.5709    1.3851   -1.2450 H   0  0  0  0  0  0  0  0  0  0  0  0
    0.8141   -0.1541    0.1668 H   0  0  0  0  0  0  0  0  0  0  0  0
   -1.5347   -0.0466    2.1192 H   0  0  0  0  0  0  0  0  0  0  0  0
    0.0609    0.6482    2.4019 H   0  0  0  0  0  0  0  0  0  0  0  0
   -0.1250   -1.1021    2.2619 H   0  0  0  0  0  0  0  0  0  0  0  0
   -0.6916   -2.1316    0.1012 H   0  0  0  0  0  0  0  0  0  0  0  0
   -2.0628   -1.0629   -0.2056 H   0  0  0  0  0  0  0  0  0  0  0  0
    0.1530   -1.3299   -1.9124 H   0  0  0  0  0  0  0  0  0  0  0  0
  1  2  1  0
  1  6  1  0
  1  7  1  0
  1  8  1  0
  2  3  1  0
  2  4  1  0
  2  9  1  0
  3 10  1  0
  3 11  1  0
  3 12  1  0
  4  5  1  0
  4 13  1  0
  4 14  1  0
  5 15  1  0
M  END
>  <reaction>  (3) 
rxn_15

>  <mol_properties>  (3) 
{"0": {"label": "a_hydrogen", "atom_type": "H0"}, "5": {"label": "acceptor", "atom_type": "O2s"}}

>  <type>  (3) 
r2h

$$$$

     RDKit          3D

 26 24  0  0  0  0  0  0  0  0999 V2000
   -0.6410   -1.5447   -1.7574 C   0  0  0  0  0  0  0  0  0  0  0  0
    0.4244   -0.7411   -1.8496 C   0  0  0  0  0  0  0  0  0  0  0  0
    0.2871    0.6692   -2.2271 C   0  0  0  0  0  0  0  0  0  0  0  0
    1.8099   -1.2083   -1.5107 C   0  0  0  0  0  0  0  0  0  0  0  0
   -1.6337   -1.1935   -2.0122 H   0  0  0  0  0  0  0  0  0  0  0  0
   -0.5468   -2.5762   -1.4406 H   0  0  0  0  0  0  0  0  0  0  0  0
    0.2723    1.3236   -1.1860 H   0  0  0  0  0  0  0  0  0  0  0  0
    1.1455    1.0910   -2.7490 H   0  0  0  0  0  0  0  0  0  0  0  0
   -0.6552    0.9275   -2.7053 H   0  0  0  0  0  0  0  0  0  0  0  0
    2.4500   -1.1748   -2.3960 H   0  0  0  0  0  0  0  0  0  0  0  0
    2.2618   -0.5474   -0.7663 H   0  0  0  0  0  0  0  0  0  0  0  0
    1.8121   -2.2257   -1.1209 H   0  0  0  0  0  0  0  0  0  0  0  0
    0.9843    0.9328    2.5918 C   0  0  0  0  0  0  0  0  0  0  0  0
    0.0852    0.1542    1.6400 C   0  0  0  0  0  0  0  0  0  0  0  0
   -0.8612   -0.7780    2.3871 C   0  0  0  0  0  0  0  0  0  0  0  0
   -0.7120    1.0996    0.7436 C   0  0  0  0  0  0  0  0  0  0  0  0
    0.0582    1.9431   -0.0421 O   0  0  0  0  0  1  0  0  0  0  0  0
    1.6087    0.2600    3.1831 H   0  0  0  0  0  0  0  0  0  0  0  0
    0.3844    1.5289    3.2861 H   0  0  0  0  0  0  0  0  0  0  0  0
    1.6354    1.6126    2.0411 H   0  0  0  0  0  0  0  0  0  0  0  0
    0.7159   -0.4530    0.9835 H   0  0  0  0  0  0  0  0  0  0  0  0
   -1.5400   -0.2101    3.0301 H   0  0  0  0  0  0  0  0  0  0  0  0
   -1.4676   -1.3665    1.6945 H   0  0  0  0  0  0  0  0  0  0  0  0
   -0.3080   -1.4714    3.0230 H   0  0  0  0  0  0  0  0  0  0  0  0
   -1.3574    1.7459    1.3606 H   0  0  0  0  0  0  0  0  0  0  0  0
   -1.4001    0.5143    0.1125 H   0  0  0  0  0  0  0  0  0  0  0  0
  1  2  2  3
  1  5  1  0
  1  6  1  0
  2  3  1  0
  2  4  1  0
  3  7  1  0
  3  8  1  0
  3  9  1  0
  4 10  1  0
  4 11  1  0
  4 12  1  0
 13 14  1  0
 13 18  1  0
 13 19  1  0
 13 20  1  0
 14 15  1  0
 14 16  1  0
 14 21  1  0
 15 22  1  0
 15 23  1  0
 15 24  1  0
 16 17  1  0
 16 25  1  0
 16 26  1  0
M  RAD  1  17   2
M  END
>  <reaction>  (4) 
rxn_15

>  <mol_properties>  (4) 
{"1": {"label": "*0", "atom_type": "Cd"}, "2": {"label": "*1", "atom_type": "Cs"}, "6": {"label": "*2", "atom_type": "H0"}, "15": {"label": "*4", "atom_type": "Cs"}, "16": {"label": "*3", "atom_type": "O2s"}}

>  <type>  (4) 
ts

$$$$
