
     RDKit          3D

 22 23  0  0  0  0  0  0  0  0999 V2000
   -2.1093   -0.3263    0.3079 C   0  0  0  0  0  0  0  0  0  0  0  0
   -1.3270    0.9803    0.4115 C   0  0  0  0  0  0  0  0  0  0  0  0
   -0.1818    0.8289   -0.6044 C   0  0  0  0  0  0  0  0  0  0  0  0
    1.1682    1.3904   -0.1341 C   0  0  0  0  0  0  0  0  0  0  0  0
    1.8508    0.2041    0.5479 C   0  0  0  0  0  0  0  0  0  0  0  0
    1.4982   -0.9663   -0.3710 C   0  0  0  0  0  0  0  0  0  0  0  0
    0.0340   -0.7124   -0.7594 C   0  0  0  0  0  0  0  0  0  0  0  0
   -0.9986   -1.3650    0.1756 C   0  0  0  0  0  0  0  0  0  0  0  0
   -2.7686   -0.5042    1.1589 H   0  0  0  0  0  0  0  0  0  0  0  0
   -2.7285   -0.3223   -0.5943 H   0  0  0  0  0  0  0  0  0  0  0  0
   -1.9339    1.8682    0.2289 H   0  0  0  0  0  0  0  0  0  0  0  0
   -0.9144    1.0729    1.4218 H   0  0  0  0  0  0  0  0  0  0  0  0
   -0.4804    1.2763   -1.5535 H   0  0  0  0  0  0  0  0  0  0  0  0
    1.7667    1.7058   -0.9931 H   0  0  0  0  0  0  0  0  0  0  0  0
    1.0540    2.2578    0.5189 H   0  0  0  0  0  0  0  0  0  0  0  0
    1.4197    0.0438    1.5410 H   0  0  0  0  0  0  0  0  0  0  0  0
    2.9248    0.3413    0.6788 H   0  0  0  0  0  0  0  0  0  0  0  0
    2.1362   -0.9329   -1.2584 H   0  0  0  0  0  0  0  0  0  0  0  0
    1.6421   -1.9421    0.0966 H   0  0  0  0  0  0  0  0  0  0  0  0
   -0.1575   -1.0299   -1.7854 H   0  0  0  0  0  0  0  0  0  0  0  0
   -1.3459   -2.3310   -0.1933 H   0  0  0  0  0  0  0  0  0  0  0  0
   -0.5489   -1.5373    1.1593 H   0  0  0  0  0  0  0  0  0  0  0  0
  1  2  1  0
  1  8  1  0
  1  9  1  0
  1 10  1  0
  2  3  1  0
  2 11  1  0
  2 12  1  0
  3  4  1  0
  3  7  1  0
  3 13  1  0
  4  5  1  0
  4 14  1  0
  4 15  1  0
  5  6  1  0
  5 16  1  0
  5 17  1  0
  6  7  1  0
  6 18  1  0
  6 19  1  0
  7  8  1  0
  7 20  1  0
  8 21  1  0
  8 22  1  0
M  END
>  <reaction>  (1) 
rxn_576

>  <mol_properties>  (1) 
{"2": {"label": "donator", "atom_type": "Cs"}, "12": {"label": "d_hydrogen", "atom_type": "H0"}}

>  <type>  (1) 
r1h

$$$$

     RDKit          3D

  7  6  0  0  0  0  0  0  0  0999 V2000
    1.3004    0.7433    2.1277 C   0  0  0  0  0  0  0  0  0  0  0  0
    0.5759    0.3292    1.2318 C   0  0  0  0  0  0  0  0  0  0  0  0
   -0.2057   -0.1176    0.2653 C   0  0  0  0  0  3  0  0  0  0  0  0
   -0.9747   -0.5572   -0.6857 C   0  0  0  0  0  0  0  0  0  0  0  0
    1.9295    1.1030    2.9058 H   0  0  0  0  0  0  0  0  0  0  0  0
   -1.9978   -0.8727   -0.4930 H   0  0  0  0  0  0  0  0  0  0  0  0
   -0.6275   -0.6280   -1.7142 H   0  0  0  0  0  0  0  0  0  0  0  0
  1  2  3  0
  1  5  1  0
  2  3  1  0
  3  4  2  3
  4  6  1  0
  4  7  1  0
M  RAD  1   3   2
M  END
>  <reaction>  (2) 
rxn_576

>  <mol_properties>  (2) 
{"2": {"label": "acceptor", "atom_type": "Cd"}}

>  <type>  (2) 
r2

$$$$

     RDKit          3D

  8  7  0  0  0  0  0  0  0  0999 V2000
    1.9029    0.9046   -0.2050 C   0  0  0  0  0  0  0  0  0  0  0  0
    0.8517    0.4283    0.1217 C   0  0  0  0  0  0  0  0  0  0  0  0
   -0.3908   -0.1311    0.5404 C   0  0  0  0  0  0  0  0  0  0  0  0
   -1.2847   -0.6576   -0.2899 C   0  0  0  0  0  0  0  0  0  0  0  0
    2.8335    1.3255   -0.5014 H   0  0  0  0  0  0  0  0  0  0  0  0
   -0.5867   -0.1096    1.6074 H   0  0  0  0  0  0  0  0  0  0  0  0
   -2.2126   -1.0686    0.0850 H   0  0  0  0  0  0  0  0  0  0  0  0
   -1.1134   -0.6914   -1.3582 H   0  0  0  0  0  0  0  0  0  0  0  0
  1  2  3  0
  1  5  1  0
  2  3  1  0
  3  4  2  3
  3  6  1  0
  4  7  1  0
  4  8  1  0
M  END
>  <reaction>  (3) 
rxn_576

>  <mol_properties>  (3) 
{"2": {"label": "acceptor", "atom_type": "Cd"}, "7": {"label": "a_hydrogen", "atom_type": "H0"}}

>  <type>  (3) 
r2h

$$$$

     RDKit          3D

 29 29  0  0  0  0  0  0  0  0999 V2000
   -3.3215    0.6669    1.7883 C   0  0  0  0  0  0  0  0  0  0  0  0
   -2.6922   -0.1849    1.2118 C   0  0  0  0  0  0  0  0  0  0  0  0
   -1.8552   -1.0817    0.5502 C   0  0  0  0  0  3  0  0  0  0  0  0
   -2.0585   -2.2822    0.0399 C   0  0  0  0  0  0  0  0  0  0  0  0
   -3.9008    1.3998    2.2962 H   0  0  0  0  0  0  0  0  0  0  0  0
   -1.2545   -2.8188   -0.4518 H   0  0  0  0  0  0  0  0  0  0  0  0
   -3.0253   -2.7746    0.0894 H   0  0  0  0  0  0  0  0  0  0  0  0
    1.6041   -1.3847   -1.6096 C   0  0  0  0  0  0  0  0  0  0  0  0
    1.5234   -1.3307   -0.0827 C   0  0  0  0  0  0  0  0  0  0  0  0
    0.6127   -0.1461    0.2033 C   0  0  0  0  0  0  0  0  0  0  0  0
    0.9282    0.7631    1.3782 C   0  0  0  0  0  0  0  0  0  0  0  0
    1.6450    1.9512    0.7248 C   0  0  0  0  0  0  0  0  0  0  0  0
    0.8732    2.1528   -0.5824 C   0  0  0  0  0  0  0  0  0  0  0  0
    0.5638    0.7279   -1.0653 C   0  0  0  0  0  0  0  0  0  0  0  0
    1.6031    0.0924   -2.0018 C   0  0  0  0  0  0  0  0  0  0  0  0
    2.4753   -1.9298   -1.9749 H   0  0  0  0  0  0  0  0  0  0  0  0
    0.7134   -1.8747   -2.0140 H   0  0  0  0  0  0  0  0  0  0  0  0
    1.1697   -2.2585    0.3720 H   0  0  0  0  0  0  0  0  0  0  0  0
    2.5184   -1.1335    0.3344 H   0  0  0  0  0  0  0  0  0  0  0  0
   -0.5671   -0.6083    0.3927 H   0  0  0  0  0  0  0  0  0  0  0  0
    0.0012    1.1075    1.8481 H   0  0  0  0  0  0  0  0  0  0  0  0
    1.5205    0.2657    2.1476 H   0  0  0  0  0  0  0  0  0  0  0  0
    2.6834    1.6817    0.5089 H   0  0  0  0  0  0  0  0  0  0  0  0
    1.6632    2.8412    1.3549 H   0  0  0  0  0  0  0  0  0  0  0  0
   -0.0576    2.6866   -0.3757 H   0  0  0  0  0  0  0  0  0  0  0  0
    1.4266    2.7336   -1.3224 H   0  0  0  0  0  0  0  0  0  0  0  0
   -0.4211    0.6781   -1.5368 H   0  0  0  0  0  0  0  0  0  0  0  0
    1.3802    0.2628   -3.0558 H   0  0  0  0  0  0  0  0  0  0  0  0
    2.5907    0.5218   -1.8017 H   0  0  0  0  0  0  0  0  0  0  0  0
  1  2  3  0
  1  5  1  0
  2  3  1  0
  3  4  2  3
  4  6  1  0
  4  7  1  0
  8  9  1  0
  8 15  1  0
  8 16  1  0
  8 17  1  0
  9 10  1  0
  9 18  1  0
  9 19  1  0
 10 11  1  0
 10 14  1  0
 10 20  1  0
 11 12  1  0
 11 21  1  0
 11 22  1  0
 12 13  1  0
 12 23  1  0
 12 24  1  0
 13 14  1  0
 13 25  1  0
 13 26  1  0
 14 15  1  0
 14 27  1  0
 15 28  1  0
 15 29  1  0
M  RAD  1   3   2
M  END
>  <reaction>  (4) 
rxn_576

>  <mol_properties>  (4) 
{"1": {"label": "*4", "atom_type": "Ct"}, "2": {"label": "*3", "atom_type": "Cd"}, "9": {"label": "*1", "atom_type": "Cs"}, "13": {"label": "*0", "atom_type": "Cs"}, "19": {"label": "*2", "atom_type": "H0"}}

>  <type>  (4) 
ts

$$$$
