
     RDKit          3D

  7  6  0  0  0  0  0  0  0  0999 V2000
   -0.5808   -0.0343   -0.0072 C   0  0  0  0  0  0  0  0  0  0  0  0
    0.8189    0.0820   -0.3920 N   0  0  0  0  0  0  0  0  0  0  0  0
   -1.1366   -0.8351   -0.5131 H   0  0  0  0  0  0  0  0  0  0  0  0
   -1.0904    0.9086   -0.2116 H   0  0  0  0  0  0  0  0  0  0  0  0
   -0.6459   -0.2082    1.0679 H   0  0  0  0  0  0  0  0  0  0  0  0
    0.9043    0.2571   -1.3836 H   0  0  0  0  0  0  0  0  0  0  0  0
    1.3157   -0.7766   -0.1992 H   0  0  0  0  0  0  0  0  0  0  0  0
  1  2  1  0
  1  3  1  0
  1  4  1  0
  1  5  1  0
  2  6  1  0
  2  7  1  0
M  END
>  <reaction>  (1) 
rxn_681

>  <mol_properties>  (1) 
{"0": {"label": "donator", "atom_type": "Cs"}, "2": {"label": "d_hydrogen", "atom_type": "H0"}}

>  <type>  (1) 
r1h

$$$$

     RDKit          3D

  3  2  0  0  0  0  0  0  0  0999 V2000
    0.0002    0.4233    0.0000 N   0  0  0  0  0  2  0  0  0  0  0  0
   -0.8051   -0.2112    0.0000 H   0  0  0  0  0  0  0  0  0  0  0  0
    0.8049   -0.2121    0.0000 H   0  0  0  0  0  0  0  0  0  0  0  0
  1  2  1  0
  1  3  1  0
M  RAD  1   1   2
M  END
>  <reaction>  (2) 
rxn_681

>  <mol_properties>  (2) 
{"0": {"label": "acceptor", "atom_type": "N3s"}}

>  <type>  (2) 
r2

$$$$

     RDKit          3D

  4  3  0  0  0  0  0  0  0  0999 V2000
    0.0006   -0.0009    0.2762 N   0  0  0  0  0  0  0  0  0  0  0  0
   -0.4188    0.8439   -0.0883 H   0  0  0  0  0  0  0  0  0  0  0  0
   -0.5215   -0.7840   -0.0936 H   0  0  0  0  0  0  0  0  0  0  0  0
    0.9397   -0.0590   -0.0943 H   0  0  0  0  0  0  0  0  0  0  0  0
  1  2  1  0
  1  3  1  0
  1  4  1  0
M  END
>  <reaction>  (3) 
rxn_681

>  <mol_properties>  (3) 
{"0": {"label": "acceptor", "atom_type": "N3s"}, "3": {"label": "a_hydrogen", "atom_type": "H0"}}

>  <type>  (3) 
r2h

$$$$

     RDKit          3D

 10  8  0  0  0  0  0  0  0  0999 V2000
   -0.1323    1.7090    0.8823 N   0  0  0  0  0  2  0  0  0  0  0  0
   -1.0868    1.7583    1.2462 H   0  0  0  0  0  0  0  0  0  0  0  0
    0.4398    1.5780    1.7200 H   0  0  0  0  0  0  0  0  0  0  0  0
   -0.1627   -0.8050    0.0239 C   0  0  0  0  0  0  0  0  0  0  0  0
    0.2502   -0.8833   -1.3351 N   0  0  0  0  0  0  0  0  0  0  0  0
   -0.1502    0.3523    0.4239 H   0  0  0  0  0  0  0  0  0  0  0  0
    0.5107   -1.3571    0.6794 H   0  0  0  0  0  0  0  0  0  0  0  0
   -1.1865   -1.1565    0.1522 H   0  0  0  0  0  0  0  0  0  0  0  0
    1.1950   -0.5549   -1.4704 H   0  0  0  0  0  0  0  0  0  0  0  0
   -0.3611   -0.3709   -1.9537 H   0  0  0  0  0  0  0  0  0  0  0  0
  1  2  1  0
  1  3  1  0
  4  5  1  0
  4  6  1  0
  4  7  1  0
  4  8  1  0
  5  9  1  0
  5 10  1  0
M  RAD  1   1   2
M  END
>  <reaction>  (4) 
rxn_681

>  <mol_properties>  (4) 
{"0": {"label": "*3", "atom_type": "N3s"}, "1": {"label": "*4", "atom_type": "H0"}, "3": {"label": "*1", "atom_type": "Cs"}, "4": {"label": "*0", "atom_type": "N3s"}, "5": {"label": "*2", "atom_type": "H0"}}

>  <type>  (4) 
ts

$$$$
