
     RDKit          3D

 16 15  0  0  0  0  0  0  0  0999 V2000
    1.7961   -0.3807    1.6176 C   0  0  0  0  0  0  0  0  0  0  0  0
    0.8562   -0.8708    0.8256 C   0  0  0  0  0  0  0  0  0  0  0  0
    0.0895   -0.0826   -0.2048 C   0  0  0  0  0  0  0  0  0  0  0  0
   -1.4061   -0.1111    0.0982 C   0  0  0  0  0  0  0  0  0  0  0  0
    0.4476   -0.5902   -1.5797 C   0  0  0  0  0  0  0  0  0  0  0  0
   -0.3793   -1.1113   -2.4728 C   0  0  0  0  0  0  0  0  0  0  0  0
    2.3110   -1.0032    2.3386 H   0  0  0  0  0  0  0  0  0  0  0  0
    2.0846    0.6643    1.5737 H   0  0  0  0  0  0  0  0  0  0  0  0
    0.5921   -1.9241    0.8925 H   0  0  0  0  0  0  0  0  0  0  0  0
    0.4358    0.9557   -0.1462 H   0  0  0  0  0  0  0  0  0  0  0  0
   -1.5968    0.3080    1.0865 H   0  0  0  0  0  0  0  0  0  0  0  0
   -1.9674    0.4693   -0.6359 H   0  0  0  0  0  0  0  0  0  0  0  0
   -1.7902   -1.1338    0.0883 H   0  0  0  0  0  0  0  0  0  0  0  0
    1.5049   -0.5197   -1.8214 H   0  0  0  0  0  0  0  0  0  0  0  0
   -1.4421   -1.2131   -2.2889 H   0  0  0  0  0  0  0  0  0  0  0  0
   -0.0162   -1.4558   -3.4328 H   0  0  0  0  0  0  0  0  0  0  0  0
  1  2  2  3
  1  7  1  0
  1  8  1  0
  2  3  1  0
  2  9  1  0
  3  4  1  0
  3  5  1  0
  3 10  1  0
  4 11  1  0
  4 12  1  0
  4 13  1  0
  5  6  2  3
  5 14  1  0
  6 15  1  0
  6 16  1  0
M  END
>  <reaction>  (1) 
rxn_1194

>  <mol_properties>  (1) 
{"2": {"label": "donator", "atom_type": "Cs"}, "9": {"label": "d_hydrogen", "atom_type": "H0"}}

>  <type>  (1) 
r1h

$$$$

     RDKit          3D

  6  5  0  0  0  0  0  0  0  0999 V2000
   -0.7309   -0.0987    0.0327 C   0  0  0  0  0  0  0  0  0  0  0  0
    0.6208    0.0065   -0.0096 C   0  0  0  0  0  0  0  0  0  0  0  0
    1.6572   -1.2972    0.2837 S   0  0  0  0  0  1  0  0  0  0  0  0
   -1.3651    0.7588   -0.1608 H   0  0  0  0  0  0  0  0  0  0  0  0
   -1.2044   -1.0453    0.2616 H   0  0  0  0  0  0  0  0  0  0  0  0
    1.0609    0.9725   -0.2426 H   0  0  0  0  0  0  0  0  0  0  0  0
  1  2  2  3
  1  4  1  0
  1  5  1  0
  2  3  1  0
  2  6  1  0
M  RAD  1   3   2
M  END
>  <reaction>  (2) 
rxn_1194

>  <mol_properties>  (2) 
{"0": {"label": "acceptor", "atom_type": "Cs"}}

>  <type>  (2) 
r2

$$$$

     RDKit          3D

  7  6  0  0  0  0  0  0  0  0999 V2000
   -0.6782    0.0507    0.0301 C   0  0  0  0  0  0  0  0  0  0  0  0
    0.8092    0.0996    0.0213 C   0  0  0  0  0  0  0  0  0  0  0  0
    1.7473    0.7521    1.1507 S   0  0  0  0  0  0  0  0  0  0  0  0
   -1.0667    0.5456   -0.8653 H   0  0  0  0  0  0  0  0  0  0  0  0
   -1.0112   -0.9904   -0.0239 H   0  0  0  0  0  0  0  0  0  0  0  0
   -1.0920    0.5225    0.9188 H   0  0  0  0  0  0  0  0  0  0  0  0
    1.2740   -0.3620   -0.8520 H   0  0  0  0  0  0  0  0  0  0  0  0
  1  2  1  0
  1  4  1  0
  1  5  1  0
  1  6  1  0
  2  3  2  0
  2  7  1  0
M  END
>  <reaction>  (3) 
rxn_1194

>  <mol_properties>  (3) 
{"0": {"label": "a_hydrogen", "atom_type": "H0"}, "1": {"label": "acceptor", "atom_type": "Cs"}}

>  <type>  (3) 
r2h

$$$$

     RDKit          3D

 22 20  0  0  0  0  0  0  0  0999 V2000
    0.4403   -2.3391   -0.9714 C   0  0  0  0  0  0  0  0  0  0  0  0
    1.0794   -2.0268    0.1524 C   0  0  0  0  0  0  0  0  0  0  0  0
    0.6320   -1.0160    1.1382 C   0  0  0  0  0  0  0  0  0  0  0  0
    1.6284   -0.7106    2.2356 C   0  0  0  0  0  0  0  0  0  0  0  0
   -0.7907   -1.0373    1.5002 C   0  0  0  0  0  0  0  0  0  0  0  0
   -1.3312   -0.4475    2.5666 C   0  0  0  0  0  0  0  0  0  0  0  0
    0.8407   -3.0788   -1.6520 H   0  0  0  0  0  0  0  0  0  0  0  0
   -0.4881   -1.8560   -1.2578 H   0  0  0  0  0  0  0  0  0  0  0  0
    2.0334   -2.5026    0.3629 H   0  0  0  0  0  0  0  0  0  0  0  0
    0.6540    0.1003    0.4323 H   0  0  0  0  0  0  0  0  0  0  0  0
    2.6337   -0.6167    1.8232 H   0  0  0  0  0  0  0  0  0  0  0  0
    1.3913    0.2216    2.7484 H   0  0  0  0  0  0  0  0  0  0  0  0
    1.6372   -1.5104    2.9805 H   0  0  0  0  0  0  0  0  0  0  0  0
   -1.4485   -1.5415    0.8013 H   0  0  0  0  0  0  0  0  0  0  0  0
   -0.7406    0.0806    3.3048 H   0  0  0  0  0  0  0  0  0  0  0  0
   -2.3989   -0.4888    2.7360 H   0  0  0  0  0  0  0  0  0  0  0  0
    0.6914    1.2208   -0.3578 C   0  0  0  0  0  0  0  0  0  0  0  0
   -0.6209    1.7436   -0.2690 C   0  0  0  0  0  0  0  0  0  0  0  0
   -1.8982    1.2209   -1.1651 S   0  0  0  0  0  1  0  0  0  0  0  0
    1.4940    1.7801    0.1162 H   0  0  0  0  0  0  0  0  0  0  0  0
    0.9564    0.6935   -1.2703 H   0  0  0  0  0  0  0  0  0  0  0  0
   -0.7933    2.5006    0.4945 H   0  0  0  0  0  0  0  0  0  0  0  0
  1  2  2  3
  1  7  1  0
  1  8  1  0
  2  3  1  0
  2  9  1  0
  3  4  1  0
  3  5  1  0
  3 10  1  0
  4 11  1  0
  4 12  1  0
  4 13  1  0
  5  6  2  3
  5 14  1  0
  6 15  1  0
  6 16  1  0
 17 18  2  3
 17 20  1  0
 17 21  1  0
 18 19  1  0
 18 22  1  0
M  RAD  1  19   2
M  END
>  <reaction>  (4) 
rxn_1194

>  <mol_properties>  (4) 
{"1": {"label": "*0", "atom_type": "Cd"}, "2": {"label": "*1", "atom_type": "Cs"}, "9": {"label": "*2", "atom_type": "H0"}, "16": {"label": "*3", "atom_type": "Cd"}, "17": {"label": "*4", "atom_type": "Cd"}}

>  <type>  (4) 
ts

$$$$
