
     RDKit          3D

 12 11  0  0  0  0  0  0  0  0999 V2000
    0.2765    1.4875   -0.3235 C   0  0  0  0  0  0  0  0  0  0  0  0
    0.0387    0.2116   -0.0470 C   0  0  0  0  0  0  0  0  0  0  0  0
    1.1382   -0.7557    0.2806 C   0  0  0  0  0  0  0  0  0  0  0  0
   -1.3481   -0.3618   -0.0405 C   0  0  0  0  0  0  0  0  0  0  0  0
    1.2833    1.8882   -0.3245 H   0  0  0  0  0  0  0  0  0  0  0  0
   -0.5275    2.1750   -0.5584 H   0  0  0  0  0  0  0  0  0  0  0  0
    0.9863   -1.1895    1.2731 H   0  0  0  0  0  0  0  0  0  0  0  0
    1.1431   -1.5878   -0.4293 H   0  0  0  0  0  0  0  0  0  0  0  0
    2.1177   -0.2788    0.2593 H   0  0  0  0  0  0  0  0  0  0  0  0
   -1.4296   -1.1802   -0.7616 H   0  0  0  0  0  0  0  0  0  0  0  0
   -1.5864   -0.7819    0.9408 H   0  0  0  0  0  0  0  0  0  0  0  0
   -2.0987    0.3891   -0.2854 H   0  0  0  0  0  0  0  0  0  0  0  0
  1  2  2  3
  1  5  1  0
  1  6  1  0
  2  3  1  0
  2  4  1  0
  3  7  1  0
  3  8  1  0
  3  9  1  0
  4 10  1  0
  4 11  1  0
  4 12  1  0
M  END
>  <reaction>  (1) 
rxn_409

>  <mol_properties>  (1) 
{"2": {"label": "donator", "atom_type": "Cs"}, "6": {"label": "d_hydrogen", "atom_type": "H0"}}

>  <type>  (1) 
r1h

$$$$

     RDKit          3D

 14 13  0  0  0  0  0  0  0  0999 V2000
   -0.0263    1.3824   -0.7006 C   0  0  0  0  0  0  0  0  0  0  0  0
   -0.2039   -0.0453   -0.3213 C   0  0  0  0  0  3  0  0  0  0  0  0
   -1.1121   -0.3782    0.8104 C   0  0  0  0  0  0  0  0  0  0  0  0
    0.8313   -1.0381   -0.7322 C   0  0  0  0  0  0  0  0  0  0  0  0
    0.3307   -2.3541   -0.9005 O   0  0  0  0  0  0  0  0  0  0  0  0
    0.6071    1.9181    0.0231 H   0  0  0  0  0  0  0  0  0  0  0  0
   -0.9831    1.9109   -0.7211 H   0  0  0  0  0  0  0  0  0  0  0  0
    0.4475    1.4899   -1.6787 H   0  0  0  0  0  0  0  0  0  0  0  0
   -2.0864    0.1051    0.6984 H   0  0  0  0  0  0  0  0  0  0  0  0
   -1.2623   -1.4541    0.9003 H   0  0  0  0  0  0  0  0  0  0  0  0
   -0.6968   -0.0235    1.7662 H   0  0  0  0  0  0  0  0  0  0  0  0
    1.6088   -1.1338    0.0391 H   0  0  0  0  0  0  0  0  0  0  0  0
    1.3350   -0.6925   -1.6447 H   0  0  0  0  0  0  0  0  0  0  0  0
   -0.3997   -2.3102   -1.5208 H   0  0  0  0  0  0  0  0  0  0  0  0
  1  2  1  0
  1  6  1  0
  1  7  1  0
  1  8  1  0
  2  3  1  0
  2  4  1  0
  3  9  1  0
  3 10  1  0
  3 11  1  0
  4  5  1  0
  4 12  1  0
  4 13  1  0
  5 14  1  0
M  RAD  1   2   2
M  END
>  <reaction>  (2) 
rxn_409

>  <mol_properties>  (2) 
{"1": {"label": "acceptor", "atom_type": "Cs"}}

>  <type>  (2) 
r2

$$$$

     RDKit          3D

 15 14  0  0  0  0  0  0  0  0999 V2000
   -0.6986    1.3249   -0.1641 C   0  0  0  0  0  0  0  0  0  0  0  0
   -0.2590   -0.0344    0.3671 C   0  0  0  0  0  0  0  0  0  0  0  0
   -0.4734   -0.1429    1.8733 C   0  0  0  0  0  0  0  0  0  0  0  0
   -0.9841   -1.1722   -0.3462 C   0  0  0  0  0  0  0  0  0  0  0  0
   -0.7805   -1.1911   -1.7444 O   0  0  0  0  0  0  0  0  0  0  0  0
   -0.1246    2.1306    0.2976 H   0  0  0  0  0  0  0  0  0  0  0  0
   -1.7557    1.4964    0.0581 H   0  0  0  0  0  0  0  0  0  0  0  0
   -0.5709    1.3852   -1.2449 H   0  0  0  0  0  0  0  0  0  0  0  0
    0.8141   -0.1541    0.1667 H   0  0  0  0  0  0  0  0  0  0  0  0
   -1.5346   -0.0466    2.1192 H   0  0  0  0  0  0  0  0  0  0  0  0
    0.0611    0.6480    2.4019 H   0  0  0  0  0  0  0  0  0  0  0  0
   -0.1249   -1.1023    2.2618 H   0  0  0  0  0  0  0  0  0  0  0  0
   -0.6918   -2.1316    0.1011 H   0  0  0  0  0  0  0  0  0  0  0  0
   -2.0629   -1.0627   -0.2056 H   0  0  0  0  0  0  0  0  0  0  0  0
    0.1528   -1.3298   -1.9125 H   0  0  0  0  0  0  0  0  0  0  0  0
  1  2  1  0
  1  6  1  0
  1  7  1  0
  1  8  1  0
  2  3  1  0
  2  4  1  0
  2  9  1  0
  3 10  1  0
  3 11  1  0
  3 12  1  0
  4  5  1  0
  4 13  1  0
  4 14  1  0
  5 15  1  0
M  END
>  <reaction>  (3) 
rxn_409

>  <mol_properties>  (3) 
{"1": {"label": "acceptor", "atom_type": "Cs"}, "14": {"label": "a_hydrogen", "atom_type": "H0"}}

>  <type>  (3) 
r2h

$$$$

     RDKit          3D

 26 24  0  0  0  0  0  0  0  0999 V2000
   -0.5881    1.7042    1.8012 C   0  0  0  0  0  0  0  0  0  0  0  0
   -0.8540    0.3807    1.1358 C   0  0  0  0  0  3  0  0  0  0  0  0
   -1.3089   -0.7199    2.0577 C   0  0  0  0  0  0  0  0  0  0  0  0
   -1.6466    0.4632   -0.1502 C   0  0  0  0  0  0  0  0  0  0  0  0
   -1.1213    1.3696   -1.0916 O   0  0  0  0  0  0  0  0  0  0  0  0
   -1.5103    2.1074    2.2375 H   0  0  0  0  0  0  0  0  0  0  0  0
   -0.2154    2.4338    1.0825 H   0  0  0  0  0  0  0  0  0  0  0  0
    0.1398    1.6002    2.6087 H   0  0  0  0  0  0  0  0  0  0  0  0
   -2.3006   -0.5003    2.4710 H   0  0  0  0  0  0  0  0  0  0  0  0
   -1.3737   -1.6792    1.5387 H   0  0  0  0  0  0  0  0  0  0  0  0
   -0.6242   -0.8356    2.9003 H   0  0  0  0  0  0  0  0  0  0  0  0
   -2.6624    0.8119    0.0753 H   0  0  0  0  0  0  0  0  0  0  0  0
   -1.7453   -0.5411   -0.5836 H   0  0  0  0  0  0  0  0  0  0  0  0
   -0.3290    0.9751   -1.4732 H   0  0  0  0  0  0  0  0  0  0  0  0
    1.6508   -0.1330   -2.1518 C   0  0  0  0  0  0  0  0  0  0  0  0
    1.4082   -0.8991   -1.0787 C   0  0  0  0  0  0  0  0  0  0  0  0
    1.5821   -0.4071    0.2866 C   0  0  0  0  0  0  0  0  0  0  0  0
    0.8641   -2.2938   -1.2138 C   0  0  0  0  0  0  0  0  0  0  0  0
    2.0667    0.8630   -2.0493 H   0  0  0  0  0  0  0  0  0  0  0  0
    1.4757   -0.4951   -3.1571 H   0  0  0  0  0  0  0  0  0  0  0  0
    0.3779   -0.0309    0.7086 H   0  0  0  0  0  0  0  0  0  0  0  0
    1.8452   -1.1613    1.0258 H   0  0  0  0  0  0  0  0  0  0  0  0
    2.1656    0.5046    0.3887 H   0  0  0  0  0  0  0  0  0  0  0  0
    1.5706   -3.0186   -0.8012 H   0  0  0  0  0  0  0  0  0  0  0  0
   -0.0654   -2.4005   -0.6482 H   0  0  0  0  0  0  0  0  0  0  0  0
    0.6687   -2.5554   -2.2530 H   0  0  0  0  0  0  0  0  0  0  0  0
  1  2  1  0
  1  6  1  0
  1  7  1  0
  1  8  1  0
  2  3  1  0
  2  4  1  0
  3  9  1  0
  3 10  1  0
  3 11  1  0
  4  5  1  0
  4 12  1  0
  4 13  1  0
  5 14  1  0
 15 16  2  3
 15 19  1  0
 15 20  1  0
 16 17  1  0
 16 18  1  0
 17 21  1  0
 17 22  1  0
 17 23  1  0
 18 24  1  0
 18 25  1  0
 18 26  1  0
M  RAD  1   2   2
M  END
>  <reaction>  (4) 
rxn_409

>  <mol_properties>  (4) 
{"1": {"label": "*3", "atom_type": "Cs"}, "3": {"label": "*4", "atom_type": "Cs"}, "15": {"label": "*0", "atom_type": "Cd"}, "16": {"label": "*1", "atom_type": "Cs"}, "20": {"label": "*2", "atom_type": "H0"}}

>  <type>  (4) 
ts

$$$$
