
     RDKit          3D

 14 13  0  0  0  0  0  0  0  0999 V2000
   -0.7647   -1.2352   -0.0349 C   0  0  0  0  0  0  0  0  0  0  0  0
    0.0570   -0.0126    0.3624 C   0  0  0  0  0  0  0  0  0  0  0  0
    1.4161   -0.0194   -0.3307 C   0  0  0  0  0  0  0  0  0  0  0  0
   -0.7022    1.2765    0.0629 C   0  0  0  0  0  0  0  0  0  0  0  0
   -0.2387   -2.1618    0.2040 H   0  0  0  0  0  0  0  0  0  0  0  0
   -0.9624   -1.2316   -1.1108 H   0  0  0  0  0  0  0  0  0  0  0  0
   -1.7273   -1.2512    0.4806 H   0  0  0  0  0  0  0  0  0  0  0  0
    0.2295   -0.0590    1.4432 H   0  0  0  0  0  0  0  0  0  0  0  0
    1.2932    0.0259   -1.4168 H   0  0  0  0  0  0  0  0  0  0  0  0
    2.0206    0.8382   -0.0279 H   0  0  0  0  0  0  0  0  0  0  0  0
    1.9767   -0.9268   -0.0966 H   0  0  0  0  0  0  0  0  0  0  0  0
   -1.6638    1.3002    0.5799 H   0  0  0  0  0  0  0  0  0  0  0  0
   -0.8978    1.3664   -1.0096 H   0  0  0  0  0  0  0  0  0  0  0  0
   -0.1313    2.1545    0.3721 H   0  0  0  0  0  0  0  0  0  0  0  0
  1  2  1  0
  1  5  1  0
  1  6  1  0
  1  7  1  0
  2  3  1  0
  2  4  1  0
  2  8  1  0
  3  9  1  0
  3 10  1  0
  3 11  1  0
  4 12  1  0
  4 13  1  0
  4 14  1  0
M  END
>  <reaction>  (1) 
rxn_993

>  <mol_properties>  (1) 
{"1": {"label": "donator", "atom_type": "Cs"}, "7": {"label": "d_hydrogen", "atom_type": "H0"}}

>  <type>  (1) 
r1h

$$$$

     RDKit          3D

  7  6  0  0  0  0  0  0  0  0999 V2000
   -0.6904   -0.9066   -0.0346 C   0  0  0  0  0  0  0  0  0  0  0  0
    0.1413    0.0254   -0.6161 C   0  0  0  0  0  0  0  0  0  0  0  0
    0.4603    0.1105   -1.9267 C   0  0  0  0  0  3  0  0  0  0  0  0
    0.8318    0.2180   -3.4201 S   0  0  0  0  0  0  0  0  0  0  0  0
   -0.8731   -0.8770    1.0287 H   0  0  0  0  0  0  0  0  0  0  0  0
   -1.1718   -1.6767   -0.6199 H   0  0  0  0  0  0  0  0  0  0  0  0
    0.6090    0.7866    0.0044 H   0  0  0  0  0  0  0  0  0  0  0  0
  1  2  2  3
  1  5  1  0
  1  6  1  0
  2  3  1  0
  2  7  1  0
  3  4  2  0
M  RAD  1   3   2
M  END
>  <reaction>  (2) 
rxn_993

>  <mol_properties>  (2) 
{"2": {"label": "acceptor", "atom_type": "CS"}}

>  <type>  (2) 
r2

$$$$

     RDKit          3D

  8  7  0  0  0  0  0  0  0  0999 V2000
   -1.1617    0.0338    0.5053 C   0  0  0  0  0  0  0  0  0  0  0  0
   -0.1023    0.4503   -0.1863 C   0  0  0  0  0  0  0  0  0  0  0  0
    1.0978   -0.3557   -0.3104 C   0  0  0  0  0  0  0  0  0  0  0  0
    2.4251    0.0667   -1.1256 S   0  0  0  0  0  0  0  0  0  0  0  0
   -1.1653   -0.9292    1.0039 H   0  0  0  0  0  0  0  0  0  0  0  0
   -2.0546    0.6389    0.5948 H   0  0  0  0  0  0  0  0  0  0  0  0
   -0.0991    1.4132   -0.6847 H   0  0  0  0  0  0  0  0  0  0  0  0
    1.0601   -1.3180    0.2032 H   0  0  0  0  0  0  0  0  0  0  0  0
  1  2  2  3
  1  5  1  0
  1  6  1  0
  2  3  1  0
  2  7  1  0
  3  4  2  0
  3  8  1  0
M  END
>  <reaction>  (3) 
rxn_993

>  <mol_properties>  (3) 
{"2": {"label": "acceptor", "atom_type": "CS"}, "7": {"label": "a_hydrogen", "atom_type": "H0"}}

>  <type>  (3) 
r2h

$$$$

     RDKit          3D

 21 19  0  0  0  0  0  0  0  0999 V2000
    1.9545   -0.4314   -1.7793 C   0  0  0  0  0  0  0  0  0  0  0  0
    2.0331   -0.5499   -0.4548 C   0  0  0  0  0  0  0  0  0  0  0  0
    0.9378   -0.2038    0.4266 C   0  0  0  0  0  3  0  0  0  0  0  0
    0.9007   -0.2977    2.0210 S   0  0  0  0  0  0  0  0  0  0  0  0
    2.7884   -0.6972   -2.4165 H   0  0  0  0  0  0  0  0  0  0  0  0
    1.0564   -0.0663   -2.2603 H   0  0  0  0  0  0  0  0  0  0  0  0
    2.9431   -0.9184    0.0118 H   0  0  0  0  0  0  0  0  0  0  0  0
   -1.4432    0.8453   -2.0531 C   0  0  0  0  0  0  0  0  0  0  0  0
   -1.4088    0.7311   -0.5491 C   0  0  0  0  0  0  0  0  0  0  0  0
   -1.4611    2.0540    0.1735 C   0  0  0  0  0  0  0  0  0  0  0  0
   -2.3384   -0.3150    0.0136 C   0  0  0  0  0  0  0  0  0  0  0  0
   -0.6827    1.5373   -2.4229 H   0  0  0  0  0  0  0  0  0  0  0  0
   -2.4163    1.2281   -2.3850 H   0  0  0  0  0  0  0  0  0  0  0  0
   -1.2981   -0.1245   -2.5350 H   0  0  0  0  0  0  0  0  0  0  0  0
   -0.1925    0.2567   -0.1934 H   0  0  0  0  0  0  0  0  0  0  0  0
   -2.4414    2.5284    0.0418 H   0  0  0  0  0  0  0  0  0  0  0  0
   -1.2970    1.9215    1.2447 H   0  0  0  0  0  0  0  0  0  0  0  0
   -0.7054    2.7457   -0.2050 H   0  0  0  0  0  0  0  0  0  0  0  0
   -2.1964   -1.2805   -0.4767 H   0  0  0  0  0  0  0  0  0  0  0  0
   -3.3851   -0.0201   -0.1301 H   0  0  0  0  0  0  0  0  0  0  0  0
   -2.1746   -0.4485    1.0847 H   0  0  0  0  0  0  0  0  0  0  0  0
  1  2  2  3
  1  5  1  0
  1  6  1  0
  2  3  1  0
  2  7  1  0
  3  4  2  0
  8  9  1  0
  8 12  1  0
  8 13  1  0
  8 14  1  0
  9 10  1  0
  9 11  1  0
  9 15  1  0
 10 16  1  0
 10 17  1  0
 10 18  1  0
 11 19  1  0
 11 20  1  0
 11 21  1  0
M  RAD  1   3   2
M  END
>  <reaction>  (4) 
rxn_993

>  <mol_properties>  (4) 
{"2": {"label": "*3", "atom_type": "CS"}, "3": {"label": "*4", "atom_type": "S2d"}, "7": {"label": "*0", "atom_type": "Cs"}, "8": {"label": "*1", "atom_type": "Cs"}, "14": {"label": "*2", "atom_type": "H0"}}

>  <type>  (4) 
ts

$$$$
