
     RDKit          3D

  7  6  0  0  0  0  0  0  0  0999 V2000
   -0.6468   -0.0443   -0.0231 C   0  0  0  0  0  0  0  0  0  0  0  0
    0.8470    0.0371    0.0688 C   0  0  0  0  0  0  0  0  0  0  0  0
    1.4866   -0.2280    1.0479 O   0  0  0  0  0  0  0  0  0  0  0  0
   -1.0466    0.9363   -0.2943 H   0  0  0  0  0  0  0  0  0  0  0  0
   -0.9229   -0.7318   -0.8269 H   0  0  0  0  0  0  0  0  0  0  0  0
   -1.0759   -0.3772    0.9198 H   0  0  0  0  0  0  0  0  0  0  0  0
    1.3584    0.3712   -0.8589 H   0  0  0  0  0  0  0  0  0  0  0  0
  1  2  1  0
  1  4  1  0
  1  5  1  0
  1  6  1  0
  2  3  2  0
  2  7  1  0
M  END
>  <reaction>  (1) 
rxn_239

>  <mol_properties>  (1) 
{"1": {"label": "donator", "atom_type": "CO"}, "6": {"label": "d_hydrogen", "atom_type": "H0"}}

>  <type>  (1) 
r1h

$$$$

     RDKit          3D

  3  2  0  0  0  0  0  0  0  0999 V2000
    0.9943   -0.1797    0.0000 O   0  0  0  0  0  1  0  0  0  0  0  0
   -0.1595    0.4394    0.0000 O   0  0  0  0  0  0  0  0  0  0  0  0
   -0.8348   -0.2597    0.0000 H   0  0  0  0  0  0  0  0  0  0  0  0
  1  2  1  0
  2  3  1  0
M  RAD  1   1   2
M  END
>  <reaction>  (2) 
rxn_239

>  <mol_properties>  (2) 
{"0": {"label": "acceptor", "atom_type": "O2s"}}

>  <type>  (2) 
r2

$$$$

     RDKit          3D

  4  3  0  0  0  0  0  0  0  0999 V2000
    0.5949   -0.3853    0.2659 O   0  0  0  0  0  0  0  0  0  0  0  0
   -0.5918    0.4028    0.2462 O   0  0  0  0  0  0  0  0  0  0  0  0
    1.1865    0.1539   -0.2689 H   0  0  0  0  0  0  0  0  0  0  0  0
   -1.1896   -0.1714   -0.2432 H   0  0  0  0  0  0  0  0  0  0  0  0
  1  2  1  0
  1  3  1  0
  2  4  1  0
M  END
>  <reaction>  (3) 
rxn_239

>  <mol_properties>  (3) 
{"0": {"label": "a_hydrogen", "atom_type": "H0"}, "1": {"label": "acceptor", "atom_type": "O2s"}}

>  <type>  (3) 
r2h

$$$$

     RDKit          3D

 10  8  0  0  0  0  0  0  0  0999 V2000
   -0.3377    0.7974   -2.0252 C   0  0  0  0  0  0  0  0  0  0  0  0
   -0.1190    0.7329   -0.5426 C   0  0  0  0  0  3  0  0  0  0  0  0
    0.0290    1.6317    0.2109 O   0  0  0  0  0  0  0  0  0  0  0  0
    0.4638    0.2410   -2.5140 H   0  0  0  0  0  0  0  0  0  0  0  0
   -1.2737    0.2888   -2.2614 H   0  0  0  0  0  0  0  0  0  0  0  0
   -0.3598    1.8295   -2.3725 H   0  0  0  0  0  0  0  0  0  0  0  0
   -0.0762   -0.4795   -0.0625 H   0  0  0  0  0  0  0  0  0  0  0  0
    0.0278   -1.5525    0.5359 O   0  0  0  0  0  0  0  0  0  0  0  0
    0.8840   -1.2629    1.5771 O   0  0  0  0  0  0  0  0  0  0  0  0
    0.2908   -1.0106    2.2952 H   0  0  0  0  0  0  0  0  0  0  0  0
  1  2  1  0
  1  4  1  0
  1  5  1  0
  1  6  1  0
  2  3  2  0
  7  8  1  0
  8  9  1  0
  9 10  1  0
M  RAD  1   2   2
M  END
>  <reaction>  (4) 
rxn_239

>  <mol_properties>  (4) 
{"1": {"label": "*3", "atom_type": "CO"}, "2": {"label": "*4", "atom_type": "O2d"}, "6": {"label": "*2", "atom_type": "H0"}, "7": {"label": "*1", "atom_type": "O2s"}, "8": {"label": "*0", "atom_type": "O2s"}}

>  <type>  (4) 
ts

$$$$
