
     RDKit          3D

 12 11  0  0  0  0  0  0  0  0999 V2000
    1.9877    0.1011    0.4814 C   0  0  0  0  0  0  0  0  0  0  0  0
    0.8179    0.5502    0.0525 C   0  0  0  0  0  0  0  0  0  0  0  0
   -0.2939   -0.2692   -0.5320 C   0  0  0  0  0  0  0  0  0  0  0  0
   -0.0292   -1.7631   -0.6328 C   0  0  0  0  0  0  0  0  0  0  0  0
    2.2522   -0.9490    0.4436 H   0  0  0  0  0  0  0  0  0  0  0  0
    2.7295    0.7757    0.8896 H   0  0  0  0  0  0  0  0  0  0  0  0
    0.6162    1.6164    0.1190 H   0  0  0  0  0  0  0  0  0  0  0  0
   -0.5268    0.1319   -1.5245 H   0  0  0  0  0  0  0  0  0  0  0  0
   -1.1959   -0.0938    0.0644 H   0  0  0  0  0  0  0  0  0  0  0  0
    0.1590   -2.1992    0.3502 H   0  0  0  0  0  0  0  0  0  0  0  0
    0.8382   -1.9701   -1.2626 H   0  0  0  0  0  0  0  0  0  0  0  0
   -0.8879   -2.2759   -1.0672 H   0  0  0  0  0  0  0  0  0  0  0  0
  1  2  2  3
  1  5  1  0
  1  6  1  0
  2  3  1  0
  2  7  1  0
  3  4  1  0
  3  8  1  0
  3  9  1  0
  4 10  1  0
  4 11  1  0
  4 12  1  0
M  END
>  <reaction>  (1) 
rxn_1052

>  <mol_properties>  (1) 
{"2": {"label": "donator", "atom_type": "Cs"}, "7": {"label": "d_hydrogen", "atom_type": "H0"}}

>  <type>  (1) 
r1h

$$$$

     RDKit          3D

 17 17  0  0  0  0  0  0  0  0999 V2000
    2.7069    0.2860   -0.1817 C   0  0  0  0  0  0  0  0  0  0  0  0
    1.6304   -0.7245    0.0085 C   0  0  0  0  0  0  0  0  0  0  0  0
    1.4786   -1.8800   -0.7837 C   0  0  0  0  0  0  0  0  0  0  0  0
    0.4231   -2.7891   -0.5312 C   0  0  0  0  0  3  0  0  0  0  0  0
    0.2582   -3.9235   -1.2940 C   0  0  0  0  0  0  0  0  0  0  0  0
    1.1348   -4.2030   -2.3401 C   0  0  0  0  0  0  0  0  0  0  0  0
    2.1804   -3.3260   -2.6093 C   0  0  0  0  0  0  0  0  0  0  0  0
    2.3549   -2.1866   -1.8513 C   0  0  0  0  0  0  0  0  0  0  0  0
    2.6698    0.7343   -1.1808 H   0  0  0  0  0  0  0  0  0  0  0  0
    3.7029   -0.1584   -0.0766 H   0  0  0  0  0  0  0  0  0  0  0  0
    2.6250    1.0917    0.5463 H   0  0  0  0  0  0  0  0  0  0  0  0
    0.9136   -0.5677    0.8059 H   0  0  0  0  0  0  0  0  0  0  0  0
   -0.2629   -2.5783    0.2811 H   0  0  0  0  0  0  0  0  0  0  0  0
   -0.5582   -4.6017   -1.0785 H   0  0  0  0  0  0  0  0  0  0  0  0
    1.0033   -5.0952   -2.9384 H   0  0  0  0  0  0  0  0  0  0  0  0
    2.8650   -3.5382   -3.4214 H   0  0  0  0  0  0  0  0  0  0  0  0
    3.1750   -1.5169   -2.0772 H   0  0  0  0  0  0  0  0  0  0  0  0
  1  2  1  0
  1  9  1  0
  1 10  1  0
  1 11  1  0
  2  3  2  3
  2 12  1  0
  3  4  1  0
  3  8  1  0
  4  5  1  0
  4 13  1  0
  5  6  2  0
  5 14  1  0
  6  7  1  0
  6 15  1  0
  7  8  2  0
  7 16  1  0
  8 17  1  0
M  RAD  1   4   2
M  END
>  <reaction>  (2) 
rxn_1052

>  <mol_properties>  (2) 
{"1": {"label": "acceptor", "atom_type": "Cs"}}

>  <type>  (2) 
r2

$$$$

     RDKit          3D

 18 18  0  0  0  0  0  0  0  0999 V2000
   -2.4852    0.3210   -0.3966 C   0  0  0  0  0  0  0  0  0  0  0  0
   -1.5917   -0.2708    0.6941 C   0  0  0  0  0  0  0  0  0  0  0  0
   -0.1292   -0.1692    0.3493 C   0  0  0  0  0  0  0  0  0  0  0  0
    0.6099    0.9558    0.7015 C   0  0  0  0  0  0  0  0  0  0  0  0
    1.9447    1.0728    0.3458 C   0  0  0  0  0  0  0  0  0  0  0  0
    2.5646    0.0613   -0.3720 C   0  0  0  0  0  0  0  0  0  0  0  0
    1.8399   -1.0657   -0.7287 C   0  0  0  0  0  0  0  0  0  0  0  0
    0.5055   -1.1769   -0.3700 C   0  0  0  0  0  0  0  0  0  0  0  0
   -2.3325   -0.1971   -1.3452 H   0  0  0  0  0  0  0  0  0  0  0  0
   -2.2554    1.3763   -0.5546 H   0  0  0  0  0  0  0  0  0  0  0  0
   -3.5397    0.2376   -0.1280 H   0  0  0  0  0  0  0  0  0  0  0  0
   -1.7801    0.2462    1.6380 H   0  0  0  0  0  0  0  0  0  0  0  0
   -1.8568   -1.3190    0.8516 H   0  0  0  0  0  0  0  0  0  0  0  0
    0.1327    1.7497    1.2656 H   0  0  0  0  0  0  0  0  0  0  0  0
    2.5033    1.9550    0.6330 H   0  0  0  0  0  0  0  0  0  0  0  0
    3.6077    0.1491   -0.6484 H   0  0  0  0  0  0  0  0  0  0  0  0
    2.3163   -1.8632   -1.2854 H   0  0  0  0  0  0  0  0  0  0  0  0
   -0.0540   -2.0629   -0.6500 H   0  0  0  0  0  0  0  0  0  0  0  0
  1  2  1  0
  1  9  1  0
  1 10  1  0
  1 11  1  0
  2  3  1  0
  2 12  1  0
  2 13  1  0
  3  4  2  0
  3  8  1  0
  4  5  1  0
  4 14  1  0
  5  6  2  0
  5 15  1  0
  6  7  1  0
  6 16  1  0
  7  8  2  0
  7 17  1  0
  8 18  1  0
M  END
>  <reaction>  (3) 
rxn_1052

>  <mol_properties>  (3) 
{"0": {"label": "a_hydrogen", "atom_type": "H0"}, "2": {"label": "acceptor", "atom_type": "Cs"}}

>  <type>  (3) 
r2h

$$$$

     RDKit          3D

 29 28  0  0  0  0  0  0  0  0999 V2000
   -2.7975   -1.4239   -1.0118 C   0  0  0  0  0  0  0  0  0  0  0  0
   -3.0156   -0.2256   -0.4622 C   0  0  0  0  0  0  0  0  0  0  0  0
   -2.2362    0.9835   -0.6982 C   0  0  0  0  0  0  0  0  0  0  0  0
   -1.3051    1.0379   -1.8814 C   0  0  0  0  0  0  0  0  0  0  0  0
   -2.0122   -1.5878   -1.7397 H   0  0  0  0  0  0  0  0  0  0  0  0
   -3.4090   -2.2774   -0.7496 H   0  0  0  0  0  0  0  0  0  0  0  0
   -3.8187   -0.1337    0.2644 H   0  0  0  0  0  0  0  0  0  0  0  0
   -1.3944    1.0429    0.3401 H   0  0  0  0  0  0  0  0  0  0  0  0
   -2.8034    1.9000   -0.5380 H   0  0  0  0  0  0  0  0  0  0  0  0
   -1.8568    0.9563   -2.8226 H   0  0  0  0  0  0  0  0  0  0  0  0
   -0.5739    0.2278   -1.8509 H   0  0  0  0  0  0  0  0  0  0  0  0
   -0.7503    1.9770   -1.8943 H   0  0  0  0  0  0  0  0  0  0  0  0
   -0.2200    2.5642    1.5415 C   0  0  0  0  0  0  0  0  0  0  0  0
   -0.4237    1.0937    1.2949 C   0  0  0  0  0  0  0  0  0  0  0  0
    0.6582    0.2848    0.7274 C   0  0  0  0  0  0  0  0  0  0  0  0
    0.5378   -1.1109    0.7088 C   0  0  0  0  0  3  0  0  0  0  0  0
    1.4970   -1.9038    0.1078 C   0  0  0  0  0  0  0  0  0  0  0  0
    2.6094   -1.3248   -0.4898 C   0  0  0  0  0  0  0  0  0  0  0  0
    2.7489    0.0549   -0.4735 C   0  0  0  0  0  0  0  0  0  0  0  0
    1.7859    0.8508    0.1248 C   0  0  0  0  0  0  0  0  0  0  0  0
    0.0272    3.0969    0.6203 H   0  0  0  0  0  0  0  0  0  0  0  0
    0.5903    2.7469    2.2543 H   0  0  0  0  0  0  0  0  0  0  0  0
   -1.1278    3.0129    1.9461 H   0  0  0  0  0  0  0  0  0  0  0  0
   -0.9652    0.5812    2.0891 H   0  0  0  0  0  0  0  0  0  0  0  0
   -0.3342   -1.5683    1.1616 H   0  0  0  0  0  0  0  0  0  0  0  0
    1.3786   -2.9803    0.1043 H   0  0  0  0  0  0  0  0  0  0  0  0
    3.3622   -1.9446   -0.9598 H   0  0  0  0  0  0  0  0  0  0  0  0
    3.6155    0.5163   -0.9308 H   0  0  0  0  0  0  0  0  0  0  0  0
    1.9145    1.9257    0.1242 H   0  0  0  0  0  0  0  0  0  0  0  0
  1  2  2  3
  1  5  1  0
  1  6  1  0
  2  3  1  0
  2  7  1  0
  3  4  1  0
  3  8  1  0
  3  9  1  0
  4 10  1  0
  4 11  1  0
  4 12  1  0
 13 14  1  0
 13 21  1  0
 13 22  1  0
 13 23  1  0
 14 15  2  3
 14 24  1  0
 15 16  1  0
 15 20  1  0
 16 17  1  0
 16 25  1  0
 17 18  2  0
 17 26  1  0
 18 19  1  0
 18 27  1  0
 19 20  2  0
 19 28  1  0
 20 29  1  0
M  RAD  1  16   2
M  END
>  <reaction>  (4) 
rxn_1052

>  <mol_properties>  (4) 
{"1": {"label": "*0", "atom_type": "Cd"}, "2": {"label": "*1", "atom_type": "Cs"}, "7": {"label": "*2", "atom_type": "H0"}, "13": {"label": "*3", "atom_type": "Cd"}, "14": {"label": "*4", "atom_type": "Cd"}}

>  <type>  (4) 
ts

$$$$
