
     RDKit          3D

  8  7  0  0  0  0  0  0  0  0999 V2000
    0.7610    0.0250    0.0051 C   0  0  0  0  0  0  0  0  0  0  0  0
   -0.7610   -0.0250   -0.0051 C   0  0  0  0  0  0  0  0  0  0  0  0
    1.1904   -0.9237   -0.3217 H   0  0  0  0  0  0  0  0  0  0  0  0
    1.1359    0.8041   -0.6609 H   0  0  0  0  0  0  0  0  0  0  0  0
    1.1435    0.2336    1.0058 H   0  0  0  0  0  0  0  0  0  0  0  0
   -1.1435   -0.2336   -1.0058 H   0  0  0  0  0  0  0  0  0  0  0  0
   -1.1904    0.9237    0.3216 H   0  0  0  0  0  0  0  0  0  0  0  0
   -1.1359   -0.8041    0.6609 H   0  0  0  0  0  0  0  0  0  0  0  0
  1  2  1  0
  1  3  1  0
  1  4  1  0
  1  5  1  0
  2  6  1  0
  2  7  1  0
  2  8  1  0
M  END
>  <reaction>  (1) 
rxn_892

>  <mol_properties>  (1) 
{"1": {"label": "donator", "atom_type": "Cs"}, "5": {"label": "d_hydrogen", "atom_type": "H0"}}

>  <type>  (1) 
r1h

$$$$

     RDKit          3D

  9  8  0  0  0  0  0  0  0  0999 V2000
   -1.2704   -0.1236    0.1096 C   0  0  0  0  0  0  0  0  0  0  0  0
    0.0713   -0.5323    0.5887 C   0  0  0  0  0  0  0  0  0  0  0  0
    0.9521   -1.3639   -0.0464 C   0  0  0  0  0  0  0  0  0  0  0  0
    0.6900   -2.1109   -1.5335 S   0  0  0  0  0  1  0  0  0  0  0  0
   -1.3201    0.9657    0.0241 H   0  0  0  0  0  0  0  0  0  0  0  0
   -1.5103   -0.5706   -0.8526 H   0  0  0  0  0  0  0  0  0  0  0  0
   -2.0312   -0.4112    0.8411 H   0  0  0  0  0  0  0  0  0  0  0  0
    0.3863   -0.1265    1.5468 H   0  0  0  0  0  0  0  0  0  0  0  0
    1.8971   -1.5543    0.4552 H   0  0  0  0  0  0  0  0  0  0  0  0
  1  2  1  0
  1  5  1  0
  1  6  1  0
  1  7  1  0
  2  3  2  3
  2  8  1  0
  3  4  1  0
  3  9  1  0
M  RAD  1   4   2
M  END
>  <reaction>  (2) 
rxn_892

>  <mol_properties>  (2) 
{"1": {"label": "acceptor", "atom_type": "Cs"}}

>  <type>  (2) 
r2

$$$$

     RDKit          3D

 10  9  0  0  0  0  0  0  0  0999 V2000
   -1.1508    0.0666    0.2839 C   0  0  0  0  0  0  0  0  0  0  0  0
    0.1022   -0.3749   -0.4771 C   0  0  0  0  0  0  0  0  0  0  0  0
    1.3428    0.1620    0.1542 C   0  0  0  0  0  0  0  0  0  0  0  0
    2.5613   -0.6971    0.7526 S   0  0  0  0  0  0  0  0  0  0  0  0
   -1.2137    1.1546    0.3481 H   0  0  0  0  0  0  0  0  0  0  0  0
   -2.0472   -0.2935   -0.2212 H   0  0  0  0  0  0  0  0  0  0  0  0
   -1.1467   -0.3334    1.2987 H   0  0  0  0  0  0  0  0  0  0  0  0
    0.1602   -1.4616   -0.5369 H   0  0  0  0  0  0  0  0  0  0  0  0
    0.0536    0.0174   -1.4997 H   0  0  0  0  0  0  0  0  0  0  0  0
    1.3824    1.2528    0.2110 H   0  0  0  0  0  0  0  0  0  0  0  0
  1  2  1  0
  1  5  1  0
  1  6  1  0
  1  7  1  0
  2  3  1  0
  2  8  1  0
  2  9  1  0
  3  4  2  0
  3 10  1  0
M  END
>  <reaction>  (3) 
rxn_892

>  <mol_properties>  (3) 
{"1": {"label": "acceptor", "atom_type": "Cs"}, "9": {"label": "a_hydrogen", "atom_type": "H0"}}

>  <type>  (3) 
r2h

$$$$

     RDKit          3D

 17 15  0  0  0  0  0  0  0  0999 V2000
    1.9721    1.3411   -0.3638 C   0  0  0  0  0  0  0  0  0  0  0  0
    0.9879    0.5395    0.4542 C   0  0  0  0  0  0  0  0  0  0  0  0
   -0.4329    0.8221    0.3298 C   0  0  0  0  0  0  0  0  0  0  0  0
   -1.1638    1.6718   -0.8479 S   0  0  0  0  0  0  0  0  0  0  0  0
    1.7259    1.2952   -1.4247 H   0  0  0  0  0  0  0  0  0  0  0  0
    1.9549    2.3931   -0.0724 H   0  0  0  0  0  0  0  0  0  0  0  0
    2.9839    0.9597   -0.2209 H   0  0  0  0  0  0  0  0  0  0  0  0
    1.2816    0.4142    1.4983 H   0  0  0  0  0  0  0  0  0  0  0  0
   -1.0522    0.3659    1.1036 H   0  0  0  0  0  0  0  0  0  0  0  0
    0.1754   -2.0059   -1.5948 C   0  0  0  0  0  0  0  0  0  0  0  0
    1.3292   -1.9402   -0.6491 C   0  0  0  0  0  3  0  0  0  0  0  0
   -0.7786   -1.9706   -1.0653 H   0  0  0  0  0  0  0  0  0  0  0  0
    0.1944   -1.1784   -2.3054 H   0  0  0  0  0  0  0  0  0  0  0  0
    0.1933   -2.9379   -2.1713 H   0  0  0  0  0  0  0  0  0  0  0  0
    1.0970   -0.6253    0.0457 H   0  0  0  0  0  0  0  0  0  0  0  0
    2.3140   -1.7692   -1.0732 H   0  0  0  0  0  0  0  0  0  0  0  0
    1.3234   -2.6222    0.1962 H   0  0  0  0  0  0  0  0  0  0  0  0
  1  2  1  0
  1  5  1  0
  1  6  1  0
  1  7  1  0
  2  3  1  0
  2  8  1  0
  2 15  1  0
  3  4  2  0
  3  9  1  0
 10 11  1  0
 10 12  1  0
 10 13  1  0
 10 14  1  0
 11 16  1  0
 11 17  1  0
M  RAD  1  11   2
M  END
>  <reaction>  (4) 
rxn_892

>  <mol_properties>  (4) 
{"1": {"label": "*1", "atom_type": "Cs"}, "2": {"label": "*0", "atom_type": "CS"}, "9": {"label": "*4", "atom_type": "Cs"}, "10": {"label": "*3", "atom_type": "Cs"}, "14": {"label": "*2", "atom_type": "H0"}}

>  <type>  (4) 
ts

$$$$
