
     RDKit          3D

  4  3  0  0  0  0  0  0  0  0999 V2000
    0.5949   -0.3853    0.2659 O   0  0  0  0  0  0  0  0  0  0  0  0
   -0.5918    0.4028    0.2462 O   0  0  0  0  0  0  0  0  0  0  0  0
    1.1865    0.1539   -0.2689 H   0  0  0  0  0  0  0  0  0  0  0  0
   -1.1896   -0.1714   -0.2432 H   0  0  0  0  0  0  0  0  0  0  0  0
  1  2  1  0
  1  3  1  0
  2  4  1  0
M  END
>  <reaction>  (1) 
rxn_5

>  <mol_properties>  (1) 
{"1": {"label": "donator", "atom_type": "O2s"}, "3": {"label": "d_hydrogen", "atom_type": "H0"}}

>  <type>  (1) 
r1h

$$$$

     RDKit          3D

 14 13  0  0  0  0  0  0  0  0999 V2000
    2.0159   -0.1953   -0.0278 C   0  0  0  0  0  0  0  0  0  0  0  0
    0.6931    0.4367    0.1988 C   0  0  0  0  0  3  0  0  0  0  0  0
    0.4758    1.8859   -0.0767 C   0  0  0  0  0  0  0  0  0  0  0  0
   -0.9259    2.3476    0.2906 C   0  0  0  0  0  0  0  0  0  0  0  0
    0.7867    2.2098   -1.4343 O   0  0  0  0  0  0  0  0  0  0  0  0
    2.6623   -0.0933    0.8562 H   0  0  0  0  0  0  0  0  0  0  0  0
    2.5384    0.2786   -0.8610 H   0  0  0  0  0  0  0  0  0  0  0  0
    1.9278   -1.2642   -0.2307 H   0  0  0  0  0  0  0  0  0  0  0  0
   -0.0828   -0.1183    0.7139 H   0  0  0  0  0  0  0  0  0  0  0  0
    1.2035    2.4780    0.4940 H   0  0  0  0  0  0  0  0  0  0  0  0
   -1.1176    2.1936    1.3544 H   0  0  0  0  0  0  0  0  0  0  0  0
   -1.6743    1.7841   -0.2732 H   0  0  0  0  0  0  0  0  0  0  0  0
   -1.0467    3.4064    0.0628 H   0  0  0  0  0  0  0  0  0  0  0  0
    0.2556    1.6394   -1.9956 H   0  0  0  0  0  0  0  0  0  0  0  0
  1  2  1  0
  1  6  1  0
  1  7  1  0
  1  8  1  0
  2  3  1  0
  2  9  1  0
  3  4  1  0
  3  5  1  0
  3 10  1  0
  4 11  1  0
  4 12  1  0
  4 13  1  0
  5 14  1  0
M  RAD  1   2   2
M  END
>  <reaction>  (2) 
rxn_5

>  <mol_properties>  (2) 
{"1": {"label": "acceptor", "atom_type": "Cs"}}

>  <type>  (2) 
r2

$$$$

     RDKit          3D

 15 14  0  0  0  0  0  0  0  0999 V2000
    1.8142    0.7938   -0.4532 C   0  0  0  0  0  0  0  0  0  0  0  0
    0.8343   -0.0482    0.3508 C   0  0  0  0  0  0  0  0  0  0  0  0
    1.2689   -1.5028    0.5052 C   0  0  0  0  0  0  0  0  0  0  0  0
    0.3206   -2.2929    1.3933 C   0  0  0  0  0  0  0  0  0  0  0  0
    1.4305   -2.1354   -0.7561 O   0  0  0  0  0  0  0  0  0  0  0  0
    1.9652    0.3705   -1.4464 H   0  0  0  0  0  0  0  0  0  0  0  0
    1.4536    1.8171   -0.5671 H   0  0  0  0  0  0  0  0  0  0  0  0
    2.7876    0.8346    0.0411 H   0  0  0  0  0  0  0  0  0  0  0  0
    0.7005    0.3820    1.3477 H   0  0  0  0  0  0  0  0  0  0  0  0
   -0.1543   -0.0316   -0.1246 H   0  0  0  0  0  0  0  0  0  0  0  0
    2.2701   -1.5232    0.9456 H   0  0  0  0  0  0  0  0  0  0  0  0
   -0.6918   -2.2835    0.9773 H   0  0  0  0  0  0  0  0  0  0  0  0
    0.2728   -1.8641    2.3960 H   0  0  0  0  0  0  0  0  0  0  0  0
    0.6493   -3.3293    1.4729 H   0  0  0  0  0  0  0  0  0  0  0  0
    0.5703   -2.1794   -1.1802 H   0  0  0  0  0  0  0  0  0  0  0  0
  1  2  1  0
  1  6  1  0
  1  7  1  0
  1  8  1  0
  2  3  1  0
  2  9  1  0
  2 10  1  0
  3  4  1  0
  3  5  1  0
  3 11  1  0
  4 12  1  0
  4 13  1  0
  4 14  1  0
  5 15  1  0
M  END
>  <reaction>  (3) 
rxn_5

>  <mol_properties>  (3) 
{"0": {"label": "a_hydrogen", "atom_type": "H0"}, "2": {"label": "acceptor", "atom_type": "Cs"}}

>  <type>  (3) 
r2h

$$$$

     RDKit          3D

 18 16  0  0  0  0  0  0  0  0999 V2000
   -0.1687   -2.0316   -1.4867 O   0  0  0  0  0  0  0  0  0  0  0  0
    0.8299   -1.9095   -0.5298 O   0  0  0  0  0  0  0  0  0  0  0  0
    0.3156   -1.9566   -2.3174 H   0  0  0  0  0  0  0  0  0  0  0  0
    0.8008   -0.7709   -0.2181 H   0  0  0  0  0  0  0  0  0  0  0  0
    0.7331    1.1839   -1.3288 C   0  0  0  0  0  0  0  0  0  0  0  0
    0.6670    0.5407    0.0244 C   0  0  0  0  0  3  0  0  0  0  0  0
   -0.6510    0.6317    0.7621 C   0  0  0  0  0  0  0  0  0  0  0  0
   -0.6616   -0.1819    2.0432 C   0  0  0  0  0  0  0  0  0  0  0  0
   -0.9753    1.9980    1.0080 O   0  0  0  0  0  0  0  0  0  0  0  0
    0.5640    2.2616   -1.2455 H   0  0  0  0  0  0  0  0  0  0  0  0
   -0.0460    0.7865   -1.9839 H   0  0  0  0  0  0  0  0  0  0  0  0
    1.7040    1.0274   -1.8001 H   0  0  0  0  0  0  0  0  0  0  0  0
    1.5345    0.7290    0.6626 H   0  0  0  0  0  0  0  0  0  0  0  0
   -1.4434    0.2763    0.0991 H   0  0  0  0  0  0  0  0  0  0  0  0
    0.1270    0.1592    2.7216 H   0  0  0  0  0  0  0  0  0  0  0  0
   -0.4893   -1.2374    1.8300 H   0  0  0  0  0  0  0  0  0  0  0  0
   -1.6215   -0.0753    2.5485 H   0  0  0  0  0  0  0  0  0  0  0  0
   -0.3875    2.3248    1.6933 H   0  0  0  0  0  0  0  0  0  0  0  0
  1  2  1  0
  1  3  1  0
  2  4  1  0
  5  6  1  0
  5 10  1  0
  5 11  1  0
  5 12  1  0
  6  7  1  0
  6 13  1  0
  7  8  1  0
  7  9  1  0
  7 14  1  0
  8 15  1  0
  8 16  1  0
  8 17  1  0
  9 18  1  0
M  RAD  1   6   2
M  END
>  <reaction>  (4) 
rxn_5

>  <mol_properties>  (4) 
{"0": {"label": "*0", "atom_type": "O2s"}, "1": {"label": "*1", "atom_type": "O2s"}, "3": {"label": "*2", "atom_type": "H0"}, "5": {"label": "*3", "atom_type": "Cs"}, "6": {"label": "*4", "atom_type": "Cs"}}

>  <type>  (4) 
ts

$$$$
