
     RDKit          3D

  9  8  0  0  0  0  0  0  0  0999 V2000
   -2.1022   -0.6873    0.3932 C   0  0  0  0  0  0  0  0  0  0  0  0
   -1.2072   -0.1086   -0.1482 C   0  0  0  0  0  0  0  0  0  0  0  0
   -0.1242    0.6105   -0.8193 C   0  0  0  0  0  0  0  0  0  0  0  0
    1.2067    0.1106   -0.4741 C   0  0  0  0  0  0  0  0  0  0  0  0
    2.3005   -0.2875   -0.2012 C   0  0  0  0  0  0  0  0  0  0  0  0
   -2.8942   -1.2059    0.8778 H   0  0  0  0  0  0  0  0  0  0  0  0
   -0.1862    1.6723   -0.5649 H   0  0  0  0  0  0  0  0  0  0  0  0
   -0.2641    0.5418   -1.9017 H   0  0  0  0  0  0  0  0  0  0  0  0
    3.2709   -0.6459    0.0455 H   0  0  0  0  0  0  0  0  0  0  0  0
  1  2  3  0
  1  6  1  0
  2  3  1  0
  3  4  1  0
  3  7  1  0
  3  8  1  0
  4  5  3  0
  5  9  1  0
M  END
>  <reaction>  (1) 
rxn_1367

>  <mol_properties>  (1) 
{"2": {"label": "donator", "atom_type": "Cs"}, "6": {"label": "d_hydrogen", "atom_type": "H0"}}

>  <type>  (1) 
r1h

$$$$

     RDKit          3D

  5  4  0  0  0  0  0  0  0  0999 V2000
   -0.5642    0.0794    0.0348 C   0  0  0  0  0  3  0  0  0  0  0  0
    1.0624    0.5420    0.2853 S   0  0  0  0  0  0  0  0  0  0  0  0
   -1.3257    0.7631    0.3741 H   0  0  0  0  0  0  0  0  0  0  0  0
   -0.8236   -0.8519   -0.4401 H   0  0  0  0  0  0  0  0  0  0  0  0
    1.6511   -0.5325   -0.2540 H   0  0  0  0  0  0  0  0  0  0  0  0
  1  2  1  0
  1  3  1  0
  1  4  1  0
  2  5  1  0
M  RAD  1   1   2
M  END
>  <reaction>  (2) 
rxn_1367

>  <mol_properties>  (2) 
{"0": {"label": "acceptor", "atom_type": "Cs"}}

>  <type>  (2) 
r2

$$$$

     RDKit          3D

  6  5  0  0  0  0  0  0  0  0999 V2000
   -0.5072   -0.0291   -0.0097 C   0  0  0  0  0  0  0  0  0  0  0  0
    1.1321   -0.1527   -0.7687 S   0  0  0  0  0  0  0  0  0  0  0  0
   -0.6174   -0.7330    0.8127 H   0  0  0  0  0  0  0  0  0  0  0  0
   -0.5863    0.9827    0.3845 H   0  0  0  0  0  0  0  0  0  0  0  0
   -1.2962   -0.1800   -0.7434 H   0  0  0  0  0  0  0  0  0  0  0  0
    1.0312   -1.4237   -1.1764 H   0  0  0  0  0  0  0  0  0  0  0  0
  1  2  1  0
  1  3  1  0
  1  4  1  0
  1  5  1  0
  2  6  1  0
M  END
>  <reaction>  (3) 
rxn_1367

>  <mol_properties>  (3) 
{"0": {"label": "a_hydrogen", "atom_type": "H0"}, "1": {"label": "acceptor", "atom_type": "Cs"}}

>  <type>  (3) 
r2h

$$$$

     RDKit          3D

 14 12  0  0  0  0  0  0  0  0999 V2000
    0.3881   -2.1384   -2.3826 C   0  0  0  0  0  0  0  0  0  0  0  0
    0.0814   -1.7957   -1.2750 C   0  0  0  0  0  0  0  0  0  0  0  0
   -0.2199   -1.3472    0.0563 C   0  0  0  0  0  0  0  0  0  0  0  0
   -1.4778   -0.6819    0.2501 C   0  0  0  0  0  0  0  0  0  0  0  0
   -2.4919   -0.0689    0.4401 C   0  0  0  0  0  0  0  0  0  0  0  0
    0.6411   -2.4547   -3.3658 H   0  0  0  0  0  0  0  0  0  0  0  0
    0.6666   -0.4391    0.3423 H   0  0  0  0  0  0  0  0  0  0  0  0
   -0.0175   -2.0997    0.8187 H   0  0  0  0  0  0  0  0  0  0  0  0
   -3.4095    0.4448    0.5978 H   0  0  0  0  0  0  0  0  0  0  0  0
    1.5253    0.6375    0.6401 C   0  0  0  0  0  3  0  0  0  0  0  0
    1.0311    1.3360    2.1657 S   0  0  0  0  0  0  0  0  0  0  0  0
    2.5089    0.1829    0.7106 H   0  0  0  0  0  0  0  0  0  0  0  0
    1.3886    1.2586   -0.2402 H   0  0  0  0  0  0  0  0  0  0  0  0
   -0.1234    1.8666    1.7406 H   0  0  0  0  0  0  0  0  0  0  0  0
  1  2  3  0
  1  6  1  0
  2  3  1  0
  3  4  1  0
  3  7  1  0
  3  8  1  0
  4  5  3  0
  5  9  1  0
 10 11  1  0
 10 12  1  0
 10 13  1  0
 11 14  1  0
M  RAD  1  10   2
M  END
>  <reaction>  (4) 
rxn_1367

>  <mol_properties>  (4) 
{"1": {"label": "*0", "atom_type": "Ct"}, "2": {"label": "*1", "atom_type": "Cs"}, "6": {"label": "*2", "atom_type": "H0"}, "9": {"label": "*3", "atom_type": "Cs"}, "10": {"label": "*4", "atom_type": "S2s"}}

>  <type>  (4) 
ts

$$$$
