
     RDKit          3D

 25 26  0  0  0  0  0  0  0  0999 V2000
    2.0298   -1.1515    0.0571 C   0  0  0  0  0  0  0  0  0  0  0  0
    2.2278    0.2445    0.6528 C   0  0  0  0  0  0  0  0  0  0  0  0
    1.2292    1.2625    0.0947 C   0  0  0  0  0  0  0  0  0  0  0  0
   -0.1869    0.7454    0.2762 C   0  0  0  0  0  0  0  0  0  0  0  0
   -1.3415    1.5501   -0.3122 C   0  0  0  0  0  0  0  0  0  0  0  0
   -2.5060    0.5338   -0.4178 C   0  0  0  0  0  0  0  0  0  0  0  0
   -1.8709   -0.8658   -0.2234 C   0  0  0  0  0  0  0  0  0  0  0  0
   -0.3715   -0.6265   -0.3693 C   0  0  0  0  0  0  0  0  0  0  0  0
    0.5898   -1.6500    0.2086 C   0  0  0  0  0  0  0  0  0  0  0  0
    2.2820   -1.1226   -1.0088 H   0  0  0  0  0  0  0  0  0  0  0  0
    2.7243   -1.8549    0.5221 H   0  0  0  0  0  0  0  0  0  0  0  0
    2.1030    0.1885    1.7400 H   0  0  0  0  0  0  0  0  0  0  0  0
    3.2514    0.5819    0.4743 H   0  0  0  0  0  0  0  0  0  0  0  0
    1.3611    2.2304    0.5855 H   0  0  0  0  0  0  0  0  0  0  0  0
    1.4198    1.4194   -0.9737 H   0  0  0  0  0  0  0  0  0  0  0  0
   -0.3675    0.6209    1.3539 H   0  0  0  0  0  0  0  0  0  0  0  0
   -1.5992    2.4249    0.2862 H   0  0  0  0  0  0  0  0  0  0  0  0
   -1.0595    1.9116   -1.3055 H   0  0  0  0  0  0  0  0  0  0  0  0
   -3.2666    0.7244    0.3399 H   0  0  0  0  0  0  0  0  0  0  0  0
   -3.0030    0.6112   -1.3853 H   0  0  0  0  0  0  0  0  0  0  0  0
   -2.2549   -1.6039   -0.9288 H   0  0  0  0  0  0  0  0  0  0  0  0
   -2.0796   -1.2429    0.7821 H   0  0  0  0  0  0  0  0  0  0  0  0
   -0.1432   -0.5121   -1.4391 H   0  0  0  0  0  0  0  0  0  0  0  0
    0.4720   -2.6209   -0.2799 H   0  0  0  0  0  0  0  0  0  0  0  0
    0.3601   -1.7986    1.2704 H   0  0  0  0  0  0  0  0  0  0  0  0
  1  2  1  0
  1  9  1  0
  1 10  1  0
  1 11  1  0
  2  3  1  0
  2 12  1  0
  2 13  1  0
  3  4  1  0
  3 14  1  0
  3 15  1  0
  4  5  1  0
  4  8  1  0
  4 16  1  0
  5  6  1  0
  5 17  1  0
  5 18  1  0
  6  7  1  0
  6 19  1  0
  6 20  1  0
  7  8  1  0
  7 21  1  0
  7 22  1  0
  8  9  1  0
  8 23  1  0
  9 24  1  0
  9 25  1  0
M  END
>  <reaction>  (1) 
rxn_616

>  <mol_properties>  (1) 
{"5": {"label": "donator", "atom_type": "Cs"}, "18": {"label": "d_hydrogen", "atom_type": "H0"}}

>  <type>  (1) 
r1h

$$$$

     RDKit          3D

  5  4  0  0  0  0  0  0  0  0999 V2000
    0.0397    0.7134    0.0000 C   0  0  0  0  0  3  0  0  0  0  0  0
    0.0458   -0.5870    0.0000 C   0  0  0  0  0  0  0  0  0  0  0  0
   -0.6871    1.5118    0.0000 H   0  0  0  0  0  0  0  0  0  0  0  0
   -0.8806   -1.1637    0.0000 H   0  0  0  0  0  0  0  0  0  0  0  0
    0.9690   -1.1600    0.0000 H   0  0  0  0  0  0  0  0  0  0  0  0
  1  2  2  3
  1  3  1  0
  2  4  1  0
  2  5  1  0
M  RAD  1   1   2
M  END
>  <reaction>  (2) 
rxn_616

>  <mol_properties>  (2) 
{"0": {"label": "acceptor", "atom_type": "Cd"}}

>  <type>  (2) 
r2

$$$$

     RDKit          3D

  6  5  0  0  0  0  0  0  0  0999 V2000
    0.6594    0.0438   -0.0050 C   0  0  0  0  0  0  0  0  0  0  0  0
   -0.6594   -0.0438    0.0050 C   0  0  0  0  0  0  0  0  0  0  0  0
    1.1706    0.8681   -0.4881 H   0  0  0  0  0  0  0  0  0  0  0  0
    1.2824   -0.7051    0.4696 H   0  0  0  0  0  0  0  0  0  0  0  0
   -1.2824    0.7051   -0.4696 H   0  0  0  0  0  0  0  0  0  0  0  0
   -1.1706   -0.8681    0.4881 H   0  0  0  0  0  0  0  0  0  0  0  0
  1  2  2  3
  1  3  1  0
  1  4  1  0
  2  5  1  0
  2  6  1  0
M  END
>  <reaction>  (3) 
rxn_616

>  <mol_properties>  (3) 
{"0": {"label": "acceptor", "atom_type": "Cd"}, "5": {"label": "a_hydrogen", "atom_type": "H0"}}

>  <type>  (3) 
r2h

$$$$

     RDKit          3D

 30 30  0  0  0  0  0  0  0  0999 V2000
    0.0723    3.4778    0.6973 C   0  0  0  0  0  3  0  0  0  0  0  0
   -0.6162    3.1471    1.7644 C   0  0  0  0  0  0  0  0  0  0  0  0
    0.1453    4.4518    0.2268 H   0  0  0  0  0  0  0  0  0  0  0  0
   -1.2185    3.8697    2.3115 H   0  0  0  0  0  0  0  0  0  0  0  0
   -0.6158    2.1317    2.1505 H   0  0  0  0  0  0  0  0  0  0  0  0
   -1.2024   -2.5973   -0.8920 C   0  0  0  0  0  0  0  0  0  0  0  0
   -1.1091   -2.5319    0.6346 C   0  0  0  0  0  0  0  0  0  0  0  0
    0.1628   -1.8245    1.1118 C   0  0  0  0  0  0  0  0  0  0  0  0
    0.2600   -0.4571    0.4606 C   0  0  0  0  0  0  0  0  0  0  0  0
    1.5010    0.3953    0.7020 C   0  0  0  0  0  0  0  0  0  0  0  0
    1.4268    1.4382   -0.4120 C   0  0  0  0  0  0  0  0  0  0  0  0
    0.5284    0.8699   -1.5193 C   0  0  0  0  0  0  0  0  0  0  0  0
    0.2230   -0.5592   -1.0640 C   0  0  0  0  0  0  0  0  0  0  0  0
   -1.0561   -1.2202   -1.5459 C   0  0  0  0  0  0  0  0  0  0  0  0
   -0.4087   -3.2518   -1.2693 H   0  0  0  0  0  0  0  0  0  0  0  0
   -2.1494   -3.0562   -1.1854 H   0  0  0  0  0  0  0  0  0  0  0  0
   -1.9788   -1.9891    1.0212 H   0  0  0  0  0  0  0  0  0  0  0  0
   -1.1606   -3.5399    1.0523 H   0  0  0  0  0  0  0  0  0  0  0  0
    0.1640   -1.7431    2.2020 H   0  0  0  0  0  0  0  0  0  0  0  0
    1.0424   -2.4182    0.8362 H   0  0  0  0  0  0  0  0  0  0  0  0
   -0.6182    0.1304    0.7655 H   0  0  0  0  0  0  0  0  0  0  0  0
    1.5386    0.8448    1.6968 H   0  0  0  0  0  0  0  0  0  0  0  0
    2.3999   -0.2227    0.5938 H   0  0  0  0  0  0  0  0  0  0  0  0
    0.8441    2.4348    0.0662 H   0  0  0  0  0  0  0  0  0  0  0  0
    2.3860    1.8361   -0.7389 H   0  0  0  0  0  0  0  0  0  0  0  0
    0.9979    0.9074   -2.5034 H   0  0  0  0  0  0  0  0  0  0  0  0
   -0.4020    1.4444   -1.5867 H   0  0  0  0  0  0  0  0  0  0  0  0
    1.0664   -1.1990   -1.3602 H   0  0  0  0  0  0  0  0  0  0  0  0
   -1.0642   -1.3159   -2.6349 H   0  0  0  0  0  0  0  0  0  0  0  0
   -1.9103   -0.5883   -1.2756 H   0  0  0  0  0  0  0  0  0  0  0  0
  1  2  2  3
  1  3  1  0
  2  4  1  0
  2  5  1  0
  6  7  1  0
  6 14  1  0
  6 15  1  0
  6 16  1  0
  7  8  1  0
  7 17  1  0
  7 18  1  0
  8  9  1  0
  8 19  1  0
  8 20  1  0
  9 10  1  0
  9 13  1  0
  9 21  1  0
 10 11  1  0
 10 22  1  0
 10 23  1  0
 11 12  1  0
 11 24  1  0
 11 25  1  0
 12 13  1  0
 12 26  1  0
 12 27  1  0
 13 14  1  0
 13 28  1  0
 14 29  1  0
 14 30  1  0
M  RAD  1   1   2
M  END
>  <reaction>  (4) 
rxn_616

>  <mol_properties>  (4) 
{"0": {"label": "*3", "atom_type": "Cd"}, "1": {"label": "*4", "atom_type": "Cd"}, "9": {"label": "*0", "atom_type": "Cs"}, "10": {"label": "*1", "atom_type": "Cs"}, "23": {"label": "*2", "atom_type": "H0"}}

>  <type>  (4) 
ts

$$$$
