
     RDKit          3D

 18 18  0  0  0  0  0  0  0  0999 V2000
   -2.4852    0.3210   -0.3966 C   0  0  0  0  0  0  0  0  0  0  0  0
   -1.5917   -0.2708    0.6941 C   0  0  0  0  0  0  0  0  0  0  0  0
   -0.1292   -0.1692    0.3493 C   0  0  0  0  0  0  0  0  0  0  0  0
    0.6099    0.9558    0.7015 C   0  0  0  0  0  0  0  0  0  0  0  0
    1.9447    1.0728    0.3458 C   0  0  0  0  0  0  0  0  0  0  0  0
    2.5646    0.0613   -0.3720 C   0  0  0  0  0  0  0  0  0  0  0  0
    1.8399   -1.0657   -0.7287 C   0  0  0  0  0  0  0  0  0  0  0  0
    0.5055   -1.1769   -0.3700 C   0  0  0  0  0  0  0  0  0  0  0  0
   -2.3325   -0.1971   -1.3452 H   0  0  0  0  0  0  0  0  0  0  0  0
   -2.2554    1.3763   -0.5546 H   0  0  0  0  0  0  0  0  0  0  0  0
   -3.5397    0.2376   -0.1280 H   0  0  0  0  0  0  0  0  0  0  0  0
   -1.7801    0.2462    1.6380 H   0  0  0  0  0  0  0  0  0  0  0  0
   -1.8568   -1.3190    0.8516 H   0  0  0  0  0  0  0  0  0  0  0  0
    0.1327    1.7497    1.2656 H   0  0  0  0  0  0  0  0  0  0  0  0
    2.5033    1.9550    0.6330 H   0  0  0  0  0  0  0  0  0  0  0  0
    3.6077    0.1491   -0.6484 H   0  0  0  0  0  0  0  0  0  0  0  0
    2.3163   -1.8632   -1.2854 H   0  0  0  0  0  0  0  0  0  0  0  0
   -0.0540   -2.0629   -0.6500 H   0  0  0  0  0  0  0  0  0  0  0  0
  1  2  1  0
  1  9  1  0
  1 10  1  0
  1 11  1  0
  2  3  1  0
  2 12  1  0
  2 13  1  0
  3  4  2  0
  3  8  1  0
  4  5  1  0
  4 14  1  0
  5  6  2  0
  5 15  1  0
  6  7  1  0
  6 16  1  0
  7  8  2  0
  7 17  1  0
  8 18  1  0
M  END
>  <reaction>  (1) 
rxn_445

>  <mol_properties>  (1) 
{"2": {"label": "donator", "atom_type": "Cs"}, "17": {"label": "d_hydrogen", "atom_type": "H0"}}

>  <type>  (1) 
r1h

$$$$

     RDKit          3D

  3  2  0  0  0  0  0  0  0  0999 V2000
    0.9943   -0.1797    0.0000 O   0  0  0  0  0  1  0  0  0  0  0  0
   -0.1595    0.4394    0.0000 O   0  0  0  0  0  0  0  0  0  0  0  0
   -0.8348   -0.2597    0.0000 H   0  0  0  0  0  0  0  0  0  0  0  0
  1  2  1  0
  2  3  1  0
M  RAD  1   1   2
M  END
>  <reaction>  (2) 
rxn_445

>  <mol_properties>  (2) 
{"1": {"label": "acceptor", "atom_type": "O2s"}}

>  <type>  (2) 
r2

$$$$

     RDKit          3D

  4  3  0  0  0  0  0  0  0  0999 V2000
    0.5949   -0.3853    0.2659 O   0  0  0  0  0  0  0  0  0  0  0  0
   -0.5918    0.4028    0.2462 O   0  0  0  0  0  0  0  0  0  0  0  0
    1.1865    0.1539   -0.2689 H   0  0  0  0  0  0  0  0  0  0  0  0
   -1.1896   -0.1714   -0.2432 H   0  0  0  0  0  0  0  0  0  0  0  0
  1  2  1  0
  1  3  1  0
  2  4  1  0
M  END
>  <reaction>  (3) 
rxn_445

>  <mol_properties>  (3) 
{"1": {"label": "acceptor", "atom_type": "O2s"}, "3": {"label": "a_hydrogen", "atom_type": "H0"}}

>  <type>  (3) 
r2h

$$$$

     RDKit          3D

 21 20  0  0  0  0  0  0  0  0999 V2000
   -1.2513    2.5927    0.3007 O   0  0  0  0  0  0  0  0  0  0  0  0
   -2.2456    1.6704    0.5323 O   0  0  0  0  0  0  0  0  0  0  0  0
   -2.1383   -1.5403   -0.1329 C   0  0  0  0  0  0  0  0  0  0  0  0
    0.0715   -0.2242   -0.3206 C   0  0  0  0  0  0  0  0  0  0  0  0
   -1.3483   -0.3697   -0.6593 C   0  0  0  0  0  0  0  0  0  0  0  0
    0.8791    0.6314   -1.0810 C   0  0  0  0  0  3  0  0  0  0  0  0
    0.6472   -0.8587    0.7861 C   0  0  0  0  0  0  0  0  0  0  0  0
    2.2081    0.8352   -0.7569 C   0  0  0  0  0  0  0  0  0  0  0  0
    2.7640    0.1926    0.3407 C   0  0  0  0  0  0  0  0  0  0  0  0
    1.9774   -0.6546    1.1090 C   0  0  0  0  0  0  0  0  0  0  0  0
   -2.1461   -1.5687    0.9578 H   0  0  0  0  0  0  0  0  0  0  0  0
   -1.7210   -2.4874   -0.4884 H   0  0  0  0  0  0  0  0  0  0  0  0
   -3.1735   -1.4817   -0.4676 H   0  0  0  0  0  0  0  0  0  0  0  0
   -1.5589   -0.1290   -1.7010 H   0  0  0  0  0  0  0  0  0  0  0  0
    0.4464    1.1417   -1.9329 H   0  0  0  0  0  0  0  0  0  0  0  0
    2.8135    1.4979   -1.3622 H   0  0  0  0  0  0  0  0  0  0  0  0
    0.0504   -1.5245    1.3958 H   0  0  0  0  0  0  0  0  0  0  0  0
    3.8045    0.3492    0.5949 H   0  0  0  0  0  0  0  0  0  0  0  0
    2.4050   -1.1614    1.9651 H   0  0  0  0  0  0  0  0  0  0  0  0
   -0.6088    2.4191    1.0010 H   0  0  0  0  0  0  0  0  0  0  0  0
   -1.8756    0.6701   -0.0807 H   0  0  0  0  0  0  0  0  0  0  0  0
  1  2  1  0
  1 20  1  0
  2 21  1  0
  3  5  1  0
  3 11  1  0
  3 12  1  0
  3 13  1  0
  4  5  2  3
  4  6  1  0
  4  7  1  0
  5 14  1  0
  6  8  1  0
  6 15  1  0
  7 10  2  0
  7 17  1  0
  8  9  2  0
  8 16  1  0
  9 10  1  0
  9 18  1  0
 10 19  1  0
M  RAD  1   6   2
M  END
>  <reaction>  (4) 
rxn_445

>  <mol_properties>  (4) 
{"0": {"label": "*0", "atom_type": "O2s"}, "1": {"label": "*1", "atom_type": "O2s"}, "3": {"label": "*4", "atom_type": "Cd"}, "4": {"label": "*3", "atom_type": "Cd"}, "20": {"label": "*2", "atom_type": "H0"}}

>  <type>  (4) 
ts

$$$$
