
     RDKit          3D

  7  6  0  0  0  0  0  0  0  0999 V2000
   -0.6782    0.0507    0.0301 C   0  0  0  0  0  0  0  0  0  0  0  0
    0.8092    0.0996    0.0213 C   0  0  0  0  0  0  0  0  0  0  0  0
    1.7473    0.7521    1.1507 S   0  0  0  0  0  0  0  0  0  0  0  0
   -1.0667    0.5456   -0.8653 H   0  0  0  0  0  0  0  0  0  0  0  0
   -1.0112   -0.9904   -0.0239 H   0  0  0  0  0  0  0  0  0  0  0  0
   -1.0920    0.5225    0.9188 H   0  0  0  0  0  0  0  0  0  0  0  0
    1.2740   -0.3620   -0.8520 H   0  0  0  0  0  0  0  0  0  0  0  0
  1  2  1  0
  1  4  1  0
  1  5  1  0
  1  6  1  0
  2  3  2  0
  2  7  1  0
M  END
>  <reaction>  (1) 
rxn_1986

>  <mol_properties>  (1) 
{"0": {"label": "donator", "atom_type": "Cs"}, "3": {"label": "d_hydrogen", "atom_type": "H0"}}

>  <type>  (1) 
r1h

$$$$

     RDKit          3D

 10  9  0  0  0  0  0  0  0  0999 V2000
   -1.2648    0.1959    0.8197 C   0  0  0  0  0  0  0  0  0  0  0  0
   -0.2805    0.0995   -0.3030 C   0  0  0  0  0  3  0  0  0  0  0  0
   -0.0444    1.1347   -1.1797 C   0  0  0  0  0  0  0  0  0  0  0  0
    0.1640    2.0467   -1.9525 C   0  0  0  0  0  0  0  0  0  0  0  0
    0.5686   -1.4168   -0.4488 S   0  0  0  0  0  0  0  0  0  0  0  0
   -2.0466   -0.5638    0.7258 H   0  0  0  0  0  0  0  0  0  0  0  0
   -0.7765    0.0454    1.7871 H   0  0  0  0  0  0  0  0  0  0  0  0
   -1.7371    1.1762    0.8222 H   0  0  0  0  0  0  0  0  0  0  0  0
    0.3433    2.8484   -2.6273 H   0  0  0  0  0  0  0  0  0  0  0  0
    1.3075   -1.0953   -1.5176 H   0  0  0  0  0  0  0  0  0  0  0  0
  1  2  1  0
  1  6  1  0
  1  7  1  0
  1  8  1  0
  2  3  1  0
  2  5  1  0
  3  4  3  0
  4  9  1  0
  5 10  1  0
M  RAD  1   2   2
M  END
>  <reaction>  (2) 
rxn_1986

>  <mol_properties>  (2) 
{"1": {"label": "acceptor", "atom_type": "Cs"}}

>  <type>  (2) 
r2

$$$$

     RDKit          3D

 11 10  0  0  0  0  0  0  0  0999 V2000
   -1.2582   -0.5130    0.2160 C   0  0  0  0  0  0  0  0  0  0  0  0
   -0.1109    0.0509   -0.6210 C   0  0  0  0  0  0  0  0  0  0  0  0
    1.1862   -0.2025   -0.0072 C   0  0  0  0  0  0  0  0  0  0  0  0
    2.2351   -0.4206    0.5274 C   0  0  0  0  0  0  0  0  0  0  0  0
   -0.3298    1.8272   -1.0120 S   0  0  0  0  0  0  0  0  0  0  0  0
   -1.2875   -0.0327    1.1945 H   0  0  0  0  0  0  0  0  0  0  0  0
   -2.2088   -0.3391   -0.2866 H   0  0  0  0  0  0  0  0  0  0  0  0
   -1.1220   -1.5854    0.3655 H   0  0  0  0  0  0  0  0  0  0  0  0
   -0.1222   -0.4181   -1.6078 H   0  0  0  0  0  0  0  0  0  0  0  0
    3.1729   -0.6098    0.9920 H   0  0  0  0  0  0  0  0  0  0  0  0
   -0.1942    2.2663    0.2466 H   0  0  0  0  0  0  0  0  0  0  0  0
  1  2  1  0
  1  6  1  0
  1  7  1  0
  1  8  1  0
  2  3  1  0
  2  5  1  0
  2  9  1  0
  3  4  3  0
  4 10  1  0
  5 11  1  0
M  END
>  <reaction>  (3) 
rxn_1986

>  <mol_properties>  (3) 
{"1": {"label": "acceptor", "atom_type": "Cs"}, "10": {"label": "a_hydrogen", "atom_type": "H0"}}

>  <type>  (3) 
r2h

$$$$

     RDKit          3D

 17 15  0  0  0  0  0  0  0  0999 V2000
   -0.0657    1.1682    2.6084 C   0  0  0  0  0  0  0  0  0  0  0  0
   -0.5877    0.6667    1.2789 C   0  0  0  0  0  3  0  0  0  0  0  0
   -1.3055    1.5994    0.4768 C   0  0  0  0  0  0  0  0  0  0  0  0
   -1.8563    2.3851   -0.2454 C   0  0  0  0  0  0  0  0  0  0  0  0
   -1.2717   -0.9712    1.3865 S   0  0  0  0  0  0  0  0  0  0  0  0
   -0.8884    1.3803    3.2941 H   0  0  0  0  0  0  0  0  0  0  0  0
    0.5873    0.4243    3.0669 H   0  0  0  0  0  0  0  0  0  0  0  0
    0.5003    2.0873    2.4585 H   0  0  0  0  0  0  0  0  0  0  0  0
   -2.3561    3.0772   -0.8799 H   0  0  0  0  0  0  0  0  0  0  0  0
   -1.6988   -1.0471    0.1189 H   0  0  0  0  0  0  0  0  0  0  0  0
    1.6369    0.3049   -0.1924 C   0  0  0  0  0  0  0  0  0  0  0  0
    1.4333   -0.9673   -0.8013 C   0  0  0  0  0  0  0  0  0  0  0  0
    0.6233   -1.2175   -2.2063 S   0  0  0  0  0  0  0  0  0  0  0  0
    0.5519    0.4655    0.5531 H   0  0  0  0  0  0  0  0  0  0  0  0
    2.4227    0.3741    0.5567 H   0  0  0  0  0  0  0  0  0  0  0  0
    1.5273    1.1744   -0.8350 H   0  0  0  0  0  0  0  0  0  0  0  0
    1.8034   -1.8298   -0.2487 H   0  0  0  0  0  0  0  0  0  0  0  0
  1  2  1  0
  1  6  1  0
  1  7  1  0
  1  8  1  0
  2  3  1  0
  2  5  1  0
  3  4  3  0
  4  9  1  0
  5 10  1  0
 11 12  1  0
 11 14  1  0
 11 15  1  0
 11 16  1  0
 12 13  2  0
 12 17  1  0
M  RAD  1   2   2
M  END
>  <reaction>  (4) 
rxn_1986

>  <mol_properties>  (4) 
{"1": {"label": "*3", "atom_type": "Cs"}, "4": {"label": "*4", "atom_type": "S2s"}, "10": {"label": "*1", "atom_type": "Cs"}, "11": {"label": "*0", "atom_type": "CS"}, "13": {"label": "*2", "atom_type": "H0"}}

>  <type>  (4) 
ts

$$$$
