
     RDKit          3D

  8  7  0  0  0  0  0  0  0  0999 V2000
    0.7610    0.0250    0.0051 C   0  0  0  0  0  0  0  0  0  0  0  0
   -0.7610   -0.0250   -0.0051 C   0  0  0  0  0  0  0  0  0  0  0  0
    1.1904   -0.9237   -0.3217 H   0  0  0  0  0  0  0  0  0  0  0  0
    1.1359    0.8041   -0.6609 H   0  0  0  0  0  0  0  0  0  0  0  0
    1.1435    0.2336    1.0058 H   0  0  0  0  0  0  0  0  0  0  0  0
   -1.1435   -0.2336   -1.0058 H   0  0  0  0  0  0  0  0  0  0  0  0
   -1.1904    0.9237    0.3216 H   0  0  0  0  0  0  0  0  0  0  0  0
   -1.1359   -0.8041    0.6609 H   0  0  0  0  0  0  0  0  0  0  0  0
  1  2  1  0
  1  3  1  0
  1  4  1  0
  1  5  1  0
  2  6  1  0
  2  7  1  0
  2  8  1  0
M  END
>  <reaction>  (1) 
rxn_908

>  <mol_properties>  (1) 
{"1": {"label": "donator", "atom_type": "Cs"}, "5": {"label": "d_hydrogen", "atom_type": "H0"}}

>  <type>  (1) 
r1h

$$$$

     RDKit          3D

  5  4  0  0  0  0  0  0  0  0999 V2000
    2.6215   -0.7329   -0.0432 S   0  0  0  0  0  0  0  0  0  0  0  0
    1.1451   -0.2888    0.0676 C   0  0  0  0  0  3  0  0  0  0  0  0
   -0.1275    0.0446    0.1771 C   0  0  0  0  0  0  0  0  0  0  0  0
   -1.3027    0.3736    0.2722 C   0  0  0  0  0  0  0  0  0  0  0  0
   -2.3365    0.6036    0.3729 H   0  0  0  0  0  0  0  0  0  0  0  0
  1  2  2  0
  2  3  1  0
  3  4  3  0
  4  5  1  0
M  RAD  1   2   2
M  END
>  <reaction>  (2) 
rxn_908

>  <mol_properties>  (2) 
{"1": {"label": "acceptor", "atom_type": "CS"}}

>  <type>  (2) 
r2

$$$$

     RDKit          3D

  6  5  0  0  0  0  0  0  0  0999 V2000
   -1.9761    1.0978   -0.6585 S   0  0  0  0  0  0  0  0  0  0  0  0
   -1.0502    0.0275    0.1158 C   0  0  0  0  0  0  0  0  0  0  0  0
    0.3587   -0.0566   -0.0000 C   0  0  0  0  0  0  0  0  0  0  0  0
    1.5530   -0.1477   -0.0815 C   0  0  0  0  0  0  0  0  0  0  0  0
   -1.4972   -0.7045    0.7881 H   0  0  0  0  0  0  0  0  0  0  0  0
    2.6118   -0.2165   -0.1639 H   0  0  0  0  0  0  0  0  0  0  0  0
  1  2  2  0
  2  3  1  0
  2  5  1  0
  3  4  3  0
  4  6  1  0
M  END
>  <reaction>  (3) 
rxn_908

>  <mol_properties>  (3) 
{"1": {"label": "acceptor", "atom_type": "CS"}, "5": {"label": "a_hydrogen", "atom_type": "H0"}}

>  <type>  (3) 
r2h

$$$$

     RDKit          3D

 13 11  0  0  0  0  0  0  0  0999 V2000
    0.1582    1.4358   -0.8367 S   0  0  0  0  0  0  0  0  0  0  0  0
    0.0646    0.2926    0.2769 C   0  0  0  0  0  0  0  0  0  0  0  0
   -0.0037    0.4115    1.6700 C   0  0  0  0  0  0  0  0  0  0  0  0
   -0.0656    0.4128    2.8719 C   0  0  0  0  0  0  0  0  0  0  0  0
   -0.1191    0.4434    3.9342 H   0  0  0  0  0  0  0  0  0  0  0  0
   -0.0430   -2.0806   -2.1087 C   0  0  0  0  0  0  0  0  0  0  0  0
    0.0321   -2.2591   -0.6233 C   0  0  0  0  0  3  0  0  0  0  0  0
   -0.9553   -1.5589   -2.4020 H   0  0  0  0  0  0  0  0  0  0  0  0
    0.8056   -1.5059   -2.4837 H   0  0  0  0  0  0  0  0  0  0  0  0
   -0.0378   -3.0486   -2.6228 H   0  0  0  0  0  0  0  0  0  0  0  0
    0.0468   -0.9372   -0.1015 H   0  0  0  0  0  0  0  0  0  0  0  0
    0.9635   -2.6620   -0.2318 H   0  0  0  0  0  0  0  0  0  0  0  0
   -0.8464   -2.6813   -0.1407 H   0  0  0  0  0  0  0  0  0  0  0  0
  1  2  2  0
  2  3  1  0
  2 11  1  0
  3  4  3  0
  4  5  1  0
  6  7  1  0
  6  8  1  0
  6  9  1  0
  6 10  1  0
  7 12  1  0
  7 13  1  0
M  RAD  1   7   2
M  END
>  <reaction>  (4) 
rxn_908

>  <mol_properties>  (4) 
{"0": {"label": "*0", "atom_type": "S2d"}, "1": {"label": "*1", "atom_type": "CS"}, "5": {"label": "*4", "atom_type": "Cs"}, "6": {"label": "*3", "atom_type": "Cs"}, "10": {"label": "*2", "atom_type": "H0"}}

>  <type>  (4) 
ts

$$$$
