
     RDKit          3D

  6  5  0  0  0  0  0  0  0  0999 V2000
   -0.6628   -0.1053   -0.2416 N   0  0  0  0  0  0  0  0  0  0  0  0
    0.6229    0.0313    0.3460 N   0  0  0  0  0  0  0  0  0  0  0  0
   -1.1552    0.7686   -0.1293 H   0  0  0  0  0  0  0  0  0  0  0  0
   -1.2103   -0.8412    0.1876 H   0  0  0  0  0  0  0  0  0  0  0  0
    1.2634   -0.5674   -0.1542 H   0  0  0  0  0  0  0  0  0  0  0  0
    0.6334   -0.2313    1.3241 H   0  0  0  0  0  0  0  0  0  0  0  0
  1  2  1  0
  1  3  1  0
  1  4  1  0
  2  5  1  0
  2  6  1  0
M  END
>  <reaction>  (1) 
rxn_125

>  <mol_properties>  (1) 
{"1": {"label": "donator", "atom_type": "N3s"}, "4": {"label": "d_hydrogen", "atom_type": "H0"}}

>  <type>  (1) 
r1h

$$$$

     RDKit          3D

  3  2  0  0  0  0  0  0  0  0999 V2000
    0.0002    0.4233    0.0000 N   0  0  0  0  0  2  0  0  0  0  0  0
   -0.8051   -0.2112    0.0000 H   0  0  0  0  0  0  0  0  0  0  0  0
    0.8049   -0.2121    0.0000 H   0  0  0  0  0  0  0  0  0  0  0  0
  1  2  1  0
  1  3  1  0
M  RAD  1   1   2
M  END
>  <reaction>  (2) 
rxn_125

>  <mol_properties>  (2) 
{"0": {"label": "acceptor", "atom_type": "N3s"}}

>  <type>  (2) 
r2

$$$$

     RDKit          3D

  4  3  0  0  0  0  0  0  0  0999 V2000
    0.0006   -0.0009    0.2762 N   0  0  0  0  0  0  0  0  0  0  0  0
   -0.4188    0.8439   -0.0883 H   0  0  0  0  0  0  0  0  0  0  0  0
   -0.5215   -0.7840   -0.0936 H   0  0  0  0  0  0  0  0  0  0  0  0
    0.9397   -0.0590   -0.0943 H   0  0  0  0  0  0  0  0  0  0  0  0
  1  2  1  0
  1  3  1  0
  1  4  1  0
M  END
>  <reaction>  (3) 
rxn_125

>  <mol_properties>  (3) 
{"0": {"label": "a_hydrogen", "atom_type": "H0"}, "1": {"label": "acceptor", "atom_type": "N3s"}}

>  <type>  (3) 
r2h

$$$$

     RDKit          3D

  9  7  0  0  0  0  0  0  0  0999 V2000
   -0.2198   -0.8545   -1.0675 N   0  0  0  0  0  0  0  0  0  0  0  0
    0.3337   -0.8188    0.2241 N   0  0  0  0  0  0  0  0  0  0  0  0
   -0.7668   -1.6980   -1.1651 H   0  0  0  0  0  0  0  0  0  0  0  0
    0.4806   -0.8230   -1.7935 H   0  0  0  0  0  0  0  0  0  0  0  0
   -0.1222    0.0253    0.7886 H   0  0  0  0  0  0  0  0  0  0  0  0
    1.3261   -0.6200    0.1621 H   0  0  0  0  0  0  0  0  0  0  0  0
   -0.4555    1.3960    1.1081 N   0  0  0  0  0  2  0  0  0  0  0  0
    0.4223    1.8620    1.3462 H   0  0  0  0  0  0  0  0  0  0  0  0
   -0.6788    1.7369    0.1710 H   0  0  0  0  0  0  0  0  0  0  0  0
  1  2  1  0
  1  3  1  0
  1  4  1  0
  2  5  1  0
  2  6  1  0
  7  8  1  0
  7  9  1  0
M  RAD  1   7   2
M  END
>  <reaction>  (4) 
rxn_125

>  <mol_properties>  (4) 
{"0": {"label": "*0", "atom_type": "N3s"}, "1": {"label": "*1", "atom_type": "N3s"}, "4": {"label": "*2", "atom_type": "H0"}, "6": {"label": "*3", "atom_type": "N3s"}, "7": {"label": "*4", "atom_type": "H0"}}

>  <type>  (4) 
ts

$$$$
