
     RDKit          3D

  9  8  0  0  0  0  0  0  0  0999 V2000
    1.1303   -0.2933   -0.7510 C   0  0  0  0  0  0  0  0  0  0  0  0
    0.2866    0.4560   -0.0588 C   0  0  0  0  0  0  0  0  0  0  0  0
   -0.9719   -0.0331    0.5823 C   0  0  0  0  0  0  0  0  0  0  0  0
    2.0274    0.1230   -1.1916 H   0  0  0  0  0  0  0  0  0  0  0  0
    0.9532   -1.3530   -0.9023 H   0  0  0  0  0  0  0  0  0  0  0  0
    0.5065    1.5132    0.0659 H   0  0  0  0  0  0  0  0  0  0  0  0
   -0.9526    0.1426    1.6610 H   0  0  0  0  0  0  0  0  0  0  0  0
   -1.1182   -1.1002    0.4106 H   0  0  0  0  0  0  0  0  0  0  0  0
   -1.8412    0.5010    0.1901 H   0  0  0  0  0  0  0  0  0  0  0  0
  1  2  2  3
  1  4  1  0
  1  5  1  0
  2  3  1  0
  2  6  1  0
  3  7  1  0
  3  8  1  0
  3  9  1  0
M  END
>  <reaction>  (1) 
rxn_1626

>  <mol_properties>  (1) 
{"1": {"label": "donator", "atom_type": "Cd"}, "5": {"label": "d_hydrogen", "atom_type": "H0"}}

>  <type>  (1) 
r1h

$$$$

     RDKit          3D

 11 10  0  0  0  0  0  0  0  0999 V2000
    1.0781   -1.0166   -0.1159 C   0  0  0  0  0  0  0  0  0  0  0  0
    0.2180    0.1942   -0.2297 C   0  0  0  0  0  3  0  0  0  0  0  0
    0.9343    1.7769   -0.3011 S   0  0  0  0  0  0  0  0  0  0  0  0
   -1.1949    0.1490    0.2439 C   0  0  0  0  0  0  0  0  0  0  0  0
    1.4718   -1.1461    0.9024 H   0  0  0  0  0  0  0  0  0  0  0  0
    1.9367   -0.9751   -0.7902 H   0  0  0  0  0  0  0  0  0  0  0  0
    0.5033   -1.9136   -0.3576 H   0  0  0  0  0  0  0  0  0  0  0  0
    2.1166    1.4195   -0.8209 H   0  0  0  0  0  0  0  0  0  0  0  0
   -1.2620    0.0939    1.3399 H   0  0  0  0  0  0  0  0  0  0  0  0
   -1.7600    1.0270   -0.0739 H   0  0  0  0  0  0  0  0  0  0  0  0
   -1.6972   -0.7380   -0.1506 H   0  0  0  0  0  0  0  0  0  0  0  0
  1  2  1  0
  1  5  1  0
  1  6  1  0
  1  7  1  0
  2  4  1  0
  2  3  1  0
  3  8  1  0
  4  9  1  0
  4 10  1  0
  4 11  1  0
M  RAD  1   2   2
M  END
>  <reaction>  (2) 
rxn_1626

>  <mol_properties>  (2) 
{"1": {"label": "acceptor", "atom_type": "Cs"}}

>  <type>  (2) 
r2

$$$$

     RDKit          3D

 12 11  0  0  0  0  0  0  0  0999 V2000
    1.2394   -0.3763   -0.3020 C   0  0  0  0  0  0  0  0  0  0  0  0
    0.1007    0.3024    0.4464 C   0  0  0  0  0  0  0  0  0  0  0  0
   -0.1187    2.0399   -0.0725 S   0  0  0  0  0  0  0  0  0  0  0  0
   -1.1974   -0.4877    0.3552 C   0  0  0  0  0  0  0  0  0  0  0  0
    2.1681    0.1850   -0.2048 H   0  0  0  0  0  0  0  0  0  0  0  0
    1.0030   -0.4604   -1.3656 H   0  0  0  0  0  0  0  0  0  0  0  0
    1.3993   -1.3856    0.0859 H   0  0  0  0  0  0  0  0  0  0  0  0
    0.3797    0.4050    1.4982 H   0  0  0  0  0  0  0  0  0  0  0  0
   -0.4500    1.7774   -1.3452 H   0  0  0  0  0  0  0  0  0  0  0  0
   -1.0545   -1.4977    0.7478 H   0  0  0  0  0  0  0  0  0  0  0  0
   -1.5206   -0.5758   -0.6849 H   0  0  0  0  0  0  0  0  0  0  0  0
   -1.9957   -0.0054    0.9183 H   0  0  0  0  0  0  0  0  0  0  0  0
  1  2  1  0
  1  5  1  0
  1  6  1  0
  1  7  1  0
  2  4  1  0
  2  3  1  0
  2  8  1  0
  3  9  1  0
  4 10  1  0
  4 11  1  0
  4 12  1  0
M  END
>  <reaction>  (3) 
rxn_1626

>  <mol_properties>  (3) 
{"1": {"label": "acceptor", "atom_type": "Cs"}, "11": {"label": "a_hydrogen", "atom_type": "H0"}}

>  <type>  (3) 
r2h

$$$$

     RDKit          3D

 20 18  0  0  0  0  0  0  0  0999 V2000
    1.4342   -1.4341   -0.3959 C   0  0  0  0  0  0  0  0  0  0  0  0
    0.3371   -0.7095    0.3463 C   0  0  0  0  0  0  0  0  0  0  0  0
   -1.2907   -1.4666    0.1702 S   0  0  0  0  0  0  0  0  0  0  0  0
    0.6903   -0.3127    1.7614 C   0  0  0  0  0  0  0  0  0  0  0  0
    1.1634   -1.5979   -1.4387 H   0  0  0  0  0  0  0  0  0  0  0  0
    1.6390   -2.4080    0.0620 H   0  0  0  0  0  0  0  0  0  0  0  0
    2.3598   -0.8534   -0.3647 H   0  0  0  0  0  0  0  0  0  0  0  0
   -0.9283   -2.7249    0.4697 H   0  0  0  0  0  0  0  0  0  0  0  0
    1.6138    0.2729    1.7725 H   0  0  0  0  0  0  0  0  0  0  0  0
   -0.1035    0.2803    2.2154 H   0  0  0  0  0  0  0  0  0  0  0  0
    0.8474   -1.1975    2.3867 H   0  0  0  0  0  0  0  0  0  0  0  0
   -0.7137    1.5503   -2.0398 C   0  0  0  0  0  0  0  0  0  0  0  0
    0.0893    1.6017   -1.0022 C   0  0  0  0  0  3  0  0  0  0  0  0
    0.9290    2.6872   -0.4470 C   0  0  0  0  0  0  0  0  0  0  0  0
   -1.2574    0.6462   -2.2926 H   0  0  0  0  0  0  0  0  0  0  0  0
   -0.8672    2.4155   -2.6836 H   0  0  0  0  0  0  0  0  0  0  0  0
    0.1799    0.3931   -0.2841 H   0  0  0  0  0  0  0  0  0  0  0  0
    0.6412    2.9148    0.5820 H   0  0  0  0  0  0  0  0  0  0  0  0
    0.8350    3.6020   -1.0407 H   0  0  0  0  0  0  0  0  0  0  0  0
    1.9822    2.3964   -0.4316 H   0  0  0  0  0  0  0  0  0  0  0  0
  1  2  1  0
  1  5  1  0
  1  6  1  0
  1  7  1  0
  2  4  1  0
  2  3  1  0
  2 17  1  0
  3  8  1  0
  4  9  1  0
  4 10  1  0
  4 11  1  0
 12 13  2  3
 12 15  1  0
 12 16  1  0
 13 14  1  0
 14 18  1  0
 14 19  1  0
 14 20  1  0
M  RAD  1  13   2
M  END
>  <reaction>  (4) 
rxn_1626

>  <mol_properties>  (4) 
{"1": {"label": "*1", "atom_type": "Cs"}, "2": {"label": "*0", "atom_type": "S2s"}, "11": {"label": "*4", "atom_type": "Cd"}, "12": {"label": "*3", "atom_type": "Cd"}, "16": {"label": "*2", "atom_type": "H0"}}

>  <type>  (4) 
ts

$$$$
