
     RDKit          3D

  4  3  0  0  0  0  0  0  0  0999 V2000
    0.5949   -0.3853    0.2659 O   0  0  0  0  0  0  0  0  0  0  0  0
   -0.5918    0.4028    0.2462 O   0  0  0  0  0  0  0  0  0  0  0  0
    1.1865    0.1539   -0.2689 H   0  0  0  0  0  0  0  0  0  0  0  0
   -1.1896   -0.1714   -0.2432 H   0  0  0  0  0  0  0  0  0  0  0  0
  1  2  1  0
  1  3  1  0
  2  4  1  0
M  END
>  <reaction>  (1) 
rxn_778

>  <mol_properties>  (1) 
{"1": {"label": "donator", "atom_type": "O2s"}, "3": {"label": "d_hydrogen", "atom_type": "H0"}}

>  <type>  (1) 
r1h

$$$$

     RDKit          3D

  7  6  0  0  0  0  0  0  0  0999 V2000
   -0.6201    0.0189   -0.0017 C   0  0  0  0  0  0  0  0  0  0  0  0
    0.8589   -0.0553    0.0500 C   0  0  0  0  0  3  0  0  0  0  0  0
   -1.0738   -0.9730   -0.0559 H   0  0  0  0  0  0  0  0  0  0  0  0
   -0.9680    0.5706   -0.8872 H   0  0  0  0  0  0  0  0  0  0  0  0
   -1.0303    0.5369    0.8678 H   0  0  0  0  0  0  0  0  0  0  0  0
    1.3939   -0.8386   -0.4695 H   0  0  0  0  0  0  0  0  0  0  0  0
    1.4394    0.7404    0.4965 H   0  0  0  0  0  0  0  0  0  0  0  0
  1  2  1  0
  1  3  1  0
  1  4  1  0
  1  5  1  0
  2  6  1  0
  2  7  1  0
M  RAD  1   2   2
M  END
>  <reaction>  (2) 
rxn_778

>  <mol_properties>  (2) 
{"1": {"label": "acceptor", "atom_type": "Cs"}}

>  <type>  (2) 
r2

$$$$

     RDKit          3D

  8  7  0  0  0  0  0  0  0  0999 V2000
    0.7610    0.0250    0.0051 C   0  0  0  0  0  0  0  0  0  0  0  0
   -0.7610   -0.0250   -0.0051 C   0  0  0  0  0  0  0  0  0  0  0  0
    1.1904   -0.9237   -0.3217 H   0  0  0  0  0  0  0  0  0  0  0  0
    1.1359    0.8041   -0.6609 H   0  0  0  0  0  0  0  0  0  0  0  0
    1.1435    0.2336    1.0058 H   0  0  0  0  0  0  0  0  0  0  0  0
   -1.1435   -0.2336   -1.0058 H   0  0  0  0  0  0  0  0  0  0  0  0
   -1.1904    0.9237    0.3216 H   0  0  0  0  0  0  0  0  0  0  0  0
   -1.1359   -0.8041    0.6609 H   0  0  0  0  0  0  0  0  0  0  0  0
  1  2  1  0
  1  3  1  0
  1  4  1  0
  1  5  1  0
  2  6  1  0
  2  7  1  0
  2  8  1  0
M  END
>  <reaction>  (3) 
rxn_778

>  <mol_properties>  (3) 
{"0": {"label": "a_hydrogen", "atom_type": "H0"}, "2": {"label": "acceptor", "atom_type": "Cs"}}

>  <type>  (3) 
r2h

$$$$

     RDKit          3D

 11  9  0  0  0  0  0  0  0  0999 V2000
   -0.3081   -1.3940   -0.7815 O   0  0  0  0  0  0  0  0  0  0  0  0
    0.2908   -1.2845    0.4673 O   0  0  0  0  0  0  0  0  0  0  0  0
    0.4379   -1.3123   -1.3870 H   0  0  0  0  0  0  0  0  0  0  0  0
    0.1424   -0.1718    0.7694 H   0  0  0  0  0  0  0  0  0  0  0  0
    0.0842    1.8053   -0.3540 C   0  0  0  0  0  0  0  0  0  0  0  0
   -0.0259    1.1587    0.9916 C   0  0  0  0  0  3  0  0  0  0  0  0
   -0.1166    2.8804   -0.2850 H   0  0  0  0  0  0  0  0  0  0  0  0
   -0.6394    1.3838   -1.0538 H   0  0  0  0  0  0  0  0  0  0  0  0
    1.0844    1.6878   -0.7745 H   0  0  0  0  0  0  0  0  0  0  0  0
   -1.0133    1.1710    1.4473 H   0  0  0  0  0  0  0  0  0  0  0  0
    0.7731    1.3733    1.6978 H   0  0  0  0  0  0  0  0  0  0  0  0
  1  2  1  0
  1  3  1  0
  2  4  1  0
  5  6  1  0
  5  7  1  0
  5  8  1  0
  5  9  1  0
  6 10  1  0
  6 11  1  0
M  RAD  1   6   2
M  END
>  <reaction>  (4) 
rxn_778

>  <mol_properties>  (4) 
{"0": {"label": "*0", "atom_type": "O2s"}, "1": {"label": "*1", "atom_type": "O2s"}, "3": {"label": "*2", "atom_type": "H0"}, "4": {"label": "*4", "atom_type": "Cs"}, "5": {"label": "*3", "atom_type": "Cs"}}

>  <type>  (4) 
ts

$$$$
