
     RDKit          3D

 12 11  0  0  0  0  0  0  0  0999 V2000
    1.9877    0.1011    0.4814 C   0  0  0  0  0  0  0  0  0  0  0  0
    0.8179    0.5502    0.0525 C   0  0  0  0  0  0  0  0  0  0  0  0
   -0.2939   -0.2692   -0.5320 C   0  0  0  0  0  0  0  0  0  0  0  0
   -0.0292   -1.7631   -0.6328 C   0  0  0  0  0  0  0  0  0  0  0  0
    2.2522   -0.9490    0.4436 H   0  0  0  0  0  0  0  0  0  0  0  0
    2.7295    0.7757    0.8896 H   0  0  0  0  0  0  0  0  0  0  0  0
    0.6162    1.6164    0.1190 H   0  0  0  0  0  0  0  0  0  0  0  0
   -0.5268    0.1319   -1.5245 H   0  0  0  0  0  0  0  0  0  0  0  0
   -1.1959   -0.0938    0.0644 H   0  0  0  0  0  0  0  0  0  0  0  0
    0.1590   -2.1992    0.3502 H   0  0  0  0  0  0  0  0  0  0  0  0
    0.8382   -1.9701   -1.2626 H   0  0  0  0  0  0  0  0  0  0  0  0
   -0.8879   -2.2759   -1.0672 H   0  0  0  0  0  0  0  0  0  0  0  0
  1  2  2  3
  1  5  1  0
  1  6  1  0
  2  3  1  0
  2  7  1  0
  3  4  1  0
  3  8  1  0
  3  9  1  0
  4 10  1  0
  4 11  1  0
  4 12  1  0
M  END
>  <reaction>  (1) 
rxn_1045

>  <mol_properties>  (1) 
{"2": {"label": "donator", "atom_type": "Cs"}, "7": {"label": "d_hydrogen", "atom_type": "H0"}}

>  <type>  (1) 
r1h

$$$$

     RDKit          3D

 15 14  0  0  0  0  0  0  0  0999 V2000
    2.4381    0.5770   -0.2356 C   0  0  0  0  0  0  0  0  0  0  0  0
    1.4430   -0.3367   -0.1409 C   0  0  0  0  0  0  0  0  0  0  0  0
    0.0521   -0.0957   -0.0045 C   0  0  0  0  0  3  0  0  0  0  0  0
   -0.5167    1.2867    0.0548 C   0  0  0  0  0  0  0  0  0  0  0  0
   -0.8226   -1.2147    0.0778 C   0  0  0  0  0  0  0  0  0  0  0  0
   -2.1666   -1.1669    0.2092 C   0  0  0  0  0  0  0  0  0  0  0  0
    3.4666    0.2585   -0.3369 H   0  0  0  0  0  0  0  0  0  0  0  0
    2.2594    1.6438   -0.2152 H   0  0  0  0  0  0  0  0  0  0  0  0
    1.7306   -1.3845   -0.1719 H   0  0  0  0  0  0  0  0  0  0  0  0
   -1.2300    1.4469   -0.7583 H   0  0  0  0  0  0  0  0  0  0  0  0
    0.2481    2.0557   -0.0178 H   0  0  0  0  0  0  0  0  0  0  0  0
   -1.0592    1.4421    0.9914 H   0  0  0  0  0  0  0  0  0  0  0  0
   -0.3519   -2.1929    0.0292 H   0  0  0  0  0  0  0  0  0  0  0  0
   -2.7080   -0.2310    0.2646 H   0  0  0  0  0  0  0  0  0  0  0  0
   -2.7513   -2.0751    0.2638 H   0  0  0  0  0  0  0  0  0  0  0  0
  1  2  2  3
  1  7  1  0
  1  8  1  0
  2  3  1  0
  2  9  1  0
  3  4  1  0
  3  5  1  0
  4 10  1  0
  4 11  1  0
  4 12  1  0
  5  6  2  3
  5 13  1  0
  6 14  1  0
  6 15  1  0
M  RAD  1   3   2
M  END
>  <reaction>  (2) 
rxn_1045

>  <mol_properties>  (2) 
{"2": {"label": "acceptor", "atom_type": "Cs"}}

>  <type>  (2) 
r2

$$$$

     RDKit          3D

 16 15  0  0  0  0  0  0  0  0999 V2000
    1.7961   -0.3807    1.6176 C   0  0  0  0  0  0  0  0  0  0  0  0
    0.8562   -0.8708    0.8256 C   0  0  0  0  0  0  0  0  0  0  0  0
    0.0895   -0.0826   -0.2048 C   0  0  0  0  0  0  0  0  0  0  0  0
   -1.4061   -0.1111    0.0982 C   0  0  0  0  0  0  0  0  0  0  0  0
    0.4476   -0.5902   -1.5797 C   0  0  0  0  0  0  0  0  0  0  0  0
   -0.3793   -1.1113   -2.4728 C   0  0  0  0  0  0  0  0  0  0  0  0
    2.3110   -1.0032    2.3386 H   0  0  0  0  0  0  0  0  0  0  0  0
    2.0846    0.6643    1.5737 H   0  0  0  0  0  0  0  0  0  0  0  0
    0.5921   -1.9241    0.8925 H   0  0  0  0  0  0  0  0  0  0  0  0
    0.4358    0.9557   -0.1462 H   0  0  0  0  0  0  0  0  0  0  0  0
   -1.5968    0.3080    1.0865 H   0  0  0  0  0  0  0  0  0  0  0  0
   -1.9674    0.4693   -0.6359 H   0  0  0  0  0  0  0  0  0  0  0  0
   -1.7902   -1.1338    0.0883 H   0  0  0  0  0  0  0  0  0  0  0  0
    1.5049   -0.5197   -1.8214 H   0  0  0  0  0  0  0  0  0  0  0  0
   -1.4421   -1.2131   -2.2889 H   0  0  0  0  0  0  0  0  0  0  0  0
   -0.0162   -1.4558   -3.4328 H   0  0  0  0  0  0  0  0  0  0  0  0
  1  2  2  3
  1  7  1  0
  1  8  1  0
  2  3  1  0
  2  9  1  0
  3  4  1  0
  3  5  1  0
  3 10  1  0
  4 11  1  0
  4 12  1  0
  4 13  1  0
  5  6  2  3
  5 14  1  0
  6 15  1  0
  6 16  1  0
M  END
>  <reaction>  (3) 
rxn_1045

>  <mol_properties>  (3) 
{"2": {"label": "acceptor", "atom_type": "Cs"}, "15": {"label": "a_hydrogen", "atom_type": "H0"}}

>  <type>  (3) 
r2h

$$$$

     RDKit          3D

 27 25  0  0  0  0  0  0  0  0999 V2000
   -0.1745   -1.4214    2.8716 C   0  0  0  0  0  0  0  0  0  0  0  0
   -0.1856   -0.2905    2.1696 C   0  0  0  0  0  0  0  0  0  0  0  0
    0.5447   -0.0147    0.9188 C   0  0  0  0  0  0  0  0  0  0  0  0
    1.5743   -1.0286    0.4809 C   0  0  0  0  0  0  0  0  0  0  0  0
    0.8755    1.4055    0.7179 C   0  0  0  0  0  0  0  0  0  0  0  0
    1.8565    1.8993   -0.0369 C   0  0  0  0  0  0  0  0  0  0  0  0
   -0.7759   -1.5239    3.7653 H   0  0  0  0  0  0  0  0  0  0  0  0
    0.4369   -2.2713    2.5952 H   0  0  0  0  0  0  0  0  0  0  0  0
   -0.8167    0.5230    2.5201 H   0  0  0  0  0  0  0  0  0  0  0  0
    1.8928   -0.8370   -0.5442 H   0  0  0  0  0  0  0  0  0  0  0  0
    1.1622   -2.0380    0.5088 H   0  0  0  0  0  0  0  0  0  0  0  0
    2.4555   -0.9993    1.1267 H   0  0  0  0  0  0  0  0  0  0  0  0
    0.2151    2.1079    1.2207 H   0  0  0  0  0  0  0  0  0  0  0  0
    2.5565    1.2667   -0.5676 H   0  0  0  0  0  0  0  0  0  0  0  0
    1.9906    2.9683   -0.1387 H   0  0  0  0  0  0  0  0  0  0  0  0
   -0.1485    0.3209   -3.0973 C   0  0  0  0  0  0  0  0  0  0  0  0
   -0.5131   -0.6079   -2.1995 C   0  0  0  0  0  0  0  0  0  0  0  0
   -1.3128   -0.3818   -1.0191 C   0  0  0  0  0  3  0  0  0  0  0  0
   -2.1055    0.8863   -0.8682 C   0  0  0  0  0  0  0  0  0  0  0  0
   -0.4727    1.3513   -3.0219 H   0  0  0  0  0  0  0  0  0  0  0  0
    0.4834    0.0659   -3.9376 H   0  0  0  0  0  0  0  0  0  0  0  0
   -0.1483   -1.6220   -2.3366 H   0  0  0  0  0  0  0  0  0  0  0  0
   -0.3703   -0.2053    0.0082 H   0  0  0  0  0  0  0  0  0  0  0  0
   -1.7894   -1.2732   -0.6162 H   0  0  0  0  0  0  0  0  0  0  0  0
   -2.8929    0.9548   -1.6245 H   0  0  0  0  0  0  0  0  0  0  0  0
   -1.4674    1.7665   -0.9737 H   0  0  0  0  0  0  0  0  0  0  0  0
   -2.5766    0.9311    0.1146 H   0  0  0  0  0  0  0  0  0  0  0  0
  1  2  2  3
  1  7  1  0
  1  8  1  0
  2  3  1  0
  2  9  1  0
  3  4  1  0
  3  5  1  0
  3 23  1  0
  4 10  1  0
  4 11  1  0
  4 12  1  0
  5  6  2  3
  5 13  1  0
  6 14  1  0
  6 15  1  0
 16 17  2  3
 16 20  1  0
 16 21  1  0
 17 18  1  0
 17 22  1  0
 18 19  1  0
 18 24  1  0
 19 25  1  0
 19 26  1  0
 19 27  1  0
M  RAD  1  18   2
M  END
>  <reaction>  (4) 
rxn_1045

>  <mol_properties>  (4) 
{"1": {"label": "*0", "atom_type": "Cd"}, "2": {"label": "*1", "atom_type": "Cs"}, "16": {"label": "*4", "atom_type": "Cd"}, "17": {"label": "*3", "atom_type": "Cs"}, "22": {"label": "*2", "atom_type": "H0"}}

>  <type>  (4) 
ts

$$$$
