
     RDKit          3D

  9  8  0  0  0  0  0  0  0  0999 V2000
    1.1303   -0.2933   -0.7510 C   0  0  0  0  0  0  0  0  0  0  0  0
    0.2866    0.4560   -0.0588 C   0  0  0  0  0  0  0  0  0  0  0  0
   -0.9719   -0.0331    0.5823 C   0  0  0  0  0  0  0  0  0  0  0  0
    2.0274    0.1230   -1.1916 H   0  0  0  0  0  0  0  0  0  0  0  0
    0.9532   -1.3530   -0.9023 H   0  0  0  0  0  0  0  0  0  0  0  0
    0.5065    1.5132    0.0659 H   0  0  0  0  0  0  0  0  0  0  0  0
   -0.9526    0.1426    1.6610 H   0  0  0  0  0  0  0  0  0  0  0  0
   -1.1182   -1.1002    0.4106 H   0  0  0  0  0  0  0  0  0  0  0  0
   -1.8412    0.5010    0.1901 H   0  0  0  0  0  0  0  0  0  0  0  0
  1  2  2  3
  1  4  1  0
  1  5  1  0
  2  3  1  0
  2  6  1  0
  3  7  1  0
  3  8  1  0
  3  9  1  0
M  END
>  <reaction>  (1) 
rxn_742

>  <mol_properties>  (1) 
{"2": {"label": "donator", "atom_type": "Cs"}, "6": {"label": "d_hydrogen", "atom_type": "H0"}}

>  <type>  (1) 
r1h

$$$$

     RDKit          3D

 18 19  0  0  0  0  0  0  0  0999 V2000
    1.4897    0.5883    0.1105 C   0  0  0  0  0  0  0  0  0  0  0  0
    1.1311   -0.8051   -0.5162 C   0  0  0  0  0  0  0  0  0  0  0  0
   -0.3169   -1.0404   -0.0394 C   0  0  0  0  0  0  0  0  0  0  0  0
   -1.2543   -0.0684   -0.7849 C   0  0  0  0  0  0  0  0  0  0  0  0
   -0.8937    1.3243   -0.1581 C   0  0  0  0  0  0  0  0  0  0  0  0
    0.1924    0.9172    0.8069 C   0  0  0  0  0  3  0  0  0  0  0  0
   -0.2799   -0.4064    1.3705 C   0  0  0  0  0  0  0  0  0  0  0  0
    1.7637    1.3287   -0.6409 H   0  0  0  0  0  0  0  0  0  0  0  0
    2.3187    0.4966    0.8138 H   0  0  0  0  0  0  0  0  0  0  0  0
    1.7945   -1.5849   -0.1392 H   0  0  0  0  0  0  0  0  0  0  0  0
    1.2076   -0.8023   -1.6044 H   0  0  0  0  0  0  0  0  0  0  0  0
   -0.6324   -2.0820   -0.0940 H   0  0  0  0  0  0  0  0  0  0  0  0
   -1.0930   -0.0918   -1.8636 H   0  0  0  0  0  0  0  0  0  0  0  0
   -2.2997   -0.3205   -0.6004 H   0  0  0  0  0  0  0  0  0  0  0  0
   -0.5487    2.0429   -0.9014 H   0  0  0  0  0  0  0  0  0  0  0  0
   -1.7551    1.7547    0.3548 H   0  0  0  0  0  0  0  0  0  0  0  0
    0.4357   -0.8873    2.0385 H   0  0  0  0  0  0  0  0  0  0  0  0
   -1.2599   -0.3636    1.8475 H   0  0  0  0  0  0  0  0  0  0  0  0
  1  2  1  0
  1  6  1  0
  1  8  1  0
  1  9  1  0
  2  3  1  0
  2 10  1  0
  2 11  1  0
  3  4  1  0
  3  7  1  0
  3 12  1  0
  4  5  1  0
  4 13  1  0
  4 14  1  0
  5  6  1  0
  5 15  1  0
  5 16  1  0
  6  7  1  0
  7 17  1  0
  7 18  1  0
M  RAD  1   6   2
M  END
>  <reaction>  (2) 
rxn_742

>  <mol_properties>  (2) 
{"5": {"label": "acceptor", "atom_type": "Cs"}}

>  <type>  (2) 
r2

$$$$

     RDKit          3D

 19 20  0  0  0  0  0  0  0  0999 V2000
    1.1087   -0.4716   -0.9619 C   0  0  0  0  0  0  0  0  0  0  0  0
    0.9355    1.0407   -0.6470 C   0  0  0  0  0  0  0  0  0  0  0  0
   -0.0085    1.0377    0.5657 C   0  0  0  0  0  0  0  0  0  0  0  0
   -1.4093    0.6181    0.0927 C   0  0  0  0  0  0  0  0  0  0  0  0
   -1.2361   -0.8942   -0.2222 C   0  0  0  0  0  0  0  0  0  0  0  0
    0.2422   -1.1516    0.1099 C   0  0  0  0  0  0  0  0  0  0  0  0
    0.4537   -0.2211    1.3118 C   0  0  0  0  0  0  0  0  0  0  0  0
    2.1524   -0.7752   -0.8653 H   0  0  0  0  0  0  0  0  0  0  0  0
    0.7855   -0.7316   -1.9710 H   0  0  0  0  0  0  0  0  0  0  0  0
    1.8918    1.5001   -0.3916 H   0  0  0  0  0  0  0  0  0  0  0  0
    0.5184    1.6005   -1.4855 H   0  0  0  0  0  0  0  0  0  0  0  0
    0.0038    1.9661    1.1351 H   0  0  0  0  0  0  0  0  0  0  0  0
   -1.7351    1.1944   -0.7746 H   0  0  0  0  0  0  0  0  0  0  0  0
   -2.1465    0.7723    0.8824 H   0  0  0  0  0  0  0  0  0  0  0  0
   -1.4680   -1.1377   -1.2601 H   0  0  0  0  0  0  0  0  0  0  0  0
   -1.8859   -1.5030    0.4087 H   0  0  0  0  0  0  0  0  0  0  0  0
    0.4812   -2.2025    0.2673 H   0  0  0  0  0  0  0  0  0  0  0  0
    1.4942   -0.1701    1.6391 H   0  0  0  0  0  0  0  0  0  0  0  0
   -0.1779   -0.4714    2.1666 H   0  0  0  0  0  0  0  0  0  0  0  0
  1  2  1  0
  1  6  1  0
  1  8  1  0
  1  9  1  0
  2  3  1  0
  2 10  1  0
  2 11  1  0
  3  4  1  0
  3  7  1  0
  3 12  1  0
  4  5  1  0
  4 13  1  0
  4 14  1  0
  5  6  1  0
  5 15  1  0
  5 16  1  0
  6  7  1  0
  6 17  1  0
  7 18  1  0
  7 19  1  0
M  END
>  <reaction>  (3) 
rxn_742

>  <mol_properties>  (3) 
{"0": {"label": "a_hydrogen", "atom_type": "H0"}, "6": {"label": "acceptor", "atom_type": "Cs"}}

>  <type>  (3) 
r2h

$$$$

     RDKit          3D

 27 27  0  0  0  0  0  0  0  0999 V2000
    1.4425   -0.7509   -3.3409 C   0  0  0  0  0  0  0  0  0  0  0  0
    1.5340   -1.4381   -2.2033 C   0  0  0  0  0  0  0  0  0  0  0  0
    2.2156   -0.9781   -0.9897 C   0  0  0  0  0  0  0  0  0  0  0  0
    0.8868   -1.1303   -4.1887 H   0  0  0  0  0  0  0  0  0  0  0  0
    1.9317    0.2101   -3.4602 H   0  0  0  0  0  0  0  0  0  0  0  0
    1.0246   -2.3960   -2.1359 H   0  0  0  0  0  0  0  0  0  0  0  0
    1.3360   -0.4793   -0.2332 H   0  0  0  0  0  0  0  0  0  0  0  0
    2.9142   -0.1581   -1.1509 H   0  0  0  0  0  0  0  0  0  0  0  0
    2.6562   -1.7701   -0.3868 H   0  0  0  0  0  0  0  0  0  0  0  0
    0.4513    0.3898    1.9480 C   0  0  0  0  0  0  0  0  0  0  0  0
   -1.0220    0.5210    2.4562 C   0  0  0  0  0  0  0  0  0  0  0  0
   -1.8554    0.2869    1.1812 C   0  0  0  0  0  0  0  0  0  0  0  0
   -1.6995    1.5066    0.2534 C   0  0  0  0  0  0  0  0  0  0  0  0
   -0.2272    1.3770   -0.2535 C   0  0  0  0  0  0  0  0  0  0  0  0
    0.2327    0.1246    0.4701 C   0  0  0  0  0  3  0  0  0  0  0  0
   -1.0011   -0.7648    0.4472 C   0  0  0  0  0  0  0  0  0  0  0  0
    0.9603   -0.4445    2.4340 H   0  0  0  0  0  0  0  0  0  0  0  0
    1.0402    1.2899    2.1259 H   0  0  0  0  0  0  0  0  0  0  0  0
   -1.2236    1.4962    2.9017 H   0  0  0  0  0  0  0  0  0  0  0  0
   -1.2445   -0.2374    3.2086 H   0  0  0  0  0  0  0  0  0  0  0  0
   -2.8917    0.0149    1.3792 H   0  0  0  0  0  0  0  0  0  0  0  0
   -1.8782    2.4450    0.7803 H   0  0  0  0  0  0  0  0  0  0  0  0
   -2.4056    1.4546   -0.5768 H   0  0  0  0  0  0  0  0  0  0  0  0
   -0.1926    1.2373   -1.3356 H   0  0  0  0  0  0  0  0  0  0  0  0
    0.3828    2.2463   -0.0065 H   0  0  0  0  0  0  0  0  0  0  0  0
   -1.3576   -0.9874   -0.5597 H   0  0  0  0  0  0  0  0  0  0  0  0
   -0.8830   -1.6933    1.0084 H   0  0  0  0  0  0  0  0  0  0  0  0
  1  2  2  3
  1  4  1  0
  1  5  1  0
  2  3  1  0
  2  6  1  0
  3  7  1  0
  3  8  1  0
  3  9  1  0
 10 11  1  0
 10 15  1  0
 10 17  1  0
 10 18  1  0
 11 12  1  0
 11 19  1  0
 11 20  1  0
 12 13  1  0
 12 16  1  0
 12 21  1  0
 13 14  1  0
 13 22  1  0
 13 23  1  0
 14 15  1  0
 14 24  1  0
 14 25  1  0
 15 16  1  0
 16 26  1  0
 16 27  1  0
M  RAD  1  15   2
M  END
>  <reaction>  (4) 
rxn_742

>  <mol_properties>  (4) 
{"1": {"label": "*0", "atom_type": "Cd"}, "2": {"label": "*1", "atom_type": "Cs"}, "6": {"label": "*2", "atom_type": "H0"}, "14": {"label": "*3", "atom_type": "Cs"}, "15": {"label": "*4", "atom_type": "Cs"}}

>  <type>  (4) 
ts

$$$$
