
     RDKit          3D

  2  1  0  0  0  0  0  0  0  0999 V2000
    0.0000    0.0000    0.3721 H   0  0  0  0  0  0  0  0  0  0  0  0
    0.0000    0.0000   -0.3721 H   0  0  0  0  0  0  0  0  0  0  0  0
  1  2  1  0
M  END
>  <reaction>  (1) 
rxn_286

>  <mol_properties>  (1) 
{"0": {"label": "d_hydrogen", "atom_type": "H0"}, "1": {"label": "donator", "atom_type": "H0"}}

>  <type>  (1) 
r1h

$$$$

     RDKit          3D

  2  1  0  0  0  0  0  0  0  0999 V2000
    0.0000    0.0000    0.4855 O   0  0  0  0  0  1  0  0  0  0  0  0
    0.0000    0.0000   -0.4855 H   0  0  0  0  0  0  0  0  0  0  0  0
  1  2  1  0
M  RAD  1   1   2
M  END
>  <reaction>  (2) 
rxn_286

>  <mol_properties>  (2) 
{"0": {"label": "acceptor", "atom_type": "O2s"}}

>  <type>  (2) 
r2

$$$$

     RDKit          3D

  3  2  0  0  0  0  0  0  0  0999 V2000
   -0.0003    0.3867    0.0000 O   0  0  0  0  0  0  0  0  0  0  0  0
   -0.7617   -0.1940    0.0000 H   0  0  0  0  0  0  0  0  0  0  0  0
    0.7620   -0.1927    0.0000 H   0  0  0  0  0  0  0  0  0  0  0  0
  1  2  1  0
  1  3  1  0
M  END
>  <reaction>  (3) 
rxn_286

>  <mol_properties>  (3) 
{"0": {"label": "acceptor", "atom_type": "O2s"}, "1": {"label": "a_hydrogen", "atom_type": "H0"}}

>  <type>  (3) 
r2h

$$$$

     RDKit          3D

  4  2  0  0  0  0  0  0  0  0999 V2000
   -0.6766    0.4894   -0.2774 O   0  0  0  0  0  0  0  0  0  0  0  0
    0.5703    0.0137   -0.1642 H   0  0  0  0  0  0  0  0  0  0  0  0
   -1.1233   -0.0764    0.3695 H   0  0  0  0  0  0  0  0  0  0  0  0
    1.2296   -0.4267    0.0721 H   0  0  0  0  0 15  0  0  0  0  0  0
  1  2  1  0
  1  3  1  0
M  END
>  <reaction>  (4) 
rxn_286

>  <mol_properties>  (4) 
{"0": {"label": "*3", "atom_type": "O2s"}, "1": {"label": "*2", "atom_type": "H0"}, "2": {"label": "*4", "atom_type": "H0"}, "3": {"label": "*1", "atom_type": "H0"}}

>  <type>  (4) 
ts

$$$$
