
     RDKit          3D

  8  7  0  0  0  0  0  0  0  0999 V2000
    1.9029    0.9046   -0.2050 C   0  0  0  0  0  0  0  0  0  0  0  0
    0.8517    0.4283    0.1217 C   0  0  0  0  0  0  0  0  0  0  0  0
   -0.3908   -0.1311    0.5404 C   0  0  0  0  0  0  0  0  0  0  0  0
   -1.2847   -0.6576   -0.2899 C   0  0  0  0  0  0  0  0  0  0  0  0
    2.8335    1.3255   -0.5014 H   0  0  0  0  0  0  0  0  0  0  0  0
   -0.5867   -0.1096    1.6074 H   0  0  0  0  0  0  0  0  0  0  0  0
   -2.2126   -1.0686    0.0850 H   0  0  0  0  0  0  0  0  0  0  0  0
   -1.1134   -0.6914   -1.3582 H   0  0  0  0  0  0  0  0  0  0  0  0
  1  2  3  0
  1  5  1  0
  2  3  1  0
  3  4  2  3
  3  6  1  0
  4  7  1  0
  4  8  1  0
M  END
>  <reaction>  (1) 
rxn_1796

>  <mol_properties>  (1) 
{"2": {"label": "donator", "atom_type": "Cd"}, "5": {"label": "d_hydrogen", "atom_type": "H0"}}

>  <type>  (1) 
r1h

$$$$

     RDKit          3D

  5  4  0  0  0  0  0  0  0  0999 V2000
    2.6310   -0.6994   -0.0464 S   0  0  0  0  0  0  0  0  0  0  0  0
    1.1422   -0.3024    0.0751 C   0  0  0  0  0  3  0  0  0  0  0  0
   -0.1294    0.0366    0.1789 C   0  0  0  0  0  0  0  0  0  0  0  0
   -1.3085    0.3505    0.2755 C   0  0  0  0  0  0  0  0  0  0  0  0
   -2.3329    0.6248    0.3586 H   0  0  0  0  0  0  0  0  0  0  0  0
  1  2  2  0
  2  3  1  0
  3  4  3  0
  4  5  1  0
M  RAD  1   2   2
M  END
>  <reaction>  (2) 
rxn_1796

>  <mol_properties>  (2) 
{"1": {"label": "acceptor", "atom_type": "CS"}}

>  <type>  (2) 
r2

$$$$

     RDKit          3D

  6  5  0  0  0  0  0  0  0  0999 V2000
   -1.9761    1.0978   -0.6585 S   0  0  0  0  0  0  0  0  0  0  0  0
   -1.0502    0.0275    0.1158 C   0  0  0  0  0  0  0  0  0  0  0  0
    0.3587   -0.0566   -0.0000 C   0  0  0  0  0  0  0  0  0  0  0  0
    1.5530   -0.1477   -0.0815 C   0  0  0  0  0  0  0  0  0  0  0  0
   -1.4972   -0.7045    0.7881 H   0  0  0  0  0  0  0  0  0  0  0  0
    2.6118   -0.2165   -0.1639 H   0  0  0  0  0  0  0  0  0  0  0  0
  1  2  2  0
  2  3  1  0
  2  5  1  0
  3  4  3  0
  4  6  1  0
M  END
>  <reaction>  (3) 
rxn_1796

>  <mol_properties>  (3) 
{"0": {"label": "a_hydrogen", "atom_type": "H0"}, "2": {"label": "acceptor", "atom_type": "CS"}}

>  <type>  (3) 
r2h

$$$$

     RDKit          3D

 13 12  0  0  0  0  0  0  0  0999 V2000
   -0.1957   -0.5970   -2.3934 C   0  0  0  0  0  0  0  0  0  0  0  0
   -0.1732   -1.5922   -1.6495 C   0  0  0  0  0  3  0  0  0  0  0  0
    0.0385   -1.9610   -0.3513 C   0  0  0  0  0  0  0  0  0  0  0  0
    0.0405   -3.0150    0.4412 C   0  0  0  0  0  0  0  0  0  0  0  0
   -0.3316   -0.1779   -3.3677 H   0  0  0  0  0  0  0  0  0  0  0  0
    0.3436   -0.8639    0.1513 H   0  0  0  0  0  0  0  0  0  0  0  0
    0.2637   -2.9118    1.4943 H   0  0  0  0  0  0  0  0  0  0  0  0
   -0.1789   -4.0040    0.0595 H   0  0  0  0  0  0  0  0  0  0  0  0
    0.2951    1.2063   -1.1333 S   0  0  0  0  0  4  0  0  0  0  0  0
    0.4477    0.5745    0.3326 C   0  0  0  0  0  0  0  0  0  0  0  0
    0.0618    0.8197    1.6241 C   0  0  0  0  0  0  0  0  0  0  0  0
   -0.1900    0.9944    2.7957 C   0  0  0  0  0  0  0  0  0  0  0  0
   -0.4214    1.1666    3.8190 H   0  0  0  0  0  0  0  0  0  0  0  0
  1  2  2  3
  1  9  1  0
  1  5  1  0
  2  3  1  0
  3  4  2  3
  3  6  1  0
  4  7  1  0
  4  8  1  0
  9 10  3  0
 10 11  1  0
 11 12  3  0
 12 13  1  0
M  RAD  1   2   2
M  END
>  <reaction>  (4) 
rxn_1796

>  <mol_properties>  (4) 
{"1": {"label": "*0", "atom_type": "Cd"}, "2": {"label": "*1", "atom_type": "Cd"}, "5": {"label": "*2", "atom_type": "H0"}, "8": {"label": "*4", "atom_type": "S4t"}, "9": {"label": "*3", "atom_type": "Ct"}}

>  <type>  (4) 
ts

$$$$
