
     RDKit          3D

 11 10  0  0  0  0  0  0  0  0999 V2000
   -1.2710    0.1907   -0.2084 C   0  0  0  0  0  0  0  0  0  0  0  0
    0.0202   -0.6130   -0.2928 C   0  0  0  0  0  0  0  0  0  0  0  0
    0.1086   -1.6953    0.7756 C   0  0  0  0  0  0  0  0  0  0  0  0
   -1.3607    0.6851    0.7620 H   0  0  0  0  0  0  0  0  0  0  0  0
   -2.1429   -0.4567   -0.3299 H   0  0  0  0  0  0  0  0  0  0  0  0
   -1.3158    0.9602   -0.9809 H   0  0  0  0  0  0  0  0  0  0  0  0
    0.8757    0.0616   -0.1992 H   0  0  0  0  0  0  0  0  0  0  0  0
    0.0997   -1.0712   -1.2825 H   0  0  0  0  0  0  0  0  0  0  0  0
   -0.7198   -2.4022    0.6850 H   0  0  0  0  0  0  0  0  0  0  0  0
    1.0395   -2.2596    0.6989 H   0  0  0  0  0  0  0  0  0  0  0  0
    0.0624   -1.2603    1.7770 H   0  0  0  0  0  0  0  0  0  0  0  0
  1  2  1  0
  1  4  1  0
  1  5  1  0
  1  6  1  0
  2  3  1  0
  2  7  1  0
  2  8  1  0
  3  9  1  0
  3 10  1  0
  3 11  1  0
M  END
>  <reaction>  (1) 
rxn_335

>  <mol_properties>  (1) 
{"1": {"label": "donator", "atom_type": "Cs"}, "6": {"label": "d_hydrogen", "atom_type": "H0"}}

>  <type>  (1) 
r1h

$$$$

     RDKit          3D

  6  5  0  0  0  0  0  0  0  0999 V2000
   -0.4435    0.0183   -0.1398 C   0  0  0  0  0  0  0  0  0  0  0  0
    1.0626    0.0038   -0.1408 C   0  0  0  0  0  3  0  0  0  0  0  0
    1.7963   -0.0944    0.7712 O   0  0  0  0  0  0  0  0  0  0  0  0
   -0.8385   -0.0792    0.8738 H   0  0  0  0  0  0  0  0  0  0  0  0
   -0.7800    0.9500   -0.5948 H   0  0  0  0  0  0  0  0  0  0  0  0
   -0.7969   -0.7985   -0.7695 H   0  0  0  0  0  0  0  0  0  0  0  0
  1  2  1  0
  1  4  1  0
  1  5  1  0
  1  6  1  0
  2  3  2  0
M  RAD  1   2   2
M  END
>  <reaction>  (2) 
rxn_335

>  <mol_properties>  (2) 
{"1": {"label": "acceptor", "atom_type": "CO"}}

>  <type>  (2) 
r2

$$$$

     RDKit          3D

  7  6  0  0  0  0  0  0  0  0999 V2000
   -0.6468   -0.0443   -0.0231 C   0  0  0  0  0  0  0  0  0  0  0  0
    0.8470    0.0371    0.0688 C   0  0  0  0  0  0  0  0  0  0  0  0
    1.4866   -0.2280    1.0479 O   0  0  0  0  0  0  0  0  0  0  0  0
   -1.0466    0.9363   -0.2943 H   0  0  0  0  0  0  0  0  0  0  0  0
   -0.9229   -0.7318   -0.8269 H   0  0  0  0  0  0  0  0  0  0  0  0
   -1.0759   -0.3772    0.9198 H   0  0  0  0  0  0  0  0  0  0  0  0
    1.3584    0.3712   -0.8589 H   0  0  0  0  0  0  0  0  0  0  0  0
  1  2  1  0
  1  4  1  0
  1  5  1  0
  1  6  1  0
  2  3  2  0
  2  7  1  0
M  END
>  <reaction>  (3) 
rxn_335

>  <mol_properties>  (3) 
{"1": {"label": "acceptor", "atom_type": "CO"}, "6": {"label": "a_hydrogen", "atom_type": "H0"}}

>  <type>  (3) 
r2h

$$$$

     RDKit          3D

 17 15  0  0  0  0  0  0  0  0999 V2000
    1.8395   -1.0770    0.8925 C   0  0  0  0  0  0  0  0  0  0  0  0
    1.1951    0.2744    0.7662 C   0  0  0  0  0  0  0  0  0  0  0  0
    1.5788    1.2847    1.2643 O   0  0  0  0  0  0  0  0  0  0  0  0
    2.7322   -1.0357    1.5167 H   0  0  0  0  0  0  0  0  0  0  0  0
    1.1127   -1.7752    1.3132 H   0  0  0  0  0  0  0  0  0  0  0  0
    2.0902   -1.4410   -0.1063 H   0  0  0  0  0  0  0  0  0  0  0  0
   -0.6060    1.5219   -1.7828 C   0  0  0  0  0  0  0  0  0  0  0  0
   -1.0698    0.5575   -0.7264 C   0  0  0  0  0  3  0  0  0  0  0  0
   -2.0270    1.1010    0.2980 C   0  0  0  0  0  0  0  0  0  0  0  0
   -0.1500    2.4051   -1.3276 H   0  0  0  0  0  0  0  0  0  0  0  0
   -1.4419    1.8690   -2.4016 H   0  0  0  0  0  0  0  0  0  0  0  0
    0.1296    1.0684   -2.4499 H   0  0  0  0  0  0  0  0  0  0  0  0
    0.1007    0.3004    0.0219 H   0  0  0  0  0  0  0  0  0  0  0  0
   -1.3423   -0.4256   -1.1114 H   0  0  0  0  0  0  0  0  0  0  0  0
   -2.9698    1.4169   -0.1642 H   0  0  0  0  0  0  0  0  0  0  0  0
   -2.2682    0.3581    1.0606 H   0  0  0  0  0  0  0  0  0  0  0  0
   -1.6022    1.9743    0.7999 H   0  0  0  0  0  0  0  0  0  0  0  0
  1  2  1  0
  1  4  1  0
  1  5  1  0
  1  6  1  0
  2  3  2  0
  2 13  1  0
  7  8  1  0
  7 10  1  0
  7 11  1  0
  7 12  1  0
  8  9  1  0
  8 14  1  0
  9 15  1  0
  9 16  1  0
  9 17  1  0
M  RAD  1   8   2
M  END
>  <reaction>  (4) 
rxn_335

>  <mol_properties>  (4) 
{"1": {"label": "*1", "atom_type": "CO"}, "2": {"label": "*0", "atom_type": "O2d"}, "6": {"label": "*4", "atom_type": "Cs"}, "7": {"label": "*3", "atom_type": "Cs"}, "12": {"label": "*2", "atom_type": "H0"}}

>  <type>  (4) 
ts

$$$$
