
     RDKit          3D

 11 10  0  0  0  0  0  0  0  0999 V2000
   -1.2710    0.1907   -0.2084 C   0  0  0  0  0  0  0  0  0  0  0  0
    0.0202   -0.6130   -0.2928 C   0  0  0  0  0  0  0  0  0  0  0  0
    0.1086   -1.6953    0.7756 C   0  0  0  0  0  0  0  0  0  0  0  0
   -1.3607    0.6851    0.7620 H   0  0  0  0  0  0  0  0  0  0  0  0
   -2.1429   -0.4567   -0.3299 H   0  0  0  0  0  0  0  0  0  0  0  0
   -1.3158    0.9602   -0.9809 H   0  0  0  0  0  0  0  0  0  0  0  0
    0.8757    0.0616   -0.1992 H   0  0  0  0  0  0  0  0  0  0  0  0
    0.0997   -1.0712   -1.2825 H   0  0  0  0  0  0  0  0  0  0  0  0
   -0.7198   -2.4022    0.6850 H   0  0  0  0  0  0  0  0  0  0  0  0
    1.0395   -2.2596    0.6989 H   0  0  0  0  0  0  0  0  0  0  0  0
    0.0624   -1.2603    1.7770 H   0  0  0  0  0  0  0  0  0  0  0  0
  1  2  1  0
  1  4  1  0
  1  5  1  0
  1  6  1  0
  2  3  1  0
  2  7  1  0
  2  8  1  0
  3  9  1  0
  3 10  1  0
  3 11  1  0
M  END
>  <reaction>  (1) 
rxn_334

>  <mol_properties>  (1) 
{"1": {"label": "donator", "atom_type": "Cs"}, "6": {"label": "d_hydrogen", "atom_type": "H0"}}

>  <type>  (1) 
r1h

$$$$

     RDKit          3D

  3  2  0  0  0  0  0  0  0  0999 V2000
   -0.0494   -0.2484    0.2507 C   0  0  0  0  0  3  0  0  0  0  0  0
    1.0305   -0.0025   -0.1225 O   0  0  0  0  0  0  0  0  0  0  0  0
   -0.9811    0.2509   -0.1282 H   0  0  0  0  0  0  0  0  0  0  0  0
  1  2  2  0
  1  3  1  0
M  RAD  1   1   2
M  END
>  <reaction>  (2) 
rxn_334

>  <mol_properties>  (2) 
{"0": {"label": "acceptor", "atom_type": "CO"}}

>  <type>  (2) 
r2

$$$$

     RDKit          3D

  4  3  0  0  0  0  0  0  0  0999 V2000
   -0.0057    0.0001   -0.0008 C   0  0  0  0  0  0  0  0  0  0  0  0
    1.1789   -0.0174    0.1563 O   0  0  0  0  0  0  0  0  0  0  0  0
   -0.5891    0.9399    0.0445 H   0  0  0  0  0  0  0  0  0  0  0  0
   -0.5841   -0.9226   -0.2001 H   0  0  0  0  0  0  0  0  0  0  0  0
  1  2  2  0
  1  3  1  0
  1  4  1  0
M  END
>  <reaction>  (3) 
rxn_334

>  <mol_properties>  (3) 
{"0": {"label": "acceptor", "atom_type": "CO"}, "3": {"label": "a_hydrogen", "atom_type": "H0"}}

>  <type>  (3) 
r2h

$$$$

     RDKit          3D

 14 12  0  0  0  0  0  0  0  0999 V2000
    1.2189   -0.6865    0.7482 C   0  0  0  0  0  0  0  0  0  0  0  0
    2.2256   -0.2924    0.2607 O   0  0  0  0  0  0  0  0  0  0  0  0
    1.2002   -1.5040    1.5099 H   0  0  0  0  0  0  0  0  0  0  0  0
   -0.9676    0.2498   -1.6087 C   0  0  0  0  0  0  0  0  0  0  0  0
   -1.0282    0.5599   -0.1387 C   0  0  0  0  0  3  0  0  0  0  0  0
   -0.7427    1.9823    0.2563 C   0  0  0  0  0  0  0  0  0  0  0  0
    0.0030    0.5314   -2.0254 H   0  0  0  0  0  0  0  0  0  0  0  0
   -1.7332    0.8052   -2.1628 H   0  0  0  0  0  0  0  0  0  0  0  0
   -1.1254   -0.8121   -1.8054 H   0  0  0  0  0  0  0  0  0  0  0  0
    0.0565   -0.1582    0.3976 H   0  0  0  0  0  0  0  0  0  0  0  0
   -1.8832    0.1187    0.3742 H   0  0  0  0  0  0  0  0  0  0  0  0
   -1.4916    2.6668   -0.1588 H   0  0  0  0  0  0  0  0  0  0  0  0
   -0.7461    2.1101    1.3402 H   0  0  0  0  0  0  0  0  0  0  0  0
    0.2328    2.3016   -0.1199 H   0  0  0  0  0  0  0  0  0  0  0  0
  1  2  2  0
  1  3  1  0
  1 10  1  0
  4  5  1  0
  4  7  1  0
  4  8  1  0
  4  9  1  0
  5  6  1  0
  5 11  1  0
  6 12  1  0
  6 13  1  0
  6 14  1  0
M  RAD  1   5   2
M  END
>  <reaction>  (4) 
rxn_334

>  <mol_properties>  (4) 
{"0": {"label": "*1", "atom_type": "CO"}, "1": {"label": "*0", "atom_type": "O2d"}, "3": {"label": "*4", "atom_type": "Cs"}, "4": {"label": "*3", "atom_type": "Cs"}, "9": {"label": "*2", "atom_type": "H0"}}

>  <type>  (4) 
ts

$$$$
