
     RDKit          3D

  7  6  0  0  0  0  0  0  0  0999 V2000
    1.2985   -0.0065   -0.2721 C   0  0  0  0  0  0  0  0  0  0  0  0
    0.0000    0.0000   -0.2926 C   0  0  0  0  0  0  0  0  0  0  0  0
   -1.2985    0.0065   -0.3130 C   0  0  0  0  0  0  0  0  0  0  0  0
    1.8444   -0.7551    0.2895 H   0  0  0  0  0  0  0  0  0  0  0  0
    1.8693    0.7364   -0.8162 H   0  0  0  0  0  0  0  0  0  0  0  0
   -1.8658    0.5623    0.4239 H   0  0  0  0  0  0  0  0  0  0  0  0
   -1.8479   -0.5437   -1.0675 H   0  0  0  0  0  0  0  0  0  0  0  0
  1  2  2  0
  1  4  1  0
  1  5  1  0
  2  3  2  0
  3  6  1  0
  3  7  1  0
M  END
>  <reaction>  (1) 
rxn_1840

>  <mol_properties>  (1) 
{"0": {"label": "donator", "atom_type": "Cd"}, "3": {"label": "d_hydrogen", "atom_type": "H0"}}

>  <type>  (1) 
r1h

$$$$

     RDKit          3D

  5  4  0  0  0  0  0  0  0  0999 V2000
    2.6254   -0.7183   -0.0520 S   0  0  0  0  0  0  0  0  0  0  0  0
    1.1395   -0.3116    0.0735 C   0  0  0  0  0  3  0  0  0  0  0  0
   -0.1296    0.0355    0.1803 C   0  0  0  0  0  0  0  0  0  0  0  0
   -1.3063    0.3574    0.2794 C   0  0  0  0  0  0  0  0  0  0  0  0
   -2.3291    0.6370    0.3655 H   0  0  0  0  0  0  0  0  0  0  0  0
  1  2  2  0
  2  3  1  0
  3  4  3  0
  4  5  1  0
M  RAD  1   2   2
M  END
>  <reaction>  (2) 
rxn_1840

>  <mol_properties>  (2) 
{"1": {"label": "acceptor", "atom_type": "CS"}}

>  <type>  (2) 
r2

$$$$

     RDKit          3D

  6  5  0  0  0  0  0  0  0  0999 V2000
   -1.9761    1.0978   -0.6585 S   0  0  0  0  0  0  0  0  0  0  0  0
   -1.0502    0.0275    0.1158 C   0  0  0  0  0  0  0  0  0  0  0  0
    0.3587   -0.0566   -0.0000 C   0  0  0  0  0  0  0  0  0  0  0  0
    1.5530   -0.1477   -0.0815 C   0  0  0  0  0  0  0  0  0  0  0  0
   -1.4972   -0.7045    0.7881 H   0  0  0  0  0  0  0  0  0  0  0  0
    2.6118   -0.2165   -0.1639 H   0  0  0  0  0  0  0  0  0  0  0  0
  1  2  2  0
  2  3  1  0
  2  5  1  0
  3  4  3  0
  4  6  1  0
M  END
>  <reaction>  (3) 
rxn_1840

>  <mol_properties>  (3) 
{"1": {"label": "acceptor", "atom_type": "CS"}, "5": {"label": "a_hydrogen", "atom_type": "H0"}}

>  <type>  (3) 
r2h

$$$$

     RDKit          3D

 12 10  0  0  0  0  0  0  0  0999 V2000
   -0.9034   -1.2185   -0.4425 S   0  0  0  0  0  0  0  0  0  0  0  0
   -0.1995   -0.2692    0.6195 C   0  0  0  0  0  0  0  0  0  0  0  0
   -0.2014   -0.2719    2.0152 C   0  0  0  0  0  0  0  0  0  0  0  0
   -0.1423   -0.1923    3.2146 C   0  0  0  0  0  0  0  0  0  0  0  0
   -0.1068   -0.1445    4.2772 H   0  0  0  0  0  0  0  0  0  0  0  0
    1.2332    1.6632   -0.5658 C   0  0  0  0  0  0  0  0  0  0  0  0
    1.1142    1.5029   -1.8159 C   0  0  0  0  0  0  0  0  0  0  0  0
    0.9093    1.2266   -3.0913 C   0  0  0  0  0  3  0  0  0  0  0  0
    0.5213    0.7030    0.1224 H   0  0  0  0  0  0  0  0  0  0  0  0
    1.7481    2.3576    0.0764 H   0  0  0  0  0  0  0  0  0  0  0  0
    0.0821    1.6711   -3.6298 H   0  0  0  0  0  0  0  0  0  0  0  0
    1.5750    0.5642   -3.6299 H   0  0  0  0  0  0  0  0  0  0  0  0
  1  2  2  0
  2  3  1  0
  2  9  1  0
  3  4  3  0
  4  5  1  0
  6  7  3  0
  6 10  1  0
  7  8  1  0
  8 11  1  0
  8 12  1  0
M  RAD  1   8   2
M  END
>  <reaction>  (4) 
rxn_1840

>  <mol_properties>  (4) 
{"0": {"label": "*0", "atom_type": "S2d"}, "1": {"label": "*1", "atom_type": "CS"}, "5": {"label": "*3", "atom_type": "Ct"}, "6": {"label": "*4", "atom_type": "Ct"}, "8": {"label": "*2", "atom_type": "H0"}}

>  <type>  (4) 
ts

$$$$
