
     RDKit          3D

 12 11  0  0  0  0  0  0  0  0999 V2000
    1.9877    0.1011    0.4814 C   0  0  0  0  0  0  0  0  0  0  0  0
    0.8179    0.5502    0.0525 C   0  0  0  0  0  0  0  0  0  0  0  0
   -0.2939   -0.2692   -0.5320 C   0  0  0  0  0  0  0  0  0  0  0  0
   -0.0292   -1.7631   -0.6328 C   0  0  0  0  0  0  0  0  0  0  0  0
    2.2522   -0.9490    0.4436 H   0  0  0  0  0  0  0  0  0  0  0  0
    2.7295    0.7757    0.8896 H   0  0  0  0  0  0  0  0  0  0  0  0
    0.6162    1.6164    0.1190 H   0  0  0  0  0  0  0  0  0  0  0  0
   -0.5268    0.1319   -1.5245 H   0  0  0  0  0  0  0  0  0  0  0  0
   -1.1959   -0.0938    0.0644 H   0  0  0  0  0  0  0  0  0  0  0  0
    0.1590   -2.1992    0.3502 H   0  0  0  0  0  0  0  0  0  0  0  0
    0.8382   -1.9701   -1.2626 H   0  0  0  0  0  0  0  0  0  0  0  0
   -0.8879   -2.2759   -1.0672 H   0  0  0  0  0  0  0  0  0  0  0  0
  1  2  2  3
  1  5  1  0
  1  6  1  0
  2  3  1  0
  2  7  1  0
  3  4  1  0
  3  8  1  0
  3  9  1  0
  4 10  1  0
  4 11  1  0
  4 12  1  0
M  END
>  <reaction>  (1) 
rxn_1058

>  <mol_properties>  (1) 
{"2": {"label": "donator", "atom_type": "Cs"}, "7": {"label": "d_hydrogen", "atom_type": "H0"}}

>  <type>  (1) 
r1h

$$$$

     RDKit          3D

  7  6  0  0  0  0  0  0  0  0999 V2000
    1.3002    0.7433    2.1279 C   0  0  0  0  0  0  0  0  0  0  0  0
    0.5758    0.3292    1.2319 C   0  0  0  0  0  0  0  0  0  0  0  0
   -0.2057   -0.1176    0.2652 C   0  0  0  0  0  3  0  0  0  0  0  0
   -0.9747   -0.5572   -0.6858 C   0  0  0  0  0  0  0  0  0  0  0  0
    1.9293    1.1030    2.9060 H   0  0  0  0  0  0  0  0  0  0  0  0
   -1.9977   -0.8727   -0.4932 H   0  0  0  0  0  0  0  0  0  0  0  0
   -0.6274   -0.6280   -1.7143 H   0  0  0  0  0  0  0  0  0  0  0  0
  1  2  3  0
  1  5  1  0
  2  3  1  0
  3  4  2  3
  4  6  1  0
  4  7  1  0
M  RAD  1   3   2
M  END
>  <reaction>  (2) 
rxn_1058

>  <mol_properties>  (2) 
{"2": {"label": "acceptor", "atom_type": "Cd"}}

>  <type>  (2) 
r2

$$$$

     RDKit          3D

  8  7  0  0  0  0  0  0  0  0999 V2000
    1.9029    0.9046   -0.2050 C   0  0  0  0  0  0  0  0  0  0  0  0
    0.8517    0.4283    0.1217 C   0  0  0  0  0  0  0  0  0  0  0  0
   -0.3908   -0.1311    0.5404 C   0  0  0  0  0  0  0  0  0  0  0  0
   -1.2847   -0.6576   -0.2899 C   0  0  0  0  0  0  0  0  0  0  0  0
    2.8335    1.3255   -0.5014 H   0  0  0  0  0  0  0  0  0  0  0  0
   -0.5867   -0.1096    1.6074 H   0  0  0  0  0  0  0  0  0  0  0  0
   -2.2126   -1.0686    0.0850 H   0  0  0  0  0  0  0  0  0  0  0  0
   -1.1134   -0.6914   -1.3582 H   0  0  0  0  0  0  0  0  0  0  0  0
  1  2  3  0
  1  5  1  0
  2  3  1  0
  3  4  2  3
  3  6  1  0
  4  7  1  0
  4  8  1  0
M  END
>  <reaction>  (3) 
rxn_1058

>  <mol_properties>  (3) 
{"2": {"label": "acceptor", "atom_type": "Cd"}, "7": {"label": "a_hydrogen", "atom_type": "H0"}}

>  <type>  (3) 
r2h

$$$$

     RDKit          3D

 19 17  0  0  0  0  0  0  0  0999 V2000
    1.0331    1.6676    2.8529 C   0  0  0  0  0  0  0  0  0  0  0  0
    1.0556    0.8164    1.9985 C   0  0  0  0  0  0  0  0  0  0  0  0
    0.9532   -0.1187    0.9783 C   0  0  0  0  0  3  0  0  0  0  0  0
    1.7346   -1.0583    0.4870 C   0  0  0  0  0  0  0  0  0  0  0  0
    1.0409    2.4091    3.6151 H   0  0  0  0  0  0  0  0  0  0  0  0
    2.7233   -1.2545    0.8918 H   0  0  0  0  0  0  0  0  0  0  0  0
    1.4043   -1.6662   -0.3492 H   0  0  0  0  0  0  0  0  0  0  0  0
   -0.9707   -1.4059   -2.5376 C   0  0  0  0  0  0  0  0  0  0  0  0
   -1.3124   -1.2347   -1.2606 C   0  0  0  0  0  0  0  0  0  0  0  0
   -1.2774    0.0314   -0.5175 C   0  0  0  0  0  0  0  0  0  0  0  0
   -1.0556    1.3140   -1.2812 C   0  0  0  0  0  0  0  0  0  0  0  0
   -0.6579   -0.5800   -3.1650 H   0  0  0  0  0  0  0  0  0  0  0  0
   -1.0068   -2.3843   -2.9988 H   0  0  0  0  0  0  0  0  0  0  0  0
   -1.6231   -2.1042   -0.6878 H   0  0  0  0  0  0  0  0  0  0  0  0
   -0.2824   -0.0565    0.2539 H   0  0  0  0  0  0  0  0  0  0  0  0
   -2.0821    0.1012    0.2157 H   0  0  0  0  0  0  0  0  0  0  0  0
   -1.8707    1.5004   -1.9856 H   0  0  0  0  0  0  0  0  0  0  0  0
   -0.1232    1.2809   -1.8477 H   0  0  0  0  0  0  0  0  0  0  0  0
   -0.9972    2.1605   -0.5966 H   0  0  0  0  0  0  0  0  0  0  0  0
  1  2  3  0
  1  5  1  0
  2  3  1  0
  3  4  2  3
  4  6  1  0
  4  7  1  0
  8  9  2  3
  8 12  1  0
  8 13  1  0
  9 10  1  0
  9 14  1  0
 10 11  1  0
 10 15  1  0
 10 16  1  0
 11 17  1  0
 11 18  1  0
 11 19  1  0
M  RAD  1   3   2
M  END
>  <reaction>  (4) 
rxn_1058

>  <mol_properties>  (4) 
{"1": {"label": "*4", "atom_type": "Ct"}, "2": {"label": "*3", "atom_type": "Cd"}, "8": {"label": "*0", "atom_type": "Cd"}, "9": {"label": "*1", "atom_type": "Cs"}, "14": {"label": "*2", "atom_type": "H0"}}

>  <type>  (4) 
ts

$$$$
