
     RDKit          3D

 10  9  0  0  0  0  0  0  0  0999 V2000
    1.8334    0.0847   -0.1062 C   0  0  0  0  0  0  0  0  0  0  0  0
    0.5993   -0.4071   -0.0750 C   0  0  0  0  0  0  0  0  0  0  0  0
   -0.5993    0.4071    0.0750 C   0  0  0  0  0  0  0  0  0  0  0  0
   -1.8334   -0.0847    0.1062 C   0  0  0  0  0  0  0  0  0  0  0  0
    2.0179    1.1498   -0.0189 H   0  0  0  0  0  0  0  0  0  0  0  0
    2.6972   -0.5572   -0.2194 H   0  0  0  0  0  0  0  0  0  0  0  0
    0.4465   -1.4793   -0.1649 H   0  0  0  0  0  0  0  0  0  0  0  0
   -0.4465    1.4793    0.1649 H   0  0  0  0  0  0  0  0  0  0  0  0
   -2.0179   -1.1498    0.0189 H   0  0  0  0  0  0  0  0  0  0  0  0
   -2.6972    0.5572    0.2194 H   0  0  0  0  0  0  0  0  0  0  0  0
  1  2  2  3
  1  5  1  0
  1  6  1  0
  2  3  1  0
  2  7  1  0
  3  4  2  3
  3  8  1  0
  4  9  1  0
  4 10  1  0
M  END
>  <reaction>  (1) 
rxn_1661

>  <mol_properties>  (1) 
{"2": {"label": "donator", "atom_type": "Cd"}, "7": {"label": "d_hydrogen", "atom_type": "H0"}}

>  <type>  (1) 
r1h

$$$$

     RDKit          3D

 14 14  0  0  0  0  0  0  0  0999 V2000
    2.3111    0.1295    0.0255 C   0  0  0  0  0  0  0  0  0  0  0  0
    0.9132    0.0511    0.0101 C   0  0  0  0  0  0  0  0  0  0  0  0
    0.1101    1.2180   -0.0350 C   0  0  0  0  0  3  0  0  0  0  0  0
   -1.2644    1.1347   -0.0499 C   0  0  0  0  0  0  0  0  0  0  0  0
   -1.8967   -0.1062   -0.0209 C   0  0  0  0  0  0  0  0  0  0  0  0
   -1.1306   -1.2689    0.0235 C   0  0  0  0  0  0  0  0  0  0  0  0
    0.2446   -1.1981    0.0389 C   0  0  0  0  0  0  0  0  0  0  0  0
    2.9188   -0.7647    0.0599 H   0  0  0  0  0  0  0  0  0  0  0  0
    2.8158    1.0859    0.0034 H   0  0  0  0  0  0  0  0  0  0  0  0
    0.5964    2.1860   -0.0577 H   0  0  0  0  0  0  0  0  0  0  0  0
   -1.8572    2.0404   -0.0845 H   0  0  0  0  0  0  0  0  0  0  0  0
   -2.9772   -0.1668   -0.0328 H   0  0  0  0  0  0  0  0  0  0  0  0
   -1.6191   -2.2351    0.0461 H   0  0  0  0  0  0  0  0  0  0  0  0
    0.8353   -2.1058    0.0735 H   0  0  0  0  0  0  0  0  0  0  0  0
  1  2  2  3
  1  8  1  0
  1  9  1  0
  2  3  1  0
  2  7  1  0
  3  4  1  0
  3 10  1  0
  4  5  2  0
  4 11  1  0
  5  6  1  0
  5 12  1  0
  6  7  2  0
  6 13  1  0
  7 14  1  0
M  RAD  1   3   2
M  END
>  <reaction>  (2) 
rxn_1661

>  <mol_properties>  (2) 
{"0": {"label": "acceptor", "atom_type": "Cs"}}

>  <type>  (2) 
r2

$$$$

     RDKit          3D

 15 15  0  0  0  0  0  0  0  0999 V2000
    2.2033   -0.2106   -0.1691 C   0  0  0  0  0  0  0  0  0  0  0  0
    0.7079   -0.0769   -0.0833 C   0  0  0  0  0  0  0  0  0  0  0  0
    0.0133   -0.5320    1.0332 C   0  0  0  0  0  0  0  0  0  0  0  0
   -1.3681   -0.4375    1.1023 C   0  0  0  0  0  0  0  0  0  0  0  0
   -2.0817    0.1179    0.0512 C   0  0  0  0  0  0  0  0  0  0  0  0
   -1.4017    0.5784   -1.0658 C   0  0  0  0  0  0  0  0  0  0  0  0
   -0.0203    0.4813   -1.1294 C   0  0  0  0  0  0  0  0  0  0  0  0
    2.6627   -0.1689    0.8190 H   0  0  0  0  0  0  0  0  0  0  0  0
    2.4808   -1.1663   -0.6212 H   0  0  0  0  0  0  0  0  0  0  0  0
    2.6378    0.5807   -0.7809 H   0  0  0  0  0  0  0  0  0  0  0  0
    0.5630   -0.9645    1.8617 H   0  0  0  0  0  0  0  0  0  0  0  0
   -1.8884   -0.7961    1.9818 H   0  0  0  0  0  0  0  0  0  0  0  0
   -3.1603    0.1950    0.1041 H   0  0  0  0  0  0  0  0  0  0  0  0
   -1.9485    1.0183   -1.8907 H   0  0  0  0  0  0  0  0  0  0  0  0
    0.5030    0.8475   -2.0056 H   0  0  0  0  0  0  0  0  0  0  0  0
  1  2  1  0
  1  8  1  0
  1  9  1  0
  1 10  1  0
  2  3  2  0
  2  7  1  0
  3  4  1  0
  3 11  1  0
  4  5  2  0
  4 12  1  0
  5  6  1  0
  5 13  1  0
  6  7  2  0
  6 14  1  0
  7 15  1  0
M  END
>  <reaction>  (3) 
rxn_1661

>  <mol_properties>  (3) 
{"0": {"label": "a_hydrogen", "atom_type": "H0"}, "1": {"label": "acceptor", "atom_type": "Cs"}}

>  <type>  (3) 
r2h

$$$$

     RDKit          3D

 24 23  0  0  0  0  0  0  0  0999 V2000
    3.1606   -2.7947   -0.0261 C   0  0  0  0  0  0  0  0  0  0  0  0
    2.1236   -2.8291    0.8050 C   0  0  0  0  0  0  0  0  0  0  0  0
    1.0534   -1.8601    0.8196 C   0  0  0  0  0  3  0  0  0  0  0  0
   -0.0242   -1.7615    1.5705 C   0  0  0  0  0  0  0  0  0  0  0  0
    3.2631   -2.0089   -0.7651 H   0  0  0  0  0  0  0  0  0  0  0  0
    3.9350   -3.5494    0.0083 H   0  0  0  0  0  0  0  0  0  0  0  0
    2.0505   -3.6338    1.5371 H   0  0  0  0  0  0  0  0  0  0  0  0
    1.1570   -0.7923   -0.1569 H   0  0  0  0  0  0  0  0  0  0  0  0
   -0.2428   -2.4895    2.3506 H   0  0  0  0  0  0  0  0  0  0  0  0
   -0.7338   -0.9511    1.4392 H   0  0  0  0  0  0  0  0  0  0  0  0
    1.1152    0.1842   -0.9442 C   0  0  0  0  0  0  0  0  0  0  0  0
   -0.1125    0.9348   -0.6246 C   0  0  0  0  0  0  0  0  0  0  0  0
   -1.3282    0.6115   -1.2304 C   0  0  0  0  0  0  0  0  0  0  0  0
   -2.4958    1.2675   -0.8791 C   0  0  0  0  0  0  0  0  0  0  0  0
   -2.4746    2.2611    0.0894 C   0  0  0  0  0  0  0  0  0  0  0  0
   -1.2739    2.5934    0.7005 C   0  0  0  0  0  0  0  0  0  0  0  0
   -0.1071    1.9365    0.3481 C   0  0  0  0  0  0  0  0  0  0  0  0
    2.0395    0.7230   -0.7442 H   0  0  0  0  0  0  0  0  0  0  0  0
    1.1209   -0.2737   -1.9316 H   0  0  0  0  0  0  0  0  0  0  0  0
   -1.3535   -0.1676   -1.9836 H   0  0  0  0  0  0  0  0  0  0  0  0
   -3.4276    1.0026   -1.3632 H   0  0  0  0  0  0  0  0  0  0  0  0
   -3.3870    2.7747    0.3641 H   0  0  0  0  0  0  0  0  0  0  0  0
   -1.2468    3.3690    1.4558 H   0  0  0  0  0  0  0  0  0  0  0  0
    0.8261    2.1975    0.8338 H   0  0  0  0  0  0  0  0  0  0  0  0
  1  2  2  3
  1  5  1  0
  1  6  1  0
  2  3  1  0
  2  7  1  0
  3  4  2  3
  4  9  1  0
  4 10  1  0
  8 11  1  0
 11 12  1  0
 11 18  1  0
 11 19  1  0
 12 13  2  0
 12 17  1  0
 13 14  1  0
 13 20  1  0
 14 15  2  0
 14 21  1  0
 15 16  1  0
 15 22  1  0
 16 17  2  0
 16 23  1  0
 17 24  1  0
M  RAD  1   3   2
M  END
>  <reaction>  (4) 
rxn_1661

>  <mol_properties>  (4) 
{"1": {"label": "*4", "atom_type": "Cd"}, "2": {"label": "*3", "atom_type": "Cd"}, "7": {"label": "*2", "atom_type": "H0"}, "10": {"label": "*1", "atom_type": "Cs"}, "11": {"label": "*0", "atom_type": "Cd"}}

>  <type>  (4) 
ts

$$$$
