
     RDKit          3D

  4  3  0  0  0  0  0  0  0  0999 V2000
    0.5949   -0.3853    0.2659 O   0  0  0  0  0  0  0  0  0  0  0  0
   -0.5918    0.4028    0.2462 O   0  0  0  0  0  0  0  0  0  0  0  0
    1.1865    0.1539   -0.2689 H   0  0  0  0  0  0  0  0  0  0  0  0
   -1.1896   -0.1714   -0.2432 H   0  0  0  0  0  0  0  0  0  0  0  0
  1  2  1  0
  1  3  1  0
  2  4  1  0
M  END
>  <reaction>  (1) 
rxn_437

>  <mol_properties>  (1) 
{"1": {"label": "donator", "atom_type": "O2s"}, "3": {"label": "d_hydrogen", "atom_type": "H0"}}

>  <type>  (1) 
r1h

$$$$

     RDKit          3D

  9  8  0  0  0  0  0  0  0  0999 V2000
   -1.1190   -0.1791    0.1439 C   0  0  0  0  0  0  0  0  0  0  0  0
    0.1303    0.5931   -0.0164 C   0  0  0  0  0  0  0  0  0  0  0  0
    0.3198    1.5563   -1.0510 C   0  0  0  0  0  0  0  0  0  0  0  0
   -0.5293    1.8274   -1.8924 O   0  0  0  0  0  1  0  0  0  0  0  0
   -0.9173   -1.2534    0.0852 H   0  0  0  0  0  0  0  0  0  0  0  0
   -1.8441    0.0914   -0.6212 H   0  0  0  0  0  0  0  0  0  0  0  0
   -1.5557   -0.0033    1.1322 H   0  0  0  0  0  0  0  0  0  0  0  0
    0.9483    0.4300    0.6772 H   0  0  0  0  0  0  0  0  0  0  0  0
    1.2979    2.0687   -1.0664 H   0  0  0  0  0  0  0  0  0  0  0  0
  1  2  1  0
  1  5  1  0
  1  6  1  0
  1  7  1  0
  2  3  2  3
  2  8  1  0
  3  4  1  0
  3  9  1  0
M  RAD  1   4   2
M  END
>  <reaction>  (2) 
rxn_437

>  <mol_properties>  (2) 
{"3": {"label": "acceptor", "atom_type": "O2s"}}

>  <type>  (2) 
r2

$$$$

     RDKit          3D

 10  9  0  0  0  0  0  0  0  0999 V2000
   -0.8856   -0.4848   -0.7236 C   0  0  0  0  0  0  0  0  0  0  0  0
   -0.2668    0.6546    0.0255 C   0  0  0  0  0  0  0  0  0  0  0  0
    0.1522    1.8066   -0.4848 C   0  0  0  0  0  0  0  0  0  0  0  0
    0.1133    2.2022   -1.7810 O   0  0  0  0  0  0  0  0  0  0  0  0
   -0.2947   -1.3968   -0.6100 H   0  0  0  0  0  0  0  0  0  0  0  0
   -1.8892   -0.7018   -0.3501 H   0  0  0  0  0  0  0  0  0  0  0  0
   -0.9796   -0.2992   -1.7965 H   0  0  0  0  0  0  0  0  0  0  0  0
   -0.1454    0.5334    1.0945 H   0  0  0  0  0  0  0  0  0  0  0  0
    0.5893    2.5767    0.1375 H   0  0  0  0  0  0  0  0  0  0  0  0
   -0.2763    1.5101   -2.3202 H   0  0  0  0  0  0  0  0  0  0  0  0
  1  2  1  0
  1  5  1  0
  1  6  1  0
  1  7  1  0
  2  3  2  3
  2  8  1  0
  3  4  1  0
  3  9  1  0
  4 10  1  0
M  END
>  <reaction>  (3) 
rxn_437

>  <mol_properties>  (3) 
{"0": {"label": "a_hydrogen", "atom_type": "H0"}, "4": {"label": "acceptor", "atom_type": "O2s"}}

>  <type>  (3) 
r2h

$$$$

     RDKit          3D

 13 11  0  0  0  0  0  0  0  0999 V2000
   -0.5022   -1.1778   -0.9276 O   0  0  0  0  0  0  0  0  0  0  0  0
    0.0476   -0.3367   -1.8448 O   0  0  0  0  0  1  0  0  0  0  0  0
   -1.4399   -1.1974   -1.1635 H   0  0  0  0  0  0  0  0  0  0  0  0
    0.3512    0.7034   -1.1454 H   0  0  0  0  0  0  0  0  0  0  0  0
    1.6765   -0.5796    1.0891 C   0  0  0  0  0  0  0  0  0  0  0  0
    0.4781    0.2074    1.4730 C   0  0  0  0  0  0  0  0  0  0  0  0
   -0.0989    1.1896    0.7280 C   0  0  0  0  0  0  0  0  0  0  0  0
    0.2937    1.5582   -0.4600 O   0  0  0  0  0  0  0  0  0  0  0  0
    2.1190   -0.2202    0.1619 H   0  0  0  0  0  0  0  0  0  0  0  0
    1.4173   -1.6329    0.9542 H   0  0  0  0  0  0  0  0  0  0  0  0
    2.4266   -0.5320    1.8828 H   0  0  0  0  0  0  0  0  0  0  0  0
    0.0271    0.0068    2.4386 H   0  0  0  0  0  0  0  0  0  0  0  0
   -0.9523    1.7341    1.1325 H   0  0  0  0  0  0  0  0  0  0  0  0
  1  2  1  0
  1  3  1  0
  4  8  1  0
  5  6  1  0
  5  9  1  0
  5 10  1  0
  5 11  1  0
  6  7  2  3
  6 12  1  0
  7  8  1  0
  7 13  1  0
M  RAD  1   2   2
M  END
>  <reaction>  (4) 
rxn_437

>  <mol_properties>  (4) 
{"0": {"label": "*4", "atom_type": "O2s"}, "1": {"label": "*3", "atom_type": "O2s"}, "3": {"label": "*2", "atom_type": "H0"}, "6": {"label": "*0", "atom_type": "Cd"}, "7": {"label": "*1", "atom_type": "O2s"}}

>  <type>  (4) 
ts

$$$$
