
     RDKit          3D

 13 12  0  0  0  0  0  0  0  0999 V2000
    2.2975   -0.6134    0.7685 C   0  0  0  0  0  0  0  0  0  0  0  0
    1.1676   -0.5248    0.3802 C   0  0  0  0  0  0  0  0  0  0  0  0
   -0.2109   -0.3926   -0.0948 C   0  0  0  0  0  0  0  0  0  0  0  0
   -0.2501    0.2584   -1.4808 C   0  0  0  0  0  0  0  0  0  0  0  0
   -1.0633    0.3831    0.9141 C   0  0  0  0  0  0  0  0  0  0  0  0
    3.2999   -0.6974    1.1133 H   0  0  0  0  0  0  0  0  0  0  0  0
   -0.6209   -1.4038   -0.1814 H   0  0  0  0  0  0  0  0  0  0  0  0
    0.3402   -0.3102   -2.1992 H   0  0  0  0  0  0  0  0  0  0  0  0
    0.1511    1.2724   -1.4369 H   0  0  0  0  0  0  0  0  0  0  0  0
   -1.2791    0.3109   -1.8407 H   0  0  0  0  0  0  0  0  0  0  0  0
   -0.6861    1.4008    1.0287 H   0  0  0  0  0  0  0  0  0  0  0  0
   -1.0492   -0.0971    1.8924 H   0  0  0  0  0  0  0  0  0  0  0  0
   -2.0971    0.4363    0.5680 H   0  0  0  0  0  0  0  0  0  0  0  0
  1  2  3  0
  1  6  1  0
  2  3  1  0
  3  4  1  0
  3  5  1  0
  3  7  1  0
  4  8  1  0
  4  9  1  0
  4 10  1  0
  5 11  1  0
  5 12  1  0
  5 13  1  0
M  END
>  <reaction>  (1) 
rxn_1308

>  <mol_properties>  (1) 
{"2": {"label": "donator", "atom_type": "Cs"}, "6": {"label": "d_hydrogen", "atom_type": "H0"}}

>  <type>  (1) 
r1h

$$$$

     RDKit          3D

 14 13  0  0  0  0  0  0  0  0999 V2000
    1.0767   -1.6838    1.2931 C   0  0  0  0  0  0  0  0  0  0  0  0
    1.0020   -0.3665    0.9163 C   0  0  0  0  0  0  0  0  0  0  0  0
    1.3965    0.7260    1.6806 C   0  0  0  0  0  3  0  0  0  0  0  0
    1.2666    2.1197    1.1619 C   0  0  0  0  0  0  0  0  0  0  0  0
    1.9670    0.5479    3.0536 C   0  0  0  0  0  0  0  0  0  0  0  0
    0.7448   -2.4705    0.6300 H   0  0  0  0  0  0  0  0  0  0  0  0
    1.4663   -1.9826    2.2578 H   0  0  0  0  0  0  0  0  0  0  0  0
    0.5980   -0.1511   -0.0695 H   0  0  0  0  0  0  0  0  0  0  0  0
    0.6296    2.7241    1.8172 H   0  0  0  0  0  0  0  0  0  0  0  0
    2.2410    2.6200    1.1341 H   0  0  0  0  0  0  0  0  0  0  0  0
    0.8426    2.1448    0.1579 H   0  0  0  0  0  0  0  0  0  0  0  0
    2.8745   -0.0634    3.0328 H   0  0  0  0  0  0  0  0  0  0  0  0
    1.2599    0.0408    3.7173 H   0  0  0  0  0  0  0  0  0  0  0  0
    2.2205    1.5071    3.5054 H   0  0  0  0  0  0  0  0  0  0  0  0
  1  2  2  3
  1  6  1  0
  1  7  1  0
  2  3  1  0
  2  8  1  0
  3  4  1  0
  3  5  1  0
  4  9  1  0
  4 10  1  0
  4 11  1  0
  5 12  1  0
  5 13  1  0
  5 14  1  0
M  RAD  1   3   2
M  END
>  <reaction>  (2) 
rxn_1308

>  <mol_properties>  (2) 
{"2": {"label": "acceptor", "atom_type": "Cs"}}

>  <type>  (2) 
r2

$$$$

     RDKit          3D

 15 14  0  0  0  0  0  0  0  0999 V2000
    2.1256    0.4849   -0.6284 C   0  0  0  0  0  0  0  0  0  0  0  0
    1.1128    0.2141    0.1794 C   0  0  0  0  0  0  0  0  0  0  0  0
   -0.3017   -0.0425   -0.2513 C   0  0  0  0  0  0  0  0  0  0  0  0
   -1.2427    1.0075    0.3423 C   0  0  0  0  0  0  0  0  0  0  0  0
   -0.7381   -1.4526    0.1504 C   0  0  0  0  0  0  0  0  0  0  0  0
    3.1243    0.6602   -0.2486 H   0  0  0  0  0  0  0  0  0  0  0  0
    1.9908    0.5411   -1.7036 H   0  0  0  0  0  0  0  0  0  0  0  0
    1.2888    0.1665    1.2533 H   0  0  0  0  0  0  0  0  0  0  0  0
   -0.3426    0.0343   -1.3424 H   0  0  0  0  0  0  0  0  0  0  0  0
   -0.9570    2.0133    0.0315 H   0  0  0  0  0  0  0  0  0  0  0  0
   -1.2189    0.9728    1.4350 H   0  0  0  0  0  0  0  0  0  0  0  0
   -2.2723    0.8287    0.0254 H   0  0  0  0  0  0  0  0  0  0  0  0
   -0.6964   -1.5744    1.2363 H   0  0  0  0  0  0  0  0  0  0  0  0
   -0.0911   -2.2079   -0.2978 H   0  0  0  0  0  0  0  0  0  0  0  0
   -1.7646   -1.6461   -0.1677 H   0  0  0  0  0  0  0  0  0  0  0  0
  1  2  2  3
  1  6  1  0
  1  7  1  0
  2  3  1  0
  2  8  1  0
  3  4  1  0
  3  5  1  0
  3  9  1  0
  4 10  1  0
  4 11  1  0
  4 12  1  0
  5 13  1  0
  5 14  1  0
  5 15  1  0
M  END
>  <reaction>  (3) 
rxn_1308

>  <mol_properties>  (3) 
{"0": {"label": "a_hydrogen", "atom_type": "H0"}, "3": {"label": "acceptor", "atom_type": "Cs"}}

>  <type>  (3) 
r2h

$$$$

     RDKit          3D

 27 25  0  0  0  0  0  0  0  0999 V2000
    1.9257    2.7511    0.1920 C   0  0  0  0  0  0  0  0  0  0  0  0
    0.8866    2.1583    0.0541 C   0  0  0  0  0  0  0  0  0  0  0  0
   -0.3142    1.4034   -0.0889 C   0  0  0  0  0  3  0  0  0  0  0  0
   -0.7519    1.1255   -1.5104 C   0  0  0  0  0  0  0  0  0  0  0  0
   -1.4313    1.7588    0.8675 C   0  0  0  0  0  0  0  0  0  0  0  0
    2.8350    3.2897    0.3078 H   0  0  0  0  0  0  0  0  0  0  0  0
    0.0223    0.1526    0.3491 H   0  0  0  0  0  0  0  0  0  0  0  0
    0.0933    0.8350   -2.1339 H   0  0  0  0  0  0  0  0  0  0  0  0
   -1.2130    2.0122   -1.9565 H   0  0  0  0  0  0  0  0  0  0  0  0
   -1.4876    0.3183   -1.5220 H   0  0  0  0  0  0  0  0  0  0  0  0
   -1.9076    2.7008    0.5801 H   0  0  0  0  0  0  0  0  0  0  0  0
   -1.0597    1.8653    1.8868 H   0  0  0  0  0  0  0  0  0  0  0  0
   -2.1954    0.9780    0.8532 H   0  0  0  0  0  0  0  0  0  0  0  0
   -1.3062   -2.6479   -0.2148 C   0  0  0  0  0  0  0  0  0  0  0  0
   -0.8849   -1.8088    0.7353 C   0  0  0  0  0  0  0  0  0  0  0  0
    0.3707   -1.0569    0.7537 C   0  0  0  0  0  0  0  0  0  0  0  0
    1.4212   -1.4238   -0.2664 C   0  0  0  0  0  0  0  0  0  0  0  0
    0.9214   -0.7560    2.1304 C   0  0  0  0  0  0  0  0  0  0  0  0
   -2.2722   -3.1302   -0.1418 H   0  0  0  0  0  0  0  0  0  0  0  0
   -0.7041   -2.8886   -1.0823 H   0  0  0  0  0  0  0  0  0  0  0  0
   -1.5422   -1.6282    1.5831 H   0  0  0  0  0  0  0  0  0  0  0  0
    2.2304   -0.6915   -0.2543 H   0  0  0  0  0  0  0  0  0  0  0  0
    1.8493   -2.4079   -0.0499 H   0  0  0  0  0  0  0  0  0  0  0  0
    1.0130   -1.4524   -1.2776 H   0  0  0  0  0  0  0  0  0  0  0  0
    1.4103   -1.6380    2.5569 H   0  0  0  0  0  0  0  0  0  0  0  0
    0.1294   -0.4495    2.8165 H   0  0  0  0  0  0  0  0  0  0  0  0
    1.6601    0.0468    2.0832 H   0  0  0  0  0  0  0  0  0  0  0  0
  1  2  3  0
  1  6  1  0
  2  3  1  0
  3  4  1  0
  3  5  1  0
  4  8  1  0
  4  9  1  0
  4 10  1  0
  5 11  1  0
  5 12  1  0
  5 13  1  0
  7 16  1  0
 14 15  2  3
 14 19  1  0
 14 20  1  0
 15 16  1  0
 15 21  1  0
 16 17  1  0
 16 18  1  0
 17 22  1  0
 17 23  1  0
 17 24  1  0
 18 25  1  0
 18 26  1  0
 18 27  1  0
M  RAD  1   3   2
M  END
>  <reaction>  (4) 
rxn_1308

>  <mol_properties>  (4) 
{"1": {"label": "*4", "atom_type": "Ct"}, "2": {"label": "*3", "atom_type": "Cs"}, "6": {"label": "*2", "atom_type": "H0"}, "14": {"label": "*0", "atom_type": "Cd"}, "15": {"label": "*1", "atom_type": "Cs"}}

>  <type>  (4) 
ts

$$$$
