
     RDKit          3D

  3  2  0  0  0  0  0  0  0  0999 V2000
   -0.0513    0.4350    0.0000 N   0  0  0  0  0  0  0  0  0  0  0  0
    0.9414   -0.2226    0.0000 O   0  0  0  0  0  0  0  0  0  0  0  0
   -0.8901   -0.2124    0.0000 H   0  0  0  0  0  0  0  0  0  0  0  0
  1  2  2  0
  1  3  1  0
M  END
>  <reaction>  (1) 
rxn_654

>  <mol_properties>  (1) 
{"0": {"label": "donator", "atom_type": "N3d"}, "2": {"label": "d_hydrogen", "atom_type": "H0"}}

>  <type>  (1) 
r1h

$$$$

     RDKit          3D

  2  1  0  0  0  0  0  0  0  0999 V2000
    0.0000    0.0000    0.5973 O   0  0  0  0  0  1  0  0  0  0  0  0
    0.0000    0.0000   -0.5973 O   0  0  0  0  0  1  0  0  0  0  0  0
  1  2  1  0
M  RAD  2   1   2   2   2
M  END
>  <reaction>  (2) 
rxn_654

>  <mol_properties>  (2) 
{"1": {"label": "acceptor", "atom_type": "O2s"}}

>  <type>  (2) 
r2

$$$$

     RDKit          3D

  3  2  0  0  0  0  0  0  0  0999 V2000
    0.9943   -0.1797    0.0000 O   0  0  0  0  0  1  0  0  0  0  0  0
   -0.1595    0.4394    0.0000 O   0  0  0  0  0  0  0  0  0  0  0  0
   -0.8348   -0.2597    0.0000 H   0  0  0  0  0  0  0  0  0  0  0  0
  1  2  1  0
  2  3  1  0
M  RAD  1   1   2
M  END
>  <reaction>  (3) 
rxn_654

>  <mol_properties>  (3) 
{"0": {"label": "a_hydrogen", "atom_type": "H0"}, "2": {"label": "acceptor", "atom_type": "O2s"}}

>  <type>  (3) 
r2h

$$$$

     RDKit          3D

  5  3  0  0  0  0  0  0  0  0999 V2000
   -0.0008   -1.3675    0.1383 N   0  0  0  0  0  0  0  0  0  0  0  0
   -0.0003   -1.1202   -0.9912 O   0  0  0  0  0  0  0  0  0  0  0  0
   -0.0003   -0.2881    0.7472 H   0  0  0  0  0  0  0  0  0  0  0  0
    0.0010    1.4636   -0.2403 O   0  0  0  0  0  0  0  0  0  0  0  0
    0.0004    0.9751    0.9109 O   0  0  0  0  0  0  0  0  0  0  0  0
  1  2  2  0
  1  3  1  0
  4  5  2  0
M  END
>  <reaction>  (4) 
rxn_654

>  <mol_properties>  (4) 
{"0": {"label": "*1", "atom_type": "N3d"}, "1": {"label": "*0", "atom_type": "O2d"}, "2": {"label": "*2", "atom_type": "H0"}, "3": {"label": "*4", "atom_type": "O2d"}, "4": {"label": "*3", "atom_type": "O2d"}}

>  <type>  (4) 
ts

$$$$
