
     RDKit          3D

 18 18  0  0  0  0  0  0  0  0999 V2000
   -2.4852    0.3210   -0.3966 C   0  0  0  0  0  0  0  0  0  0  0  0
   -1.5917   -0.2708    0.6941 C   0  0  0  0  0  0  0  0  0  0  0  0
   -0.1292   -0.1692    0.3493 C   0  0  0  0  0  0  0  0  0  0  0  0
    0.6099    0.9558    0.7015 C   0  0  0  0  0  0  0  0  0  0  0  0
    1.9447    1.0728    0.3458 C   0  0  0  0  0  0  0  0  0  0  0  0
    2.5646    0.0613   -0.3720 C   0  0  0  0  0  0  0  0  0  0  0  0
    1.8399   -1.0657   -0.7287 C   0  0  0  0  0  0  0  0  0  0  0  0
    0.5055   -1.1769   -0.3700 C   0  0  0  0  0  0  0  0  0  0  0  0
   -2.3325   -0.1971   -1.3452 H   0  0  0  0  0  0  0  0  0  0  0  0
   -2.2554    1.3763   -0.5546 H   0  0  0  0  0  0  0  0  0  0  0  0
   -3.5397    0.2376   -0.1280 H   0  0  0  0  0  0  0  0  0  0  0  0
   -1.7801    0.2462    1.6380 H   0  0  0  0  0  0  0  0  0  0  0  0
   -1.8568   -1.3190    0.8516 H   0  0  0  0  0  0  0  0  0  0  0  0
    0.1327    1.7497    1.2656 H   0  0  0  0  0  0  0  0  0  0  0  0
    2.5033    1.9550    0.6330 H   0  0  0  0  0  0  0  0  0  0  0  0
    3.6077    0.1491   -0.6484 H   0  0  0  0  0  0  0  0  0  0  0  0
    2.3163   -1.8632   -1.2854 H   0  0  0  0  0  0  0  0  0  0  0  0
   -0.0540   -2.0629   -0.6500 H   0  0  0  0  0  0  0  0  0  0  0  0
  1  2  1  0
  1  9  1  0
  1 10  1  0
  1 11  1  0
  2  3  1  0
  2 12  1  0
  2 13  1  0
  3  4  2  0
  3  8  1  0
  4  5  1  0
  4 14  1  0
  5  6  2  0
  5 15  1  0
  6  7  1  0
  6 16  1  0
  7  8  2  0
  7 17  1  0
  8 18  1  0
M  END
>  <reaction>  (1) 
rxn_1503

>  <mol_properties>  (1) 
{"1": {"label": "donator", "atom_type": "Cs"}, "11": {"label": "d_hydrogen", "atom_type": "H0"}}

>  <type>  (1) 
r1h

$$$$

     RDKit          3D

  9  8  0  0  0  0  0  0  0  0999 V2000
   -1.2704   -0.1236    0.1096 C   0  0  0  0  0  0  0  0  0  0  0  0
    0.0713   -0.5323    0.5887 C   0  0  0  0  0  0  0  0  0  0  0  0
    0.9521   -1.3639   -0.0464 C   0  0  0  0  0  0  0  0  0  0  0  0
    0.6900   -2.1109   -1.5335 S   0  0  0  0  0  1  0  0  0  0  0  0
   -1.3201    0.9657    0.0241 H   0  0  0  0  0  0  0  0  0  0  0  0
   -1.5103   -0.5706   -0.8526 H   0  0  0  0  0  0  0  0  0  0  0  0
   -2.0312   -0.4112    0.8411 H   0  0  0  0  0  0  0  0  0  0  0  0
    0.3863   -0.1265    1.5468 H   0  0  0  0  0  0  0  0  0  0  0  0
    1.8971   -1.5543    0.4552 H   0  0  0  0  0  0  0  0  0  0  0  0
  1  2  1  0
  1  5  1  0
  1  6  1  0
  1  7  1  0
  2  3  2  3
  2  8  1  0
  3  4  1  0
  3  9  1  0
M  RAD  1   4   2
M  END
>  <reaction>  (2) 
rxn_1503

>  <mol_properties>  (2) 
{"1": {"label": "acceptor", "atom_type": "Cs"}}

>  <type>  (2) 
r2

$$$$

     RDKit          3D

 10  9  0  0  0  0  0  0  0  0999 V2000
   -1.1508    0.0666    0.2839 C   0  0  0  0  0  0  0  0  0  0  0  0
    0.1022   -0.3749   -0.4771 C   0  0  0  0  0  0  0  0  0  0  0  0
    1.3428    0.1620    0.1542 C   0  0  0  0  0  0  0  0  0  0  0  0
    2.5613   -0.6971    0.7526 S   0  0  0  0  0  0  0  0  0  0  0  0
   -1.2137    1.1546    0.3481 H   0  0  0  0  0  0  0  0  0  0  0  0
   -2.0472   -0.2935   -0.2212 H   0  0  0  0  0  0  0  0  0  0  0  0
   -1.1467   -0.3334    1.2987 H   0  0  0  0  0  0  0  0  0  0  0  0
    0.1602   -1.4616   -0.5369 H   0  0  0  0  0  0  0  0  0  0  0  0
    0.0536    0.0174   -1.4997 H   0  0  0  0  0  0  0  0  0  0  0  0
    1.3824    1.2528    0.2110 H   0  0  0  0  0  0  0  0  0  0  0  0
  1  2  1  0
  1  5  1  0
  1  6  1  0
  1  7  1  0
  2  3  1  0
  2  8  1  0
  2  9  1  0
  3  4  2  0
  3 10  1  0
M  END
>  <reaction>  (3) 
rxn_1503

>  <mol_properties>  (3) 
{"1": {"label": "acceptor", "atom_type": "Cs"}, "9": {"label": "a_hydrogen", "atom_type": "H0"}}

>  <type>  (3) 
r2h

$$$$

     RDKit          3D

 27 26  0  0  0  0  0  0  0  0999 V2000
   -0.5030   -1.1889    2.0843 C   0  0  0  0  0  0  0  0  0  0  0  0
   -0.4785   -1.9871    0.8064 C   0  0  0  0  0  0  0  0  0  0  0  0
   -1.6233   -1.9952   -0.0670 C   0  0  0  0  0  0  0  0  0  0  0  0
   -2.8566   -0.9214   -0.0767 S   0  0  0  0  0  0  0  0  0  0  0  0
   -0.8069   -0.1594    1.8963 H   0  0  0  0  0  0  0  0  0  0  0  0
   -1.2161   -1.6205    2.7904 H   0  0  0  0  0  0  0  0  0  0  0  0
    0.4829   -1.1810    2.5502 H   0  0  0  0  0  0  0  0  0  0  0  0
   -0.0047   -2.9659    0.8906 H   0  0  0  0  0  0  0  0  0  0  0  0
   -1.6150   -2.7816   -0.8224 H   0  0  0  0  0  0  0  0  0  0  0  0
    0.8403   -0.8735   -2.0331 C   0  0  0  0  0  0  0  0  0  0  0  0
    1.3376   -0.5948   -0.6442 C   0  0  0  0  0  0  0  0  0  0  0  0
    1.1935    0.7257   -0.0457 C   0  0  0  0  0  0  0  0  0  0  0  0
    0.1722    1.6040   -0.4271 C   0  0  0  0  0  3  0  0  0  0  0  0
    0.0148    2.8234    0.2071 C   0  0  0  0  0  0  0  0  0  0  0  0
    0.8703    3.1969    1.2334 C   0  0  0  0  0  0  0  0  0  0  0  0
    1.8909    2.3384    1.6224 C   0  0  0  0  0  0  0  0  0  0  0  0
    2.0477    1.1188    0.9931 C   0  0  0  0  0  0  0  0  0  0  0  0
    1.3406   -0.2310   -2.7633 H   0  0  0  0  0  0  0  0  0  0  0  0
   -0.2341   -0.6971   -2.1221 H   0  0  0  0  0  0  0  0  0  0  0  0
    1.0292   -1.9111   -2.3092 H   0  0  0  0  0  0  0  0  0  0  0  0
    0.4145   -1.3798    0.0969 H   0  0  0  0  0  0  0  0  0  0  0  0
    2.2632   -1.1011   -0.3786 H   0  0  0  0  0  0  0  0  0  0  0  0
   -0.5154    1.3230   -1.2138 H   0  0  0  0  0  0  0  0  0  0  0  0
   -0.7863    3.4847   -0.0978 H   0  0  0  0  0  0  0  0  0  0  0  0
    0.7433    4.1510    1.7285 H   0  0  0  0  0  0  0  0  0  0  0  0
    2.5647    2.6232    2.4207 H   0  0  0  0  0  0  0  0  0  0  0  0
    2.8425    0.4500    1.3037 H   0  0  0  0  0  0  0  0  0  0  0  0
  1  2  1  0
  1  5  1  0
  1  6  1  0
  1  7  1  0
  2  3  1  0
  2  8  1  0
  2 21  1  0
  3  4  2  0
  3  9  1  0
 10 11  1  0
 10 18  1  0
 10 19  1  0
 10 20  1  0
 11 12  2  3
 11 22  1  0
 12 13  1  0
 12 17  1  0
 13 14  1  0
 13 23  1  0
 14 15  2  0
 14 24  1  0
 15 16  1  0
 15 25  1  0
 16 17  2  0
 16 26  1  0
 17 27  1  0
M  RAD  1  13   2
M  END
>  <reaction>  (4) 
rxn_1503

>  <mol_properties>  (4) 
{"1": {"label": "*1", "atom_type": "Cs"}, "2": {"label": "*0", "atom_type": "CS"}, "10": {"label": "*3", "atom_type": "Cd"}, "11": {"label": "*4", "atom_type": "Cd"}, "20": {"label": "*2", "atom_type": "H0"}}

>  <type>  (4) 
ts

$$$$
