
     RDKit          3D

 19 20  0  0  0  0  0  0  0  0999 V2000
    1.1087   -0.4716   -0.9619 C   0  0  0  0  0  0  0  0  0  0  0  0
    0.9355    1.0407   -0.6470 C   0  0  0  0  0  0  0  0  0  0  0  0
   -0.0085    1.0377    0.5657 C   0  0  0  0  0  0  0  0  0  0  0  0
   -1.4093    0.6181    0.0927 C   0  0  0  0  0  0  0  0  0  0  0  0
   -1.2361   -0.8942   -0.2222 C   0  0  0  0  0  0  0  0  0  0  0  0
    0.2422   -1.1516    0.1099 C   0  0  0  0  0  0  0  0  0  0  0  0
    0.4537   -0.2211    1.3118 C   0  0  0  0  0  0  0  0  0  0  0  0
    2.1524   -0.7752   -0.8653 H   0  0  0  0  0  0  0  0  0  0  0  0
    0.7855   -0.7316   -1.9710 H   0  0  0  0  0  0  0  0  0  0  0  0
    1.8918    1.5001   -0.3916 H   0  0  0  0  0  0  0  0  0  0  0  0
    0.5184    1.6005   -1.4855 H   0  0  0  0  0  0  0  0  0  0  0  0
    0.0038    1.9661    1.1351 H   0  0  0  0  0  0  0  0  0  0  0  0
   -1.7351    1.1944   -0.7746 H   0  0  0  0  0  0  0  0  0  0  0  0
   -2.1465    0.7723    0.8824 H   0  0  0  0  0  0  0  0  0  0  0  0
   -1.4680   -1.1377   -1.2601 H   0  0  0  0  0  0  0  0  0  0  0  0
   -1.8859   -1.5030    0.4087 H   0  0  0  0  0  0  0  0  0  0  0  0
    0.4812   -2.2025    0.2673 H   0  0  0  0  0  0  0  0  0  0  0  0
    1.4942   -0.1701    1.6391 H   0  0  0  0  0  0  0  0  0  0  0  0
   -0.1779   -0.4714    2.1666 H   0  0  0  0  0  0  0  0  0  0  0  0
  1  2  1  0
  1  6  1  0
  1  8  1  0
  1  9  1  0
  2  3  1  0
  2 10  1  0
  2 11  1  0
  3  4  1  0
  3  7  1  0
  3 12  1  0
  4  5  1  0
  4 13  1  0
  4 14  1  0
  5  6  1  0
  5 15  1  0
  5 16  1  0
  6  7  1  0
  6 17  1  0
  7 18  1  0
  7 19  1  0
M  END
>  <reaction>  (1) 
rxn_548

>  <mol_properties>  (1) 
{"6": {"label": "donator", "atom_type": "Cs"}, "17": {"label": "d_hydrogen", "atom_type": "H0"}}

>  <type>  (1) 
r1h

$$$$

     RDKit          3D

 17 17  0  0  0  0  0  0  0  0999 V2000
    2.7069    0.2860   -0.1817 C   0  0  0  0  0  0  0  0  0  0  0  0
    1.6304   -0.7245    0.0085 C   0  0  0  0  0  0  0  0  0  0  0  0
    1.4786   -1.8800   -0.7837 C   0  0  0  0  0  0  0  0  0  0  0  0
    0.4231   -2.7891   -0.5312 C   0  0  0  0  0  3  0  0  0  0  0  0
    0.2582   -3.9235   -1.2940 C   0  0  0  0  0  0  0  0  0  0  0  0
    1.1348   -4.2030   -2.3401 C   0  0  0  0  0  0  0  0  0  0  0  0
    2.1804   -3.3260   -2.6093 C   0  0  0  0  0  0  0  0  0  0  0  0
    2.3549   -2.1866   -1.8513 C   0  0  0  0  0  0  0  0  0  0  0  0
    2.6698    0.7343   -1.1808 H   0  0  0  0  0  0  0  0  0  0  0  0
    3.7029   -0.1584   -0.0766 H   0  0  0  0  0  0  0  0  0  0  0  0
    2.6250    1.0917    0.5463 H   0  0  0  0  0  0  0  0  0  0  0  0
    0.9136   -0.5677    0.8059 H   0  0  0  0  0  0  0  0  0  0  0  0
   -0.2629   -2.5783    0.2811 H   0  0  0  0  0  0  0  0  0  0  0  0
   -0.5582   -4.6017   -1.0785 H   0  0  0  0  0  0  0  0  0  0  0  0
    1.0033   -5.0952   -2.9384 H   0  0  0  0  0  0  0  0  0  0  0  0
    2.8650   -3.5382   -3.4214 H   0  0  0  0  0  0  0  0  0  0  0  0
    3.1750   -1.5169   -2.0772 H   0  0  0  0  0  0  0  0  0  0  0  0
  1  2  1  0
  1  9  1  0
  1 10  1  0
  1 11  1  0
  2  3  2  3
  2 12  1  0
  3  4  1  0
  3  8  1  0
  4  5  1  0
  4 13  1  0
  5  6  2  0
  5 14  1  0
  6  7  1  0
  6 15  1  0
  7  8  2  0
  7 16  1  0
  8 17  1  0
M  RAD  1   4   2
M  END
>  <reaction>  (2) 
rxn_548

>  <mol_properties>  (2) 
{"1": {"label": "acceptor", "atom_type": "Cs"}}

>  <type>  (2) 
r2

$$$$

     RDKit          3D

 18 18  0  0  0  0  0  0  0  0999 V2000
   -2.4852    0.3210   -0.3966 C   0  0  0  0  0  0  0  0  0  0  0  0
   -1.5917   -0.2708    0.6941 C   0  0  0  0  0  0  0  0  0  0  0  0
   -0.1292   -0.1692    0.3493 C   0  0  0  0  0  0  0  0  0  0  0  0
    0.6099    0.9558    0.7015 C   0  0  0  0  0  0  0  0  0  0  0  0
    1.9447    1.0728    0.3458 C   0  0  0  0  0  0  0  0  0  0  0  0
    2.5646    0.0613   -0.3720 C   0  0  0  0  0  0  0  0  0  0  0  0
    1.8399   -1.0657   -0.7287 C   0  0  0  0  0  0  0  0  0  0  0  0
    0.5055   -1.1769   -0.3700 C   0  0  0  0  0  0  0  0  0  0  0  0
   -2.3325   -0.1971   -1.3452 H   0  0  0  0  0  0  0  0  0  0  0  0
   -2.2554    1.3763   -0.5546 H   0  0  0  0  0  0  0  0  0  0  0  0
   -3.5397    0.2376   -0.1280 H   0  0  0  0  0  0  0  0  0  0  0  0
   -1.7801    0.2462    1.6380 H   0  0  0  0  0  0  0  0  0  0  0  0
   -1.8568   -1.3190    0.8516 H   0  0  0  0  0  0  0  0  0  0  0  0
    0.1327    1.7497    1.2656 H   0  0  0  0  0  0  0  0  0  0  0  0
    2.5033    1.9550    0.6330 H   0  0  0  0  0  0  0  0  0  0  0  0
    3.6077    0.1491   -0.6484 H   0  0  0  0  0  0  0  0  0  0  0  0
    2.3163   -1.8632   -1.2854 H   0  0  0  0  0  0  0  0  0  0  0  0
   -0.0540   -2.0629   -0.6500 H   0  0  0  0  0  0  0  0  0  0  0  0
  1  2  1  0
  1  9  1  0
  1 10  1  0
  1 11  1  0
  2  3  1  0
  2 12  1  0
  2 13  1  0
  3  4  2  0
  3  8  1  0
  4  5  1  0
  4 14  1  0
  5  6  2  0
  5 15  1  0
  6  7  1  0
  6 16  1  0
  7  8  2  0
  7 17  1  0
  8 18  1  0
M  END
>  <reaction>  (3) 
rxn_548

>  <mol_properties>  (3) 
{"1": {"label": "acceptor", "atom_type": "Cs"}, "17": {"label": "a_hydrogen", "atom_type": "H0"}}

>  <type>  (3) 
r2h

$$$$

     RDKit          3D

 36 37  0  0  0  0  0  0  0  0999 V2000
   -1.5839    0.2272    2.4661 C   0  0  0  0  0  0  0  0  0  0  0  0
   -1.5588    0.6394    1.0130 C   0  0  0  0  0  0  0  0  0  0  0  0
   -1.7708   -0.3918   -0.0258 C   0  0  0  0  0  0  0  0  0  0  0  0
   -2.0526    0.0023   -1.3373 C   0  0  0  0  0  0  0  0  0  0  0  0
   -2.1637   -0.9243   -2.3574 C   0  0  0  0  0  0  0  0  0  0  0  0
   -1.9982   -2.2776   -2.0923 C   0  0  0  0  0  0  0  0  0  0  0  0
   -1.7310   -2.6866   -0.7956 C   0  0  0  0  0  0  0  0  0  0  0  0
   -1.6201   -1.7555    0.2261 C   0  0  0  0  0  0  0  0  0  0  0  0
   -0.7970   -0.4948    2.6946 H   0  0  0  0  0  0  0  0  0  0  0  0
   -2.5407   -0.2246    2.7429 H   0  0  0  0  0  0  0  0  0  0  0  0
   -1.4233    1.0945    3.1076 H   0  0  0  0  0  0  0  0  0  0  0  0
   -2.1677    1.5245    0.8242 H   0  0  0  0  0  0  0  0  0  0  0  0
   -2.1742    1.0579   -1.5542 H   0  0  0  0  0  0  0  0  0  0  0  0
   -2.3793   -0.5917   -3.3653 H   0  0  0  0  0  0  0  0  0  0  0  0
   -2.0824   -3.0053   -2.8892 H   0  0  0  0  0  0  0  0  0  0  0  0
   -1.6076   -3.7397   -0.5749 H   0  0  0  0  0  0  0  0  0  0  0  0
   -1.4113   -2.0989    1.2313 H   0  0  0  0  0  0  0  0  0  0  0  0
    1.6540   -0.1272   -0.6454 C   0  0  0  0  0  0  0  0  0  0  0  0
    1.8506   -0.5068    0.8473 C   0  0  0  0  0  0  0  0  0  0  0  0
    1.9183    0.8580    1.5519 C   0  0  0  0  0  0  0  0  0  0  0  0
    3.2468    1.5396    1.1550 C   0  0  0  0  0  0  0  0  0  0  0  0
    3.0088    1.9412   -0.3304 C   0  0  0  0  0  0  0  0  0  0  0  0
    1.5861    1.4099   -0.6107 C   0  0  0  0  0  0  0  0  0  0  0  0
    0.9344    1.6739    0.7346 C   0  0  0  0  0  3  0  0  0  0  0  0
    0.7324   -0.5539   -1.0398 H   0  0  0  0  0  0  0  0  0  0  0  0
    2.4738   -0.4741   -1.2761 H   0  0  0  0  0  0  0  0  0  0  0  0
    1.0021   -1.0894    1.2093 H   0  0  0  0  0  0  0  0  0  0  0  0
    2.7517   -1.0970    1.0199 H   0  0  0  0  0  0  0  0  0  0  0  0
    1.7471    0.8172    2.6264 H   0  0  0  0  0  0  0  0  0  0  0  0
    4.0974    0.8666    1.2783 H   0  0  0  0  0  0  0  0  0  0  0  0
    3.4312    2.4183    1.7745 H   0  0  0  0  0  0  0  0  0  0  0  0
    3.7442    1.5051   -1.0089 H   0  0  0  0  0  0  0  0  0  0  0  0
    3.0487    3.0245   -0.4538 H   0  0  0  0  0  0  0  0  0  0  0  0
    1.1105    1.8558   -1.4824 H   0  0  0  0  0  0  0  0  0  0  0  0
   -0.3916    1.0994    0.8209 H   0  0  0  0  0  0  0  0  0  0  0  0
    0.7609    2.7098    1.0245 H   0  0  0  0  0  0  0  0  0  0  0  0
  1  2  1  0
  1  9  1  0
  1 10  1  0
  1 11  1  0
  2  3  1  0
  2 12  1  0
  2 35  1  0
  3  4  2  0
  3  8  1  0
  4  5  1  0
  4 13  1  0
  5  6  2  0
  5 14  1  0
  6  7  1  0
  6 15  1  0
  7  8  2  0
  7 16  1  0
  8 17  1  0
 18 19  1  0
 18 23  1  0
 18 25  1  0
 18 26  1  0
 19 20  1  0
 19 27  1  0
 19 28  1  0
 20 21  1  0
 20 24  1  0
 20 29  1  0
 21 22  1  0
 21 30  1  0
 21 31  1  0
 22 23  1  0
 22 32  1  0
 22 33  1  0
 23 24  1  0
 23 34  1  0
 24 36  1  0
M  RAD  1  24   2
M  END
>  <reaction>  (4) 
rxn_548

>  <mol_properties>  (4) 
{"1": {"label": "*1", "atom_type": "Cs"}, "2": {"label": "*0", "atom_type": "Cd"}, "19": {"label": "*4", "atom_type": "Cs"}, "23": {"label": "*3", "atom_type": "Cs"}, "34": {"label": "*2", "atom_type": "H0"}}

>  <type>  (4) 
ts

$$$$
