
     RDKit          3D

 13 12  0  0  0  0  0  0  0  0999 V2000
    2.2975   -0.6134    0.7685 C   0  0  0  0  0  0  0  0  0  0  0  0
    1.1676   -0.5248    0.3802 C   0  0  0  0  0  0  0  0  0  0  0  0
   -0.2109   -0.3926   -0.0948 C   0  0  0  0  0  0  0  0  0  0  0  0
   -0.2501    0.2584   -1.4808 C   0  0  0  0  0  0  0  0  0  0  0  0
   -1.0633    0.3831    0.9141 C   0  0  0  0  0  0  0  0  0  0  0  0
    3.2999   -0.6974    1.1133 H   0  0  0  0  0  0  0  0  0  0  0  0
   -0.6209   -1.4038   -0.1814 H   0  0  0  0  0  0  0  0  0  0  0  0
    0.3402   -0.3102   -2.1992 H   0  0  0  0  0  0  0  0  0  0  0  0
    0.1511    1.2724   -1.4369 H   0  0  0  0  0  0  0  0  0  0  0  0
   -1.2791    0.3109   -1.8407 H   0  0  0  0  0  0  0  0  0  0  0  0
   -0.6861    1.4008    1.0287 H   0  0  0  0  0  0  0  0  0  0  0  0
   -1.0492   -0.0971    1.8924 H   0  0  0  0  0  0  0  0  0  0  0  0
   -2.0971    0.4363    0.5680 H   0  0  0  0  0  0  0  0  0  0  0  0
  1  2  3  0
  1  6  1  0
  2  3  1  0
  3  4  1  0
  3  5  1  0
  3  7  1  0
  4  8  1  0
  4  9  1  0
  4 10  1  0
  5 11  1  0
  5 12  1  0
  5 13  1  0
M  END
>  <reaction>  (1) 
rxn_1328

>  <mol_properties>  (1) 
{"2": {"label": "donator", "atom_type": "Cs"}, "6": {"label": "d_hydrogen", "atom_type": "H0"}}

>  <type>  (1) 
r1h

$$$$

     RDKit          3D

 12 11  0  0  0  0  0  0  0  0999 V2000
    2.7049    0.9350   -0.4404 S   0  0  0  0  0  1  0  0  0  0  0  0
    1.0313    1.0813   -0.4080 C   0  0  0  0  0  0  0  0  0  0  0  0
    0.1364    0.1019   -0.0473 C   0  0  0  0  0  0  0  0  0  0  0  0
    0.5360   -1.2679    0.3784 C   0  0  0  0  0  0  0  0  0  0  0  0
   -1.3304    0.3842   -0.0689 C   0  0  0  0  0  0  0  0  0  0  0  0
    0.6069    2.0398   -0.6990 H   0  0  0  0  0  0  0  0  0  0  0  0
    0.1578   -1.4699    1.3849 H   0  0  0  0  0  0  0  0  0  0  0  0
    0.0783   -2.0109   -0.2814 H   0  0  0  0  0  0  0  0  0  0  0  0
    1.6154   -1.3973    0.3689 H   0  0  0  0  0  0  0  0  0  0  0  0
   -1.8406   -0.3126   -0.7406 H   0  0  0  0  0  0  0  0  0  0  0  0
   -1.5514    1.4016   -0.3887 H   0  0  0  0  0  0  0  0  0  0  0  0
   -1.7610    0.2281    0.9247 H   0  0  0  0  0  0  0  0  0  0  0  0
  1  2  1  0
  2  3  2  3
  2  6  1  0
  3  4  1  0
  3  5  1  0
  4  7  1  0
  4  8  1  0
  4  9  1  0
  5 10  1  0
  5 11  1  0
  5 12  1  0
M  RAD  1   1   2
M  END
>  <reaction>  (2) 
rxn_1328

>  <mol_properties>  (2) 
{"2": {"label": "acceptor", "atom_type": "Cs"}}

>  <type>  (2) 
r2

$$$$

     RDKit          3D

 13 12  0  0  0  0  0  0  0  0999 V2000
    2.7452   -1.1134   -0.3601 S   0  0  0  0  0  0  0  0  0  0  0  0
    1.4120   -0.4899    0.2856 C   0  0  0  0  0  0  0  0  0  0  0  0
    0.1714   -0.0257   -0.4180 C   0  0  0  0  0  0  0  0  0  0  0  0
   -0.0717    1.4493   -0.0658 C   0  0  0  0  0  0  0  0  0  0  0  0
    0.1609   -0.2576   -1.9191 C   0  0  0  0  0  0  0  0  0  0  0  0
    1.3665   -0.3550    1.3690 H   0  0  0  0  0  0  0  0  0  0  0  0
   -0.6453   -0.6023    0.0382 H   0  0  0  0  0  0  0  0  0  0  0  0
    0.7161    2.0755   -0.4895 H   0  0  0  0  0  0  0  0  0  0  0  0
   -0.0915    1.6095    1.0136 H   0  0  0  0  0  0  0  0  0  0  0  0
   -1.0268    1.7797   -0.4755 H   0  0  0  0  0  0  0  0  0  0  0  0
    0.3131   -1.3093   -2.1616 H   0  0  0  0  0  0  0  0  0  0  0  0
    0.9567    0.3095   -2.4051 H   0  0  0  0  0  0  0  0  0  0  0  0
   -0.7945    0.0619   -2.3384 H   0  0  0  0  0  0  0  0  0  0  0  0
  1  2  2  0
  2  3  1  0
  2  6  1  0
  3  4  1  0
  3  5  1  0
  3  7  1  0
  4  8  1  0
  4  9  1  0
  4 10  1  0
  5 11  1  0
  5 12  1  0
  5 13  1  0
M  END
>  <reaction>  (3) 
rxn_1328

>  <mol_properties>  (3) 
{"0": {"label": "a_hydrogen", "atom_type": "H0"}, "3": {"label": "acceptor", "atom_type": "Cs"}}

>  <type>  (3) 
r2h

$$$$

     RDKit          3D

 25 23  0  0  0  0  0  0  0  0999 V2000
   -2.0948    0.8827   -2.7068 C   0  0  0  0  0  0  0  0  0  0  0  0
   -1.3536    1.1672   -1.8007 C   0  0  0  0  0  0  0  0  0  0  0  0
   -0.4906    1.4536   -0.7121 C   0  0  0  0  0  3  0  0  0  0  0  0
   -1.0462    2.3371    0.3780 C   0  0  0  0  0  0  0  0  0  0  0  0
    0.9719    1.6369   -1.0323 C   0  0  0  0  0  0  0  0  0  0  0  0
   -2.7478    0.6475   -3.5126 H   0  0  0  0  0  0  0  0  0  0  0  0
   -0.4090    0.2031   -0.0223 H   0  0  0  0  0  0  0  0  0  0  0  0
   -2.0841    2.0911    0.5976 H   0  0  0  0  0  0  0  0  0  0  0  0
   -1.0017    3.3872    0.0722 H   0  0  0  0  0  0  0  0  0  0  0  0
   -0.4584    2.2256    1.2909 H   0  0  0  0  0  0  0  0  0  0  0  0
    1.1494    2.6312   -1.4524 H   0  0  0  0  0  0  0  0  0  0  0  0
    1.3167    0.8974   -1.7547 H   0  0  0  0  0  0  0  0  0  0  0  0
    1.5682    1.5491   -0.1210 H   0  0  0  0  0  0  0  0  0  0  0  0
    0.7097   -0.2111    3.0097 S   0  0  0  0  0  0  0  0  0  0  0  0
    0.7137   -0.7618    1.4734 C   0  0  0  0  0  0  0  0  0  0  0  0
   -0.4187   -0.9200    0.5833 C   0  0  0  0  0  0  0  0  0  0  0  0
   -0.2119   -1.8876   -0.5660 C   0  0  0  0  0  0  0  0  0  0  0  0
   -1.8065   -0.9447    1.1790 C   0  0  0  0  0  0  0  0  0  0  0  0
    1.6752   -1.0039    1.0167 H   0  0  0  0  0  0  0  0  0  0  0  0
   -0.3514   -2.9179   -0.2280 H   0  0  0  0  0  0  0  0  0  0  0  0
   -0.9327   -1.6947   -1.3621 H   0  0  0  0  0  0  0  0  0  0  0  0
    0.7918   -1.8020   -0.9861 H   0  0  0  0  0  0  0  0  0  0  0  0
   -2.5528   -0.7788    0.3997 H   0  0  0  0  0  0  0  0  0  0  0  0
   -1.9194   -0.1872    1.9528 H   0  0  0  0  0  0  0  0  0  0  0  0
   -2.0020   -1.9182    1.6363 H   0  0  0  0  0  0  0  0  0  0  0  0
  1  2  3  0
  1  6  1  0
  2  3  1  0
  3  4  1  0
  3  5  1  0
  4  8  1  0
  4  9  1  0
  4 10  1  0
  5 11  1  0
  5 12  1  0
  5 13  1  0
  7 16  1  0
 14 15  2  0
 15 16  1  0
 15 19  1  0
 16 17  1  0
 16 18  1  0
 17 20  1  0
 17 21  1  0
 17 22  1  0
 18 23  1  0
 18 24  1  0
 18 25  1  0
M  RAD  1   3   2
M  END
>  <reaction>  (4) 
rxn_1328

>  <mol_properties>  (4) 
{"1": {"label": "*4", "atom_type": "Ct"}, "2": {"label": "*3", "atom_type": "Cs"}, "6": {"label": "*2", "atom_type": "H0"}, "14": {"label": "*0", "atom_type": "CS"}, "15": {"label": "*1", "atom_type": "Cs"}}

>  <type>  (4) 
ts

$$$$
