
     RDKit          3D

 22 23  0  0  0  0  0  0  0  0999 V2000
   -2.1093   -0.3263    0.3079 C   0  0  0  0  0  0  0  0  0  0  0  0
   -1.3270    0.9803    0.4115 C   0  0  0  0  0  0  0  0  0  0  0  0
   -0.1818    0.8289   -0.6044 C   0  0  0  0  0  0  0  0  0  0  0  0
    1.1682    1.3904   -0.1341 C   0  0  0  0  0  0  0  0  0  0  0  0
    1.8508    0.2041    0.5479 C   0  0  0  0  0  0  0  0  0  0  0  0
    1.4982   -0.9663   -0.3710 C   0  0  0  0  0  0  0  0  0  0  0  0
    0.0340   -0.7124   -0.7594 C   0  0  0  0  0  0  0  0  0  0  0  0
   -0.9986   -1.3650    0.1756 C   0  0  0  0  0  0  0  0  0  0  0  0
   -2.7686   -0.5042    1.1589 H   0  0  0  0  0  0  0  0  0  0  0  0
   -2.7285   -0.3223   -0.5943 H   0  0  0  0  0  0  0  0  0  0  0  0
   -1.9339    1.8682    0.2289 H   0  0  0  0  0  0  0  0  0  0  0  0
   -0.9144    1.0729    1.4218 H   0  0  0  0  0  0  0  0  0  0  0  0
   -0.4804    1.2763   -1.5535 H   0  0  0  0  0  0  0  0  0  0  0  0
    1.7667    1.7058   -0.9931 H   0  0  0  0  0  0  0  0  0  0  0  0
    1.0540    2.2578    0.5189 H   0  0  0  0  0  0  0  0  0  0  0  0
    1.4197    0.0438    1.5410 H   0  0  0  0  0  0  0  0  0  0  0  0
    2.9248    0.3413    0.6788 H   0  0  0  0  0  0  0  0  0  0  0  0
    2.1362   -0.9329   -1.2584 H   0  0  0  0  0  0  0  0  0  0  0  0
    1.6421   -1.9421    0.0966 H   0  0  0  0  0  0  0  0  0  0  0  0
   -0.1575   -1.0299   -1.7854 H   0  0  0  0  0  0  0  0  0  0  0  0
   -1.3459   -2.3310   -0.1933 H   0  0  0  0  0  0  0  0  0  0  0  0
   -0.5489   -1.5373    1.1593 H   0  0  0  0  0  0  0  0  0  0  0  0
  1  2  1  0
  1  8  1  0
  1  9  1  0
  1 10  1  0
  2  3  1  0
  2 11  1  0
  2 12  1  0
  3  4  1  0
  3  7  1  0
  3 13  1  0
  4  5  1  0
  4 14  1  0
  4 15  1  0
  5  6  1  0
  5 16  1  0
  5 17  1  0
  6  7  1  0
  6 18  1  0
  6 19  1  0
  7  8  1  0
  7 20  1  0
  8 21  1  0
  8 22  1  0
M  END
>  <reaction>  (1) 
rxn_565

>  <mol_properties>  (1) 
{"2": {"label": "donator", "atom_type": "Cs"}, "12": {"label": "d_hydrogen", "atom_type": "H0"}}

>  <type>  (1) 
r1h

$$$$

     RDKit          3D

  9  8  0  0  0  0  0  0  0  0999 V2000
    2.3038   -0.0269    0.1590 C   0  0  0  0  0  0  0  0  0  0  0  0
    1.1426    0.1377   -0.1648 C   0  0  0  0  0  0  0  0  0  0  0  0
   -0.1694    0.3175   -0.5203 C   0  0  0  0  0  3  0  0  0  0  0  0
   -1.3163   -0.1910    0.2856 C   0  0  0  0  0  0  0  0  0  0  0  0
    3.3199   -0.1683    0.4378 H   0  0  0  0  0  0  0  0  0  0  0  0
   -0.3786    0.8584   -1.4360 H   0  0  0  0  0  0  0  0  0  0  0  0
   -1.9694    0.6309    0.5951 H   0  0  0  0  0  0  0  0  0  0  0  0
   -1.9325   -0.8770   -0.3039 H   0  0  0  0  0  0  0  0  0  0  0  0
   -0.9753   -0.7144    1.1774 H   0  0  0  0  0  0  0  0  0  0  0  0
  1  2  3  0
  1  5  1  0
  2  3  1  0
  3  4  1  0
  3  6  1  0
  4  7  1  0
  4  8  1  0
  4  9  1  0
M  RAD  1   3   2
M  END
>  <reaction>  (2) 
rxn_565

>  <mol_properties>  (2) 
{"2": {"label": "acceptor", "atom_type": "Cs"}}

>  <type>  (2) 
r2

$$$$

     RDKit          3D

 10  9  0  0  0  0  0  0  0  0999 V2000
    2.2738    0.0217   -0.0992 C   0  0  0  0  0  0  0  0  0  0  0  0
    1.1083    0.2960   -0.0695 C   0  0  0  0  0  0  0  0  0  0  0  0
   -0.3173    0.6046   -0.0227 C   0  0  0  0  0  0  0  0  0  0  0  0
   -1.1561   -0.5495    0.5292 C   0  0  0  0  0  0  0  0  0  0  0  0
    3.3097   -0.2166   -0.1277 H   0  0  0  0  0  0  0  0  0  0  0  0
   -0.6542    0.8617   -1.0302 H   0  0  0  0  0  0  0  0  0  0  0  0
   -0.4633    1.4978    0.5900 H   0  0  0  0  0  0  0  0  0  0  0  0
   -0.8485   -0.7997    1.5447 H   0  0  0  0  0  0  0  0  0  0  0  0
   -2.2115   -0.2752    0.5459 H   0  0  0  0  0  0  0  0  0  0  0  0
   -1.0409   -1.4407   -0.0879 H   0  0  0  0  0  0  0  0  0  0  0  0
  1  2  3  0
  1  5  1  0
  2  3  1  0
  3  4  1  0
  3  6  1  0
  3  7  1  0
  4  8  1  0
  4  9  1  0
  4 10  1  0
M  END
>  <reaction>  (3) 
rxn_565

>  <mol_properties>  (3) 
{"2": {"label": "acceptor", "atom_type": "Cs"}, "9": {"label": "a_hydrogen", "atom_type": "H0"}}

>  <type>  (3) 
r2h

$$$$

     RDKit          3D

 31 31  0  0  0  0  0  0  0  0999 V2000
   -2.7276    1.2707    1.7490 C   0  0  0  0  0  0  0  0  0  0  0  0
   -2.3457    0.2231    1.2965 C   0  0  0  0  0  0  0  0  0  0  0  0
   -1.8256   -0.9781    0.7248 C   0  0  0  0  0  0  0  0  0  0  0  0
   -2.4323   -1.4196   -0.5914 C   0  0  0  0  0  0  0  0  0  0  0  0
   -3.0848    2.1843    2.1586 H   0  0  0  0  0  0  0  0  0  0  0  0
   -1.7300   -1.7817    1.4545 H   0  0  0  0  0  0  0  0  0  0  0  0
   -1.8797   -2.2683   -0.9976 H   0  0  0  0  0  0  0  0  0  0  0  0
   -3.4764   -1.7186   -0.4724 H   0  0  0  0  0  0  0  0  0  0  0  0
   -2.3984   -0.6094   -1.3214 H   0  0  0  0  0  0  0  0  0  0  0  0
    1.0161   -0.8321   -2.2337 C   0  0  0  0  0  0  0  0  0  0  0  0
    1.2654   -1.3545   -0.8155 C   0  0  0  0  0  0  0  0  0  0  0  0
    0.6744   -0.2869    0.0864 C   0  0  0  0  0  3  0  0  0  0  0  0
    1.3732    0.0990    1.3741 C   0  0  0  0  0  0  0  0  0  0  0  0
    2.0817    1.4120    1.0136 C   0  0  0  0  0  0  0  0  0  0  0  0
    1.0733    2.1179    0.1024 C   0  0  0  0  0  0  0  0  0  0  0  0
    0.4681    0.9878   -0.7433 C   0  0  0  0  0  0  0  0  0  0  0  0
    1.1682    0.6809   -2.0758 C   0  0  0  0  0  0  0  0  0  0  0  0
    1.6929   -1.2609   -2.9735 H   0  0  0  0  0  0  0  0  0  0  0  0
   -0.0056   -1.0703   -2.5430 H   0  0  0  0  0  0  0  0  0  0  0  0
    0.8426   -2.3471   -0.6403 H   0  0  0  0  0  0  0  0  0  0  0  0
    2.3438   -1.4358   -0.6307 H   0  0  0  0  0  0  0  0  0  0  0  0
   -0.5752   -0.6972    0.4413 H   0  0  0  0  0  0  0  0  0  0  0  0
    0.6373    0.2894    2.1630 H   0  0  0  0  0  0  0  0  0  0  0  0
    2.0511   -0.6760    1.7356 H   0  0  0  0  0  0  0  0  0  0  0  0
    2.9996    1.1939    0.4592 H   0  0  0  0  0  0  0  0  0  0  0  0
    2.3598    2.0041    1.8863 H   0  0  0  0  0  0  0  0  0  0  0  0
    0.2920    2.5777    0.7123 H   0  0  0  0  0  0  0  0  0  0  0  0
    1.5227    2.9031   -0.5079 H   0  0  0  0  0  0  0  0  0  0  0  0
   -0.5946    1.1723   -0.9284 H   0  0  0  0  0  0  0  0  0  0  0  0
    0.7557    1.2484   -2.9110 H   0  0  0  0  0  0  0  0  0  0  0  0
    2.2310    0.9345   -1.9993 H   0  0  0  0  0  0  0  0  0  0  0  0
  1  2  3  0
  1  5  1  0
  2  3  1  0
  3  4  1  0
  3  6  1  0
  3 22  1  0
  4  7  1  0
  4  8  1  0
  4  9  1  0
 10 17  1  0
 10 11  1  0
 10 18  1  0
 10 19  1  0
 11 12  1  0
 11 20  1  0
 11 21  1  0
 12 13  1  0
 12 16  1  0
 13 14  1  0
 13 23  1  0
 13 24  1  0
 14 15  1  0
 14 25  1  0
 14 26  1  0
 15 16  1  0
 15 27  1  0
 15 28  1  0
 16 17  1  0
 16 29  1  0
 17 30  1  0
 17 31  1  0
M  RAD  1  12   2
M  END
>  <reaction>  (4) 
rxn_565

>  <mol_properties>  (4) 
{"1": {"label": "*0", "atom_type": "Ct"}, "2": {"label": "*1", "atom_type": "Cs"}, "11": {"label": "*3", "atom_type": "Cs"}, "15": {"label": "*4", "atom_type": "Cs"}, "21": {"label": "*2", "atom_type": "H0"}}

>  <type>  (4) 
ts

$$$$
