
     RDKit          3D

 15 15  0  0  0  0  0  0  0  0999 V2000
    2.2031   -0.2111   -0.1693 C   0  0  0  0  0  0  0  0  0  0  0  0
    0.7140   -0.0314   -0.0623 C   0  0  0  0  0  0  0  0  0  0  0  0
   -0.0114    0.5491   -1.0982 C   0  0  0  0  0  0  0  0  0  0  0  0
   -1.3882    0.6886   -1.0150 C   0  0  0  0  0  0  0  0  0  0  0  0
   -2.0661    0.2493    0.1118 C   0  0  0  0  0  0  0  0  0  0  0  0
   -1.3551   -0.3278    1.1528 C   0  0  0  0  0  0  0  0  0  0  0  0
    0.0216   -0.4648    1.0642 C   0  0  0  0  0  0  0  0  0  0  0  0
    2.6776   -0.1836    0.8122 H   0  0  0  0  0  0  0  0  0  0  0  0
    2.4446   -1.1749   -0.6249 H   0  0  0  0  0  0  0  0  0  0  0  0
    2.6532    0.5664   -0.7875 H   0  0  0  0  0  0  0  0  0  0  0  0
    0.5104    0.8989   -1.9819 H   0  0  0  0  0  0  0  0  0  0  0  0
   -1.9328    1.1452   -1.8322 H   0  0  0  0  0  0  0  0  0  0  0  0
   -3.1409    0.3597    0.1800 H   0  0  0  0  0  0  0  0  0  0  0  0
   -1.8736   -0.6702    2.0398 H   0  0  0  0  0  0  0  0  0  0  0  0
    0.5695   -0.9141    1.8849 H   0  0  0  0  0  0  0  0  0  0  0  0
  1  2  1  0
  1  8  1  0
  1  9  1  0
  1 10  1  0
  2  3  2  0
  2  7  1  0
  3  4  1  0
  3 11  1  0
  4  5  2  0
  4 12  1  0
  5  6  1  0
  5 13  1  0
  6  7  2  0
  6 14  1  0
  7 15  1  0
M  END
>  <reaction>  (1) 
rxn_270

>  <mol_properties>  (1) 
{"4": {"label": "donator", "atom_type": "Cd"}, "12": {"label": "d_hydrogen", "atom_type": "H0"}}

>  <type>  (1) 
r1h

$$$$

     RDKit          3D

  4  3  0  0  0  0  0  0  0  0999 V2000
    0.0000    0.0000    0.0000 C   0  0  0  0  0  3  0  0  0  0  0  0
    1.0638   -0.1747    0.0540 H   0  0  0  0  0  0  0  0  0  0  0  0
   -0.6833   -0.8351   -0.0280 H   0  0  0  0  0  0  0  0  0  0  0  0
   -0.3805    1.0098   -0.0260 H   0  0  0  0  0  0  0  0  0  0  0  0
  1  2  1  0
  1  3  1  0
  1  4  1  0
M  RAD  1   1   2
M  END
>  <reaction>  (2) 
rxn_270

>  <mol_properties>  (2) 
{"0": {"label": "acceptor", "atom_type": "Cs"}}

>  <type>  (2) 
r2

$$$$

     RDKit          3D

  5  4  0  0  0  0  0  0  0  0999 V2000
    0.0000    0.0000    0.0000 C   0  0  0  0  0  0  0  0  0  0  0  0
   -0.6486   -0.7720   -0.4113 H   0  0  0  0  0  0  0  0  0  0  0  0
   -0.3482    0.9787   -0.3267 H   0  0  0  0  0  0  0  0  0  0  0  0
   -0.0223   -0.0487    1.0876 H   0  0  0  0  0  0  0  0  0  0  0  0
    1.0191   -0.1580   -0.3496 H   0  0  0  0  0  0  0  0  0  0  0  0
  1  2  1  0
  1  3  1  0
  1  4  1  0
  1  5  1  0
M  END
>  <reaction>  (3) 
rxn_270

>  <mol_properties>  (3) 
{"0": {"label": "a_hydrogen", "atom_type": "H0"}, "1": {"label": "acceptor", "atom_type": "Cs"}}

>  <type>  (3) 
r2h

$$$$

     RDKit          3D

 19 18  0  0  0  0  0  0  0  0999 V2000
    0.0477    0.0402   -3.0954 C   0  0  0  0  0  0  0  0  0  0  0  0
    0.0407    0.0070   -1.5915 C   0  0  0  0  0  0  0  0  0  0  0  0
    0.4298    1.1211   -0.8530 C   0  0  0  0  0  0  0  0  0  0  0  0
    0.3970    1.1068    0.5364 C   0  0  0  0  0  0  0  0  0  0  0  0
   -0.0284   -0.0361    1.1756 C   0  0  0  0  0  0  0  0  0  0  0  0
   -0.4180   -1.1595    0.4806 C   0  0  0  0  0  0  0  0  0  0  0  0
   -0.3801   -1.1309   -0.9081 C   0  0  0  0  0  3  0  0  0  0  0  0
   -0.9227    0.3636   -3.4806 H   0  0  0  0  0  0  0  0  0  0  0  0
    0.7994    0.7338   -3.4734 H   0  0  0  0  0  0  0  0  0  0  0  0
    0.2544   -0.9459   -3.5128 H   0  0  0  0  0  0  0  0  0  0  0  0
    0.7659    2.0126   -1.3713 H   0  0  0  0  0  0  0  0  0  0  0  0
    0.7046    1.9799    1.0999 H   0  0  0  0  0  0  0  0  0  0  0  0
   -0.0609   -0.0584    2.5461 H   0  0  0  0  0  0  0  0  0  0  0  0
   -0.7454   -2.0520    1.0009 H   0  0  0  0  0  0  0  0  0  0  0  0
   -0.6803   -2.0088   -1.4700 H   0  0  0  0  0  0  0  0  0  0  0  0
   -0.0878   -0.0772    3.8409 C   0  0  0  0  0  0  0  0  0  0  0  0
    0.4981    0.7822    4.1560 H   0  0  0  0  0  0  0  0  0  0  0  0
    0.3614   -1.0233    4.1304 H   0  0  0  0  0  0  0  0  0  0  0  0
   -1.1359   -0.0003    4.1166 H   0  0  0  0  0  0  0  0  0  0  0  0
  1  2  1  0
  1  8  1  0
  1  9  1  0
  1 10  1  0
  2  3  2  0
  2  7  1  0
  3  4  1  0
  3 11  1  0
  4  5  2  0
  4 12  1  0
  5  6  2  0
  6  7  1  0
  6 14  1  0
  7 15  1  0
 13 16  1  0
 16 17  1  0
 16 18  1  0
 16 19  1  0
M  RAD  1   7   2
M  END
>  <reaction>  (4) 
rxn_270

>  <mol_properties>  (4) 
{"3": {"label": "*4", "atom_type": "Cd"}, "4": {"label": "*3", "atom_type": "Cdd"}, "12": {"label": "*2", "atom_type": "H0"}, "15": {"label": "*1", "atom_type": "Cs"}, "16": {"label": "*0", "atom_type": "H0"}}

>  <type>  (4) 
ts

$$$$
