
     RDKit          3D

 16 15  0  0  0  0  0  0  0  0999 V2000
    1.7961   -0.3807    1.6176 C   0  0  0  0  0  0  0  0  0  0  0  0
    0.8562   -0.8708    0.8256 C   0  0  0  0  0  0  0  0  0  0  0  0
    0.0895   -0.0826   -0.2048 C   0  0  0  0  0  0  0  0  0  0  0  0
   -1.4061   -0.1111    0.0982 C   0  0  0  0  0  0  0  0  0  0  0  0
    0.4476   -0.5902   -1.5797 C   0  0  0  0  0  0  0  0  0  0  0  0
   -0.3793   -1.1113   -2.4728 C   0  0  0  0  0  0  0  0  0  0  0  0
    2.3110   -1.0032    2.3386 H   0  0  0  0  0  0  0  0  0  0  0  0
    2.0846    0.6643    1.5737 H   0  0  0  0  0  0  0  0  0  0  0  0
    0.5921   -1.9241    0.8925 H   0  0  0  0  0  0  0  0  0  0  0  0
    0.4358    0.9557   -0.1462 H   0  0  0  0  0  0  0  0  0  0  0  0
   -1.5968    0.3080    1.0865 H   0  0  0  0  0  0  0  0  0  0  0  0
   -1.9674    0.4693   -0.6359 H   0  0  0  0  0  0  0  0  0  0  0  0
   -1.7902   -1.1338    0.0883 H   0  0  0  0  0  0  0  0  0  0  0  0
    1.5049   -0.5197   -1.8214 H   0  0  0  0  0  0  0  0  0  0  0  0
   -1.4421   -1.2131   -2.2889 H   0  0  0  0  0  0  0  0  0  0  0  0
   -0.0162   -1.4558   -3.4328 H   0  0  0  0  0  0  0  0  0  0  0  0
  1  2  2  3
  1  7  1  0
  1  8  1  0
  2  3  1  0
  2  9  1  0
  3  4  1  0
  3  5  1  0
  3 10  1  0
  4 11  1  0
  4 12  1  0
  4 13  1  0
  5  6  2  3
  5 14  1  0
  6 15  1  0
  6 16  1  0
M  END
>  <reaction>  (1) 
rxn_1203

>  <mol_properties>  (1) 
{"2": {"label": "donator", "atom_type": "Cs"}, "9": {"label": "d_hydrogen", "atom_type": "H0"}}

>  <type>  (1) 
r1h

$$$$

     RDKit          3D

 10  9  0  0  0  0  0  0  0  0999 V2000
   -1.3354   -0.2069    0.0525 C   0  0  0  0  0  0  0  0  0  0  0  0
    0.0851    0.2624    0.0266 C   0  0  0  0  0  0  0  0  0  0  0  0
    0.4841    1.3876    0.7359 C   0  0  0  0  0  0  0  0  0  0  0  0
    2.0191    2.0303    0.8057 S   0  0  0  0  0  1  0  0  0  0  0  0
    1.1566   -0.6823   -0.9297 S   0  0  0  0  0  0  0  0  0  0  0  0
   -1.7589   -0.2174   -0.9545 H   0  0  0  0  0  0  0  0  0  0  0  0
   -1.4004   -1.2253    0.4427 H   0  0  0  0  0  0  0  0  0  0  0  0
   -1.9442    0.4442    0.6783 H   0  0  0  0  0  0  0  0  0  0  0  0
   -0.3073    1.8814    1.2951 H   0  0  0  0  0  0  0  0  0  0  0  0
    2.2383    0.0827   -0.6554 H   0  0  0  0  0  0  0  0  0  0  0  0
  1  2  1  0
  1  6  1  0
  1  7  1  0
  1  8  1  0
  2  3  2  3
  2  5  1  0
  3  4  1  0
  3  9  1  0
  5 10  1  0
M  RAD  1   4   2
M  END
>  <reaction>  (2) 
rxn_1203

>  <mol_properties>  (2) 
{"1": {"label": "acceptor", "atom_type": "Cs"}}

>  <type>  (2) 
r2

$$$$

     RDKit          3D

 11 10  0  0  0  0  0  0  0  0999 V2000
   -1.0997   -0.5860   -0.1182 C   0  0  0  0  0  0  0  0  0  0  0  0
    0.0827    0.2961    0.2270 C   0  0  0  0  0  0  0  0  0  0  0  0
    0.1622    1.6171   -0.4774 C   0  0  0  0  0  0  0  0  0  0  0  0
   -0.9879    2.3087   -1.3633 S   0  0  0  0  0  0  0  0  0  0  0  0
    0.2176    0.6619    2.0187 S   0  0  0  0  0  0  0  0  0  0  0  0
   -1.1052   -0.8107   -1.1861 H   0  0  0  0  0  0  0  0  0  0  0  0
   -2.0402   -0.0893    0.1198 H   0  0  0  0  0  0  0  0  0  0  0  0
   -1.0438   -1.5182    0.4423 H   0  0  0  0  0  0  0  0  0  0  0  0
    1.0207   -0.2324    0.0280 H   0  0  0  0  0  0  0  0  0  0  0  0
    1.1091    2.1333   -0.3182 H   0  0  0  0  0  0  0  0  0  0  0  0
   -0.9205    1.3661    2.0994 H   0  0  0  0  0  0  0  0  0  0  0  0
  1  2  1  0
  1  6  1  0
  1  7  1  0
  1  8  1  0
  2  3  1  0
  2  5  1  0
  2  9  1  0
  3  4  2  0
  3 10  1  0
  5 11  1  0
M  END
>  <reaction>  (3) 
rxn_1203

>  <mol_properties>  (3) 
{"1": {"label": "acceptor", "atom_type": "Cs"}, "10": {"label": "a_hydrogen", "atom_type": "H0"}}

>  <type>  (3) 
r2h

$$$$

     RDKit          3D

 26 24  0  0  0  0  0  0  0  0999 V2000
   -1.2963    1.3878   -0.5539 C   0  0  0  0  0  0  0  0  0  0  0  0
    0.1411    1.0444   -0.2587 C   0  0  0  0  0  0  0  0  0  0  0  0
    0.9983    0.5667   -1.3104 C   0  0  0  0  0  0  0  0  0  0  0  0
    0.5210    0.0286   -2.7783 S   0  0  0  0  0  0  0  0  0  0  0  0
    0.9997    2.1211    0.8868 S   0  0  0  0  0  0  0  0  0  0  0  0
   -1.3561    2.3241   -1.1114 H   0  0  0  0  0  0  0  0  0  0  0  0
   -1.7512    0.6028   -1.1578 H   0  0  0  0  0  0  0  0  0  0  0  0
   -1.8583    1.5033    0.3742 H   0  0  0  0  0  0  0  0  0  0  0  0
    2.0568    0.5291   -1.0523 H   0  0  0  0  0  0  0  0  0  0  0  0
    0.1345    1.9768    1.9013 H   0  0  0  0  0  0  0  0  0  0  0  0
   -0.6006   -2.9029   -0.5908 C   0  0  0  0  0  0  0  0  0  0  0  0
   -1.0367   -1.9975    0.2855 C   0  0  0  0  0  0  0  0  0  0  0  0
   -0.2124   -1.2115    1.2076 C   0  0  0  0  0  3  0  0  0  0  0  0
    1.2352   -1.5961    1.3718 C   0  0  0  0  0  0  0  0  0  0  0  0
   -0.9248   -0.6811    2.3731 C   0  0  0  0  0  0  0  0  0  0  0  0
   -0.3889   -0.3317    3.5449 C   0  0  0  0  0  0  0  0  0  0  0  0
   -1.2919   -3.4066   -1.2530 H   0  0  0  0  0  0  0  0  0  0  0  0
    0.4438   -3.1716   -0.6805 H   0  0  0  0  0  0  0  0  0  0  0  0
   -2.1012   -1.7812    0.3149 H   0  0  0  0  0  0  0  0  0  0  0  0
   -0.0263   -0.0839    0.4573 H   0  0  0  0  0  0  0  0  0  0  0  0
    1.7063   -1.7562    0.4015 H   0  0  0  0  0  0  0  0  0  0  0  0
    1.7933   -0.8092    1.8792 H   0  0  0  0  0  0  0  0  0  0  0  0
    1.3277   -2.5179    1.9514 H   0  0  0  0  0  0  0  0  0  0  0  0
   -1.9969   -0.5575    2.2423 H   0  0  0  0  0  0  0  0  0  0  0  0
    0.6678   -0.4383    3.7543 H   0  0  0  0  0  0  0  0  0  0  0  0
   -1.0090    0.0600    4.3405 H   0  0  0  0  0  0  0  0  0  0  0  0
  1  2  1  0
  1  6  1  0
  1  7  1  0
  1  8  1  0
  2  3  1  0
  2  5  1  0
  2 20  1  0
  3  4  2  0
  3  9  1  0
  5 10  1  0
 11 12  2  3
 11 17  1  0
 11 18  1  0
 12 13  1  0
 12 19  1  0
 13 14  1  0
 13 15  1  0
 14 21  1  0
 14 22  1  0
 14 23  1  0
 15 16  2  3
 15 24  1  0
 16 25  1  0
 16 26  1  0
M  RAD  1  13   2
M  END
>  <reaction>  (4) 
rxn_1203

>  <mol_properties>  (4) 
{"1": {"label": "*1", "atom_type": "Cs"}, "2": {"label": "*0", "atom_type": "CS"}, "11": {"label": "*4", "atom_type": "Cd"}, "12": {"label": "*3", "atom_type": "Cs"}, "19": {"label": "*2", "atom_type": "H0"}}

>  <type>  (4) 
ts

$$$$
