
     RDKit          3D

 13 12  0  0  0  0  0  0  0  0999 V2000
    3.0977   -0.3549   -0.5105 C   0  0  0  0  0  0  0  0  0  0  0  0
    2.0556    0.4221   -0.2627 C   0  0  0  0  0  0  0  0  0  0  0  0
    0.6313   -0.0354   -0.2366 C   0  0  0  0  0  0  0  0  0  0  0  0
   -0.2567    0.6038   -1.2694 C   0  0  0  0  0  0  0  0  0  0  0  0
    0.1459    1.3456   -2.2891 C   0  0  0  0  0  0  0  0  0  0  0  0
    4.1081    0.0344   -0.5074 H   0  0  0  0  0  0  0  0  0  0  0  0
    2.9777   -1.4116   -0.7243 H   0  0  0  0  0  0  0  0  0  0  0  0
    2.2171    1.4781   -0.0618 H   0  0  0  0  0  0  0  0  0  0  0  0
    0.5865   -1.1233   -0.3540 H   0  0  0  0  0  0  0  0  0  0  0  0
    0.2065    0.1743    0.7521 H   0  0  0  0  0  0  0  0  0  0  0  0
   -1.3190    0.4126   -1.1445 H   0  0  0  0  0  0  0  0  0  0  0  0
    1.1948    1.5564   -2.4628 H   0  0  0  0  0  0  0  0  0  0  0  0
   -0.5644    1.7621   -2.9918 H   0  0  0  0  0  0  0  0  0  0  0  0
  1  2  2  3
  1  6  1  0
  1  7  1  0
  2  3  1  0
  2  8  1  0
  3  4  1  0
  3  9  1  0
  3 10  1  0
  4  5  2  3
  4 11  1  0
  5 12  1  0
  5 13  1  0
M  END
>  <reaction>  (1) 
rxn_1165

>  <mol_properties>  (1) 
{"2": {"label": "donator", "atom_type": "Cs"}, "8": {"label": "d_hydrogen", "atom_type": "H0"}}

>  <type>  (1) 
r1h

$$$$

     RDKit          3D

  6  5  0  0  0  0  0  0  0  0999 V2000
   -0.5121    0.0777    0.0308 C   0  0  0  0  0  0  0  0  0  0  0  0
    0.8172   -0.5443    0.0742 C   0  0  0  0  0  3  0  0  0  0  0  0
    2.3075   -0.1727   -0.1910 S   0  0  0  0  0  0  0  0  0  0  0  0
   -1.1498   -0.4890   -0.6522 H   0  0  0  0  0  0  0  0  0  0  0  0
   -0.4879    1.1268   -0.2798 H   0  0  0  0  0  0  0  0  0  0  0  0
   -0.9749    0.0014    1.0179 H   0  0  0  0  0  0  0  0  0  0  0  0
  1  2  1  0
  1  4  1  0
  1  5  1  0
  1  6  1  0
  2  3  2  0
M  RAD  1   2   2
M  END
>  <reaction>  (2) 
rxn_1165

>  <mol_properties>  (2) 
{"1": {"label": "acceptor", "atom_type": "CS"}}

>  <type>  (2) 
r2

$$$$

     RDKit          3D

  7  6  0  0  0  0  0  0  0  0999 V2000
   -0.6782    0.0507    0.0301 C   0  0  0  0  0  0  0  0  0  0  0  0
    0.8092    0.0996    0.0213 C   0  0  0  0  0  0  0  0  0  0  0  0
    1.7473    0.7521    1.1507 S   0  0  0  0  0  0  0  0  0  0  0  0
   -1.0667    0.5456   -0.8653 H   0  0  0  0  0  0  0  0  0  0  0  0
   -1.0112   -0.9904   -0.0239 H   0  0  0  0  0  0  0  0  0  0  0  0
   -1.0920    0.5225    0.9188 H   0  0  0  0  0  0  0  0  0  0  0  0
    1.2740   -0.3620   -0.8520 H   0  0  0  0  0  0  0  0  0  0  0  0
  1  2  1  0
  1  4  1  0
  1  5  1  0
  1  6  1  0
  2  3  2  0
  2  7  1  0
M  END
>  <reaction>  (3) 
rxn_1165

>  <mol_properties>  (3) 
{"0": {"label": "a_hydrogen", "atom_type": "H0"}, "2": {"label": "acceptor", "atom_type": "CS"}}

>  <type>  (3) 
r2h

$$$$

     RDKit          3D

 19 17  0  0  0  0  0  0  0  0999 V2000
    0.5964   -1.9396   -1.0906 C   0  0  0  0  0  0  0  0  0  0  0  0
    0.7646   -1.3667    0.0984 C   0  0  0  0  0  0  0  0  0  0  0  0
   -0.3233   -0.8788    0.9553 C   0  0  0  0  0  0  0  0  0  0  0  0
   -0.1955   -0.9396    2.4177 C   0  0  0  0  0  0  0  0  0  0  0  0
    0.8810   -1.2951    3.1171 C   0  0  0  0  0  0  0  0  0  0  0  0
    1.4405   -2.2428   -1.6964 H   0  0  0  0  0  0  0  0  0  0  0  0
   -0.3932   -2.1350   -1.4901 H   0  0  0  0  0  0  0  0  0  0  0  0
    1.7770   -1.1932    0.4522 H   0  0  0  0  0  0  0  0  0  0  0  0
   -0.3746    0.4023    0.7398 H   0  0  0  0  0  0  0  0  0  0  0  0
   -1.3130   -1.1698    0.5997 H   0  0  0  0  0  0  0  0  0  0  0  0
   -1.0766   -0.6159    2.9640 H   0  0  0  0  0  0  0  0  0  0  0  0
    1.7930   -1.6415    2.6468 H   0  0  0  0  0  0  0  0  0  0  0  0
    0.8736   -1.2609    4.1985 H   0  0  0  0  0  0  0  0  0  0  0  0
   -0.2667    1.9819   -1.0118 C   0  0  0  0  0  0  0  0  0  0  0  0
   -0.2509    1.7937    0.4539 C   0  0  0  0  0  3  0  0  0  0  0  0
    0.0627    2.7487    1.6707 S   0  0  0  0  0  0  0  0  0  0  0  0
    0.4319    1.2721   -1.4645 H   0  0  0  0  0  0  0  0  0  0  0  0
   -0.0126    2.9997   -1.3110 H   0  0  0  0  0  0  0  0  0  0  0  0
   -1.2568    1.7201   -1.3958 H   0  0  0  0  0  0  0  0  0  0  0  0
  1  2  2  3
  1  6  1  0
  1  7  1  0
  2  3  1  0
  2  8  1  0
  3  4  1  0
  3  9  1  0
  3 10  1  0
  4  5  2  3
  4 11  1  0
  5 12  1  0
  5 13  1  0
 14 15  1  0
 14 17  1  0
 14 18  1  0
 14 19  1  0
 15 16  2  0
M  RAD  1  15   2
M  END
>  <reaction>  (4) 
rxn_1165

>  <mol_properties>  (4) 
{"1": {"label": "*0", "atom_type": "Cd"}, "2": {"label": "*1", "atom_type": "Cs"}, "8": {"label": "*2", "atom_type": "H0"}, "14": {"label": "*3", "atom_type": "CS"}, "15": {"label": "*4", "atom_type": "S2d"}}

>  <type>  (4) 
ts

$$$$
