
     RDKit          3D

  7  6  0  0  0  0  0  0  0  0999 V2000
    1.3572   -0.1671    1.3611 O   0  0  0  0  0  0  0  0  0  0  0  0
    0.9236    0.0526    0.2798 C   0  0  0  0  0  0  0  0  0  0  0  0
   -0.5771   -0.0341   -0.0851 C   0  0  0  0  0  0  0  0  0  0  0  0
   -1.0319    1.5740   -0.6898 Cl  0  0  0  0  0  0  0  0  0  0  0  0
   -1.5652   -0.4943    1.2822 Cl  0  0  0  0  0  0  0  0  0  0  0  0
   -0.6988   -1.2311   -1.3932 Cl  0  0  0  0  0  0  0  0  0  0  0  0
    1.5409    0.3436   -0.5884 H   0  0  0  0  0  0  0  0  0  0  0  0
  1  2  2  0
  2  3  1  0
  2  7  1  0
  3  4  1  0
  3  5  1  0
  3  6  1  0
M  END
>  <reaction>  (1) 
rxn_3248

>  <mol_properties>  (1) 
{"1": {"label": "donator", "atom_type": "CO"}, "6": {"label": "d_hydrogen", "atom_type": "H0"}}

>  <type>  (1) 
r1h

$$$$

     RDKit          3D

  7  6  0  0  0  0  0  0  0  0999 V2000
   -1.3059    0.5497   -0.1304 N   0  0  0  0  0  2  0  0  0  0  0  0
   -0.2700   -0.4288    0.0448 C   0  0  0  0  0  0  0  0  0  0  0  0
    1.1109    0.0669    0.0401 C   0  0  0  0  0  0  0  0  0  0  0  0
    2.1758    0.4925    0.0308 N   0  0  0  0  0  0  0  0  0  0  0  0
   -0.8815    1.4733   -0.2339 H   0  0  0  0  0  0  0  0  0  0  0  0
   -0.3767   -1.1909   -0.7373 H   0  0  0  0  0  0  0  0  0  0  0  0
   -0.4527   -0.9628    0.9858 H   0  0  0  0  0  0  0  0  0  0  0  0
  1  2  1  0
  1  5  1  0
  2  3  1  0
  2  6  1  0
  2  7  1  0
  3  4  3  0
M  RAD  1   1   2
M  END
>  <reaction>  (2) 
rxn_3248

>  <mol_properties>  (2) 
{"0": {"label": "acceptor", "atom_type": "N3s"}}

>  <type>  (2) 
r2

$$$$

     RDKit          3D

  8  7  0  0  0  0  0  0  0  0999 V2000
   -1.0805    0.5317    0.0204 N   0  0  0  0  0  0  0  0  0  0  0  0
   -0.1080   -0.5393    0.0956 C   0  0  0  0  0  0  0  0  0  0  0  0
    1.2945   -0.1247   -0.1005 C   0  0  0  0  0  0  0  0  0  0  0  0
    2.3714    0.2386   -0.2580 N   0  0  0  0  0  0  0  0  0  0  0  0
   -1.0516    0.9857   -0.8822 H   0  0  0  0  0  0  0  0  0  0  0  0
   -0.9009    1.2352    0.7235 H   0  0  0  0  0  0  0  0  0  0  0  0
   -0.3427   -1.2965   -0.6542 H   0  0  0  0  0  0  0  0  0  0  0  0
   -0.1810   -1.0288    1.0680 H   0  0  0  0  0  0  0  0  0  0  0  0
  1  2  1  0
  1  5  1  0
  1  6  1  0
  2  3  1  0
  2  7  1  0
  2  8  1  0
  3  4  3  0
M  END
>  <reaction>  (3) 
rxn_3248

>  <mol_properties>  (3) 
{"0": {"label": "acceptor", "atom_type": "N3s"}, "7": {"label": "a_hydrogen", "atom_type": "H0"}}

>  <type>  (3) 
r2h

$$$$

     RDKit          3D

 14 12  0  0  0  0  0  0  0  0999 V2000
    0.5413   -2.4244    0.8554 N   0  0  0  0  0  2  0  0  0  0  0  0
    0.1208   -3.3433   -0.1850 C   0  0  0  0  0  0  0  0  0  0  0  0
   -1.2627   -3.1766   -0.6490 C   0  0  0  0  0  0  0  0  0  0  0  0
   -2.3504   -3.0155   -0.9757 N   0  0  0  0  0  0  0  0  0  0  0  0
   -0.2535   -2.2268    1.4648 H   0  0  0  0  0  0  0  0  0  0  0  0
    0.2328   -4.3664    0.1918 H   0  0  0  0  0  0  0  0  0  0  0  0
    0.7929   -3.2521   -1.0412 H   0  0  0  0  0  0  0  0  0  0  0  0
    1.0878   -0.3288   -1.6660 O   0  0  0  0  0  0  0  0  0  0  0  0
    0.6861   -0.2465   -0.5628 C   0  0  0  0  0  0  0  0  0  0  0  0
    0.0649    1.0198    0.0809 C   0  0  0  0  0  0  0  0  0  0  0  0
   -1.6029    0.5788    0.4866 Cl  0  0  0  0  0  0  0  0  0  0  0  0
    0.1049    2.4018   -0.9994 Cl  0  0  0  0  0  0  0  0  0  0  0  0
    1.0004    1.3364    1.5528 Cl  0  0  0  0  0  0  0  0  0  0  0  0
    0.7062   -1.2407    0.2370 H   0  0  0  0  0  0  0  0  0  0  0  0
  1  2  1  0
  1  5  1  0
  2  3  1  0
  2  6  1  0
  2  7  1  0
  3  4  3  0
  8  9  2  0
  9 10  1  0
  9 14  1  0
 10 11  1  0
 10 12  1  0
 10 13  1  0
M  RAD  1   1   2
M  END
>  <reaction>  (4) 
rxn_3248

>  <mol_properties>  (4) 
{"0": {"label": "*3", "atom_type": "N3s"}, "1": {"label": "*4", "atom_type": "Cs"}, "7": {"label": "*0", "atom_type": "O2d"}, "8": {"label": "*1", "atom_type": "CO"}, "13": {"label": "*2", "atom_type": "H0"}}

>  <type>  (4) 
ts

$$$$
