
     RDKit          3D

  6  5  0  0  0  0  0  0  0  0999 V2000
   -0.5072   -0.0291   -0.0097 C   0  0  0  0  0  0  0  0  0  0  0  0
    1.1321   -0.1527   -0.7687 S   0  0  0  0  0  0  0  0  0  0  0  0
   -0.6174   -0.7330    0.8127 H   0  0  0  0  0  0  0  0  0  0  0  0
   -0.5863    0.9827    0.3845 H   0  0  0  0  0  0  0  0  0  0  0  0
   -1.2962   -0.1800   -0.7434 H   0  0  0  0  0  0  0  0  0  0  0  0
    1.0312   -1.4237   -1.1764 H   0  0  0  0  0  0  0  0  0  0  0  0
  1  2  1  0
  1  3  1  0
  1  4  1  0
  1  5  1  0
  2  6  1  0
M  END
>  <reaction>  (1) 
rxn_1843

>  <mol_properties>  (1) 
{"0": {"label": "donator", "atom_type": "Cs"}, "2": {"label": "d_hydrogen", "atom_type": "H0"}}

>  <type>  (1) 
r1h

$$$$

     RDKit          3D

  8  7  0  0  0  0  0  0  0  0999 V2000
   -1.0607    0.1793   -0.1423 C   0  0  0  0  0  0  0  0  0  0  0  0
    0.2796    0.0327    0.4820 C   0  0  0  0  0  3  0  0  0  0  0  0
    0.8817   -1.4663    1.0791 S   0  0  0  0  0  0  0  0  0  0  0  0
   -1.3043    1.2328   -0.2850 H   0  0  0  0  0  0  0  0  0  0  0  0
   -1.8444   -0.2641    0.4799 H   0  0  0  0  0  0  0  0  0  0  0  0
   -1.1164   -0.3100   -1.1237 H   0  0  0  0  0  0  0  0  0  0  0  0
    1.0449    0.7826    0.3391 H   0  0  0  0  0  0  0  0  0  0  0  0
   -0.2993   -2.0726    1.2718 H   0  0  0  0  0  0  0  0  0  0  0  0
  1  2  1  0
  1  4  1  0
  1  5  1  0
  1  6  1  0
  2  3  1  0
  2  7  1  0
  3  8  1  0
M  RAD  1   2   2
M  END
>  <reaction>  (2) 
rxn_1843

>  <mol_properties>  (2) 
{"1": {"label": "acceptor", "atom_type": "Cs"}}

>  <type>  (2) 
r2

$$$$

     RDKit          3D

  9  8  0  0  0  0  0  0  0  0999 V2000
   -0.8818   -0.3578    0.1297 C   0  0  0  0  0  0  0  0  0  0  0  0
    0.6153   -0.3021   -0.1188 C   0  0  0  0  0  0  0  0  0  0  0  0
    1.5354   -1.7170    0.5545 S   0  0  0  0  0  0  0  0  0  0  0  0
   -1.1018   -0.3317    1.1984 H   0  0  0  0  0  0  0  0  0  0  0  0
   -1.3114   -1.2723   -0.2799 H   0  0  0  0  0  0  0  0  0  0  0  0
   -1.3767    0.4976   -0.3363 H   0  0  0  0  0  0  0  0  0  0  0  0
    1.0467    0.6194    0.2718 H   0  0  0  0  0  0  0  0  0  0  0  0
    0.8295   -0.3275   -1.1882 H   0  0  0  0  0  0  0  0  0  0  0  0
    1.2306   -1.5077    1.8423 H   0  0  0  0  0  0  0  0  0  0  0  0
  1  2  1  0
  1  4  1  0
  1  5  1  0
  1  6  1  0
  2  3  1  0
  2  7  1  0
  2  8  1  0
  3  9  1  0
M  END
>  <reaction>  (3) 
rxn_1843

>  <mol_properties>  (3) 
{"1": {"label": "acceptor", "atom_type": "Cs"}, "8": {"label": "a_hydrogen", "atom_type": "H0"}}

>  <type>  (3) 
r2h

$$$$

     RDKit          3D

 14 12  0  0  0  0  0  0  0  0999 V2000
   -1.3082    0.7964    1.7703 C   0  0  0  0  0  0  0  0  0  0  0  0
    0.1189    0.4432    1.4410 C   0  0  0  0  0  0  0  0  0  0  0  0
    1.0305    1.5997    0.4448 S   0  0  0  0  0  0  0  0  0  0  0  0
   -1.7598    0.0125    2.3822 H   0  0  0  0  0  0  0  0  0  0  0  0
   -1.8998    0.8922    0.8566 H   0  0  0  0  0  0  0  0  0  0  0  0
   -1.3759    1.7404    2.3168 H   0  0  0  0  0  0  0  0  0  0  0  0
    0.7316    0.1968    2.3073 H   0  0  0  0  0  0  0  0  0  0  0  0
    0.0907    1.7671   -0.4973 H   0  0  0  0  0  0  0  0  0  0  0  0
   -0.1280   -1.7858   -0.0452 C   0  0  0  0  0  3  0  0  0  0  0  0
   -0.5803   -1.2315   -1.6625 S   0  0  0  0  0  0  0  0  0  0  0  0
    0.0486   -0.6909    0.7515 H   0  0  0  0  0  0  0  0  0  0  0  0
   -0.9531   -2.3367    0.3992 H   0  0  0  0  0  0  0  0  0  0  0  0
    0.8113   -2.3304    0.0009 H   0  0  0  0  0  0  0  0  0  0  0  0
    0.6011   -0.6916   -1.9901 H   0  0  0  0  0  0  0  0  0  0  0  0
  1  2  1  0
  1  4  1  0
  1  5  1  0
  1  6  1  0
  2  3  1  0
  2  7  1  0
  2 11  1  0
  3  8  1  0
  9 10  1  0
  9 12  1  0
  9 13  1  0
 10 14  1  0
M  RAD  1   9   2
M  END
>  <reaction>  (4) 
rxn_1843

>  <mol_properties>  (4) 
{"1": {"label": "*1", "atom_type": "Cs"}, "2": {"label": "*0", "atom_type": "S2s"}, "8": {"label": "*3", "atom_type": "Cs"}, "9": {"label": "*4", "atom_type": "S2s"}, "10": {"label": "*2", "atom_type": "H0"}}

>  <type>  (4) 
ts

$$$$
