
     RDKit          3D

  6  5  0  0  0  0  0  0  0  0999 V2000
   -0.5072   -0.0291   -0.0097 C   0  0  0  0  0  0  0  0  0  0  0  0
    1.1321   -0.1527   -0.7687 S   0  0  0  0  0  0  0  0  0  0  0  0
   -0.6174   -0.7330    0.8127 H   0  0  0  0  0  0  0  0  0  0  0  0
   -0.5863    0.9827    0.3845 H   0  0  0  0  0  0  0  0  0  0  0  0
   -1.2962   -0.1800   -0.7434 H   0  0  0  0  0  0  0  0  0  0  0  0
    1.0312   -1.4237   -1.1764 H   0  0  0  0  0  0  0  0  0  0  0  0
  1  2  1  0
  1  3  1  0
  1  4  1  0
  1  5  1  0
  2  6  1  0
M  END
>  <reaction>  (1) 
rxn_1862

>  <mol_properties>  (1) 
{"0": {"label": "donator", "atom_type": "Cs"}, "2": {"label": "d_hydrogen", "atom_type": "H0"}}

>  <type>  (1) 
r1h

$$$$

     RDKit          3D

  5  4  0  0  0  0  0  0  0  0999 V2000
    2.6285   -0.7060   -0.0550 S   0  0  0  0  0  0  0  0  0  0  0  0
    1.1409   -0.3060    0.0719 C   0  0  0  0  0  3  0  0  0  0  0  0
   -0.1297    0.0350    0.1804 C   0  0  0  0  0  0  0  0  0  0  0  0
   -1.3079    0.3511    0.2810 C   0  0  0  0  0  0  0  0  0  0  0  0
   -2.3318    0.6259    0.3684 H   0  0  0  0  0  0  0  0  0  0  0  0
  1  2  2  0
  2  3  1  0
  3  4  3  0
  4  5  1  0
M  RAD  1   2   2
M  END
>  <reaction>  (2) 
rxn_1862

>  <mol_properties>  (2) 
{"1": {"label": "acceptor", "atom_type": "CS"}}

>  <type>  (2) 
r2

$$$$

     RDKit          3D

  6  5  0  0  0  0  0  0  0  0999 V2000
   -1.9761    1.0978   -0.6585 S   0  0  0  0  0  0  0  0  0  0  0  0
   -1.0502    0.0275    0.1158 C   0  0  0  0  0  0  0  0  0  0  0  0
    0.3587   -0.0566   -0.0000 C   0  0  0  0  0  0  0  0  0  0  0  0
    1.5530   -0.1477   -0.0815 C   0  0  0  0  0  0  0  0  0  0  0  0
   -1.4972   -0.7045    0.7881 H   0  0  0  0  0  0  0  0  0  0  0  0
    2.6118   -0.2165   -0.1639 H   0  0  0  0  0  0  0  0  0  0  0  0
  1  2  2  0
  2  3  1  0
  2  5  1  0
  3  4  3  0
  4  6  1  0
M  END
>  <reaction>  (3) 
rxn_1862

>  <mol_properties>  (3) 
{"1": {"label": "acceptor", "atom_type": "CS"}, "5": {"label": "a_hydrogen", "atom_type": "H0"}}

>  <type>  (3) 
r2h

$$$$

     RDKit          3D

 11  9  0  0  0  0  0  0  0  0999 V2000
    0.7183    1.6890   -0.3223 S   0  0  0  0  0  0  0  0  0  0  0  0
    0.2996    0.6084    0.7738 C   0  0  0  0  0  0  0  0  0  0  0  0
    0.0570    0.7489    2.1422 C   0  0  0  0  0  0  0  0  0  0  0  0
   -0.1703    0.7628    3.3245 C   0  0  0  0  0  0  0  0  0  0  0  0
   -0.3657    0.8062    4.3696 H   0  0  0  0  0  0  0  0  0  0  0  0
   -0.0372   -1.8711   -0.2559 C   0  0  0  0  0  3  0  0  0  0  0  0
   -0.4352   -1.6089   -1.9416 S   0  0  0  0  0  0  0  0  0  0  0  0
    0.1190   -0.6202    0.3451 H   0  0  0  0  0  0  0  0  0  0  0  0
   -0.8692   -2.3305    0.2708 H   0  0  0  0  0  0  0  0  0  0  0  0
    0.9148   -2.3593   -0.0660 H   0  0  0  0  0  0  0  0  0  0  0  0
    0.7591   -1.1459   -2.3327 H   0  0  0  0  0  0  0  0  0  0  0  0
  1  2  2  0
  2  3  1  0
  2  8  1  0
  3  4  3  0
  4  5  1  0
  6  7  1  0
  6  9  1  0
  6 10  1  0
  7 11  1  0
M  RAD  1   6   2
M  END
>  <reaction>  (4) 
rxn_1862

>  <mol_properties>  (4) 
{"0": {"label": "*0", "atom_type": "S2d"}, "1": {"label": "*1", "atom_type": "CS"}, "5": {"label": "*3", "atom_type": "Cs"}, "6": {"label": "*4", "atom_type": "S2s"}, "7": {"label": "*2", "atom_type": "H0"}}

>  <type>  (4) 
ts

$$$$
