
     RDKit          3D

  5  4  0  0  0  0  0  0  0  0999 V2000
   -0.4535    0.0104   -0.2352 N   0  0  0  0  0  0  0  0  0  0  0  0
    0.8506   -0.0148    0.3346 O   0  0  0  0  0  0  0  0  0  0  0  0
   -0.9090    0.8045    0.2022 H   0  0  0  0  0  0  0  0  0  0  0  0
   -0.9099   -0.8179    0.1325 H   0  0  0  0  0  0  0  0  0  0  0  0
    1.4218    0.0179   -0.4341 H   0  0  0  0  0  0  0  0  0  0  0  0
  1  2  1  0
  1  3  1  0
  1  4  1  0
  2  5  1  0
M  END
>  <reaction>  (1) 
rxn_710

>  <mol_properties>  (1) 
{"0": {"label": "donator", "atom_type": "N3s"}, "2": {"label": "d_hydrogen", "atom_type": "H0"}}

>  <type>  (1) 
r1h

$$$$

     RDKit          3D

  3  2  0  0  0  0  0  0  0  0999 V2000
    0.0002    0.4233    0.0000 N   0  0  0  0  0  2  0  0  0  0  0  0
   -0.8051   -0.2112    0.0000 H   0  0  0  0  0  0  0  0  0  0  0  0
    0.8049   -0.2121    0.0000 H   0  0  0  0  0  0  0  0  0  0  0  0
  1  2  1  0
  1  3  1  0
M  RAD  1   1   2
M  END
>  <reaction>  (2) 
rxn_710

>  <mol_properties>  (2) 
{"0": {"label": "acceptor", "atom_type": "N3s"}}

>  <type>  (2) 
r2

$$$$

     RDKit          3D

  4  3  0  0  0  0  0  0  0  0999 V2000
    0.0006   -0.0009    0.2762 N   0  0  0  0  0  0  0  0  0  0  0  0
   -0.4188    0.8439   -0.0883 H   0  0  0  0  0  0  0  0  0  0  0  0
   -0.5215   -0.7840   -0.0936 H   0  0  0  0  0  0  0  0  0  0  0  0
    0.9397   -0.0590   -0.0943 H   0  0  0  0  0  0  0  0  0  0  0  0
  1  2  1  0
  1  3  1  0
  1  4  1  0
M  END
>  <reaction>  (3) 
rxn_710

>  <mol_properties>  (3) 
{"0": {"label": "acceptor", "atom_type": "N3s"}, "3": {"label": "a_hydrogen", "atom_type": "H0"}}

>  <type>  (3) 
r2h

$$$$

     RDKit          3D

  8  6  0  0  0  0  0  0  0  0999 V2000
   -0.4159    1.4398    1.0126 N   0  0  0  0  0  2  0  0  0  0  0  0
    0.4606    1.8798    1.3000 H   0  0  0  0  0  0  0  0  0  0  0  0
   -0.5967    1.8159    0.0798 H   0  0  0  0  0  0  0  0  0  0  0  0
    0.3319   -0.7965    0.1628 N   0  0  0  0  0  0  0  0  0  0  0  0
   -0.4249   -0.9195   -1.0099 O   0  0  0  0  0  0  0  0  0  0  0  0
   -0.0798    0.0910    0.7231 H   0  0  0  0  0  0  0  0  0  0  0  0
    1.2476   -0.5213   -0.1832 H   0  0  0  0  0  0  0  0  0  0  0  0
   -1.1327   -1.5180   -0.7607 H   0  0  0  0  0  0  0  0  0  0  0  0
  1  2  1  0
  1  3  1  0
  4  5  1  0
  4  6  1  0
  4  7  1  0
  5  8  1  0
M  RAD  1   1   2
M  END
>  <reaction>  (4) 
rxn_710

>  <mol_properties>  (4) 
{"0": {"label": "*3", "atom_type": "N3s"}, "1": {"label": "*4", "atom_type": "H0"}, "3": {"label": "*1", "atom_type": "N3s"}, "4": {"label": "*0", "atom_type": "O2s"}, "5": {"label": "*2", "atom_type": "H0"}}

>  <type>  (4) 
ts

$$$$
