
     RDKit          3D

  2  1  0  0  0  0  0  0  0  0999 V2000
    0.0000    0.0000    0.3721 H   0  0  0  0  0  0  0  0  0  0  0  0
    0.0000    0.0000   -0.3721 H   0  0  0  0  0  0  0  0  0  0  0  0
  1  2  1  0
M  END
>  <reaction>  (1) 
rxn_818

>  <mol_properties>  (1) 
{"0": {"label": "donator", "atom_type": "H0"}, "1": {"label": "d_hydrogen", "atom_type": "H0"}}

>  <type>  (1) 
r1h

$$$$

     RDKit          3D

  7  6  0  0  0  0  0  0  0  0999 V2000
   -2.0652    0.3855   -0.2963 S   0  0  0  0  0  0  0  0  0  0  0  0
   -0.7169   -0.5853    0.1792 C   0  0  0  0  0  3  0  0  0  0  0  0
    0.5987   -0.2168    0.0254 C   0  0  0  0  0  0  0  0  0  0  0  0
    1.7547    0.1211   -0.1163 C   0  0  0  0  0  0  0  0  0  0  0  0
   -1.3643    1.4227   -0.7731 H   0  0  0  0  0  0  0  0  0  0  0  0
   -0.9781   -1.5363    0.6220 H   0  0  0  0  0  0  0  0  0  0  0  0
    2.7711    0.4089   -0.2366 H   0  0  0  0  0  0  0  0  0  0  0  0
  1  2  1  0
  1  5  1  0
  2  3  1  0
  2  6  1  0
  3  4  3  0
  4  7  1  0
M  RAD  1   2   2
M  END
>  <reaction>  (2) 
rxn_818

>  <mol_properties>  (2) 
{"1": {"label": "acceptor", "atom_type": "Cs"}}

>  <type>  (2) 
r2

$$$$

     RDKit          3D

  8  7  0  0  0  0  0  0  0  0999 V2000
   -0.7014    1.0753    1.5530 S   0  0  0  0  0  0  0  0  0  0  0  0
   -0.3105   -0.4583    0.6462 C   0  0  0  0  0  0  0  0  0  0  0  0
    0.0935   -0.2424   -0.7319 C   0  0  0  0  0  0  0  0  0  0  0  0
    0.4431   -0.0604   -1.8621 C   0  0  0  0  0  0  0  0  0  0  0  0
    0.4994    1.6466    1.3970 H   0  0  0  0  0  0  0  0  0  0  0  0
   -1.2277   -1.0477    0.6819 H   0  0  0  0  0  0  0  0  0  0  0  0
    0.4563   -1.0151    1.1841 H   0  0  0  0  0  0  0  0  0  0  0  0
    0.7474    0.1020   -2.8681 H   0  0  0  0  0  0  0  0  0  0  0  0
  1  2  1  0
  1  5  1  0
  2  3  1  0
  2  6  1  0
  2  7  1  0
  3  4  3  0
  4  8  1  0
M  END
>  <reaction>  (3) 
rxn_818

>  <mol_properties>  (3) 
{"0": {"label": "a_hydrogen", "atom_type": "H0"}, "2": {"label": "acceptor", "atom_type": "Cs"}}

>  <type>  (3) 
r2h

$$$$

     RDKit          3D

  9  7  0  0  0  0  0  0  0  0999 V2000
   -0.7019   -0.2721   -2.4488 H   0  0  0  0  0 15  0  0  0  0  0  0
   -0.5481   -0.3361   -1.3435 H   0  0  0  0  0  0  0  0  0  0  0  0
   -0.2349    1.2072    0.5594 S   0  0  0  0  0  0  0  0  0  0  0  0
   -0.4304   -0.4389   -0.1464 C   0  0  0  0  0  0  0  0  0  0  0  0
    0.7153   -1.2688    0.1086 C   0  0  0  0  0  0  0  0  0  0  0  0
    1.6804   -1.9546    0.2907 C   0  0  0  0  0  0  0  0  0  0  0  0
   -1.4431    1.6544    0.1911 H   0  0  0  0  0  0  0  0  0  0  0  0
   -1.3570   -0.9111    0.1771 H   0  0  0  0  0  0  0  0  0  0  0  0
    2.5343   -2.5658    0.4600 H   0  0  0  0  0  0  0  0  0  0  0  0
  2  4  1  0
  3  4  1  0
  3  7  1  0
  4  5  1  0
  4  8  1  0
  5  6  3  0
  6  9  1  0
M  END
>  <reaction>  (4) 
rxn_818

>  <mol_properties>  (4) 
{"0": {"label": "*1", "atom_type": "H0"}, "1": {"label": "*2", "atom_type": "H0"}, "2": {"label": "*4", "atom_type": "S2s"}, "3": {"label": "*3", "atom_type": "Cs"}}

>  <type>  (4) 
ts

$$$$
