
     RDKit          3D

  5  4  0  0  0  0  0  0  0  0999 V2000
   -0.3689   -0.0540    0.1184 C   0  0  0  0  0  0  0  0  0  0  0  0
    0.7862    0.4359    0.2394 N   0  0  0  0  0  0  0  0  0  0  0  0
   -0.6872   -0.7035   -0.7033 H   0  0  0  0  0  0  0  0  0  0  0  0
   -1.1194    0.1733    0.8758 H   0  0  0  0  0  0  0  0  0  0  0  0
    1.3892    0.1482   -0.5303 H   0  0  0  0  0  0  0  0  0  0  0  0
  1  2  2  3
  1  3  1  0
  1  4  1  0
  2  5  1  0
M  END
>  <reaction>  (1) 
rxn_671

>  <mol_properties>  (1) 
{"1": {"label": "donator", "atom_type": "N3d"}, "4": {"label": "d_hydrogen", "atom_type": "H0"}}

>  <type>  (1) 
r1h

$$$$

     RDKit          3D

  3  2  0  0  0  0  0  0  0  0999 V2000
    0.0002    0.4233    0.0000 N   0  0  0  0  0  2  0  0  0  0  0  0
   -0.8051   -0.2112    0.0000 H   0  0  0  0  0  0  0  0  0  0  0  0
    0.8049   -0.2121    0.0000 H   0  0  0  0  0  0  0  0  0  0  0  0
  1  2  1  0
  1  3  1  0
M  RAD  1   1   2
M  END
>  <reaction>  (2) 
rxn_671

>  <mol_properties>  (2) 
{"0": {"label": "acceptor", "atom_type": "N3s"}}

>  <type>  (2) 
r2

$$$$

     RDKit          3D

  4  3  0  0  0  0  0  0  0  0999 V2000
    0.0006   -0.0009    0.2762 N   0  0  0  0  0  0  0  0  0  0  0  0
   -0.4188    0.8439   -0.0883 H   0  0  0  0  0  0  0  0  0  0  0  0
   -0.5215   -0.7840   -0.0936 H   0  0  0  0  0  0  0  0  0  0  0  0
    0.9397   -0.0590   -0.0943 H   0  0  0  0  0  0  0  0  0  0  0  0
  1  2  1  0
  1  3  1  0
  1  4  1  0
M  END
>  <reaction>  (3) 
rxn_671

>  <mol_properties>  (3) 
{"0": {"label": "acceptor", "atom_type": "N3s"}, "3": {"label": "a_hydrogen", "atom_type": "H0"}}

>  <type>  (3) 
r2h

$$$$

     RDKit          3D

  8  6  0  0  0  0  0  0  0  0999 V2000
   -0.5365    1.2896    0.8622 N   0  0  0  0  0  2  0  0  0  0  0  0
    0.0413    1.2806    1.7063 H   0  0  0  0  0  0  0  0  0  0  0  0
   -0.3777    2.2191    0.4656 H   0  0  0  0  0  0  0  0  0  0  0  0
   -0.0873   -1.0275   -1.0421 C   0  0  0  0  0  0  0  0  0  0  0  0
    0.7828   -0.1915   -0.7036 N   0  0  0  0  0  0  0  0  0  0  0  0
   -1.1177   -0.9980   -0.6719 H   0  0  0  0  0  0  0  0  0  0  0  0
    0.1812   -1.8261   -1.7368 H   0  0  0  0  0  0  0  0  0  0  0  0
    0.2688    0.5333    0.0182 H   0  0  0  0  0  0  0  0  0  0  0  0
  1  2  1  0
  1  3  1  0
  4  5  2  3
  4  6  1  0
  4  7  1  0
  5  8  1  0
M  RAD  1   1   2
M  END
>  <reaction>  (4) 
rxn_671

>  <mol_properties>  (4) 
{"0": {"label": "*3", "atom_type": "N3s"}, "1": {"label": "*4", "atom_type": "H0"}, "3": {"label": "*0", "atom_type": "Cd"}, "4": {"label": "*1", "atom_type": "N3d"}, "7": {"label": "*2", "atom_type": "H0"}}

>  <type>  (4) 
ts

$$$$
