
     RDKit          3D

 25 26  0  0  0  0  0  0  0  0999 V2000
    2.0298   -1.1515    0.0571 C   0  0  0  0  0  0  0  0  0  0  0  0
    2.2278    0.2445    0.6528 C   0  0  0  0  0  0  0  0  0  0  0  0
    1.2292    1.2625    0.0947 C   0  0  0  0  0  0  0  0  0  0  0  0
   -0.1869    0.7454    0.2762 C   0  0  0  0  0  0  0  0  0  0  0  0
   -1.3415    1.5501   -0.3122 C   0  0  0  0  0  0  0  0  0  0  0  0
   -2.5060    0.5338   -0.4178 C   0  0  0  0  0  0  0  0  0  0  0  0
   -1.8709   -0.8658   -0.2234 C   0  0  0  0  0  0  0  0  0  0  0  0
   -0.3715   -0.6265   -0.3693 C   0  0  0  0  0  0  0  0  0  0  0  0
    0.5898   -1.6500    0.2086 C   0  0  0  0  0  0  0  0  0  0  0  0
    2.2820   -1.1226   -1.0088 H   0  0  0  0  0  0  0  0  0  0  0  0
    2.7243   -1.8549    0.5221 H   0  0  0  0  0  0  0  0  0  0  0  0
    2.1030    0.1885    1.7400 H   0  0  0  0  0  0  0  0  0  0  0  0
    3.2514    0.5819    0.4743 H   0  0  0  0  0  0  0  0  0  0  0  0
    1.3611    2.2304    0.5855 H   0  0  0  0  0  0  0  0  0  0  0  0
    1.4198    1.4194   -0.9737 H   0  0  0  0  0  0  0  0  0  0  0  0
   -0.3675    0.6209    1.3539 H   0  0  0  0  0  0  0  0  0  0  0  0
   -1.5992    2.4249    0.2862 H   0  0  0  0  0  0  0  0  0  0  0  0
   -1.0595    1.9116   -1.3055 H   0  0  0  0  0  0  0  0  0  0  0  0
   -3.2666    0.7244    0.3399 H   0  0  0  0  0  0  0  0  0  0  0  0
   -3.0030    0.6112   -1.3853 H   0  0  0  0  0  0  0  0  0  0  0  0
   -2.2549   -1.6039   -0.9288 H   0  0  0  0  0  0  0  0  0  0  0  0
   -2.0796   -1.2429    0.7821 H   0  0  0  0  0  0  0  0  0  0  0  0
   -0.1432   -0.5121   -1.4391 H   0  0  0  0  0  0  0  0  0  0  0  0
    0.4720   -2.6209   -0.2799 H   0  0  0  0  0  0  0  0  0  0  0  0
    0.3601   -1.7986    1.2704 H   0  0  0  0  0  0  0  0  0  0  0  0
  1  2  1  0
  1  9  1  0
  1 10  1  0
  1 11  1  0
  2  3  1  0
  2 12  1  0
  2 13  1  0
  3  4  1  0
  3 14  1  0
  3 15  1  0
  4  5  1  0
  4  8  1  0
  4 16  1  0
  5  6  1  0
  5 17  1  0
  5 18  1  0
  6  7  1  0
  6 19  1  0
  6 20  1  0
  7  8  1  0
  7 21  1  0
  7 22  1  0
  8  9  1  0
  8 23  1  0
  9 24  1  0
  9 25  1  0
M  END
>  <reaction>  (1) 
rxn_604

>  <mol_properties>  (1) 
{"5": {"label": "donator", "atom_type": "Cs"}, "18": {"label": "d_hydrogen", "atom_type": "H0"}}

>  <type>  (1) 
r1h

$$$$

     RDKit          3D

 11 10  0  0  0  0  0  0  0  0999 V2000
    2.0591    0.2533   -0.1061 C   0  0  0  0  0  0  0  0  0  0  0  0
    0.8045   -0.3111   -0.1535 C   0  0  0  0  0  0  0  0  0  0  0  0
   -0.3816    0.3942   -0.1885 C   0  0  0  0  0  3  0  0  0  0  0  0
   -1.7316   -0.2294   -0.2396 C   0  0  0  0  0  0  0  0  0  0  0  0
    2.9505   -0.3576   -0.0805 H   0  0  0  0  0  0  0  0  0  0  0  0
    2.1872    1.3290   -0.0933 H   0  0  0  0  0  0  0  0  0  0  0  0
    0.7385   -1.3970   -0.1643 H   0  0  0  0  0  0  0  0  0  0  0  0
   -0.3340    1.4795   -0.1783 H   0  0  0  0  0  0  0  0  0  0  0  0
   -1.6704   -1.3186   -0.2461 H   0  0  0  0  0  0  0  0  0  0  0  0
   -2.3404    0.0713    0.6191 H   0  0  0  0  0  0  0  0  0  0  0  0
   -2.2805    0.0851   -1.1331 H   0  0  0  0  0  0  0  0  0  0  0  0
  1  2  2  3
  1  5  1  0
  1  6  1  0
  2  3  1  0
  2  7  1  0
  3  4  1  0
  3  8  1  0
  4  9  1  0
  4 10  1  0
  4 11  1  0
M  RAD  1   3   2
M  END
>  <reaction>  (2) 
rxn_604

>  <mol_properties>  (2) 
{"2": {"label": "acceptor", "atom_type": "Cs"}}

>  <type>  (2) 
r2

$$$$

     RDKit          3D

 12 11  0  0  0  0  0  0  0  0999 V2000
    1.9877    0.1011    0.4814 C   0  0  0  0  0  0  0  0  0  0  0  0
    0.8179    0.5502    0.0525 C   0  0  0  0  0  0  0  0  0  0  0  0
   -0.2939   -0.2692   -0.5320 C   0  0  0  0  0  0  0  0  0  0  0  0
   -0.0292   -1.7631   -0.6328 C   0  0  0  0  0  0  0  0  0  0  0  0
    2.2522   -0.9490    0.4436 H   0  0  0  0  0  0  0  0  0  0  0  0
    2.7295    0.7757    0.8896 H   0  0  0  0  0  0  0  0  0  0  0  0
    0.6162    1.6164    0.1190 H   0  0  0  0  0  0  0  0  0  0  0  0
   -0.5268    0.1319   -1.5245 H   0  0  0  0  0  0  0  0  0  0  0  0
   -1.1959   -0.0938    0.0644 H   0  0  0  0  0  0  0  0  0  0  0  0
    0.1590   -2.1992    0.3502 H   0  0  0  0  0  0  0  0  0  0  0  0
    0.8382   -1.9701   -1.2626 H   0  0  0  0  0  0  0  0  0  0  0  0
   -0.8879   -2.2759   -1.0672 H   0  0  0  0  0  0  0  0  0  0  0  0
  1  2  2  3
  1  5  1  0
  1  6  1  0
  2  3  1  0
  2  7  1  0
  3  4  1  0
  3  8  1  0
  3  9  1  0
  4 10  1  0
  4 11  1  0
  4 12  1  0
M  END
>  <reaction>  (3) 
rxn_604

>  <mol_properties>  (3) 
{"2": {"label": "acceptor", "atom_type": "Cs"}, "11": {"label": "a_hydrogen", "atom_type": "H0"}}

>  <type>  (3) 
r2h

$$$$

     RDKit          3D

 36 36  0  0  0  0  0  0  0  0999 V2000
   -1.5021    2.3016    1.6143 C   0  0  0  0  0  0  0  0  0  0  0  0
   -0.1981    2.3885    1.3419 C   0  0  0  0  0  0  0  0  0  0  0  0
    0.4035    2.9272    0.1212 C   0  0  0  0  0  0  0  0  0  0  0  0
   -0.4642    3.7379   -0.8106 C   0  0  0  0  0  0  0  0  0  0  0  0
   -1.8517    1.8505    2.5338 H   0  0  0  0  0  0  0  0  0  0  0  0
   -2.2580    2.6852    0.9394 H   0  0  0  0  0  0  0  0  0  0  0  0
    0.5031    1.9873    2.0695 H   0  0  0  0  0  0  0  0  0  0  0  0
    1.3781    3.3803    0.3049 H   0  0  0  0  0  0  0  0  0  0  0  0
   -0.8526    4.6341   -0.3185 H   0  0  0  0  0  0  0  0  0  0  0  0
    0.1022    4.0516   -1.6883 H   0  0  0  0  0  0  0  0  0  0  0  0
   -1.3208    3.1584   -1.1623 H   0  0  0  0  0  0  0  0  0  0  0  0
   -1.1081   -3.2120    0.3732 C   0  0  0  0  0  0  0  0  0  0  0  0
   -0.0272   -3.0015    1.4368 C   0  0  0  0  0  0  0  0  0  0  0  0
    1.2065   -2.2826    0.8822 C   0  0  0  0  0  0  0  0  0  0  0  0
    0.7797   -0.9885    0.2147 C   0  0  0  0  0  0  0  0  0  0  0  0
    1.8262   -0.1315   -0.4917 C   0  0  0  0  0  0  0  0  0  0  0  0
    0.9839    0.7676   -1.3799 C   0  0  0  0  0  3  0  0  0  0  0  0
   -0.3862    0.1273   -1.5595 C   0  0  0  0  0  0  0  0  0  0  0  0
   -0.2481   -1.2420   -0.8883 C   0  0  0  0  0  0  0  0  0  0  0  0
   -1.4941   -1.9097   -0.3343 C   0  0  0  0  0  0  0  0  0  0  0  0
   -0.7376   -3.9219   -0.3748 H   0  0  0  0  0  0  0  0  0  0  0  0
   -1.9892   -3.6708    0.8275 H   0  0  0  0  0  0  0  0  0  0  0  0
   -0.4441   -2.4017    2.2534 H   0  0  0  0  0  0  0  0  0  0  0  0
    0.2578   -3.9629    1.8703 H   0  0  0  0  0  0  0  0  0  0  0  0
    1.9259   -2.0945    1.6836 H   0  0  0  0  0  0  0  0  0  0  0  0
    1.7090   -2.9217    0.1463 H   0  0  0  0  0  0  0  0  0  0  0  0
    0.2889   -0.3599    0.9699 H   0  0  0  0  0  0  0  0  0  0  0  0
    2.4629    0.4295    0.1986 H   0  0  0  0  0  0  0  0  0  0  0  0
    2.4891   -0.7657   -1.0938 H   0  0  0  0  0  0  0  0  0  0  0  0
    0.7460    1.8966   -0.5866 H   0  0  0  0  0  0  0  0  0  0  0  0
    1.4614    1.2010   -2.2549 H   0  0  0  0  0  0  0  0  0  0  0  0
   -0.6900    0.0620   -2.6060 H   0  0  0  0  0  0  0  0  0  0  0  0
   -1.1564    0.7106   -1.0393 H   0  0  0  0  0  0  0  0  0  0  0  0
    0.2157   -1.9296   -1.6098 H   0  0  0  0  0  0  0  0  0  0  0  0
   -2.2199   -2.1110   -1.1267 H   0  0  0  0  0  0  0  0  0  0  0  0
   -1.9768   -1.2284    0.3762 H   0  0  0  0  0  0  0  0  0  0  0  0
  1  2  2  3
  1  5  1  0
  1  6  1  0
  2  3  1  0
  2  7  1  0
  3  4  1  0
  3  8  1  0
  3 30  1  0
  4  9  1  0
  4 10  1  0
  4 11  1  0
 12 13  1  0
 12 20  1  0
 12 21  1  0
 12 22  1  0
 13 14  1  0
 13 23  1  0
 13 24  1  0
 14 15  1  0
 14 25  1  0
 14 26  1  0
 15 16  1  0
 15 19  1  0
 15 27  1  0
 16 17  1  0
 16 28  1  0
 16 29  1  0
 17 18  1  0
 17 31  1  0
 18 19  1  0
 18 32  1  0
 18 33  1  0
 19 20  1  0
 19 34  1  0
 20 35  1  0
 20 36  1  0
M  RAD  1  17   2
M  END
>  <reaction>  (4) 
rxn_604

>  <mol_properties>  (4) 
{"1": {"label": "*0", "atom_type": "Cd"}, "2": {"label": "*1", "atom_type": "Cs"}, "15": {"label": "*4", "atom_type": "Cs"}, "16": {"label": "*3", "atom_type": "Cs"}, "29": {"label": "*2", "atom_type": "H0"}}

>  <type>  (4) 
ts

$$$$
