
     RDKit          3D

  6  5  0  0  0  0  0  0  0  0999 V2000
    0.6594    0.0438   -0.0050 C   0  0  0  0  0  0  0  0  0  0  0  0
   -0.6594   -0.0438    0.0050 C   0  0  0  0  0  0  0  0  0  0  0  0
    1.1706    0.8681   -0.4881 H   0  0  0  0  0  0  0  0  0  0  0  0
    1.2824   -0.7051    0.4696 H   0  0  0  0  0  0  0  0  0  0  0  0
   -1.2824    0.7051   -0.4696 H   0  0  0  0  0  0  0  0  0  0  0  0
   -1.1706   -0.8681    0.4881 H   0  0  0  0  0  0  0  0  0  0  0  0
  1  2  2  3
  1  3  1  0
  1  4  1  0
  2  5  1  0
  2  6  1  0
M  END
>  <reaction>  (1) 
rxn_1606

>  <mol_properties>  (1) 
{"1": {"label": "donator", "atom_type": "Cd"}, "4": {"label": "d_hydrogen", "atom_type": "H0"}}

>  <type>  (1) 
r1h

$$$$

     RDKit          3D

  7  6  0  0  0  0  0  0  0  0999 V2000
   -0.6904   -0.9066   -0.0346 C   0  0  0  0  0  0  0  0  0  0  0  0
    0.1413    0.0254   -0.6161 C   0  0  0  0  0  0  0  0  0  0  0  0
    0.4603    0.1105   -1.9267 C   0  0  0  0  0  3  0  0  0  0  0  0
    0.8318    0.2180   -3.4201 S   0  0  0  0  0  0  0  0  0  0  0  0
   -0.8731   -0.8770    1.0287 H   0  0  0  0  0  0  0  0  0  0  0  0
   -1.1718   -1.6767   -0.6199 H   0  0  0  0  0  0  0  0  0  0  0  0
    0.6090    0.7866    0.0044 H   0  0  0  0  0  0  0  0  0  0  0  0
  1  2  2  3
  1  5  1  0
  1  6  1  0
  2  3  1  0
  2  7  1  0
  3  4  2  0
M  RAD  1   3   2
M  END
>  <reaction>  (2) 
rxn_1606

>  <mol_properties>  (2) 
{"2": {"label": "acceptor", "atom_type": "CS"}}

>  <type>  (2) 
r2

$$$$

     RDKit          3D

  8  7  0  0  0  0  0  0  0  0999 V2000
   -1.1617    0.0338    0.5053 C   0  0  0  0  0  0  0  0  0  0  0  0
   -0.1023    0.4503   -0.1863 C   0  0  0  0  0  0  0  0  0  0  0  0
    1.0978   -0.3557   -0.3104 C   0  0  0  0  0  0  0  0  0  0  0  0
    2.4251    0.0667   -1.1256 S   0  0  0  0  0  0  0  0  0  0  0  0
   -1.1653   -0.9292    1.0039 H   0  0  0  0  0  0  0  0  0  0  0  0
   -2.0546    0.6389    0.5948 H   0  0  0  0  0  0  0  0  0  0  0  0
   -0.0991    1.4132   -0.6847 H   0  0  0  0  0  0  0  0  0  0  0  0
    1.0601   -1.3180    0.2032 H   0  0  0  0  0  0  0  0  0  0  0  0
  1  2  2  3
  1  5  1  0
  1  6  1  0
  2  3  1  0
  2  7  1  0
  3  4  2  0
  3  8  1  0
M  END
>  <reaction>  (3) 
rxn_1606

>  <mol_properties>  (3) 
{"0": {"label": "a_hydrogen", "atom_type": "H0"}, "3": {"label": "acceptor", "atom_type": "CS"}}

>  <type>  (3) 
r2h

$$$$

     RDKit          3D

 13 11  0  0  0  0  0  0  0  0999 V2000
    0.2434   -1.7530   -2.3032 C   0  0  0  0  0  0  0  0  0  0  0  0
   -0.4133   -1.9009   -1.1797 C   0  0  0  0  0  3  0  0  0  0  0  0
    0.7599   -0.8233   -2.5311 H   0  0  0  0  0  0  0  0  0  0  0  0
    0.3017   -2.5425   -3.0499 H   0  0  0  0  0  0  0  0  0  0  0  0
   -0.3389   -0.7018   -0.3539 H   0  0  0  0  0  0  0  0  0  0  0  0
   -0.9705   -2.7559   -0.8147 H   0  0  0  0  0  0  0  0  0  0  0  0
   -1.5188   -0.5422    2.0071 C   0  0  0  0  0  0  0  0  0  0  0  0
   -0.8216    0.4783    1.5104 C   0  0  0  0  0  0  0  0  0  0  0  0
   -0.1707    0.4038    0.2189 C   0  0  0  0  0  0  0  0  0  0  0  0
    0.6966    1.5225   -0.5206 S   0  0  0  0  0  0  0  0  0  0  0  0
   -2.0020   -0.4775    2.9735 H   0  0  0  0  0  0  0  0  0  0  0  0
   -1.6244   -1.4703    1.4588 H   0  0  0  0  0  0  0  0  0  0  0  0
   -0.7192    1.4063    2.0648 H   0  0  0  0  0  0  0  0  0  0  0  0
  1  2  2  3
  1  3  1  0
  1  4  1  0
  2  6  1  0
  5  9  1  0
  7  8  2  3
  7 11  1  0
  7 12  1  0
  8  9  1  0
  8 13  1  0
  9 10  2  0
M  RAD  1   2   2
M  END
>  <reaction>  (4) 
rxn_1606

>  <mol_properties>  (4) 
{"0": {"label": "*4", "atom_type": "Cd"}, "1": {"label": "*3", "atom_type": "Cd"}, "4": {"label": "*2", "atom_type": "H0"}, "8": {"label": "*1", "atom_type": "CS"}, "9": {"label": "*0", "atom_type": "S2d"}}

>  <type>  (4) 
ts

$$$$
