
     RDKit          3D

  6  5  0  0  0  0  0  0  0  0999 V2000
   -0.3669    0.0060    0.0609 C   0  0  0  0  0  0  0  0  0  0  0  0
    0.9818   -0.0507    0.4695 O   0  0  0  0  0  0  0  0  0  0  0  0
   -0.6066    0.9462   -0.4488 H   0  0  0  0  0  0  0  0  0  0  0  0
   -0.5221   -0.8115   -0.6420 H   0  0  0  0  0  0  0  0  0  0  0  0
   -1.0602   -0.1268    0.8992 H   0  0  0  0  0  0  0  0  0  0  0  0
    1.1451    0.6595    1.0897 H   0  0  0  0  0  0  0  0  0  0  0  0
  1  2  1  0
  1  3  1  0
  1  4  1  0
  1  5  1  0
  2  6  1  0
M  END
>  <reaction>  (1) 
rxn_3212

>  <mol_properties>  (1) 
{"0": {"label": "donator", "atom_type": "Cs"}, "2": {"label": "d_hydrogen", "atom_type": "H0"}}

>  <type>  (1) 
r1h

$$$$

     RDKit          3D

  7  6  0  0  0  0  0  0  0  0999 V2000
   -1.3059    0.5497   -0.1304 N   0  0  0  0  0  2  0  0  0  0  0  0
   -0.2700   -0.4288    0.0448 C   0  0  0  0  0  0  0  0  0  0  0  0
    1.1109    0.0669    0.0401 C   0  0  0  0  0  0  0  0  0  0  0  0
    2.1758    0.4925    0.0308 N   0  0  0  0  0  0  0  0  0  0  0  0
   -0.8815    1.4733   -0.2339 H   0  0  0  0  0  0  0  0  0  0  0  0
   -0.3767   -1.1909   -0.7373 H   0  0  0  0  0  0  0  0  0  0  0  0
   -0.4527   -0.9628    0.9858 H   0  0  0  0  0  0  0  0  0  0  0  0
  1  2  1  0
  1  5  1  0
  2  3  1  0
  2  6  1  0
  2  7  1  0
  3  4  3  0
M  RAD  1   1   2
M  END
>  <reaction>  (2) 
rxn_3212

>  <mol_properties>  (2) 
{"0": {"label": "acceptor", "atom_type": "N3s"}}

>  <type>  (2) 
r2

$$$$

     RDKit          3D

  8  7  0  0  0  0  0  0  0  0999 V2000
   -1.0805    0.5317    0.0204 N   0  0  0  0  0  0  0  0  0  0  0  0
   -0.1080   -0.5393    0.0956 C   0  0  0  0  0  0  0  0  0  0  0  0
    1.2945   -0.1247   -0.1005 C   0  0  0  0  0  0  0  0  0  0  0  0
    2.3714    0.2386   -0.2580 N   0  0  0  0  0  0  0  0  0  0  0  0
   -1.0516    0.9857   -0.8822 H   0  0  0  0  0  0  0  0  0  0  0  0
   -0.9009    1.2352    0.7235 H   0  0  0  0  0  0  0  0  0  0  0  0
   -0.3427   -1.2965   -0.6542 H   0  0  0  0  0  0  0  0  0  0  0  0
   -0.1810   -1.0288    1.0680 H   0  0  0  0  0  0  0  0  0  0  0  0
  1  2  1  0
  1  5  1  0
  1  6  1  0
  2  3  1  0
  2  7  1  0
  2  8  1  0
  3  4  3  0
M  END
>  <reaction>  (3) 
rxn_3212

>  <mol_properties>  (3) 
{"0": {"label": "acceptor", "atom_type": "N3s"}, "7": {"label": "a_hydrogen", "atom_type": "H0"}}

>  <type>  (3) 
r2h

$$$$

     RDKit          3D

 13 11  0  0  0  0  0  0  0  0999 V2000
   -0.6123    0.5134    1.6091 N   0  0  0  0  0  2  0  0  0  0  0  0
   -0.5236    1.3568    0.4331 C   0  0  0  0  0  0  0  0  0  0  0  0
    0.6548    1.1021   -0.4126 C   0  0  0  0  0  0  0  0  0  0  0  0
    1.5755    0.8223   -1.0394 N   0  0  0  0  0  0  0  0  0  0  0  0
    0.2965    0.5168    2.0730 H   0  0  0  0  0  0  0  0  0  0  0  0
   -0.5052    2.4101    0.7337 H   0  0  0  0  0  0  0  0  0  0  0  0
   -1.4129    1.2146   -0.1836 H   0  0  0  0  0  0  0  0  0  0  0  0
   -0.4387   -1.8457    0.4686 C   0  0  0  0  0  0  0  0  0  0  0  0
   -0.5990   -1.6495   -0.8860 O   0  0  0  0  0  0  0  0  0  0  0  0
   -0.5919   -0.7616    1.0956 H   0  0  0  0  0  0  0  0  0  0  0  0
   -1.2459   -2.4704    0.8468 H   0  0  0  0  0  0  0  0  0  0  0  0
    0.5481   -2.2142    0.7604 H   0  0  0  0  0  0  0  0  0  0  0  0
    0.2029   -1.2642   -1.2517 H   0  0  0  0  0  0  0  0  0  0  0  0
  1  2  1  0
  1  5  1  0
  2  3  1  0
  2  6  1  0
  2  7  1  0
  3  4  3  0
  8  9  1  0
  8 10  1  0
  8 11  1  0
  8 12  1  0
  9 13  1  0
M  RAD  1   1   2
M  END
>  <reaction>  (4) 
rxn_3212

>  <mol_properties>  (4) 
{"0": {"label": "*3", "atom_type": "N3s"}, "1": {"label": "*4", "atom_type": "Cs"}, "7": {"label": "*1", "atom_type": "Cs"}, "8": {"label": "*0", "atom_type": "O2s"}, "9": {"label": "*2", "atom_type": "H0"}}

>  <type>  (4) 
ts

$$$$
