
     RDKit          3D

 13 12  0  0  0  0  0  0  0  0999 V2000
    2.2975   -0.6134    0.7685 C   0  0  0  0  0  0  0  0  0  0  0  0
    1.1676   -0.5248    0.3802 C   0  0  0  0  0  0  0  0  0  0  0  0
   -0.2109   -0.3926   -0.0948 C   0  0  0  0  0  0  0  0  0  0  0  0
   -0.2501    0.2584   -1.4808 C   0  0  0  0  0  0  0  0  0  0  0  0
   -1.0633    0.3831    0.9141 C   0  0  0  0  0  0  0  0  0  0  0  0
    3.2999   -0.6974    1.1133 H   0  0  0  0  0  0  0  0  0  0  0  0
   -0.6209   -1.4038   -0.1814 H   0  0  0  0  0  0  0  0  0  0  0  0
    0.3402   -0.3102   -2.1992 H   0  0  0  0  0  0  0  0  0  0  0  0
    0.1511    1.2724   -1.4369 H   0  0  0  0  0  0  0  0  0  0  0  0
   -1.2791    0.3109   -1.8407 H   0  0  0  0  0  0  0  0  0  0  0  0
   -0.6861    1.4008    1.0287 H   0  0  0  0  0  0  0  0  0  0  0  0
   -1.0492   -0.0971    1.8924 H   0  0  0  0  0  0  0  0  0  0  0  0
   -2.0971    0.4363    0.5680 H   0  0  0  0  0  0  0  0  0  0  0  0
  1  2  3  0
  1  6  1  0
  2  3  1  0
  3  4  1  0
  3  5  1  0
  3  7  1  0
  4  8  1  0
  4  9  1  0
  4 10  1  0
  5 11  1  0
  5 12  1  0
  5 13  1  0
M  END
>  <reaction>  (1) 
rxn_1327

>  <mol_properties>  (1) 
{"2": {"label": "donator", "atom_type": "Cs"}, "6": {"label": "d_hydrogen", "atom_type": "H0"}}

>  <type>  (1) 
r1h

$$$$

     RDKit          3D

  9  8  0  0  0  0  0  0  0  0999 V2000
   -1.2704   -0.1236    0.1096 C   0  0  0  0  0  0  0  0  0  0  0  0
    0.0713   -0.5323    0.5887 C   0  0  0  0  0  0  0  0  0  0  0  0
    0.9521   -1.3639   -0.0464 C   0  0  0  0  0  0  0  0  0  0  0  0
    0.6900   -2.1109   -1.5335 S   0  0  0  0  0  1  0  0  0  0  0  0
   -1.3201    0.9657    0.0241 H   0  0  0  0  0  0  0  0  0  0  0  0
   -1.5103   -0.5706   -0.8526 H   0  0  0  0  0  0  0  0  0  0  0  0
   -2.0312   -0.4112    0.8411 H   0  0  0  0  0  0  0  0  0  0  0  0
    0.3863   -0.1265    1.5468 H   0  0  0  0  0  0  0  0  0  0  0  0
    1.8971   -1.5543    0.4552 H   0  0  0  0  0  0  0  0  0  0  0  0
  1  2  1  0
  1  5  1  0
  1  6  1  0
  1  7  1  0
  2  3  2  3
  2  8  1  0
  3  4  1  0
  3  9  1  0
M  RAD  1   4   2
M  END
>  <reaction>  (2) 
rxn_1327

>  <mol_properties>  (2) 
{"1": {"label": "acceptor", "atom_type": "Cs"}}

>  <type>  (2) 
r2

$$$$

     RDKit          3D

 10  9  0  0  0  0  0  0  0  0999 V2000
   -1.1508    0.0666    0.2839 C   0  0  0  0  0  0  0  0  0  0  0  0
    0.1022   -0.3749   -0.4771 C   0  0  0  0  0  0  0  0  0  0  0  0
    1.3428    0.1620    0.1542 C   0  0  0  0  0  0  0  0  0  0  0  0
    2.5613   -0.6971    0.7526 S   0  0  0  0  0  0  0  0  0  0  0  0
   -1.2137    1.1546    0.3481 H   0  0  0  0  0  0  0  0  0  0  0  0
   -2.0472   -0.2935   -0.2212 H   0  0  0  0  0  0  0  0  0  0  0  0
   -1.1467   -0.3334    1.2987 H   0  0  0  0  0  0  0  0  0  0  0  0
    0.1602   -1.4616   -0.5369 H   0  0  0  0  0  0  0  0  0  0  0  0
    0.0536    0.0174   -1.4997 H   0  0  0  0  0  0  0  0  0  0  0  0
    1.3824    1.2528    0.2110 H   0  0  0  0  0  0  0  0  0  0  0  0
  1  2  1  0
  1  5  1  0
  1  6  1  0
  1  7  1  0
  2  3  1  0
  2  8  1  0
  2  9  1  0
  3  4  2  0
  3 10  1  0
M  END
>  <reaction>  (3) 
rxn_1327

>  <mol_properties>  (3) 
{"0": {"label": "a_hydrogen", "atom_type": "H0"}, "2": {"label": "acceptor", "atom_type": "Cs"}}

>  <type>  (3) 
r2h

$$$$

     RDKit          3D

 22 20  0  0  0  0  0  0  0  0999 V2000
   -2.3526    1.9846   -1.3439 C   0  0  0  0  0  0  0  0  0  0  0  0
   -1.3810    1.8830   -0.6408 C   0  0  0  0  0  0  0  0  0  0  0  0
   -0.2555    1.7036    0.2086 C   0  0  0  0  0  3  0  0  0  0  0  0
   -0.1835    2.5844    1.4320 C   0  0  0  0  0  0  0  0  0  0  0  0
    1.0620    1.4111   -0.4675 C   0  0  0  0  0  0  0  0  0  0  0  0
   -3.2048    2.0908   -1.9713 H   0  0  0  0  0  0  0  0  0  0  0  0
   -0.5271    0.4733    0.8277 H   0  0  0  0  0  0  0  0  0  0  0  0
   -1.1545    2.6696    1.9193 H   0  0  0  0  0  0  0  0  0  0  0  0
    0.1490    3.5895    1.1572 H   0  0  0  0  0  0  0  0  0  0  0  0
    0.5377    2.1770    2.1441 H   0  0  0  0  0  0  0  0  0  0  0  0
    1.5052    2.3375   -0.8455 H   0  0  0  0  0  0  0  0  0  0  0  0
    0.9358    0.7281   -1.3062 H   0  0  0  0  0  0  0  0  0  0  0  0
    1.7605    0.9683    0.2453 H   0  0  0  0  0  0  0  0  0  0  0  0
   -0.3721   -1.6191    0.1666 C   0  0  0  0  0  0  0  0  0  0  0  0
   -0.7042   -0.7081    1.3191 C   0  0  0  0  0  0  0  0  0  0  0  0
    0.1119   -0.6888    2.5054 C   0  0  0  0  0  0  0  0  0  0  0  0
    1.6480   -1.2295    2.6509 S   0  0  0  0  0  0  0  0  0  0  0  0
    0.6932   -1.5915   -0.0590 H   0  0  0  0  0  0  0  0  0  0  0  0
   -0.6298   -2.6519    0.4116 H   0  0  0  0  0  0  0  0  0  0  0  0
   -0.9353   -1.3280   -0.7214 H   0  0  0  0  0  0  0  0  0  0  0  0
   -1.7707   -0.6220    1.5318 H   0  0  0  0  0  0  0  0  0  0  0  0
   -0.3528   -0.2120    3.3688 H   0  0  0  0  0  0  0  0  0  0  0  0
  1  2  3  0
  1  6  1  0
  2  3  1  0
  3  4  1  0
  3  5  1  0
  4  8  1  0
  4  9  1  0
  4 10  1  0
  5 11  1  0
  5 12  1  0
  5 13  1  0
  7 15  1  0
 14 15  1  0
 14 18  1  0
 14 19  1  0
 14 20  1  0
 15 16  1  0
 15 21  1  0
 16 17  2  0
 16 22  1  0
M  RAD  1   3   2
M  END
>  <reaction>  (4) 
rxn_1327

>  <mol_properties>  (4) 
{"1": {"label": "*4", "atom_type": "Ct"}, "2": {"label": "*3", "atom_type": "Cs"}, "6": {"label": "*2", "atom_type": "H0"}, "14": {"label": "*1", "atom_type": "Cs"}, "15": {"label": "*0", "atom_type": "CS"}}

>  <type>  (4) 
ts

$$$$
