
     RDKit          3D

  6  5  0  0  0  0  0  0  0  0999 V2000
    1.3543    1.0529    0.1454 O   0  0  0  0  0  0  0  0  0  0  0  0
    0.7621    0.0240   -0.0005 C   0  0  0  0  0  0  0  0  0  0  0  0
   -0.7621   -0.0240    0.0005 C   0  0  0  0  0  0  0  0  0  0  0  0
   -1.3543   -1.0529   -0.1454 O   0  0  0  0  0  0  0  0  0  0  0  0
    1.2588   -0.9541   -0.1447 H   0  0  0  0  0  0  0  0  0  0  0  0
   -1.2588    0.9541    0.1447 H   0  0  0  0  0  0  0  0  0  0  0  0
  1  2  2  0
  2  3  1  0
  2  5  1  0
  3  4  2  0
  3  6  1  0
M  END
>  <reaction>  (1) 
rxn_3158

>  <mol_properties>  (1) 
{"2": {"label": "donator", "atom_type": "CO"}, "5": {"label": "d_hydrogen", "atom_type": "H0"}}

>  <type>  (1) 
r1h

$$$$

     RDKit          3D

  6  6  0  0  0  0  0  0  0  0999 V2000
    1.9594    0.0134   -0.3734 N   0  0  0  0  0  2  0  0  0  0  0  0
    0.7437    0.0051   -0.0788 C   0  0  0  0  0  0  0  0  0  0  0  0
   -0.0745    1.0868    0.0233 O   0  0  0  0  0  0  0  0  0  0  0  0
   -1.3223    0.5972    0.3682 N   0  0  0  0  0  0  0  0  0  0  0  0
   -1.2899   -0.6150    0.4676 N   0  0  0  0  0  0  0  0  0  0  0  0
   -0.0165   -1.0874    0.2015 O   0  0  0  0  0  0  0  0  0  0  0  0
  1  2  2  0
  2  3  1  0
  2  6  1  0
  3  4  1  0
  4  5  2  0
  5  6  1  0
M  RAD  1   1   2
M  END
>  <reaction>  (2) 
rxn_3158

>  <mol_properties>  (2) 
{"0": {"label": "acceptor", "atom_type": "N3d"}}

>  <type>  (2) 
r2

$$$$

     RDKit          3D

  7  7  0  0  0  0  0  0  0  0999 V2000
    1.6064   -0.4313    0.1905 N   0  0  0  0  0  0  0  0  0  0  0  0
    0.3982   -0.1725    0.0701 C   0  0  0  0  0  0  0  0  0  0  0  0
   -0.6051   -1.0481    0.3497 O   0  0  0  0  0  0  0  0  0  0  0  0
   -1.7906   -0.4044    0.0958 N   0  0  0  0  0  0  0  0  0  0  0  0
   -1.5819    0.7348   -0.2956 N   0  0  0  0  0  0  0  0  0  0  0  0
   -0.2229    0.9708   -0.3436 O   0  0  0  0  0  0  0  0  0  0  0  0
    2.1958    0.3506   -0.0669 H   0  0  0  0  0  0  0  0  0  0  0  0
  1  2  2  3
  1  7  1  0
  2  3  1  0
  2  6  1  0
  3  4  1  0
  4  5  2  0
  5  6  1  0
M  END
>  <reaction>  (3) 
rxn_3158

>  <mol_properties>  (3) 
{"0": {"label": "acceptor", "atom_type": "N3d"}, "6": {"label": "a_hydrogen", "atom_type": "H0"}}

>  <type>  (3) 
r2h

$$$$

     RDKit          3D

 12 11  0  0  0  0  0  0  0  0999 V2000
    0.8458    1.2337    0.4904 N   0  0  0  0  0  2  0  0  0  0  0  0
    0.0515    1.1175   -0.4638 C   0  0  0  0  0  0  0  0  0  0  0  0
   -0.0569    1.9868   -1.5114 O   0  0  0  0  0  0  0  0  0  0  0  0
   -1.0436    1.4992   -2.3385 N   0  0  0  0  0  0  0  0  0  0  0  0
   -1.5073    0.4653   -1.8870 N   0  0  0  0  0  0  0  0  0  0  0  0
   -0.8800    0.1441   -0.6996 O   0  0  0  0  0  0  0  0  0  0  0  0
    1.2785   -2.1960    0.1642 O   0  0  0  0  0  0  0  0  0  0  0  0
    0.8539   -2.2104    1.2752 C   0  0  0  0  0  0  0  0  0  0  0  0
    0.3910   -0.9141    1.9819 C   0  0  0  0  0  0  0  0  0  0  0  0
   -0.1590   -0.9161    3.0272 O   0  0  0  0  0  0  0  0  0  0  0  0
    0.7440   -3.1255    1.8871 H   0  0  0  0  0  0  0  0  0  0  0  0
    0.6427    0.1087    1.3377 H   0  0  0  0  0  0  0  0  0  0  0  0
  1  2  2  0
  2  3  1  0
  2  6  1  0
  3  4  1  0
  4  5  2  0
  5  6  1  0
  7  8  2  0
  8  9  1  0
  8 11  1  0
  9 10  2  0
  9 12  1  0
M  RAD  1   1   2
M  END
>  <reaction>  (4) 
rxn_3158

>  <mol_properties>  (4) 
{"0": {"label": "*3", "atom_type": "N3d"}, "1": {"label": "*4", "atom_type": "Cd"}, "7": {"label": "*0", "atom_type": "CO"}, "8": {"label": "*1", "atom_type": "CO"}, "11": {"label": "*2", "atom_type": "H0"}}

>  <type>  (4) 
ts

$$$$
