
     RDKit          3D

  9  8  0  0  0  0  0  0  0  0999 V2000
    1.1303   -0.2933   -0.7510 C   0  0  0  0  0  0  0  0  0  0  0  0
    0.2866    0.4560   -0.0588 C   0  0  0  0  0  0  0  0  0  0  0  0
   -0.9719   -0.0331    0.5823 C   0  0  0  0  0  0  0  0  0  0  0  0
    2.0274    0.1230   -1.1916 H   0  0  0  0  0  0  0  0  0  0  0  0
    0.9532   -1.3530   -0.9023 H   0  0  0  0  0  0  0  0  0  0  0  0
    0.5065    1.5132    0.0659 H   0  0  0  0  0  0  0  0  0  0  0  0
   -0.9526    0.1426    1.6610 H   0  0  0  0  0  0  0  0  0  0  0  0
   -1.1182   -1.1002    0.4106 H   0  0  0  0  0  0  0  0  0  0  0  0
   -1.8412    0.5010    0.1901 H   0  0  0  0  0  0  0  0  0  0  0  0
  1  2  2  3
  1  4  1  0
  1  5  1  0
  2  3  1  0
  2  6  1  0
  3  7  1  0
  3  8  1  0
  3  9  1  0
M  END
>  <reaction>  (1) 
rxn_738

>  <mol_properties>  (1) 
{"2": {"label": "donator", "atom_type": "Cs"}, "6": {"label": "d_hydrogen", "atom_type": "H0"}}

>  <type>  (1) 
r1h

$$$$

     RDKit          3D

 21 22  0  0  0  0  0  0  0  0999 V2000
   -2.2298    0.3537    0.0543 C   0  0  0  0  0  0  0  0  0  0  0  0
   -1.1556    1.4284   -0.1994 C   0  0  0  0  0  0  0  0  0  0  0  0
    0.0609    0.6285   -0.5240 C   0  0  0  0  0  3  0  0  0  0  0  0
    1.4977    1.0080   -0.3953 C   0  0  0  0  0  0  0  0  0  0  0  0
    2.2141   -0.3503   -0.2737 C   0  0  0  0  0  0  0  0  0  0  0  0
    1.1785   -1.2652    0.3956 C   0  0  0  0  0  0  0  0  0  0  0  0
   -0.1494   -0.8311   -0.2398 C   0  0  0  0  0  0  0  0  0  0  0  0
   -1.4409   -0.8502    0.5889 C   0  0  0  0  0  0  0  0  0  0  0  0
   -2.7102    0.0864   -0.8907 H   0  0  0  0  0  0  0  0  0  0  0  0
   -3.0138    0.6865    0.7353 H   0  0  0  0  0  0  0  0  0  0  0  0
   -1.4459    2.1368   -0.9815 H   0  0  0  0  0  0  0  0  0  0  0  0
   -0.9857    2.0292    0.7068 H   0  0  0  0  0  0  0  0  0  0  0  0
    1.6525    1.6113    0.5121 H   0  0  0  0  0  0  0  0  0  0  0  0
    1.8766    1.6104   -1.2268 H   0  0  0  0  0  0  0  0  0  0  0  0
    3.1516   -0.2903    0.2803 H   0  0  0  0  0  0  0  0  0  0  0  0
    2.4485   -0.7309   -1.2715 H   0  0  0  0  0  0  0  0  0  0  0  0
    1.1473   -1.0612    1.4707 H   0  0  0  0  0  0  0  0  0  0  0  0
    1.4017   -2.3251    0.2670 H   0  0  0  0  0  0  0  0  0  0  0  0
   -0.3078   -1.3981   -1.1697 H   0  0  0  0  0  0  0  0  0  0  0  0
   -1.1949   -0.6901    1.6436 H   0  0  0  0  0  0  0  0  0  0  0  0
   -1.9953   -1.7869    0.5178 H   0  0  0  0  0  0  0  0  0  0  0  0
  1  8  1  0
  1  2  1  0
  1  9  1  0
  1 10  1  0
  2  3  1  0
  2 11  1  0
  2 12  1  0
  3  4  1  0
  3  7  1  0
  4  5  1  0
  4 13  1  0
  4 14  1  0
  5  6  1  0
  5 15  1  0
  5 16  1  0
  6  7  1  0
  6 17  1  0
  6 18  1  0
  7  8  1  0
  7 19  1  0
  8 20  1  0
  8 21  1  0
M  RAD  1   3   2
M  END
>  <reaction>  (2) 
rxn_738

>  <mol_properties>  (2) 
{"2": {"label": "acceptor", "atom_type": "Cs"}}

>  <type>  (2) 
r2

$$$$

     RDKit          3D

 22 23  0  0  0  0  0  0  0  0999 V2000
   -2.1093   -0.3263    0.3079 C   0  0  0  0  0  0  0  0  0  0  0  0
   -1.3270    0.9803    0.4115 C   0  0  0  0  0  0  0  0  0  0  0  0
   -0.1818    0.8289   -0.6044 C   0  0  0  0  0  0  0  0  0  0  0  0
    1.1682    1.3904   -0.1341 C   0  0  0  0  0  0  0  0  0  0  0  0
    1.8508    0.2041    0.5479 C   0  0  0  0  0  0  0  0  0  0  0  0
    1.4982   -0.9663   -0.3710 C   0  0  0  0  0  0  0  0  0  0  0  0
    0.0340   -0.7124   -0.7594 C   0  0  0  0  0  0  0  0  0  0  0  0
   -0.9986   -1.3650    0.1756 C   0  0  0  0  0  0  0  0  0  0  0  0
   -2.7686   -0.5042    1.1589 H   0  0  0  0  0  0  0  0  0  0  0  0
   -2.7285   -0.3223   -0.5943 H   0  0  0  0  0  0  0  0  0  0  0  0
   -1.9339    1.8682    0.2289 H   0  0  0  0  0  0  0  0  0  0  0  0
   -0.9144    1.0729    1.4218 H   0  0  0  0  0  0  0  0  0  0  0  0
   -0.4804    1.2763   -1.5535 H   0  0  0  0  0  0  0  0  0  0  0  0
    1.7667    1.7058   -0.9931 H   0  0  0  0  0  0  0  0  0  0  0  0
    1.0540    2.2578    0.5189 H   0  0  0  0  0  0  0  0  0  0  0  0
    1.4197    0.0438    1.5410 H   0  0  0  0  0  0  0  0  0  0  0  0
    2.9248    0.3413    0.6788 H   0  0  0  0  0  0  0  0  0  0  0  0
    2.1362   -0.9329   -1.2584 H   0  0  0  0  0  0  0  0  0  0  0  0
    1.6421   -1.9421    0.0966 H   0  0  0  0  0  0  0  0  0  0  0  0
   -0.1575   -1.0299   -1.7854 H   0  0  0  0  0  0  0  0  0  0  0  0
   -1.3459   -2.3310   -0.1933 H   0  0  0  0  0  0  0  0  0  0  0  0
   -0.5489   -1.5373    1.1593 H   0  0  0  0  0  0  0  0  0  0  0  0
  1  2  1  0
  1  8  1  0
  1  9  1  0
  1 10  1  0
  2  3  1  0
  2 11  1  0
  2 12  1  0
  3  4  1  0
  3  7  1  0
  3 13  1  0
  4  5  1  0
  4 14  1  0
  4 15  1  0
  5  6  1  0
  5 16  1  0
  5 17  1  0
  6  7  1  0
  6 18  1  0
  6 19  1  0
  7  8  1  0
  7 20  1  0
  8 21  1  0
  8 22  1  0
M  END
>  <reaction>  (3) 
rxn_738

>  <mol_properties>  (3) 
{"0": {"label": "a_hydrogen", "atom_type": "H0"}, "3": {"label": "acceptor", "atom_type": "Cs"}}

>  <type>  (3) 
r2h

$$$$

     RDKit          3D

 30 30  0  0  0  0  0  0  0  0999 V2000
    2.2946   -1.6152   -2.1759 C   0  0  0  0  0  0  0  0  0  0  0  0
    2.1007   -0.3080   -1.9795 C   0  0  0  0  0  0  0  0  0  0  0  0
    0.8744    0.4148   -2.2908 C   0  0  0  0  0  0  0  0  0  0  0  0
    3.2160   -2.1014   -1.8834 H   0  0  0  0  0  0  0  0  0  0  0  0
    1.5366   -2.2328   -2.6459 H   0  0  0  0  0  0  0  0  0  0  0  0
    2.8933    0.2640   -1.5040 H   0  0  0  0  0  0  0  0  0  0  0  0
    0.1242    0.3997   -1.2237 H   0  0  0  0  0  0  0  0  0  0  0  0
    0.2300   -0.0679   -3.0238 H   0  0  0  0  0  0  0  0  0  0  0  0
    0.9941    1.4784   -2.4843 H   0  0  0  0  0  0  0  0  0  0  0  0
   -0.4368   -1.9583    0.6890 C   0  0  0  0  0  0  0  0  0  0  0  0
   -1.3239   -1.0532   -0.1712 C   0  0  0  0  0  0  0  0  0  0  0  0
   -0.6564    0.3071   -0.0950 C   0  0  0  0  0  3  0  0  0  0  0  0
   -1.4974    1.5636    0.0011 C   0  0  0  0  0  0  0  0  0  0  0  0
   -1.4214    1.9273    1.4907 C   0  0  0  0  0  0  0  0  0  0  0  0
    0.0238    1.5844    1.8658 C   0  0  0  0  0  0  0  0  0  0  0  0
    0.3249    0.2975    1.0826 C   0  0  0  0  0  0  0  0  0  0  0  0
    0.0275   -1.0248    1.8067 C   0  0  0  0  0  0  0  0  0  0  0  0
    0.4262   -2.2890    0.1052 H   0  0  0  0  0  0  0  0  0  0  0  0
   -0.9559   -2.8454    1.0539 H   0  0  0  0  0  0  0  0  0  0  0  0
   -1.4396   -1.4139   -1.1964 H   0  0  0  0  0  0  0  0  0  0  0  0
   -2.3315   -0.9937    0.2591 H   0  0  0  0  0  0  0  0  0  0  0  0
   -2.5176    1.4173   -0.3574 H   0  0  0  0  0  0  0  0  0  0  0  0
   -1.0556    2.3705   -0.5941 H   0  0  0  0  0  0  0  0  0  0  0  0
   -1.6844    2.9660    1.6955 H   0  0  0  0  0  0  0  0  0  0  0  0
   -2.1133    1.2967    2.0567 H   0  0  0  0  0  0  0  0  0  0  0  0
    0.1702    1.4638    2.9405 H   0  0  0  0  0  0  0  0  0  0  0  0
    0.6864    2.3885    1.5349 H   0  0  0  0  0  0  0  0  0  0  0  0
    1.3619    0.2804    0.7320 H   0  0  0  0  0  0  0  0  0  0  0  0
   -0.7873   -0.8761    2.5237 H   0  0  0  0  0  0  0  0  0  0  0  0
    0.8868   -1.4050    2.3607 H   0  0  0  0  0  0  0  0  0  0  0  0
  1  2  2  3
  1  4  1  0
  1  5  1  0
  2  3  1  0
  2  6  1  0
  3  7  1  0
  3  8  1  0
  3  9  1  0
 10 17  1  0
 10 11  1  0
 10 18  1  0
 10 19  1  0
 11 12  1  0
 11 20  1  0
 11 21  1  0
 12 13  1  0
 12 16  1  0
 13 14  1  0
 13 22  1  0
 13 23  1  0
 14 15  1  0
 14 24  1  0
 14 25  1  0
 15 16  1  0
 15 26  1  0
 15 27  1  0
 16 17  1  0
 16 28  1  0
 17 29  1  0
 17 30  1  0
M  RAD  1  12   2
M  END
>  <reaction>  (4) 
rxn_738

>  <mol_properties>  (4) 
{"1": {"label": "*0", "atom_type": "Cd"}, "2": {"label": "*1", "atom_type": "Cs"}, "6": {"label": "*2", "atom_type": "H0"}, "11": {"label": "*3", "atom_type": "Cs"}, "15": {"label": "*4", "atom_type": "Cs"}}

>  <type>  (4) 
ts

$$$$
