
     RDKit          3D

 12 12  0  0  0  0  0  0  0  0999 V2000
   -1.2385    0.6248   -0.0199 C   0  0  0  0  0  0  0  0  0  0  0  0
   -0.0779    1.3848   -0.0298 C   0  0  0  0  0  0  0  0  0  0  0  0
    1.1605    0.7600   -0.0100 C   0  0  0  0  0  0  0  0  0  0  0  0
    1.2385   -0.6248    0.0199 C   0  0  0  0  0  0  0  0  0  0  0  0
    0.0779   -1.3848    0.0298 C   0  0  0  0  0  0  0  0  0  0  0  0
   -1.1606   -0.7600    0.0100 C   0  0  0  0  0  0  0  0  0  0  0  0
   -2.2052    1.1125   -0.0354 H   0  0  0  0  0  0  0  0  0  0  0  0
   -0.1387    2.4657   -0.0531 H   0  0  0  0  0  0  0  0  0  0  0  0
    2.0664    1.3532   -0.0177 H   0  0  0  0  0  0  0  0  0  0  0  0
    2.2052   -1.1125    0.0354 H   0  0  0  0  0  0  0  0  0  0  0  0
    0.1387   -2.4657    0.0531 H   0  0  0  0  0  0  0  0  0  0  0  0
   -2.0664   -1.3532    0.0177 H   0  0  0  0  0  0  0  0  0  0  0  0
  1  2  2  0
  1  6  1  0
  1  7  1  0
  2  3  1  0
  2  8  1  0
  3  4  2  0
  3  9  1  0
  4  5  1  0
  4 10  1  0
  5  6  2  0
  5 11  1  0
  6 12  1  0
M  END
>  <reaction>  (1) 
rxn_356

>  <mol_properties>  (1) 
{"2": {"label": "donator", "atom_type": "Cd"}, "8": {"label": "d_hydrogen", "atom_type": "H0"}}

>  <type>  (1) 
r1h

$$$$

     RDKit          3D

  7  6  0  0  0  0  0  0  0  0999 V2000
   -0.6201    0.0189   -0.0017 C   0  0  0  0  0  0  0  0  0  0  0  0
    0.8589   -0.0553    0.0500 C   0  0  0  0  0  3  0  0  0  0  0  0
   -1.0738   -0.9730   -0.0559 H   0  0  0  0  0  0  0  0  0  0  0  0
   -0.9680    0.5706   -0.8872 H   0  0  0  0  0  0  0  0  0  0  0  0
   -1.0303    0.5369    0.8678 H   0  0  0  0  0  0  0  0  0  0  0  0
    1.3939   -0.8386   -0.4695 H   0  0  0  0  0  0  0  0  0  0  0  0
    1.4394    0.7404    0.4965 H   0  0  0  0  0  0  0  0  0  0  0  0
  1  2  1  0
  1  3  1  0
  1  4  1  0
  1  5  1  0
  2  6  1  0
  2  7  1  0
M  RAD  1   2   2
M  END
>  <reaction>  (2) 
rxn_356

>  <mol_properties>  (2) 
{"1": {"label": "acceptor", "atom_type": "Cs"}}

>  <type>  (2) 
r2

$$$$

     RDKit          3D

  8  7  0  0  0  0  0  0  0  0999 V2000
    0.7610    0.0250    0.0051 C   0  0  0  0  0  0  0  0  0  0  0  0
   -0.7610   -0.0250   -0.0051 C   0  0  0  0  0  0  0  0  0  0  0  0
    1.1904   -0.9237   -0.3217 H   0  0  0  0  0  0  0  0  0  0  0  0
    1.1359    0.8041   -0.6609 H   0  0  0  0  0  0  0  0  0  0  0  0
    1.1435    0.2336    1.0058 H   0  0  0  0  0  0  0  0  0  0  0  0
   -1.1435   -0.2336   -1.0058 H   0  0  0  0  0  0  0  0  0  0  0  0
   -1.1904    0.9237    0.3216 H   0  0  0  0  0  0  0  0  0  0  0  0
   -1.1359   -0.8041    0.6609 H   0  0  0  0  0  0  0  0  0  0  0  0
  1  2  1  0
  1  3  1  0
  1  4  1  0
  1  5  1  0
  2  6  1  0
  2  7  1  0
  2  8  1  0
M  END
>  <reaction>  (3) 
rxn_356

>  <mol_properties>  (3) 
{"1": {"label": "acceptor", "atom_type": "Cs"}, "7": {"label": "a_hydrogen", "atom_type": "H0"}}

>  <type>  (3) 
r2h

$$$$

     RDKit          3D

 19 18  0  0  0  0  0  0  0  0999 V2000
    0.6950   -0.9070    3.2912 C   0  0  0  0  0  0  0  0  0  0  0  0
    0.2250    0.4580    2.8541 C   0  0  0  0  0  0  0  0  0  0  0  0
    0.8349   -0.9535    4.3750 H   0  0  0  0  0  0  0  0  0  0  0  0
    1.6495   -1.1629    2.8272 H   0  0  0  0  0  0  0  0  0  0  0  0
   -0.0287   -1.6786    3.0215 H   0  0  0  0  0  0  0  0  0  0  0  0
    0.9448    1.2568    3.0280 H   0  0  0  0  0  0  0  0  0  0  0  0
   -0.7614    0.7325    3.2257 H   0  0  0  0  0  0  0  0  0  0  0  0
    0.1655   -1.0822   -1.7461 C   0  0  0  0  0  0  0  0  0  0  0  0
    0.2803   -0.9359   -0.3675 C   0  0  0  0  0  0  0  0  0  0  0  0
   -0.0297    0.2837    0.1937 C   0  0  0  0  0  3  0  0  0  0  0  0
   -0.4478    1.3606   -0.5573 C   0  0  0  0  0  0  0  0  0  0  0  0
   -0.5600    1.2062   -1.9349 C   0  0  0  0  0  0  0  0  0  0  0  0
   -0.2537   -0.0125   -2.5247 C   0  0  0  0  0  0  0  0  0  0  0  0
    0.4034   -2.0312   -2.2114 H   0  0  0  0  0  0  0  0  0  0  0  0
    0.6069   -1.7660    0.2482 H   0  0  0  0  0  0  0  0  0  0  0  0
    0.0887    0.4252    1.5906 H   0  0  0  0  0  0  0  0  0  0  0  0
   -0.6852    2.3089   -0.0892 H   0  0  0  0  0  0  0  0  0  0  0  0
   -0.8868    2.0378   -2.5477 H   0  0  0  0  0  0  0  0  0  0  0  0
   -0.3421   -0.1291   -3.5976 H   0  0  0  0  0  0  0  0  0  0  0  0
  1  2  1  0
  1  3  1  0
  1  4  1  0
  1  5  1  0
  2  6  1  0
  2  7  1  0
  2 16  1  0
  8 13  2  0
  8  9  1  0
  8 14  1  0
  9 10  2  0
  9 15  1  0
 10 11  1  0
 11 12  2  0
 11 17  1  0
 12 13  1  0
 12 18  1  0
 13 19  1  0
M  RAD  1  10   2
M  END
>  <reaction>  (4) 
rxn_356

>  <mol_properties>  (4) 
{"0": {"label": "*0", "atom_type": "Cs"}, "1": {"label": "*1", "atom_type": "Cs"}, "8": {"label": "*4", "atom_type": "Cd"}, "9": {"label": "*3", "atom_type": "Cd"}, "15": {"label": "*2", "atom_type": "H0"}}

>  <type>  (4) 
ts

$$$$
