
     RDKit          3D

  5  4  0  0  0  0  0  0  0  0999 V2000
    0.0000    0.0000    0.0000 C   0  0  0  0  0  0  0  0  0  0  0  0
   -0.6486   -0.7720   -0.4113 H   0  0  0  0  0  0  0  0  0  0  0  0
   -0.3482    0.9787   -0.3267 H   0  0  0  0  0  0  0  0  0  0  0  0
   -0.0223   -0.0487    1.0876 H   0  0  0  0  0  0  0  0  0  0  0  0
    1.0191   -0.1580   -0.3496 H   0  0  0  0  0  0  0  0  0  0  0  0
  1  2  1  0
  1  3  1  0
  1  4  1  0
  1  5  1  0
M  END
>  <reaction>  (1) 
rxn_318

>  <mol_properties>  (1) 
{"0": {"label": "donator", "atom_type": "Cs"}, "1": {"label": "d_hydrogen", "atom_type": "H0"}}

>  <type>  (1) 
r1h

$$$$

     RDKit          3D

  3  2  0  0  0  0  0  0  0  0999 V2000
   -0.0494   -0.2484    0.2507 C   0  0  0  0  0  3  0  0  0  0  0  0
    1.0305   -0.0025   -0.1225 O   0  0  0  0  0  0  0  0  0  0  0  0
   -0.9811    0.2509   -0.1282 H   0  0  0  0  0  0  0  0  0  0  0  0
  1  2  2  0
  1  3  1  0
M  RAD  1   1   2
M  END
>  <reaction>  (2) 
rxn_318

>  <mol_properties>  (2) 
{"0": {"label": "acceptor", "atom_type": "CO"}}

>  <type>  (2) 
r2

$$$$

     RDKit          3D

  4  3  0  0  0  0  0  0  0  0999 V2000
   -0.0057    0.0001   -0.0008 C   0  0  0  0  0  0  0  0  0  0  0  0
    1.1789   -0.0174    0.1563 O   0  0  0  0  0  0  0  0  0  0  0  0
   -0.5891    0.9399    0.0445 H   0  0  0  0  0  0  0  0  0  0  0  0
   -0.5841   -0.9226   -0.2001 H   0  0  0  0  0  0  0  0  0  0  0  0
  1  2  2  0
  1  3  1  0
  1  4  1  0
M  END
>  <reaction>  (3) 
rxn_318

>  <mol_properties>  (3) 
{"0": {"label": "acceptor", "atom_type": "CO"}, "3": {"label": "a_hydrogen", "atom_type": "H0"}}

>  <type>  (3) 
r2h

$$$$

     RDKit          3D

  8  6  0  0  0  0  0  0  0  0999 V2000
    0.0042    0.5509    0.5621 C   0  0  0  0  0  0  0  0  0  0  0  0
    0.5402    0.8022    1.5879 O   0  0  0  0  0  0  0  0  0  0  0  0
   -0.5090    1.3203   -0.0600 H   0  0  0  0  0  0  0  0  0  0  0  0
   -0.0074   -2.0296   -0.3783 C   0  0  0  0  0  3  0  0  0  0  0  0
   -0.0213   -0.6329    0.0954 H   0  0  0  0  0  0  0  0  0  0  0  0
    0.5047   -1.9786   -1.3338 H   0  0  0  0  0  0  0  0  0  0  0  0
    0.5459   -2.5293    0.4097 H   0  0  0  0  0  0  0  0  0  0  0  0
   -1.0574   -2.2976   -0.4392 H   0  0  0  0  0  0  0  0  0  0  0  0
  1  2  2  0
  1  3  1  0
  1  5  1  0
  4  6  1  0
  4  7  1  0
  4  8  1  0
M  RAD  1   4   2
M  END
>  <reaction>  (4) 
rxn_318

>  <mol_properties>  (4) 
{"0": {"label": "*1", "atom_type": "CO"}, "1": {"label": "*0", "atom_type": "O2d"}, "3": {"label": "*3", "atom_type": "Cs"}, "4": {"label": "*2", "atom_type": "H0"}, "5": {"label": "*4", "atom_type": "H0"}}

>  <type>  (4) 
ts

$$$$
