
     RDKit          3D

 25 26  0  0  0  0  0  0  0  0999 V2000
    2.0298   -1.1515    0.0571 C   0  0  0  0  0  0  0  0  0  0  0  0
    2.2278    0.2445    0.6528 C   0  0  0  0  0  0  0  0  0  0  0  0
    1.2292    1.2625    0.0947 C   0  0  0  0  0  0  0  0  0  0  0  0
   -0.1869    0.7454    0.2762 C   0  0  0  0  0  0  0  0  0  0  0  0
   -1.3415    1.5501   -0.3122 C   0  0  0  0  0  0  0  0  0  0  0  0
   -2.5060    0.5338   -0.4178 C   0  0  0  0  0  0  0  0  0  0  0  0
   -1.8709   -0.8658   -0.2234 C   0  0  0  0  0  0  0  0  0  0  0  0
   -0.3715   -0.6265   -0.3693 C   0  0  0  0  0  0  0  0  0  0  0  0
    0.5898   -1.6500    0.2086 C   0  0  0  0  0  0  0  0  0  0  0  0
    2.2820   -1.1226   -1.0088 H   0  0  0  0  0  0  0  0  0  0  0  0
    2.7243   -1.8549    0.5221 H   0  0  0  0  0  0  0  0  0  0  0  0
    2.1030    0.1885    1.7400 H   0  0  0  0  0  0  0  0  0  0  0  0
    3.2514    0.5819    0.4743 H   0  0  0  0  0  0  0  0  0  0  0  0
    1.3611    2.2304    0.5855 H   0  0  0  0  0  0  0  0  0  0  0  0
    1.4198    1.4194   -0.9737 H   0  0  0  0  0  0  0  0  0  0  0  0
   -0.3675    0.6209    1.3539 H   0  0  0  0  0  0  0  0  0  0  0  0
   -1.5992    2.4249    0.2862 H   0  0  0  0  0  0  0  0  0  0  0  0
   -1.0595    1.9116   -1.3055 H   0  0  0  0  0  0  0  0  0  0  0  0
   -3.2666    0.7244    0.3399 H   0  0  0  0  0  0  0  0  0  0  0  0
   -3.0030    0.6112   -1.3853 H   0  0  0  0  0  0  0  0  0  0  0  0
   -2.2549   -1.6039   -0.9288 H   0  0  0  0  0  0  0  0  0  0  0  0
   -2.0796   -1.2429    0.7821 H   0  0  0  0  0  0  0  0  0  0  0  0
   -0.1432   -0.5121   -1.4391 H   0  0  0  0  0  0  0  0  0  0  0  0
    0.4720   -2.6209   -0.2799 H   0  0  0  0  0  0  0  0  0  0  0  0
    0.3601   -1.7986    1.2704 H   0  0  0  0  0  0  0  0  0  0  0  0
  1  2  1  0
  1  9  1  0
  1 10  1  0
  1 11  1  0
  2  3  1  0
  2 12  1  0
  2 13  1  0
  3  4  1  0
  3 14  1  0
  3 15  1  0
  4  5  1  0
  4  8  1  0
  4 16  1  0
  5  6  1  0
  5 17  1  0
  5 18  1  0
  6  7  1  0
  6 19  1  0
  6 20  1  0
  7  8  1  0
  7 21  1  0
  7 22  1  0
  8  9  1  0
  8 23  1  0
  9 24  1  0
  9 25  1  0
M  END
>  <reaction>  (1) 
rxn_610

>  <mol_properties>  (1) 
{"5": {"label": "donator", "atom_type": "Cs"}, "18": {"label": "d_hydrogen", "atom_type": "H0"}}

>  <type>  (1) 
r1h

$$$$

     RDKit          3D

 12 11  0  0  0  0  0  0  0  0999 V2000
    2.5164   -0.5559   -0.0242 C   0  0  0  0  0  0  0  0  0  0  0  0
    1.3287   -0.2938   -0.0132 C   0  0  0  0  0  0  0  0  0  0  0  0
   -0.0146    0.0027   -0.0006 C   0  0  0  0  0  3  0  0  0  0  0  0
   -1.0396   -1.0729   -0.1642 C   0  0  0  0  0  0  0  0  0  0  0  0
   -0.4887    1.4091    0.1769 C   0  0  0  0  0  0  0  0  0  0  0  0
    3.5543   -0.7850   -0.0339 H   0  0  0  0  0  0  0  0  0  0  0  0
   -1.7064   -1.1056    0.7044 H   0  0  0  0  0  0  0  0  0  0  0  0
   -0.5831   -2.0533   -0.2854 H   0  0  0  0  0  0  0  0  0  0  0  0
   -1.6716   -0.8741   -1.0367 H   0  0  0  0  0  0  0  0  0  0  0  0
   -1.0951    1.7228   -0.6798 H   0  0  0  0  0  0  0  0  0  0  0  0
    0.3401    2.1059    0.2861 H   0  0  0  0  0  0  0  0  0  0  0  0
   -1.1300    1.4913    1.0613 H   0  0  0  0  0  0  0  0  0  0  0  0
  1  2  3  0
  1  6  1  0
  2  3  1  0
  3  4  1  0
  3  5  1  0
  4  7  1  0
  4  8  1  0
  4  9  1  0
  5 10  1  0
  5 11  1  0
  5 12  1  0
M  RAD  1   3   2
M  END
>  <reaction>  (2) 
rxn_610

>  <mol_properties>  (2) 
{"2": {"label": "acceptor", "atom_type": "Cs"}}

>  <type>  (2) 
r2

$$$$

     RDKit          3D

 13 12  0  0  0  0  0  0  0  0999 V2000
    2.2975   -0.6134    0.7685 C   0  0  0  0  0  0  0  0  0  0  0  0
    1.1676   -0.5248    0.3802 C   0  0  0  0  0  0  0  0  0  0  0  0
   -0.2109   -0.3926   -0.0948 C   0  0  0  0  0  0  0  0  0  0  0  0
   -0.2501    0.2584   -1.4808 C   0  0  0  0  0  0  0  0  0  0  0  0
   -1.0633    0.3831    0.9141 C   0  0  0  0  0  0  0  0  0  0  0  0
    3.2999   -0.6974    1.1133 H   0  0  0  0  0  0  0  0  0  0  0  0
   -0.6209   -1.4038   -0.1814 H   0  0  0  0  0  0  0  0  0  0  0  0
    0.3402   -0.3102   -2.1992 H   0  0  0  0  0  0  0  0  0  0  0  0
    0.1511    1.2724   -1.4369 H   0  0  0  0  0  0  0  0  0  0  0  0
   -1.2791    0.3109   -1.8407 H   0  0  0  0  0  0  0  0  0  0  0  0
   -0.6861    1.4008    1.0287 H   0  0  0  0  0  0  0  0  0  0  0  0
   -1.0492   -0.0971    1.8924 H   0  0  0  0  0  0  0  0  0  0  0  0
   -2.0971    0.4363    0.5680 H   0  0  0  0  0  0  0  0  0  0  0  0
  1  2  3  0
  1  6  1  0
  2  3  1  0
  3  4  1  0
  3  5  1  0
  3  7  1  0
  4  8  1  0
  4  9  1  0
  4 10  1  0
  5 11  1  0
  5 12  1  0
  5 13  1  0
M  END
>  <reaction>  (3) 
rxn_610

>  <mol_properties>  (3) 
{"2": {"label": "acceptor", "atom_type": "Cs"}, "12": {"label": "a_hydrogen", "atom_type": "H0"}}

>  <type>  (3) 
r2h

$$$$

     RDKit          3D

 37 37  0  0  0  0  0  0  0  0999 V2000
   -2.2783    1.4813    1.1128 C   0  0  0  0  0  0  0  0  0  0  0  0
   -1.2613    2.0148    0.7537 C   0  0  0  0  0  0  0  0  0  0  0  0
   -0.0354    2.6042    0.3001 C   0  0  0  0  0  0  0  0  0  0  0  0
    0.9845    2.8448    1.3976 C   0  0  0  0  0  0  0  0  0  0  0  0
   -0.2211    3.7735   -0.6494 C   0  0  0  0  0  0  0  0  0  0  0  0
   -3.1807    1.0215    1.4359 H   0  0  0  0  0  0  0  0  0  0  0  0
    1.9536    3.0959    0.9607 H   0  0  0  0  0  0  0  0  0  0  0  0
    1.1058    1.9601    2.0231 H   0  0  0  0  0  0  0  0  0  0  0  0
    0.6786    3.6743    2.0419 H   0  0  0  0  0  0  0  0  0  0  0  0
   -0.6413    4.6394   -0.1301 H   0  0  0  0  0  0  0  0  0  0  0  0
   -0.8926    3.5111   -1.4675 H   0  0  0  0  0  0  0  0  0  0  0  0
    0.7415    4.0667   -1.0738 H   0  0  0  0  0  0  0  0  0  0  0  0
   -1.1660   -3.4173   -0.3431 C   0  0  0  0  0  0  0  0  0  0  0  0
   -0.3717   -3.2478    0.9548 C   0  0  0  0  0  0  0  0  0  0  0  0
    0.9319   -2.4705    0.7464 C   0  0  0  0  0  0  0  0  0  0  0  0
    0.6248   -1.1479    0.0700 C   0  0  0  0  0  0  0  0  0  0  0  0
    1.7683   -0.2193   -0.3240 C   0  0  0  0  0  0  0  0  0  0  0  0
    1.0874    0.7381   -1.2836 C   0  0  0  0  0  3  0  0  0  0  0  0
   -0.1208    0.0369   -1.8917 C   0  0  0  0  0  0  0  0  0  0  0  0
   -0.1007   -1.3602   -1.2600 C   0  0  0  0  0  0  0  0  0  0  0  0
   -1.4191   -2.0847   -1.0543 C   0  0  0  0  0  0  0  0  0  0  0  0
   -0.6073   -4.0750   -1.0185 H   0  0  0  0  0  0  0  0  0  0  0  0
   -2.1131   -3.9199   -0.1335 H   0  0  0  0  0  0  0  0  0  0  0  0
   -0.9881   -2.7064    1.6809 H   0  0  0  0  0  0  0  0  0  0  0  0
   -0.1631   -4.2273    1.3913 H   0  0  0  0  0  0  0  0  0  0  0  0
    1.4359   -2.3162    1.7041 H   0  0  0  0  0  0  0  0  0  0  0  0
    1.6150   -3.0524    0.1160 H   0  0  0  0  0  0  0  0  0  0  0  0
   -0.0525   -0.5798    0.7222 H   0  0  0  0  0  0  0  0  0  0  0  0
    2.2360    0.2851    0.5249 H   0  0  0  0  0  0  0  0  0  0  0  0
    2.5572   -0.7876   -0.8344 H   0  0  0  0  0  0  0  0  0  0  0  0
    0.5181    1.6973   -0.4547 H   0  0  0  0  0  0  0  0  0  0  0  0
    1.7158    1.3368   -1.9386 H   0  0  0  0  0  0  0  0  0  0  0  0
   -0.0820    0.0051   -2.9826 H   0  0  0  0  0  0  0  0  0  0  0  0
   -1.0482    0.5570   -1.6228 H   0  0  0  0  0  0  0  0  0  0  0  0
    0.5457   -2.0012   -1.8761 H   0  0  0  0  0  0  0  0  0  0  0  0
   -1.9288   -2.2556   -2.0062 H   0  0  0  0  0  0  0  0  0  0  0  0
   -2.0785   -1.4544   -0.4464 H   0  0  0  0  0  0  0  0  0  0  0  0
  1  2  3  0
  1  6  1  0
  2  3  1  0
  3  4  1  0
  3  5  1  0
  3 31  1  0
  4  7  1  0
  4  8  1  0
  4  9  1  0
  5 10  1  0
  5 11  1  0
  5 12  1  0
 13 14  1  0
 13 21  1  0
 13 22  1  0
 13 23  1  0
 14 15  1  0
 14 24  1  0
 14 25  1  0
 15 16  1  0
 15 26  1  0
 15 27  1  0
 16 17  1  0
 16 20  1  0
 16 28  1  0
 17 18  1  0
 17 29  1  0
 17 30  1  0
 18 19  1  0
 18 32  1  0
 19 20  1  0
 19 33  1  0
 19 34  1  0
 20 21  1  0
 20 35  1  0
 21 36  1  0
 21 37  1  0
M  RAD  1  18   2
M  END
>  <reaction>  (4) 
rxn_610

>  <mol_properties>  (4) 
{"1": {"label": "*0", "atom_type": "Ct"}, "2": {"label": "*1", "atom_type": "Cs"}, "16": {"label": "*4", "atom_type": "Cs"}, "17": {"label": "*3", "atom_type": "Cs"}, "30": {"label": "*2", "atom_type": "H0"}}

>  <type>  (4) 
ts

$$$$
