
     RDKit          3D

 10  9  0  0  0  0  0  0  0  0999 V2000
    1.8334    0.0847   -0.1062 C   0  0  0  0  0  0  0  0  0  0  0  0
    0.5993   -0.4071   -0.0750 C   0  0  0  0  0  0  0  0  0  0  0  0
   -0.5993    0.4071    0.0750 C   0  0  0  0  0  0  0  0  0  0  0  0
   -1.8334   -0.0847    0.1062 C   0  0  0  0  0  0  0  0  0  0  0  0
    2.0179    1.1498   -0.0189 H   0  0  0  0  0  0  0  0  0  0  0  0
    2.6972   -0.5572   -0.2194 H   0  0  0  0  0  0  0  0  0  0  0  0
    0.4465   -1.4793   -0.1649 H   0  0  0  0  0  0  0  0  0  0  0  0
   -0.4465    1.4793    0.1649 H   0  0  0  0  0  0  0  0  0  0  0  0
   -2.0179   -1.1498    0.0189 H   0  0  0  0  0  0  0  0  0  0  0  0
   -2.6972    0.5572    0.2194 H   0  0  0  0  0  0  0  0  0  0  0  0
  1  2  2  3
  1  5  1  0
  1  6  1  0
  2  3  1  0
  2  7  1  0
  3  4  2  3
  3  8  1  0
  4  9  1  0
  4 10  1  0
M  END
>  <reaction>  (1) 
rxn_1667

>  <mol_properties>  (1) 
{"2": {"label": "donator", "atom_type": "Cd"}, "7": {"label": "d_hydrogen", "atom_type": "H0"}}

>  <type>  (1) 
r1h

$$$$

     RDKit          3D

  7  6  0  0  0  0  0  0  0  0999 V2000
    1.3002    0.7433    2.1279 C   0  0  0  0  0  0  0  0  0  0  0  0
    0.5758    0.3292    1.2319 C   0  0  0  0  0  0  0  0  0  0  0  0
   -0.2057   -0.1176    0.2652 C   0  0  0  0  0  3  0  0  0  0  0  0
   -0.9747   -0.5572   -0.6858 C   0  0  0  0  0  0  0  0  0  0  0  0
    1.9293    1.1030    2.9060 H   0  0  0  0  0  0  0  0  0  0  0  0
   -1.9977   -0.8727   -0.4932 H   0  0  0  0  0  0  0  0  0  0  0  0
   -0.6274   -0.6280   -1.7143 H   0  0  0  0  0  0  0  0  0  0  0  0
  1  2  3  0
  1  5  1  0
  2  3  1  0
  3  4  2  3
  4  6  1  0
  4  7  1  0
M  RAD  1   3   2
M  END
>  <reaction>  (2) 
rxn_1667

>  <mol_properties>  (2) 
{"2": {"label": "acceptor", "atom_type": "Cd"}}

>  <type>  (2) 
r2

$$$$

     RDKit          3D

  8  7  0  0  0  0  0  0  0  0999 V2000
    1.9029    0.9046   -0.2050 C   0  0  0  0  0  0  0  0  0  0  0  0
    0.8517    0.4283    0.1217 C   0  0  0  0  0  0  0  0  0  0  0  0
   -0.3908   -0.1311    0.5404 C   0  0  0  0  0  0  0  0  0  0  0  0
   -1.2847   -0.6576   -0.2899 C   0  0  0  0  0  0  0  0  0  0  0  0
    2.8335    1.3255   -0.5014 H   0  0  0  0  0  0  0  0  0  0  0  0
   -0.5867   -0.1096    1.6074 H   0  0  0  0  0  0  0  0  0  0  0  0
   -2.2126   -1.0686    0.0850 H   0  0  0  0  0  0  0  0  0  0  0  0
   -1.1134   -0.6914   -1.3582 H   0  0  0  0  0  0  0  0  0  0  0  0
  1  2  3  0
  1  5  1  0
  2  3  1  0
  3  4  2  3
  3  6  1  0
  4  7  1  0
  4  8  1  0
M  END
>  <reaction>  (3) 
rxn_1667

>  <mol_properties>  (3) 
{"2": {"label": "acceptor", "atom_type": "Cd"}, "7": {"label": "a_hydrogen", "atom_type": "H0"}}

>  <type>  (3) 
r2h

$$$$

     RDKit          3D

 17 15  0  0  0  0  0  0  0  0999 V2000
   -1.0115    1.4248   -2.5238 C   0  0  0  0  0  0  0  0  0  0  0  0
   -0.4948    1.4332   -1.4371 C   0  0  0  0  0  0  0  0  0  0  0  0
    0.0783    1.3277   -0.1625 C   0  0  0  0  0  0  0  0  0  0  0  0
    0.7786    2.1979    0.5438 C   0  0  0  0  0  0  0  0  0  0  0  0
   -1.4650    1.4398   -3.4856 H   0  0  0  0  0  0  0  0  0  0  0  0
    0.9962    3.1941    0.1728 H   0  0  0  0  0  0  0  0  0  0  0  0
    1.1591    1.9314    1.5229 H   0  0  0  0  0  0  0  0  0  0  0  0
    0.7580   -2.1711   -0.7171 C   0  0  0  0  0  0  0  0  0  0  0  0
    0.2417   -2.1451    0.5071 C   0  0  0  0  0  0  0  0  0  0  0  0
   -0.2449   -0.9536    1.1651 C   0  0  0  0  0  3  0  0  0  0  0  0
   -0.7780   -0.7811    2.3582 C   0  0  0  0  0  0  0  0  0  0  0  0
    0.8444   -1.2708   -1.3140 H   0  0  0  0  0  0  0  0  0  0  0  0
    1.1045   -3.0960   -1.1588 H   0  0  0  0  0  0  0  0  0  0  0  0
    0.1622   -3.0691    1.0793 H   0  0  0  0  0  0  0  0  0  0  0  0
   -0.1096    0.1878    0.4186 H   0  0  0  0  0  0  0  0  0  0  0  0
   -0.9149   -1.6160    3.0425 H   0  0  0  0  0  0  0  0  0  0  0  0
   -1.1041    0.1945    2.6994 H   0  0  0  0  0  0  0  0  0  0  0  0
  1  2  3  0
  1  5  1  0
  2  3  1  0
  3  4  2  3
  3 15  1  0
  4  6  1  0
  4  7  1  0
  8  9  2  3
  8 12  1  0
  8 13  1  0
  9 10  1  0
  9 14  1  0
 10 11  2  3
 11 16  1  0
 11 17  1  0
M  RAD  1  10   2
M  END
>  <reaction>  (4) 
rxn_1667

>  <mol_properties>  (4) 
{"1": {"label": "*0", "atom_type": "Ct"}, "2": {"label": "*1", "atom_type": "Cd"}, "8": {"label": "*4", "atom_type": "Cd"}, "9": {"label": "*3", "atom_type": "Cd"}, "14": {"label": "*2", "atom_type": "H0"}}

>  <type>  (4) 
ts

$$$$
