
     RDKit          3D

  8  7  0  0  0  0  0  0  0  0999 V2000
    0.7610    0.0250    0.0051 C   0  0  0  0  0  0  0  0  0  0  0  0
   -0.7610   -0.0250   -0.0051 C   0  0  0  0  0  0  0  0  0  0  0  0
    1.1904   -0.9237   -0.3217 H   0  0  0  0  0  0  0  0  0  0  0  0
    1.1359    0.8041   -0.6609 H   0  0  0  0  0  0  0  0  0  0  0  0
    1.1435    0.2336    1.0058 H   0  0  0  0  0  0  0  0  0  0  0  0
   -1.1435   -0.2336   -1.0058 H   0  0  0  0  0  0  0  0  0  0  0  0
   -1.1904    0.9237    0.3216 H   0  0  0  0  0  0  0  0  0  0  0  0
   -1.1359   -0.8041    0.6609 H   0  0  0  0  0  0  0  0  0  0  0  0
  1  2  1  0
  1  3  1  0
  1  4  1  0
  1  5  1  0
  2  6  1  0
  2  7  1  0
  2  8  1  0
M  END
>  <reaction>  (1) 
rxn_326

>  <mol_properties>  (1) 
{"1": {"label": "donator", "atom_type": "Cs"}, "5": {"label": "d_hydrogen", "atom_type": "H0"}}

>  <type>  (1) 
r1h

$$$$

     RDKit          3D

  6  5  0  0  0  0  0  0  0  0999 V2000
   -0.4436    0.0188   -0.1393 C   0  0  0  0  0  0  0  0  0  0  0  0
    1.0624   -0.0017   -0.1425 C   0  0  0  0  0  3  0  0  0  0  0  0
    1.7971   -0.0947    0.7691 O   0  0  0  0  0  0  0  0  0  0  0  0
   -0.8374   -0.0681    0.8758 H   0  0  0  0  0  0  0  0  0  0  0  0
   -0.7772    0.9478   -0.6020 H   0  0  0  0  0  0  0  0  0  0  0  0
   -0.8013   -0.8022   -0.7611 H   0  0  0  0  0  0  0  0  0  0  0  0
  1  2  1  0
  1  4  1  0
  1  5  1  0
  1  6  1  0
  2  3  2  0
M  RAD  1   2   2
M  END
>  <reaction>  (2) 
rxn_326

>  <mol_properties>  (2) 
{"1": {"label": "acceptor", "atom_type": "CO"}}

>  <type>  (2) 
r2

$$$$

     RDKit          3D

  7  6  0  0  0  0  0  0  0  0999 V2000
   -0.6468   -0.0443   -0.0231 C   0  0  0  0  0  0  0  0  0  0  0  0
    0.8470    0.0371    0.0688 C   0  0  0  0  0  0  0  0  0  0  0  0
    1.4866   -0.2280    1.0479 O   0  0  0  0  0  0  0  0  0  0  0  0
   -1.0466    0.9363   -0.2943 H   0  0  0  0  0  0  0  0  0  0  0  0
   -0.9229   -0.7318   -0.8269 H   0  0  0  0  0  0  0  0  0  0  0  0
   -1.0759   -0.3772    0.9198 H   0  0  0  0  0  0  0  0  0  0  0  0
    1.3584    0.3712   -0.8589 H   0  0  0  0  0  0  0  0  0  0  0  0
  1  2  1  0
  1  4  1  0
  1  5  1  0
  1  6  1  0
  2  3  2  0
  2  7  1  0
M  END
>  <reaction>  (3) 
rxn_326

>  <mol_properties>  (3) 
{"1": {"label": "acceptor", "atom_type": "CO"}, "6": {"label": "a_hydrogen", "atom_type": "H0"}}

>  <type>  (3) 
r2h

$$$$

     RDKit          3D

 14 12  0  0  0  0  0  0  0  0999 V2000
   -1.1746    1.5744    0.7976 C   0  0  0  0  0  0  0  0  0  0  0  0
   -0.1607    0.9934   -0.1459 C   0  0  0  0  0  0  0  0  0  0  0  0
    0.7413    1.5771   -0.6568 O   0  0  0  0  0  0  0  0  0  0  0  0
   -0.9913    2.6339    0.9744 H   0  0  0  0  0  0  0  0  0  0  0  0
   -2.1717    1.4253    0.3775 H   0  0  0  0  0  0  0  0  0  0  0  0
   -1.1386    1.0196    1.7376 H   0  0  0  0  0  0  0  0  0  0  0  0
    0.7797   -1.8387   -1.7051 C   0  0  0  0  0  0  0  0  0  0  0  0
   -0.3825   -1.6650   -0.7704 C   0  0  0  0  0  3  0  0  0  0  0  0
    0.6871   -1.1899   -2.5779 H   0  0  0  0  0  0  0  0  0  0  0  0
    1.7237   -1.5970   -1.2133 H   0  0  0  0  0  0  0  0  0  0  0  0
    0.8541   -2.8694   -2.0690 H   0  0  0  0  0  0  0  0  0  0  0  0
   -0.3286   -0.2722   -0.3959 H   0  0  0  0  0  0  0  0  0  0  0  0
   -0.3061   -2.1821    0.1842 H   0  0  0  0  0  0  0  0  0  0  0  0
   -1.3702   -1.7642   -1.2167 H   0  0  0  0  0  0  0  0  0  0  0  0
  1  2  1  0
  1  4  1  0
  1  5  1  0
  1  6  1  0
  2  3  2  0
  2 12  1  0
  7  8  1  0
  7  9  1  0
  7 10  1  0
  7 11  1  0
  8 13  1  0
  8 14  1  0
M  RAD  1   8   2
M  END
>  <reaction>  (4) 
rxn_326

>  <mol_properties>  (4) 
{"1": {"label": "*1", "atom_type": "CO"}, "2": {"label": "*0", "atom_type": "O2d"}, "6": {"label": "*4", "atom_type": "Cs"}, "7": {"label": "*3", "atom_type": "Cs"}, "11": {"label": "*2", "atom_type": "H0"}}

>  <type>  (4) 
ts

$$$$
