
     RDKit          3D

 13 12  0  0  0  0  0  0  0  0999 V2000
    2.2975   -0.6134    0.7685 C   0  0  0  0  0  0  0  0  0  0  0  0
    1.1676   -0.5248    0.3802 C   0  0  0  0  0  0  0  0  0  0  0  0
   -0.2109   -0.3926   -0.0948 C   0  0  0  0  0  0  0  0  0  0  0  0
   -0.2501    0.2584   -1.4808 C   0  0  0  0  0  0  0  0  0  0  0  0
   -1.0633    0.3831    0.9141 C   0  0  0  0  0  0  0  0  0  0  0  0
    3.2999   -0.6974    1.1133 H   0  0  0  0  0  0  0  0  0  0  0  0
   -0.6209   -1.4038   -0.1814 H   0  0  0  0  0  0  0  0  0  0  0  0
    0.3402   -0.3102   -2.1992 H   0  0  0  0  0  0  0  0  0  0  0  0
    0.1511    1.2724   -1.4369 H   0  0  0  0  0  0  0  0  0  0  0  0
   -1.2791    0.3109   -1.8407 H   0  0  0  0  0  0  0  0  0  0  0  0
   -0.6861    1.4008    1.0287 H   0  0  0  0  0  0  0  0  0  0  0  0
   -1.0492   -0.0971    1.8924 H   0  0  0  0  0  0  0  0  0  0  0  0
   -2.0971    0.4363    0.5680 H   0  0  0  0  0  0  0  0  0  0  0  0
  1  2  3  0
  1  6  1  0
  2  3  1  0
  3  4  1  0
  3  5  1  0
  3  7  1  0
  4  8  1  0
  4  9  1  0
  4 10  1  0
  5 11  1  0
  5 12  1  0
  5 13  1  0
M  END
>  <reaction>  (1) 
rxn_1332

>  <mol_properties>  (1) 
{"2": {"label": "donator", "atom_type": "Cs"}, "6": {"label": "d_hydrogen", "atom_type": "H0"}}

>  <type>  (1) 
r1h

$$$$

     RDKit          3D

 12 11  0  0  0  0  0  0  0  0999 V2000
   -0.9951    0.1196   -0.8321 C   0  0  0  0  0  0  0  0  0  0  0  0
   -0.3760    0.2571    0.5231 C   0  0  0  0  0  3  0  0  0  0  0  0
    0.9330   -0.1537    0.7810 C   0  0  0  0  0  0  0  0  0  0  0  0
    1.5987   -0.1880    1.9734 C   0  0  0  0  0  0  0  0  0  0  0  0
   -1.4483    0.9449    1.7152 S   0  0  0  0  0  0  0  0  0  0  0  0
   -1.9164   -0.4696   -0.7936 H   0  0  0  0  0  0  0  0  0  0  0  0
   -1.2565    1.0958   -1.2506 H   0  0  0  0  0  0  0  0  0  0  0  0
   -0.3088   -0.3780   -1.5170 H   0  0  0  0  0  0  0  0  0  0  0  0
    1.4783   -0.4898   -0.0971 H   0  0  0  0  0  0  0  0  0  0  0  0
    2.6278   -0.5153    2.0142 H   0  0  0  0  0  0  0  0  0  0  0  0
    1.1316    0.0690    2.9151 H   0  0  0  0  0  0  0  0  0  0  0  0
   -0.5306    1.3052    2.6211 H   0  0  0  0  0  0  0  0  0  0  0  0
  1  2  1  0
  1  6  1  0
  1  7  1  0
  1  8  1  0
  2  3  1  0
  2  5  1  0
  3  4  2  3
  3  9  1  0
  4 10  1  0
  4 11  1  0
  5 12  1  0
M  RAD  1   2   2
M  END
>  <reaction>  (2) 
rxn_1332

>  <mol_properties>  (2) 
{"1": {"label": "acceptor", "atom_type": "Cs"}}

>  <type>  (2) 
r2

$$$$

     RDKit          3D

 13 12  0  0  0  0  0  0  0  0999 V2000
   -1.1828    0.8269   -0.1645 C   0  0  0  0  0  0  0  0  0  0  0  0
   -0.4827   -0.4584   -0.5736 C   0  0  0  0  0  0  0  0  0  0  0  0
   -0.9759   -1.7030    0.1030 C   0  0  0  0  0  0  0  0  0  0  0  0
   -2.0084   -1.7831    0.9287 C   0  0  0  0  0  0  0  0  0  0  0  0
   -0.4908   -0.7025   -2.3913 S   0  0  0  0  0  0  0  0  0  0  0  0
   -1.0941    0.9860    0.9125 H   0  0  0  0  0  0  0  0  0  0  0  0
   -0.7405    1.6784   -0.6793 H   0  0  0  0  0  0  0  0  0  0  0  0
   -2.2437    0.7943   -0.4195 H   0  0  0  0  0  0  0  0  0  0  0  0
    0.5870   -0.3637   -0.3637 H   0  0  0  0  0  0  0  0  0  0  0  0
   -0.4209   -2.6026   -0.1443 H   0  0  0  0  0  0  0  0  0  0  0  0
   -2.2982   -2.7315    1.3623 H   0  0  0  0  0  0  0  0  0  0  0  0
   -2.5999   -0.9190    1.2055 H   0  0  0  0  0  0  0  0  0  0  0  0
   -1.8040   -0.9489   -2.4971 H   0  0  0  0  0  0  0  0  0  0  0  0
  1  2  1  0
  1  6  1  0
  1  7  1  0
  1  8  1  0
  2  3  1  0
  2  5  1  0
  2  9  1  0
  3  4  2  3
  3 10  1  0
  4 11  1  0
  4 12  1  0
  5 13  1  0
M  END
>  <reaction>  (3) 
rxn_1332

>  <mol_properties>  (3) 
{"0": {"label": "a_hydrogen", "atom_type": "H0"}, "2": {"label": "acceptor", "atom_type": "Cs"}}

>  <type>  (3) 
r2h

$$$$

     RDKit          3D

 25 23  0  0  0  0  0  0  0  0999 V2000
   -1.1753    1.1448   -2.7612 C   0  0  0  0  0  0  0  0  0  0  0  0
   -0.6757    1.3504   -1.6858 C   0  0  0  0  0  0  0  0  0  0  0  0
   -0.0867    1.5398   -0.3994 C   0  0  0  0  0  3  0  0  0  0  0  0
   -0.9723    2.2215    0.6216 C   0  0  0  0  0  0  0  0  0  0  0  0
    1.3598    1.9879   -0.4089 C   0  0  0  0  0  0  0  0  0  0  0  0
   -1.6184    0.9782   -3.7132 H   0  0  0  0  0  0  0  0  0  0  0  0
   -0.0308    0.2834    0.0943 H   0  0  0  0  0  0  0  0  0  0  0  0
   -1.9697    1.7817    0.6281 H   0  0  0  0  0  0  0  0  0  0  0  0
   -1.0721    3.2874    0.3971 H   0  0  0  0  0  0  0  0  0  0  0  0
   -0.5394    2.1221    1.6191 H   0  0  0  0  0  0  0  0  0  0  0  0
    1.4377    3.0282   -0.7384 H   0  0  0  0  0  0  0  0  0  0  0  0
    1.9587    1.3759   -1.0833 H   0  0  0  0  0  0  0  0  0  0  0  0
    1.7844    1.9197    0.5943 H   0  0  0  0  0  0  0  0  0  0  0  0
    0.5907   -1.7194   -0.6250 C   0  0  0  0  0  0  0  0  0  0  0  0
    0.0052   -0.9837    0.5543 C   0  0  0  0  0  0  0  0  0  0  0  0
   -1.3895   -1.2455    0.9131 C   0  0  0  0  0  0  0  0  0  0  0  0
   -2.2604   -1.9463    0.1853 C   0  0  0  0  0  0  0  0  0  0  0  0
    1.1055   -0.7878    1.9671 S   0  0  0  0  0  0  0  0  0  0  0  0
    0.6199   -2.7971   -0.4388 H   0  0  0  0  0  0  0  0  0  0  0  0
   -0.0046   -1.5394   -1.5227 H   0  0  0  0  0  0  0  0  0  0  0  0
    1.6082   -1.3821   -0.8182 H   0  0  0  0  0  0  0  0  0  0  0  0
   -1.7240   -0.7901    1.8400 H   0  0  0  0  0  0  0  0  0  0  0  0
   -3.2856   -2.0620    0.5114 H   0  0  0  0  0  0  0  0  0  0  0  0
   -1.9846   -2.4240   -0.7462 H   0  0  0  0  0  0  0  0  0  0  0  0
    0.8039   -1.9363    2.5934 H   0  0  0  0  0  0  0  0  0  0  0  0
  1  2  3  0
  1  6  1  0
  2  3  1  0
  3  4  1  0
  3  5  1  0
  4  8  1  0
  4  9  1  0
  4 10  1  0
  5 11  1  0
  5 12  1  0
  5 13  1  0
  7 15  1  0
 14 15  1  0
 14 19  1  0
 14 20  1  0
 14 21  1  0
 15 16  1  0
 15 18  1  0
 16 17  2  3
 16 22  1  0
 17 23  1  0
 17 24  1  0
 18 25  1  0
M  RAD  1   3   2
M  END
>  <reaction>  (4) 
rxn_1332

>  <mol_properties>  (4) 
{"1": {"label": "*4", "atom_type": "Ct"}, "2": {"label": "*3", "atom_type": "Cs"}, "6": {"label": "*2", "atom_type": "H0"}, "14": {"label": "*1", "atom_type": "Cs"}, "17": {"label": "*0", "atom_type": "S2s"}}

>  <type>  (4) 
ts

$$$$
