
     RDKit          3D

 19 20  0  0  0  0  0  0  0  0999 V2000
    1.1087   -0.4716   -0.9619 C   0  0  0  0  0  0  0  0  0  0  0  0
    0.9355    1.0407   -0.6470 C   0  0  0  0  0  0  0  0  0  0  0  0
   -0.0085    1.0377    0.5657 C   0  0  0  0  0  0  0  0  0  0  0  0
   -1.4093    0.6181    0.0927 C   0  0  0  0  0  0  0  0  0  0  0  0
   -1.2361   -0.8942   -0.2222 C   0  0  0  0  0  0  0  0  0  0  0  0
    0.2422   -1.1516    0.1099 C   0  0  0  0  0  0  0  0  0  0  0  0
    0.4537   -0.2211    1.3118 C   0  0  0  0  0  0  0  0  0  0  0  0
    2.1524   -0.7752   -0.8653 H   0  0  0  0  0  0  0  0  0  0  0  0
    0.7855   -0.7316   -1.9710 H   0  0  0  0  0  0  0  0  0  0  0  0
    1.8918    1.5001   -0.3916 H   0  0  0  0  0  0  0  0  0  0  0  0
    0.5184    1.6005   -1.4855 H   0  0  0  0  0  0  0  0  0  0  0  0
    0.0038    1.9661    1.1351 H   0  0  0  0  0  0  0  0  0  0  0  0
   -1.7351    1.1944   -0.7746 H   0  0  0  0  0  0  0  0  0  0  0  0
   -2.1465    0.7723    0.8824 H   0  0  0  0  0  0  0  0  0  0  0  0
   -1.4680   -1.1377   -1.2601 H   0  0  0  0  0  0  0  0  0  0  0  0
   -1.8859   -1.5030    0.4087 H   0  0  0  0  0  0  0  0  0  0  0  0
    0.4812   -2.2025    0.2673 H   0  0  0  0  0  0  0  0  0  0  0  0
    1.4942   -0.1701    1.6391 H   0  0  0  0  0  0  0  0  0  0  0  0
   -0.1779   -0.4714    2.1666 H   0  0  0  0  0  0  0  0  0  0  0  0
  1  2  1  0
  1  6  1  0
  1  8  1  0
  1  9  1  0
  2  3  1  0
  2 10  1  0
  2 11  1  0
  3  4  1  0
  3  7  1  0
  3 12  1  0
  4  5  1  0
  4 13  1  0
  4 14  1  0
  5  6  1  0
  5 15  1  0
  5 16  1  0
  6  7  1  0
  6 17  1  0
  7 18  1  0
  7 19  1  0
M  END
>  <reaction>  (1) 
rxn_551

>  <mol_properties>  (1) 
{"6": {"label": "donator", "atom_type": "Cs"}, "17": {"label": "d_hydrogen", "atom_type": "H0"}}

>  <type>  (1) 
r1h

$$$$

     RDKit          3D

  8  7  0  0  0  0  0  0  0  0999 V2000
    1.4038   -0.4003    0.0140 C   0  0  0  0  0  0  0  0  0  0  0  0
    0.2804    0.0563    0.4920 C   0  0  0  0  0  3  0  0  0  0  0  0
   -1.0935    0.3323    0.0625 C   0  0  0  0  0  0  0  0  0  0  0  0
    1.4898   -0.7154   -1.0285 H   0  0  0  0  0  0  0  0  0  0  0  0
    2.2990   -0.4891    0.6210 H   0  0  0  0  0  0  0  0  0  0  0  0
   -1.3399    1.3883    0.1900 H   0  0  0  0  0  0  0  0  0  0  0  0
   -1.2285    0.0762   -0.9967 H   0  0  0  0  0  0  0  0  0  0  0  0
   -1.8111   -0.2482    0.6457 H   0  0  0  0  0  0  0  0  0  0  0  0
  1  2  2  3
  1  4  1  0
  1  5  1  0
  2  3  1  0
  3  6  1  0
  3  7  1  0
  3  8  1  0
M  RAD  1   2   2
M  END
>  <reaction>  (2) 
rxn_551

>  <mol_properties>  (2) 
{"1": {"label": "acceptor", "atom_type": "Cd"}}

>  <type>  (2) 
r2

$$$$

     RDKit          3D

  9  8  0  0  0  0  0  0  0  0999 V2000
    1.1303   -0.2933   -0.7510 C   0  0  0  0  0  0  0  0  0  0  0  0
    0.2866    0.4560   -0.0588 C   0  0  0  0  0  0  0  0  0  0  0  0
   -0.9719   -0.0331    0.5823 C   0  0  0  0  0  0  0  0  0  0  0  0
    2.0274    0.1230   -1.1916 H   0  0  0  0  0  0  0  0  0  0  0  0
    0.9532   -1.3530   -0.9023 H   0  0  0  0  0  0  0  0  0  0  0  0
    0.5065    1.5132    0.0659 H   0  0  0  0  0  0  0  0  0  0  0  0
   -0.9526    0.1426    1.6610 H   0  0  0  0  0  0  0  0  0  0  0  0
   -1.1182   -1.1002    0.4106 H   0  0  0  0  0  0  0  0  0  0  0  0
   -1.8412    0.5010    0.1901 H   0  0  0  0  0  0  0  0  0  0  0  0
  1  2  2  3
  1  4  1  0
  1  5  1  0
  2  3  1  0
  2  6  1  0
  3  7  1  0
  3  8  1  0
  3  9  1  0
M  END
>  <reaction>  (3) 
rxn_551

>  <mol_properties>  (3) 
{"1": {"label": "acceptor", "atom_type": "Cd"}, "8": {"label": "a_hydrogen", "atom_type": "H0"}}

>  <type>  (3) 
r2h

$$$$

     RDKit          3D

 27 27  0  0  0  0  0  0  0  0999 V2000
   -2.8225   -0.6264    1.2250 C   0  0  0  0  0  0  0  0  0  0  0  0
   -2.3840   -0.0777    0.1129 C   0  0  0  0  0  3  0  0  0  0  0  0
   -3.0300    0.0600   -1.2143 C   0  0  0  0  0  0  0  0  0  0  0  0
   -3.8103   -1.0799    1.2901 H   0  0  0  0  0  0  0  0  0  0  0  0
   -2.2157   -0.6466    2.1241 H   0  0  0  0  0  0  0  0  0  0  0  0
   -2.4288   -0.4231   -1.9889 H   0  0  0  0  0  0  0  0  0  0  0  0
   -4.0281   -0.3879   -1.2236 H   0  0  0  0  0  0  0  0  0  0  0  0
   -3.1224    1.1126   -1.4928 H   0  0  0  0  0  0  0  0  0  0  0  0
    0.7906   -1.0717   -0.9010 C   0  0  0  0  0  0  0  0  0  0  0  0
    0.8863   -1.2725    0.6368 C   0  0  0  0  0  0  0  0  0  0  0  0
    0.9715    0.1667    1.1727 C   0  0  0  0  0  0  0  0  0  0  0  0
    2.3618    0.7316    0.8176 C   0  0  0  0  0  0  0  0  0  0  0  0
    2.2805    0.9238   -0.7243 C   0  0  0  0  0  0  0  0  0  0  0  0
    0.8497    0.4566   -1.0598 C   0  0  0  0  0  0  0  0  0  0  0  0
    0.0980    0.9205    0.1800 C   0  0  0  0  0  0  0  0  0  0  0  0
   -0.1534   -1.4638   -1.2830 H   0  0  0  0  0  0  0  0  0  0  0  0
    1.5967   -1.5673   -1.4438 H   0  0  0  0  0  0  0  0  0  0  0  0
   -0.0029   -1.7756    1.0170 H   0  0  0  0  0  0  0  0  0  0  0  0
    1.7548   -1.8637    0.9306 H   0  0  0  0  0  0  0  0  0  0  0  0
    0.7111    0.2670    2.2251 H   0  0  0  0  0  0  0  0  0  0  0  0
    3.1627    0.0530    1.1167 H   0  0  0  0  0  0  0  0  0  0  0  0
    2.5325    1.6836    1.3225 H   0  0  0  0  0  0  0  0  0  0  0  0
    3.0321    0.3429   -1.2619 H   0  0  0  0  0  0  0  0  0  0  0  0
    2.4190    1.9710   -0.9967 H   0  0  0  0  0  0  0  0  0  0  0  0
    0.4807    0.8197   -2.0179 H   0  0  0  0  0  0  0  0  0  0  0  0
   -1.1355    0.4497    0.1663 H   0  0  0  0  0  0  0  0  0  0  0  0
   -0.0015    1.9965    0.3262 H   0  0  0  0  0  0  0  0  0  0  0  0
  1  2  2  3
  1  4  1  0
  1  5  1  0
  2  3  1  0
  3  6  1  0
  3  7  1  0
  3  8  1  0
  9 10  1  0
  9 14  1  0
  9 16  1  0
  9 17  1  0
 10 11  1  0
 10 18  1  0
 10 19  1  0
 11 12  1  0
 11 15  1  0
 11 20  1  0
 12 13  1  0
 12 21  1  0
 12 22  1  0
 13 14  1  0
 13 23  1  0
 13 24  1  0
 14 15  1  0
 14 25  1  0
 15 26  1  0
 15 27  1  0
M  RAD  1   2   2
M  END
>  <reaction>  (4) 
rxn_551

>  <mol_properties>  (4) 
{"0": {"label": "*4", "atom_type": "Cd"}, "1": {"label": "*3", "atom_type": "Cd"}, "10": {"label": "*0", "atom_type": "Cs"}, "14": {"label": "*1", "atom_type": "Cs"}, "25": {"label": "*2", "atom_type": "H0"}}

>  <type>  (4) 
ts

$$$$
