
     RDKit          3D

  5  4  0  0  0  0  0  0  0  0999 V2000
    0.0000    0.0000    0.0000 C   0  0  0  0  0  0  0  0  0  0  0  0
   -0.6486   -0.7720   -0.4113 H   0  0  0  0  0  0  0  0  0  0  0  0
   -0.3482    0.9787   -0.3267 H   0  0  0  0  0  0  0  0  0  0  0  0
   -0.0223   -0.0487    1.0876 H   0  0  0  0  0  0  0  0  0  0  0  0
    1.0191   -0.1580   -0.3496 H   0  0  0  0  0  0  0  0  0  0  0  0
  1  2  1  0
  1  3  1  0
  1  4  1  0
  1  5  1  0
M  END
>  <reaction>  (1) 
rxn_830

>  <mol_properties>  (1) 
{"0": {"label": "donator", "atom_type": "Cs"}, "1": {"label": "d_hydrogen", "atom_type": "H0"}}

>  <type>  (1) 
r1h

$$$$

     RDKit          3D

 11 10  0  0  0  0  0  0  0  0999 V2000
    2.0591    0.2533   -0.1061 C   0  0  0  0  0  0  0  0  0  0  0  0
    0.8045   -0.3111   -0.1535 C   0  0  0  0  0  0  0  0  0  0  0  0
   -0.3816    0.3942   -0.1885 C   0  0  0  0  0  3  0  0  0  0  0  0
   -1.7316   -0.2294   -0.2396 C   0  0  0  0  0  0  0  0  0  0  0  0
    2.9505   -0.3576   -0.0805 H   0  0  0  0  0  0  0  0  0  0  0  0
    2.1872    1.3290   -0.0933 H   0  0  0  0  0  0  0  0  0  0  0  0
    0.7385   -1.3970   -0.1643 H   0  0  0  0  0  0  0  0  0  0  0  0
   -0.3340    1.4795   -0.1783 H   0  0  0  0  0  0  0  0  0  0  0  0
   -1.6704   -1.3186   -0.2461 H   0  0  0  0  0  0  0  0  0  0  0  0
   -2.3404    0.0713    0.6191 H   0  0  0  0  0  0  0  0  0  0  0  0
   -2.2805    0.0851   -1.1331 H   0  0  0  0  0  0  0  0  0  0  0  0
  1  2  2  3
  1  5  1  0
  1  6  1  0
  2  3  1  0
  2  7  1  0
  3  4  1  0
  3  8  1  0
  4  9  1  0
  4 10  1  0
  4 11  1  0
M  RAD  1   3   2
M  END
>  <reaction>  (2) 
rxn_830

>  <mol_properties>  (2) 
{"2": {"label": "acceptor", "atom_type": "Cs"}}

>  <type>  (2) 
r2

$$$$

     RDKit          3D

 12 11  0  0  0  0  0  0  0  0999 V2000
    1.9877    0.1011    0.4814 C   0  0  0  0  0  0  0  0  0  0  0  0
    0.8179    0.5502    0.0525 C   0  0  0  0  0  0  0  0  0  0  0  0
   -0.2939   -0.2692   -0.5320 C   0  0  0  0  0  0  0  0  0  0  0  0
   -0.0292   -1.7631   -0.6328 C   0  0  0  0  0  0  0  0  0  0  0  0
    2.2522   -0.9490    0.4436 H   0  0  0  0  0  0  0  0  0  0  0  0
    2.7295    0.7757    0.8896 H   0  0  0  0  0  0  0  0  0  0  0  0
    0.6162    1.6164    0.1190 H   0  0  0  0  0  0  0  0  0  0  0  0
   -0.5268    0.1319   -1.5245 H   0  0  0  0  0  0  0  0  0  0  0  0
   -1.1959   -0.0938    0.0644 H   0  0  0  0  0  0  0  0  0  0  0  0
    0.1590   -2.1992    0.3502 H   0  0  0  0  0  0  0  0  0  0  0  0
    0.8382   -1.9701   -1.2626 H   0  0  0  0  0  0  0  0  0  0  0  0
   -0.8879   -2.2759   -1.0672 H   0  0  0  0  0  0  0  0  0  0  0  0
  1  2  2  3
  1  5  1  0
  1  6  1  0
  2  3  1  0
  2  7  1  0
  3  4  1  0
  3  8  1  0
  3  9  1  0
  4 10  1  0
  4 11  1  0
  4 12  1  0
M  END
>  <reaction>  (3) 
rxn_830

>  <mol_properties>  (3) 
{"2": {"label": "acceptor", "atom_type": "Cs"}, "11": {"label": "a_hydrogen", "atom_type": "H0"}}

>  <type>  (3) 
r2h

$$$$

     RDKit          3D

 16 14  0  0  0  0  0  0  0  0999 V2000
   -1.4661    1.0631    0.9432 C   0  0  0  0  0  0  0  0  0  0  0  0
   -0.5382    0.1324    1.1515 C   0  0  0  0  0  0  0  0  0  0  0  0
    0.6979   -0.0554    0.3733 C   0  0  0  0  0  0  0  0  0  0  0  0
    1.0805    1.0155   -0.6207 C   0  0  0  0  0  0  0  0  0  0  0  0
   -2.3602    1.1068    1.5518 H   0  0  0  0  0  0  0  0  0  0  0  0
   -1.3635    1.8164    0.1712 H   0  0  0  0  0  0  0  0  0  0  0  0
   -0.7019   -0.5895    1.9474 H   0  0  0  0  0  0  0  0  0  0  0  0
    1.5322   -0.3594    1.0079 H   0  0  0  0  0  0  0  0  0  0  0  0
    1.2439    1.9771   -0.1269 H   0  0  0  0  0  0  0  0  0  0  0  0
    1.9981    0.7442   -1.1438 H   0  0  0  0  0  0  0  0  0  0  0  0
    0.2996    1.1560   -1.3711 H   0  0  0  0  0  0  0  0  0  0  0  0
    0.3112   -2.2210   -1.2188 C   0  0  0  0  0  3  0  0  0  0  0  0
    0.5186   -1.0943   -0.3107 H   0  0  0  0  0  0  0  0  0  0  0  0
    0.1992   -3.0649   -0.5465 H   0  0  0  0  0  0  0  0  0  0  0  0
   -0.5943   -1.9291   -1.7398 H   0  0  0  0  0  0  0  0  0  0  0  0
    1.2073   -2.2381   -1.8298 H   0  0  0  0  0  0  0  0  0  0  0  0
  1  2  2  3
  1  5  1  0
  1  6  1  0
  2  3  1  0
  2  7  1  0
  3  4  1  0
  3  8  1  0
  3 13  1  0
  4  9  1  0
  4 10  1  0
  4 11  1  0
 12 14  1  0
 12 15  1  0
 12 16  1  0
M  RAD  1  12   2
M  END
>  <reaction>  (4) 
rxn_830

>  <mol_properties>  (4) 
{"1": {"label": "*0", "atom_type": "Cd"}, "2": {"label": "*1", "atom_type": "Cs"}, "11": {"label": "*3", "atom_type": "Cs"}, "12": {"label": "*2", "atom_type": "H0"}, "13": {"label": "*4", "atom_type": "H0"}}

>  <type>  (4) 
ts

$$$$
