
     RDKit          3D

  9  8  0  0  0  0  0  0  0  0999 V2000
    1.1303   -0.2933   -0.7510 C   0  0  0  0  0  0  0  0  0  0  0  0
    0.2866    0.4560   -0.0588 C   0  0  0  0  0  0  0  0  0  0  0  0
   -0.9719   -0.0331    0.5823 C   0  0  0  0  0  0  0  0  0  0  0  0
    2.0274    0.1230   -1.1916 H   0  0  0  0  0  0  0  0  0  0  0  0
    0.9532   -1.3530   -0.9023 H   0  0  0  0  0  0  0  0  0  0  0  0
    0.5065    1.5132    0.0659 H   0  0  0  0  0  0  0  0  0  0  0  0
   -0.9526    0.1426    1.6610 H   0  0  0  0  0  0  0  0  0  0  0  0
   -1.1182   -1.1002    0.4106 H   0  0  0  0  0  0  0  0  0  0  0  0
   -1.8412    0.5010    0.1901 H   0  0  0  0  0  0  0  0  0  0  0  0
  1  2  2  3
  1  4  1  0
  1  5  1  0
  2  3  1  0
  2  6  1  0
  3  7  1  0
  3  8  1  0
  3  9  1  0
M  END
>  <reaction>  (1) 
rxn_1029

>  <mol_properties>  (1) 
{"2": {"label": "donator", "atom_type": "Cs"}, "6": {"label": "d_hydrogen", "atom_type": "H0"}}

>  <type>  (1) 
r1h

$$$$

     RDKit          3D

 10  9  0  0  0  0  0  0  0  0999 V2000
   -1.3354   -0.2069    0.0525 C   0  0  0  0  0  0  0  0  0  0  0  0
    0.0851    0.2624    0.0266 C   0  0  0  0  0  0  0  0  0  0  0  0
    0.4841    1.3876    0.7359 C   0  0  0  0  0  0  0  0  0  0  0  0
    2.0191    2.0303    0.8057 S   0  0  0  0  0  1  0  0  0  0  0  0
    1.1566   -0.6823   -0.9297 S   0  0  0  0  0  0  0  0  0  0  0  0
   -1.7589   -0.2174   -0.9545 H   0  0  0  0  0  0  0  0  0  0  0  0
   -1.4004   -1.2253    0.4427 H   0  0  0  0  0  0  0  0  0  0  0  0
   -1.9442    0.4442    0.6783 H   0  0  0  0  0  0  0  0  0  0  0  0
   -0.3073    1.8814    1.2951 H   0  0  0  0  0  0  0  0  0  0  0  0
    2.2383    0.0827   -0.6554 H   0  0  0  0  0  0  0  0  0  0  0  0
  1  2  1  0
  1  6  1  0
  1  7  1  0
  1  8  1  0
  2  3  2  3
  2  5  1  0
  3  4  1  0
  3  9  1  0
  5 10  1  0
M  RAD  1   4   2
M  END
>  <reaction>  (2) 
rxn_1029

>  <mol_properties>  (2) 
{"1": {"label": "acceptor", "atom_type": "Cs"}}

>  <type>  (2) 
r2

$$$$

     RDKit          3D

 11 10  0  0  0  0  0  0  0  0999 V2000
   -1.0997   -0.5860   -0.1182 C   0  0  0  0  0  0  0  0  0  0  0  0
    0.0827    0.2961    0.2270 C   0  0  0  0  0  0  0  0  0  0  0  0
    0.1622    1.6171   -0.4774 C   0  0  0  0  0  0  0  0  0  0  0  0
   -0.9879    2.3087   -1.3633 S   0  0  0  0  0  0  0  0  0  0  0  0
    0.2176    0.6619    2.0187 S   0  0  0  0  0  0  0  0  0  0  0  0
   -1.1052   -0.8107   -1.1861 H   0  0  0  0  0  0  0  0  0  0  0  0
   -2.0402   -0.0893    0.1198 H   0  0  0  0  0  0  0  0  0  0  0  0
   -1.0438   -1.5182    0.4423 H   0  0  0  0  0  0  0  0  0  0  0  0
    1.0207   -0.2324    0.0280 H   0  0  0  0  0  0  0  0  0  0  0  0
    1.1091    2.1333   -0.3182 H   0  0  0  0  0  0  0  0  0  0  0  0
   -0.9205    1.3661    2.0994 H   0  0  0  0  0  0  0  0  0  0  0  0
  1  2  1  0
  1  6  1  0
  1  7  1  0
  1  8  1  0
  2  3  1  0
  2  5  1  0
  2  9  1  0
  3  4  2  0
  3 10  1  0
  5 11  1  0
M  END
>  <reaction>  (3) 
rxn_1029

>  <mol_properties>  (3) 
{"1": {"label": "acceptor", "atom_type": "Cs"}, "10": {"label": "a_hydrogen", "atom_type": "H0"}}

>  <type>  (3) 
r2h

$$$$

     RDKit          3D

 19 17  0  0  0  0  0  0  0  0999 V2000
   -0.8047    1.5486   -0.1319 C   0  0  0  0  0  0  0  0  0  0  0  0
   -0.2938    0.2680    0.4806 C   0  0  0  0  0  0  0  0  0  0  0  0
    0.2736    0.2980    1.8205 C   0  0  0  0  0  0  0  0  0  0  0  0
    0.7994    1.6131    2.6135 S   0  0  0  0  0  0  0  0  0  0  0  0
   -1.3298   -1.1796    0.2333 S   0  0  0  0  0  0  0  0  0  0  0  0
   -1.7349    1.8562    0.3487 H   0  0  0  0  0  0  0  0  0  0  0  0
   -0.0737    2.3466   -0.0021 H   0  0  0  0  0  0  0  0  0  0  0  0
   -0.9959    1.4063   -1.1965 H   0  0  0  0  0  0  0  0  0  0  0  0
    0.3983   -0.6838    2.2792 H   0  0  0  0  0  0  0  0  0  0  0  0
   -1.3536   -1.1007   -1.1056 H   0  0  0  0  0  0  0  0  0  0  0  0
    0.6259   -0.1694   -3.3640 C   0  0  0  0  0  0  0  0  0  0  0  0
    1.1954   -0.7954   -2.3168 C   0  0  0  0  0  0  0  0  0  0  0  0
    1.7870   -0.1258   -1.1966 C   0  0  0  0  0  3  0  0  0  0  0  0
    0.1696   -0.7235   -4.1733 H   0  0  0  0  0  0  0  0  0  0  0  0
    0.6236    0.9124   -3.4385 H   0  0  0  0  0  0  0  0  0  0  0  0
    1.1761   -1.8805   -2.2868 H   0  0  0  0  0  0  0  0  0  0  0  0
    0.7412    0.0019   -0.2309 H   0  0  0  0  0  0  0  0  0  0  0  0
    2.0268    0.9280   -1.3076 H   0  0  0  0  0  0  0  0  0  0  0  0
    2.4759   -0.6865   -0.5731 H   0  0  0  0  0  0  0  0  0  0  0  0
  1  2  1  0
  1  6  1  0
  1  7  1  0
  1  8  1  0
  2  3  1  0
  2  5  1  0
  2 17  1  0
  3  4  2  0
  3  9  1  0
  5 10  1  0
 11 12  2  3
 11 14  1  0
 11 15  1  0
 12 13  1  0
 12 16  1  0
 13 18  1  0
 13 19  1  0
M  RAD  1  13   2
M  END
>  <reaction>  (4) 
rxn_1029

>  <mol_properties>  (4) 
{"1": {"label": "*1", "atom_type": "Cs"}, "2": {"label": "*0", "atom_type": "CS"}, "11": {"label": "*4", "atom_type": "Cd"}, "12": {"label": "*3", "atom_type": "Cs"}, "16": {"label": "*2", "atom_type": "H0"}}

>  <type>  (4) 
ts

$$$$
