
     RDKit          3D

  9  8  0  0  0  0  0  0  0  0999 V2000
    1.1303   -0.2933   -0.7510 C   0  0  0  0  0  0  0  0  0  0  0  0
    0.2866    0.4560   -0.0588 C   0  0  0  0  0  0  0  0  0  0  0  0
   -0.9719   -0.0331    0.5823 C   0  0  0  0  0  0  0  0  0  0  0  0
    2.0274    0.1230   -1.1916 H   0  0  0  0  0  0  0  0  0  0  0  0
    0.9532   -1.3530   -0.9023 H   0  0  0  0  0  0  0  0  0  0  0  0
    0.5065    1.5132    0.0659 H   0  0  0  0  0  0  0  0  0  0  0  0
   -0.9526    0.1426    1.6610 H   0  0  0  0  0  0  0  0  0  0  0  0
   -1.1182   -1.1002    0.4106 H   0  0  0  0  0  0  0  0  0  0  0  0
   -1.8412    0.5010    0.1901 H   0  0  0  0  0  0  0  0  0  0  0  0
  1  2  2  3
  1  4  1  0
  1  5  1  0
  2  3  1  0
  2  6  1  0
  3  7  1  0
  3  8  1  0
  3  9  1  0
M  END
>  <reaction>  (1) 
rxn_415

>  <mol_properties>  (1) 
{"2": {"label": "donator", "atom_type": "Cs"}, "6": {"label": "d_hydrogen", "atom_type": "H0"}}

>  <type>  (1) 
r1h

$$$$

     RDKit          3D

 14 13  0  0  0  0  0  0  0  0999 V2000
    0.1523    1.4701    0.0231 C   0  0  0  0  0  0  0  0  0  0  0  0
    0.0724   -0.0001   -0.3729 C   0  0  0  0  0  0  0  0  0  0  0  0
    1.2474   -0.8003    0.1743 C   0  0  0  0  0  0  0  0  0  0  0  0
   -0.0121   -0.1270   -1.8938 C   0  0  0  0  0  0  0  0  0  0  0  0
   -0.1587   -1.3813   -2.3858 O   0  0  0  0  0  1  0  0  0  0  0  0
    1.0591    1.9320   -0.3785 H   0  0  0  0  0  0  0  0  0  0  0  0
    0.1790    1.5804    1.1081 H   0  0  0  0  0  0  0  0  0  0  0  0
   -0.7050    2.0354   -0.3496 H   0  0  0  0  0  0  0  0  0  0  0  0
   -0.8541   -0.4208    0.0314 H   0  0  0  0  0  0  0  0  0  0  0  0
    1.2629   -0.7766    1.2653 H   0  0  0  0  0  0  0  0  0  0  0  0
    1.1914   -1.8416   -0.1445 H   0  0  0  0  0  0  0  0  0  0  0  0
    2.1953   -0.3860   -0.1823 H   0  0  0  0  0  0  0  0  0  0  0  0
    0.9157    0.2677   -2.3596 H   0  0  0  0  0  0  0  0  0  0  0  0
   -0.8026    0.5214   -2.3140 H   0  0  0  0  0  0  0  0  0  0  0  0
  1  2  1  0
  1  6  1  0
  1  7  1  0
  1  8  1  0
  2  3  1  0
  2  4  1  0
  2  9  1  0
  3 10  1  0
  3 11  1  0
  3 12  1  0
  4  5  1  0
  4 13  1  0
  4 14  1  0
M  RAD  1   5   2
M  END
>  <reaction>  (2) 
rxn_415

>  <mol_properties>  (2) 
{"4": {"label": "acceptor", "atom_type": "O2s"}}

>  <type>  (2) 
r2

$$$$

     RDKit          3D

 15 14  0  0  0  0  0  0  0  0999 V2000
   -0.6986    1.3249   -0.1641 C   0  0  0  0  0  0  0  0  0  0  0  0
   -0.2590   -0.0344    0.3671 C   0  0  0  0  0  0  0  0  0  0  0  0
   -0.4734   -0.1429    1.8733 C   0  0  0  0  0  0  0  0  0  0  0  0
   -0.9841   -1.1722   -0.3462 C   0  0  0  0  0  0  0  0  0  0  0  0
   -0.7805   -1.1911   -1.7444 O   0  0  0  0  0  0  0  0  0  0  0  0
   -0.1246    2.1306    0.2976 H   0  0  0  0  0  0  0  0  0  0  0  0
   -1.7557    1.4964    0.0581 H   0  0  0  0  0  0  0  0  0  0  0  0
   -0.5709    1.3852   -1.2449 H   0  0  0  0  0  0  0  0  0  0  0  0
    0.8141   -0.1541    0.1667 H   0  0  0  0  0  0  0  0  0  0  0  0
   -1.5346   -0.0466    2.1192 H   0  0  0  0  0  0  0  0  0  0  0  0
    0.0611    0.6480    2.4019 H   0  0  0  0  0  0  0  0  0  0  0  0
   -0.1249   -1.1023    2.2618 H   0  0  0  0  0  0  0  0  0  0  0  0
   -0.6918   -2.1316    0.1011 H   0  0  0  0  0  0  0  0  0  0  0  0
   -2.0629   -1.0627   -0.2056 H   0  0  0  0  0  0  0  0  0  0  0  0
    0.1528   -1.3298   -1.9125 H   0  0  0  0  0  0  0  0  0  0  0  0
  1  2  1  0
  1  6  1  0
  1  7  1  0
  1  8  1  0
  2  3  1  0
  2  4  1  0
  2  9  1  0
  3 10  1  0
  3 11  1  0
  3 12  1  0
  4  5  1  0
  4 13  1  0
  4 14  1  0
  5 15  1  0
M  END
>  <reaction>  (3) 
rxn_415

>  <mol_properties>  (3) 
{"0": {"label": "a_hydrogen", "atom_type": "H0"}, "5": {"label": "acceptor", "atom_type": "O2s"}}

>  <type>  (3) 
r2h

$$$$

     RDKit          3D

 23 21  0  0  0  0  0  0  0  0999 V2000
    0.7963    0.3534   -2.8330 C   0  0  0  0  0  0  0  0  0  0  0  0
    1.5029    0.3881   -1.7014 C   0  0  0  0  0  0  0  0  0  0  0  0
    1.6375    1.5638   -0.8445 C   0  0  0  0  0  0  0  0  0  0  0  0
    0.7075   -0.5537   -3.4167 H   0  0  0  0  0  0  0  0  0  0  0  0
    0.2958    1.2379   -3.2113 H   0  0  0  0  0  0  0  0  0  0  0  0
    1.9809   -0.5254   -1.3596 H   0  0  0  0  0  0  0  0  0  0  0  0
    0.7834    1.5023    0.0386 H   0  0  0  0  0  0  0  0  0  0  0  0
    1.4075    2.5083   -1.3345 H   0  0  0  0  0  0  0  0  0  0  0  0
    2.5618    1.6104   -0.2717 H   0  0  0  0  0  0  0  0  0  0  0  0
   -0.4760   -1.0381    2.4981 C   0  0  0  0  0  0  0  0  0  0  0  0
   -0.4662   -1.0104    0.9749 C   0  0  0  0  0  0  0  0  0  0  0  0
   -1.2690   -2.1613    0.3802 C   0  0  0  0  0  0  0  0  0  0  0  0
   -0.9886    0.3240    0.4461 C   0  0  0  0  0  0  0  0  0  0  0  0
   -0.2600    1.4301    0.8470 O   0  0  0  0  0  1  0  0  0  0  0  0
   -0.0259   -1.9571    2.8788 H   0  0  0  0  0  0  0  0  0  0  0  0
   -1.5016   -0.9866    2.8758 H   0  0  0  0  0  0  0  0  0  0  0  0
    0.0757   -0.1899    2.9047 H   0  0  0  0  0  0  0  0  0  0  0  0
    0.5721   -1.1011    0.6359 H   0  0  0  0  0  0  0  0  0  0  0  0
   -2.3219   -2.0893    0.6683 H   0  0  0  0  0  0  0  0  0  0  0  0
   -1.2195   -2.1594   -0.7112 H   0  0  0  0  0  0  0  0  0  0  0  0
   -0.8961   -3.1244    0.7331 H   0  0  0  0  0  0  0  0  0  0  0  0
   -2.0187    0.4915    0.8007 H   0  0  0  0  0  0  0  0  0  0  0  0
   -1.0607    0.2883   -0.6536 H   0  0  0  0  0  0  0  0  0  0  0  0
  1  2  2  3
  1  4  1  0
  1  5  1  0
  2  3  1  0
  2  6  1  0
  3  7  1  0
  3  8  1  0
  3  9  1  0
 10 11  1  0
 10 15  1  0
 10 16  1  0
 10 17  1  0
 11 12  1  0
 11 13  1  0
 11 18  1  0
 12 19  1  0
 12 20  1  0
 12 21  1  0
 13 14  1  0
 13 22  1  0
 13 23  1  0
M  RAD  1  14   2
M  END
>  <reaction>  (4) 
rxn_415

>  <mol_properties>  (4) 
{"1": {"label": "*0", "atom_type": "Cd"}, "2": {"label": "*1", "atom_type": "Cs"}, "6": {"label": "*2", "atom_type": "H0"}, "12": {"label": "*4", "atom_type": "Cs"}, "13": {"label": "*3", "atom_type": "O2s"}}

>  <type>  (4) 
ts

$$$$
