
     RDKit          3D

 15 15  0  0  0  0  0  0  0  0999 V2000
    2.2031   -0.2111   -0.1693 C   0  0  0  0  0  0  0  0  0  0  0  0
    0.7140   -0.0314   -0.0623 C   0  0  0  0  0  0  0  0  0  0  0  0
   -0.0114    0.5491   -1.0982 C   0  0  0  0  0  0  0  0  0  0  0  0
   -1.3882    0.6886   -1.0150 C   0  0  0  0  0  0  0  0  0  0  0  0
   -2.0661    0.2493    0.1118 C   0  0  0  0  0  0  0  0  0  0  0  0
   -1.3551   -0.3278    1.1528 C   0  0  0  0  0  0  0  0  0  0  0  0
    0.0216   -0.4648    1.0642 C   0  0  0  0  0  0  0  0  0  0  0  0
    2.6776   -0.1836    0.8122 H   0  0  0  0  0  0  0  0  0  0  0  0
    2.4446   -1.1749   -0.6249 H   0  0  0  0  0  0  0  0  0  0  0  0
    2.6532    0.5664   -0.7875 H   0  0  0  0  0  0  0  0  0  0  0  0
    0.5104    0.8989   -1.9819 H   0  0  0  0  0  0  0  0  0  0  0  0
   -1.9328    1.1452   -1.8322 H   0  0  0  0  0  0  0  0  0  0  0  0
   -3.1409    0.3597    0.1800 H   0  0  0  0  0  0  0  0  0  0  0  0
   -1.8736   -0.6702    2.0398 H   0  0  0  0  0  0  0  0  0  0  0  0
    0.5695   -0.9141    1.8849 H   0  0  0  0  0  0  0  0  0  0  0  0
  1  2  1  0
  1  8  1  0
  1  9  1  0
  1 10  1  0
  2  3  2  0
  2  7  1  0
  3  4  1  0
  3 11  1  0
  4  5  2  0
  4 12  1  0
  5  6  1  0
  5 13  1  0
  6  7  2  0
  6 14  1  0
  7 15  1  0
M  END
>  <reaction>  (1) 
rxn_1444

>  <mol_properties>  (1) 
{"0": {"label": "donator", "atom_type": "Cs"}, "7": {"label": "d_hydrogen", "atom_type": "H0"}}

>  <type>  (1) 
r1h

$$$$

     RDKit          3D

  9  8  0  0  0  0  0  0  0  0999 V2000
    2.3038   -0.0269    0.1590 C   0  0  0  0  0  0  0  0  0  0  0  0
    1.1426    0.1377   -0.1648 C   0  0  0  0  0  0  0  0  0  0  0  0
   -0.1694    0.3175   -0.5203 C   0  0  0  0  0  3  0  0  0  0  0  0
   -1.3163   -0.1910    0.2856 C   0  0  0  0  0  0  0  0  0  0  0  0
    3.3199   -0.1683    0.4378 H   0  0  0  0  0  0  0  0  0  0  0  0
   -0.3786    0.8584   -1.4360 H   0  0  0  0  0  0  0  0  0  0  0  0
   -1.9694    0.6309    0.5951 H   0  0  0  0  0  0  0  0  0  0  0  0
   -1.9325   -0.8770   -0.3039 H   0  0  0  0  0  0  0  0  0  0  0  0
   -0.9753   -0.7144    1.1774 H   0  0  0  0  0  0  0  0  0  0  0  0
  1  2  3  0
  1  5  1  0
  2  3  1  0
  3  4  1  0
  3  6  1  0
  4  7  1  0
  4  8  1  0
  4  9  1  0
M  RAD  1   3   2
M  END
>  <reaction>  (2) 
rxn_1444

>  <mol_properties>  (2) 
{"2": {"label": "acceptor", "atom_type": "Cs"}}

>  <type>  (2) 
r2

$$$$

     RDKit          3D

 10  9  0  0  0  0  0  0  0  0999 V2000
    2.2738    0.0217   -0.0992 C   0  0  0  0  0  0  0  0  0  0  0  0
    1.1083    0.2960   -0.0695 C   0  0  0  0  0  0  0  0  0  0  0  0
   -0.3173    0.6046   -0.0227 C   0  0  0  0  0  0  0  0  0  0  0  0
   -1.1561   -0.5495    0.5292 C   0  0  0  0  0  0  0  0  0  0  0  0
    3.3097   -0.2166   -0.1277 H   0  0  0  0  0  0  0  0  0  0  0  0
   -0.6542    0.8617   -1.0302 H   0  0  0  0  0  0  0  0  0  0  0  0
   -0.4633    1.4978    0.5900 H   0  0  0  0  0  0  0  0  0  0  0  0
   -0.8485   -0.7997    1.5447 H   0  0  0  0  0  0  0  0  0  0  0  0
   -2.2115   -0.2752    0.5459 H   0  0  0  0  0  0  0  0  0  0  0  0
   -1.0409   -1.4407   -0.0879 H   0  0  0  0  0  0  0  0  0  0  0  0
  1  2  3  0
  1  5  1  0
  2  3  1  0
  3  4  1  0
  3  6  1  0
  3  7  1  0
  4  8  1  0
  4  9  1  0
  4 10  1  0
M  END
>  <reaction>  (3) 
rxn_1444

>  <mol_properties>  (3) 
{"2": {"label": "acceptor", "atom_type": "Cs"}, "9": {"label": "a_hydrogen", "atom_type": "H0"}}

>  <type>  (3) 
r2h

$$$$

     RDKit          3D

 24 23  0  0  0  0  0  0  0  0999 V2000
   -3.3073   -0.3125    1.6158 C   0  0  0  0  0  0  0  0  0  0  0  0
   -2.1932   -0.6137    1.9557 C   0  0  0  0  0  0  0  0  0  0  0  0
   -0.8454   -0.9105    2.3110 C   0  0  0  0  0  0  0  0  0  0  0  0
   -0.1499   -1.9941    1.5182 C   0  0  0  0  0  0  0  0  0  0  0  0
   -4.3014   -0.0678    1.3290 H   0  0  0  0  0  0  0  0  0  0  0  0
   -0.6898   -0.9679    3.3875 H   0  0  0  0  0  0  0  0  0  0  0  0
    0.9058   -2.0440    1.7879 H   0  0  0  0  0  0  0  0  0  0  0  0
   -0.5991   -2.9718    1.7098 H   0  0  0  0  0  0  0  0  0  0  0  0
   -0.2193   -1.7926    0.4484 H   0  0  0  0  0  0  0  0  0  0  0  0
    0.4880    1.2781    1.4957 C   0  0  0  0  0  0  0  0  0  0  0  0
    0.7590    0.9489    0.1005 C   0  0  0  0  0  0  0  0  0  0  0  0
   -0.2511    1.0510   -0.8628 C   0  0  0  0  0  3  0  0  0  0  0  0
   -0.0264    0.6620   -2.1712 C   0  0  0  0  0  0  0  0  0  0  0  0
    1.2118    0.1612   -2.5502 C   0  0  0  0  0  0  0  0  0  0  0  0
    2.2245    0.0541   -1.6065 C   0  0  0  0  0  0  0  0  0  0  0  0
    1.9998    0.4399   -0.2970 C   0  0  0  0  0  0  0  0  0  0  0  0
   -0.1620    0.2006    1.9918 H   0  0  0  0  0  0  0  0  0  0  0  0
    1.3557    1.3818    2.1417 H   0  0  0  0  0  0  0  0  0  0  0  0
   -0.2739    2.0337    1.6696 H   0  0  0  0  0  0  0  0  0  0  0  0
   -1.2233    1.4286   -0.5684 H   0  0  0  0  0  0  0  0  0  0  0  0
   -0.8219    0.7480   -2.9009 H   0  0  0  0  0  0  0  0  0  0  0  0
    1.3870   -0.1421   -3.5744 H   0  0  0  0  0  0  0  0  0  0  0  0
    3.1941   -0.3328   -1.8942 H   0  0  0  0  0  0  0  0  0  0  0  0
    2.7938    0.3493    0.4356 H   0  0  0  0  0  0  0  0  0  0  0  0
  1  2  3  0
  1  5  1  0
  2  3  1  0
  3  4  1  0
  3  6  1  0
  3 17  1  0
  4  7  1  0
  4  8  1  0
  4  9  1  0
 10 11  2  3
 10 18  1  0
 10 19  1  0
 11 12  1  0
 11 16  1  0
 12 13  1  0
 12 20  1  0
 13 14  2  0
 13 21  1  0
 14 15  1  0
 14 22  1  0
 15 16  2  0
 15 23  1  0
 16 24  1  0
M  RAD  1  12   2
M  END
>  <reaction>  (4) 
rxn_1444

>  <mol_properties>  (4) 
{"1": {"label": "*0", "atom_type": "Ct"}, "2": {"label": "*1", "atom_type": "Cs"}, "9": {"label": "*3", "atom_type": "Cd"}, "10": {"label": "*4", "atom_type": "Cd"}, "16": {"label": "*2", "atom_type": "H0"}}

>  <type>  (4) 
ts

$$$$
