
     RDKit          3D

 19 20  0  0  0  0  0  0  0  0999 V2000
    1.1087   -0.4716   -0.9619 C   0  0  0  0  0  0  0  0  0  0  0  0
    0.9355    1.0407   -0.6470 C   0  0  0  0  0  0  0  0  0  0  0  0
   -0.0085    1.0377    0.5657 C   0  0  0  0  0  0  0  0  0  0  0  0
   -1.4093    0.6181    0.0927 C   0  0  0  0  0  0  0  0  0  0  0  0
   -1.2361   -0.8942   -0.2222 C   0  0  0  0  0  0  0  0  0  0  0  0
    0.2422   -1.1516    0.1099 C   0  0  0  0  0  0  0  0  0  0  0  0
    0.4537   -0.2211    1.3118 C   0  0  0  0  0  0  0  0  0  0  0  0
    2.1524   -0.7752   -0.8653 H   0  0  0  0  0  0  0  0  0  0  0  0
    0.7855   -0.7316   -1.9710 H   0  0  0  0  0  0  0  0  0  0  0  0
    1.8918    1.5001   -0.3916 H   0  0  0  0  0  0  0  0  0  0  0  0
    0.5184    1.6005   -1.4855 H   0  0  0  0  0  0  0  0  0  0  0  0
    0.0038    1.9661    1.1351 H   0  0  0  0  0  0  0  0  0  0  0  0
   -1.7351    1.1944   -0.7746 H   0  0  0  0  0  0  0  0  0  0  0  0
   -2.1465    0.7723    0.8824 H   0  0  0  0  0  0  0  0  0  0  0  0
   -1.4680   -1.1377   -1.2601 H   0  0  0  0  0  0  0  0  0  0  0  0
   -1.8859   -1.5030    0.4087 H   0  0  0  0  0  0  0  0  0  0  0  0
    0.4812   -2.2025    0.2673 H   0  0  0  0  0  0  0  0  0  0  0  0
    1.4942   -0.1701    1.6391 H   0  0  0  0  0  0  0  0  0  0  0  0
   -0.1779   -0.4714    2.1666 H   0  0  0  0  0  0  0  0  0  0  0  0
  1  2  1  0
  1  6  1  0
  1  8  1  0
  1  9  1  0
  2  3  1  0
  2 10  1  0
  2 11  1  0
  3  4  1  0
  3  7  1  0
  3 12  1  0
  4  5  1  0
  4 13  1  0
  4 14  1  0
  5  6  1  0
  5 15  1  0
  5 16  1  0
  6  7  1  0
  6 17  1  0
  7 18  1  0
  7 19  1  0
M  END
>  <reaction>  (1) 
rxn_733

>  <mol_properties>  (1) 
{"6": {"label": "donator", "atom_type": "Cs"}, "17": {"label": "d_hydrogen", "atom_type": "H0"}}

>  <type>  (1) 
r1h

$$$$

     RDKit          3D

  1  0  0  0  0  0  0  0  0  0999 V2000
    0.0000    0.0000    0.0000 H   0  0  0  0  0 15  0  0  0  0  0  0
M  END
>  <reaction>  (2) 
rxn_733

>  <mol_properties>  (2) 
{"0": {"label": "acceptor", "atom_type": "H0"}}

>  <type>  (2) 
r2

$$$$

     RDKit          3D

  2  1  0  0  0  0  0  0  0  0999 V2000
    0.0000    0.0000    0.3721 H   0  0  0  0  0  0  0  0  0  0  0  0
    0.0000    0.0000   -0.3721 H   0  0  0  0  0  0  0  0  0  0  0  0
  1  2  1  0
M  END
>  <reaction>  (3) 
rxn_733

>  <mol_properties>  (3) 
{"0": {"label": "acceptor", "atom_type": "H0"}, "1": {"label": "a_hydrogen", "atom_type": "H0"}}

>  <type>  (3) 
r2h

$$$$

     RDKit          3D

 20 20  0  0  0  0  0  0  0  0999 V2000
   -3.1313   -0.1752   -0.0000 H   0  0  0  0  0 15  0  0  0  0  0  0
   -0.2609   -1.2937   -0.7771 C   0  0  0  0  0  0  0  0  0  0  0  0
   -0.2609   -1.2937    0.7771 C   0  0  0  0  0  0  0  0  0  0  0  0
   -0.2361    0.2031    1.1295 C   0  0  0  0  0  0  0  0  0  0  0  0
    1.1589    0.7615    0.7783 C   0  0  0  0  0  0  0  0  0  0  0  0
    1.1589    0.7615   -0.7783 C   0  0  0  0  0  0  0  0  0  0  0  0
   -0.2361    0.2031   -1.1295 C   0  0  0  0  0  0  0  0  0  0  0  0
   -1.0590    0.7953   -0.0000 C   0  0  0  0  0  0  0  0  0  0  0  0
   -1.1644   -1.7643   -1.1662 H   0  0  0  0  0  0  0  0  0  0  0  0
    0.5952   -1.8215   -1.1992 H   0  0  0  0  0  0  0  0  0  0  0  0
   -1.1644   -1.7643    1.1662 H   0  0  0  0  0  0  0  0  0  0  0  0
    0.5952   -1.8215    1.1992 H   0  0  0  0  0  0  0  0  0  0  0  0
   -0.5620    0.4302    2.1426 H   0  0  0  0  0  0  0  0  0  0  0  0
    1.9553    0.1464    1.2007 H   0  0  0  0  0  0  0  0  0  0  0  0
    1.2814    1.7721    1.1703 H   0  0  0  0  0  0  0  0  0  0  0  0
    1.9553    0.1464   -1.2007 H   0  0  0  0  0  0  0  0  0  0  0  0
    1.2814    1.7721   -1.1703 H   0  0  0  0  0  0  0  0  0  0  0  0
   -0.5620    0.4302   -2.1426 H   0  0  0  0  0  0  0  0  0  0  0  0
   -2.3118    0.2395   -0.0000 H   0  0  0  0  0  0  0  0  0  0  0  0
   -1.2492    1.8673   -0.0000 H   0  0  0  0  0  0  0  0  0  0  0  0
  2  3  1  0
  2  7  1  0
  2  9  1  0
  2 10  1  0
  3  4  1  0
  3 11  1  0
  3 12  1  0
  4  5  1  0
  4  8  1  0
  4 13  1  0
  5  6  1  0
  5 14  1  0
  5 15  1  0
  6  7  1  0
  6 16  1  0
  6 17  1  0
  7  8  1  0
  7 18  1  0
  8 19  1  0
  8 20  1  0
M  END
>  <reaction>  (4) 
rxn_733

>  <mol_properties>  (4) 
{"0": {"label": "*1", "atom_type": "H0"}, "3": {"label": "*4", "atom_type": "Cs"}, "7": {"label": "*3", "atom_type": "Cs"}, "18": {"label": "*2", "atom_type": "H0"}}

>  <type>  (4) 
ts

$$$$
