
     RDKit          3D

  6  5  0  0  0  0  0  0  0  0999 V2000
   -0.5072   -0.0291   -0.0097 C   0  0  0  0  0  0  0  0  0  0  0  0
    1.1321   -0.1527   -0.7687 S   0  0  0  0  0  0  0  0  0  0  0  0
   -0.6174   -0.7330    0.8127 H   0  0  0  0  0  0  0  0  0  0  0  0
   -0.5863    0.9827    0.3845 H   0  0  0  0  0  0  0  0  0  0  0  0
   -1.2962   -0.1800   -0.7434 H   0  0  0  0  0  0  0  0  0  0  0  0
    1.0312   -1.4237   -1.1764 H   0  0  0  0  0  0  0  0  0  0  0  0
  1  2  1  0
  1  3  1  0
  1  4  1  0
  1  5  1  0
  2  6  1  0
M  END
>  <reaction>  (1) 
rxn_1835

>  <mol_properties>  (1) 
{"0": {"label": "donator", "atom_type": "Cs"}, "2": {"label": "d_hydrogen", "atom_type": "H0"}}

>  <type>  (1) 
r1h

$$$$

     RDKit          3D

  8  7  0  0  0  0  0  0  0  0999 V2000
    1.4098   -0.3617   -0.1137 C   0  0  0  0  0  0  0  0  0  0  0  0
    0.1829   -0.1715   -0.5109 C   0  0  0  0  0  3  0  0  0  0  0  0
   -1.1129    0.2669    0.0153 C   0  0  0  0  0  0  0  0  0  0  0  0
    2.1881   -0.7137   -0.7829 H   0  0  0  0  0  0  0  0  0  0  0  0
    1.7065   -0.1722    0.9205 H   0  0  0  0  0  0  0  0  0  0  0  0
   -1.8665   -0.5154   -0.0958 H   0  0  0  0  0  0  0  0  0  0  0  0
   -1.0351    0.5163    1.0818 H   0  0  0  0  0  0  0  0  0  0  0  0
   -1.4726    1.1513   -0.5143 H   0  0  0  0  0  0  0  0  0  0  0  0
  1  2  2  3
  1  4  1  0
  1  5  1  0
  2  3  1  0
  3  6  1  0
  3  7  1  0
  3  8  1  0
M  RAD  1   2   2
M  END
>  <reaction>  (2) 
rxn_1835

>  <mol_properties>  (2) 
{"1": {"label": "acceptor", "atom_type": "Cd"}}

>  <type>  (2) 
r2

$$$$

     RDKit          3D

  9  8  0  0  0  0  0  0  0  0999 V2000
    1.1303   -0.2933   -0.7510 C   0  0  0  0  0  0  0  0  0  0  0  0
    0.2866    0.4560   -0.0588 C   0  0  0  0  0  0  0  0  0  0  0  0
   -0.9719   -0.0331    0.5823 C   0  0  0  0  0  0  0  0  0  0  0  0
    2.0274    0.1230   -1.1916 H   0  0  0  0  0  0  0  0  0  0  0  0
    0.9532   -1.3530   -0.9023 H   0  0  0  0  0  0  0  0  0  0  0  0
    0.5065    1.5132    0.0659 H   0  0  0  0  0  0  0  0  0  0  0  0
   -0.9526    0.1426    1.6610 H   0  0  0  0  0  0  0  0  0  0  0  0
   -1.1182   -1.1002    0.4106 H   0  0  0  0  0  0  0  0  0  0  0  0
   -1.8412    0.5010    0.1901 H   0  0  0  0  0  0  0  0  0  0  0  0
  1  2  2  3
  1  4  1  0
  1  5  1  0
  2  3  1  0
  2  6  1  0
  3  7  1  0
  3  8  1  0
  3  9  1  0
M  END
>  <reaction>  (3) 
rxn_1835

>  <mol_properties>  (3) 
{"0": {"label": "a_hydrogen", "atom_type": "H0"}, "2": {"label": "acceptor", "atom_type": "Cd"}}

>  <type>  (3) 
r2h

$$$$

     RDKit          3D

 14 12  0  0  0  0  0  0  0  0999 V2000
   -0.1211   -1.3076    0.0227 C   0  0  0  0  0  0  0  0  0  0  0  0
    0.1694   -1.1699   -1.7244 S   0  0  0  0  0  0  0  0  0  0  0  0
   -0.0847   -0.1420    0.5741 H   0  0  0  0  0  0  0  0  0  0  0  0
   -1.1323   -1.6737    0.1855 H   0  0  0  0  0  0  0  0  0  0  0  0
    0.6143   -1.9138    0.5471 H   0  0  0  0  0  0  0  0  0  0  0  0
    1.4386   -0.7484   -1.6508 H   0  0  0  0  0  0  0  0  0  0  0  0
   -0.1190    2.0839    0.1755 C   0  0  0  0  0  0  0  0  0  0  0  0
   -0.0382    1.1528    1.0982 C   0  0  0  0  0  3  0  0  0  0  0  0
    0.0991    1.2307    2.5711 C   0  0  0  0  0  0  0  0  0  0  0  0
   -0.2229    1.8303   -0.8747 H   0  0  0  0  0  0  0  0  0  0  0  0
   -0.0878    3.1430    0.4285 H   0  0  0  0  0  0  0  0  0  0  0  0
    1.0084    0.7261    2.9063 H   0  0  0  0  0  0  0  0  0  0  0  0
    0.1397    2.2709    2.9090 H   0  0  0  0  0  0  0  0  0  0  0  0
   -0.7428    0.7425    3.0676 H   0  0  0  0  0  0  0  0  0  0  0  0
  1  2  1  0
  1  3  1  0
  1  4  1  0
  1  5  1  0
  2  6  1  0
  7  8  2  3
  7 10  1  0
  7 11  1  0
  8  9  1  0
  9 12  1  0
  9 13  1  0
  9 14  1  0
M  RAD  1   8   2
M  END
>  <reaction>  (4) 
rxn_1835

>  <mol_properties>  (4) 
{"0": {"label": "*1", "atom_type": "Cs"}, "1": {"label": "*0", "atom_type": "S2s"}, "2": {"label": "*2", "atom_type": "H0"}, "6": {"label": "*4", "atom_type": "Cd"}, "7": {"label": "*3", "atom_type": "Cd"}}

>  <type>  (4) 
ts

$$$$
