
     RDKit          3D

 19 20  0  0  0  0  0  0  0  0999 V2000
    1.1087   -0.4716   -0.9619 C   0  0  0  0  0  0  0  0  0  0  0  0
    0.9355    1.0407   -0.6470 C   0  0  0  0  0  0  0  0  0  0  0  0
   -0.0085    1.0377    0.5657 C   0  0  0  0  0  0  0  0  0  0  0  0
   -1.4093    0.6181    0.0927 C   0  0  0  0  0  0  0  0  0  0  0  0
   -1.2361   -0.8942   -0.2222 C   0  0  0  0  0  0  0  0  0  0  0  0
    0.2422   -1.1516    0.1099 C   0  0  0  0  0  0  0  0  0  0  0  0
    0.4537   -0.2211    1.3118 C   0  0  0  0  0  0  0  0  0  0  0  0
    2.1524   -0.7752   -0.8653 H   0  0  0  0  0  0  0  0  0  0  0  0
    0.7855   -0.7316   -1.9710 H   0  0  0  0  0  0  0  0  0  0  0  0
    1.8918    1.5001   -0.3916 H   0  0  0  0  0  0  0  0  0  0  0  0
    0.5184    1.6005   -1.4855 H   0  0  0  0  0  0  0  0  0  0  0  0
    0.0038    1.9661    1.1351 H   0  0  0  0  0  0  0  0  0  0  0  0
   -1.7351    1.1944   -0.7746 H   0  0  0  0  0  0  0  0  0  0  0  0
   -2.1465    0.7723    0.8824 H   0  0  0  0  0  0  0  0  0  0  0  0
   -1.4680   -1.1377   -1.2601 H   0  0  0  0  0  0  0  0  0  0  0  0
   -1.8859   -1.5030    0.4087 H   0  0  0  0  0  0  0  0  0  0  0  0
    0.4812   -2.2025    0.2673 H   0  0  0  0  0  0  0  0  0  0  0  0
    1.4942   -0.1701    1.6391 H   0  0  0  0  0  0  0  0  0  0  0  0
   -0.1779   -0.4714    2.1666 H   0  0  0  0  0  0  0  0  0  0  0  0
  1  2  1  0
  1  6  1  0
  1  8  1  0
  1  9  1  0
  2  3  1  0
  2 10  1  0
  2 11  1  0
  3  4  1  0
  3  7  1  0
  3 12  1  0
  4  5  1  0
  4 13  1  0
  4 14  1  0
  5  6  1  0
  5 15  1  0
  5 16  1  0
  6  7  1  0
  6 17  1  0
  7 18  1  0
  7 19  1  0
M  END
>  <reaction>  (1) 
rxn_483

>  <mol_properties>  (1) 
{"0": {"label": "donator", "atom_type": "Cs"}, "7": {"label": "d_hydrogen", "atom_type": "H0"}}

>  <type>  (1) 
r1h

$$$$

     RDKit          3D

  4  3  0  0  0  0  0  0  0  0999 V2000
    0.0000    0.0000    0.0000 C   0  0  0  0  0  3  0  0  0  0  0  0
    1.0638   -0.1747    0.0540 H   0  0  0  0  0  0  0  0  0  0  0  0
   -0.6833   -0.8351   -0.0280 H   0  0  0  0  0  0  0  0  0  0  0  0
   -0.3805    1.0098   -0.0260 H   0  0  0  0  0  0  0  0  0  0  0  0
  1  2  1  0
  1  3  1  0
  1  4  1  0
M  RAD  1   1   2
M  END
>  <reaction>  (2) 
rxn_483

>  <mol_properties>  (2) 
{"0": {"label": "acceptor", "atom_type": "Cs"}}

>  <type>  (2) 
r2

$$$$

     RDKit          3D

  5  4  0  0  0  0  0  0  0  0999 V2000
    0.0000    0.0000    0.0000 C   0  0  0  0  0  0  0  0  0  0  0  0
   -0.6486   -0.7720   -0.4113 H   0  0  0  0  0  0  0  0  0  0  0  0
   -0.3482    0.9787   -0.3267 H   0  0  0  0  0  0  0  0  0  0  0  0
   -0.0223   -0.0487    1.0876 H   0  0  0  0  0  0  0  0  0  0  0  0
    1.0191   -0.1580   -0.3496 H   0  0  0  0  0  0  0  0  0  0  0  0
  1  2  1  0
  1  3  1  0
  1  4  1  0
  1  5  1  0
M  END
>  <reaction>  (3) 
rxn_483

>  <mol_properties>  (3) 
{"0": {"label": "acceptor", "atom_type": "Cs"}, "4": {"label": "a_hydrogen", "atom_type": "H0"}}

>  <type>  (3) 
r2h

$$$$

     RDKit          3D

 23 23  0  0  0  0  0  0  0  0999 V2000
    2.0951   -2.0147    1.5312 C   0  0  0  0  0  3  0  0  0  0  0  0
    2.6258   -1.1788    1.9776 H   0  0  0  0  0  0  0  0  0  0  0  0
    2.5584   -2.3940    0.6252 H   0  0  0  0  0  0  0  0  0  0  0  0
    1.8214   -2.7895    2.2408 H   0  0  0  0  0  0  0  0  0  0  0  0
   -0.1961   -0.9121    0.6677 C   0  0  0  0  0  0  0  0  0  0  0  0
   -0.2607   -1.1092   -0.8520 C   0  0  0  0  0  0  0  0  0  0  0  0
   -0.1156    0.3287   -1.3803 C   0  0  0  0  0  0  0  0  0  0  0  0
   -1.4112    1.0939   -1.0644 C   0  0  0  0  0  0  0  0  0  0  0  0
   -1.3512    1.2714    0.4783 C   0  0  0  0  0  0  0  0  0  0  0  0
   -0.0222    0.5871    0.8537 C   0  0  0  0  0  0  0  0  0  0  0  0
    0.8547    0.9354   -0.3573 C   0  0  0  0  0  0  0  0  0  0  0  0
    0.8823   -1.4715    1.1050 H   0  0  0  0  0  0  0  0  0  0  0  0
   -0.9905   -1.3734    1.2532 H   0  0  0  0  0  0  0  0  0  0  0  0
    0.5622   -1.7383   -1.2045 H   0  0  0  0  0  0  0  0  0  0  0  0
   -1.1900   -1.5789   -1.1800 H   0  0  0  0  0  0  0  0  0  0  0  0
    0.1884    0.3868   -2.4244 H   0  0  0  0  0  0  0  0  0  0  0  0
   -2.2968    0.5466   -1.3908 H   0  0  0  0  0  0  0  0  0  0  0  0
   -1.4204    2.0610   -1.5696 H   0  0  0  0  0  0  0  0  0  0  0  0
   -2.2010    0.8167    0.9891 H   0  0  0  0  0  0  0  0  0  0  0  0
   -1.3305    2.3277    0.7539 H   0  0  0  0  0  0  0  0  0  0  0  0
    0.3634    0.8742    1.8314 H   0  0  0  0  0  0  0  0  0  0  0  0
    1.8269    0.4397   -0.3375 H   0  0  0  0  0  0  0  0  0  0  0  0
    1.0007    2.0093   -0.4883 H   0  0  0  0  0  0  0  0  0  0  0  0
  1  2  1  0
  1  3  1  0
  1  4  1  0
  5  6  1  0
  5 10  1  0
  5 12  1  0
  5 13  1  0
  6  7  1  0
  6 14  1  0
  6 15  1  0
  7  8  1  0
  7 11  1  0
  7 16  1  0
  8  9  1  0
  8 17  1  0
  8 18  1  0
  9 10  1  0
  9 19  1  0
  9 20  1  0
 10 11  1  0
 10 21  1  0
 11 22  1  0
 11 23  1  0
M  RAD  1   1   2
M  END
>  <reaction>  (4) 
rxn_483

>  <mol_properties>  (4) 
{"0": {"label": "*3", "atom_type": "Cs"}, "1": {"label": "*4", "atom_type": "H0"}, "4": {"label": "*1", "atom_type": "Cs"}, "5": {"label": "*0", "atom_type": "Cs"}, "11": {"label": "*2", "atom_type": "H0"}}

>  <type>  (4) 
ts

$$$$
