
     RDKit          3D

 18 18  0  0  0  0  0  0  0  0999 V2000
   -2.4852    0.3210   -0.3966 C   0  0  0  0  0  0  0  0  0  0  0  0
   -1.5917   -0.2708    0.6941 C   0  0  0  0  0  0  0  0  0  0  0  0
   -0.1292   -0.1692    0.3493 C   0  0  0  0  0  0  0  0  0  0  0  0
    0.6099    0.9558    0.7015 C   0  0  0  0  0  0  0  0  0  0  0  0
    1.9447    1.0728    0.3458 C   0  0  0  0  0  0  0  0  0  0  0  0
    2.5646    0.0613   -0.3720 C   0  0  0  0  0  0  0  0  0  0  0  0
    1.8399   -1.0657   -0.7287 C   0  0  0  0  0  0  0  0  0  0  0  0
    0.5055   -1.1769   -0.3700 C   0  0  0  0  0  0  0  0  0  0  0  0
   -2.3325   -0.1971   -1.3452 H   0  0  0  0  0  0  0  0  0  0  0  0
   -2.2554    1.3763   -0.5546 H   0  0  0  0  0  0  0  0  0  0  0  0
   -3.5397    0.2376   -0.1280 H   0  0  0  0  0  0  0  0  0  0  0  0
   -1.7801    0.2462    1.6380 H   0  0  0  0  0  0  0  0  0  0  0  0
   -1.8568   -1.3190    0.8516 H   0  0  0  0  0  0  0  0  0  0  0  0
    0.1327    1.7497    1.2656 H   0  0  0  0  0  0  0  0  0  0  0  0
    2.5033    1.9550    0.6330 H   0  0  0  0  0  0  0  0  0  0  0  0
    3.6077    0.1491   -0.6484 H   0  0  0  0  0  0  0  0  0  0  0  0
    2.3163   -1.8632   -1.2854 H   0  0  0  0  0  0  0  0  0  0  0  0
   -0.0540   -2.0629   -0.6500 H   0  0  0  0  0  0  0  0  0  0  0  0
  1  2  1  0
  1  9  1  0
  1 10  1  0
  1 11  1  0
  2  3  1  0
  2 12  1  0
  2 13  1  0
  3  4  2  0
  3  8  1  0
  4  5  1  0
  4 14  1  0
  5  6  2  0
  5 15  1  0
  6  7  1  0
  6 16  1  0
  7  8  2  0
  7 17  1  0
  8 18  1  0
M  END
>  <reaction>  (1) 
rxn_1510

>  <mol_properties>  (1) 
{"1": {"label": "donator", "atom_type": "Cs"}, "11": {"label": "d_hydrogen", "atom_type": "H0"}}

>  <type>  (1) 
r1h

$$$$

     RDKit          3D

 10  9  0  0  0  0  0  0  0  0999 V2000
   -1.3354   -0.2069    0.0525 C   0  0  0  0  0  0  0  0  0  0  0  0
    0.0851    0.2624    0.0266 C   0  0  0  0  0  0  0  0  0  0  0  0
    0.4841    1.3876    0.7359 C   0  0  0  0  0  0  0  0  0  0  0  0
    2.0191    2.0303    0.8057 S   0  0  0  0  0  1  0  0  0  0  0  0
    1.1566   -0.6823   -0.9297 S   0  0  0  0  0  0  0  0  0  0  0  0
   -1.7589   -0.2174   -0.9545 H   0  0  0  0  0  0  0  0  0  0  0  0
   -1.4004   -1.2253    0.4427 H   0  0  0  0  0  0  0  0  0  0  0  0
   -1.9442    0.4442    0.6783 H   0  0  0  0  0  0  0  0  0  0  0  0
   -0.3073    1.8814    1.2951 H   0  0  0  0  0  0  0  0  0  0  0  0
    2.2383    0.0827   -0.6554 H   0  0  0  0  0  0  0  0  0  0  0  0
  1  2  1  0
  1  6  1  0
  1  7  1  0
  1  8  1  0
  2  3  2  3
  2  5  1  0
  3  4  1  0
  3  9  1  0
  5 10  1  0
M  RAD  1   4   2
M  END
>  <reaction>  (2) 
rxn_1510

>  <mol_properties>  (2) 
{"1": {"label": "acceptor", "atom_type": "Cs"}}

>  <type>  (2) 
r2

$$$$

     RDKit          3D

 11 10  0  0  0  0  0  0  0  0999 V2000
   -1.0997   -0.5860   -0.1182 C   0  0  0  0  0  0  0  0  0  0  0  0
    0.0827    0.2961    0.2270 C   0  0  0  0  0  0  0  0  0  0  0  0
    0.1622    1.6171   -0.4774 C   0  0  0  0  0  0  0  0  0  0  0  0
   -0.9879    2.3087   -1.3633 S   0  0  0  0  0  0  0  0  0  0  0  0
    0.2176    0.6619    2.0187 S   0  0  0  0  0  0  0  0  0  0  0  0
   -1.1052   -0.8107   -1.1861 H   0  0  0  0  0  0  0  0  0  0  0  0
   -2.0402   -0.0893    0.1198 H   0  0  0  0  0  0  0  0  0  0  0  0
   -1.0438   -1.5182    0.4423 H   0  0  0  0  0  0  0  0  0  0  0  0
    1.0207   -0.2324    0.0280 H   0  0  0  0  0  0  0  0  0  0  0  0
    1.1091    2.1333   -0.3182 H   0  0  0  0  0  0  0  0  0  0  0  0
   -0.9205    1.3661    2.0994 H   0  0  0  0  0  0  0  0  0  0  0  0
  1  2  1  0
  1  6  1  0
  1  7  1  0
  1  8  1  0
  2  3  1  0
  2  5  1  0
  2  9  1  0
  3  4  2  0
  3 10  1  0
  5 11  1  0
M  END
>  <reaction>  (3) 
rxn_1510

>  <mol_properties>  (3) 
{"1": {"label": "acceptor", "atom_type": "Cs"}, "10": {"label": "a_hydrogen", "atom_type": "H0"}}

>  <type>  (3) 
r2h

$$$$

     RDKit          3D

 28 27  0  0  0  0  0  0  0  0999 V2000
   -0.0649   -1.4483    1.7243 C   0  0  0  0  0  0  0  0  0  0  0  0
   -0.6473   -1.3237    0.3366 C   0  0  0  0  0  0  0  0  0  0  0  0
   -0.7760   -2.5144   -0.4863 C   0  0  0  0  0  0  0  0  0  0  0  0
    0.0350   -3.9107   -0.2909 S   0  0  0  0  0  0  0  0  0  0  0  0
   -2.0932   -0.2613    0.1909 S   0  0  0  0  0  0  0  0  0  0  0  0
   -0.7608   -1.9701    2.3834 H   0  0  0  0  0  0  0  0  0  0  0  0
    0.8643   -2.0173    1.6916 H   0  0  0  0  0  0  0  0  0  0  0  0
    0.1338   -0.4603    2.1409 H   0  0  0  0  0  0  0  0  0  0  0  0
   -1.4370   -2.4014   -1.3465 H   0  0  0  0  0  0  0  0  0  0  0  0
   -1.5077    0.8456    0.6714 H   0  0  0  0  0  0  0  0  0  0  0  0
    0.8673   -0.1350   -2.3606 C   0  0  0  0  0  0  0  0  0  0  0  0
    1.2772    0.0928   -0.9366 C   0  0  0  0  0  0  0  0  0  0  0  0
    1.1641    1.3965   -0.3061 C   0  0  0  0  0  0  0  0  0  0  0  0
    0.3806    2.4257   -0.8468 C   0  0  0  0  0  3  0  0  0  0  0  0
    0.2455    3.6346   -0.1870 C   0  0  0  0  0  0  0  0  0  0  0  0
    0.8836    3.8486    1.0268 C   0  0  0  0  0  0  0  0  0  0  0  0
    1.6688    2.8416    1.5751 C   0  0  0  0  0  0  0  0  0  0  0  0
    1.8080    1.6348    0.9180 C   0  0  0  0  0  0  0  0  0  0  0  0
    1.4824    0.4529   -3.0486 H   0  0  0  0  0  0  0  0  0  0  0  0
   -0.1763    0.1429   -2.5269 H   0  0  0  0  0  0  0  0  0  0  0  0
    0.9786   -1.1867   -2.6246 H   0  0  0  0  0  0  0  0  0  0  0  0
    0.2519   -0.6772   -0.2882 H   0  0  0  0  0  0  0  0  0  0  0  0
    2.1215   -0.5016   -0.5938 H   0  0  0  0  0  0  0  0  0  0  0  0
   -0.1279    2.2755   -1.7899 H   0  0  0  0  0  0  0  0  0  0  0  0
   -0.3625    4.4170   -0.6235 H   0  0  0  0  0  0  0  0  0  0  0  0
    0.7746    4.7951    1.5404 H   0  0  0  0  0  0  0  0  0  0  0  0
    2.1762    3.0025    2.5179 H   0  0  0  0  0  0  0  0  0  0  0  0
    2.4218    0.8525    1.3496 H   0  0  0  0  0  0  0  0  0  0  0  0
  1  2  1  0
  1  6  1  0
  1  7  1  0
  1  8  1  0
  2  3  1  0
  2  5  1  0
  2 22  1  0
  3  4  2  0
  3  9  1  0
  5 10  1  0
 11 12  1  0
 11 19  1  0
 11 20  1  0
 11 21  1  0
 12 13  2  3
 12 23  1  0
 13 14  1  0
 13 18  1  0
 14 15  1  0
 14 24  1  0
 15 16  2  0
 15 25  1  0
 16 17  1  0
 16 26  1  0
 17 18  2  0
 17 27  1  0
 18 28  1  0
M  RAD  1  14   2
M  END
>  <reaction>  (4) 
rxn_1510

>  <mol_properties>  (4) 
{"1": {"label": "*1", "atom_type": "Cs"}, "2": {"label": "*0", "atom_type": "CS"}, "11": {"label": "*3", "atom_type": "Cd"}, "12": {"label": "*4", "atom_type": "Cd"}, "21": {"label": "*2", "atom_type": "H0"}}

>  <type>  (4) 
ts

$$$$
