
     RDKit          3D

 18 18  0  0  0  0  0  0  0  0999 V2000
   -2.4852    0.3210   -0.3966 C   0  0  0  0  0  0  0  0  0  0  0  0
   -1.5917   -0.2708    0.6941 C   0  0  0  0  0  0  0  0  0  0  0  0
   -0.1292   -0.1692    0.3493 C   0  0  0  0  0  0  0  0  0  0  0  0
    0.6099    0.9558    0.7015 C   0  0  0  0  0  0  0  0  0  0  0  0
    1.9447    1.0728    0.3458 C   0  0  0  0  0  0  0  0  0  0  0  0
    2.5646    0.0613   -0.3720 C   0  0  0  0  0  0  0  0  0  0  0  0
    1.8399   -1.0657   -0.7287 C   0  0  0  0  0  0  0  0  0  0  0  0
    0.5055   -1.1769   -0.3700 C   0  0  0  0  0  0  0  0  0  0  0  0
   -2.3325   -0.1971   -1.3452 H   0  0  0  0  0  0  0  0  0  0  0  0
   -2.2554    1.3763   -0.5546 H   0  0  0  0  0  0  0  0  0  0  0  0
   -3.5397    0.2376   -0.1280 H   0  0  0  0  0  0  0  0  0  0  0  0
   -1.7801    0.2462    1.6380 H   0  0  0  0  0  0  0  0  0  0  0  0
   -1.8568   -1.3190    0.8516 H   0  0  0  0  0  0  0  0  0  0  0  0
    0.1327    1.7497    1.2656 H   0  0  0  0  0  0  0  0  0  0  0  0
    2.5033    1.9550    0.6330 H   0  0  0  0  0  0  0  0  0  0  0  0
    3.6077    0.1491   -0.6484 H   0  0  0  0  0  0  0  0  0  0  0  0
    2.3163   -1.8632   -1.2854 H   0  0  0  0  0  0  0  0  0  0  0  0
   -0.0540   -2.0629   -0.6500 H   0  0  0  0  0  0  0  0  0  0  0  0
  1  2  1  0
  1  9  1  0
  1 10  1  0
  1 11  1  0
  2  3  1  0
  2 12  1  0
  2 13  1  0
  3  4  2  0
  3  8  1  0
  4  5  1  0
  4 14  1  0
  5  6  2  0
  5 15  1  0
  6  7  1  0
  6 16  1  0
  7  8  2  0
  7 17  1  0
  8 18  1  0
M  END
>  <reaction>  (1) 
rxn_1477

>  <mol_properties>  (1) 
{"0": {"label": "donator", "atom_type": "Cs"}, "8": {"label": "d_hydrogen", "atom_type": "H0"}}

>  <type>  (1) 
r1h

$$$$

     RDKit          3D

  1  0  0  0  0  0  0  0  0  0999 V2000
    0.0000    0.0000    0.0000 H   0  0  0  0  0 15  0  0  0  0  0  0
M  END
>  <reaction>  (2) 
rxn_1477

>  <mol_properties>  (2) 
{"0": {"label": "acceptor", "atom_type": "H0"}}

>  <type>  (2) 
r2

$$$$

     RDKit          3D

  2  1  0  0  0  0  0  0  0  0999 V2000
    0.0000    0.0000    0.3721 H   0  0  0  0  0  0  0  0  0  0  0  0
    0.0000    0.0000   -0.3721 H   0  0  0  0  0  0  0  0  0  0  0  0
  1  2  1  0
M  END
>  <reaction>  (3) 
rxn_1477

>  <mol_properties>  (3) 
{"0": {"label": "a_hydrogen", "atom_type": "H0"}, "1": {"label": "acceptor", "atom_type": "H0"}}

>  <type>  (3) 
r2h

$$$$

     RDKit          3D

 19 18  0  0  0  0  0  0  0  0999 V2000
    1.4678   -0.0132   -0.5416 C   0  0  0  0  0  0  0  0  0  0  0  0
    2.4650    0.2873    0.5559 C   0  0  0  0  0  0  0  0  0  0  0  0
    0.0319   -0.1524   -0.1726 C   0  0  0  0  0  0  0  0  0  0  0  0
   -0.8272   -0.8651   -1.0098 C   0  0  0  0  0  0  0  0  0  0  0  0
   -0.5050    0.4390    0.9693 C   0  0  0  0  0  0  0  0  0  0  0  0
   -2.1745   -0.9858   -0.7177 C   0  0  0  0  0  0  0  0  0  0  0  0
   -2.6947   -0.3930    0.4240 C   0  0  0  0  0  0  0  0  0  0  0  0
   -1.8540    0.3183    1.2654 C   0  0  0  0  0  0  0  0  0  0  0  0
    1.5407    0.9187   -1.3139 H   0  0  0  0  0  0  0  0  0  0  0  0
    1.7910   -0.8475   -1.1656 H   0  0  0  0  0  0  0  0  0  0  0  0
    2.4406   -0.4857    1.3277 H   0  0  0  0  0  0  0  0  0  0  0  0
    2.2641    1.2466    1.0349 H   0  0  0  0  0  0  0  0  0  0  0  0
    3.4753    0.3300    0.1485 H   0  0  0  0  0  0  0  0  0  0  0  0
   -0.4278   -1.3323   -1.9030 H   0  0  0  0  0  0  0  0  0  0  0  0
   -2.8210   -1.5464   -1.3812 H   0  0  0  0  0  0  0  0  0  0  0  0
   -3.7477   -0.4873    0.6566 H   0  0  0  0  0  0  0  0  0  0  0  0
   -2.2495    0.7829    2.1601 H   0  0  0  0  0  0  0  0  0  0  0  0
    0.1341    0.9973    1.6412 H   0  0  0  0  0  0  0  0  0  0  0  0
    1.6909    1.7884   -1.9779 H   0  0  0  0  0 15  0  0  0  0  0  0
  1  2  1  0
  1  3  1  0
  1  9  1  0
  1 10  1  0
  2 11  1  0
  2 12  1  0
  2 13  1  0
  3  4  2  0
  3  5  1  0
  4  6  1  0
  4 14  1  0
  5  8  2  0
  5 18  1  0
  6  7  2  0
  6 15  1  0
  7  8  1  0
  7 16  1  0
  8 17  1  0
M  END
>  <reaction>  (4) 
rxn_1477

>  <mol_properties>  (4) 
{"0": {"label": "*3", "atom_type": "Cs"}, "2": {"label": "*4", "atom_type": "Cd"}, "8": {"label": "*2", "atom_type": "H0"}, "18": {"label": "*1", "atom_type": "H0"}}

>  <type>  (4) 
ts

$$$$
