
     RDKit          3D

 18 18  0  0  0  0  0  0  0  0999 V2000
   -2.4852    0.3210   -0.3966 C   0  0  0  0  0  0  0  0  0  0  0  0
   -1.5917   -0.2708    0.6941 C   0  0  0  0  0  0  0  0  0  0  0  0
   -0.1292   -0.1692    0.3493 C   0  0  0  0  0  0  0  0  0  0  0  0
    0.6099    0.9558    0.7015 C   0  0  0  0  0  0  0  0  0  0  0  0
    1.9447    1.0728    0.3458 C   0  0  0  0  0  0  0  0  0  0  0  0
    2.5646    0.0613   -0.3720 C   0  0  0  0  0  0  0  0  0  0  0  0
    1.8399   -1.0657   -0.7287 C   0  0  0  0  0  0  0  0  0  0  0  0
    0.5055   -1.1769   -0.3700 C   0  0  0  0  0  0  0  0  0  0  0  0
   -2.3325   -0.1971   -1.3452 H   0  0  0  0  0  0  0  0  0  0  0  0
   -2.2554    1.3763   -0.5546 H   0  0  0  0  0  0  0  0  0  0  0  0
   -3.5397    0.2376   -0.1280 H   0  0  0  0  0  0  0  0  0  0  0  0
   -1.7801    0.2462    1.6380 H   0  0  0  0  0  0  0  0  0  0  0  0
   -1.8568   -1.3190    0.8516 H   0  0  0  0  0  0  0  0  0  0  0  0
    0.1327    1.7497    1.2656 H   0  0  0  0  0  0  0  0  0  0  0  0
    2.5033    1.9550    0.6330 H   0  0  0  0  0  0  0  0  0  0  0  0
    3.6077    0.1491   -0.6484 H   0  0  0  0  0  0  0  0  0  0  0  0
    2.3163   -1.8632   -1.2854 H   0  0  0  0  0  0  0  0  0  0  0  0
   -0.0540   -2.0629   -0.6500 H   0  0  0  0  0  0  0  0  0  0  0  0
  1  2  1  0
  1  9  1  0
  1 10  1  0
  1 11  1  0
  2  3  1  0
  2 12  1  0
  2 13  1  0
  3  4  2  0
  3  8  1  0
  4  5  1  0
  4 14  1  0
  5  6  2  0
  5 15  1  0
  6  7  1  0
  6 16  1  0
  7  8  2  0
  7 17  1  0
  8 18  1  0
M  END
>  <reaction>  (1) 
rxn_1490

>  <mol_properties>  (1) 
{"1": {"label": "donator", "atom_type": "Cs"}, "11": {"label": "d_hydrogen", "atom_type": "H0"}}

>  <type>  (1) 
r1h

$$$$

     RDKit          3D

  8  7  0  0  0  0  0  0  0  0999 V2000
   -2.2129    0.4855    0.7390 C   0  0  0  0  0  0  0  0  0  0  0  0
   -1.2226    0.0526    0.1974 C   0  0  0  0  0  0  0  0  0  0  0  0
   -0.1006   -0.4575   -0.4419 C   0  0  0  0  0  3  0  0  0  0  0  0
    1.1960   -0.1737   -0.0342 C   0  0  0  0  0  0  0  0  0  0  0  0
    2.3329    0.0603    0.3036 C   0  0  0  0  0  0  0  0  0  0  0  0
   -3.0803    0.8696    1.2198 H   0  0  0  0  0  0  0  0  0  0  0  0
   -0.2433   -1.1067   -1.2980 H   0  0  0  0  0  0  0  0  0  0  0  0
    3.3308    0.2700    0.6058 H   0  0  0  0  0  0  0  0  0  0  0  0
  1  2  3  0
  1  6  1  0
  2  3  1  0
  3  4  1  0
  3  7  1  0
  4  5  3  0
  5  8  1  0
M  RAD  1   3   2
M  END
>  <reaction>  (2) 
rxn_1490

>  <mol_properties>  (2) 
{"2": {"label": "acceptor", "atom_type": "Cs"}}

>  <type>  (2) 
r2

$$$$

     RDKit          3D

  9  8  0  0  0  0  0  0  0  0999 V2000
   -2.1022   -0.6873    0.3932 C   0  0  0  0  0  0  0  0  0  0  0  0
   -1.2072   -0.1086   -0.1482 C   0  0  0  0  0  0  0  0  0  0  0  0
   -0.1242    0.6105   -0.8193 C   0  0  0  0  0  0  0  0  0  0  0  0
    1.2067    0.1106   -0.4741 C   0  0  0  0  0  0  0  0  0  0  0  0
    2.3005   -0.2875   -0.2012 C   0  0  0  0  0  0  0  0  0  0  0  0
   -2.8942   -1.2059    0.8778 H   0  0  0  0  0  0  0  0  0  0  0  0
   -0.1862    1.6723   -0.5649 H   0  0  0  0  0  0  0  0  0  0  0  0
   -0.2641    0.5418   -1.9017 H   0  0  0  0  0  0  0  0  0  0  0  0
    3.2709   -0.6459    0.0455 H   0  0  0  0  0  0  0  0  0  0  0  0
  1  2  3  0
  1  6  1  0
  2  3  1  0
  3  4  1  0
  3  7  1  0
  3  8  1  0
  4  5  3  0
  5  9  1  0
M  END
>  <reaction>  (3) 
rxn_1490

>  <mol_properties>  (3) 
{"2": {"label": "acceptor", "atom_type": "Cs"}, "8": {"label": "a_hydrogen", "atom_type": "H0"}}

>  <type>  (3) 
r2h

$$$$

     RDKit          3D

 26 25  0  0  0  0  0  0  0  0999 V2000
   -0.1383   -4.3710   -0.0175 C   0  0  0  0  0  0  0  0  0  0  0  0
   -0.3597   -3.2526    0.3576 C   0  0  0  0  0  0  0  0  0  0  0  0
   -0.5600   -1.8936    0.7625 C   0  0  0  0  0  0  0  0  0  0  0  0
   -1.8452   -1.3124    0.5197 C   0  0  0  0  0  0  0  0  0  0  0  0
   -2.8905   -0.7719    0.2822 C   0  0  0  0  0  0  0  0  0  0  0  0
    0.0382   -5.3704   -0.3348 H   0  0  0  0  0  0  0  0  0  0  0  0
   -0.1587   -1.6638    1.7489 H   0  0  0  0  0  0  0  0  0  0  0  0
   -3.8283   -0.3091    0.0904 H   0  0  0  0  0  0  0  0  0  0  0  0
    0.3233   -0.7594   -2.1753 C   0  0  0  0  0  0  0  0  0  0  0  0
    1.0061   -0.4349   -0.8752 C   0  0  0  0  0  0  0  0  0  0  0  0
    0.9529    0.9178   -0.3187 C   0  0  0  0  0  0  0  0  0  0  0  0
   -0.0472    1.8302   -0.6702 C   0  0  0  0  0  3  0  0  0  0  0  0
   -0.0997    3.0846   -0.0870 C   0  0  0  0  0  0  0  0  0  0  0  0
    0.8388    3.4572    0.8639 C   0  0  0  0  0  0  0  0  0  0  0  0
    1.8361    2.5618    1.2278 C   0  0  0  0  0  0  0  0  0  0  0  0
    1.8904    1.3096    0.6450 C   0  0  0  0  0  0  0  0  0  0  0  0
    0.7431   -0.1737   -2.9986 H   0  0  0  0  0  0  0  0  0  0  0  0
   -0.7478   -0.5528   -2.1292 H   0  0  0  0  0  0  0  0  0  0  0  0
    0.4429   -1.8167   -2.4119 H   0  0  0  0  0  0  0  0  0  0  0  0
    0.2728   -1.1709    0.0012 H   0  0  0  0  0  0  0  0  0  0  0  0
    1.9731   -0.9189   -0.7452 H   0  0  0  0  0  0  0  0  0  0  0  0
   -0.7916    1.5546   -1.4053 H   0  0  0  0  0  0  0  0  0  0  0  0
   -0.8807    3.7768   -0.3759 H   0  0  0  0  0  0  0  0  0  0  0  0
    0.7951    4.4388    1.3182 H   0  0  0  0  0  0  0  0  0  0  0  0
    2.5750    2.8439    1.9674 H   0  0  0  0  0  0  0  0  0  0  0  0
    2.6732    0.6161    0.9311 H   0  0  0  0  0  0  0  0  0  0  0  0
  1  2  3  0
  1  6  1  0
  2  3  1  0
  3  4  1  0
  3  7  1  0
  3 20  1  0
  4  5  3  0
  5  8  1  0
  9 10  1  0
  9 17  1  0
  9 18  1  0
  9 19  1  0
 10 11  2  3
 10 21  1  0
 11 12  1  0
 11 16  1  0
 12 13  1  0
 12 22  1  0
 13 14  2  0
 13 23  1  0
 14 15  1  0
 14 24  1  0
 15 16  2  0
 15 25  1  0
 16 26  1  0
M  RAD  1  12   2
M  END
>  <reaction>  (4) 
rxn_1490

>  <mol_properties>  (4) 
{"1": {"label": "*0", "atom_type": "Ct"}, "2": {"label": "*1", "atom_type": "Cs"}, "9": {"label": "*3", "atom_type": "Cd"}, "10": {"label": "*4", "atom_type": "Cd"}, "19": {"label": "*2", "atom_type": "H0"}}

>  <type>  (4) 
ts

$$$$
