
     RDKit          3D

 11 10  0  0  0  0  0  0  0  0999 V2000
   -1.2710    0.1907   -0.2084 C   0  0  0  0  0  0  0  0  0  0  0  0
    0.0202   -0.6130   -0.2928 C   0  0  0  0  0  0  0  0  0  0  0  0
    0.1086   -1.6953    0.7756 C   0  0  0  0  0  0  0  0  0  0  0  0
   -1.3607    0.6851    0.7620 H   0  0  0  0  0  0  0  0  0  0  0  0
   -2.1429   -0.4567   -0.3299 H   0  0  0  0  0  0  0  0  0  0  0  0
   -1.3158    0.9602   -0.9809 H   0  0  0  0  0  0  0  0  0  0  0  0
    0.8757    0.0616   -0.1992 H   0  0  0  0  0  0  0  0  0  0  0  0
    0.0997   -1.0712   -1.2825 H   0  0  0  0  0  0  0  0  0  0  0  0
   -0.7198   -2.4022    0.6850 H   0  0  0  0  0  0  0  0  0  0  0  0
    1.0395   -2.2596    0.6989 H   0  0  0  0  0  0  0  0  0  0  0  0
    0.0624   -1.2603    1.7770 H   0  0  0  0  0  0  0  0  0  0  0  0
  1  2  1  0
  1  4  1  0
  1  5  1  0
  1  6  1  0
  2  3  1  0
  2  7  1  0
  2  8  1  0
  3  9  1  0
  3 10  1  0
  3 11  1  0
M  END
>  <reaction>  (1) 
rxn_917

>  <mol_properties>  (1) 
{"1": {"label": "donator", "atom_type": "Cs"}, "6": {"label": "d_hydrogen", "atom_type": "H0"}}

>  <type>  (1) 
r1h

$$$$

     RDKit          3D

 15 14  0  0  0  0  0  0  0  0999 V2000
    2.4381    0.5770   -0.2356 C   0  0  0  0  0  0  0  0  0  0  0  0
    1.4430   -0.3367   -0.1409 C   0  0  0  0  0  0  0  0  0  0  0  0
    0.0521   -0.0957   -0.0045 C   0  0  0  0  0  3  0  0  0  0  0  0
   -0.5167    1.2867    0.0548 C   0  0  0  0  0  0  0  0  0  0  0  0
   -0.8226   -1.2147    0.0778 C   0  0  0  0  0  0  0  0  0  0  0  0
   -2.1666   -1.1669    0.2092 C   0  0  0  0  0  0  0  0  0  0  0  0
    3.4666    0.2585   -0.3369 H   0  0  0  0  0  0  0  0  0  0  0  0
    2.2594    1.6438   -0.2152 H   0  0  0  0  0  0  0  0  0  0  0  0
    1.7306   -1.3845   -0.1719 H   0  0  0  0  0  0  0  0  0  0  0  0
   -1.2300    1.4469   -0.7583 H   0  0  0  0  0  0  0  0  0  0  0  0
    0.2481    2.0557   -0.0178 H   0  0  0  0  0  0  0  0  0  0  0  0
   -1.0592    1.4421    0.9914 H   0  0  0  0  0  0  0  0  0  0  0  0
   -0.3519   -2.1929    0.0292 H   0  0  0  0  0  0  0  0  0  0  0  0
   -2.7080   -0.2310    0.2646 H   0  0  0  0  0  0  0  0  0  0  0  0
   -2.7513   -2.0751    0.2638 H   0  0  0  0  0  0  0  0  0  0  0  0
  1  2  2  3
  1  7  1  0
  1  8  1  0
  2  3  1  0
  2  9  1  0
  3  4  1  0
  3  5  1  0
  4 10  1  0
  4 11  1  0
  4 12  1  0
  5  6  2  3
  5 13  1  0
  6 14  1  0
  6 15  1  0
M  RAD  1   3   2
M  END
>  <reaction>  (2) 
rxn_917

>  <mol_properties>  (2) 
{"2": {"label": "acceptor", "atom_type": "Cs"}}

>  <type>  (2) 
r2

$$$$

     RDKit          3D

 16 15  0  0  0  0  0  0  0  0999 V2000
    1.7961   -0.3807    1.6176 C   0  0  0  0  0  0  0  0  0  0  0  0
    0.8562   -0.8708    0.8256 C   0  0  0  0  0  0  0  0  0  0  0  0
    0.0895   -0.0826   -0.2048 C   0  0  0  0  0  0  0  0  0  0  0  0
   -1.4061   -0.1111    0.0982 C   0  0  0  0  0  0  0  0  0  0  0  0
    0.4476   -0.5902   -1.5797 C   0  0  0  0  0  0  0  0  0  0  0  0
   -0.3793   -1.1113   -2.4728 C   0  0  0  0  0  0  0  0  0  0  0  0
    2.3110   -1.0032    2.3386 H   0  0  0  0  0  0  0  0  0  0  0  0
    2.0846    0.6643    1.5737 H   0  0  0  0  0  0  0  0  0  0  0  0
    0.5921   -1.9241    0.8925 H   0  0  0  0  0  0  0  0  0  0  0  0
    0.4358    0.9557   -0.1462 H   0  0  0  0  0  0  0  0  0  0  0  0
   -1.5968    0.3080    1.0865 H   0  0  0  0  0  0  0  0  0  0  0  0
   -1.9674    0.4693   -0.6359 H   0  0  0  0  0  0  0  0  0  0  0  0
   -1.7902   -1.1338    0.0883 H   0  0  0  0  0  0  0  0  0  0  0  0
    1.5049   -0.5197   -1.8214 H   0  0  0  0  0  0  0  0  0  0  0  0
   -1.4421   -1.2131   -2.2889 H   0  0  0  0  0  0  0  0  0  0  0  0
   -0.0162   -1.4558   -3.4328 H   0  0  0  0  0  0  0  0  0  0  0  0
  1  2  2  3
  1  7  1  0
  1  8  1  0
  2  3  1  0
  2  9  1  0
  3  4  1  0
  3  5  1  0
  3 10  1  0
  4 11  1  0
  4 12  1  0
  4 13  1  0
  5  6  2  3
  5 14  1  0
  6 15  1  0
  6 16  1  0
M  END
>  <reaction>  (3) 
rxn_917

>  <mol_properties>  (3) 
{"2": {"label": "acceptor", "atom_type": "Cs"}, "15": {"label": "a_hydrogen", "atom_type": "H0"}}

>  <type>  (3) 
r2h

$$$$

     RDKit          3D

 26 24  0  0  0  0  0  0  0  0999 V2000
   -0.2552   -1.0944    2.7790 C   0  0  0  0  0  0  0  0  0  0  0  0
    0.2295   -0.2362    1.8873 C   0  0  0  0  0  0  0  0  0  0  0  0
    0.4119   -0.4668    0.4345 C   0  0  0  0  0  0  0  0  0  0  0  0
    0.1949   -1.8828   -0.0509 C   0  0  0  0  0  0  0  0  0  0  0  0
    1.5906    0.2436   -0.1140 C   0  0  0  0  0  0  0  0  0  0  0  0
    2.3743   -0.1531   -1.1126 C   0  0  0  0  0  0  0  0  0  0  0  0
   -0.3721   -0.8092    3.8165 H   0  0  0  0  0  0  0  0  0  0  0  0
   -0.5393   -2.1060    2.5163 H   0  0  0  0  0  0  0  0  0  0  0  0
    0.5042    0.7592    2.2295 H   0  0  0  0  0  0  0  0  0  0  0  0
    0.2198   -1.9278   -1.1401 H   0  0  0  0  0  0  0  0  0  0  0  0
   -0.7793   -2.2555    0.2683 H   0  0  0  0  0  0  0  0  0  0  0  0
    0.9629   -2.5578    0.3360 H   0  0  0  0  0  0  0  0  0  0  0  0
    1.8016    1.2040    0.3512 H   0  0  0  0  0  0  0  0  0  0  0  0
    2.2367   -1.1011   -1.6178 H   0  0  0  0  0  0  0  0  0  0  0  0
    3.1973    0.4637   -1.4495 H   0  0  0  0  0  0  0  0  0  0  0  0
   -1.4659    0.4913   -2.2005 C   0  0  0  0  0  0  0  0  0  0  0  0
   -1.6513    0.8685   -0.7629 C   0  0  0  0  0  3  0  0  0  0  0  0
   -1.3578    2.2855   -0.3761 C   0  0  0  0  0  0  0  0  0  0  0  0
   -0.4461    0.7101   -2.5295 H   0  0  0  0  0  0  0  0  0  0  0  0
   -2.1453    1.0562   -2.8515 H   0  0  0  0  0  0  0  0  0  0  0  0
   -1.6575   -0.5695   -2.3673 H   0  0  0  0  0  0  0  0  0  0  0  0
   -0.5510    0.1532   -0.0698 H   0  0  0  0  0  0  0  0  0  0  0  0
   -2.5131    0.4238   -0.2690 H   0  0  0  0  0  0  0  0  0  0  0  0
   -2.0791    2.9801   -0.8236 H   0  0  0  0  0  0  0  0  0  0  0  0
   -1.3978    2.4220    0.7061 H   0  0  0  0  0  0  0  0  0  0  0  0
   -0.3648    2.5848   -0.7236 H   0  0  0  0  0  0  0  0  0  0  0  0
  1  2  2  3
  1  7  1  0
  1  8  1  0
  2  3  1  0
  2  9  1  0
  3  4  1  0
  3  5  1  0
  3 22  1  0
  4 10  1  0
  4 11  1  0
  4 12  1  0
  5  6  2  3
  5 13  1  0
  6 14  1  0
  6 15  1  0
 16 17  1  0
 16 19  1  0
 16 20  1  0
 16 21  1  0
 17 18  1  0
 17 23  1  0
 18 24  1  0
 18 25  1  0
 18 26  1  0
M  RAD  1  17   2
M  END
>  <reaction>  (4) 
rxn_917

>  <mol_properties>  (4) 
{"1": {"label": "*0", "atom_type": "Cd"}, "2": {"label": "*1", "atom_type": "Cs"}, "15": {"label": "*4", "atom_type": "Cs"}, "16": {"label": "*3", "atom_type": "Cs"}, "21": {"label": "*2", "atom_type": "H0"}}

>  <type>  (4) 
ts

$$$$
