
     RDKit          3D

  7  6  0  0  0  0  0  0  0  0999 V2000
    1.1790    0.0623    0.2249 N   0  0  0  0  0  0  0  0  0  0  0  0
    0.0806   -0.7371    0.2750 N   0  0  0  0  0  0  0  0  0  0  0  0
    0.2345   -1.9592    0.5674 C   0  0  0  0  0  0  0  0  0  0  0  0
    1.0160    0.8617   -0.3633 H   0  0  0  0  0  0  0  0  0  0  0  0
    2.0560   -0.4061    0.0238 H   0  0  0  0  0  0  0  0  0  0  0  0
   -0.6510   -2.5755    0.6538 H   0  0  0  0  0  0  0  0  0  0  0  0
    1.2139   -2.4141    0.7430 H   0  0  0  0  0  0  0  0  0  0  0  0
  1  2  1  0
  1  4  1  0
  1  5  1  0
  2  3  2  3
  3  6  1  0
  3  7  1  0
M  END
>  <reaction>  (1) 
rxn_723

>  <mol_properties>  (1) 
{"0": {"label": "donator", "atom_type": "N3s"}, "3": {"label": "d_hydrogen", "atom_type": "H0"}}

>  <type>  (1) 
r1h

$$$$

     RDKit          3D

  3  2  0  0  0  0  0  0  0  0999 V2000
    0.9943   -0.1797    0.0000 O   0  0  0  0  0  1  0  0  0  0  0  0
   -0.1595    0.4394    0.0000 O   0  0  0  0  0  0  0  0  0  0  0  0
   -0.8348   -0.2597    0.0000 H   0  0  0  0  0  0  0  0  0  0  0  0
  1  2  1  0
  2  3  1  0
M  RAD  1   1   2
M  END
>  <reaction>  (2) 
rxn_723

>  <mol_properties>  (2) 
{"0": {"label": "acceptor", "atom_type": "O2s"}}

>  <type>  (2) 
r2

$$$$

     RDKit          3D

  4  3  0  0  0  0  0  0  0  0999 V2000
    0.5949   -0.3853    0.2659 O   0  0  0  0  0  0  0  0  0  0  0  0
   -0.5918    0.4028    0.2462 O   0  0  0  0  0  0  0  0  0  0  0  0
    1.1865    0.1539   -0.2689 H   0  0  0  0  0  0  0  0  0  0  0  0
   -1.1896   -0.1714   -0.2432 H   0  0  0  0  0  0  0  0  0  0  0  0
  1  2  1  0
  1  3  1  0
  2  4  1  0
M  END
>  <reaction>  (3) 
rxn_723

>  <mol_properties>  (3) 
{"0": {"label": "acceptor", "atom_type": "O2s"}, "3": {"label": "a_hydrogen", "atom_type": "H0"}}

>  <type>  (3) 
r2h

$$$$

     RDKit          3D

 10  8  0  0  0  0  0  0  0  0999 V2000
   -0.0927    0.6786    1.7620 O   0  0  0  0  0  0  0  0  0  0  0  0
   -0.4844   -0.6375    1.6713 O   0  0  0  0  0  0  0  0  0  0  0  0
    0.3477   -1.1210    1.5922 H   0  0  0  0  0  0  0  0  0  0  0  0
    0.2432    1.1127   -0.5768 N   0  0  0  0  0  2  0  0  0  0  0  0
    0.4242   -0.1166   -1.0336 N   0  0  0  0  0  0  0  0  0  0  0  0
    0.3730   -0.4408   -2.2578 C   0  0  0  0  0  0  0  0  0  0  0  0
    0.1666    1.0089    0.6737 H   0  0  0  0  0  0  0  0  0  0  0  0
   -0.6453    1.4983   -0.9018 H   0  0  0  0  0  0  0  0  0  0  0  0
    0.5232   -1.4815   -2.5144 H   0  0  0  0  0  0  0  0  0  0  0  0
    0.2078    0.2890   -3.0512 H   0  0  0  0  0  0  0  0  0  0  0  0
  1  2  1  0
  1  7  1  0
  2  3  1  0
  4  5  1  0
  4  8  1  0
  5  6  2  3
  6  9  1  0
  6 10  1  0
M  RAD  1   4   2
M  END
>  <reaction>  (4) 
rxn_723

>  <mol_properties>  (4) 
{"0": {"label": "*1", "atom_type": "O2s"}, "1": {"label": "*0", "atom_type": "O2s"}, "3": {"label": "*3", "atom_type": "N3s"}, "4": {"label": "*4", "atom_type": "N3d"}, "6": {"label": "*2", "atom_type": "H0"}}

>  <type>  (4) 
ts

$$$$
