
     RDKit          3D

  6  5  0  0  0  0  0  0  0  0999 V2000
   -0.5072   -0.0291   -0.0097 C   0  0  0  0  0  0  0  0  0  0  0  0
    1.1321   -0.1527   -0.7687 S   0  0  0  0  0  0  0  0  0  0  0  0
   -0.6174   -0.7330    0.8127 H   0  0  0  0  0  0  0  0  0  0  0  0
   -0.5863    0.9827    0.3845 H   0  0  0  0  0  0  0  0  0  0  0  0
   -1.2962   -0.1800   -0.7434 H   0  0  0  0  0  0  0  0  0  0  0  0
    1.0312   -1.4237   -1.1764 H   0  0  0  0  0  0  0  0  0  0  0  0
  1  2  1  0
  1  3  1  0
  1  4  1  0
  1  5  1  0
  2  6  1  0
M  END
>  <reaction>  (1) 
rxn_1854

>  <mol_properties>  (1) 
{"0": {"label": "donator", "atom_type": "Cs"}, "2": {"label": "d_hydrogen", "atom_type": "H0"}}

>  <type>  (1) 
r1h

$$$$

     RDKit          3D

  7  6  0  0  0  0  0  0  0  0999 V2000
   -2.0652    0.3855   -0.2963 S   0  0  0  0  0  0  0  0  0  0  0  0
   -0.7169   -0.5853    0.1792 C   0  0  0  0  0  3  0  0  0  0  0  0
    0.5987   -0.2168    0.0254 C   0  0  0  0  0  0  0  0  0  0  0  0
    1.7547    0.1211   -0.1163 C   0  0  0  0  0  0  0  0  0  0  0  0
   -1.3643    1.4227   -0.7731 H   0  0  0  0  0  0  0  0  0  0  0  0
   -0.9781   -1.5363    0.6220 H   0  0  0  0  0  0  0  0  0  0  0  0
    2.7711    0.4089   -0.2366 H   0  0  0  0  0  0  0  0  0  0  0  0
  1  2  1  0
  1  5  1  0
  2  3  1  0
  2  6  1  0
  3  4  3  0
  4  7  1  0
M  RAD  1   2   2
M  END
>  <reaction>  (2) 
rxn_1854

>  <mol_properties>  (2) 
{"1": {"label": "acceptor", "atom_type": "Cs"}}

>  <type>  (2) 
r2

$$$$

     RDKit          3D

  8  7  0  0  0  0  0  0  0  0999 V2000
   -0.7014    1.0753    1.5530 S   0  0  0  0  0  0  0  0  0  0  0  0
   -0.3105   -0.4583    0.6462 C   0  0  0  0  0  0  0  0  0  0  0  0
    0.0935   -0.2424   -0.7319 C   0  0  0  0  0  0  0  0  0  0  0  0
    0.4431   -0.0604   -1.8621 C   0  0  0  0  0  0  0  0  0  0  0  0
    0.4994    1.6466    1.3970 H   0  0  0  0  0  0  0  0  0  0  0  0
   -1.2277   -1.0477    0.6819 H   0  0  0  0  0  0  0  0  0  0  0  0
    0.4563   -1.0151    1.1841 H   0  0  0  0  0  0  0  0  0  0  0  0
    0.7474    0.1020   -2.8681 H   0  0  0  0  0  0  0  0  0  0  0  0
  1  2  1  0
  1  5  1  0
  2  3  1  0
  2  6  1  0
  2  7  1  0
  3  4  3  0
  4  8  1  0
M  END
>  <reaction>  (3) 
rxn_1854

>  <mol_properties>  (3) 
{"1": {"label": "acceptor", "atom_type": "Cs"}, "7": {"label": "a_hydrogen", "atom_type": "H0"}}

>  <type>  (3) 
r2h

$$$$

     RDKit          3D

 13 11  0  0  0  0  0  0  0  0999 V2000
   -1.6800    1.4196    0.4900 S   0  0  0  0  0  0  0  0  0  0  0  0
   -0.4965    0.4762    1.4445 C   0  0  0  0  0  0  0  0  0  0  0  0
    0.8217    1.0121    1.5644 C   0  0  0  0  0  0  0  0  0  0  0  0
    1.9582    1.4004    1.6046 C   0  0  0  0  0  0  0  0  0  0  0  0
   -0.9468    1.4634   -0.6323 H   0  0  0  0  0  0  0  0  0  0  0  0
   -0.9483    0.1992    2.3948 H   0  0  0  0  0  0  0  0  0  0  0  0
    2.9525    1.7727    1.6657 H   0  0  0  0  0  0  0  0  0  0  0  0
   -0.0765   -1.7597    0.0005 C   0  0  0  0  0  3  0  0  0  0  0  0
    0.6089   -1.1399   -1.4930 S   0  0  0  0  0  0  0  0  0  0  0  0
   -0.3426   -0.6571    0.8139 H   0  0  0  0  0  0  0  0  0  0  0  0
   -1.0523   -2.2028   -0.1761 H   0  0  0  0  0  0  0  0  0  0  0  0
    0.5864   -2.3773    0.5993 H   0  0  0  0  0  0  0  0  0  0  0  0
    1.7836   -0.7429   -0.9849 H   0  0  0  0  0  0  0  0  0  0  0  0
  1  2  1  0
  1  5  1  0
  2  3  1  0
  2  6  1  0
  2 10  1  0
  3  4  3  0
  4  7  1  0
  8  9  1  0
  8 11  1  0
  8 12  1  0
  9 13  1  0
M  RAD  1   8   2
M  END
>  <reaction>  (4) 
rxn_1854

>  <mol_properties>  (4) 
{"0": {"label": "*0", "atom_type": "S2s"}, "1": {"label": "*1", "atom_type": "Cs"}, "7": {"label": "*3", "atom_type": "Cs"}, "8": {"label": "*4", "atom_type": "S2s"}, "9": {"label": "*2", "atom_type": "H0"}}

>  <type>  (4) 
ts

$$$$
