
     RDKit          3D

 15 15  0  0  0  0  0  0  0  0999 V2000
    2.2031   -0.2111   -0.1693 C   0  0  0  0  0  0  0  0  0  0  0  0
    0.7140   -0.0314   -0.0623 C   0  0  0  0  0  0  0  0  0  0  0  0
   -0.0114    0.5491   -1.0982 C   0  0  0  0  0  0  0  0  0  0  0  0
   -1.3882    0.6886   -1.0150 C   0  0  0  0  0  0  0  0  0  0  0  0
   -2.0661    0.2493    0.1118 C   0  0  0  0  0  0  0  0  0  0  0  0
   -1.3551   -0.3278    1.1528 C   0  0  0  0  0  0  0  0  0  0  0  0
    0.0216   -0.4648    1.0642 C   0  0  0  0  0  0  0  0  0  0  0  0
    2.6776   -0.1836    0.8122 H   0  0  0  0  0  0  0  0  0  0  0  0
    2.4446   -1.1749   -0.6249 H   0  0  0  0  0  0  0  0  0  0  0  0
    2.6532    0.5664   -0.7875 H   0  0  0  0  0  0  0  0  0  0  0  0
    0.5104    0.8989   -1.9819 H   0  0  0  0  0  0  0  0  0  0  0  0
   -1.9328    1.1452   -1.8322 H   0  0  0  0  0  0  0  0  0  0  0  0
   -3.1409    0.3597    0.1800 H   0  0  0  0  0  0  0  0  0  0  0  0
   -1.8736   -0.6702    2.0398 H   0  0  0  0  0  0  0  0  0  0  0  0
    0.5695   -0.9141    1.8849 H   0  0  0  0  0  0  0  0  0  0  0  0
  1  2  1  0
  1  8  1  0
  1  9  1  0
  1 10  1  0
  2  3  2  0
  2  7  1  0
  3  4  1  0
  3 11  1  0
  4  5  2  0
  4 12  1  0
  5  6  1  0
  5 13  1  0
  6  7  2  0
  6 14  1  0
  7 15  1  0
M  END
>  <reaction>  (1) 
rxn_260

>  <mol_properties>  (1) 
{"4": {"label": "donator", "atom_type": "Cd"}, "12": {"label": "d_hydrogen", "atom_type": "H0"}}

>  <type>  (1) 
r1h

$$$$

     RDKit          3D

  2  1  0  0  0  0  0  0  0  0999 V2000
    0.0000    0.0000    0.4855 O   0  0  0  0  0  1  0  0  0  0  0  0
    0.0000    0.0000   -0.4855 H   0  0  0  0  0  0  0  0  0  0  0  0
  1  2  1  0
M  RAD  1   1   2
M  END
>  <reaction>  (2) 
rxn_260

>  <mol_properties>  (2) 
{"0": {"label": "acceptor", "atom_type": "O2s"}}

>  <type>  (2) 
r2

$$$$

     RDKit          3D

  3  2  0  0  0  0  0  0  0  0999 V2000
   -0.0003    0.3867    0.0000 O   0  0  0  0  0  0  0  0  0  0  0  0
   -0.7617   -0.1940    0.0000 H   0  0  0  0  0  0  0  0  0  0  0  0
    0.7620   -0.1927    0.0000 H   0  0  0  0  0  0  0  0  0  0  0  0
  1  2  1  0
  1  3  1  0
M  END
>  <reaction>  (3) 
rxn_260

>  <mol_properties>  (3) 
{"0": {"label": "a_hydrogen", "atom_type": "H0"}, "1": {"label": "acceptor", "atom_type": "O2s"}}

>  <type>  (3) 
r2h

$$$$

     RDKit          3D

 17 16  0  0  0  0  0  0  0  0999 V2000
    0.0762   -0.0282   -3.0934 C   0  0  0  0  0  0  0  0  0  0  0  0
    0.0325    0.0053   -1.5906 C   0  0  0  0  0  0  0  0  0  0  0  0
    0.2724    1.1898   -0.8995 C   0  0  0  0  0  0  0  0  0  0  0  0
    0.2065    1.2376    0.4871 C   0  0  0  0  0  0  0  0  0  0  0  0
   -0.1118    0.0818    1.1654 C   0  0  0  0  0  0  0  0  0  0  0  0
   -0.3431   -1.1147    0.5236 C   0  0  0  0  0  0  0  0  0  0  0  0
   -0.2725   -1.1419   -0.8633 C   0  0  0  0  0  0  0  0  0  0  0  0
    0.7762    0.7095   -3.4865 H   0  0  0  0  0  0  0  0  0  0  0  0
    0.3748   -1.0108   -3.4597 H   0  0  0  0  0  0  0  0  0  0  0  0
   -0.9080    0.1949   -3.5126 H   0  0  0  0  0  0  0  0  0  0  0  0
    0.5176    2.0899   -1.4518 H   0  0  0  0  0  0  0  0  0  0  0  0
    0.3954    2.1606    1.0197 H   0  0  0  0  0  0  0  0  0  0  0  0
   -0.2111    0.1241    2.3916 H   0  0  0  0  0  0  0  0  0  0  0  0
   -0.5791   -2.0098    1.0844 H   0  0  0  0  0  0  0  0  0  0  0  0
   -0.4553   -2.0733   -1.3871 H   0  0  0  0  0  0  0  0  0  0  0  0
    0.0071    0.0924    3.6318 O   0  0  0  0  0  1  0  0  0  0  0  0
    0.9482   -0.1276    3.6280 H   0  0  0  0  0  0  0  0  0  0  0  0
  1  2  1  0
  1  8  1  0
  1  9  1  0
  1 10  1  0
  2  3  2  0
  2  7  1  0
  3  4  1  0
  3 11  1  0
  4  5  2  0
  4 12  1  0
  5  6  1  0
  5 13  1  0
  6  7  2  0
  6 14  1  0
  7 15  1  0
 16 17  1  0
M  RAD  1  16   2
M  END
>  <reaction>  (4) 
rxn_260

>  <mol_properties>  (4) 
{"3": {"label": "*0", "atom_type": "Cd"}, "4": {"label": "*1", "atom_type": "Cd"}, "12": {"label": "*2", "atom_type": "H0"}, "15": {"label": "*3", "atom_type": "O2s"}, "16": {"label": "*4", "atom_type": "H0"}}

>  <type>  (4) 
ts

$$$$
