
     RDKit          3D

  4  3  0  0  0  0  0  0  0  0999 V2000
    0.5949   -0.3853    0.2659 O   0  0  0  0  0  0  0  0  0  0  0  0
   -0.5918    0.4028    0.2462 O   0  0  0  0  0  0  0  0  0  0  0  0
    1.1865    0.1539   -0.2689 H   0  0  0  0  0  0  0  0  0  0  0  0
   -1.1896   -0.1714   -0.2432 H   0  0  0  0  0  0  0  0  0  0  0  0
  1  2  1  0
  1  3  1  0
  2  4  1  0
M  END
>  <reaction>  (1) 
rxn_1

>  <mol_properties>  (1) 
{"1": {"label": "donator", "atom_type": "O2s"}, "3": {"label": "d_hydrogen", "atom_type": "H0"}}

>  <type>  (1) 
r1h

$$$$

     RDKit          3D

 14 13  0  0  0  0  0  0  0  0999 V2000
    1.8723   -0.8502   -0.3519 C   0  0  0  0  0  0  0  0  0  0  0  0
    0.4391   -0.6410   -0.0310 C   0  0  0  0  0  3  0  0  0  0  0  0
   -0.3227   -1.5974    0.8174 C   0  0  0  0  0  0  0  0  0  0  0  0
   -1.8136   -1.6058    0.5014 C   0  0  0  0  0  0  0  0  0  0  0  0
   -2.0845   -2.0603   -0.8067 O   0  0  0  0  0  0  0  0  0  0  0  0
    2.0632   -1.8813   -0.6642 H   0  0  0  0  0  0  0  0  0  0  0  0
    2.2159   -0.1816   -1.1421 H   0  0  0  0  0  0  0  0  0  0  0  0
    2.5136   -0.6699    0.5238 H   0  0  0  0  0  0  0  0  0  0  0  0
    0.0049    0.3407   -0.1979 H   0  0  0  0  0  0  0  0  0  0  0  0
   -0.2003   -1.3444    1.8831 H   0  0  0  0  0  0  0  0  0  0  0  0
    0.0757   -2.6099    0.6958 H   0  0  0  0  0  0  0  0  0  0  0  0
   -2.3395   -2.2842    1.1742 H   0  0  0  0  0  0  0  0  0  0  0  0
   -2.2255   -0.5987    0.6571 H   0  0  0  0  0  0  0  0  0  0  0  0
   -1.5207   -1.5668   -1.4077 H   0  0  0  0  0  0  0  0  0  0  0  0
  1  2  1  0
  1  6  1  0
  1  7  1  0
  1  8  1  0
  2  3  1  0
  2  9  1  0
  3  4  1  0
  3 10  1  0
  3 11  1  0
  4  5  1  0
  4 12  1  0
  4 13  1  0
  5 14  1  0
M  RAD  1   2   2
M  END
>  <reaction>  (2) 
rxn_1

>  <mol_properties>  (2) 
{"1": {"label": "acceptor", "atom_type": "Cs"}}

>  <type>  (2) 
r2

$$$$

     RDKit          3D

 15 14  0  0  0  0  0  0  0  0999 V2000
   -2.2618    0.1177   -0.2204 C   0  0  0  0  0  0  0  0  0  0  0  0
   -0.8307    0.6124   -0.3805 C   0  0  0  0  0  0  0  0  0  0  0  0
   -0.4944    1.7618    0.5615 C   0  0  0  0  0  0  0  0  0  0  0  0
    0.9172    2.3011    0.3897 C   0  0  0  0  0  0  0  0  0  0  0  0
    1.1609    2.8330   -0.8989 O   0  0  0  0  0  0  0  0  0  0  0  0
   -2.9781    0.9158   -0.4300 H   0  0  0  0  0  0  0  0  0  0  0  0
   -2.4760   -0.7079   -0.9008 H   0  0  0  0  0  0  0  0  0  0  0  0
   -2.4470   -0.2324    0.7981 H   0  0  0  0  0  0  0  0  0  0  0  0
   -0.6600    0.9333   -1.4104 H   0  0  0  0  0  0  0  0  0  0  0  0
   -0.1335   -0.2114   -0.1978 H   0  0  0  0  0  0  0  0  0  0  0  0
   -0.6152    1.4377    1.6009 H   0  0  0  0  0  0  0  0  0  0  0  0
   -1.2104    2.5804    0.4144 H   0  0  0  0  0  0  0  0  0  0  0  0
    1.6427    1.4942    0.5142 H   0  0  0  0  0  0  0  0  0  0  0  0
    1.1261    3.0513    1.1627 H   0  0  0  0  0  0  0  0  0  0  0  0
    0.5617    3.5677   -1.0406 H   0  0  0  0  0  0  0  0  0  0  0  0
  1  2  1  0
  1  6  1  0
  1  7  1  0
  1  8  1  0
  2  3  1  0
  2  9  1  0
  2 10  1  0
  3  4  1  0
  3 11  1  0
  3 12  1  0
  4  5  1  0
  4 13  1  0
  4 14  1  0
  5 15  1  0
M  END
>  <reaction>  (3) 
rxn_1

>  <mol_properties>  (3) 
{"0": {"label": "a_hydrogen", "atom_type": "H0"}, "2": {"label": "acceptor", "atom_type": "Cs"}}

>  <type>  (3) 
r2h

$$$$

     RDKit          3D

 18 16  0  0  0  0  0  0  0  0999 V2000
   -0.5803   -1.8373   -0.7048 O   0  0  0  0  0  0  0  0  0  0  0  0
   -0.1099   -1.7479    0.5975 O   0  0  0  0  0  0  0  0  0  0  0  0
    0.0679   -1.3031   -1.1950 H   0  0  0  0  0  0  0  0  0  0  0  0
   -0.4046   -0.6776    0.9495 H   0  0  0  0  0  0  0  0  0  0  0  0
   -1.9051    0.8388    0.2712 C   0  0  0  0  0  0  0  0  0  0  0  0
   -0.7226    0.6293    1.1727 C   0  0  0  0  0  3  0  0  0  0  0  0
    0.5224    1.4483    0.8913 C   0  0  0  0  0  0  0  0  0  0  0  0
    1.5687    0.7936   -0.0084 C   0  0  0  0  0  0  0  0  0  0  0  0
    1.0719    0.4001   -1.2810 O   0  0  0  0  0  0  0  0  0  0  0  0
   -1.6394    0.6817   -0.7754 H   0  0  0  0  0  0  0  0  0  0  0  0
   -2.7181    0.1549    0.5137 H   0  0  0  0  0  0  0  0  0  0  0  0
   -2.2829    1.8639    0.3704 H   0  0  0  0  0  0  0  0  0  0  0  0
   -0.9845    0.5748    2.2286 H   0  0  0  0  0  0  0  0  0  0  0  0
    1.0289    1.6961    1.8275 H   0  0  0  0  0  0  0  0  0  0  0  0
    0.2242    2.4051    0.4409 H   0  0  0  0  0  0  0  0  0  0  0  0
    2.4175    1.4749   -0.1318 H   0  0  0  0  0  0  0  0  0  0  0  0
    1.9339   -0.1238    0.4502 H   0  0  0  0  0  0  0  0  0  0  0  0
    0.7515    1.1731   -1.7485 H   0  0  0  0  0  0  0  0  0  0  0  0
  1  2  1  0
  1  3  1  0
  2  4  1  0
  5  6  1  0
  5 10  1  0
  5 11  1  0
  5 12  1  0
  6  7  1  0
  6 13  1  0
  7  8  1  0
  7 14  1  0
  7 15  1  0
  8  9  1  0
  8 16  1  0
  8 17  1  0
  9 18  1  0
M  RAD  1   6   2
M  END
>  <reaction>  (4) 
rxn_1

>  <mol_properties>  (4) 
{"0": {"label": "*0", "atom_type": "O2s"}, "1": {"label": "*1", "atom_type": "O2s"}, "3": {"label": "*2", "atom_type": "H0"}, "5": {"label": "*3", "atom_type": "Cs"}, "6": {"label": "*4", "atom_type": "Cs"}}

>  <type>  (4) 
ts

$$$$
