
     RDKit          3D

 25 26  0  0  0  0  0  0  0  0999 V2000
    2.0298   -1.1515    0.0571 C   0  0  0  0  0  0  0  0  0  0  0  0
    2.2278    0.2445    0.6528 C   0  0  0  0  0  0  0  0  0  0  0  0
    1.2292    1.2625    0.0947 C   0  0  0  0  0  0  0  0  0  0  0  0
   -0.1869    0.7454    0.2762 C   0  0  0  0  0  0  0  0  0  0  0  0
   -1.3415    1.5501   -0.3122 C   0  0  0  0  0  0  0  0  0  0  0  0
   -2.5060    0.5338   -0.4178 C   0  0  0  0  0  0  0  0  0  0  0  0
   -1.8709   -0.8658   -0.2234 C   0  0  0  0  0  0  0  0  0  0  0  0
   -0.3715   -0.6265   -0.3693 C   0  0  0  0  0  0  0  0  0  0  0  0
    0.5898   -1.6500    0.2086 C   0  0  0  0  0  0  0  0  0  0  0  0
    2.2820   -1.1226   -1.0088 H   0  0  0  0  0  0  0  0  0  0  0  0
    2.7243   -1.8549    0.5221 H   0  0  0  0  0  0  0  0  0  0  0  0
    2.1030    0.1885    1.7400 H   0  0  0  0  0  0  0  0  0  0  0  0
    3.2514    0.5819    0.4743 H   0  0  0  0  0  0  0  0  0  0  0  0
    1.3611    2.2304    0.5855 H   0  0  0  0  0  0  0  0  0  0  0  0
    1.4198    1.4194   -0.9737 H   0  0  0  0  0  0  0  0  0  0  0  0
   -0.3675    0.6209    1.3539 H   0  0  0  0  0  0  0  0  0  0  0  0
   -1.5992    2.4249    0.2862 H   0  0  0  0  0  0  0  0  0  0  0  0
   -1.0595    1.9116   -1.3055 H   0  0  0  0  0  0  0  0  0  0  0  0
   -3.2666    0.7244    0.3399 H   0  0  0  0  0  0  0  0  0  0  0  0
   -3.0030    0.6112   -1.3853 H   0  0  0  0  0  0  0  0  0  0  0  0
   -2.2549   -1.6039   -0.9288 H   0  0  0  0  0  0  0  0  0  0  0  0
   -2.0796   -1.2429    0.7821 H   0  0  0  0  0  0  0  0  0  0  0  0
   -0.1432   -0.5121   -1.4391 H   0  0  0  0  0  0  0  0  0  0  0  0
    0.4720   -2.6209   -0.2799 H   0  0  0  0  0  0  0  0  0  0  0  0
    0.3601   -1.7986    1.2704 H   0  0  0  0  0  0  0  0  0  0  0  0
  1  2  1  0
  1  9  1  0
  1 10  1  0
  1 11  1  0
  2  3  1  0
  2 12  1  0
  2 13  1  0
  3  4  1  0
  3 14  1  0
  3 15  1  0
  4  5  1  0
  4  8  1  0
  4 16  1  0
  5  6  1  0
  5 17  1  0
  5 18  1  0
  6  7  1  0
  6 19  1  0
  6 20  1  0
  7  8  1  0
  7 21  1  0
  7 22  1  0
  8  9  1  0
  8 23  1  0
  9 24  1  0
  9 25  1  0
M  END
>  <reaction>  (1) 
rxn_581

>  <mol_properties>  (1) 
{"3": {"label": "donator", "atom_type": "Cs"}, "17": {"label": "d_hydrogen", "atom_type": "H0"}}

>  <type>  (1) 
r1h

$$$$

     RDKit          3D

  8  7  0  0  0  0  0  0  0  0999 V2000
   -1.2262   -0.1032    0.0429 C   0  0  0  0  0  0  0  0  0  0  0  0
    0.0344    0.4295    0.2005 C   0  0  0  0  0  0  0  0  0  0  0  0
    1.2024   -0.1933   -0.1813 C   0  0  0  0  0  3  0  0  0  0  0  0
   -2.1090    0.4329    0.3624 H   0  0  0  0  0  0  0  0  0  0  0  0
   -1.3659   -1.0784   -0.4078 H   0  0  0  0  0  0  0  0  0  0  0  0
    0.1132    1.4113    0.6589 H   0  0  0  0  0  0  0  0  0  0  0  0
    2.1658    0.2743   -0.0323 H   0  0  0  0  0  0  0  0  0  0  0  0
    1.1853   -1.1731   -0.6434 H   0  0  0  0  0  0  0  0  0  0  0  0
  1  2  2  3
  1  4  1  0
  1  5  1  0
  2  3  1  0
  2  6  1  0
  3  7  1  0
  3  8  1  0
M  RAD  1   3   2
M  END
>  <reaction>  (2) 
rxn_581

>  <mol_properties>  (2) 
{"1": {"label": "acceptor", "atom_type": "Cs"}}

>  <type>  (2) 
r2

$$$$

     RDKit          3D

  9  8  0  0  0  0  0  0  0  0999 V2000
    1.1303   -0.2933   -0.7510 C   0  0  0  0  0  0  0  0  0  0  0  0
    0.2866    0.4560   -0.0588 C   0  0  0  0  0  0  0  0  0  0  0  0
   -0.9719   -0.0331    0.5823 C   0  0  0  0  0  0  0  0  0  0  0  0
    2.0274    0.1230   -1.1916 H   0  0  0  0  0  0  0  0  0  0  0  0
    0.9532   -1.3530   -0.9023 H   0  0  0  0  0  0  0  0  0  0  0  0
    0.5065    1.5132    0.0659 H   0  0  0  0  0  0  0  0  0  0  0  0
   -0.9526    0.1426    1.6610 H   0  0  0  0  0  0  0  0  0  0  0  0
   -1.1182   -1.1002    0.4106 H   0  0  0  0  0  0  0  0  0  0  0  0
   -1.8412    0.5010    0.1901 H   0  0  0  0  0  0  0  0  0  0  0  0
  1  2  2  3
  1  4  1  0
  1  5  1  0
  2  3  1  0
  2  6  1  0
  3  7  1  0
  3  8  1  0
  3  9  1  0
M  END
>  <reaction>  (3) 
rxn_581

>  <mol_properties>  (3) 
{"1": {"label": "acceptor", "atom_type": "Cs"}, "3": {"label": "a_hydrogen", "atom_type": "H0"}}

>  <type>  (3) 
r2h

$$$$

     RDKit          3D

 33 33  0  0  0  0  0  0  0  0999 V2000
   -0.3285    0.6748   -0.1124 C   0  0  0  0  0  0  0  0  0  0  0  0
   -1.3209   -0.4427   -0.4514 C   0  0  0  0  0  0  0  0  0  0  0  0
   -1.0542    1.9217    0.3927 C   0  0  0  0  0  0  0  0  0  0  0  0
    0.5451    0.7881   -1.3417 C   0  0  0  0  0  3  0  0  0  0  0  0
   -0.4866   -1.4007   -1.2937 C   0  0  0  0  0  0  0  0  0  0  0  0
   -1.9862   -0.9718    0.8175 C   0  0  0  0  0  0  0  0  0  0  0  0
   -2.1762    0.1595    1.8513 C   0  0  0  0  0  0  0  0  0  0  0  0
   -2.3208    1.5279    1.1822 C   0  0  0  0  0  0  0  0  0  0  0  0
    0.3200   -0.4526   -2.1949 C   0  0  0  0  0  0  0  0  0  0  0  0
    2.8853   -0.4628    0.7395 C   0  0  0  0  0  0  0  0  0  0  0  0
    3.0348    0.4274   -0.4039 C   0  0  0  0  0  0  0  0  0  0  0  0
    2.8800   -1.7981    0.6791 C   0  0  0  0  0  0  0  0  0  0  0  0
    0.2950    0.2864    0.7073 H   0  0  0  0  0  0  0  0  0  0  0  0
   -2.0908   -0.0093   -1.1032 H   0  0  0  0  0  0  0  0  0  0  0  0
   -3.0463   -0.0457    2.4775 H   0  0  0  0  0  0  0  0  0  0  0  0
   -1.3157    0.1881    2.5259 H   0  0  0  0  0  0  0  0  0  0  0  0
   -3.1796    1.4980    0.5053 H   0  0  0  0  0  0  0  0  0  0  0  0
   -2.5492    2.2903    1.9292 H   0  0  0  0  0  0  0  0  0  0  0  0
   -0.3847    2.5130    1.0224 H   0  0  0  0  0  0  0  0  0  0  0  0
   -1.3327    2.5582   -0.4519 H   0  0  0  0  0  0  0  0  0  0  0  0
    1.8430    0.6870   -0.8639 H   0  0  0  0  0  0  0  0  0  0  0  0
    0.5643    1.7459   -1.8581 H   0  0  0  0  0  0  0  0  0  0  0  0
   -0.2609   -0.1949   -3.0863 H   0  0  0  0  0  0  0  0  0  0  0  0
    1.2533   -0.8984   -2.5484 H   0  0  0  0  0  0  0  0  0  0  0  0
   -1.0822   -2.1195   -1.8582 H   0  0  0  0  0  0  0  0  0  0  0  0
    0.1891   -1.9610   -0.6406 H   0  0  0  0  0  0  0  0  0  0  0  0
   -1.3689   -1.7632    1.2521 H   0  0  0  0  0  0  0  0  0  0  0  0
   -2.9497   -1.4253    0.5724 H   0  0  0  0  0  0  0  0  0  0  0  0
    2.7161    0.0092    1.7038 H   0  0  0  0  0  0  0  0  0  0  0  0
    3.5126   -0.0202   -1.2740 H   0  0  0  0  0  0  0  0  0  0  0  0
    3.4298    1.4152   -0.1793 H   0  0  0  0  0  0  0  0  0  0  0  0
    2.7224   -2.4044    1.5615 H   0  0  0  0  0  0  0  0  0  0  0  0
    3.0435   -2.3202   -0.2577 H   0  0  0  0  0  0  0  0  0  0  0  0
  1  3  1  0
  1  4  1  0
  1  2  1  0
  1 13  1  0
  2  6  1  0
  2  5  1  0
  2 14  1  0
  3  8  1  0
  3 19  1  0
  3 20  1  0
  4  9  1  0
  4 22  1  0
  5  9  1  0
  5 25  1  0
  5 26  1  0
  6  7  1  0
  6 27  1  0
  6 28  1  0
  7  8  1  0
  7 15  1  0
  7 16  1  0
  8 17  1  0
  8 18  1  0
  9 23  1  0
  9 24  1  0
 10 12  2  3
 10 11  1  0
 10 29  1  0
 11 21  1  0
 11 30  1  0
 11 31  1  0
 12 32  1  0
 12 33  1  0
M  RAD  1   4   2
M  END
>  <reaction>  (4) 
rxn_581

>  <mol_properties>  (4) 
{"0": {"label": "*4", "atom_type": "Cs"}, "3": {"label": "*3", "atom_type": "Cs"}, "9": {"label": "*0", "atom_type": "Cd"}, "10": {"label": "*1", "atom_type": "Cs"}, "20": {"label": "*2", "atom_type": "H0"}}

>  <type>  (4) 
ts

$$$$
