
     RDKit          3D

 15 15  0  0  0  0  0  0  0  0999 V2000
    2.2031   -0.2111   -0.1693 C   0  0  0  0  0  0  0  0  0  0  0  0
    0.7140   -0.0314   -0.0623 C   0  0  0  0  0  0  0  0  0  0  0  0
   -0.0114    0.5491   -1.0982 C   0  0  0  0  0  0  0  0  0  0  0  0
   -1.3882    0.6886   -1.0150 C   0  0  0  0  0  0  0  0  0  0  0  0
   -2.0661    0.2493    0.1118 C   0  0  0  0  0  0  0  0  0  0  0  0
   -1.3551   -0.3278    1.1528 C   0  0  0  0  0  0  0  0  0  0  0  0
    0.0216   -0.4648    1.0642 C   0  0  0  0  0  0  0  0  0  0  0  0
    2.6776   -0.1836    0.8122 H   0  0  0  0  0  0  0  0  0  0  0  0
    2.4446   -1.1749   -0.6249 H   0  0  0  0  0  0  0  0  0  0  0  0
    2.6532    0.5664   -0.7875 H   0  0  0  0  0  0  0  0  0  0  0  0
    0.5104    0.8989   -1.9819 H   0  0  0  0  0  0  0  0  0  0  0  0
   -1.9328    1.1452   -1.8322 H   0  0  0  0  0  0  0  0  0  0  0  0
   -3.1409    0.3597    0.1800 H   0  0  0  0  0  0  0  0  0  0  0  0
   -1.8736   -0.6702    2.0398 H   0  0  0  0  0  0  0  0  0  0  0  0
    0.5695   -0.9141    1.8849 H   0  0  0  0  0  0  0  0  0  0  0  0
  1  2  1  0
  1  8  1  0
  1  9  1  0
  1 10  1  0
  2  3  2  0
  2  7  1  0
  3  4  1  0
  3 11  1  0
  4  5  2  0
  4 12  1  0
  5  6  1  0
  5 13  1  0
  6  7  2  0
  6 14  1  0
  7 15  1  0
M  END
>  <reaction>  (1) 
rxn_1467

>  <mol_properties>  (1) 
{"0": {"label": "donator", "atom_type": "Cs"}, "7": {"label": "d_hydrogen", "atom_type": "H0"}}

>  <type>  (1) 
r1h

$$$$

     RDKit          3D

  7  6  0  0  0  0  0  0  0  0999 V2000
   -2.0652    0.3855   -0.2963 S   0  0  0  0  0  0  0  0  0  0  0  0
   -0.7169   -0.5853    0.1792 C   0  0  0  0  0  3  0  0  0  0  0  0
    0.5987   -0.2168    0.0254 C   0  0  0  0  0  0  0  0  0  0  0  0
    1.7547    0.1211   -0.1163 C   0  0  0  0  0  0  0  0  0  0  0  0
   -1.3643    1.4227   -0.7731 H   0  0  0  0  0  0  0  0  0  0  0  0
   -0.9781   -1.5363    0.6220 H   0  0  0  0  0  0  0  0  0  0  0  0
    2.7711    0.4089   -0.2366 H   0  0  0  0  0  0  0  0  0  0  0  0
  1  2  1  0
  1  5  1  0
  2  3  1  0
  2  6  1  0
  3  4  3  0
  4  7  1  0
M  RAD  1   2   2
M  END
>  <reaction>  (2) 
rxn_1467

>  <mol_properties>  (2) 
{"1": {"label": "acceptor", "atom_type": "Cs"}}

>  <type>  (2) 
r2

$$$$

     RDKit          3D

  8  7  0  0  0  0  0  0  0  0999 V2000
   -0.7014    1.0753    1.5530 S   0  0  0  0  0  0  0  0  0  0  0  0
   -0.3105   -0.4583    0.6462 C   0  0  0  0  0  0  0  0  0  0  0  0
    0.0935   -0.2424   -0.7319 C   0  0  0  0  0  0  0  0  0  0  0  0
    0.4431   -0.0604   -1.8621 C   0  0  0  0  0  0  0  0  0  0  0  0
    0.4994    1.6466    1.3970 H   0  0  0  0  0  0  0  0  0  0  0  0
   -1.2277   -1.0477    0.6819 H   0  0  0  0  0  0  0  0  0  0  0  0
    0.4563   -1.0151    1.1841 H   0  0  0  0  0  0  0  0  0  0  0  0
    0.7474    0.1020   -2.8681 H   0  0  0  0  0  0  0  0  0  0  0  0
  1  2  1  0
  1  5  1  0
  2  3  1  0
  2  6  1  0
  2  7  1  0
  3  4  3  0
  4  8  1  0
M  END
>  <reaction>  (3) 
rxn_1467

>  <mol_properties>  (3) 
{"1": {"label": "acceptor", "atom_type": "Cs"}, "7": {"label": "a_hydrogen", "atom_type": "H0"}}

>  <type>  (3) 
r2h

$$$$

     RDKit          3D

 22 21  0  0  0  0  0  0  0  0999 V2000
   -0.9285   -2.1074    0.6751 S   0  0  0  0  0  0  0  0  0  0  0  0
   -0.6003   -0.9916    2.0274 C   0  0  0  0  0  0  0  0  0  0  0  0
   -1.5660    0.0214    2.2984 C   0  0  0  0  0  0  0  0  0  0  0  0
   -2.3264    0.9319    2.4899 C   0  0  0  0  0  0  0  0  0  0  0  0
   -1.1252   -1.1591   -0.2529 H   0  0  0  0  0  0  0  0  0  0  0  0
   -0.2998   -1.5662    2.9008 H   0  0  0  0  0  0  0  0  0  0  0  0
   -3.0204    1.7167    2.6718 H   0  0  0  0  0  0  0  0  0  0  0  0
    1.5264    0.4521    1.2180 C   0  0  0  0  0  0  0  0  0  0  0  0
    1.1895    0.6274   -0.1867 C   0  0  0  0  0  0  0  0  0  0  0  0
    0.2219    1.5635   -0.5745 C   0  0  0  0  0  3  0  0  0  0  0  0
   -0.1713    1.6721   -1.8964 C   0  0  0  0  0  0  0  0  0  0  0  0
    0.3922    0.8505   -2.8640 C   0  0  0  0  0  0  0  0  0  0  0  0
    1.3541   -0.0812   -2.4964 C   0  0  0  0  0  0  0  0  0  0  0  0
    1.7440   -0.1956   -1.1745 C   0  0  0  0  0  0  0  0  0  0  0  0
    0.5107   -0.3268    1.6955 H   0  0  0  0  0  0  0  0  0  0  0  0
    2.4163   -0.1325    1.4340 H   0  0  0  0  0  0  0  0  0  0  0  0
    1.4051    1.3231    1.8565 H   0  0  0  0  0  0  0  0  0  0  0  0
   -0.2279    2.1990    0.1791 H   0  0  0  0  0  0  0  0  0  0  0  0
   -0.9217    2.4012   -2.1755 H   0  0  0  0  0  0  0  0  0  0  0  0
    0.0851    0.9373   -3.8983 H   0  0  0  0  0  0  0  0  0  0  0  0
    1.7984   -0.7250   -3.2451 H   0  0  0  0  0  0  0  0  0  0  0  0
    2.4844   -0.9344   -0.8916 H   0  0  0  0  0  0  0  0  0  0  0  0
  1  2  1  0
  1  5  1  0
  2  3  1  0
  2  6  1  0
  2 15  1  0
  3  4  3  0
  4  7  1  0
  8  9  2  3
  8 16  1  0
  8 17  1  0
  9 10  1  0
  9 14  1  0
 10 11  1  0
 10 18  1  0
 11 12  2  0
 11 19  1  0
 12 13  1  0
 12 20  1  0
 13 14  2  0
 13 21  1  0
 14 22  1  0
M  RAD  1  10   2
M  END
>  <reaction>  (4) 
rxn_1467

>  <mol_properties>  (4) 
{"0": {"label": "*0", "atom_type": "S2s"}, "1": {"label": "*1", "atom_type": "Cs"}, "7": {"label": "*3", "atom_type": "Cd"}, "8": {"label": "*4", "atom_type": "Cd"}, "14": {"label": "*2", "atom_type": "H0"}}

>  <type>  (4) 
ts

$$$$
