
     RDKit          3D

  6  5  0  0  0  0  0  0  0  0999 V2000
    0.6594    0.0438   -0.0050 C   0  0  0  0  0  0  0  0  0  0  0  0
   -0.6594   -0.0438    0.0050 C   0  0  0  0  0  0  0  0  0  0  0  0
    1.1706    0.8681   -0.4881 H   0  0  0  0  0  0  0  0  0  0  0  0
    1.2824   -0.7051    0.4696 H   0  0  0  0  0  0  0  0  0  0  0  0
   -1.2824    0.7051   -0.4696 H   0  0  0  0  0  0  0  0  0  0  0  0
   -1.1706   -0.8681    0.4881 H   0  0  0  0  0  0  0  0  0  0  0  0
  1  2  2  3
  1  3  1  0
  1  4  1  0
  2  5  1  0
  2  6  1  0
M  END
>  <reaction>  (1) 
rxn_1603

>  <mol_properties>  (1) 
{"1": {"label": "donator", "atom_type": "Cd"}, "4": {"label": "d_hydrogen", "atom_type": "H0"}}

>  <type>  (1) 
r1h

$$$$

     RDKit          3D

  6  5  0  0  0  0  0  0  0  0999 V2000
   -0.5120    0.0788    0.0287 C   0  0  0  0  0  0  0  0  0  0  0  0
    0.8174   -0.5409    0.0937 C   0  0  0  0  0  3  0  0  0  0  0  0
    2.3072   -0.1796   -0.1880 S   0  0  0  0  0  0  0  0  0  0  0  0
   -1.1508   -0.5138   -0.6310 H   0  0  0  0  0  0  0  0  0  0  0  0
   -0.4886    1.1152   -0.3220 H   0  0  0  0  0  0  0  0  0  0  0  0
   -0.9732    0.0404    1.0187 H   0  0  0  0  0  0  0  0  0  0  0  0
  1  2  1  0
  1  4  1  0
  1  5  1  0
  1  6  1  0
  2  3  2  0
M  RAD  1   2   2
M  END
>  <reaction>  (2) 
rxn_1603

>  <mol_properties>  (2) 
{"1": {"label": "acceptor", "atom_type": "CS"}}

>  <type>  (2) 
r2

$$$$

     RDKit          3D

  7  6  0  0  0  0  0  0  0  0999 V2000
   -0.6782    0.0507    0.0301 C   0  0  0  0  0  0  0  0  0  0  0  0
    0.8092    0.0996    0.0213 C   0  0  0  0  0  0  0  0  0  0  0  0
    1.7473    0.7521    1.1507 S   0  0  0  0  0  0  0  0  0  0  0  0
   -1.0667    0.5456   -0.8653 H   0  0  0  0  0  0  0  0  0  0  0  0
   -1.0112   -0.9904   -0.0239 H   0  0  0  0  0  0  0  0  0  0  0  0
   -1.0920    0.5225    0.9188 H   0  0  0  0  0  0  0  0  0  0  0  0
    1.2740   -0.3620   -0.8520 H   0  0  0  0  0  0  0  0  0  0  0  0
  1  2  1  0
  1  4  1  0
  1  5  1  0
  1  6  1  0
  2  3  2  0
  2  7  1  0
M  END
>  <reaction>  (3) 
rxn_1603

>  <mol_properties>  (3) 
{"0": {"label": "a_hydrogen", "atom_type": "H0"}, "2": {"label": "acceptor", "atom_type": "CS"}}

>  <type>  (3) 
r2h

$$$$

     RDKit          3D

 12 10  0  0  0  0  0  0  0  0999 V2000
    0.3237   -1.7253   -2.2299 C   0  0  0  0  0  0  0  0  0  0  0  0
   -0.7409   -1.5718   -1.4829 C   0  0  0  0  0  3  0  0  0  0  0  0
    1.1444   -1.0127   -2.1884 H   0  0  0  0  0  0  0  0  0  0  0  0
    0.4355   -2.5616   -2.9177 H   0  0  0  0  0  0  0  0  0  0  0  0
   -0.6456   -0.3670   -0.6445 H   0  0  0  0  0  0  0  0  0  0  0  0
   -1.6325   -2.1830   -1.4069 H   0  0  0  0  0  0  0  0  0  0  0  0
   -1.5814    0.9787    0.9117 C   0  0  0  0  0  0  0  0  0  0  0  0
   -0.4448    0.6735    0.0092 C   0  0  0  0  0  0  0  0  0  0  0  0
    0.9192    1.4601   -0.2174 S   0  0  0  0  0  0  0  0  0  0  0  0
   -2.4948    1.0750    0.3173 H   0  0  0  0  0  0  0  0  0  0  0  0
   -1.4208    1.8871    1.4910 H   0  0  0  0  0  0  0  0  0  0  0  0
   -1.7403    0.1322    1.5862 H   0  0  0  0  0  0  0  0  0  0  0  0
  1  2  2  3
  1  3  1  0
  1  4  1  0
  2  6  1  0
  5  8  1  0
  7  8  1  0
  7 10  1  0
  7 11  1  0
  7 12  1  0
  8  9  2  0
M  RAD  1   2   2
M  END
>  <reaction>  (4) 
rxn_1603

>  <mol_properties>  (4) 
{"0": {"label": "*4", "atom_type": "Cd"}, "1": {"label": "*3", "atom_type": "Cd"}, "4": {"label": "*2", "atom_type": "H0"}, "7": {"label": "*1", "atom_type": "CS"}, "8": {"label": "*0", "atom_type": "S2d"}}

>  <type>  (4) 
ts

$$$$
