
     RDKit          3D

 13 12  0  0  0  0  0  0  0  0999 V2000
    2.2975   -0.6134    0.7685 C   0  0  0  0  0  0  0  0  0  0  0  0
    1.1676   -0.5248    0.3802 C   0  0  0  0  0  0  0  0  0  0  0  0
   -0.2109   -0.3926   -0.0948 C   0  0  0  0  0  0  0  0  0  0  0  0
   -0.2501    0.2584   -1.4808 C   0  0  0  0  0  0  0  0  0  0  0  0
   -1.0633    0.3831    0.9141 C   0  0  0  0  0  0  0  0  0  0  0  0
    3.2999   -0.6974    1.1133 H   0  0  0  0  0  0  0  0  0  0  0  0
   -0.6209   -1.4038   -0.1814 H   0  0  0  0  0  0  0  0  0  0  0  0
    0.3402   -0.3102   -2.1992 H   0  0  0  0  0  0  0  0  0  0  0  0
    0.1511    1.2724   -1.4369 H   0  0  0  0  0  0  0  0  0  0  0  0
   -1.2791    0.3109   -1.8407 H   0  0  0  0  0  0  0  0  0  0  0  0
   -0.6861    1.4008    1.0287 H   0  0  0  0  0  0  0  0  0  0  0  0
   -1.0492   -0.0971    1.8924 H   0  0  0  0  0  0  0  0  0  0  0  0
   -2.0971    0.4363    0.5680 H   0  0  0  0  0  0  0  0  0  0  0  0
  1  2  3  0
  1  6  1  0
  2  3  1  0
  3  4  1  0
  3  5  1  0
  3  7  1  0
  4  8  1  0
  4  9  1  0
  4 10  1  0
  5 11  1  0
  5 12  1  0
  5 13  1  0
M  END
>  <reaction>  (1) 
rxn_1320

>  <mol_properties>  (1) 
{"2": {"label": "donator", "atom_type": "Cs"}, "6": {"label": "d_hydrogen", "atom_type": "H0"}}

>  <type>  (1) 
r1h

$$$$

     RDKit          3D

  9  8  0  0  0  0  0  0  0  0999 V2000
    1.8963   -0.1405   -0.2150 C   0  0  0  0  0  0  0  0  0  0  0  0
    0.6340    0.1486   -0.2254 C   0  0  0  0  0  3  0  0  0  0  0  0
   -0.6770    0.4501   -0.2373 C   0  0  0  0  0  0  0  0  0  0  0  0
   -1.6600   -0.2303    0.4662 C   0  0  0  0  0  0  0  0  0  0  0  0
    2.3274   -0.8354   -0.9313 H   0  0  0  0  0  0  0  0  0  0  0  0
    2.5751    0.2988    0.5117 H   0  0  0  0  0  0  0  0  0  0  0  0
   -0.9723    1.2966   -0.8520 H   0  0  0  0  0  0  0  0  0  0  0  0
   -2.6934    0.0777    0.4015 H   0  0  0  0  0  0  0  0  0  0  0  0
   -1.4140   -1.0782    1.0904 H   0  0  0  0  0  0  0  0  0  0  0  0
  1  2  2  3
  1  5  1  0
  1  6  1  0
  2  3  1  0
  3  4  2  3
  3  7  1  0
  4  8  1  0
  4  9  1  0
M  RAD  1   2   2
M  END
>  <reaction>  (2) 
rxn_1320

>  <mol_properties>  (2) 
{"1": {"label": "acceptor", "atom_type": "Cd"}}

>  <type>  (2) 
r2

$$$$

     RDKit          3D

 10  9  0  0  0  0  0  0  0  0999 V2000
    1.8334    0.0847   -0.1062 C   0  0  0  0  0  0  0  0  0  0  0  0
    0.5993   -0.4071   -0.0750 C   0  0  0  0  0  0  0  0  0  0  0  0
   -0.5993    0.4071    0.0750 C   0  0  0  0  0  0  0  0  0  0  0  0
   -1.8334   -0.0847    0.1062 C   0  0  0  0  0  0  0  0  0  0  0  0
    2.0179    1.1498   -0.0189 H   0  0  0  0  0  0  0  0  0  0  0  0
    2.6972   -0.5572   -0.2194 H   0  0  0  0  0  0  0  0  0  0  0  0
    0.4465   -1.4793   -0.1649 H   0  0  0  0  0  0  0  0  0  0  0  0
   -0.4465    1.4793    0.1649 H   0  0  0  0  0  0  0  0  0  0  0  0
   -2.0179   -1.1498    0.0189 H   0  0  0  0  0  0  0  0  0  0  0  0
   -2.6972    0.5572    0.2194 H   0  0  0  0  0  0  0  0  0  0  0  0
  1  2  2  3
  1  5  1  0
  1  6  1  0
  2  3  1  0
  2  7  1  0
  3  4  2  3
  3  8  1  0
  4  9  1  0
  4 10  1  0
M  END
>  <reaction>  (3) 
rxn_1320

>  <mol_properties>  (3) 
{"0": {"label": "a_hydrogen", "atom_type": "H0"}, "2": {"label": "acceptor", "atom_type": "Cd"}}

>  <type>  (3) 
r2h

$$$$

     RDKit          3D

 22 20  0  0  0  0  0  0  0  0999 V2000
   -0.9256    0.8399   -2.8606 C   0  0  0  0  0  0  0  0  0  0  0  0
   -0.5408    0.9624   -1.7295 C   0  0  0  0  0  0  0  0  0  0  0  0
   -0.0807    1.0827   -0.3675 C   0  0  0  0  0  0  0  0  0  0  0  0
   -1.0489    1.8409    0.5271 C   0  0  0  0  0  0  0  0  0  0  0  0
    1.3618    1.5526   -0.2619 C   0  0  0  0  0  0  0  0  0  0  0  0
   -1.2656    0.7406   -3.8632 H   0  0  0  0  0  0  0  0  0  0  0  0
   -0.0772   -0.0780    0.0674 H   0  0  0  0  0  0  0  0  0  0  0  0
   -2.0486    1.4100    0.4743 H   0  0  0  0  0  0  0  0  0  0  0  0
   -1.1116    2.8897    0.2259 H   0  0  0  0  0  0  0  0  0  0  0  0
   -0.7129    1.8046    1.5649 H   0  0  0  0  0  0  0  0  0  0  0  0
    1.4589    2.5823   -0.6153 H   0  0  0  0  0  0  0  0  0  0  0  0
    2.0223    0.9231   -0.8579 H   0  0  0  0  0  0  0  0  0  0  0  0
    1.6965    1.5165    0.7764 H   0  0  0  0  0  0  0  0  0  0  0  0
   -0.5193   -2.2860   -0.4766 C   0  0  0  0  0  0  0  0  0  0  0  0
   -0.1071   -1.4991    0.4953 C   0  0  0  0  0  3  0  0  0  0  0  0
    0.3006   -1.7927    1.8487 C   0  0  0  0  0  0  0  0  0  0  0  0
    0.7003   -0.8922    2.7407 C   0  0  0  0  0  0  0  0  0  0  0  0
   -0.7898   -1.8880   -1.4487 H   0  0  0  0  0  0  0  0  0  0  0  0
   -0.6030   -3.3633   -0.3383 H   0  0  0  0  0  0  0  0  0  0  0  0
    0.2678   -2.8450    2.1332 H   0  0  0  0  0  0  0  0  0  0  0  0
    0.9928   -1.1826    3.7409 H   0  0  0  0  0  0  0  0  0  0  0  0
    0.7464    0.1619    2.4962 H   0  0  0  0  0  0  0  0  0  0  0  0
  1  2  3  0
  1  6  1  0
  2  3  1  0
  3  4  1  0
  3  5  1  0
  3  7  1  0
  4  8  1  0
  4  9  1  0
  4 10  1  0
  5 11  1  0
  5 12  1  0
  5 13  1  0
 14 15  2  3
 14 18  1  0
 14 19  1  0
 15 16  1  0
 16 17  2  3
 16 20  1  0
 17 21  1  0
 17 22  1  0
M  RAD  1  15   2
M  END
>  <reaction>  (4) 
rxn_1320

>  <mol_properties>  (4) 
{"1": {"label": "*0", "atom_type": "Ct"}, "2": {"label": "*1", "atom_type": "Cs"}, "6": {"label": "*2", "atom_type": "H0"}, "14": {"label": "*3", "atom_type": "Cd"}, "15": {"label": "*4", "atom_type": "Cd"}}

>  <type>  (4) 
ts

$$$$
