
     RDKit          3D

 15 14  0  0  0  0  0  0  0  0999 V2000
    2.1256    0.4849   -0.6284 C   0  0  0  0  0  0  0  0  0  0  0  0
    1.1128    0.2141    0.1794 C   0  0  0  0  0  0  0  0  0  0  0  0
   -0.3017   -0.0425   -0.2513 C   0  0  0  0  0  0  0  0  0  0  0  0
   -1.2427    1.0075    0.3423 C   0  0  0  0  0  0  0  0  0  0  0  0
   -0.7381   -1.4526    0.1504 C   0  0  0  0  0  0  0  0  0  0  0  0
    3.1243    0.6602   -0.2486 H   0  0  0  0  0  0  0  0  0  0  0  0
    1.9908    0.5411   -1.7036 H   0  0  0  0  0  0  0  0  0  0  0  0
    1.2888    0.1665    1.2533 H   0  0  0  0  0  0  0  0  0  0  0  0
   -0.3426    0.0343   -1.3424 H   0  0  0  0  0  0  0  0  0  0  0  0
   -0.9570    2.0133    0.0315 H   0  0  0  0  0  0  0  0  0  0  0  0
   -1.2189    0.9728    1.4350 H   0  0  0  0  0  0  0  0  0  0  0  0
   -2.2723    0.8287    0.0254 H   0  0  0  0  0  0  0  0  0  0  0  0
   -0.6964   -1.5744    1.2363 H   0  0  0  0  0  0  0  0  0  0  0  0
   -0.0911   -2.2079   -0.2978 H   0  0  0  0  0  0  0  0  0  0  0  0
   -1.7646   -1.6461   -0.1677 H   0  0  0  0  0  0  0  0  0  0  0  0
  1  2  2  3
  1  6  1  0
  1  7  1  0
  2  3  1  0
  2  8  1  0
  3  4  1  0
  3  5  1  0
  3  9  1  0
  4 10  1  0
  4 11  1  0
  4 12  1  0
  5 13  1  0
  5 14  1  0
  5 15  1  0
M  END
>  <reaction>  (1) 
rxn_1124

>  <mol_properties>  (1) 
{"2": {"label": "donator", "atom_type": "Cs"}, "8": {"label": "d_hydrogen", "atom_type": "H0"}}

>  <type>  (1) 
r1h

$$$$

     RDKit          3D

  5  4  0  0  0  0  0  0  0  0999 V2000
    2.6268   -0.7142   -0.0485 S   0  0  0  0  0  0  0  0  0  0  0  0
    1.1401   -0.3099    0.0748 C   0  0  0  0  0  3  0  0  0  0  0  0
   -0.1297    0.0353    0.1801 C   0  0  0  0  0  0  0  0  0  0  0  0
   -1.3070    0.3553    0.2777 C   0  0  0  0  0  0  0  0  0  0  0  0
   -2.3303    0.6335    0.3626 H   0  0  0  0  0  0  0  0  0  0  0  0
  1  2  2  0
  2  3  1  0
  3  4  3  0
  4  5  1  0
M  RAD  1   2   2
M  END
>  <reaction>  (2) 
rxn_1124

>  <mol_properties>  (2) 
{"1": {"label": "acceptor", "atom_type": "CS"}}

>  <type>  (2) 
r2

$$$$

     RDKit          3D

  6  5  0  0  0  0  0  0  0  0999 V2000
   -1.9761    1.0978   -0.6585 S   0  0  0  0  0  0  0  0  0  0  0  0
   -1.0502    0.0275    0.1158 C   0  0  0  0  0  0  0  0  0  0  0  0
    0.3587   -0.0566   -0.0000 C   0  0  0  0  0  0  0  0  0  0  0  0
    1.5530   -0.1477   -0.0815 C   0  0  0  0  0  0  0  0  0  0  0  0
   -1.4972   -0.7045    0.7881 H   0  0  0  0  0  0  0  0  0  0  0  0
    2.6118   -0.2165   -0.1639 H   0  0  0  0  0  0  0  0  0  0  0  0
  1  2  2  0
  2  3  1  0
  2  5  1  0
  3  4  3  0
  4  6  1  0
M  END
>  <reaction>  (3) 
rxn_1124

>  <mol_properties>  (3) 
{"1": {"label": "acceptor", "atom_type": "CS"}, "5": {"label": "a_hydrogen", "atom_type": "H0"}}

>  <type>  (3) 
r2h

$$$$

     RDKit          3D

 20 18  0  0  0  0  0  0  0  0999 V2000
   -0.2796    0.6084   -2.2633 S   0  0  0  0  0  0  0  0  0  0  0  0
   -0.8167    0.7830   -0.7715 C   0  0  0  0  0  3  0  0  0  0  0  0
   -0.9713    1.9010    0.0464 C   0  0  0  0  0  0  0  0  0  0  0  0
   -1.1597    2.8024    0.8240 C   0  0  0  0  0  0  0  0  0  0  0  0
   -1.3184    3.6191    1.4871 H   0  0  0  0  0  0  0  0  0  0  0  0
    1.0546   -2.6455   -0.7884 C   0  0  0  0  0  0  0  0  0  0  0  0
   -0.1083   -2.3433   -0.2033 C   0  0  0  0  0  0  0  0  0  0  0  0
   -0.3297   -1.2984    0.7886 C   0  0  0  0  0  0  0  0  0  0  0  0
    0.8784   -0.6970    1.4637 C   0  0  0  0  0  0  0  0  0  0  0  0
   -1.5300   -1.4795    1.6893 C   0  0  0  0  0  0  0  0  0  0  0  0
    1.1074   -3.4061   -1.5561 H   0  0  0  0  0  0  0  0  0  0  0  0
    1.9828   -2.1579   -0.5190 H   0  0  0  0  0  0  0  0  0  0  0  0
   -0.9992   -2.8734   -0.5297 H   0  0  0  0  0  0  0  0  0  0  0  0
   -0.7641   -0.3246   -0.0156 H   0  0  0  0  0  0  0  0  0  0  0  0
    1.6198   -0.3546    0.7405 H   0  0  0  0  0  0  0  0  0  0  0  0
    1.3591   -1.4319    2.1165 H   0  0  0  0  0  0  0  0  0  0  0  0
    0.5882    0.1592    2.0742 H   0  0  0  0  0  0  0  0  0  0  0  0
   -1.3073   -2.1974    2.4854 H   0  0  0  0  0  0  0  0  0  0  0  0
   -2.3930   -1.8508    1.1345 H   0  0  0  0  0  0  0  0  0  0  0  0
   -1.8065   -0.5354    2.1627 H   0  0  0  0  0  0  0  0  0  0  0  0
  1  2  2  0
  2  3  1  0
  3  4  3  0
  4  5  1  0
  6  7  2  3
  6 11  1  0
  6 12  1  0
  7  8  1  0
  7 13  1  0
  8  9  1  0
  8 10  1  0
  8 14  1  0
  9 15  1  0
  9 16  1  0
  9 17  1  0
 10 18  1  0
 10 19  1  0
 10 20  1  0
M  RAD  1   2   2
M  END
>  <reaction>  (4) 
rxn_1124

>  <mol_properties>  (4) 
{"0": {"label": "*4", "atom_type": "S2d"}, "1": {"label": "*3", "atom_type": "CS"}, "6": {"label": "*0", "atom_type": "Cd"}, "7": {"label": "*1", "atom_type": "Cs"}, "13": {"label": "*2", "atom_type": "H0"}}

>  <type>  (4) 
ts

$$$$
