
     RDKit          3D

 21 21  0  0  0  0  0  0  0  0999 V2000
   -1.3695    1.3367   -1.0719 C   0  0  0  0  0  0  0  0  0  0  0  0
   -1.4091   -0.0981   -0.5428 C   0  0  0  0  0  0  0  0  0  0  0  0
   -0.1819   -0.3999    0.3191 C   0  0  0  0  0  0  0  0  0  0  0  0
   -1.5636   -1.1028   -1.6652 C   0  0  0  0  0  0  0  0  0  0  0  0
   -0.5920   -1.2314   -2.6553 C   0  0  0  0  0  0  0  0  0  0  0  0
   -0.7353   -2.1509   -3.6809 C   0  0  0  0  0  0  0  0  0  0  0  0
   -1.8582   -2.9642   -3.7377 C   0  0  0  0  0  0  0  0  0  0  0  0
   -2.8325   -2.8475   -2.7602 C   0  0  0  0  0  0  0  0  0  0  0  0
   -2.6828   -1.9241   -1.7351 C   0  0  0  0  0  0  0  0  0  0  0  0
   -0.4920    1.4974   -1.7025 H   0  0  0  0  0  0  0  0  0  0  0  0
   -2.2553    1.5607   -1.6679 H   0  0  0  0  0  0  0  0  0  0  0  0
   -1.3211    2.0496   -0.2461 H   0  0  0  0  0  0  0  0  0  0  0  0
   -2.2930   -0.1918    0.0948 H   0  0  0  0  0  0  0  0  0  0  0  0
   -0.1215    0.2955    1.1588 H   0  0  0  0  0  0  0  0  0  0  0  0
   -0.2200   -1.4155    0.7159 H   0  0  0  0  0  0  0  0  0  0  0  0
    0.7383   -0.3016   -0.2615 H   0  0  0  0  0  0  0  0  0  0  0  0
    0.2915   -0.6040   -2.6263 H   0  0  0  0  0  0  0  0  0  0  0  0
    0.0326   -2.2338   -4.4401 H   0  0  0  0  0  0  0  0  0  0  0  0
   -1.9712   -3.6833   -4.5391 H   0  0  0  0  0  0  0  0  0  0  0  0
   -3.7135   -3.4765   -2.7932 H   0  0  0  0  0  0  0  0  0  0  0  0
   -3.4509   -1.8400   -0.9743 H   0  0  0  0  0  0  0  0  0  0  0  0
  1  2  1  0
  1 10  1  0
  1 11  1  0
  1 12  1  0
  2  3  1  0
  2  4  1  0
  2 13  1  0
  3 14  1  0
  3 15  1  0
  3 16  1  0
  4  5  2  0
  4  9  1  0
  5  6  1  0
  5 17  1  0
  6  7  2  0
  6 18  1  0
  7  8  1  0
  7 19  1  0
  8  9  2  0
  8 20  1  0
  9 21  1  0
M  END
>  <reaction>  (1) 
rxn_1547

>  <mol_properties>  (1) 
{"1": {"label": "donator", "atom_type": "Cs"}, "12": {"label": "d_hydrogen", "atom_type": "H0"}}

>  <type>  (1) 
r1h

$$$$

     RDKit          3D

  9  8  0  0  0  0  0  0  0  0999 V2000
   -1.2704   -0.1236    0.1096 C   0  0  0  0  0  0  0  0  0  0  0  0
    0.0713   -0.5323    0.5887 C   0  0  0  0  0  0  0  0  0  0  0  0
    0.9521   -1.3639   -0.0464 C   0  0  0  0  0  0  0  0  0  0  0  0
    0.6900   -2.1109   -1.5335 S   0  0  0  0  0  1  0  0  0  0  0  0
   -1.3201    0.9657    0.0241 H   0  0  0  0  0  0  0  0  0  0  0  0
   -1.5103   -0.5706   -0.8526 H   0  0  0  0  0  0  0  0  0  0  0  0
   -2.0312   -0.4112    0.8411 H   0  0  0  0  0  0  0  0  0  0  0  0
    0.3863   -0.1265    1.5468 H   0  0  0  0  0  0  0  0  0  0  0  0
    1.8971   -1.5543    0.4552 H   0  0  0  0  0  0  0  0  0  0  0  0
  1  2  1  0
  1  5  1  0
  1  6  1  0
  1  7  1  0
  2  3  2  3
  2  8  1  0
  3  4  1  0
  3  9  1  0
M  RAD  1   4   2
M  END
>  <reaction>  (2) 
rxn_1547

>  <mol_properties>  (2) 
{"1": {"label": "acceptor", "atom_type": "Cs"}}

>  <type>  (2) 
r2

$$$$

     RDKit          3D

 10  9  0  0  0  0  0  0  0  0999 V2000
   -1.1508    0.0666    0.2839 C   0  0  0  0  0  0  0  0  0  0  0  0
    0.1022   -0.3749   -0.4771 C   0  0  0  0  0  0  0  0  0  0  0  0
    1.3428    0.1620    0.1542 C   0  0  0  0  0  0  0  0  0  0  0  0
    2.5613   -0.6971    0.7526 S   0  0  0  0  0  0  0  0  0  0  0  0
   -1.2137    1.1546    0.3481 H   0  0  0  0  0  0  0  0  0  0  0  0
   -2.0472   -0.2935   -0.2212 H   0  0  0  0  0  0  0  0  0  0  0  0
   -1.1467   -0.3334    1.2987 H   0  0  0  0  0  0  0  0  0  0  0  0
    0.1602   -1.4616   -0.5369 H   0  0  0  0  0  0  0  0  0  0  0  0
    0.0536    0.0174   -1.4997 H   0  0  0  0  0  0  0  0  0  0  0  0
    1.3824    1.2528    0.2110 H   0  0  0  0  0  0  0  0  0  0  0  0
  1  2  1  0
  1  5  1  0
  1  6  1  0
  1  7  1  0
  2  3  1  0
  2  8  1  0
  2  9  1  0
  3  4  2  0
  3 10  1  0
M  END
>  <reaction>  (3) 
rxn_1547

>  <mol_properties>  (3) 
{"1": {"label": "acceptor", "atom_type": "Cs"}, "9": {"label": "a_hydrogen", "atom_type": "H0"}}

>  <type>  (3) 
r2h

$$$$

     RDKit          3D

 30 29  0  0  0  0  0  0  0  0999 V2000
   -1.4807   -0.7173    1.6844 C   0  0  0  0  0  0  0  0  0  0  0  0
   -1.9437    0.2411    0.6180 C   0  0  0  0  0  0  0  0  0  0  0  0
   -2.2698    1.6030    0.9472 C   0  0  0  0  0  0  0  0  0  0  0  0
   -1.8366    2.4223    2.2959 S   0  0  0  0  0  0  0  0  0  0  0  0
   -0.6920   -0.2747    2.2915 H   0  0  0  0  0  0  0  0  0  0  0  0
   -2.3073   -0.9767    2.3498 H   0  0  0  0  0  0  0  0  0  0  0  0
   -1.0990   -1.6353    1.2351 H   0  0  0  0  0  0  0  0  0  0  0  0
   -2.6282   -0.1923   -0.1131 H   0  0  0  0  0  0  0  0  0  0  0  0
   -2.8251    2.1366    0.1751 H   0  0  0  0  0  0  0  0  0  0  0  0
   -0.0614   -0.6134   -1.9918 C   0  0  0  0  0  0  0  0  0  0  0  0
    0.2559    0.4140   -0.9364 C   0  0  0  0  0  3  0  0  0  0  0  0
    0.1396    1.8432   -1.4036 C   0  0  0  0  0  0  0  0  0  0  0  0
    1.3109    0.0985    0.0430 C   0  0  0  0  0  0  0  0  0  0  0  0
    1.6340    1.0042    1.0627 C   0  0  0  0  0  0  0  0  0  0  0  0
    2.5806    0.6947    2.0212 C   0  0  0  0  0  0  0  0  0  0  0  0
    3.2408   -0.5253    1.9878 C   0  0  0  0  0  0  0  0  0  0  0  0
    2.9381   -1.4333    0.9850 C   0  0  0  0  0  0  0  0  0  0  0  0
    1.9834   -1.1289    0.0300 C   0  0  0  0  0  0  0  0  0  0  0  0
    0.7635   -0.7132   -2.7055 H   0  0  0  0  0  0  0  0  0  0  0  0
   -0.2516   -1.5980   -1.5626 H   0  0  0  0  0  0  0  0  0  0  0  0
   -0.9473   -0.3161   -2.5540 H   0  0  0  0  0  0  0  0  0  0  0  0
   -0.9028    0.3659   -0.1358 H   0  0  0  0  0  0  0  0  0  0  0  0
   -0.7537    1.9733   -2.0169 H   0  0  0  0  0  0  0  0  0  0  0  0
    0.0773    2.5502   -0.5767 H   0  0  0  0  0  0  0  0  0  0  0  0
    1.0082    2.1173   -2.0105 H   0  0  0  0  0  0  0  0  0  0  0  0
    1.1147    1.9505    1.1303 H   0  0  0  0  0  0  0  0  0  0  0  0
    2.7990    1.4096    2.8043 H   0  0  0  0  0  0  0  0  0  0  0  0
    3.9829   -0.7662    2.7380 H   0  0  0  0  0  0  0  0  0  0  0  0
    3.4484   -2.3876    0.9449 H   0  0  0  0  0  0  0  0  0  0  0  0
    1.7703   -1.8551   -0.7427 H   0  0  0  0  0  0  0  0  0  0  0  0
  1  2  1  0
  1  5  1  0
  1  6  1  0
  1  7  1  0
  2  3  1  0
  2  8  1  0
  2 22  1  0
  3  4  2  0
  3  9  1  0
 10 11  1  0
 10 19  1  0
 10 20  1  0
 10 21  1  0
 11 12  1  0
 11 13  1  0
 12 23  1  0
 12 24  1  0
 12 25  1  0
 13 14  2  0
 13 18  1  0
 14 15  1  0
 14 26  1  0
 15 16  2  0
 15 27  1  0
 16 17  1  0
 16 28  1  0
 17 18  2  0
 17 29  1  0
 18 30  1  0
M  RAD  1  11   2
M  END
>  <reaction>  (4) 
rxn_1547

>  <mol_properties>  (4) 
{"1": {"label": "*1", "atom_type": "Cs"}, "2": {"label": "*0", "atom_type": "CS"}, "10": {"label": "*3", "atom_type": "Cs"}, "12": {"label": "*4", "atom_type": "Cd"}, "21": {"label": "*2", "atom_type": "H0"}}

>  <type>  (4) 
ts

$$$$
