
     RDKit          3D

  2  1  0  0  0  0  0  0  0  0999 V2000
    0.0000    0.0000    0.3721 H   0  0  0  0  0  0  0  0  0  0  0  0
    0.0000    0.0000   -0.3721 H   0  0  0  0  0  0  0  0  0  0  0  0
  1  2  1  0
M  END
>  <reaction>  (1) 
rxn_310

>  <mol_properties>  (1) 
{"0": {"label": "donator", "atom_type": "H0"}, "1": {"label": "d_hydrogen", "atom_type": "H0"}}

>  <type>  (1) 
r1h

$$$$

     RDKit          3D

  6  5  0  0  0  0  0  0  0  0999 V2000
   -0.4435    0.0183   -0.1398 C   0  0  0  0  0  0  0  0  0  0  0  0
    1.0626    0.0038   -0.1408 C   0  0  0  0  0  3  0  0  0  0  0  0
    1.7963   -0.0944    0.7712 O   0  0  0  0  0  0  0  0  0  0  0  0
   -0.8385   -0.0792    0.8738 H   0  0  0  0  0  0  0  0  0  0  0  0
   -0.7800    0.9500   -0.5948 H   0  0  0  0  0  0  0  0  0  0  0  0
   -0.7969   -0.7985   -0.7695 H   0  0  0  0  0  0  0  0  0  0  0  0
  1  2  1  0
  1  4  1  0
  1  5  1  0
  1  6  1  0
  2  3  2  0
M  RAD  1   2   2
M  END
>  <reaction>  (2) 
rxn_310

>  <mol_properties>  (2) 
{"1": {"label": "acceptor", "atom_type": "CO"}}

>  <type>  (2) 
r2

$$$$

     RDKit          3D

  7  6  0  0  0  0  0  0  0  0999 V2000
   -0.6468   -0.0443   -0.0231 C   0  0  0  0  0  0  0  0  0  0  0  0
    0.8470    0.0371    0.0688 C   0  0  0  0  0  0  0  0  0  0  0  0
    1.4866   -0.2280    1.0479 O   0  0  0  0  0  0  0  0  0  0  0  0
   -1.0466    0.9363   -0.2943 H   0  0  0  0  0  0  0  0  0  0  0  0
   -0.9229   -0.7318   -0.8269 H   0  0  0  0  0  0  0  0  0  0  0  0
   -1.0759   -0.3772    0.9198 H   0  0  0  0  0  0  0  0  0  0  0  0
    1.3584    0.3712   -0.8589 H   0  0  0  0  0  0  0  0  0  0  0  0
  1  2  1  0
  1  4  1  0
  1  5  1  0
  1  6  1  0
  2  3  2  0
  2  7  1  0
M  END
>  <reaction>  (3) 
rxn_310

>  <mol_properties>  (3) 
{"0": {"label": "a_hydrogen", "atom_type": "H0"}, "2": {"label": "acceptor", "atom_type": "CO"}}

>  <type>  (3) 
r2h

$$$$

     RDKit          3D

  8  6  0  0  0  0  0  0  0  0999 V2000
   -0.0015   -0.0167   -2.7188 H   0  0  0  0  0 15  0  0  0  0  0  0
   -0.0049   -0.1112   -1.5306 H   0  0  0  0  0  0  0  0  0  0  0  0
    0.0059    1.2401    0.2759 C   0  0  0  0  0  0  0  0  0  0  0  0
   -0.0077   -0.1320   -0.3235 C   0  0  0  0  0  0  0  0  0  0  0  0
   -0.0200   -1.1687    0.2541 O   0  0  0  0  0  0  0  0  0  0  0  0
    0.0032    1.1931    1.3633 H   0  0  0  0  0  0  0  0  0  0  0  0
    0.8904    1.7710   -0.0831 H   0  0  0  0  0  0  0  0  0  0  0  0
   -0.8654    1.7899   -0.0868 H   0  0  0  0  0  0  0  0  0  0  0  0
  2  4  1  0
  3  4  1  0
  3  6  1  0
  3  7  1  0
  3  8  1  0
  4  5  2  0
M  END
>  <reaction>  (4) 
rxn_310

>  <mol_properties>  (4) 
{"0": {"label": "*1", "atom_type": "H0"}, "1": {"label": "*2", "atom_type": "H0"}, "3": {"label": "*3", "atom_type": "CO"}, "4": {"label": "*4", "atom_type": "O2d"}}

>  <type>  (4) 
ts

$$$$
