
     RDKit          3D

  8  7  0  0  0  0  0  0  0  0999 V2000
    0.7610    0.0250    0.0051 C   0  0  0  0  0  0  0  0  0  0  0  0
   -0.7610   -0.0250   -0.0051 C   0  0  0  0  0  0  0  0  0  0  0  0
    1.1904   -0.9237   -0.3217 H   0  0  0  0  0  0  0  0  0  0  0  0
    1.1359    0.8041   -0.6609 H   0  0  0  0  0  0  0  0  0  0  0  0
    1.1435    0.2336    1.0058 H   0  0  0  0  0  0  0  0  0  0  0  0
   -1.1435   -0.2336   -1.0058 H   0  0  0  0  0  0  0  0  0  0  0  0
   -1.1904    0.9237    0.3216 H   0  0  0  0  0  0  0  0  0  0  0  0
   -1.1359   -0.8041    0.6609 H   0  0  0  0  0  0  0  0  0  0  0  0
  1  2  1  0
  1  3  1  0
  1  4  1  0
  1  5  1  0
  2  6  1  0
  2  7  1  0
  2  8  1  0
M  END
>  <reaction>  (1) 
rxn_905

>  <mol_properties>  (1) 
{"1": {"label": "donator", "atom_type": "Cs"}, "5": {"label": "d_hydrogen", "atom_type": "H0"}}

>  <type>  (1) 
r1h

$$$$

     RDKit          3D

  6  5  0  0  0  0  0  0  0  0999 V2000
   -0.5121    0.0777    0.0308 C   0  0  0  0  0  0  0  0  0  0  0  0
    0.8172   -0.5443    0.0742 C   0  0  0  0  0  3  0  0  0  0  0  0
    2.3075   -0.1727   -0.1911 S   0  0  0  0  0  0  0  0  0  0  0  0
   -1.1498   -0.4890   -0.6521 H   0  0  0  0  0  0  0  0  0  0  0  0
   -0.4879    1.1268   -0.2798 H   0  0  0  0  0  0  0  0  0  0  0  0
   -0.9748    0.0015    1.0180 H   0  0  0  0  0  0  0  0  0  0  0  0
  1  2  1  0
  1  4  1  0
  1  5  1  0
  1  6  1  0
  2  3  2  0
M  RAD  1   2   2
M  END
>  <reaction>  (2) 
rxn_905

>  <mol_properties>  (2) 
{"1": {"label": "acceptor", "atom_type": "CS"}}

>  <type>  (2) 
r2

$$$$

     RDKit          3D

  7  6  0  0  0  0  0  0  0  0999 V2000
   -0.6782    0.0507    0.0301 C   0  0  0  0  0  0  0  0  0  0  0  0
    0.8092    0.0996    0.0213 C   0  0  0  0  0  0  0  0  0  0  0  0
    1.7473    0.7521    1.1507 S   0  0  0  0  0  0  0  0  0  0  0  0
   -1.0667    0.5456   -0.8653 H   0  0  0  0  0  0  0  0  0  0  0  0
   -1.0112   -0.9904   -0.0239 H   0  0  0  0  0  0  0  0  0  0  0  0
   -1.0920    0.5225    0.9188 H   0  0  0  0  0  0  0  0  0  0  0  0
    1.2740   -0.3620   -0.8520 H   0  0  0  0  0  0  0  0  0  0  0  0
  1  2  1  0
  1  4  1  0
  1  5  1  0
  1  6  1  0
  2  3  2  0
  2  7  1  0
M  END
>  <reaction>  (3) 
rxn_905

>  <mol_properties>  (3) 
{"1": {"label": "acceptor", "atom_type": "CS"}, "6": {"label": "a_hydrogen", "atom_type": "H0"}}

>  <type>  (3) 
r2h

$$$$

     RDKit          3D

 14 12  0  0  0  0  0  0  0  0999 V2000
    1.4728    1.0520    0.9407 C   0  0  0  0  0  0  0  0  0  0  0  0
    0.5114    0.7552   -0.1479 C   0  0  0  0  0  0  0  0  0  0  0  0
   -0.6041    1.6752   -0.8098 S   0  0  0  0  0  0  0  0  0  0  0  0
    1.3256    0.3351    1.7539 H   0  0  0  0  0  0  0  0  0  0  0  0
    1.3739    2.0679    1.3230 H   0  0  0  0  0  0  0  0  0  0  0  0
    2.4909    0.8928    0.5729 H   0  0  0  0  0  0  0  0  0  0  0  0
   -0.3334   -1.8728   -2.0976 C   0  0  0  0  0  0  0  0  0  0  0  0
    0.7765   -1.7674   -1.0924 C   0  0  0  0  0  3  0  0  0  0  0  0
   -1.3084   -1.7319   -1.6278 H   0  0  0  0  0  0  0  0  0  0  0  0
   -0.2320   -1.1181   -2.8795 H   0  0  0  0  0  0  0  0  0  0  0  0
   -0.3409   -2.8540   -2.5850 H   0  0  0  0  0  0  0  0  0  0  0  0
    0.6607   -0.4658   -0.5838 H   0  0  0  0  0  0  0  0  0  0  0  0
    1.7859   -1.7873   -1.4995 H   0  0  0  0  0  0  0  0  0  0  0  0
    0.6764   -2.3952   -0.2088 H   0  0  0  0  0  0  0  0  0  0  0  0
  1  2  1  0
  1  4  1  0
  1  5  1  0
  1  6  1  0
  2  3  2  0
  2 12  1  0
  7  8  1  0
  7  9  1  0
  7 10  1  0
  7 11  1  0
  8 13  1  0
  8 14  1  0
M  RAD  1   8   2
M  END
>  <reaction>  (4) 
rxn_905

>  <mol_properties>  (4) 
{"1": {"label": "*1", "atom_type": "CS"}, "2": {"label": "*0", "atom_type": "S2d"}, "6": {"label": "*4", "atom_type": "Cs"}, "7": {"label": "*3", "atom_type": "Cs"}, "11": {"label": "*2", "atom_type": "H0"}}

>  <type>  (4) 
ts

$$$$
