
     RDKit          3D

  9  8  0  0  0  0  0  0  0  0999 V2000
   -0.8818   -0.3578    0.1297 C   0  0  0  0  0  0  0  0  0  0  0  0
    0.6153   -0.3021   -0.1188 C   0  0  0  0  0  0  0  0  0  0  0  0
    1.5354   -1.7170    0.5545 S   0  0  0  0  0  0  0  0  0  0  0  0
   -1.1018   -0.3317    1.1984 H   0  0  0  0  0  0  0  0  0  0  0  0
   -1.3114   -1.2723   -0.2799 H   0  0  0  0  0  0  0  0  0  0  0  0
   -1.3767    0.4976   -0.3363 H   0  0  0  0  0  0  0  0  0  0  0  0
    1.0467    0.6194    0.2718 H   0  0  0  0  0  0  0  0  0  0  0  0
    0.8295   -0.3275   -1.1882 H   0  0  0  0  0  0  0  0  0  0  0  0
    1.2306   -1.5077    1.8423 H   0  0  0  0  0  0  0  0  0  0  0  0
  1  2  1  0
  1  4  1  0
  1  5  1  0
  1  6  1  0
  2  3  1  0
  2  7  1  0
  2  8  1  0
  3  9  1  0
M  END
>  <reaction>  (1) 
rxn_1901

>  <mol_properties>  (1) 
{"1": {"label": "donator", "atom_type": "Cs"}, "6": {"label": "d_hydrogen", "atom_type": "H0"}}

>  <type>  (1) 
r1h

$$$$

     RDKit          3D

  3  2  0  0  0  0  0  0  0  0999 V2000
   -0.0187   -0.3135   -0.2345 C   0  0  0  0  0  3  0  0  0  0  0  0
    1.0418    0.7672    0.0975 S   0  0  0  0  0  0  0  0  0  0  0  0
   -1.0231   -0.5077    0.1370 H   0  0  0  0  0  0  0  0  0  0  0  0
  1  2  2  0
  1  3  1  0
M  RAD  1   1   2
M  END
>  <reaction>  (2) 
rxn_1901

>  <mol_properties>  (2) 
{"0": {"label": "acceptor", "atom_type": "CS"}}

>  <type>  (2) 
r2

$$$$

     RDKit          3D

  4  3  0  0  0  0  0  0  0  0999 V2000
   -0.1097    0.0067    0.0027 C   0  0  0  0  0  0  0  0  0  0  0  0
    1.4849   -0.0901   -0.0362 S   0  0  0  0  0  0  0  0  0  0  0  0
   -0.6318    0.9620    0.0167 H   0  0  0  0  0  0  0  0  0  0  0  0
   -0.7434   -0.8786    0.0168 H   0  0  0  0  0  0  0  0  0  0  0  0
  1  2  2  0
  1  3  1  0
  1  4  1  0
M  END
>  <reaction>  (3) 
rxn_1901

>  <mol_properties>  (3) 
{"0": {"label": "acceptor", "atom_type": "CS"}, "3": {"label": "a_hydrogen", "atom_type": "H0"}}

>  <type>  (3) 
r2h

$$$$

     RDKit          3D

 12 10  0  0  0  0  0  0  0  0999 V2000
    0.6721   -1.2876    0.6774 C   0  0  0  0  0  3  0  0  0  0  0  0
    2.0613   -0.6060    0.3561 S   0  0  0  0  0  0  0  0  0  0  0  0
    0.5378   -2.2929    1.0810 H   0  0  0  0  0  0  0  0  0  0  0  0
   -1.2483   -0.1238   -1.7617 C   0  0  0  0  0  0  0  0  0  0  0  0
   -1.4431    0.0638   -0.2801 C   0  0  0  0  0  0  0  0  0  0  0  0
   -1.2609    1.7007    0.3719 S   0  0  0  0  0  0  0  0  0  0  0  0
   -0.2478    0.1962   -2.0622 H   0  0  0  0  0  0  0  0  0  0  0  0
   -1.9739    0.4566   -2.3372 H   0  0  0  0  0  0  0  0  0  0  0  0
   -1.3597   -1.1765   -2.0302 H   0  0  0  0  0  0  0  0  0  0  0  0
   -0.4703   -0.6558    0.3017 H   0  0  0  0  0  0  0  0  0  0  0  0
   -2.3666   -0.3595    0.1128 H   0  0  0  0  0  0  0  0  0  0  0  0
   -0.0700    1.9580   -0.1899 H   0  0  0  0  0  0  0  0  0  0  0  0
  1  2  2  0
  1  3  1  0
  4  5  1  0
  4  7  1  0
  4  8  1  0
  4  9  1  0
  5  6  1  0
  5 10  1  0
  5 11  1  0
  6 12  1  0
M  RAD  1   1   2
M  END
>  <reaction>  (4) 
rxn_1901

>  <mol_properties>  (4) 
{"0": {"label": "*3", "atom_type": "CS"}, "1": {"label": "*4", "atom_type": "S2d"}, "4": {"label": "*1", "atom_type": "Cs"}, "5": {"label": "*0", "atom_type": "S2s"}, "9": {"label": "*2", "atom_type": "H0"}}

>  <type>  (4) 
ts

$$$$
