
     RDKit          3D

  7  6  0  0  0  0  0  0  0  0999 V2000
   -0.5808   -0.0343   -0.0072 C   0  0  0  0  0  0  0  0  0  0  0  0
    0.8189    0.0820   -0.3920 N   0  0  0  0  0  0  0  0  0  0  0  0
   -1.1366   -0.8351   -0.5131 H   0  0  0  0  0  0  0  0  0  0  0  0
   -1.0904    0.9086   -0.2116 H   0  0  0  0  0  0  0  0  0  0  0  0
   -0.6459   -0.2082    1.0679 H   0  0  0  0  0  0  0  0  0  0  0  0
    0.9043    0.2571   -1.3836 H   0  0  0  0  0  0  0  0  0  0  0  0
    1.3157   -0.7766   -0.1992 H   0  0  0  0  0  0  0  0  0  0  0  0
  1  2  1  0
  1  3  1  0
  1  4  1  0
  1  5  1  0
  2  6  1  0
  2  7  1  0
M  END
>  <reaction>  (1) 
rxn_686

>  <mol_properties>  (1) 
{"1": {"label": "donator", "atom_type": "N3s"}, "5": {"label": "d_hydrogen", "atom_type": "H0"}}

>  <type>  (1) 
r1h

$$$$

     RDKit          3D

  3  2  0  0  0  0  0  0  0  0999 V2000
    0.0002    0.4233    0.0000 N   0  0  0  0  0  2  0  0  0  0  0  0
   -0.8051   -0.2112    0.0000 H   0  0  0  0  0  0  0  0  0  0  0  0
    0.8049   -0.2121    0.0000 H   0  0  0  0  0  0  0  0  0  0  0  0
  1  2  1  0
  1  3  1  0
M  RAD  1   1   2
M  END
>  <reaction>  (2) 
rxn_686

>  <mol_properties>  (2) 
{"0": {"label": "acceptor", "atom_type": "N3s"}}

>  <type>  (2) 
r2

$$$$

     RDKit          3D

  4  3  0  0  0  0  0  0  0  0999 V2000
    0.0006   -0.0009    0.2762 N   0  0  0  0  0  0  0  0  0  0  0  0
   -0.4188    0.8439   -0.0883 H   0  0  0  0  0  0  0  0  0  0  0  0
   -0.5215   -0.7840   -0.0936 H   0  0  0  0  0  0  0  0  0  0  0  0
    0.9397   -0.0590   -0.0943 H   0  0  0  0  0  0  0  0  0  0  0  0
  1  2  1  0
  1  3  1  0
  1  4  1  0
M  END
>  <reaction>  (3) 
rxn_686

>  <mol_properties>  (3) 
{"0": {"label": "acceptor", "atom_type": "N3s"}, "3": {"label": "a_hydrogen", "atom_type": "H0"}}

>  <type>  (3) 
r2h

$$$$

     RDKit          3D

 10  8  0  0  0  0  0  0  0  0999 V2000
   -0.3706    1.3358    1.0622 N   0  0  0  0  0  2  0  0  0  0  0  0
    0.5093    1.6233    1.4907 H   0  0  0  0  0  0  0  0  0  0  0  0
   -0.4067    1.8397    0.1766 H   0  0  0  0  0  0  0  0  0  0  0  0
   -0.1864   -0.8262   -1.2116 C   0  0  0  0  0  0  0  0  0  0  0  0
    0.2478   -0.8442    0.1711 N   0  0  0  0  0  0  0  0  0  0  0  0
    0.2352   -0.0106   -1.8119 H   0  0  0  0  0  0  0  0  0  0  0  0
   -1.2739   -0.7560   -1.2471 H   0  0  0  0  0  0  0  0  0  0  0  0
    0.1017   -1.7672   -1.6904 H   0  0  0  0  0  0  0  0  0  0  0  0
   -0.2041    0.0877    0.7587 H   0  0  0  0  0  0  0  0  0  0  0  0
    1.2606   -0.7679    0.2112 H   0  0  0  0  0  0  0  0  0  0  0  0
  1  2  1  0
  1  3  1  0
  4  5  1  0
  4  6  1  0
  4  7  1  0
  4  8  1  0
  5  9  1  0
  5 10  1  0
M  RAD  1   1   2
M  END
>  <reaction>  (4) 
rxn_686

>  <mol_properties>  (4) 
{"0": {"label": "*3", "atom_type": "N3s"}, "1": {"label": "*4", "atom_type": "H0"}, "3": {"label": "*0", "atom_type": "Cs"}, "4": {"label": "*1", "atom_type": "N3s"}, "8": {"label": "*2", "atom_type": "H0"}}

>  <type>  (4) 
ts

$$$$
