
     RDKit          3D

 10  9  0  0  0  0  0  0  0  0999 V2000
    1.8334    0.0847   -0.1062 C   0  0  0  0  0  0  0  0  0  0  0  0
    0.5993   -0.4071   -0.0750 C   0  0  0  0  0  0  0  0  0  0  0  0
   -0.5993    0.4071    0.0750 C   0  0  0  0  0  0  0  0  0  0  0  0
   -1.8334   -0.0847    0.1062 C   0  0  0  0  0  0  0  0  0  0  0  0
    2.0179    1.1498   -0.0189 H   0  0  0  0  0  0  0  0  0  0  0  0
    2.6972   -0.5572   -0.2194 H   0  0  0  0  0  0  0  0  0  0  0  0
    0.4465   -1.4793   -0.1649 H   0  0  0  0  0  0  0  0  0  0  0  0
   -0.4465    1.4793    0.1649 H   0  0  0  0  0  0  0  0  0  0  0  0
   -2.0179   -1.1498    0.0189 H   0  0  0  0  0  0  0  0  0  0  0  0
   -2.6972    0.5572    0.2194 H   0  0  0  0  0  0  0  0  0  0  0  0
  1  2  2  3
  1  5  1  0
  1  6  1  0
  2  3  1  0
  2  7  1  0
  3  4  2  3
  3  8  1  0
  4  9  1  0
  4 10  1  0
M  END
>  <reaction>  (1) 
rxn_1669

>  <mol_properties>  (1) 
{"2": {"label": "donator", "atom_type": "Cd"}, "7": {"label": "d_hydrogen", "atom_type": "H0"}}

>  <type>  (1) 
r1h

$$$$

     RDKit          3D

  8  7  0  0  0  0  0  0  0  0999 V2000
   -1.0607    0.1793   -0.1423 C   0  0  0  0  0  0  0  0  0  0  0  0
    0.2796    0.0327    0.4820 C   0  0  0  0  0  3  0  0  0  0  0  0
    0.8817   -1.4663    1.0791 S   0  0  0  0  0  0  0  0  0  0  0  0
   -1.3043    1.2328   -0.2850 H   0  0  0  0  0  0  0  0  0  0  0  0
   -1.8444   -0.2641    0.4799 H   0  0  0  0  0  0  0  0  0  0  0  0
   -1.1164   -0.3100   -1.1237 H   0  0  0  0  0  0  0  0  0  0  0  0
    1.0449    0.7826    0.3391 H   0  0  0  0  0  0  0  0  0  0  0  0
   -0.2993   -2.0726    1.2718 H   0  0  0  0  0  0  0  0  0  0  0  0
  1  2  1  0
  1  4  1  0
  1  5  1  0
  1  6  1  0
  2  3  1  0
  2  7  1  0
  3  8  1  0
M  RAD  1   2   2
M  END
>  <reaction>  (2) 
rxn_1669

>  <mol_properties>  (2) 
{"1": {"label": "acceptor", "atom_type": "Cs"}}

>  <type>  (2) 
r2

$$$$

     RDKit          3D

  9  8  0  0  0  0  0  0  0  0999 V2000
   -0.8818   -0.3578    0.1297 C   0  0  0  0  0  0  0  0  0  0  0  0
    0.6153   -0.3021   -0.1188 C   0  0  0  0  0  0  0  0  0  0  0  0
    1.5354   -1.7170    0.5545 S   0  0  0  0  0  0  0  0  0  0  0  0
   -1.1018   -0.3317    1.1984 H   0  0  0  0  0  0  0  0  0  0  0  0
   -1.3114   -1.2723   -0.2799 H   0  0  0  0  0  0  0  0  0  0  0  0
   -1.3767    0.4976   -0.3363 H   0  0  0  0  0  0  0  0  0  0  0  0
    1.0467    0.6194    0.2718 H   0  0  0  0  0  0  0  0  0  0  0  0
    0.8295   -0.3275   -1.1882 H   0  0  0  0  0  0  0  0  0  0  0  0
    1.2306   -1.5077    1.8423 H   0  0  0  0  0  0  0  0  0  0  0  0
  1  2  1  0
  1  4  1  0
  1  5  1  0
  1  6  1  0
  2  3  1  0
  2  7  1  0
  2  8  1  0
  3  9  1  0
M  END
>  <reaction>  (3) 
rxn_1669

>  <mol_properties>  (3) 
{"1": {"label": "acceptor", "atom_type": "Cs"}, "8": {"label": "a_hydrogen", "atom_type": "H0"}}

>  <type>  (3) 
r2h

$$$$

     RDKit          3D

 18 16  0  0  0  0  0  0  0  0999 V2000
   -0.2500    0.9519   -1.6993 C   0  0  0  0  0  0  0  0  0  0  0  0
   -0.8550    1.0056   -0.3172 C   0  0  0  0  0  0  0  0  0  0  0  0
   -0.3065    2.3385    0.7371 S   0  0  0  0  0  0  0  0  0  0  0  0
   -0.6463    0.0998   -2.2551 H   0  0  0  0  0  0  0  0  0  0  0  0
    0.8339    0.8330   -1.6411 H   0  0  0  0  0  0  0  0  0  0  0  0
   -0.4622    1.8628   -2.2632 H   0  0  0  0  0  0  0  0  0  0  0  0
   -1.9448    1.0333   -0.3201 H   0  0  0  0  0  0  0  0  0  0  0  0
    1.0078    2.1679    0.5345 H   0  0  0  0  0  0  0  0  0  0  0  0
   -1.3604   -2.6232   -0.8026 C   0  0  0  0  0  0  0  0  0  0  0  0
   -0.4941   -2.5342    0.2018 C   0  0  0  0  0  0  0  0  0  0  0  0
   -0.1239   -1.3046    0.8660 C   0  0  0  0  0  3  0  0  0  0  0  0
    0.6076   -1.1088    1.9451 C   0  0  0  0  0  0  0  0  0  0  0  0
   -1.8589   -1.7457   -1.1969 H   0  0  0  0  0  0  0  0  0  0  0  0
   -1.6036   -3.5758   -1.2544 H   0  0  0  0  0  0  0  0  0  0  0  0
   -0.0173   -3.4409    0.5751 H   0  0  0  0  0  0  0  0  0  0  0  0
   -0.5773   -0.0870    0.2513 H   0  0  0  0  0  0  0  0  0  0  0  0
    1.0405   -1.9406    2.4994 H   0  0  0  0  0  0  0  0  0  0  0  0
    0.7920   -0.1115    2.3303 H   0  0  0  0  0  0  0  0  0  0  0  0
  1  2  1  0
  1  4  1  0
  1  5  1  0
  1  6  1  0
  2  3  1  0
  2  7  1  0
  2 16  1  0
  3  8  1  0
  9 10  2  3
  9 13  1  0
  9 14  1  0
 10 11  1  0
 10 15  1  0
 11 12  2  3
 12 17  1  0
 12 18  1  0
M  RAD  1  11   2
M  END
>  <reaction>  (4) 
rxn_1669

>  <mol_properties>  (4) 
{"1": {"label": "*1", "atom_type": "Cs"}, "2": {"label": "*0", "atom_type": "S2s"}, "9": {"label": "*4", "atom_type": "Cd"}, "10": {"label": "*3", "atom_type": "Cd"}, "15": {"label": "*2", "atom_type": "H0"}}

>  <type>  (4) 
ts

$$$$
