
     RDKit          3D

 25 26  0  0  0  0  0  0  0  0999 V2000
    2.0298   -1.1515    0.0571 C   0  0  0  0  0  0  0  0  0  0  0  0
    2.2278    0.2445    0.6528 C   0  0  0  0  0  0  0  0  0  0  0  0
    1.2292    1.2625    0.0947 C   0  0  0  0  0  0  0  0  0  0  0  0
   -0.1869    0.7454    0.2762 C   0  0  0  0  0  0  0  0  0  0  0  0
   -1.3415    1.5501   -0.3122 C   0  0  0  0  0  0  0  0  0  0  0  0
   -2.5060    0.5338   -0.4178 C   0  0  0  0  0  0  0  0  0  0  0  0
   -1.8709   -0.8658   -0.2234 C   0  0  0  0  0  0  0  0  0  0  0  0
   -0.3715   -0.6265   -0.3693 C   0  0  0  0  0  0  0  0  0  0  0  0
    0.5898   -1.6500    0.2086 C   0  0  0  0  0  0  0  0  0  0  0  0
    2.2820   -1.1226   -1.0088 H   0  0  0  0  0  0  0  0  0  0  0  0
    2.7243   -1.8549    0.5221 H   0  0  0  0  0  0  0  0  0  0  0  0
    2.1030    0.1885    1.7400 H   0  0  0  0  0  0  0  0  0  0  0  0
    3.2514    0.5819    0.4743 H   0  0  0  0  0  0  0  0  0  0  0  0
    1.3611    2.2304    0.5855 H   0  0  0  0  0  0  0  0  0  0  0  0
    1.4198    1.4194   -0.9737 H   0  0  0  0  0  0  0  0  0  0  0  0
   -0.3675    0.6209    1.3539 H   0  0  0  0  0  0  0  0  0  0  0  0
   -1.5992    2.4249    0.2862 H   0  0  0  0  0  0  0  0  0  0  0  0
   -1.0595    1.9116   -1.3055 H   0  0  0  0  0  0  0  0  0  0  0  0
   -3.2666    0.7244    0.3399 H   0  0  0  0  0  0  0  0  0  0  0  0
   -3.0030    0.6112   -1.3853 H   0  0  0  0  0  0  0  0  0  0  0  0
   -2.2549   -1.6039   -0.9288 H   0  0  0  0  0  0  0  0  0  0  0  0
   -2.0796   -1.2429    0.7821 H   0  0  0  0  0  0  0  0  0  0  0  0
   -0.1432   -0.5121   -1.4391 H   0  0  0  0  0  0  0  0  0  0  0  0
    0.4720   -2.6209   -0.2799 H   0  0  0  0  0  0  0  0  0  0  0  0
    0.3601   -1.7986    1.2704 H   0  0  0  0  0  0  0  0  0  0  0  0
  1  2  1  0
  1  9  1  0
  1 10  1  0
  1 11  1  0
  2  3  1  0
  2 12  1  0
  2 13  1  0
  3  4  1  0
  3 14  1  0
  3 15  1  0
  4  5  1  0
  4  8  1  0
  4 16  1  0
  5  6  1  0
  5 17  1  0
  5 18  1  0
  6  7  1  0
  6 19  1  0
  6 20  1  0
  7  8  1  0
  7 21  1  0
  7 22  1  0
  8  9  1  0
  8 23  1  0
  9 24  1  0
  9 25  1  0
M  END
>  <reaction>  (1) 
rxn_611

>  <mol_properties>  (1) 
{"5": {"label": "donator", "atom_type": "Cs"}, "18": {"label": "d_hydrogen", "atom_type": "H0"}}

>  <type>  (1) 
r1h

$$$$

     RDKit          3D

  8  7  0  0  0  0  0  0  0  0999 V2000
   -2.2129    0.4855    0.7390 C   0  0  0  0  0  0  0  0  0  0  0  0
   -1.2226    0.0526    0.1974 C   0  0  0  0  0  0  0  0  0  0  0  0
   -0.1006   -0.4575   -0.4419 C   0  0  0  0  0  3  0  0  0  0  0  0
    1.1960   -0.1737   -0.0342 C   0  0  0  0  0  0  0  0  0  0  0  0
    2.3329    0.0603    0.3036 C   0  0  0  0  0  0  0  0  0  0  0  0
   -3.0803    0.8696    1.2198 H   0  0  0  0  0  0  0  0  0  0  0  0
   -0.2433   -1.1067   -1.2980 H   0  0  0  0  0  0  0  0  0  0  0  0
    3.3308    0.2700    0.6058 H   0  0  0  0  0  0  0  0  0  0  0  0
  1  2  3  0
  1  6  1  0
  2  3  1  0
  3  4  1  0
  3  7  1  0
  4  5  3  0
  5  8  1  0
M  RAD  1   3   2
M  END
>  <reaction>  (2) 
rxn_611

>  <mol_properties>  (2) 
{"2": {"label": "acceptor", "atom_type": "Cs"}}

>  <type>  (2) 
r2

$$$$

     RDKit          3D

  9  8  0  0  0  0  0  0  0  0999 V2000
   -2.1022   -0.6873    0.3932 C   0  0  0  0  0  0  0  0  0  0  0  0
   -1.2072   -0.1086   -0.1482 C   0  0  0  0  0  0  0  0  0  0  0  0
   -0.1242    0.6105   -0.8193 C   0  0  0  0  0  0  0  0  0  0  0  0
    1.2067    0.1106   -0.4741 C   0  0  0  0  0  0  0  0  0  0  0  0
    2.3005   -0.2875   -0.2012 C   0  0  0  0  0  0  0  0  0  0  0  0
   -2.8942   -1.2059    0.8778 H   0  0  0  0  0  0  0  0  0  0  0  0
   -0.1862    1.6723   -0.5649 H   0  0  0  0  0  0  0  0  0  0  0  0
   -0.2641    0.5418   -1.9017 H   0  0  0  0  0  0  0  0  0  0  0  0
    3.2709   -0.6459    0.0455 H   0  0  0  0  0  0  0  0  0  0  0  0
  1  2  3  0
  1  6  1  0
  2  3  1  0
  3  4  1  0
  3  7  1  0
  3  8  1  0
  4  5  3  0
  5  9  1  0
M  END
>  <reaction>  (3) 
rxn_611

>  <mol_properties>  (3) 
{"2": {"label": "acceptor", "atom_type": "Cs"}, "8": {"label": "a_hydrogen", "atom_type": "H0"}}

>  <type>  (3) 
r2h

$$$$

     RDKit          3D

 33 33  0  0  0  0  0  0  0  0999 V2000
    0.6914    2.6244    2.9565 C   0  0  0  0  0  0  0  0  0  0  0  0
    0.4127    2.6438    1.7898 C   0  0  0  0  0  0  0  0  0  0  0  0
    0.1312    2.6302    0.3801 C   0  0  0  0  0  0  0  0  0  0  0  0
   -1.2069    2.2681    0.0001 C   0  0  0  0  0  0  0  0  0  0  0  0
   -2.3019    1.9237   -0.3499 C   0  0  0  0  0  0  0  0  0  0  0  0
    0.9237    2.6196    3.9941 H   0  0  0  0  0  0  0  0  0  0  0  0
    0.4807    3.5303   -0.1259 H   0  0  0  0  0  0  0  0  0  0  0  0
   -3.2806    1.6347   -0.6488 H   0  0  0  0  0  0  0  0  0  0  0  0
   -1.1741   -3.1699   -1.0955 C   0  0  0  0  0  0  0  0  0  0  0  0
   -1.1058   -3.0688    0.4307 C   0  0  0  0  0  0  0  0  0  0  0  0
    0.2067   -2.4479    0.9194 C   0  0  0  0  0  0  0  0  0  0  0  0
    0.4154   -1.1112    0.2329 C   0  0  0  0  0  0  0  0  0  0  0  0
    1.6972   -0.3254    0.4891 C   0  0  0  0  0  0  0  0  0  0  0  0
    1.6941    0.6726   -0.6492 C   0  0  0  0  0  3  0  0  0  0  0  0
    0.8607    0.1148   -1.7925 C   0  0  0  0  0  0  0  0  0  0  0  0
    0.4171   -1.2641   -1.2891 C   0  0  0  0  0  0  0  0  0  0  0  0
   -0.9014   -1.8296   -1.7851 C   0  0  0  0  0  0  0  0  0  0  0  0
   -0.4302   -3.8981   -1.4377 H   0  0  0  0  0  0  0  0  0  0  0  0
   -2.1498   -3.5580   -1.3967 H   0  0  0  0  0  0  0  0  0  0  0  0
   -1.9372   -2.4490    0.7840 H   0  0  0  0  0  0  0  0  0  0  0  0
   -1.2442   -4.0579    0.8730 H   0  0  0  0  0  0  0  0  0  0  0  0
    0.1882   -2.3330    2.0061 H   0  0  0  0  0  0  0  0  0  0  0  0
    1.0447   -3.1141    0.6819 H   0  0  0  0  0  0  0  0  0  0  0  0
   -0.4290   -0.4594    0.4953 H   0  0  0  0  0  0  0  0  0  0  0  0
    1.7323    0.1518    1.4710 H   0  0  0  0  0  0  0  0  0  0  0  0
    2.5711   -0.9864    0.4162 H   0  0  0  0  0  0  0  0  0  0  0  0
    0.9129    1.7228   -0.1296 H   0  0  0  0  0  0  0  0  0  0  0  0
    2.6174    1.1969   -0.8822 H   0  0  0  0  0  0  0  0  0  0  0  0
    1.4206    0.0652   -2.7288 H   0  0  0  0  0  0  0  0  0  0  0  0
   -0.0156    0.7457   -1.9824 H   0  0  0  0  0  0  0  0  0  0  0  0
    1.2097   -1.9845   -1.5362 H   0  0  0  0  0  0  0  0  0  0  0  0
   -0.8937   -1.9579   -2.8707 H   0  0  0  0  0  0  0  0  0  0  0  0
   -1.7025   -1.1187   -1.5517 H   0  0  0  0  0  0  0  0  0  0  0  0
  1  2  3  0
  1  6  1  0
  2  3  1  0
  3  4  1  0
  3  7  1  0
  3 27  1  0
  4  5  3  0
  5  8  1  0
  9 10  1  0
  9 17  1  0
  9 18  1  0
  9 19  1  0
 10 11  1  0
 10 20  1  0
 10 21  1  0
 11 12  1  0
 11 22  1  0
 11 23  1  0
 12 13  1  0
 12 16  1  0
 12 24  1  0
 13 14  1  0
 13 25  1  0
 13 26  1  0
 14 15  1  0
 14 28  1  0
 15 16  1  0
 15 29  1  0
 15 30  1  0
 16 17  1  0
 16 31  1  0
 17 32  1  0
 17 33  1  0
M  RAD  1  14   2
M  END
>  <reaction>  (4) 
rxn_611

>  <mol_properties>  (4) 
{"1": {"label": "*0", "atom_type": "Ct"}, "2": {"label": "*1", "atom_type": "Cs"}, "12": {"label": "*4", "atom_type": "Cs"}, "13": {"label": "*3", "atom_type": "Cs"}, "26": {"label": "*2", "atom_type": "H0"}}

>  <type>  (4) 
ts

$$$$
