
     RDKit          3D

  7  6  0  0  0  0  0  0  0  0999 V2000
   -0.6782    0.0507    0.0301 C   0  0  0  0  0  0  0  0  0  0  0  0
    0.8092    0.0996    0.0213 C   0  0  0  0  0  0  0  0  0  0  0  0
    1.7473    0.7521    1.1507 S   0  0  0  0  0  0  0  0  0  0  0  0
   -1.0667    0.5456   -0.8653 H   0  0  0  0  0  0  0  0  0  0  0  0
   -1.0112   -0.9904   -0.0239 H   0  0  0  0  0  0  0  0  0  0  0  0
   -1.0920    0.5225    0.9188 H   0  0  0  0  0  0  0  0  0  0  0  0
    1.2740   -0.3620   -0.8520 H   0  0  0  0  0  0  0  0  0  0  0  0
  1  2  1  0
  1  4  1  0
  1  5  1  0
  1  6  1  0
  2  3  2  0
  2  7  1  0
M  END
>  <reaction>  (1) 
rxn_1967

>  <mol_properties>  (1) 
{"0": {"label": "donator", "atom_type": "Cs"}, "3": {"label": "d_hydrogen", "atom_type": "H0"}}

>  <type>  (1) 
r1h

$$$$

     RDKit          3D

 17 17  0  0  0  0  0  0  0  0999 V2000
    2.7069    0.2860   -0.1817 C   0  0  0  0  0  0  0  0  0  0  0  0
    1.6304   -0.7245    0.0085 C   0  0  0  0  0  0  0  0  0  0  0  0
    1.4786   -1.8800   -0.7837 C   0  0  0  0  0  0  0  0  0  0  0  0
    0.4231   -2.7891   -0.5312 C   0  0  0  0  0  3  0  0  0  0  0  0
    0.2582   -3.9235   -1.2940 C   0  0  0  0  0  0  0  0  0  0  0  0
    1.1348   -4.2030   -2.3401 C   0  0  0  0  0  0  0  0  0  0  0  0
    2.1804   -3.3260   -2.6093 C   0  0  0  0  0  0  0  0  0  0  0  0
    2.3549   -2.1866   -1.8513 C   0  0  0  0  0  0  0  0  0  0  0  0
    2.6698    0.7343   -1.1808 H   0  0  0  0  0  0  0  0  0  0  0  0
    3.7029   -0.1584   -0.0766 H   0  0  0  0  0  0  0  0  0  0  0  0
    2.6250    1.0917    0.5463 H   0  0  0  0  0  0  0  0  0  0  0  0
    0.9136   -0.5677    0.8059 H   0  0  0  0  0  0  0  0  0  0  0  0
   -0.2629   -2.5783    0.2811 H   0  0  0  0  0  0  0  0  0  0  0  0
   -0.5582   -4.6017   -1.0785 H   0  0  0  0  0  0  0  0  0  0  0  0
    1.0033   -5.0952   -2.9384 H   0  0  0  0  0  0  0  0  0  0  0  0
    2.8650   -3.5382   -3.4214 H   0  0  0  0  0  0  0  0  0  0  0  0
    3.1750   -1.5169   -2.0772 H   0  0  0  0  0  0  0  0  0  0  0  0
  1  2  1  0
  1  9  1  0
  1 10  1  0
  1 11  1  0
  2  3  2  3
  2 12  1  0
  3  4  1  0
  3  8  1  0
  4  5  1  0
  4 13  1  0
  5  6  2  0
  5 14  1  0
  6  7  1  0
  6 15  1  0
  7  8  2  0
  7 16  1  0
  8 17  1  0
M  RAD  1   4   2
M  END
>  <reaction>  (2) 
rxn_1967

>  <mol_properties>  (2) 
{"1": {"label": "acceptor", "atom_type": "Cs"}}

>  <type>  (2) 
r2

$$$$

     RDKit          3D

 18 18  0  0  0  0  0  0  0  0999 V2000
   -2.4852    0.3210   -0.3966 C   0  0  0  0  0  0  0  0  0  0  0  0
   -1.5917   -0.2708    0.6941 C   0  0  0  0  0  0  0  0  0  0  0  0
   -0.1292   -0.1692    0.3493 C   0  0  0  0  0  0  0  0  0  0  0  0
    0.6099    0.9558    0.7015 C   0  0  0  0  0  0  0  0  0  0  0  0
    1.9447    1.0728    0.3458 C   0  0  0  0  0  0  0  0  0  0  0  0
    2.5646    0.0613   -0.3720 C   0  0  0  0  0  0  0  0  0  0  0  0
    1.8399   -1.0657   -0.7287 C   0  0  0  0  0  0  0  0  0  0  0  0
    0.5055   -1.1769   -0.3700 C   0  0  0  0  0  0  0  0  0  0  0  0
   -2.3325   -0.1971   -1.3452 H   0  0  0  0  0  0  0  0  0  0  0  0
   -2.2554    1.3763   -0.5546 H   0  0  0  0  0  0  0  0  0  0  0  0
   -3.5397    0.2376   -0.1280 H   0  0  0  0  0  0  0  0  0  0  0  0
   -1.7801    0.2462    1.6380 H   0  0  0  0  0  0  0  0  0  0  0  0
   -1.8568   -1.3190    0.8516 H   0  0  0  0  0  0  0  0  0  0  0  0
    0.1327    1.7497    1.2656 H   0  0  0  0  0  0  0  0  0  0  0  0
    2.5033    1.9550    0.6330 H   0  0  0  0  0  0  0  0  0  0  0  0
    3.6077    0.1491   -0.6484 H   0  0  0  0  0  0  0  0  0  0  0  0
    2.3163   -1.8632   -1.2854 H   0  0  0  0  0  0  0  0  0  0  0  0
   -0.0540   -2.0629   -0.6500 H   0  0  0  0  0  0  0  0  0  0  0  0
  1  2  1  0
  1  9  1  0
  1 10  1  0
  1 11  1  0
  2  3  1  0
  2 12  1  0
  2 13  1  0
  3  4  2  0
  3  8  1  0
  4  5  1  0
  4 14  1  0
  5  6  2  0
  5 15  1  0
  6  7  1  0
  6 16  1  0
  7  8  2  0
  7 17  1  0
  8 18  1  0
M  END
>  <reaction>  (3) 
rxn_1967

>  <mol_properties>  (3) 
{"0": {"label": "a_hydrogen", "atom_type": "H0"}, "2": {"label": "acceptor", "atom_type": "Cs"}}

>  <type>  (3) 
r2h

$$$$

     RDKit          3D

 24 23  0  0  0  0  0  0  0  0999 V2000
    2.1874   -0.5489    0.3781 C   0  0  0  0  0  0  0  0  0  0  0  0
    2.1561   -1.1709   -0.9090 C   0  0  0  0  0  0  0  0  0  0  0  0
    1.6504   -0.4630   -2.2964 S   0  0  0  0  0  0  0  0  0  0  0  0
    1.0129   -0.7676    0.9040 H   0  0  0  0  0  0  0  0  0  0  0  0
    2.8447   -1.0012    1.1177 H   0  0  0  0  0  0  0  0  0  0  0  0
    2.1733    0.5382    0.3827 H   0  0  0  0  0  0  0  0  0  0  0  0
    2.4476   -2.2213   -0.9353 H   0  0  0  0  0  0  0  0  0  0  0  0
   -0.6612   -2.1964    0.6223 C   0  0  0  0  0  0  0  0  0  0  0  0
   -0.2823   -0.9527    1.3731 C   0  0  0  0  0  0  0  0  0  0  0  0
   -0.9311    0.3240    1.0847 C   0  0  0  0  0  0  0  0  0  0  0  0
   -0.9149    1.3436    2.0441 C   0  0  0  0  0  3  0  0  0  0  0  0
   -1.4785    2.5779    1.7817 C   0  0  0  0  0  0  0  0  0  0  0  0
   -2.0682    2.8256    0.5490 C   0  0  0  0  0  0  0  0  0  0  0  0
   -2.0876    1.8279   -0.4147 C   0  0  0  0  0  0  0  0  0  0  0  0
   -1.5244    0.5914   -0.1534 C   0  0  0  0  0  0  0  0  0  0  0  0
   -0.4759   -2.0938   -0.4494 H   0  0  0  0  0  0  0  0  0  0  0  0
   -1.7230   -2.4231    0.7534 H   0  0  0  0  0  0  0  0  0  0  0  0
   -0.0853   -3.0511    0.9776 H   0  0  0  0  0  0  0  0  0  0  0  0
   -0.0698   -1.1058    2.4295 H   0  0  0  0  0  0  0  0  0  0  0  0
   -0.4561    1.1547    3.0081 H   0  0  0  0  0  0  0  0  0  0  0  0
   -1.4597    3.3509    2.5396 H   0  0  0  0  0  0  0  0  0  0  0  0
   -2.5085    3.7922    0.3408 H   0  0  0  0  0  0  0  0  0  0  0  0
   -2.5395    2.0164   -1.3801 H   0  0  0  0  0  0  0  0  0  0  0  0
   -1.5371   -0.1703   -0.9217 H   0  0  0  0  0  0  0  0  0  0  0  0
  1  2  1  0
  1  4  1  0
  1  5  1  0
  1  6  1  0
  2  3  2  0
  2  7  1  0
  8  9  1  0
  8 16  1  0
  8 17  1  0
  8 18  1  0
  9 10  2  3
  9 19  1  0
 10 11  1  0
 10 15  1  0
 11 12  1  0
 11 20  1  0
 12 13  2  0
 12 21  1  0
 13 14  1  0
 13 22  1  0
 14 15  2  0
 14 23  1  0
 15 24  1  0
M  RAD  1  11   2
M  END
>  <reaction>  (4) 
rxn_1967

>  <mol_properties>  (4) 
{"0": {"label": "*1", "atom_type": "Cs"}, "1": {"label": "*0", "atom_type": "CS"}, "3": {"label": "*2", "atom_type": "H0"}, "8": {"label": "*3", "atom_type": "Cd"}, "9": {"label": "*4", "atom_type": "Cd"}}

>  <type>  (4) 
ts

$$$$
