
     RDKit          3D

 22 23  0  0  0  0  0  0  0  0999 V2000
   -2.1093   -0.3263    0.3079 C   0  0  0  0  0  0  0  0  0  0  0  0
   -1.3270    0.9803    0.4115 C   0  0  0  0  0  0  0  0  0  0  0  0
   -0.1818    0.8289   -0.6044 C   0  0  0  0  0  0  0  0  0  0  0  0
    1.1682    1.3904   -0.1341 C   0  0  0  0  0  0  0  0  0  0  0  0
    1.8508    0.2041    0.5479 C   0  0  0  0  0  0  0  0  0  0  0  0
    1.4982   -0.9663   -0.3710 C   0  0  0  0  0  0  0  0  0  0  0  0
    0.0340   -0.7124   -0.7594 C   0  0  0  0  0  0  0  0  0  0  0  0
   -0.9986   -1.3650    0.1756 C   0  0  0  0  0  0  0  0  0  0  0  0
   -2.7686   -0.5042    1.1589 H   0  0  0  0  0  0  0  0  0  0  0  0
   -2.7285   -0.3223   -0.5943 H   0  0  0  0  0  0  0  0  0  0  0  0
   -1.9339    1.8682    0.2289 H   0  0  0  0  0  0  0  0  0  0  0  0
   -0.9144    1.0729    1.4218 H   0  0  0  0  0  0  0  0  0  0  0  0
   -0.4804    1.2763   -1.5535 H   0  0  0  0  0  0  0  0  0  0  0  0
    1.7667    1.7058   -0.9931 H   0  0  0  0  0  0  0  0  0  0  0  0
    1.0540    2.2578    0.5189 H   0  0  0  0  0  0  0  0  0  0  0  0
    1.4197    0.0438    1.5410 H   0  0  0  0  0  0  0  0  0  0  0  0
    2.9248    0.3413    0.6788 H   0  0  0  0  0  0  0  0  0  0  0  0
    2.1362   -0.9329   -1.2584 H   0  0  0  0  0  0  0  0  0  0  0  0
    1.6421   -1.9421    0.0966 H   0  0  0  0  0  0  0  0  0  0  0  0
   -0.1575   -1.0299   -1.7854 H   0  0  0  0  0  0  0  0  0  0  0  0
   -1.3459   -2.3310   -0.1933 H   0  0  0  0  0  0  0  0  0  0  0  0
   -0.5489   -1.5373    1.1593 H   0  0  0  0  0  0  0  0  0  0  0  0
  1  2  1  0
  1  8  1  0
  1  9  1  0
  1 10  1  0
  2  3  1  0
  2 11  1  0
  2 12  1  0
  3  4  1  0
  3  7  1  0
  3 13  1  0
  4  5  1  0
  4 14  1  0
  4 15  1  0
  5  6  1  0
  5 16  1  0
  5 17  1  0
  6  7  1  0
  6 18  1  0
  6 19  1  0
  7  8  1  0
  7 20  1  0
  8 21  1  0
  8 22  1  0
M  END
>  <reaction>  (1) 
rxn_562

>  <mol_properties>  (1) 
{"2": {"label": "donator", "atom_type": "Cs"}, "12": {"label": "d_hydrogen", "atom_type": "H0"}}

>  <type>  (1) 
r1h

$$$$

     RDKit          3D

 12 11  0  0  0  0  0  0  0  0999 V2000
   -2.3791    0.4612   -0.5870 C   0  0  0  0  0  0  0  0  0  0  0  0
   -1.3422   -0.3138   -0.1893 C   0  0  0  0  0  0  0  0  0  0  0  0
   -1.4723   -1.6058    0.3589 C   0  0  0  0  0  3  0  0  0  0  0  0
   -0.3798   -2.3973    0.7671 C   0  0  0  0  0  0  0  0  0  0  0  0
   -0.4849   -3.6397    1.2956 C   0  0  0  0  0  0  0  0  0  0  0  0
   -2.2205    1.4472   -1.0017 H   0  0  0  0  0  0  0  0  0  0  0  0
   -3.4026    0.1153   -0.5011 H   0  0  0  0  0  0  0  0  0  0  0  0
   -0.3330    0.0765   -0.2952 H   0  0  0  0  0  0  0  0  0  0  0  0
   -2.4723   -2.0151    0.4735 H   0  0  0  0  0  0  0  0  0  0  0  0
    0.6117   -1.9687    0.6436 H   0  0  0  0  0  0  0  0  0  0  0  0
    0.3893   -4.2030    1.5920 H   0  0  0  0  0  0  0  0  0  0  0  0
   -1.4516   -4.1084    1.4378 H   0  0  0  0  0  0  0  0  0  0  0  0
  1  2  2  3
  1  6  1  0
  1  7  1  0
  2  3  1  0
  2  8  1  0
  3  4  1  0
  3  9  1  0
  4  5  2  3
  4 10  1  0
  5 11  1  0
  5 12  1  0
M  RAD  1   3   2
M  END
>  <reaction>  (2) 
rxn_562

>  <mol_properties>  (2) 
{"2": {"label": "acceptor", "atom_type": "Cs"}}

>  <type>  (2) 
r2

$$$$

     RDKit          3D

 13 12  0  0  0  0  0  0  0  0999 V2000
    3.0977   -0.3549   -0.5105 C   0  0  0  0  0  0  0  0  0  0  0  0
    2.0556    0.4221   -0.2627 C   0  0  0  0  0  0  0  0  0  0  0  0
    0.6313   -0.0354   -0.2366 C   0  0  0  0  0  0  0  0  0  0  0  0
   -0.2567    0.6038   -1.2694 C   0  0  0  0  0  0  0  0  0  0  0  0
    0.1459    1.3456   -2.2891 C   0  0  0  0  0  0  0  0  0  0  0  0
    4.1081    0.0344   -0.5074 H   0  0  0  0  0  0  0  0  0  0  0  0
    2.9777   -1.4116   -0.7243 H   0  0  0  0  0  0  0  0  0  0  0  0
    2.2171    1.4781   -0.0618 H   0  0  0  0  0  0  0  0  0  0  0  0
    0.5865   -1.1233   -0.3540 H   0  0  0  0  0  0  0  0  0  0  0  0
    0.2065    0.1743    0.7521 H   0  0  0  0  0  0  0  0  0  0  0  0
   -1.3190    0.4126   -1.1445 H   0  0  0  0  0  0  0  0  0  0  0  0
    1.1948    1.5564   -2.4628 H   0  0  0  0  0  0  0  0  0  0  0  0
   -0.5644    1.7621   -2.9918 H   0  0  0  0  0  0  0  0  0  0  0  0
  1  2  2  3
  1  6  1  0
  1  7  1  0
  2  3  1  0
  2  8  1  0
  3  4  1  0
  3  9  1  0
  3 10  1  0
  4  5  2  3
  4 11  1  0
  5 12  1  0
  5 13  1  0
M  END
>  <reaction>  (3) 
rxn_562

>  <mol_properties>  (3) 
{"2": {"label": "acceptor", "atom_type": "Cs"}, "12": {"label": "a_hydrogen", "atom_type": "H0"}}

>  <type>  (3) 
r2h

$$$$

     RDKit          3D

 34 34  0  0  0  0  0  0  0  0999 V2000
   -1.4472   -3.2259    0.2509 C   0  0  0  0  0  0  0  0  0  0  0  0
   -1.6725   -1.9471   -0.0343 C   0  0  0  0  0  0  0  0  0  0  0  0
   -1.6169   -0.8460    0.9400 C   0  0  0  0  0  0  0  0  0  0  0  0
   -2.5231    0.3074    0.7855 C   0  0  0  0  0  0  0  0  0  0  0  0
   -3.2913    0.6016   -0.2611 C   0  0  0  0  0  0  0  0  0  0  0  0
   -1.4561   -3.9869   -0.5187 H   0  0  0  0  0  0  0  0  0  0  0  0
   -1.2521   -3.5535    1.2665 H   0  0  0  0  0  0  0  0  0  0  0  0
   -1.8584   -1.6736   -1.0691 H   0  0  0  0  0  0  0  0  0  0  0  0
   -1.5645   -1.1996    1.9708 H   0  0  0  0  0  0  0  0  0  0  0  0
   -2.5131    1.0040    1.6197 H   0  0  0  0  0  0  0  0  0  0  0  0
   -3.8852    1.5061   -0.2752 H   0  0  0  0  0  0  0  0  0  0  0  0
   -3.3704   -0.0455   -1.1260 H   0  0  0  0  0  0  0  0  0  0  0  0
    1.9807   -1.2973   -0.9415 C   0  0  0  0  0  0  0  0  0  0  0  0
    1.8053   -0.9108    0.5318 C   0  0  0  0  0  0  0  0  0  0  0  0
    0.8208    0.2387    0.5004 C   0  0  0  0  0  3  0  0  0  0  0  0
    0.9764    1.4357    1.4100 C   0  0  0  0  0  0  0  0  0  0  0  0
    1.5074    2.5281    0.4694 C   0  0  0  0  0  0  0  0  0  0  0  0
    0.7560    2.2667   -0.8399 C   0  0  0  0  0  0  0  0  0  0  0  0
    0.6847    0.7362   -0.9391 C   0  0  0  0  0  0  0  0  0  0  0  0
    1.8370    0.0363   -1.6754 C   0  0  0  0  0  0  0  0  0  0  0  0
    2.9268   -1.8015   -1.1414 H   0  0  0  0  0  0  0  0  0  0  0  0
    1.1737   -1.9721   -1.2389 H   0  0  0  0  0  0  0  0  0  0  0  0
    1.4677   -1.7458    1.1513 H   0  0  0  0  0  0  0  0  0  0  0  0
    2.7592   -0.5686    0.9528 H   0  0  0  0  0  0  0  0  0  0  0  0
   -0.4645   -0.3442    0.7935 H   0  0  0  0  0  0  0  0  0  0  0  0
    0.0044    1.7455    1.8112 H   0  0  0  0  0  0  0  0  0  0  0  0
    1.6312    1.2386    2.2604 H   0  0  0  0  0  0  0  0  0  0  0  0
    2.5819    2.3886    0.3185 H   0  0  0  0  0  0  0  0  0  0  0  0
    1.3598    3.5375    0.8554 H   0  0  0  0  0  0  0  0  0  0  0  0
   -0.2542    2.6779   -0.7694 H   0  0  0  0  0  0  0  0  0  0  0  0
    1.2370    2.7217   -1.7073 H   0  0  0  0  0  0  0  0  0  0  0  0
   -0.2656    0.4196   -1.3818 H   0  0  0  0  0  0  0  0  0  0  0  0
    1.6509   -0.0744   -2.7446 H   0  0  0  0  0  0  0  0  0  0  0  0
    2.7557    0.6214   -1.5595 H   0  0  0  0  0  0  0  0  0  0  0  0
  1  2  2  3
  1  6  1  0
  1  7  1  0
  2  3  1  0
  2  8  1  0
  3  4  1  0
  3  9  1  0
  3 25  1  0
  4  5  2  3
  4 10  1  0
  5 11  1  0
  5 12  1  0
 13 20  1  0
 13 14  1  0
 13 21  1  0
 13 22  1  0
 14 15  1  0
 14 23  1  0
 14 24  1  0
 15 16  1  0
 15 19  1  0
 16 17  1  0
 16 26  1  0
 16 27  1  0
 17 18  1  0
 17 28  1  0
 17 29  1  0
 18 19  1  0
 18 30  1  0
 18 31  1  0
 19 20  1  0
 19 32  1  0
 20 33  1  0
 20 34  1  0
M  RAD  1  15   2
M  END
>  <reaction>  (4) 
rxn_562

>  <mol_properties>  (4) 
{"1": {"label": "*0", "atom_type": "Cd"}, "2": {"label": "*1", "atom_type": "Cs"}, "14": {"label": "*3", "atom_type": "Cs"}, "18": {"label": "*4", "atom_type": "Cs"}, "24": {"label": "*2", "atom_type": "H0"}}

>  <type>  (4) 
ts

$$$$
