
     RDKit          3D

  9  8  0  0  0  0  0  0  0  0999 V2000
   -2.1022   -0.6873    0.3932 C   0  0  0  0  0  0  0  0  0  0  0  0
   -1.2072   -0.1086   -0.1482 C   0  0  0  0  0  0  0  0  0  0  0  0
   -0.1242    0.6105   -0.8193 C   0  0  0  0  0  0  0  0  0  0  0  0
    1.2067    0.1106   -0.4741 C   0  0  0  0  0  0  0  0  0  0  0  0
    2.3005   -0.2875   -0.2012 C   0  0  0  0  0  0  0  0  0  0  0  0
   -2.8942   -1.2059    0.8778 H   0  0  0  0  0  0  0  0  0  0  0  0
   -0.1862    1.6723   -0.5649 H   0  0  0  0  0  0  0  0  0  0  0  0
   -0.2641    0.5418   -1.9017 H   0  0  0  0  0  0  0  0  0  0  0  0
    3.2709   -0.6459    0.0455 H   0  0  0  0  0  0  0  0  0  0  0  0
  1  2  3  0
  1  6  1  0
  2  3  1  0
  3  4  1  0
  3  7  1  0
  3  8  1  0
  4  5  3  0
  5  9  1  0
M  END
>  <reaction>  (1) 
rxn_1361

>  <mol_properties>  (1) 
{"2": {"label": "donator", "atom_type": "Cs"}, "6": {"label": "d_hydrogen", "atom_type": "H0"}}

>  <type>  (1) 
r1h

$$$$

     RDKit          3D

 20 20  0  0  0  0  0  0  0  0999 V2000
   -2.4774    0.8083    0.1488 C   0  0  0  0  0  0  0  0  0  0  0  0
   -1.4172   -0.1696   -0.2476 C   0  0  0  0  0  3  0  0  0  0  0  0
   -0.2904    0.2932   -1.1156 C   0  0  0  0  0  0  0  0  0  0  0  0
   -1.4797   -1.5204    0.1947 C   0  0  0  0  0  0  0  0  0  0  0  0
   -0.4907   -2.4664   -0.1650 C   0  0  0  0  0  0  0  0  0  0  0  0
   -0.5559   -3.7750    0.2665 C   0  0  0  0  0  0  0  0  0  0  0  0
   -1.6038   -4.2041    1.0733 C   0  0  0  0  0  0  0  0  0  0  0  0
   -2.5899   -3.2959    1.4424 C   0  0  0  0  0  0  0  0  0  0  0  0
   -2.5339   -1.9852    1.0162 C   0  0  0  0  0  0  0  0  0  0  0  0
   -3.4697    0.4933   -0.1924 H   0  0  0  0  0  0  0  0  0  0  0  0
   -2.5434    0.9184    1.2368 H   0  0  0  0  0  0  0  0  0  0  0  0
   -2.2829    1.7944   -0.2706 H   0  0  0  0  0  0  0  0  0  0  0  0
   -0.2452   -0.2661   -2.0565 H   0  0  0  0  0  0  0  0  0  0  0  0
   -0.3905    1.3487   -1.3647 H   0  0  0  0  0  0  0  0  0  0  0  0
    0.6811    0.1589   -0.6274 H   0  0  0  0  0  0  0  0  0  0  0  0
    0.3373   -2.1635   -0.7918 H   0  0  0  0  0  0  0  0  0  0  0  0
    0.2187   -4.4725   -0.0281 H   0  0  0  0  0  0  0  0  0  0  0  0
   -1.6513   -5.2316    1.4097 H   0  0  0  0  0  0  0  0  0  0  0  0
   -3.4116   -3.6175    2.0706 H   0  0  0  0  0  0  0  0  0  0  0  0
   -3.3164   -1.3029    1.3205 H   0  0  0  0  0  0  0  0  0  0  0  0
  1  2  1  0
  1 10  1  0
  1 11  1  0
  1 12  1  0
  2  3  1  0
  2  4  1  0
  3 13  1  0
  3 14  1  0
  3 15  1  0
  4  5  2  0
  4  9  1  0
  5  6  1  0
  5 16  1  0
  6  7  2  0
  6 17  1  0
  7  8  1  0
  7 18  1  0
  8  9  2  0
  8 19  1  0
  9 20  1  0
M  RAD  1   2   2
M  END
>  <reaction>  (2) 
rxn_1361

>  <mol_properties>  (2) 
{"1": {"label": "acceptor", "atom_type": "Cs"}}

>  <type>  (2) 
r2

$$$$

     RDKit          3D

 21 21  0  0  0  0  0  0  0  0999 V2000
   -1.3695    1.3367   -1.0719 C   0  0  0  0  0  0  0  0  0  0  0  0
   -1.4091   -0.0981   -0.5428 C   0  0  0  0  0  0  0  0  0  0  0  0
   -0.1819   -0.3999    0.3191 C   0  0  0  0  0  0  0  0  0  0  0  0
   -1.5636   -1.1028   -1.6652 C   0  0  0  0  0  0  0  0  0  0  0  0
   -0.5920   -1.2314   -2.6553 C   0  0  0  0  0  0  0  0  0  0  0  0
   -0.7353   -2.1509   -3.6809 C   0  0  0  0  0  0  0  0  0  0  0  0
   -1.8582   -2.9642   -3.7377 C   0  0  0  0  0  0  0  0  0  0  0  0
   -2.8325   -2.8475   -2.7602 C   0  0  0  0  0  0  0  0  0  0  0  0
   -2.6828   -1.9241   -1.7351 C   0  0  0  0  0  0  0  0  0  0  0  0
   -0.4920    1.4974   -1.7025 H   0  0  0  0  0  0  0  0  0  0  0  0
   -2.2553    1.5607   -1.6679 H   0  0  0  0  0  0  0  0  0  0  0  0
   -1.3211    2.0496   -0.2461 H   0  0  0  0  0  0  0  0  0  0  0  0
   -2.2930   -0.1918    0.0948 H   0  0  0  0  0  0  0  0  0  0  0  0
   -0.1215    0.2955    1.1588 H   0  0  0  0  0  0  0  0  0  0  0  0
   -0.2200   -1.4155    0.7159 H   0  0  0  0  0  0  0  0  0  0  0  0
    0.7383   -0.3016   -0.2615 H   0  0  0  0  0  0  0  0  0  0  0  0
    0.2915   -0.6040   -2.6263 H   0  0  0  0  0  0  0  0  0  0  0  0
    0.0326   -2.2338   -4.4401 H   0  0  0  0  0  0  0  0  0  0  0  0
   -1.9712   -3.6833   -4.5391 H   0  0  0  0  0  0  0  0  0  0  0  0
   -3.7135   -3.4765   -2.7932 H   0  0  0  0  0  0  0  0  0  0  0  0
   -3.4509   -1.8400   -0.9743 H   0  0  0  0  0  0  0  0  0  0  0  0
  1  2  1  0
  1 10  1  0
  1 11  1  0
  1 12  1  0
  2  3  1  0
  2  4  1  0
  2 13  1  0
  3 14  1  0
  3 15  1  0
  3 16  1  0
  4  5  2  0
  4  9  1  0
  5  6  1  0
  5 17  1  0
  6  7  2  0
  6 18  1  0
  7  8  1  0
  7 19  1  0
  8  9  2  0
  8 20  1  0
  9 21  1  0
M  END
>  <reaction>  (3) 
rxn_1361

>  <mol_properties>  (3) 
{"0": {"label": "a_hydrogen", "atom_type": "H0"}, "2": {"label": "acceptor", "atom_type": "Cs"}}

>  <type>  (3) 
r2h

$$$$

     RDKit          3D

 29 28  0  0  0  0  0  0  0  0999 V2000
   -1.2225   -1.3187   -2.9613 C   0  0  0  0  0  0  0  0  0  0  0  0
   -1.4266   -1.3678   -1.7792 C   0  0  0  0  0  0  0  0  0  0  0  0
   -1.6262   -1.3716   -0.3614 C   0  0  0  0  0  0  0  0  0  0  0  0
   -2.9741   -1.2607    0.1089 C   0  0  0  0  0  0  0  0  0  0  0  0
   -4.0875   -1.1200    0.5354 C   0  0  0  0  0  0  0  0  0  0  0  0
   -1.0585   -1.2985   -4.0117 H   0  0  0  0  0  0  0  0  0  0  0  0
   -1.0037   -0.2656    0.0833 H   0  0  0  0  0  0  0  0  0  0  0  0
   -1.0395   -2.1286    0.1581 H   0  0  0  0  0  0  0  0  0  0  0  0
   -5.0802   -1.0163    0.9019 H   0  0  0  0  0  0  0  0  0  0  0  0
   -0.9362    1.8361   -0.5777 C   0  0  0  0  0  0  0  0  0  0  0  0
   -0.4417    0.8961    0.4973 C   0  0  0  0  0  3  0  0  0  0  0  0
   -1.1072    1.1082    1.8340 C   0  0  0  0  0  0  0  0  0  0  0  0
    1.0049    0.5725    0.4941 C   0  0  0  0  0  0  0  0  0  0  0  0
    1.7598    0.5460    1.6697 C   0  0  0  0  0  0  0  0  0  0  0  0
    3.1051    0.2137    1.6504 C   0  0  0  0  0  0  0  0  0  0  0  0
    3.7286   -0.1151    0.4576 C   0  0  0  0  0  0  0  0  0  0  0  0
    2.9916   -0.1069   -0.7184 C   0  0  0  0  0  0  0  0  0  0  0  0
    1.6515    0.2338   -0.7009 C   0  0  0  0  0  0  0  0  0  0  0  0
   -0.5520    1.5823   -1.5643 H   0  0  0  0  0  0  0  0  0  0  0  0
   -2.0266    1.8149   -0.6283 H   0  0  0  0  0  0  0  0  0  0  0  0
   -0.6283    2.8623   -0.3506 H   0  0  0  0  0  0  0  0  0  0  0  0
   -0.7709    2.0426    2.2967 H   0  0  0  0  0  0  0  0  0  0  0  0
   -2.1884    1.1712    1.7070 H   0  0  0  0  0  0  0  0  0  0  0  0
   -0.9004    0.2939    2.5297 H   0  0  0  0  0  0  0  0  0  0  0  0
    1.2988    0.8031    2.6139 H   0  0  0  0  0  0  0  0  0  0  0  0
    3.6684    0.2129    2.5753 H   0  0  0  0  0  0  0  0  0  0  0  0
    4.7785   -0.3785    0.4434 H   0  0  0  0  0  0  0  0  0  0  0  0
    3.4637   -0.3718   -1.6563 H   0  0  0  0  0  0  0  0  0  0  0  0
    1.0900    0.2126   -1.6260 H   0  0  0  0  0  0  0  0  0  0  0  0
  1  2  3  0
  1  6  1  0
  2  3  1  0
  3  4  1  0
  3  7  1  0
  3  8  1  0
  4  5  3  0
  5  9  1  0
 10 11  1  0
 10 19  1  0
 10 20  1  0
 10 21  1  0
 11 12  1  0
 11 13  1  0
 12 22  1  0
 12 23  1  0
 12 24  1  0
 13 14  2  0
 13 18  1  0
 14 15  1  0
 14 25  1  0
 15 16  2  0
 15 26  1  0
 16 17  1  0
 16 27  1  0
 17 18  2  0
 17 28  1  0
 18 29  1  0
M  RAD  1  11   2
M  END
>  <reaction>  (4) 
rxn_1361

>  <mol_properties>  (4) 
{"1": {"label": "*0", "atom_type": "Ct"}, "2": {"label": "*1", "atom_type": "Cs"}, "6": {"label": "*2", "atom_type": "H0"}, "10": {"label": "*3", "atom_type": "Cs"}, "12": {"label": "*4", "atom_type": "Cd"}}

>  <type>  (4) 
ts

$$$$
