
     RDKit          3D

 13 12  0  0  0  0  0  0  0  0999 V2000
    3.0977   -0.3549   -0.5105 C   0  0  0  0  0  0  0  0  0  0  0  0
    2.0556    0.4221   -0.2627 C   0  0  0  0  0  0  0  0  0  0  0  0
    0.6313   -0.0354   -0.2366 C   0  0  0  0  0  0  0  0  0  0  0  0
   -0.2567    0.6038   -1.2694 C   0  0  0  0  0  0  0  0  0  0  0  0
    0.1459    1.3456   -2.2891 C   0  0  0  0  0  0  0  0  0  0  0  0
    4.1081    0.0344   -0.5074 H   0  0  0  0  0  0  0  0  0  0  0  0
    2.9777   -1.4116   -0.7243 H   0  0  0  0  0  0  0  0  0  0  0  0
    2.2171    1.4781   -0.0618 H   0  0  0  0  0  0  0  0  0  0  0  0
    0.5865   -1.1233   -0.3540 H   0  0  0  0  0  0  0  0  0  0  0  0
    0.2065    0.1743    0.7521 H   0  0  0  0  0  0  0  0  0  0  0  0
   -1.3190    0.4126   -1.1445 H   0  0  0  0  0  0  0  0  0  0  0  0
    1.1948    1.5564   -2.4628 H   0  0  0  0  0  0  0  0  0  0  0  0
   -0.5644    1.7621   -2.9918 H   0  0  0  0  0  0  0  0  0  0  0  0
  1  2  2  3
  1  6  1  0
  1  7  1  0
  2  3  1  0
  2  8  1  0
  3  4  1  0
  3  9  1  0
  3 10  1  0
  4  5  2  3
  4 11  1  0
  5 12  1  0
  5 13  1  0
M  END
>  <reaction>  (1) 
rxn_745

>  <mol_properties>  (1) 
{"2": {"label": "donator", "atom_type": "Cs"}, "8": {"label": "d_hydrogen", "atom_type": "H0"}}

>  <type>  (1) 
r1h

$$$$

     RDKit          3D

 24 25  0  0  0  0  0  0  0  0999 V2000
   -1.3137    1.2076    0.0526 C   0  0  0  0  0  3  0  0  0  0  0  0
   -2.3065    0.1196    0.2833 C   0  0  0  0  0  0  0  0  0  0  0  0
   -1.7836   -1.0394   -0.5898 C   0  0  0  0  0  0  0  0  0  0  0  0
   -0.2749   -0.7855   -0.6984 C   0  0  0  0  0  0  0  0  0  0  0  0
    0.4655   -1.2917    0.5434 C   0  0  0  0  0  0  0  0  0  0  0  0
    1.8694   -0.7131    0.6745 C   0  0  0  0  0  0  0  0  0  0  0  0
    1.8184    0.8105    0.7119 C   0  0  0  0  0  0  0  0  0  0  0  0
    1.1779    1.3572   -0.5588 C   0  0  0  0  0  0  0  0  0  0  0  0
   -0.2011    0.7528   -0.8316 C   0  0  0  0  0  0  0  0  0  0  0  0
   -1.4277    2.2231    0.4082 H   0  0  0  0  0  0  0  0  0  0  0  0
   -2.3438   -0.1691    1.3425 H   0  0  0  0  0  0  0  0  0  0  0  0
   -3.3295    0.4088    0.0212 H   0  0  0  0  0  0  0  0  0  0  0  0
   -2.2393   -0.9859   -1.5815 H   0  0  0  0  0  0  0  0  0  0  0  0
   -2.0144   -2.0220   -0.1744 H   0  0  0  0  0  0  0  0  0  0  0  0
    0.1520   -1.2674   -1.5825 H   0  0  0  0  0  0  0  0  0  0  0  0
   -0.1033   -1.0202    1.4396 H   0  0  0  0  0  0  0  0  0  0  0  0
    0.4983   -2.3841    0.5177 H   0  0  0  0  0  0  0  0  0  0  0  0
    2.4827   -1.0338   -0.1757 H   0  0  0  0  0  0  0  0  0  0  0  0
    2.3514   -1.1019    1.5744 H   0  0  0  0  0  0  0  0  0  0  0  0
    1.2359    1.1286    1.5834 H   0  0  0  0  0  0  0  0  0  0  0  0
    2.8216    1.2258    0.8314 H   0  0  0  0  0  0  0  0  0  0  0  0
    1.0952    2.4462   -0.5109 H   0  0  0  0  0  0  0  0  0  0  0  0
    1.8331    1.1314   -1.4069 H   0  0  0  0  0  0  0  0  0  0  0  0
   -0.4636    1.0027   -1.8738 H   0  0  0  0  0  0  0  0  0  0  0  0
  1  2  1  0
  1  9  1  0
  1 10  1  0
  2  3  1  0
  2 11  1  0
  2 12  1  0
  3  4  1  0
  3 13  1  0
  3 14  1  0
  4  5  1  0
  4  9  1  0
  4 15  1  0
  5  6  1  0
  5 16  1  0
  5 17  1  0
  6  7  1  0
  6 18  1  0
  6 19  1  0
  7  8  1  0
  7 20  1  0
  7 21  1  0
  8  9  1  0
  8 22  1  0
  8 23  1  0
  9 24  1  0
M  RAD  1   1   2
M  END
>  <reaction>  (2) 
rxn_745

>  <mol_properties>  (2) 
{"0": {"label": "acceptor", "atom_type": "Cs"}}

>  <type>  (2) 
r2

$$$$

     RDKit          3D

 25 26  0  0  0  0  0  0  0  0999 V2000
    2.0298   -1.1515    0.0571 C   0  0  0  0  0  0  0  0  0  0  0  0
    2.2278    0.2445    0.6528 C   0  0  0  0  0  0  0  0  0  0  0  0
    1.2292    1.2625    0.0947 C   0  0  0  0  0  0  0  0  0  0  0  0
   -0.1869    0.7454    0.2762 C   0  0  0  0  0  0  0  0  0  0  0  0
   -1.3415    1.5501   -0.3122 C   0  0  0  0  0  0  0  0  0  0  0  0
   -2.5060    0.5338   -0.4178 C   0  0  0  0  0  0  0  0  0  0  0  0
   -1.8709   -0.8658   -0.2234 C   0  0  0  0  0  0  0  0  0  0  0  0
   -0.3715   -0.6265   -0.3693 C   0  0  0  0  0  0  0  0  0  0  0  0
    0.5898   -1.6500    0.2086 C   0  0  0  0  0  0  0  0  0  0  0  0
    2.2820   -1.1226   -1.0088 H   0  0  0  0  0  0  0  0  0  0  0  0
    2.7243   -1.8549    0.5221 H   0  0  0  0  0  0  0  0  0  0  0  0
    2.1030    0.1885    1.7400 H   0  0  0  0  0  0  0  0  0  0  0  0
    3.2514    0.5819    0.4743 H   0  0  0  0  0  0  0  0  0  0  0  0
    1.3611    2.2304    0.5855 H   0  0  0  0  0  0  0  0  0  0  0  0
    1.4198    1.4194   -0.9737 H   0  0  0  0  0  0  0  0  0  0  0  0
   -0.3675    0.6209    1.3539 H   0  0  0  0  0  0  0  0  0  0  0  0
   -1.5992    2.4249    0.2862 H   0  0  0  0  0  0  0  0  0  0  0  0
   -1.0595    1.9116   -1.3055 H   0  0  0  0  0  0  0  0  0  0  0  0
   -3.2666    0.7244    0.3399 H   0  0  0  0  0  0  0  0  0  0  0  0
   -3.0030    0.6112   -1.3853 H   0  0  0  0  0  0  0  0  0  0  0  0
   -2.2549   -1.6039   -0.9288 H   0  0  0  0  0  0  0  0  0  0  0  0
   -2.0796   -1.2429    0.7821 H   0  0  0  0  0  0  0  0  0  0  0  0
   -0.1432   -0.5121   -1.4391 H   0  0  0  0  0  0  0  0  0  0  0  0
    0.4720   -2.6209   -0.2799 H   0  0  0  0  0  0  0  0  0  0  0  0
    0.3601   -1.7986    1.2704 H   0  0  0  0  0  0  0  0  0  0  0  0
  1  2  1  0
  1  9  1  0
  1 10  1  0
  1 11  1  0
  2  3  1  0
  2 12  1  0
  2 13  1  0
  3  4  1  0
  3 14  1  0
  3 15  1  0
  4  5  1  0
  4  8  1  0
  4 16  1  0
  5  6  1  0
  5 17  1  0
  5 18  1  0
  6  7  1  0
  6 19  1  0
  6 20  1  0
  7  8  1  0
  7 21  1  0
  7 22  1  0
  8  9  1  0
  8 23  1  0
  9 24  1  0
  9 25  1  0
M  END
>  <reaction>  (3) 
rxn_745

>  <mol_properties>  (3) 
{"0": {"label": "a_hydrogen", "atom_type": "H0"}, "1": {"label": "acceptor", "atom_type": "Cs"}}

>  <type>  (3) 
r2h

$$$$

     RDKit          3D

 37 37  0  0  0  0  0  0  0  0999 V2000
   -0.6840   -2.8473    0.3198 C   0  0  0  0  0  0  0  0  0  0  0  0
    0.5037   -2.2806    0.1258 C   0  0  0  0  0  0  0  0  0  0  0  0
    1.2609   -1.5375    1.1410 C   0  0  0  0  0  0  0  0  0  0  0  0
    2.7289   -1.6833    1.1850 C   0  0  0  0  0  0  0  0  0  0  0  0
    3.4873   -2.4200    0.3781 C   0  0  0  0  0  0  0  0  0  0  0  0
   -1.2128   -3.3421   -0.4846 H   0  0  0  0  0  0  0  0  0  0  0  0
   -1.1632   -2.8379    1.2929 H   0  0  0  0  0  0  0  0  0  0  0  0
    0.9407   -2.3176   -0.8689 H   0  0  0  0  0  0  0  0  0  0  0  0
    1.1017   -0.2912    0.8833 H   0  0  0  0  0  0  0  0  0  0  0  0
    0.8076   -1.5900    2.1325 H   0  0  0  0  0  0  0  0  0  0  0  0
    3.2205   -1.0907    1.9524 H   0  0  0  0  0  0  0  0  0  0  0  0
    3.0659   -3.0510   -0.3951 H   0  0  0  0  0  0  0  0  0  0  0  0
    4.5647   -2.4254    0.4802 H   0  0  0  0  0  0  0  0  0  0  0  0
    1.0647    1.1150    0.5595 C   0  0  0  0  0  3  0  0  0  0  0  0
    1.7584    1.1951   -0.7906 C   0  0  0  0  0  0  0  0  0  0  0  0
    0.6308    1.4882   -1.8058 C   0  0  0  0  0  0  0  0  0  0  0  0
   -0.6315    1.0171   -1.0922 C   0  0  0  0  0  0  0  0  0  0  0  0
   -1.9866    1.4878   -1.5871 C   0  0  0  0  0  0  0  0  0  0  0  0
   -3.0801    0.9646   -0.6502 C   0  0  0  0  0  0  0  0  0  0  0  0
   -2.8276    1.3408    0.8123 C   0  0  0  0  0  0  0  0  0  0  0  0
   -1.4414    0.9048    1.2951 C   0  0  0  0  0  0  0  0  0  0  0  0
   -0.3851    1.4599    0.3518 C   0  0  0  0  0  0  0  0  0  0  0  0
    1.5766    1.5238    1.4279 H   0  0  0  0  0  0  0  0  0  0  0  0
    2.5390    1.9585   -0.8074 H   0  0  0  0  0  0  0  0  0  0  0  0
    2.2573    0.2474   -1.0230 H   0  0  0  0  0  0  0  0  0  0  0  0
    0.7904    0.9978   -2.7669 H   0  0  0  0  0  0  0  0  0  0  0  0
    0.5627    2.5643   -1.9938 H   0  0  0  0  0  0  0  0  0  0  0  0
   -0.6346   -0.0805   -1.0939 H   0  0  0  0  0  0  0  0  0  0  0  0
   -2.0065    2.5841   -1.6063 H   0  0  0  0  0  0  0  0  0  0  0  0
   -2.1718    1.1484   -2.6096 H   0  0  0  0  0  0  0  0  0  0  0  0
   -3.1187   -0.1271   -0.7334 H   0  0  0  0  0  0  0  0  0  0  0  0
   -4.0577    1.3375   -0.9643 H   0  0  0  0  0  0  0  0  0  0  0  0
   -2.9142    2.4278    0.9211 H   0  0  0  0  0  0  0  0  0  0  0  0
   -3.6019    0.9018    1.4455 H   0  0  0  0  0  0  0  0  0  0  0  0
   -1.2716    1.2442    2.3203 H   0  0  0  0  0  0  0  0  0  0  0  0
   -1.3801   -0.1879    1.3001 H   0  0  0  0  0  0  0  0  0  0  0  0
   -0.4723    2.5605    0.3719 H   0  0  0  0  0  0  0  0  0  0  0  0
  1  2  2  3
  1  6  1  0
  1  7  1  0
  2  3  1  0
  2  8  1  0
  3  4  1  0
  3  9  1  0
  3 10  1  0
  4  5  2  3
  4 11  1  0
  5 12  1  0
  5 13  1  0
 14 15  1  0
 14 22  1  0
 14 23  1  0
 15 16  1  0
 15 24  1  0
 15 25  1  0
 16 17  1  0
 16 26  1  0
 16 27  1  0
 17 18  1  0
 17 22  1  0
 17 28  1  0
 18 19  1  0
 18 29  1  0
 18 30  1  0
 19 20  1  0
 19 31  1  0
 19 32  1  0
 20 21  1  0
 20 33  1  0
 20 34  1  0
 21 22  1  0
 21 35  1  0
 21 36  1  0
 22 37  1  0
M  RAD  1  14   2
M  END
>  <reaction>  (4) 
rxn_745

>  <mol_properties>  (4) 
{"1": {"label": "*0", "atom_type": "Cd"}, "2": {"label": "*1", "atom_type": "Cs"}, "8": {"label": "*2", "atom_type": "H0"}, "13": {"label": "*3", "atom_type": "Cs"}, "21": {"label": "*4", "atom_type": "Cs"}}

>  <type>  (4) 
ts

$$$$
