
     RDKit          3D

 17 16  0  0  0  0  0  0  0  0999 V2000
   -2.7534   -0.0962    0.1351 C   0  0  0  0  0  0  0  0  0  0  0  0
   -1.4053    0.2837   -0.4617 C   0  0  0  0  0  0  0  0  0  0  0  0
   -1.2205    1.7929   -0.5721 C   0  0  0  0  0  0  0  0  0  0  0  0
    0.1161    2.2072   -1.1428 C   0  0  0  0  0  0  0  0  0  0  0  0
    0.1852    1.7518   -2.5049 O   0  0  0  0  0  0  0  0  0  0  0  0
    1.3192    1.9949   -3.1521 C   0  0  0  0  0  0  0  0  0  0  0  0
    2.2779    2.5538   -2.7058 O   0  0  0  0  0  0  0  0  0  0  0  0
   -3.5738    0.2829   -0.4785 H   0  0  0  0  0  0  0  0  0  0  0  0
   -2.8713    0.3192    1.1388 H   0  0  0  0  0  0  0  0  0  0  0  0
   -2.8644   -1.1790    0.2071 H   0  0  0  0  0  0  0  0  0  0  0  0
   -0.6001   -0.1308    0.1531 H   0  0  0  0  0  0  0  0  0  0  0  0
   -1.3009   -0.1651   -1.4520 H   0  0  0  0  0  0  0  0  0  0  0  0
   -2.0193    2.2235   -1.1832 H   0  0  0  0  0  0  0  0  0  0  0  0
   -1.3072    2.2473    0.4198 H   0  0  0  0  0  0  0  0  0  0  0  0
    0.2416    3.2911   -1.1318 H   0  0  0  0  0  0  0  0  0  0  0  0
    0.9461    1.7681   -0.5846 H   0  0  0  0  0  0  0  0  0  0  0  0
    1.2465    1.6012   -4.1751 H   0  0  0  0  0  0  0  0  0  0  0  0
  1  2  1  0
  1  8  1  0
  1  9  1  0
  1 10  1  0
  2  3  1  0
  2 11  1  0
  2 12  1  0
  3  4  1  0
  3 13  1  0
  3 14  1  0
  4  5  1  0
  4 15  1  0
  4 16  1  0
  5  6  1  0
  6  7  2  0
  6 17  1  0
M  END
>  <reaction>  (1) 
rxn_149

>  <mol_properties>  (1) 
{"2": {"label": "donator", "atom_type": "Cs"}, "12": {"label": "d_hydrogen", "atom_type": "H0"}}

>  <type>  (1) 
r1h

$$$$

     RDKit          3D

  1  0  0  0  0  0  0  0  0  0999 V2000
    0.0000    0.0000    0.0000 Cl  0  0  0  0  0 15  0  0  0  0  0  0
M  END
>  <reaction>  (2) 
rxn_149

>  <mol_properties>  (2) 
{"0": {"label": "acceptor", "atom_type": "Cl1s"}}

>  <type>  (2) 
r2

$$$$

     RDKit          3D

  2  1  0  0  0  0  0  0  0  0999 V2000
    0.0000    0.0000    0.6391 Cl  0  0  0  0  0  0  0  0  0  0  0  0
    0.0000    0.0000   -0.6391 H   0  0  0  0  0  0  0  0  0  0  0  0
  1  2  1  0
M  END
>  <reaction>  (3) 
rxn_149

>  <mol_properties>  (3) 
{"0": {"label": "acceptor", "atom_type": "Cl1s"}, "1": {"label": "a_hydrogen", "atom_type": "H0"}}

>  <type>  (3) 
r2h

$$$$

     RDKit          3D

 18 16  0  0  0  0  0  0  0  0999 V2000
    1.2709    1.5072   -1.5164 Cl  0  0  0  0  0 15  0  0  0  0  0  0
   -0.9285   -1.3198   -2.7698 C   0  0  0  0  0  0  0  0  0  0  0  0
   -0.8292   -1.3428   -1.2512 C   0  0  0  0  0  0  0  0  0  0  0  0
   -0.9797    0.0125   -0.6245 C   0  0  0  0  0  0  0  0  0  0  0  0
   -0.9118    0.1438    0.8626 C   0  0  0  0  0  0  0  0  0  0  0  0
    0.2042   -0.6004    1.3487 O   0  0  0  0  0  0  0  0  0  0  0  0
    0.3863   -0.5829    2.6693 C   0  0  0  0  0  0  0  0  0  0  0  0
   -0.3132   -0.0238    3.4595 O   0  0  0  0  0  0  0  0  0  0  0  0
   -0.1360   -0.7050   -3.1990 H   0  0  0  0  0  0  0  0  0  0  0  0
   -1.8874   -0.9123   -3.0967 H   0  0  0  0  0  0  0  0  0  0  0  0
   -0.8345   -2.3262   -3.1776 H   0  0  0  0  0  0  0  0  0  0  0  0
   -1.6188   -1.9826   -0.8323 H   0  0  0  0  0  0  0  0  0  0  0  0
    0.1159   -1.7859   -0.9330 H   0  0  0  0  0  0  0  0  0  0  0  0
    0.0842    0.7086   -1.0649 H   0  0  0  0  0  0  0  0  0  0  0  0
   -1.7727    0.6298   -1.0482 H   0  0  0  0  0  0  0  0  0  0  0  0
   -0.8186    1.1877    1.1669 H   0  0  0  0  0  0  0  0  0  0  0  0
   -1.8320   -0.2479    1.3133 H   0  0  0  0  0  0  0  0  0  0  0  0
    1.2814   -1.1662    2.9195 H   0  0  0  0  0  0  0  0  0  0  0  0
  2  3  1  0
  2  9  1  0
  2 10  1  0
  2 11  1  0
  3  4  1  0
  3 12  1  0
  3 13  1  0
  4  5  1  0
  4 14  1  0
  4 15  1  0
  5  6  1  0
  5 16  1  0
  5 17  1  0
  6  7  1  0
  7  8  2  0
  7 18  1  0
M  END
>  <reaction>  (4) 
rxn_149

>  <mol_properties>  (4) 
{"0": {"label": "*3", "atom_type": "Cl1s"}, "3": {"label": "*1", "atom_type": "Cs"}, "4": {"label": "*0", "atom_type": "Cs"}, "13": {"label": "*2", "atom_type": "H0"}}

>  <type>  (4) 
ts

$$$$
