
     RDKit          3D

 13 12  0  0  0  0  0  0  0  0999 V2000
    2.2975   -0.6134    0.7685 C   0  0  0  0  0  0  0  0  0  0  0  0
    1.1676   -0.5248    0.3802 C   0  0  0  0  0  0  0  0  0  0  0  0
   -0.2109   -0.3926   -0.0948 C   0  0  0  0  0  0  0  0  0  0  0  0
   -0.2501    0.2584   -1.4808 C   0  0  0  0  0  0  0  0  0  0  0  0
   -1.0633    0.3831    0.9141 C   0  0  0  0  0  0  0  0  0  0  0  0
    3.2999   -0.6974    1.1133 H   0  0  0  0  0  0  0  0  0  0  0  0
   -0.6209   -1.4038   -0.1814 H   0  0  0  0  0  0  0  0  0  0  0  0
    0.3402   -0.3102   -2.1992 H   0  0  0  0  0  0  0  0  0  0  0  0
    0.1511    1.2724   -1.4369 H   0  0  0  0  0  0  0  0  0  0  0  0
   -1.2791    0.3109   -1.8407 H   0  0  0  0  0  0  0  0  0  0  0  0
   -0.6861    1.4008    1.0287 H   0  0  0  0  0  0  0  0  0  0  0  0
   -1.0492   -0.0971    1.8924 H   0  0  0  0  0  0  0  0  0  0  0  0
   -2.0971    0.4363    0.5680 H   0  0  0  0  0  0  0  0  0  0  0  0
  1  2  3  0
  1  6  1  0
  2  3  1  0
  3  4  1  0
  3  5  1  0
  3  7  1  0
  4  8  1  0
  4  9  1  0
  4 10  1  0
  5 11  1  0
  5 12  1  0
  5 13  1  0
M  END
>  <reaction>  (1) 
rxn_1301

>  <mol_properties>  (1) 
{"2": {"label": "donator", "atom_type": "Cs"}, "6": {"label": "d_hydrogen", "atom_type": "H0"}}

>  <type>  (1) 
r1h

$$$$

     RDKit          3D

  1  0  0  0  0  0  0  0  0  0999 V2000
    0.0000    0.0000    0.0000 H   0  0  0  0  0 15  0  0  0  0  0  0
M  END
>  <reaction>  (2) 
rxn_1301

>  <mol_properties>  (2) 
{"0": {"label": "acceptor", "atom_type": "H0"}}

>  <type>  (2) 
r2

$$$$

     RDKit          3D

  2  1  0  0  0  0  0  0  0  0999 V2000
    0.0000    0.0000    0.3721 H   0  0  0  0  0  0  0  0  0  0  0  0
    0.0000    0.0000   -0.3721 H   0  0  0  0  0  0  0  0  0  0  0  0
  1  2  1  0
M  END
>  <reaction>  (3) 
rxn_1301

>  <mol_properties>  (3) 
{"0": {"label": "acceptor", "atom_type": "H0"}, "1": {"label": "a_hydrogen", "atom_type": "H0"}}

>  <type>  (3) 
r2h

$$$$

     RDKit          3D

 14 12  0  0  0  0  0  0  0  0999 V2000
   -0.0000   -2.3553    1.3008 H   0  0  0  0  0 15  0  0  0  0  0  0
   -0.0000   -0.2984   -2.1732 C   0  0  0  0  0  0  0  0  0  0  0  0
   -0.0000   -0.2393   -0.9752 C   0  0  0  0  0  0  0  0  0  0  0  0
   -0.0000   -0.1842    0.4702 C   0  0  0  0  0  0  0  0  0  0  0  0
   -1.2738    0.4164    1.0473 C   0  0  0  0  0  0  0  0  0  0  0  0
    1.2738    0.4164    1.0473 C   0  0  0  0  0  0  0  0  0  0  0  0
   -0.0000   -0.3480   -3.2355 H   0  0  0  0  0  0  0  0  0  0  0  0
   -0.0000   -1.3291    0.8367 H   0  0  0  0  0  0  0  0  0  0  0  0
   -2.1576   -0.0850    0.6542 H   0  0  0  0  0  0  0  0  0  0  0  0
   -1.3409    1.4767    0.7935 H   0  0  0  0  0  0  0  0  0  0  0  0
   -1.2724    0.3222    2.1344 H   0  0  0  0  0  0  0  0  0  0  0  0
    1.3409    1.4767    0.7935 H   0  0  0  0  0  0  0  0  0  0  0  0
    2.1576   -0.0851    0.6542 H   0  0  0  0  0  0  0  0  0  0  0  0
    1.2724    0.3221    2.1344 H   0  0  0  0  0  0  0  0  0  0  0  0
  2  3  3  0
  2  7  1  0
  3  4  1  0
  4  5  1  0
  4  6  1  0
  4  8  1  0
  5  9  1  0
  5 10  1  0
  5 11  1  0
  6 12  1  0
  6 13  1  0
  6 14  1  0
M  END
>  <reaction>  (4) 
rxn_1301

>  <mol_properties>  (4) 
{"0": {"label": "*1", "atom_type": "H0"}, "2": {"label": "*4", "atom_type": "Ct"}, "3": {"label": "*3", "atom_type": "Cs"}, "7": {"label": "*2", "atom_type": "H0"}}

>  <type>  (4) 
ts

$$$$
