
     RDKit          3D

 19 20  0  0  0  0  0  0  0  0999 V2000
    1.1087   -0.4716   -0.9619 C   0  0  0  0  0  0  0  0  0  0  0  0
    0.9355    1.0407   -0.6470 C   0  0  0  0  0  0  0  0  0  0  0  0
   -0.0085    1.0377    0.5657 C   0  0  0  0  0  0  0  0  0  0  0  0
   -1.4093    0.6181    0.0927 C   0  0  0  0  0  0  0  0  0  0  0  0
   -1.2361   -0.8942   -0.2222 C   0  0  0  0  0  0  0  0  0  0  0  0
    0.2422   -1.1516    0.1099 C   0  0  0  0  0  0  0  0  0  0  0  0
    0.4537   -0.2211    1.3118 C   0  0  0  0  0  0  0  0  0  0  0  0
    2.1524   -0.7752   -0.8653 H   0  0  0  0  0  0  0  0  0  0  0  0
    0.7855   -0.7316   -1.9710 H   0  0  0  0  0  0  0  0  0  0  0  0
    1.8918    1.5001   -0.3916 H   0  0  0  0  0  0  0  0  0  0  0  0
    0.5184    1.6005   -1.4855 H   0  0  0  0  0  0  0  0  0  0  0  0
    0.0038    1.9661    1.1351 H   0  0  0  0  0  0  0  0  0  0  0  0
   -1.7351    1.1944   -0.7746 H   0  0  0  0  0  0  0  0  0  0  0  0
   -2.1465    0.7723    0.8824 H   0  0  0  0  0  0  0  0  0  0  0  0
   -1.4680   -1.1377   -1.2601 H   0  0  0  0  0  0  0  0  0  0  0  0
   -1.8859   -1.5030    0.4087 H   0  0  0  0  0  0  0  0  0  0  0  0
    0.4812   -2.2025    0.2673 H   0  0  0  0  0  0  0  0  0  0  0  0
    1.4942   -0.1701    1.6391 H   0  0  0  0  0  0  0  0  0  0  0  0
   -0.1779   -0.4714    2.1666 H   0  0  0  0  0  0  0  0  0  0  0  0
  1  2  1  0
  1  6  1  0
  1  8  1  0
  1  9  1  0
  2  3  1  0
  2 10  1  0
  2 11  1  0
  3  4  1  0
  3  7  1  0
  3 12  1  0
  4  5  1  0
  4 13  1  0
  4 14  1  0
  5  6  1  0
  5 15  1  0
  5 16  1  0
  6  7  1  0
  6 17  1  0
  7 18  1  0
  7 19  1  0
M  END
>  <reaction>  (1) 
rxn_491

>  <mol_properties>  (1) 
{"0": {"label": "donator", "atom_type": "Cs"}, "7": {"label": "d_hydrogen", "atom_type": "H0"}}

>  <type>  (1) 
r1h

$$$$

     RDKit          3D

  8  7  0  0  0  0  0  0  0  0999 V2000
   -1.2262   -0.1032    0.0429 C   0  0  0  0  0  0  0  0  0  0  0  0
    0.0344    0.4295    0.2005 C   0  0  0  0  0  0  0  0  0  0  0  0
    1.2024   -0.1933   -0.1813 C   0  0  0  0  0  3  0  0  0  0  0  0
   -2.1090    0.4329    0.3624 H   0  0  0  0  0  0  0  0  0  0  0  0
   -1.3659   -1.0784   -0.4078 H   0  0  0  0  0  0  0  0  0  0  0  0
    0.1132    1.4113    0.6589 H   0  0  0  0  0  0  0  0  0  0  0  0
    2.1658    0.2743   -0.0323 H   0  0  0  0  0  0  0  0  0  0  0  0
    1.1853   -1.1731   -0.6434 H   0  0  0  0  0  0  0  0  0  0  0  0
  1  2  2  3
  1  4  1  0
  1  5  1  0
  2  3  1  0
  2  6  1  0
  3  7  1  0
  3  8  1  0
M  RAD  1   3   2
M  END
>  <reaction>  (2) 
rxn_491

>  <mol_properties>  (2) 
{"2": {"label": "acceptor", "atom_type": "Cs"}}

>  <type>  (2) 
r2

$$$$

     RDKit          3D

  9  8  0  0  0  0  0  0  0  0999 V2000
    1.1303   -0.2933   -0.7510 C   0  0  0  0  0  0  0  0  0  0  0  0
    0.2866    0.4560   -0.0588 C   0  0  0  0  0  0  0  0  0  0  0  0
   -0.9719   -0.0331    0.5823 C   0  0  0  0  0  0  0  0  0  0  0  0
    2.0274    0.1230   -1.1916 H   0  0  0  0  0  0  0  0  0  0  0  0
    0.9532   -1.3530   -0.9023 H   0  0  0  0  0  0  0  0  0  0  0  0
    0.5065    1.5132    0.0659 H   0  0  0  0  0  0  0  0  0  0  0  0
   -0.9526    0.1426    1.6610 H   0  0  0  0  0  0  0  0  0  0  0  0
   -1.1182   -1.1002    0.4106 H   0  0  0  0  0  0  0  0  0  0  0  0
   -1.8412    0.5010    0.1901 H   0  0  0  0  0  0  0  0  0  0  0  0
  1  2  2  3
  1  4  1  0
  1  5  1  0
  2  3  1  0
  2  6  1  0
  3  7  1  0
  3  8  1  0
  3  9  1  0
M  END
>  <reaction>  (3) 
rxn_491

>  <mol_properties>  (3) 
{"2": {"label": "acceptor", "atom_type": "Cs"}, "8": {"label": "a_hydrogen", "atom_type": "H0"}}

>  <type>  (3) 
r2h

$$$$

     RDKit          3D

 27 27  0  0  0  0  0  0  0  0999 V2000
    2.4612   -3.0009   -0.1475 C   0  0  0  0  0  0  0  0  0  0  0  0
    2.3581   -1.7706    0.3630 C   0  0  0  0  0  0  0  0  0  0  0  0
    1.5442   -1.3998    1.5142 C   0  0  0  0  0  0  0  0  0  0  0  0
    3.0565   -3.1992   -1.0293 H   0  0  0  0  0  0  0  0  0  0  0  0
    1.9567   -3.8451    0.3096 H   0  0  0  0  0  0  0  0  0  0  0  0
    2.8868   -0.9617   -0.1355 H   0  0  0  0  0  0  0  0  0  0  0  0
    1.9245   -0.5651    2.0998 H   0  0  0  0  0  0  0  0  0  0  0  0
    1.2327   -2.2331    2.1416 H   0  0  0  0  0  0  0  0  0  0  0  0
   -0.7715   -0.3820    0.5795 C   0  0  0  0  0  3  0  0  0  0  0  0
   -0.6673   -0.4834   -0.9374 C   0  0  0  0  0  0  0  0  0  0  0  0
   -0.5613    0.9935   -1.3571 C   0  0  0  0  0  0  0  0  0  0  0  0
   -1.9260    1.6633   -1.1240 C   0  0  0  0  0  0  0  0  0  0  0  0
   -2.0258    1.7385    0.4248 C   0  0  0  0  0  0  0  0  0  0  0  0
   -0.6990    1.0992    0.8876 C   0  0  0  0  0  0  0  0  0  0  0  0
    0.2666    1.5803   -0.2056 C   0  0  0  0  0  0  0  0  0  0  0  0
    0.4131   -0.9273    1.0801 H   0  0  0  0  0  0  0  0  0  0  0  0
   -1.5411   -0.9627    1.0836 H   0  0  0  0  0  0  0  0  0  0  0  0
    0.2290   -1.0396   -1.2343 H   0  0  0  0  0  0  0  0  0  0  0  0
   -1.5233   -0.9882   -1.3905 H   0  0  0  0  0  0  0  0  0  0  0  0
   -0.1613    1.1402   -2.3592 H   0  0  0  0  0  0  0  0  0  0  0  0
   -2.7407    1.0914   -1.5705 H   0  0  0  0  0  0  0  0  0  0  0  0
   -1.9463    2.6606   -1.5660 H   0  0  0  0  0  0  0  0  0  0  0  0
   -2.8924    1.2066    0.8191 H   0  0  0  0  0  0  0  0  0  0  0  0
   -2.0915    2.7731    0.7678 H   0  0  0  0  0  0  0  0  0  0  0  0
   -0.4291    1.3356    1.9163 H   0  0  0  0  0  0  0  0  0  0  0  0
    1.2620    1.1404   -0.1225 H   0  0  0  0  0  0  0  0  0  0  0  0
    0.3567    2.6672   -0.2508 H   0  0  0  0  0  0  0  0  0  0  0  0
  1  2  2  3
  1  4  1  0
  1  5  1  0
  2  3  1  0
  2  6  1  0
  3  7  1  0
  3  8  1  0
  3 16  1  0
  9 10  1  0
  9 14  1  0
  9 17  1  0
 10 11  1  0
 10 18  1  0
 10 19  1  0
 11 12  1  0
 11 15  1  0
 11 20  1  0
 12 13  1  0
 12 21  1  0
 12 22  1  0
 13 14  1  0
 13 23  1  0
 13 24  1  0
 14 15  1  0
 14 25  1  0
 15 26  1  0
 15 27  1  0
M  RAD  1   9   2
M  END
>  <reaction>  (4) 
rxn_491

>  <mol_properties>  (4) 
{"1": {"label": "*0", "atom_type": "Cd"}, "2": {"label": "*1", "atom_type": "Cs"}, "8": {"label": "*3", "atom_type": "Cs"}, "9": {"label": "*4", "atom_type": "Cs"}, "15": {"label": "*2", "atom_type": "H0"}}

>  <type>  (4) 
ts

$$$$
