
     RDKit          3D

 22 23  0  0  0  0  0  0  0  0999 V2000
   -2.1093   -0.3263    0.3079 C   0  0  0  0  0  0  0  0  0  0  0  0
   -1.3270    0.9803    0.4115 C   0  0  0  0  0  0  0  0  0  0  0  0
   -0.1818    0.8289   -0.6044 C   0  0  0  0  0  0  0  0  0  0  0  0
    1.1682    1.3904   -0.1341 C   0  0  0  0  0  0  0  0  0  0  0  0
    1.8508    0.2041    0.5479 C   0  0  0  0  0  0  0  0  0  0  0  0
    1.4982   -0.9663   -0.3710 C   0  0  0  0  0  0  0  0  0  0  0  0
    0.0340   -0.7124   -0.7594 C   0  0  0  0  0  0  0  0  0  0  0  0
   -0.9986   -1.3650    0.1756 C   0  0  0  0  0  0  0  0  0  0  0  0
   -2.7686   -0.5042    1.1589 H   0  0  0  0  0  0  0  0  0  0  0  0
   -2.7285   -0.3223   -0.5943 H   0  0  0  0  0  0  0  0  0  0  0  0
   -1.9339    1.8682    0.2289 H   0  0  0  0  0  0  0  0  0  0  0  0
   -0.9144    1.0729    1.4218 H   0  0  0  0  0  0  0  0  0  0  0  0
   -0.4804    1.2763   -1.5535 H   0  0  0  0  0  0  0  0  0  0  0  0
    1.7667    1.7058   -0.9931 H   0  0  0  0  0  0  0  0  0  0  0  0
    1.0540    2.2578    0.5189 H   0  0  0  0  0  0  0  0  0  0  0  0
    1.4197    0.0438    1.5410 H   0  0  0  0  0  0  0  0  0  0  0  0
    2.9248    0.3413    0.6788 H   0  0  0  0  0  0  0  0  0  0  0  0
    2.1362   -0.9329   -1.2584 H   0  0  0  0  0  0  0  0  0  0  0  0
    1.6421   -1.9421    0.0966 H   0  0  0  0  0  0  0  0  0  0  0  0
   -0.1575   -1.0299   -1.7854 H   0  0  0  0  0  0  0  0  0  0  0  0
   -1.3459   -2.3310   -0.1933 H   0  0  0  0  0  0  0  0  0  0  0  0
   -0.5489   -1.5373    1.1593 H   0  0  0  0  0  0  0  0  0  0  0  0
  1  2  1  0
  1  8  1  0
  1  9  1  0
  1 10  1  0
  2  3  1  0
  2 11  1  0
  2 12  1  0
  3  4  1  0
  3  7  1  0
  3 13  1  0
  4  5  1  0
  4 14  1  0
  4 15  1  0
  5  6  1  0
  5 16  1  0
  5 17  1  0
  6  7  1  0
  6 18  1  0
  6 19  1  0
  7  8  1  0
  7 20  1  0
  8 21  1  0
  8 22  1  0
M  END
>  <reaction>  (1) 
rxn_563

>  <mol_properties>  (1) 
{"2": {"label": "donator", "atom_type": "Cs"}, "12": {"label": "d_hydrogen", "atom_type": "H0"}}

>  <type>  (1) 
r1h

$$$$

     RDKit          3D

 15 14  0  0  0  0  0  0  0  0999 V2000
    2.4381    0.5770   -0.2356 C   0  0  0  0  0  0  0  0  0  0  0  0
    1.4430   -0.3367   -0.1409 C   0  0  0  0  0  0  0  0  0  0  0  0
    0.0521   -0.0957   -0.0045 C   0  0  0  0  0  3  0  0  0  0  0  0
   -0.5167    1.2867    0.0548 C   0  0  0  0  0  0  0  0  0  0  0  0
   -0.8226   -1.2147    0.0778 C   0  0  0  0  0  0  0  0  0  0  0  0
   -2.1666   -1.1669    0.2092 C   0  0  0  0  0  0  0  0  0  0  0  0
    3.4666    0.2585   -0.3369 H   0  0  0  0  0  0  0  0  0  0  0  0
    2.2594    1.6438   -0.2152 H   0  0  0  0  0  0  0  0  0  0  0  0
    1.7306   -1.3845   -0.1719 H   0  0  0  0  0  0  0  0  0  0  0  0
   -1.2300    1.4469   -0.7583 H   0  0  0  0  0  0  0  0  0  0  0  0
    0.2481    2.0557   -0.0178 H   0  0  0  0  0  0  0  0  0  0  0  0
   -1.0592    1.4421    0.9914 H   0  0  0  0  0  0  0  0  0  0  0  0
   -0.3519   -2.1929    0.0292 H   0  0  0  0  0  0  0  0  0  0  0  0
   -2.7080   -0.2310    0.2646 H   0  0  0  0  0  0  0  0  0  0  0  0
   -2.7513   -2.0751    0.2638 H   0  0  0  0  0  0  0  0  0  0  0  0
  1  2  2  3
  1  7  1  0
  1  8  1  0
  2  3  1  0
  2  9  1  0
  3  4  1  0
  3  5  1  0
  4 10  1  0
  4 11  1  0
  4 12  1  0
  5  6  2  3
  5 13  1  0
  6 14  1  0
  6 15  1  0
M  RAD  1   3   2
M  END
>  <reaction>  (2) 
rxn_563

>  <mol_properties>  (2) 
{"2": {"label": "acceptor", "atom_type": "Cs"}}

>  <type>  (2) 
r2

$$$$

     RDKit          3D

 16 15  0  0  0  0  0  0  0  0999 V2000
    1.7961   -0.3807    1.6176 C   0  0  0  0  0  0  0  0  0  0  0  0
    0.8562   -0.8708    0.8256 C   0  0  0  0  0  0  0  0  0  0  0  0
    0.0895   -0.0826   -0.2048 C   0  0  0  0  0  0  0  0  0  0  0  0
   -1.4061   -0.1111    0.0982 C   0  0  0  0  0  0  0  0  0  0  0  0
    0.4476   -0.5902   -1.5797 C   0  0  0  0  0  0  0  0  0  0  0  0
   -0.3793   -1.1113   -2.4728 C   0  0  0  0  0  0  0  0  0  0  0  0
    2.3110   -1.0032    2.3386 H   0  0  0  0  0  0  0  0  0  0  0  0
    2.0846    0.6643    1.5737 H   0  0  0  0  0  0  0  0  0  0  0  0
    0.5921   -1.9241    0.8925 H   0  0  0  0  0  0  0  0  0  0  0  0
    0.4358    0.9557   -0.1462 H   0  0  0  0  0  0  0  0  0  0  0  0
   -1.5968    0.3080    1.0865 H   0  0  0  0  0  0  0  0  0  0  0  0
   -1.9674    0.4693   -0.6359 H   0  0  0  0  0  0  0  0  0  0  0  0
   -1.7902   -1.1338    0.0883 H   0  0  0  0  0  0  0  0  0  0  0  0
    1.5049   -0.5197   -1.8214 H   0  0  0  0  0  0  0  0  0  0  0  0
   -1.4421   -1.2131   -2.2889 H   0  0  0  0  0  0  0  0  0  0  0  0
   -0.0162   -1.4558   -3.4328 H   0  0  0  0  0  0  0  0  0  0  0  0
  1  2  2  3
  1  7  1  0
  1  8  1  0
  2  3  1  0
  2  9  1  0
  3  4  1  0
  3  5  1  0
  3 10  1  0
  4 11  1  0
  4 12  1  0
  4 13  1  0
  5  6  2  3
  5 14  1  0
  6 15  1  0
  6 16  1  0
M  END
>  <reaction>  (3) 
rxn_563

>  <mol_properties>  (3) 
{"2": {"label": "acceptor", "atom_type": "Cs"}, "15": {"label": "a_hydrogen", "atom_type": "H0"}}

>  <type>  (3) 
r2h

$$$$

     RDKit          3D

 37 37  0  0  0  0  0  0  0  0999 V2000
   -1.9227   -2.7973   -0.9743 C   0  0  0  0  0  0  0  0  0  0  0  0
   -1.8936   -1.4748   -0.8409 C   0  0  0  0  0  0  0  0  0  0  0  0
   -1.6428   -0.7058    0.4007 C   0  0  0  0  0  0  0  0  0  0  0  0
   -1.5966   -1.5018    1.6860 C   0  0  0  0  0  0  0  0  0  0  0  0
   -2.3885    0.5736    0.4454 C   0  0  0  0  0  0  0  0  0  0  0  0
   -2.8670    1.1873    1.5239 C   0  0  0  0  0  0  0  0  0  0  0  0
   -2.0848   -3.2535   -1.9422 H   0  0  0  0  0  0  0  0  0  0  0  0
   -1.7998   -3.4683   -0.1331 H   0  0  0  0  0  0  0  0  0  0  0  0
   -2.0369   -0.8672   -1.7319 H   0  0  0  0  0  0  0  0  0  0  0  0
   -1.2514   -0.8815    2.5138 H   0  0  0  0  0  0  0  0  0  0  0  0
   -0.9023   -2.3384    1.5983 H   0  0  0  0  0  0  0  0  0  0  0  0
   -2.5812   -1.9005    1.9447 H   0  0  0  0  0  0  0  0  0  0  0  0
   -2.5200    1.0591   -0.5192 H   0  0  0  0  0  0  0  0  0  0  0  0
   -2.7868    0.7627    2.5171 H   0  0  0  0  0  0  0  0  0  0  0  0
   -3.3720    2.1408    1.4407 H   0  0  0  0  0  0  0  0  0  0  0  0
    1.8609   -0.9681   -1.7678 C   0  0  0  0  0  0  0  0  0  0  0  0
    1.7056   -1.1304   -0.2513 C   0  0  0  0  0  0  0  0  0  0  0  0
    0.9396    0.1015    0.1743 C   0  0  0  0  0  3  0  0  0  0  0  0
    1.2422    0.8270    1.4628 C   0  0  0  0  0  0  0  0  0  0  0  0
    1.9958    2.0796    0.9889 C   0  0  0  0  0  0  0  0  0  0  0  0
    1.2740    2.4596   -0.3085 C   0  0  0  0  0  0  0  0  0  0  0  0
    0.9426    1.1131   -0.9697 C   0  0  0  0  0  0  0  0  0  0  0  0
    1.9801    0.5455   -1.9502 C   0  0  0  0  0  0  0  0  0  0  0  0
    2.7091   -1.5209   -2.1729 H   0  0  0  0  0  0  0  0  0  0  0  0
    0.9584   -1.3317   -2.2668 H   0  0  0  0  0  0  0  0  0  0  0  0
    1.2059   -2.0627    0.0246 H   0  0  0  0  0  0  0  0  0  0  0  0
    2.6892   -1.1414    0.2357 H   0  0  0  0  0  0  0  0  0  0  0  0
   -0.4657   -0.3310    0.2604 H   0  0  0  0  0  0  0  0  0  0  0  0
    0.3133    1.1304    1.9592 H   0  0  0  0  0  0  0  0  0  0  0  0
    1.8093    0.2181    2.1688 H   0  0  0  0  0  0  0  0  0  0  0  0
    3.0371    1.8205    0.7758 H   0  0  0  0  0  0  0  0  0  0  0  0
    2.0024    2.8831    1.7264 H   0  0  0  0  0  0  0  0  0  0  0  0
    0.3499    2.9906   -0.0671 H   0  0  0  0  0  0  0  0  0  0  0  0
    1.8676    3.1090   -0.9541 H   0  0  0  0  0  0  0  0  0  0  0  0
   -0.0308    1.1541   -1.4718 H   0  0  0  0  0  0  0  0  0  0  0  0
    1.8172    0.8737   -2.9778 H   0  0  0  0  0  0  0  0  0  0  0  0
    2.9820    0.8743   -1.6538 H   0  0  0  0  0  0  0  0  0  0  0  0
  1  2  2  3
  1  7  1  0
  1  8  1  0
  2  3  1  0
  2  9  1  0
  3  4  1  0
  3  5  1  0
  3 28  1  0
  4 10  1  0
  4 11  1  0
  4 12  1  0
  5  6  2  3
  5 13  1  0
  6 14  1  0
  6 15  1  0
 16 23  1  0
 16 17  1  0
 16 24  1  0
 16 25  1  0
 17 18  1  0
 17 26  1  0
 17 27  1  0
 18 19  1  0
 18 22  1  0
 19 20  1  0
 19 29  1  0
 19 30  1  0
 20 21  1  0
 20 31  1  0
 20 32  1  0
 21 22  1  0
 21 33  1  0
 21 34  1  0
 22 23  1  0
 22 35  1  0
 23 36  1  0
 23 37  1  0
M  RAD  1  18   2
M  END
>  <reaction>  (4) 
rxn_563

>  <mol_properties>  (4) 
{"1": {"label": "*0", "atom_type": "Cd"}, "2": {"label": "*1", "atom_type": "Cs"}, "17": {"label": "*3", "atom_type": "Cs"}, "21": {"label": "*4", "atom_type": "Cs"}, "27": {"label": "*2", "atom_type": "H0"}}

>  <type>  (4) 
ts

$$$$
