
     RDKit          3D

  8  7  0  0  0  0  0  0  0  0999 V2000
    0.7610    0.0250    0.0051 C   0  0  0  0  0  0  0  0  0  0  0  0
   -0.7610   -0.0250   -0.0051 C   0  0  0  0  0  0  0  0  0  0  0  0
    1.1904   -0.9237   -0.3217 H   0  0  0  0  0  0  0  0  0  0  0  0
    1.1359    0.8041   -0.6609 H   0  0  0  0  0  0  0  0  0  0  0  0
    1.1435    0.2336    1.0058 H   0  0  0  0  0  0  0  0  0  0  0  0
   -1.1435   -0.2336   -1.0058 H   0  0  0  0  0  0  0  0  0  0  0  0
   -1.1904    0.9237    0.3216 H   0  0  0  0  0  0  0  0  0  0  0  0
   -1.1359   -0.8041    0.6609 H   0  0  0  0  0  0  0  0  0  0  0  0
  1  2  1  0
  1  3  1  0
  1  4  1  0
  1  5  1  0
  2  6  1  0
  2  7  1  0
  2  8  1  0
M  END
>  <reaction>  (1) 
rxn_874

>  <mol_properties>  (1) 
{"1": {"label": "donator", "atom_type": "Cs"}, "5": {"label": "d_hydrogen", "atom_type": "H0"}}

>  <type>  (1) 
r1h

$$$$

     RDKit          3D

 15 14  0  0  0  0  0  0  0  0999 V2000
    2.4381    0.5770   -0.2356 C   0  0  0  0  0  0  0  0  0  0  0  0
    1.4430   -0.3367   -0.1409 C   0  0  0  0  0  0  0  0  0  0  0  0
    0.0521   -0.0957   -0.0045 C   0  0  0  0  0  3  0  0  0  0  0  0
   -0.5167    1.2867    0.0548 C   0  0  0  0  0  0  0  0  0  0  0  0
   -0.8226   -1.2147    0.0778 C   0  0  0  0  0  0  0  0  0  0  0  0
   -2.1666   -1.1669    0.2092 C   0  0  0  0  0  0  0  0  0  0  0  0
    3.4666    0.2585   -0.3369 H   0  0  0  0  0  0  0  0  0  0  0  0
    2.2594    1.6438   -0.2152 H   0  0  0  0  0  0  0  0  0  0  0  0
    1.7306   -1.3845   -0.1719 H   0  0  0  0  0  0  0  0  0  0  0  0
   -1.2300    1.4469   -0.7583 H   0  0  0  0  0  0  0  0  0  0  0  0
    0.2481    2.0557   -0.0178 H   0  0  0  0  0  0  0  0  0  0  0  0
   -1.0592    1.4421    0.9914 H   0  0  0  0  0  0  0  0  0  0  0  0
   -0.3519   -2.1929    0.0292 H   0  0  0  0  0  0  0  0  0  0  0  0
   -2.7080   -0.2310    0.2646 H   0  0  0  0  0  0  0  0  0  0  0  0
   -2.7513   -2.0751    0.2638 H   0  0  0  0  0  0  0  0  0  0  0  0
  1  2  2  3
  1  7  1  0
  1  8  1  0
  2  3  1  0
  2  9  1  0
  3  4  1  0
  3  5  1  0
  4 10  1  0
  4 11  1  0
  4 12  1  0
  5  6  2  3
  5 13  1  0
  6 14  1  0
  6 15  1  0
M  RAD  1   3   2
M  END
>  <reaction>  (2) 
rxn_874

>  <mol_properties>  (2) 
{"2": {"label": "acceptor", "atom_type": "Cs"}}

>  <type>  (2) 
r2

$$$$

     RDKit          3D

 16 15  0  0  0  0  0  0  0  0999 V2000
    1.7961   -0.3807    1.6176 C   0  0  0  0  0  0  0  0  0  0  0  0
    0.8562   -0.8708    0.8256 C   0  0  0  0  0  0  0  0  0  0  0  0
    0.0895   -0.0826   -0.2048 C   0  0  0  0  0  0  0  0  0  0  0  0
   -1.4061   -0.1111    0.0982 C   0  0  0  0  0  0  0  0  0  0  0  0
    0.4476   -0.5902   -1.5797 C   0  0  0  0  0  0  0  0  0  0  0  0
   -0.3793   -1.1113   -2.4728 C   0  0  0  0  0  0  0  0  0  0  0  0
    2.3110   -1.0032    2.3386 H   0  0  0  0  0  0  0  0  0  0  0  0
    2.0846    0.6643    1.5737 H   0  0  0  0  0  0  0  0  0  0  0  0
    0.5921   -1.9241    0.8925 H   0  0  0  0  0  0  0  0  0  0  0  0
    0.4358    0.9557   -0.1462 H   0  0  0  0  0  0  0  0  0  0  0  0
   -1.5968    0.3080    1.0865 H   0  0  0  0  0  0  0  0  0  0  0  0
   -1.9674    0.4693   -0.6359 H   0  0  0  0  0  0  0  0  0  0  0  0
   -1.7902   -1.1338    0.0883 H   0  0  0  0  0  0  0  0  0  0  0  0
    1.5049   -0.5197   -1.8214 H   0  0  0  0  0  0  0  0  0  0  0  0
   -1.4421   -1.2131   -2.2889 H   0  0  0  0  0  0  0  0  0  0  0  0
   -0.0162   -1.4558   -3.4328 H   0  0  0  0  0  0  0  0  0  0  0  0
  1  2  2  3
  1  7  1  0
  1  8  1  0
  2  3  1  0
  2  9  1  0
  3  4  1  0
  3  5  1  0
  3 10  1  0
  4 11  1  0
  4 12  1  0
  4 13  1  0
  5  6  2  3
  5 14  1  0
  6 15  1  0
  6 16  1  0
M  END
>  <reaction>  (3) 
rxn_874

>  <mol_properties>  (3) 
{"2": {"label": "acceptor", "atom_type": "Cs"}, "15": {"label": "a_hydrogen", "atom_type": "H0"}}

>  <type>  (3) 
r2h

$$$$

     RDKit          3D

 23 21  0  0  0  0  0  0  0  0999 V2000
    2.2818    0.9408    0.3471 C   0  0  0  0  0  0  0  0  0  0  0  0
    1.2778    0.2231    0.8396 C   0  0  0  0  0  0  0  0  0  0  0  0
   -0.1439    0.2664    0.4161 C   0  0  0  0  0  0  0  0  0  0  0  0
   -0.5123    1.3454   -0.5774 C   0  0  0  0  0  0  0  0  0  0  0  0
   -1.0808    0.0771    1.5520 C   0  0  0  0  0  0  0  0  0  0  0  0
   -2.2578    0.6685    1.7219 C   0  0  0  0  0  0  0  0  0  0  0  0
    3.2904    0.8101    0.7172 H   0  0  0  0  0  0  0  0  0  0  0  0
    2.1383    1.6861   -0.4254 H   0  0  0  0  0  0  0  0  0  0  0  0
    1.4985   -0.4987    1.6229 H   0  0  0  0  0  0  0  0  0  0  0  0
   -1.5272    1.1977   -0.9484 H   0  0  0  0  0  0  0  0  0  0  0  0
    0.1573    1.3254   -1.4377 H   0  0  0  0  0  0  0  0  0  0  0  0
   -0.4552    2.3388   -0.1247 H   0  0  0  0  0  0  0  0  0  0  0  0
   -0.7547   -0.6444    2.2977 H   0  0  0  0  0  0  0  0  0  0  0  0
   -2.6429    1.4048    1.0272 H   0  0  0  0  0  0  0  0  0  0  0  0
   -2.8757    0.4379    2.5801 H   0  0  0  0  0  0  0  0  0  0  0  0
    0.5743   -1.6428   -2.2768 C   0  0  0  0  0  0  0  0  0  0  0  0
   -0.3773   -1.9616   -1.1671 C   0  0  0  0  0  3  0  0  0  0  0  0
    0.2275   -0.7933   -2.8673 H   0  0  0  0  0  0  0  0  0  0  0  0
    1.5658   -1.4010   -1.8872 H   0  0  0  0  0  0  0  0  0  0  0  0
    0.6916   -2.4900   -2.9627 H   0  0  0  0  0  0  0  0  0  0  0  0
   -0.2738   -0.7859   -0.2336 H   0  0  0  0  0  0  0  0  0  0  0  0
   -0.0858   -2.7569   -0.4863 H   0  0  0  0  0  0  0  0  0  0  0  0
   -1.4382   -1.9548   -1.4002 H   0  0  0  0  0  0  0  0  0  0  0  0
  1  2  2  3
  1  7  1  0
  1  8  1  0
  2  3  1  0
  2  9  1  0
  3  4  1  0
  3  5  1  0
  3 21  1  0
  4 10  1  0
  4 11  1  0
  4 12  1  0
  5  6  2  3
  5 13  1  0
  6 14  1  0
  6 15  1  0
 16 17  1  0
 16 18  1  0
 16 19  1  0
 16 20  1  0
 17 22  1  0
 17 23  1  0
M  RAD  1  17   2
M  END
>  <reaction>  (4) 
rxn_874

>  <mol_properties>  (4) 
{"1": {"label": "*0", "atom_type": "Cd"}, "2": {"label": "*1", "atom_type": "Cs"}, "15": {"label": "*4", "atom_type": "Cs"}, "16": {"label": "*3", "atom_type": "Cs"}, "20": {"label": "*2", "atom_type": "H0"}}

>  <type>  (4) 
ts

$$$$
