
     RDKit          3D

 13 12  0  0  0  0  0  0  0  0999 V2000
    2.2975   -0.6134    0.7685 C   0  0  0  0  0  0  0  0  0  0  0  0
    1.1676   -0.5248    0.3802 C   0  0  0  0  0  0  0  0  0  0  0  0
   -0.2109   -0.3926   -0.0948 C   0  0  0  0  0  0  0  0  0  0  0  0
   -0.2501    0.2584   -1.4808 C   0  0  0  0  0  0  0  0  0  0  0  0
   -1.0633    0.3831    0.9141 C   0  0  0  0  0  0  0  0  0  0  0  0
    3.2999   -0.6974    1.1133 H   0  0  0  0  0  0  0  0  0  0  0  0
   -0.6209   -1.4038   -0.1814 H   0  0  0  0  0  0  0  0  0  0  0  0
    0.3402   -0.3102   -2.1992 H   0  0  0  0  0  0  0  0  0  0  0  0
    0.1511    1.2724   -1.4369 H   0  0  0  0  0  0  0  0  0  0  0  0
   -1.2791    0.3109   -1.8407 H   0  0  0  0  0  0  0  0  0  0  0  0
   -0.6861    1.4008    1.0287 H   0  0  0  0  0  0  0  0  0  0  0  0
   -1.0492   -0.0971    1.8924 H   0  0  0  0  0  0  0  0  0  0  0  0
   -2.0971    0.4363    0.5680 H   0  0  0  0  0  0  0  0  0  0  0  0
  1  2  3  0
  1  6  1  0
  2  3  1  0
  3  4  1  0
  3  5  1  0
  3  7  1  0
  4  8  1  0
  4  9  1  0
  4 10  1  0
  5 11  1  0
  5 12  1  0
  5 13  1  0
M  END
>  <reaction>  (1) 
rxn_1310

>  <mol_properties>  (1) 
{"2": {"label": "donator", "atom_type": "Cs"}, "6": {"label": "d_hydrogen", "atom_type": "H0"}}

>  <type>  (1) 
r1h

$$$$

     RDKit          3D

 15 14  0  0  0  0  0  0  0  0999 V2000
    2.4381    0.5770   -0.2356 C   0  0  0  0  0  0  0  0  0  0  0  0
    1.4430   -0.3367   -0.1409 C   0  0  0  0  0  0  0  0  0  0  0  0
    0.0521   -0.0957   -0.0045 C   0  0  0  0  0  3  0  0  0  0  0  0
   -0.5167    1.2867    0.0548 C   0  0  0  0  0  0  0  0  0  0  0  0
   -0.8226   -1.2147    0.0778 C   0  0  0  0  0  0  0  0  0  0  0  0
   -2.1666   -1.1669    0.2092 C   0  0  0  0  0  0  0  0  0  0  0  0
    3.4666    0.2585   -0.3369 H   0  0  0  0  0  0  0  0  0  0  0  0
    2.2594    1.6438   -0.2152 H   0  0  0  0  0  0  0  0  0  0  0  0
    1.7306   -1.3845   -0.1719 H   0  0  0  0  0  0  0  0  0  0  0  0
   -1.2300    1.4469   -0.7583 H   0  0  0  0  0  0  0  0  0  0  0  0
    0.2481    2.0557   -0.0178 H   0  0  0  0  0  0  0  0  0  0  0  0
   -1.0592    1.4421    0.9914 H   0  0  0  0  0  0  0  0  0  0  0  0
   -0.3519   -2.1929    0.0292 H   0  0  0  0  0  0  0  0  0  0  0  0
   -2.7080   -0.2310    0.2646 H   0  0  0  0  0  0  0  0  0  0  0  0
   -2.7513   -2.0751    0.2638 H   0  0  0  0  0  0  0  0  0  0  0  0
  1  2  2  3
  1  7  1  0
  1  8  1  0
  2  3  1  0
  2  9  1  0
  3  4  1  0
  3  5  1  0
  4 10  1  0
  4 11  1  0
  4 12  1  0
  5  6  2  3
  5 13  1  0
  6 14  1  0
  6 15  1  0
M  RAD  1   3   2
M  END
>  <reaction>  (2) 
rxn_1310

>  <mol_properties>  (2) 
{"2": {"label": "acceptor", "atom_type": "Cs"}}

>  <type>  (2) 
r2

$$$$

     RDKit          3D

 16 15  0  0  0  0  0  0  0  0999 V2000
    1.7961   -0.3807    1.6176 C   0  0  0  0  0  0  0  0  0  0  0  0
    0.8562   -0.8708    0.8256 C   0  0  0  0  0  0  0  0  0  0  0  0
    0.0895   -0.0826   -0.2048 C   0  0  0  0  0  0  0  0  0  0  0  0
   -1.4061   -0.1111    0.0982 C   0  0  0  0  0  0  0  0  0  0  0  0
    0.4476   -0.5902   -1.5797 C   0  0  0  0  0  0  0  0  0  0  0  0
   -0.3793   -1.1113   -2.4728 C   0  0  0  0  0  0  0  0  0  0  0  0
    2.3110   -1.0032    2.3386 H   0  0  0  0  0  0  0  0  0  0  0  0
    2.0846    0.6643    1.5737 H   0  0  0  0  0  0  0  0  0  0  0  0
    0.5921   -1.9241    0.8925 H   0  0  0  0  0  0  0  0  0  0  0  0
    0.4358    0.9557   -0.1462 H   0  0  0  0  0  0  0  0  0  0  0  0
   -1.5968    0.3080    1.0865 H   0  0  0  0  0  0  0  0  0  0  0  0
   -1.9674    0.4693   -0.6359 H   0  0  0  0  0  0  0  0  0  0  0  0
   -1.7902   -1.1338    0.0883 H   0  0  0  0  0  0  0  0  0  0  0  0
    1.5049   -0.5197   -1.8214 H   0  0  0  0  0  0  0  0  0  0  0  0
   -1.4421   -1.2131   -2.2889 H   0  0  0  0  0  0  0  0  0  0  0  0
   -0.0162   -1.4558   -3.4328 H   0  0  0  0  0  0  0  0  0  0  0  0
  1  2  2  3
  1  7  1  0
  1  8  1  0
  2  3  1  0
  2  9  1  0
  3  4  1  0
  3  5  1  0
  3 10  1  0
  4 11  1  0
  4 12  1  0
  4 13  1  0
  5  6  2  3
  5 14  1  0
  6 15  1  0
  6 16  1  0
M  END
>  <reaction>  (3) 
rxn_1310

>  <mol_properties>  (3) 
{"0": {"label": "a_hydrogen", "atom_type": "H0"}, "3": {"label": "acceptor", "atom_type": "Cs"}}

>  <type>  (3) 
r2h

$$$$

     RDKit          3D

 28 26  0  0  0  0  0  0  0  0999 V2000
    0.6286    1.0031   -2.8983 C   0  0  0  0  0  0  0  0  0  0  0  0
    0.4363    1.2577   -1.7363 C   0  0  0  0  0  0  0  0  0  0  0  0
    0.2056    1.5001   -0.3569 C   0  0  0  0  0  3  0  0  0  0  0  0
   -1.1193    2.1330   -0.0036 C   0  0  0  0  0  0  0  0  0  0  0  0
    1.3943    1.9610    0.4526 C   0  0  0  0  0  0  0  0  0  0  0  0
    0.7957    0.7912   -3.9266 H   0  0  0  0  0  0  0  0  0  0  0  0
   -0.0134    0.1963    0.1598 H   0  0  0  0  0  0  0  0  0  0  0  0
   -1.9383    1.6510   -0.5379 H   0  0  0  0  0  0  0  0  0  0  0  0
   -1.1249    3.1967   -0.2604 H   0  0  0  0  0  0  0  0  0  0  0  0
   -1.3011    2.0469    1.0703 H   0  0  0  0  0  0  0  0  0  0  0  0
    1.5868    3.0258    0.2856 H   0  0  0  0  0  0  0  0  0  0  0  0
    2.2945    1.4101    0.1814 H   0  0  0  0  0  0  0  0  0  0  0  0
    1.2040    1.8143    1.5177 H   0  0  0  0  0  0  0  0  0  0  0  0
   -1.5754   -2.0924   -1.1397 C   0  0  0  0  0  0  0  0  0  0  0  0
   -1.4295   -1.4038   -0.0103 C   0  0  0  0  0  0  0  0  0  0  0  0
   -0.1575   -1.0024    0.6204 C   0  0  0  0  0  0  0  0  0  0  0  0
    1.1009   -1.6577    0.1011 C   0  0  0  0  0  0  0  0  0  0  0  0
   -0.2585   -0.7939    2.0772 C   0  0  0  0  0  0  0  0  0  0  0  0
    0.7050   -0.9598    2.9813 C   0  0  0  0  0  0  0  0  0  0  0  0
   -2.5602   -2.3063   -1.5339 H   0  0  0  0  0  0  0  0  0  0  0  0
   -0.7310   -2.4679   -1.7035 H   0  0  0  0  0  0  0  0  0  0  0  0
   -2.3257   -1.0597    0.5005 H   0  0  0  0  0  0  0  0  0  0  0  0
    1.9882   -1.1905    0.5288 H   0  0  0  0  0  0  0  0  0  0  0  0
    1.1705   -1.5524   -0.9817 H   0  0  0  0  0  0  0  0  0  0  0  0
    1.1207   -2.7222    0.3488 H   0  0  0  0  0  0  0  0  0  0  0  0
   -1.2299   -0.4484    2.4238 H   0  0  0  0  0  0  0  0  0  0  0  0
    1.6940   -1.3135    2.7181 H   0  0  0  0  0  0  0  0  0  0  0  0
    0.5226   -0.7554    4.0282 H   0  0  0  0  0  0  0  0  0  0  0  0
  1  2  3  0
  1  6  1  0
  2  3  1  0
  3  4  1  0
  3  5  1  0
  4  8  1  0
  4  9  1  0
  4 10  1  0
  5 11  1  0
  5 12  1  0
  5 13  1  0
  7 16  1  0
 14 15  2  3
 14 20  1  0
 14 21  1  0
 15 16  1  0
 15 22  1  0
 16 17  1  0
 16 18  1  0
 17 23  1  0
 17 24  1  0
 17 25  1  0
 18 19  2  3
 18 26  1  0
 19 27  1  0
 19 28  1  0
M  RAD  1   3   2
M  END
>  <reaction>  (4) 
rxn_1310

>  <mol_properties>  (4) 
{"1": {"label": "*4", "atom_type": "Ct"}, "2": {"label": "*3", "atom_type": "Cs"}, "6": {"label": "*2", "atom_type": "H0"}, "14": {"label": "*0", "atom_type": "Cd"}, "15": {"label": "*1", "atom_type": "Cs"}}

>  <type>  (4) 
ts

$$$$
