
     RDKit          3D

  5  4  0  0  0  0  0  0  0  0999 V2000
    0.0000    0.0000    0.0000 C   0  0  0  0  0  0  0  0  0  0  0  0
   -0.6486   -0.7720   -0.4113 H   0  0  0  0  0  0  0  0  0  0  0  0
   -0.3482    0.9787   -0.3267 H   0  0  0  0  0  0  0  0  0  0  0  0
   -0.0223   -0.0487    1.0876 H   0  0  0  0  0  0  0  0  0  0  0  0
    1.0191   -0.1580   -0.3496 H   0  0  0  0  0  0  0  0  0  0  0  0
  1  2  1  0
  1  3  1  0
  1  4  1  0
  1  5  1  0
M  END
>  <reaction>  (1) 
rxn_864

>  <mol_properties>  (1) 
{"0": {"label": "donator", "atom_type": "Cs"}, "1": {"label": "d_hydrogen", "atom_type": "H0"}}

>  <type>  (1) 
r1h

$$$$

     RDKit          3D

  6  5  0  0  0  0  0  0  0  0999 V2000
   -0.5027    0.1225    0.0381 C   0  0  0  0  0  0  0  0  0  0  0  0
    0.9546    0.1078    0.2160 C   0  0  0  0  0  3  0  0  0  0  0  0
    2.2010   -0.6803   -0.2886 S   0  0  0  0  0  0  0  0  0  0  0  0
   -0.8606   -0.6432   -0.6570 H   0  0  0  0  0  0  0  0  0  0  0  0
   -0.8094    1.1090   -0.3184 H   0  0  0  0  0  0  0  0  0  0  0  0
   -0.9829   -0.0159    1.0100 H   0  0  0  0  0  0  0  0  0  0  0  0
  1  2  1  0
  1  4  1  0
  1  5  1  0
  1  6  1  0
  2  3  2  0
M  RAD  1   2   2
M  END
>  <reaction>  (2) 
rxn_864

>  <mol_properties>  (2) 
{"1": {"label": "acceptor", "atom_type": "CS"}}

>  <type>  (2) 
r2

$$$$

     RDKit          3D

  7  6  0  0  0  0  0  0  0  0999 V2000
   -0.6782    0.0507    0.0301 C   0  0  0  0  0  0  0  0  0  0  0  0
    0.8092    0.0996    0.0213 C   0  0  0  0  0  0  0  0  0  0  0  0
    1.7473    0.7521    1.1507 S   0  0  0  0  0  0  0  0  0  0  0  0
   -1.0667    0.5456   -0.8653 H   0  0  0  0  0  0  0  0  0  0  0  0
   -1.0112   -0.9904   -0.0239 H   0  0  0  0  0  0  0  0  0  0  0  0
   -1.0920    0.5225    0.9188 H   0  0  0  0  0  0  0  0  0  0  0  0
    1.2740   -0.3620   -0.8520 H   0  0  0  0  0  0  0  0  0  0  0  0
  1  2  1  0
  1  4  1  0
  1  5  1  0
  1  6  1  0
  2  3  2  0
  2  7  1  0
M  END
>  <reaction>  (3) 
rxn_864

>  <mol_properties>  (3) 
{"0": {"label": "a_hydrogen", "atom_type": "H0"}, "2": {"label": "acceptor", "atom_type": "CS"}}

>  <type>  (3) 
r2h

$$$$

     RDKit          3D

 11  9  0  0  0  0  0  0  0  0999 V2000
   -0.4746   -2.4015   -0.7530 C   0  0  0  0  0  3  0  0  0  0  0  0
   -0.3368   -1.0583   -0.2561 H   0  0  0  0  0  0  0  0  0  0  0  0
   -0.0186   -3.0282    0.0070 H   0  0  0  0  0  0  0  0  0  0  0  0
   -1.5436   -2.5458   -0.8743 H   0  0  0  0  0  0  0  0  0  0  0  0
    0.0822   -2.3395   -1.6824 H   0  0  0  0  0  0  0  0  0  0  0  0
   -0.9433    0.2442    1.5039 C   0  0  0  0  0  0  0  0  0  0  0  0
   -0.2317    0.1232    0.2088 C   0  0  0  0  0  0  0  0  0  0  0  0
    0.5896    1.2042   -0.6180 S   0  0  0  0  0  0  0  0  0  0  0  0
   -0.8713    1.2454    1.9274 H   0  0  0  0  0  0  0  0  0  0  0  0
   -0.5335   -0.4861    2.2078 H   0  0  0  0  0  0  0  0  0  0  0  0
   -1.9946   -0.0231    1.3617 H   0  0  0  0  0  0  0  0  0  0  0  0
  1  3  1  0
  1  4  1  0
  1  5  1  0
  2  7  1  0
  6  7  1  0
  6  9  1  0
  6 10  1  0
  6 11  1  0
  7  8  2  0
M  RAD  1   1   2
M  END
>  <reaction>  (4) 
rxn_864

>  <mol_properties>  (4) 
{"0": {"label": "*3", "atom_type": "Cs"}, "1": {"label": "*2", "atom_type": "H0"}, "2": {"label": "*4", "atom_type": "H0"}, "6": {"label": "*1", "atom_type": "CS"}, "7": {"label": "*0", "atom_type": "S2d"}}

>  <type>  (4) 
ts

$$$$
