
     RDKit          3D

 15 15  0  0  0  0  0  0  0  0999 V2000
    2.2031   -0.2111   -0.1693 C   0  0  0  0  0  0  0  0  0  0  0  0
    0.7140   -0.0314   -0.0623 C   0  0  0  0  0  0  0  0  0  0  0  0
   -0.0114    0.5491   -1.0982 C   0  0  0  0  0  0  0  0  0  0  0  0
   -1.3882    0.6886   -1.0150 C   0  0  0  0  0  0  0  0  0  0  0  0
   -2.0661    0.2493    0.1118 C   0  0  0  0  0  0  0  0  0  0  0  0
   -1.3551   -0.3278    1.1528 C   0  0  0  0  0  0  0  0  0  0  0  0
    0.0216   -0.4648    1.0642 C   0  0  0  0  0  0  0  0  0  0  0  0
    2.6776   -0.1836    0.8122 H   0  0  0  0  0  0  0  0  0  0  0  0
    2.4446   -1.1749   -0.6249 H   0  0  0  0  0  0  0  0  0  0  0  0
    2.6532    0.5664   -0.7875 H   0  0  0  0  0  0  0  0  0  0  0  0
    0.5104    0.8989   -1.9819 H   0  0  0  0  0  0  0  0  0  0  0  0
   -1.9328    1.1452   -1.8322 H   0  0  0  0  0  0  0  0  0  0  0  0
   -3.1409    0.3597    0.1800 H   0  0  0  0  0  0  0  0  0  0  0  0
   -1.8736   -0.6702    2.0398 H   0  0  0  0  0  0  0  0  0  0  0  0
    0.5695   -0.9141    1.8849 H   0  0  0  0  0  0  0  0  0  0  0  0
  1  2  1  0
  1  8  1  0
  1  9  1  0
  1 10  1  0
  2  3  2  0
  2  7  1  0
  3  4  1  0
  3 11  1  0
  4  5  2  0
  4 12  1  0
  5  6  1  0
  5 13  1  0
  6  7  2  0
  6 14  1  0
  7 15  1  0
M  END
>  <reaction>  (1) 
rxn_266

>  <mol_properties>  (1) 
{"4": {"label": "donator", "atom_type": "Cd"}, "12": {"label": "d_hydrogen", "atom_type": "H0"}}

>  <type>  (1) 
r1h

$$$$

     RDKit          3D

  1  0  0  0  0  0  0  0  0  0999 V2000
    0.0000    0.0000    0.0000 O   0  0  0  0  0 15  0  0  0  0  0  0
M  END
>  <reaction>  (2) 
rxn_266

>  <mol_properties>  (2) 
{"0": {"label": "acceptor", "atom_type": "O2s"}}

>  <type>  (2) 
r2

$$$$

     RDKit          3D

  2  1  0  0  0  0  0  0  0  0999 V2000
    0.0000    0.0000    0.4855 O   0  0  0  0  0  1  0  0  0  0  0  0
    0.0000    0.0000   -0.4855 H   0  0  0  0  0  0  0  0  0  0  0  0
  1  2  1  0
M  RAD  1   1   2
M  END
>  <reaction>  (3) 
rxn_266

>  <mol_properties>  (3) 
{"0": {"label": "a_hydrogen", "atom_type": "H0"}, "1": {"label": "acceptor", "atom_type": "O2s"}}

>  <type>  (3) 
r2h

$$$$

     RDKit          3D

 16 15  0  0  0  0  0  0  0  0999 V2000
    0.0374   -0.0004   -3.0835 C   0  0  0  0  0  0  0  0  0  0  0  0
    0.0370   -0.0004   -1.5797 C   0  0  0  0  0  0  0  0  0  0  0  0
    0.0370    1.1985   -0.8714 C   0  0  0  0  0  0  0  0  0  0  0  0
    0.0069    1.2135    0.5185 C   0  0  0  0  0  0  0  0  0  0  0  0
   -0.0220    0.0002    1.1602 C   0  0  0  0  0  0  0  0  0  0  0  0
   -0.0199   -1.2134    0.5185 C   0  0  0  0  0  0  0  0  0  0  0  0
    0.0106   -1.1990   -0.8714 C   0  0  0  0  0  3  0  0  0  0  0  0
    0.5288   -0.8891   -3.4799 H   0  0  0  0  0  0  0  0  0  0  0  0
   -0.9852    0.0109   -3.4688 H   0  0  0  0  0  0  0  0  0  0  0  0
    0.5484    0.8772   -3.4799 H   0  0  0  0  0  0  0  0  0  0  0  0
    0.0635    2.1385   -1.4109 H   0  0  0  0  0  0  0  0  0  0  0  0
    0.0093    2.1452    1.0686 H   0  0  0  0  0  0  0  0  0  0  0  0
   -0.0485    0.0005    2.5155 H   0  0  0  0  0  0  0  0  0  0  0  0
   -0.0380   -2.1449    1.0686 H   0  0  0  0  0  0  0  0  0  0  0  0
    0.0164   -2.1393   -1.4109 H   0  0  0  0  0  0  0  0  0  0  0  0
   -0.0705    0.0008    3.6557 O   0  0  0  0  0  1  0  0  0  0  0  0
  1  2  1  0
  1  8  1  0
  1  9  1  0
  1 10  1  0
  2  3  2  0
  2  7  1  0
  3  4  1  0
  3 11  1  0
  4  5  2  0
  4 12  1  0
  5  6  2  0
  6  7  1  0
  6 14  1  0
  7 15  1  0
 13 16  1  0
M  RAD  2   7   2  16   2
M  END
>  <reaction>  (4) 
rxn_266

>  <mol_properties>  (4) 
{"3": {"label": "*4", "atom_type": "Cd"}, "4": {"label": "*3", "atom_type": "Cdd"}, "12": {"label": "*2", "atom_type": "H0"}, "15": {"label": "*1", "atom_type": "O2s"}}

>  <type>  (4) 
ts

$$$$
