
     RDKit          3D

 22 23  0  0  0  0  0  0  0  0999 V2000
   -2.1093   -0.3263    0.3079 C   0  0  0  0  0  0  0  0  0  0  0  0
   -1.3270    0.9803    0.4115 C   0  0  0  0  0  0  0  0  0  0  0  0
   -0.1818    0.8289   -0.6044 C   0  0  0  0  0  0  0  0  0  0  0  0
    1.1682    1.3904   -0.1341 C   0  0  0  0  0  0  0  0  0  0  0  0
    1.8508    0.2041    0.5479 C   0  0  0  0  0  0  0  0  0  0  0  0
    1.4982   -0.9663   -0.3710 C   0  0  0  0  0  0  0  0  0  0  0  0
    0.0340   -0.7124   -0.7594 C   0  0  0  0  0  0  0  0  0  0  0  0
   -0.9986   -1.3650    0.1756 C   0  0  0  0  0  0  0  0  0  0  0  0
   -2.7686   -0.5042    1.1589 H   0  0  0  0  0  0  0  0  0  0  0  0
   -2.7285   -0.3223   -0.5943 H   0  0  0  0  0  0  0  0  0  0  0  0
   -1.9339    1.8682    0.2289 H   0  0  0  0  0  0  0  0  0  0  0  0
   -0.9144    1.0729    1.4218 H   0  0  0  0  0  0  0  0  0  0  0  0
   -0.4804    1.2763   -1.5535 H   0  0  0  0  0  0  0  0  0  0  0  0
    1.7667    1.7058   -0.9931 H   0  0  0  0  0  0  0  0  0  0  0  0
    1.0540    2.2578    0.5189 H   0  0  0  0  0  0  0  0  0  0  0  0
    1.4197    0.0438    1.5410 H   0  0  0  0  0  0  0  0  0  0  0  0
    2.9248    0.3413    0.6788 H   0  0  0  0  0  0  0  0  0  0  0  0
    2.1362   -0.9329   -1.2584 H   0  0  0  0  0  0  0  0  0  0  0  0
    1.6421   -1.9421    0.0966 H   0  0  0  0  0  0  0  0  0  0  0  0
   -0.1575   -1.0299   -1.7854 H   0  0  0  0  0  0  0  0  0  0  0  0
   -1.3459   -2.3310   -0.1933 H   0  0  0  0  0  0  0  0  0  0  0  0
   -0.5489   -1.5373    1.1593 H   0  0  0  0  0  0  0  0  0  0  0  0
  1  2  1  0
  1  8  1  0
  1  9  1  0
  1 10  1  0
  2  3  1  0
  2 11  1  0
  2 12  1  0
  3  4  1  0
  3  7  1  0
  3 13  1  0
  4  5  1  0
  4 14  1  0
  4 15  1  0
  5  6  1  0
  5 16  1  0
  5 17  1  0
  6  7  1  0
  6 18  1  0
  6 19  1  0
  7  8  1  0
  7 20  1  0
  8 21  1  0
  8 22  1  0
M  END
>  <reaction>  (1) 
rxn_555

>  <mol_properties>  (1) 
{"2": {"label": "donator", "atom_type": "Cs"}, "12": {"label": "d_hydrogen", "atom_type": "H0"}}

>  <type>  (1) 
r1h

$$$$

     RDKit          3D

  4  3  0  0  0  0  0  0  0  0999 V2000
    0.0000    0.0000    0.0000 C   0  0  0  0  0  3  0  0  0  0  0  0
    1.0638   -0.1747    0.0540 H   0  0  0  0  0  0  0  0  0  0  0  0
   -0.6833   -0.8351   -0.0280 H   0  0  0  0  0  0  0  0  0  0  0  0
   -0.3805    1.0098   -0.0260 H   0  0  0  0  0  0  0  0  0  0  0  0
  1  2  1  0
  1  3  1  0
  1  4  1  0
M  RAD  1   1   2
M  END
>  <reaction>  (2) 
rxn_555

>  <mol_properties>  (2) 
{"0": {"label": "acceptor", "atom_type": "Cs"}}

>  <type>  (2) 
r2

$$$$

     RDKit          3D

  5  4  0  0  0  0  0  0  0  0999 V2000
    0.0000    0.0000    0.0000 C   0  0  0  0  0  0  0  0  0  0  0  0
   -0.6486   -0.7720   -0.4113 H   0  0  0  0  0  0  0  0  0  0  0  0
   -0.3482    0.9787   -0.3267 H   0  0  0  0  0  0  0  0  0  0  0  0
   -0.0223   -0.0487    1.0876 H   0  0  0  0  0  0  0  0  0  0  0  0
    1.0191   -0.1580   -0.3496 H   0  0  0  0  0  0  0  0  0  0  0  0
  1  2  1  0
  1  3  1  0
  1  4  1  0
  1  5  1  0
M  END
>  <reaction>  (3) 
rxn_555

>  <mol_properties>  (3) 
{"0": {"label": "acceptor", "atom_type": "Cs"}, "4": {"label": "a_hydrogen", "atom_type": "H0"}}

>  <type>  (3) 
r2h

$$$$

     RDKit          3D

 26 26  0  0  0  0  0  0  0  0999 V2000
   -2.6781   -1.2479    0.8625 C   0  0  0  0  0  3  0  0  0  0  0  0
   -2.8396   -1.9400    0.0416 H   0  0  0  0  0  0  0  0  0  0  0  0
   -3.3006   -0.3593    0.8196 H   0  0  0  0  0  0  0  0  0  0  0  0
   -2.6467   -1.7198    1.8396 H   0  0  0  0  0  0  0  0  0  0  0  0
    0.7127   -1.5244   -1.4206 C   0  0  0  0  0  0  0  0  0  0  0  0
    0.6802   -1.5127    0.1085 C   0  0  0  0  0  0  0  0  0  0  0  0
   -0.1950   -0.3161    0.4584 C   0  0  0  0  0  0  0  0  0  0  0  0
    0.2029    0.5453    1.6473 C   0  0  0  0  0  0  0  0  0  0  0  0
    0.9528    1.7193    1.0074 C   0  0  0  0  0  0  0  0  0  0  0  0
    0.1473    1.9974   -0.2645 C   0  0  0  0  0  0  0  0  0  0  0  0
   -0.2395    0.6031   -0.7807 C   0  0  0  0  0  0  0  0  0  0  0  0
    0.7463   -0.0376   -1.7704 C   0  0  0  0  0  0  0  0  0  0  0  0
    1.5545   -2.0849   -1.8294 H   0  0  0  0  0  0  0  0  0  0  0  0
   -0.2050   -1.9762   -1.8085 H   0  0  0  0  0  0  0  0  0  0  0  0
    0.3113   -2.4454    0.5411 H   0  0  0  0  0  0  0  0  0  0  0  0
    1.6932   -1.3574    0.4991 H   0  0  0  0  0  0  0  0  0  0  0  0
   -1.3666   -0.7640    0.6599 H   0  0  0  0  0  0  0  0  0  0  0  0
   -0.6885    0.9187    2.1620 H   0  0  0  0  0  0  0  0  0  0  0  0
    0.7981   -0.0001    2.3817 H   0  0  0  0  0  0  0  0  0  0  0  0
    1.9689    1.4087    0.7457 H   0  0  0  0  0  0  0  0  0  0  0  0
    1.0361    2.5874    1.6626 H   0  0  0  0  0  0  0  0  0  0  0  0
   -0.7508    2.5655   -0.0080 H   0  0  0  0  0  0  0  0  0  0  0  0
    0.6999    2.5788   -1.0048 H   0  0  0  0  0  0  0  0  0  0  0  0
   -1.2382    0.6129   -1.2259 H   0  0  0  0  0  0  0  0  0  0  0  0
    0.4951    0.1712   -2.8113 H   0  0  0  0  0  0  0  0  0  0  0  0
    1.7535    0.3544   -1.5922 H   0  0  0  0  0  0  0  0  0  0  0  0
  1  2  1  0
  1  3  1  0
  1  4  1  0
  5  6  1  0
  5 12  1  0
  5 13  1  0
  5 14  1  0
  6  7  1  0
  6 15  1  0
  6 16  1  0
  7  8  1  0
  7 11  1  0
  7 17  1  0
  8  9  1  0
  8 18  1  0
  8 19  1  0
  9 10  1  0
  9 20  1  0
  9 21  1  0
 10 11  1  0
 10 22  1  0
 10 23  1  0
 11 12  1  0
 11 24  1  0
 12 25  1  0
 12 26  1  0
M  RAD  1   1   2
M  END
>  <reaction>  (4) 
rxn_555

>  <mol_properties>  (4) 
{"0": {"label": "*3", "atom_type": "Cs"}, "1": {"label": "*4", "atom_type": "H0"}, "6": {"label": "*1", "atom_type": "Cs"}, "10": {"label": "*0", "atom_type": "Cs"}, "16": {"label": "*2", "atom_type": "H0"}}

>  <type>  (4) 
ts

$$$$
