
     RDKit          3D

 20 19  0  0  0  0  0  0  0  0999 V2000
   -3.4718    0.8171   -0.4908 C   0  0  0  0  0  0  0  0  0  0  0  0
   -2.3431   -0.1775   -0.2556 C   0  0  0  0  0  0  0  0  0  0  0  0
   -2.1808   -1.1597   -1.4097 C   0  0  0  0  0  0  0  0  0  0  0  0
   -1.0631   -2.1647   -1.2085 C   0  0  0  0  0  0  0  0  0  0  0  0
   -1.2728   -2.9769   -0.0444 O   0  0  0  0  0  0  0  0  0  0  0  0
   -2.0601   -4.0524   -0.1840 C   0  0  0  0  0  0  0  0  0  0  0  0
   -2.2103   -4.7796    1.1221 C   0  0  0  0  0  0  0  0  0  0  0  0
   -2.5724   -4.3791   -1.2201 O   0  0  0  0  0  0  0  0  0  0  0  0
   -4.4272    0.3020   -0.6136 H   0  0  0  0  0  0  0  0  0  0  0  0
   -3.5714    1.5108    0.3453 H   0  0  0  0  0  0  0  0  0  0  0  0
   -3.2956    1.4056   -1.3943 H   0  0  0  0  0  0  0  0  0  0  0  0
   -2.5281   -0.7320    0.6678 H   0  0  0  0  0  0  0  0  0  0  0  0
   -1.4021    0.3617   -0.1058 H   0  0  0  0  0  0  0  0  0  0  0  0
   -3.1153   -1.6998   -1.5825 H   0  0  0  0  0  0  0  0  0  0  0  0
   -1.9649   -0.6112   -2.3324 H   0  0  0  0  0  0  0  0  0  0  0  0
   -0.9625   -2.8118   -2.0796 H   0  0  0  0  0  0  0  0  0  0  0  0
   -0.1144   -1.6608   -1.0208 H   0  0  0  0  0  0  0  0  0  0  0  0
   -2.7146   -4.1339    1.8422 H   0  0  0  0  0  0  0  0  0  0  0  0
   -2.7909   -5.6848    0.9696 H   0  0  0  0  0  0  0  0  0  0  0  0
   -1.2296   -5.0233    1.5302 H   0  0  0  0  0  0  0  0  0  0  0  0
  1  2  1  0
  1  9  1  0
  1 10  1  0
  1 11  1  0
  2  3  1  0
  2 12  1  0
  2 13  1  0
  3  4  1  0
  3 14  1  0
  3 15  1  0
  4  5  1  0
  4 16  1  0
  4 17  1  0
  5  6  1  0
  6  7  1  0
  6  8  2  0
  7 18  1  0
  7 19  1  0
  7 20  1  0
M  END
>  <reaction>  (1) 
rxn_155

>  <mol_properties>  (1) 
{"0": {"label": "donator", "atom_type": "Cs"}, "8": {"label": "d_hydrogen", "atom_type": "H0"}}

>  <type>  (1) 
r1h

$$$$

     RDKit          3D

  1  0  0  0  0  0  0  0  0  0999 V2000
    0.0000    0.0000    0.0000 Cl  0  0  0  0  0 15  0  0  0  0  0  0
M  END
>  <reaction>  (2) 
rxn_155

>  <mol_properties>  (2) 
{"0": {"label": "acceptor", "atom_type": "Cl1s"}}

>  <type>  (2) 
r2

$$$$

     RDKit          3D

  2  1  0  0  0  0  0  0  0  0999 V2000
    0.0000    0.0000    0.6391 Cl  0  0  0  0  0  0  0  0  0  0  0  0
    0.0000    0.0000   -0.6391 H   0  0  0  0  0  0  0  0  0  0  0  0
  1  2  1  0
M  END
>  <reaction>  (3) 
rxn_155

>  <mol_properties>  (3) 
{"0": {"label": "acceptor", "atom_type": "Cl1s"}, "1": {"label": "a_hydrogen", "atom_type": "H0"}}

>  <type>  (3) 
r2h

$$$$

     RDKit          3D

 21 19  0  0  0  0  0  0  0  0999 V2000
    2.4163   -0.6149   -0.5622 Cl  0  0  0  0  0 15  0  0  0  0  0  0
    1.8228    1.5545    1.1945 C   0  0  0  0  0  0  0  0  0  0  0  0
    0.3951    1.8108    0.8398 C   0  0  0  0  0  0  0  0  0  0  0  0
   -0.5627    0.7356    1.3454 C   0  0  0  0  0  0  0  0  0  0  0  0
   -1.9279    0.8114    0.6878 C   0  0  0  0  0  0  0  0  0  0  0  0
   -1.8201    0.5786   -0.7199 O   0  0  0  0  0  0  0  0  0  0  0  0
   -1.7937   -0.7073   -1.1187 C   0  0  0  0  0  0  0  0  0  0  0  0
   -1.5011   -0.8103   -2.5858 C   0  0  0  0  0  0  0  0  0  0  0  0
   -1.9625   -1.6351   -0.3771 O   0  0  0  0  0  0  0  0  0  0  0  0
    2.1746    0.4882    0.3834 H   0  0  0  0  0  0  0  0  0  0  0  0
    2.5567    2.2839    0.8623 H   0  0  0  0  0  0  0  0  0  0  0  0
    2.0300    1.1272    2.1734 H   0  0  0  0  0  0  0  0  0  0  0  0
    0.3079    1.9083   -0.2455 H   0  0  0  0  0  0  0  0  0  0  0  0
    0.1090    2.7895    1.2502 H   0  0  0  0  0  0  0  0  0  0  0  0
   -0.1457   -0.2560    1.1548 H   0  0  0  0  0  0  0  0  0  0  0  0
   -0.6897    0.8229    2.4279 H   0  0  0  0  0  0  0  0  0  0  0  0
   -2.6095    0.0834    1.1257 H   0  0  0  0  0  0  0  0  0  0  0  0
   -2.3589    1.8094    0.7757 H   0  0  0  0  0  0  0  0  0  0  0  0
   -0.4271   -0.6722   -2.7274 H   0  0  0  0  0  0  0  0  0  0  0  0
   -1.7819   -1.7968   -2.9443 H   0  0  0  0  0  0  0  0  0  0  0  0
   -2.0188   -0.0324   -3.1444 H   0  0  0  0  0  0  0  0  0  0  0  0
  2  3  1  0
  2 10  1  0
  2 11  1  0
  2 12  1  0
  3  4  1  0
  3 13  1  0
  3 14  1  0
  4  5  1  0
  4 15  1  0
  4 16  1  0
  5  6  1  0
  5 17  1  0
  5 18  1  0
  6  7  1  0
  7  8  1  0
  7  9  2  0
  8 19  1  0
  8 20  1  0
  8 21  1  0
M  END
>  <reaction>  (4) 
rxn_155

>  <mol_properties>  (4) 
{"0": {"label": "*3", "atom_type": "Cl1s"}, "1": {"label": "*1", "atom_type": "Cs"}, "2": {"label": "*0", "atom_type": "Cs"}, "9": {"label": "*2", "atom_type": "H0"}}

>  <type>  (4) 
ts

$$$$
