
     RDKit          3D

 11 10  0  0  0  0  0  0  0  0999 V2000
   -1.2710    0.1907   -0.2084 C   0  0  0  0  0  0  0  0  0  0  0  0
    0.0202   -0.6130   -0.2928 C   0  0  0  0  0  0  0  0  0  0  0  0
    0.1086   -1.6953    0.7756 C   0  0  0  0  0  0  0  0  0  0  0  0
   -1.3607    0.6851    0.7620 H   0  0  0  0  0  0  0  0  0  0  0  0
   -2.1429   -0.4567   -0.3299 H   0  0  0  0  0  0  0  0  0  0  0  0
   -1.3158    0.9602   -0.9809 H   0  0  0  0  0  0  0  0  0  0  0  0
    0.8757    0.0616   -0.1992 H   0  0  0  0  0  0  0  0  0  0  0  0
    0.0997   -1.0712   -1.2825 H   0  0  0  0  0  0  0  0  0  0  0  0
   -0.7198   -2.4022    0.6850 H   0  0  0  0  0  0  0  0  0  0  0  0
    1.0395   -2.2596    0.6989 H   0  0  0  0  0  0  0  0  0  0  0  0
    0.0624   -1.2603    1.7770 H   0  0  0  0  0  0  0  0  0  0  0  0
  1  2  1  0
  1  4  1  0
  1  5  1  0
  1  6  1  0
  2  3  1  0
  2  7  1  0
  2  8  1  0
  3  9  1  0
  3 10  1  0
  3 11  1  0
M  END
>  <reaction>  (1) 
rxn_922

>  <mol_properties>  (1) 
{"1": {"label": "donator", "atom_type": "Cs"}, "6": {"label": "d_hydrogen", "atom_type": "H0"}}

>  <type>  (1) 
r1h

$$$$

     RDKit          3D

 11 10  0  0  0  0  0  0  0  0999 V2000
   -0.9580    1.1013   -2.2955 C   0  0  0  0  0  0  0  0  0  0  0  0
   -0.5129    0.5941   -1.2929 C   0  0  0  0  0  0  0  0  0  0  0  0
   -0.0301   -0.0160   -0.1357 C   0  0  0  0  0  3  0  0  0  0  0  0
   -0.6593   -1.2845    0.3661 C   0  0  0  0  0  0  0  0  0  0  0  0
    1.0691    0.5292    0.5269 C   0  0  0  0  0  0  0  0  0  0  0  0
    2.0168    0.9794    1.1266 C   0  0  0  0  0  0  0  0  0  0  0  0
   -1.3415    1.5561   -3.1769 H   0  0  0  0  0  0  0  0  0  0  0  0
   -1.7166   -1.3186    0.1054 H   0  0  0  0  0  0  0  0  0  0  0  0
   -0.1742   -2.1550   -0.0865 H   0  0  0  0  0  0  0  0  0  0  0  0
   -0.5505   -1.3663    1.4470 H   0  0  0  0  0  0  0  0  0  0  0  0
    2.8514    1.3842    1.6465 H   0  0  0  0  0  0  0  0  0  0  0  0
  1  2  3  0
  1  7  1  0
  2  3  1  0
  3  4  1  0
  3  5  1  0
  4  8  1  0
  4  9  1  0
  4 10  1  0
  5  6  3  0
  6 11  1  0
M  RAD  1   3   2
M  END
>  <reaction>  (2) 
rxn_922

>  <mol_properties>  (2) 
{"2": {"label": "acceptor", "atom_type": "Cs"}}

>  <type>  (2) 
r2

$$$$

     RDKit          3D

 12 11  0  0  0  0  0  0  0  0999 V2000
    2.1696    0.6854    1.1310 C   0  0  0  0  0  0  0  0  0  0  0  0
    1.2518    0.4145    0.4134 C   0  0  0  0  0  0  0  0  0  0  0  0
    0.1391    0.0443   -0.4683 C   0  0  0  0  0  0  0  0  0  0  0  0
   -0.2054   -1.4492   -0.3339 C   0  0  0  0  0  0  0  0  0  0  0  0
   -1.0375    0.8853   -0.2222 C   0  0  0  0  0  0  0  0  0  0  0  0
   -2.0160    1.5463   -0.0311 C   0  0  0  0  0  0  0  0  0  0  0  0
    2.9819    0.9356    1.7702 H   0  0  0  0  0  0  0  0  0  0  0  0
    0.4629    0.2285   -1.4981 H   0  0  0  0  0  0  0  0  0  0  0  0
   -0.5327   -1.6703    0.6812 H   0  0  0  0  0  0  0  0  0  0  0  0
    0.6727   -2.0535   -0.5593 H   0  0  0  0  0  0  0  0  0  0  0  0
   -1.0064   -1.7081   -1.0256 H   0  0  0  0  0  0  0  0  0  0  0  0
   -2.8802    2.1413    0.1426 H   0  0  0  0  0  0  0  0  0  0  0  0
  1  2  3  0
  1  7  1  0
  2  3  1  0
  3  4  1  0
  3  5  1  0
  3  8  1  0
  4  9  1  0
  4 10  1  0
  4 11  1  0
  5  6  3  0
  6 12  1  0
M  END
>  <reaction>  (3) 
rxn_922

>  <mol_properties>  (3) 
{"2": {"label": "acceptor", "atom_type": "Cs"}, "11": {"label": "a_hydrogen", "atom_type": "H0"}}

>  <type>  (3) 
r2h

$$$$

     RDKit          3D

 22 20  0  0  0  0  0  0  0  0999 V2000
    2.2243    0.1825   -1.3504 C   0  0  0  0  0  0  0  0  0  0  0  0
    1.4607   -0.1559   -0.4890 C   0  0  0  0  0  0  0  0  0  0  0  0
    0.4852   -0.5630    0.4938 C   0  0  0  0  0  0  0  0  0  0  0  0
    0.1877   -2.0598    0.5032 C   0  0  0  0  0  0  0  0  0  0  0  0
    0.6837    0.0151    1.8014 C   0  0  0  0  0  0  0  0  0  0  0  0
    0.7859    0.4981    2.8947 C   0  0  0  0  0  0  0  0  0  0  0  0
    2.9189    0.4803   -2.0983 H   0  0  0  0  0  0  0  0  0  0  0  0
   -0.0608   -2.3939   -0.5041 H   0  0  0  0  0  0  0  0  0  0  0  0
    1.0512   -2.6268    0.8539 H   0  0  0  0  0  0  0  0  0  0  0  0
   -0.6546   -2.2656    1.1638 H   0  0  0  0  0  0  0  0  0  0  0  0
    0.8973    0.9240    3.8625 H   0  0  0  0  0  0  0  0  0  0  0  0
   -1.8903   -0.0317   -1.8309 C   0  0  0  0  0  0  0  0  0  0  0  0
   -1.7706    0.5868   -0.4703 C   0  0  0  0  0  3  0  0  0  0  0  0
   -1.3909    2.0352   -0.3997 C   0  0  0  0  0  0  0  0  0  0  0  0
   -0.9638    0.0959   -2.3969 H   0  0  0  0  0  0  0  0  0  0  0  0
   -2.6928    0.4428   -2.4088 H   0  0  0  0  0  0  0  0  0  0  0  0
   -2.1130   -1.0981   -1.7733 H   0  0  0  0  0  0  0  0  0  0  0  0
   -0.6025   -0.0409    0.0831 H   0  0  0  0  0  0  0  0  0  0  0  0
   -2.5274    0.2751    0.2481 H   0  0  0  0  0  0  0  0  0  0  0  0
   -2.1863    2.6704   -0.8075 H   0  0  0  0  0  0  0  0  0  0  0  0
   -1.2059    2.3495    0.6283 H   0  0  0  0  0  0  0  0  0  0  0  0
   -0.4865    2.2269   -0.9825 H   0  0  0  0  0  0  0  0  0  0  0  0
  1  2  3  0
  1  7  1  0
  2  3  1  0
  3  4  1  0
  3  5  1  0
  3 18  1  0
  4  8  1  0
  4  9  1  0
  4 10  1  0
  5  6  3  0
  6 11  1  0
 12 13  1  0
 12 15  1  0
 12 16  1  0
 12 17  1  0
 13 14  1  0
 13 19  1  0
 14 20  1  0
 14 21  1  0
 14 22  1  0
M  RAD  1  13   2
M  END
>  <reaction>  (4) 
rxn_922

>  <mol_properties>  (4) 
{"1": {"label": "*0", "atom_type": "Ct"}, "2": {"label": "*1", "atom_type": "Cs"}, "11": {"label": "*4", "atom_type": "Cs"}, "12": {"label": "*3", "atom_type": "Cs"}, "17": {"label": "*2", "atom_type": "H0"}}

>  <type>  (4) 
ts

$$$$
