
     RDKit          3D

  4  3  0  0  0  0  0  0  0  0999 V2000
   -0.6811    0.2130   -0.1145 N   0  0  0  0  0  0  0  0  0  0  0  0
    0.4886    0.0558    0.1399 C   0  0  0  0  0  0  0  0  0  0  0  0
    1.6370   -0.0014    0.2890 O   0  0  0  0  0  0  0  0  0  0  0  0
   -1.4444   -0.2674    0.3244 H   0  0  0  0  0  0  0  0  0  0  0  0
  1  2  2  0
  1  4  1  0
  2  3  2  0
M  END
>  <reaction>  (1) 
rxn_698

>  <mol_properties>  (1) 
{"0": {"label": "donator", "atom_type": "N3d"}, "3": {"label": "d_hydrogen", "atom_type": "H0"}}

>  <type>  (1) 
r1h

$$$$

     RDKit          3D

  4  3  0  0  0  0  0  0  0  0999 V2000
    0.0000    0.0000    0.0000 C   0  0  0  0  0  3  0  0  0  0  0  0
    1.0638   -0.1747    0.0540 H   0  0  0  0  0  0  0  0  0  0  0  0
   -0.6833   -0.8351   -0.0280 H   0  0  0  0  0  0  0  0  0  0  0  0
   -0.3805    1.0098   -0.0260 H   0  0  0  0  0  0  0  0  0  0  0  0
  1  2  1  0
  1  3  1  0
  1  4  1  0
M  RAD  1   1   2
M  END
>  <reaction>  (2) 
rxn_698

>  <mol_properties>  (2) 
{"0": {"label": "acceptor", "atom_type": "Cs"}}

>  <type>  (2) 
r2

$$$$

     RDKit          3D

  5  4  0  0  0  0  0  0  0  0999 V2000
    0.0000    0.0000    0.0000 C   0  0  0  0  0  0  0  0  0  0  0  0
   -0.6486   -0.7720   -0.4113 H   0  0  0  0  0  0  0  0  0  0  0  0
   -0.3482    0.9787   -0.3267 H   0  0  0  0  0  0  0  0  0  0  0  0
   -0.0223   -0.0487    1.0876 H   0  0  0  0  0  0  0  0  0  0  0  0
    1.0191   -0.1580   -0.3496 H   0  0  0  0  0  0  0  0  0  0  0  0
  1  2  1  0
  1  3  1  0
  1  4  1  0
  1  5  1  0
M  END
>  <reaction>  (3) 
rxn_698

>  <mol_properties>  (3) 
{"0": {"label": "a_hydrogen", "atom_type": "H0"}, "1": {"label": "acceptor", "atom_type": "Cs"}}

>  <type>  (3) 
r2h

$$$$

     RDKit          3D

  8  6  0  0  0  0  0  0  0  0999 V2000
   -0.0379    0.8724    0.4465 N   0  0  0  0  0  0  0  0  0  0  0  0
   -0.0141    0.3986   -0.6788 C   0  0  0  0  0  0  0  0  0  0  0  0
    0.0069    0.0099   -1.7767 O   0  0  0  0  0  1  0  0  0  0  0  0
   -0.0149   -0.1236    1.3310 H   0  0  0  0  0  0  0  0  0  0  0  0
    0.0109   -1.1603    2.0292 C   0  0  0  0  0  0  0  0  0  0  0  0
    0.0422   -1.9985    1.3398 H   0  0  0  0  0  0  0  0  0  0  0  0
    0.9144   -1.0452    2.6208 H   0  0  0  0  0  0  0  0  0  0  0  0
   -0.9076   -1.1008    2.6056 H   0  0  0  0  0  0  0  0  0  0  0  0
  1  2  3  0
  2  3  1  0
  4  5  1  0
  5  6  1  0
  5  7  1  0
  5  8  1  0
M  RAD  1   3   2
M  END
>  <reaction>  (4) 
rxn_698

>  <mol_properties>  (4) 
{"0": {"label": "*3", "atom_type": "N3t"}, "1": {"label": "*4", "atom_type": "Ct"}, "3": {"label": "*2", "atom_type": "H0"}, "4": {"label": "*1", "atom_type": "Cs"}, "5": {"label": "*0", "atom_type": "H0"}}

>  <type>  (4) 
ts

$$$$
