
     RDKit          3D

 11 10  0  0  0  0  0  0  0  0999 V2000
   -1.2710    0.1907   -0.2084 C   0  0  0  0  0  0  0  0  0  0  0  0
    0.0202   -0.6130   -0.2928 C   0  0  0  0  0  0  0  0  0  0  0  0
    0.1086   -1.6953    0.7756 C   0  0  0  0  0  0  0  0  0  0  0  0
   -1.3607    0.6851    0.7620 H   0  0  0  0  0  0  0  0  0  0  0  0
   -2.1429   -0.4567   -0.3299 H   0  0  0  0  0  0  0  0  0  0  0  0
   -1.3158    0.9602   -0.9809 H   0  0  0  0  0  0  0  0  0  0  0  0
    0.8757    0.0616   -0.1992 H   0  0  0  0  0  0  0  0  0  0  0  0
    0.0997   -1.0712   -1.2825 H   0  0  0  0  0  0  0  0  0  0  0  0
   -0.7198   -2.4022    0.6850 H   0  0  0  0  0  0  0  0  0  0  0  0
    1.0395   -2.2596    0.6989 H   0  0  0  0  0  0  0  0  0  0  0  0
    0.0624   -1.2603    1.7770 H   0  0  0  0  0  0  0  0  0  0  0  0
  1  2  1  0
  1  4  1  0
  1  5  1  0
  1  6  1  0
  2  3  1  0
  2  7  1  0
  2  8  1  0
  3  9  1  0
  3 10  1  0
  3 11  1  0
M  END
>  <reaction>  (1) 
rxn_935

>  <mol_properties>  (1) 
{"1": {"label": "donator", "atom_type": "Cs"}, "6": {"label": "d_hydrogen", "atom_type": "H0"}}

>  <type>  (1) 
r1h

$$$$

     RDKit          3D

  9  8  0  0  0  0  0  0  0  0999 V2000
   -1.2704   -0.1236    0.1096 C   0  0  0  0  0  0  0  0  0  0  0  0
    0.0713   -0.5323    0.5887 C   0  0  0  0  0  0  0  0  0  0  0  0
    0.9521   -1.3639   -0.0464 C   0  0  0  0  0  0  0  0  0  0  0  0
    0.6900   -2.1109   -1.5335 S   0  0  0  0  0  1  0  0  0  0  0  0
   -1.3201    0.9657    0.0241 H   0  0  0  0  0  0  0  0  0  0  0  0
   -1.5103   -0.5706   -0.8526 H   0  0  0  0  0  0  0  0  0  0  0  0
   -2.0312   -0.4112    0.8411 H   0  0  0  0  0  0  0  0  0  0  0  0
    0.3863   -0.1265    1.5468 H   0  0  0  0  0  0  0  0  0  0  0  0
    1.8971   -1.5543    0.4552 H   0  0  0  0  0  0  0  0  0  0  0  0
  1  2  1  0
  1  5  1  0
  1  6  1  0
  1  7  1  0
  2  3  2  3
  2  8  1  0
  3  4  1  0
  3  9  1  0
M  RAD  1   4   2
M  END
>  <reaction>  (2) 
rxn_935

>  <mol_properties>  (2) 
{"1": {"label": "acceptor", "atom_type": "Cs"}}

>  <type>  (2) 
r2

$$$$

     RDKit          3D

 10  9  0  0  0  0  0  0  0  0999 V2000
   -1.1508    0.0666    0.2839 C   0  0  0  0  0  0  0  0  0  0  0  0
    0.1022   -0.3749   -0.4771 C   0  0  0  0  0  0  0  0  0  0  0  0
    1.3428    0.1620    0.1542 C   0  0  0  0  0  0  0  0  0  0  0  0
    2.5613   -0.6971    0.7526 S   0  0  0  0  0  0  0  0  0  0  0  0
   -1.2137    1.1546    0.3481 H   0  0  0  0  0  0  0  0  0  0  0  0
   -2.0472   -0.2935   -0.2212 H   0  0  0  0  0  0  0  0  0  0  0  0
   -1.1467   -0.3334    1.2987 H   0  0  0  0  0  0  0  0  0  0  0  0
    0.1602   -1.4616   -0.5369 H   0  0  0  0  0  0  0  0  0  0  0  0
    0.0536    0.0174   -1.4997 H   0  0  0  0  0  0  0  0  0  0  0  0
    1.3824    1.2528    0.2110 H   0  0  0  0  0  0  0  0  0  0  0  0
  1  2  1  0
  1  5  1  0
  1  6  1  0
  1  7  1  0
  2  3  1  0
  2  8  1  0
  2  9  1  0
  3  4  2  0
  3 10  1  0
M  END
>  <reaction>  (3) 
rxn_935

>  <mol_properties>  (3) 
{"1": {"label": "acceptor", "atom_type": "Cs"}, "9": {"label": "a_hydrogen", "atom_type": "H0"}}

>  <type>  (3) 
r2h

$$$$

     RDKit          3D

 20 18  0  0  0  0  0  0  0  0999 V2000
    1.0307   -2.0596   -0.9935 C   0  0  0  0  0  0  0  0  0  0  0  0
    0.5173   -1.2724    0.1891 C   0  0  0  0  0  0  0  0  0  0  0  0
    1.2724   -0.1310    0.6680 C   0  0  0  0  0  0  0  0  0  0  0  0
    2.3919    0.7217   -0.1544 S   0  0  0  0  0  0  0  0  0  0  0  0
    1.2690   -1.4004   -1.8274 H   0  0  0  0  0  0  0  0  0  0  0  0
    1.9441   -2.5978   -0.7317 H   0  0  0  0  0  0  0  0  0  0  0  0
    0.2858   -2.7868   -1.3200 H   0  0  0  0  0  0  0  0  0  0  0  0
    0.1593   -1.8962    1.0102 H   0  0  0  0  0  0  0  0  0  0  0  0
    1.0012    0.2024    1.6705 H   0  0  0  0  0  0  0  0  0  0  0  0
   -1.2581    0.2428   -2.1758 C   0  0  0  0  0  0  0  0  0  0  0  0
   -1.7409   -0.0990   -0.8014 C   0  0  0  0  0  3  0  0  0  0  0  0
   -1.9325    1.0251    0.1667 C   0  0  0  0  0  0  0  0  0  0  0  0
   -0.3252    0.8108   -2.1300 H   0  0  0  0  0  0  0  0  0  0  0  0
   -1.9930    0.8658   -2.7004 H   0  0  0  0  0  0  0  0  0  0  0  0
   -1.0882   -0.6484   -2.7800 H   0  0  0  0  0  0  0  0  0  0  0  0
   -0.5524   -0.7650   -0.1980 H   0  0  0  0  0  0  0  0  0  0  0  0
   -2.4736   -0.9010   -0.7434 H   0  0  0  0  0  0  0  0  0  0  0  0
   -2.7325    1.6955   -0.1685 H   0  0  0  0  0  0  0  0  0  0  0  0
   -2.1985    0.6644    1.1613 H   0  0  0  0  0  0  0  0  0  0  0  0
   -1.0231    1.6272    0.2480 H   0  0  0  0  0  0  0  0  0  0  0  0
  1  2  1  0
  1  5  1  0
  1  6  1  0
  1  7  1  0
  2  3  1  0
  2  8  1  0
  2 16  1  0
  3  4  2  0
  3  9  1  0
 10 11  1  0
 10 13  1  0
 10 14  1  0
 10 15  1  0
 11 12  1  0
 11 17  1  0
 12 18  1  0
 12 19  1  0
 12 20  1  0
M  RAD  1  11   2
M  END
>  <reaction>  (4) 
rxn_935

>  <mol_properties>  (4) 
{"1": {"label": "*1", "atom_type": "Cs"}, "2": {"label": "*0", "atom_type": "CS"}, "9": {"label": "*4", "atom_type": "Cs"}, "10": {"label": "*3", "atom_type": "Cs"}, "15": {"label": "*2", "atom_type": "H0"}}

>  <type>  (4) 
ts

$$$$
