
     RDKit          3D

 12 11  0  0  0  0  0  0  0  0999 V2000
    1.9877    0.1011    0.4814 C   0  0  0  0  0  0  0  0  0  0  0  0
    0.8179    0.5502    0.0525 C   0  0  0  0  0  0  0  0  0  0  0  0
   -0.2939   -0.2692   -0.5320 C   0  0  0  0  0  0  0  0  0  0  0  0
   -0.0292   -1.7631   -0.6328 C   0  0  0  0  0  0  0  0  0  0  0  0
    2.2522   -0.9490    0.4436 H   0  0  0  0  0  0  0  0  0  0  0  0
    2.7295    0.7757    0.8896 H   0  0  0  0  0  0  0  0  0  0  0  0
    0.6162    1.6164    0.1190 H   0  0  0  0  0  0  0  0  0  0  0  0
   -0.5268    0.1319   -1.5245 H   0  0  0  0  0  0  0  0  0  0  0  0
   -1.1959   -0.0938    0.0644 H   0  0  0  0  0  0  0  0  0  0  0  0
    0.1590   -2.1992    0.3502 H   0  0  0  0  0  0  0  0  0  0  0  0
    0.8382   -1.9701   -1.2626 H   0  0  0  0  0  0  0  0  0  0  0  0
   -0.8879   -2.2759   -1.0672 H   0  0  0  0  0  0  0  0  0  0  0  0
  1  2  2  3
  1  5  1  0
  1  6  1  0
  2  3  1  0
  2  7  1  0
  3  4  1  0
  3  8  1  0
  3  9  1  0
  4 10  1  0
  4 11  1  0
  4 12  1  0
M  END
>  <reaction>  (1) 
rxn_38

>  <mol_properties>  (1) 
{"2": {"label": "donator", "atom_type": "Cs"}, "7": {"label": "d_hydrogen", "atom_type": "H0"}}

>  <type>  (1) 
r1h

$$$$

     RDKit          3D

  6  5  0  0  0  0  0  0  0  0999 V2000
   -0.4344    0.0212    0.0006 C   0  0  0  0  0  0  0  0  0  0  0  0
    0.8754    0.5852   -0.1558 O   0  0  0  0  0  0  0  0  0  0  0  0
    1.8009   -0.3034    0.0506 O   0  0  0  0  0  1  0  0  0  0  0  0
   -0.5437   -0.3548    1.0170 H   0  0  0  0  0  0  0  0  0  0  0  0
   -1.1312    0.8347   -0.1903 H   0  0  0  0  0  0  0  0  0  0  0  0
   -0.5670   -0.7829   -0.7220 H   0  0  0  0  0  0  0  0  0  0  0  0
  1  2  1  0
  1  4  1  0
  1  5  1  0
  1  6  1  0
  2  3  1  0
M  RAD  1   3   2
M  END
>  <reaction>  (2) 
rxn_38

>  <mol_properties>  (2) 
{"2": {"label": "acceptor", "atom_type": "O2s"}}

>  <type>  (2) 
r2

$$$$

     RDKit          3D

  7  6  0  0  0  0  0  0  0  0999 V2000
   -0.7707    0.0268   -0.0047 C   0  0  0  0  0  0  0  0  0  0  0  0
    0.4327    0.7555    0.0056 O   0  0  0  0  0  0  0  0  0  0  0  0
    0.2257    1.8886    0.8427 O   0  0  0  0  0  0  0  0  0  0  0  0
   -1.5847    0.6016   -0.4574 H   0  0  0  0  0  0  0  0  0  0  0  0
   -1.0534   -0.2811    1.0050 H   0  0  0  0  0  0  0  0  0  0  0  0
   -0.5599   -0.8542   -0.6123 H   0  0  0  0  0  0  0  0  0  0  0  0
    0.2626    2.6067    0.2016 H   0  0  0  0  0  0  0  0  0  0  0  0
  1  2  1  0
  1  4  1  0
  1  5  1  0
  1  6  1  0
  2  3  1  0
  3  7  1  0
M  END
>  <reaction>  (3) 
rxn_38

>  <mol_properties>  (3) 
{"0": {"label": "a_hydrogen", "atom_type": "H0"}, "3": {"label": "acceptor", "atom_type": "O2s"}}

>  <type>  (3) 
r2h

$$$$

     RDKit          3D

 18 16  0  0  0  0  0  0  0  0999 V2000
   -0.6551   -0.9203   -1.8587 C   0  0  0  0  0  0  0  0  0  0  0  0
   -1.1278   -0.8704   -0.6089 C   0  0  0  0  0  0  0  0  0  0  0  0
   -1.4168    0.3415    0.1439 C   0  0  0  0  0  3  0  0  0  0  0  0
   -1.5360    1.6556   -0.5843 C   0  0  0  0  0  0  0  0  0  0  0  0
   -0.4805   -0.0251   -2.4422 H   0  0  0  0  0  0  0  0  0  0  0  0
   -0.4381   -1.8672   -2.3356 H   0  0  0  0  0  0  0  0  0  0  0  0
   -1.2743   -1.8055   -0.0754 H   0  0  0  0  0  0  0  0  0  0  0  0
   -0.3421    0.5065    0.8594 H   0  0  0  0  0  0  0  0  0  0  0  0
   -2.1540    0.1956    0.9333 H   0  0  0  0  0  0  0  0  0  0  0  0
   -2.3688    1.6359   -1.2934 H   0  0  0  0  0  0  0  0  0  0  0  0
   -0.6248    1.8822   -1.1401 H   0  0  0  0  0  0  0  0  0  0  0  0
   -1.7045    2.4699    0.1194 H   0  0  0  0  0  0  0  0  0  0  0  0
    2.1836   -0.8220    0.6936 C   0  0  0  0  0  0  0  0  0  0  0  0
    1.6702    0.4681    0.4146 O   0  0  0  0  0  0  0  0  0  0  0  0
    0.7502    0.7980    1.3717 O   0  0  0  0  0  0  0  0  0  0  0  0
    1.3880   -1.5690    0.6595 H   0  0  0  0  0  0  0  0  0  0  0  0
    2.9131   -1.0213   -0.0910 H   0  0  0  0  0  0  0  0  0  0  0  0
    2.6677   -0.8340    1.6722 H   0  0  0  0  0  0  0  0  0  0  0  0
  1  2  2  3
  1  5  1  0
  1  6  1  0
  2  3  1  0
  2  7  1  0
  3  4  1  0
  3  9  1  0
  4 10  1  0
  4 11  1  0
  4 12  1  0
  8 15  1  0
 13 14  1  0
 13 16  1  0
 13 17  1  0
 13 18  1  0
 14 15  1  0
M  RAD  1   3   2
M  END
>  <reaction>  (4) 
rxn_38

>  <mol_properties>  (4) 
{"1": {"label": "*4", "atom_type": "Cd"}, "2": {"label": "*3", "atom_type": "Cs"}, "7": {"label": "*2", "atom_type": "H0"}, "13": {"label": "*0", "atom_type": "O2s"}, "14": {"label": "*1", "atom_type": "O2s"}}

>  <type>  (4) 
ts

$$$$
