
     RDKit          3D

 16 15  0  0  0  0  0  0  0  0999 V2000
    1.7961   -0.3807    1.6176 C   0  0  0  0  0  0  0  0  0  0  0  0
    0.8562   -0.8708    0.8256 C   0  0  0  0  0  0  0  0  0  0  0  0
    0.0895   -0.0826   -0.2048 C   0  0  0  0  0  0  0  0  0  0  0  0
   -1.4061   -0.1111    0.0982 C   0  0  0  0  0  0  0  0  0  0  0  0
    0.4476   -0.5902   -1.5797 C   0  0  0  0  0  0  0  0  0  0  0  0
   -0.3793   -1.1113   -2.4728 C   0  0  0  0  0  0  0  0  0  0  0  0
    2.3110   -1.0032    2.3386 H   0  0  0  0  0  0  0  0  0  0  0  0
    2.0846    0.6643    1.5737 H   0  0  0  0  0  0  0  0  0  0  0  0
    0.5921   -1.9241    0.8925 H   0  0  0  0  0  0  0  0  0  0  0  0
    0.4358    0.9557   -0.1462 H   0  0  0  0  0  0  0  0  0  0  0  0
   -1.5968    0.3080    1.0865 H   0  0  0  0  0  0  0  0  0  0  0  0
   -1.9674    0.4693   -0.6359 H   0  0  0  0  0  0  0  0  0  0  0  0
   -1.7902   -1.1338    0.0883 H   0  0  0  0  0  0  0  0  0  0  0  0
    1.5049   -0.5197   -1.8214 H   0  0  0  0  0  0  0  0  0  0  0  0
   -1.4421   -1.2131   -2.2889 H   0  0  0  0  0  0  0  0  0  0  0  0
   -0.0162   -1.4558   -3.4328 H   0  0  0  0  0  0  0  0  0  0  0  0
  1  2  2  3
  1  7  1  0
  1  8  1  0
  2  3  1  0
  2  9  1  0
  3  4  1  0
  3  5  1  0
  3 10  1  0
  4 11  1  0
  4 12  1  0
  4 13  1  0
  5  6  2  3
  5 14  1  0
  6 15  1  0
  6 16  1  0
M  END
>  <reaction>  (1) 
rxn_1172

>  <mol_properties>  (1) 
{"2": {"label": "donator", "atom_type": "Cs"}, "9": {"label": "d_hydrogen", "atom_type": "H0"}}

>  <type>  (1) 
r1h

$$$$

     RDKit          3D

 10  9  0  0  0  0  0  0  0  0999 V2000
    1.2930    0.1441    0.3288 C   0  0  0  0  0  0  0  0  0  0  0  0
   -0.0374   -0.1647    0.9100 C   0  0  0  0  0  3  0  0  0  0  0  0
   -1.2664    0.4569    0.3567 C   0  0  0  0  0  0  0  0  0  0  0  0
    1.4384    1.2242    0.2174 H   0  0  0  0  0  0  0  0  0  0  0  0
    2.1077   -0.2477    0.9385 H   0  0  0  0  0  0  0  0  0  0  0  0
    1.4057   -0.2836   -0.6789 H   0  0  0  0  0  0  0  0  0  0  0  0
   -0.1309   -0.9912    1.6030 H   0  0  0  0  0  0  0  0  0  0  0  0
   -1.5005    0.0716   -0.6471 H   0  0  0  0  0  0  0  0  0  0  0  0
   -2.1382    0.2713    0.9849 H   0  0  0  0  0  0  0  0  0  0  0  0
   -1.1497    1.5406    0.2456 H   0  0  0  0  0  0  0  0  0  0  0  0
  1  2  1  0
  1  4  1  0
  1  5  1  0
  1  6  1  0
  2  3  1  0
  2  7  1  0
  3  8  1  0
  3  9  1  0
  3 10  1  0
M  RAD  1   2   2
M  END
>  <reaction>  (2) 
rxn_1172

>  <mol_properties>  (2) 
{"1": {"label": "acceptor", "atom_type": "Cs"}}

>  <type>  (2) 
r2

$$$$

     RDKit          3D

 11 10  0  0  0  0  0  0  0  0999 V2000
   -1.2710    0.1907   -0.2084 C   0  0  0  0  0  0  0  0  0  0  0  0
    0.0202   -0.6130   -0.2928 C   0  0  0  0  0  0  0  0  0  0  0  0
    0.1086   -1.6953    0.7756 C   0  0  0  0  0  0  0  0  0  0  0  0
   -1.3607    0.6851    0.7620 H   0  0  0  0  0  0  0  0  0  0  0  0
   -2.1429   -0.4567   -0.3299 H   0  0  0  0  0  0  0  0  0  0  0  0
   -1.3158    0.9602   -0.9809 H   0  0  0  0  0  0  0  0  0  0  0  0
    0.8757    0.0616   -0.1992 H   0  0  0  0  0  0  0  0  0  0  0  0
    0.0997   -1.0712   -1.2825 H   0  0  0  0  0  0  0  0  0  0  0  0
   -0.7198   -2.4022    0.6850 H   0  0  0  0  0  0  0  0  0  0  0  0
    1.0395   -2.2596    0.6989 H   0  0  0  0  0  0  0  0  0  0  0  0
    0.0624   -1.2603    1.7770 H   0  0  0  0  0  0  0  0  0  0  0  0
  1  2  1  0
  1  4  1  0
  1  5  1  0
  1  6  1  0
  2  3  1  0
  2  7  1  0
  2  8  1  0
  3  9  1  0
  3 10  1  0
  3 11  1  0
M  END
>  <reaction>  (3) 
rxn_1172

>  <mol_properties>  (3) 
{"0": {"label": "a_hydrogen", "atom_type": "H0"}, "2": {"label": "acceptor", "atom_type": "Cs"}}

>  <type>  (3) 
r2h

$$$$

     RDKit          3D

 26 24  0  0  0  0  0  0  0  0999 V2000
    1.9809   -1.9662   -0.6981 C   0  0  0  0  0  0  0  0  0  0  0  0
    0.6886   -1.6547   -0.7023 C   0  0  0  0  0  0  0  0  0  0  0  0
   -0.0112   -0.7347    0.2253 C   0  0  0  0  0  0  0  0  0  0  0  0
    0.7979   -0.2215    1.3950 C   0  0  0  0  0  0  0  0  0  0  0  0
   -1.3965   -1.1670    0.5260 C   0  0  0  0  0  0  0  0  0  0  0  0
   -2.0486   -1.0238    1.6755 C   0  0  0  0  0  0  0  0  0  0  0  0
    2.3926   -2.6335   -1.4441 H   0  0  0  0  0  0  0  0  0  0  0  0
    2.6680   -1.5830    0.0461 H   0  0  0  0  0  0  0  0  0  0  0  0
    0.0589   -2.0887   -1.4758 H   0  0  0  0  0  0  0  0  0  0  0  0
   -0.1863    0.2897   -0.4788 H   0  0  0  0  0  0  0  0  0  0  0  0
    1.7397    0.2107    1.0550 H   0  0  0  0  0  0  0  0  0  0  0  0
    0.2540    0.5573    1.9306 H   0  0  0  0  0  0  0  0  0  0  0  0
    1.0276   -1.0234    2.1019 H   0  0  0  0  0  0  0  0  0  0  0  0
   -1.9227   -1.6253   -0.3085 H   0  0  0  0  0  0  0  0  0  0  0  0
   -1.5885   -0.5876    2.5535 H   0  0  0  0  0  0  0  0  0  0  0  0
   -3.0741   -1.3550    1.7760 H   0  0  0  0  0  0  0  0  0  0  0  0
    1.1065    1.9447   -1.5290 C   0  0  0  0  0  0  0  0  0  0  0  0
   -0.3091    1.5809   -1.1998 C   0  0  0  0  0  3  0  0  0  0  0  0
   -1.0588    2.4571   -0.2432 C   0  0  0  0  0  0  0  0  0  0  0  0
    1.6802    2.1467   -0.6210 H   0  0  0  0  0  0  0  0  0  0  0  0
    1.6079    1.1445   -2.0760 H   0  0  0  0  0  0  0  0  0  0  0  0
    1.1526    2.8497   -2.1480 H   0  0  0  0  0  0  0  0  0  0  0  0
   -0.8959    1.2278   -2.0471 H   0  0  0  0  0  0  0  0  0  0  0  0
   -1.2972    3.4285   -0.6944 H   0  0  0  0  0  0  0  0  0  0  0  0
   -1.9987    1.9973    0.0670 H   0  0  0  0  0  0  0  0  0  0  0  0
   -0.4657    2.6557    0.6530 H   0  0  0  0  0  0  0  0  0  0  0  0
  1  2  2  3
  1  7  1  0
  1  8  1  0
  2  3  1  0
  2  9  1  0
  3  4  1  0
  3  5  1  0
  3 10  1  0
  4 11  1  0
  4 12  1  0
  4 13  1  0
  5  6  2  3
  5 14  1  0
  6 15  1  0
  6 16  1  0
 17 18  1  0
 17 20  1  0
 17 21  1  0
 17 22  1  0
 18 19  1  0
 18 23  1  0
 19 24  1  0
 19 25  1  0
 19 26  1  0
M  RAD  1  18   2
M  END
>  <reaction>  (4) 
rxn_1172

>  <mol_properties>  (4) 
{"1": {"label": "*0", "atom_type": "Cd"}, "2": {"label": "*1", "atom_type": "Cs"}, "9": {"label": "*2", "atom_type": "H0"}, "16": {"label": "*4", "atom_type": "Cs"}, "17": {"label": "*3", "atom_type": "Cs"}}

>  <type>  (4) 
ts

$$$$
