
     RDKit          3D

 22 23  0  0  0  0  0  0  0  0999 V2000
   -2.1093   -0.3263    0.3079 C   0  0  0  0  0  0  0  0  0  0  0  0
   -1.3270    0.9803    0.4115 C   0  0  0  0  0  0  0  0  0  0  0  0
   -0.1818    0.8289   -0.6044 C   0  0  0  0  0  0  0  0  0  0  0  0
    1.1682    1.3904   -0.1341 C   0  0  0  0  0  0  0  0  0  0  0  0
    1.8508    0.2041    0.5479 C   0  0  0  0  0  0  0  0  0  0  0  0
    1.4982   -0.9663   -0.3710 C   0  0  0  0  0  0  0  0  0  0  0  0
    0.0340   -0.7124   -0.7594 C   0  0  0  0  0  0  0  0  0  0  0  0
   -0.9986   -1.3650    0.1756 C   0  0  0  0  0  0  0  0  0  0  0  0
   -2.7686   -0.5042    1.1589 H   0  0  0  0  0  0  0  0  0  0  0  0
   -2.7285   -0.3223   -0.5943 H   0  0  0  0  0  0  0  0  0  0  0  0
   -1.9339    1.8682    0.2289 H   0  0  0  0  0  0  0  0  0  0  0  0
   -0.9144    1.0729    1.4218 H   0  0  0  0  0  0  0  0  0  0  0  0
   -0.4804    1.2763   -1.5535 H   0  0  0  0  0  0  0  0  0  0  0  0
    1.7667    1.7058   -0.9931 H   0  0  0  0  0  0  0  0  0  0  0  0
    1.0540    2.2578    0.5189 H   0  0  0  0  0  0  0  0  0  0  0  0
    1.4197    0.0438    1.5410 H   0  0  0  0  0  0  0  0  0  0  0  0
    2.9248    0.3413    0.6788 H   0  0  0  0  0  0  0  0  0  0  0  0
    2.1362   -0.9329   -1.2584 H   0  0  0  0  0  0  0  0  0  0  0  0
    1.6421   -1.9421    0.0966 H   0  0  0  0  0  0  0  0  0  0  0  0
   -0.1575   -1.0299   -1.7854 H   0  0  0  0  0  0  0  0  0  0  0  0
   -1.3459   -2.3310   -0.1933 H   0  0  0  0  0  0  0  0  0  0  0  0
   -0.5489   -1.5373    1.1593 H   0  0  0  0  0  0  0  0  0  0  0  0
  1  2  1  0
  1  8  1  0
  1  9  1  0
  1 10  1  0
  2  3  1  0
  2 11  1  0
  2 12  1  0
  3  4  1  0
  3  7  1  0
  3 13  1  0
  4  5  1  0
  4 14  1  0
  4 15  1  0
  5  6  1  0
  5 16  1  0
  5 17  1  0
  6  7  1  0
  6 18  1  0
  6 19  1  0
  7  8  1  0
  7 20  1  0
  8 21  1  0
  8 22  1  0
M  END
>  <reaction>  (1) 
rxn_571

>  <mol_properties>  (1) 
{"2": {"label": "donator", "atom_type": "Cs"}, "12": {"label": "d_hydrogen", "atom_type": "H0"}}

>  <type>  (1) 
r1h

$$$$

     RDKit          3D

 20 20  0  0  0  0  0  0  0  0999 V2000
   -2.4774    0.8083    0.1488 C   0  0  0  0  0  0  0  0  0  0  0  0
   -1.4172   -0.1696   -0.2476 C   0  0  0  0  0  3  0  0  0  0  0  0
   -0.2904    0.2932   -1.1156 C   0  0  0  0  0  0  0  0  0  0  0  0
   -1.4797   -1.5204    0.1947 C   0  0  0  0  0  0  0  0  0  0  0  0
   -0.4907   -2.4664   -0.1650 C   0  0  0  0  0  0  0  0  0  0  0  0
   -0.5559   -3.7750    0.2665 C   0  0  0  0  0  0  0  0  0  0  0  0
   -1.6038   -4.2041    1.0733 C   0  0  0  0  0  0  0  0  0  0  0  0
   -2.5899   -3.2959    1.4424 C   0  0  0  0  0  0  0  0  0  0  0  0
   -2.5339   -1.9852    1.0162 C   0  0  0  0  0  0  0  0  0  0  0  0
   -3.4697    0.4933   -0.1924 H   0  0  0  0  0  0  0  0  0  0  0  0
   -2.5434    0.9184    1.2368 H   0  0  0  0  0  0  0  0  0  0  0  0
   -2.2829    1.7944   -0.2706 H   0  0  0  0  0  0  0  0  0  0  0  0
   -0.2452   -0.2661   -2.0565 H   0  0  0  0  0  0  0  0  0  0  0  0
   -0.3905    1.3487   -1.3647 H   0  0  0  0  0  0  0  0  0  0  0  0
    0.6811    0.1589   -0.6274 H   0  0  0  0  0  0  0  0  0  0  0  0
    0.3373   -2.1635   -0.7918 H   0  0  0  0  0  0  0  0  0  0  0  0
    0.2187   -4.4725   -0.0281 H   0  0  0  0  0  0  0  0  0  0  0  0
   -1.6513   -5.2316    1.4097 H   0  0  0  0  0  0  0  0  0  0  0  0
   -3.4116   -3.6175    2.0706 H   0  0  0  0  0  0  0  0  0  0  0  0
   -3.3164   -1.3029    1.3205 H   0  0  0  0  0  0  0  0  0  0  0  0
  1  2  1  0
  1 10  1  0
  1 11  1  0
  1 12  1  0
  2  3  1  0
  2  4  1  0
  3 13  1  0
  3 14  1  0
  3 15  1  0
  4  5  2  0
  4  9  1  0
  5  6  1  0
  5 16  1  0
  6  7  2  0
  6 17  1  0
  7  8  1  0
  7 18  1  0
  8  9  2  0
  8 19  1  0
  9 20  1  0
M  RAD  1   2   2
M  END
>  <reaction>  (2) 
rxn_571

>  <mol_properties>  (2) 
{"1": {"label": "acceptor", "atom_type": "Cs"}}

>  <type>  (2) 
r2

$$$$

     RDKit          3D

 21 21  0  0  0  0  0  0  0  0999 V2000
   -1.3695    1.3367   -1.0719 C   0  0  0  0  0  0  0  0  0  0  0  0
   -1.4091   -0.0981   -0.5428 C   0  0  0  0  0  0  0  0  0  0  0  0
   -0.1819   -0.3999    0.3191 C   0  0  0  0  0  0  0  0  0  0  0  0
   -1.5636   -1.1028   -1.6652 C   0  0  0  0  0  0  0  0  0  0  0  0
   -0.5920   -1.2314   -2.6553 C   0  0  0  0  0  0  0  0  0  0  0  0
   -0.7353   -2.1509   -3.6809 C   0  0  0  0  0  0  0  0  0  0  0  0
   -1.8582   -2.9642   -3.7377 C   0  0  0  0  0  0  0  0  0  0  0  0
   -2.8325   -2.8475   -2.7602 C   0  0  0  0  0  0  0  0  0  0  0  0
   -2.6828   -1.9241   -1.7351 C   0  0  0  0  0  0  0  0  0  0  0  0
   -0.4920    1.4974   -1.7025 H   0  0  0  0  0  0  0  0  0  0  0  0
   -2.2553    1.5607   -1.6679 H   0  0  0  0  0  0  0  0  0  0  0  0
   -1.3211    2.0496   -0.2461 H   0  0  0  0  0  0  0  0  0  0  0  0
   -2.2930   -0.1918    0.0948 H   0  0  0  0  0  0  0  0  0  0  0  0
   -0.1215    0.2955    1.1588 H   0  0  0  0  0  0  0  0  0  0  0  0
   -0.2200   -1.4155    0.7159 H   0  0  0  0  0  0  0  0  0  0  0  0
    0.7383   -0.3016   -0.2615 H   0  0  0  0  0  0  0  0  0  0  0  0
    0.2915   -0.6040   -2.6263 H   0  0  0  0  0  0  0  0  0  0  0  0
    0.0326   -2.2338   -4.4401 H   0  0  0  0  0  0  0  0  0  0  0  0
   -1.9712   -3.6833   -4.5391 H   0  0  0  0  0  0  0  0  0  0  0  0
   -3.7135   -3.4765   -2.7932 H   0  0  0  0  0  0  0  0  0  0  0  0
   -3.4509   -1.8400   -0.9743 H   0  0  0  0  0  0  0  0  0  0  0  0
  1  2  1  0
  1 10  1  0
  1 11  1  0
  1 12  1  0
  2  3  1  0
  2  4  1  0
  2 13  1  0
  3 14  1  0
  3 15  1  0
  3 16  1  0
  4  5  2  0
  4  9  1  0
  5  6  1  0
  5 17  1  0
  6  7  2  0
  6 18  1  0
  7  8  1  0
  7 19  1  0
  8  9  2  0
  8 20  1  0
  9 21  1  0
M  END
>  <reaction>  (3) 
rxn_571

>  <mol_properties>  (3) 
{"1": {"label": "acceptor", "atom_type": "Cs"}, "20": {"label": "a_hydrogen", "atom_type": "H0"}}

>  <type>  (3) 
r2h

$$$$

     RDKit          3D

 42 43  0  0  0  0  0  0  0  0999 V2000
   -0.5340   -0.8392    2.7249 C   0  0  0  0  0  0  0  0  0  0  0  0
   -0.8958   -0.0512    1.4815 C   0  0  0  0  0  0  0  0  0  0  0  0
   -1.5755    1.2667    1.8002 C   0  0  0  0  0  0  0  0  0  0  0  0
   -1.4681   -0.8302    0.3501 C   0  0  0  0  0  0  0  0  0  0  0  0
   -2.1479   -0.1988   -0.6979 C   0  0  0  0  0  0  0  0  0  0  0  0
   -2.5801   -0.9021   -1.8093 C   0  0  0  0  0  0  0  0  0  0  0  0
   -2.3514   -2.2657   -1.9113 C   0  0  0  0  0  0  0  0  0  0  0  0
   -1.6958   -2.9148   -0.8768 C   0  0  0  0  0  0  0  0  0  0  0  0
   -1.2647   -2.2096    0.2344 C   0  0  0  0  0  0  0  0  0  0  0  0
    0.2010   -1.6189    2.5203 H   0  0  0  0  0  0  0  0  0  0  0  0
   -0.0963   -0.1764    3.4728 H   0  0  0  0  0  0  0  0  0  0  0  0
   -1.4126   -1.3163    3.1715 H   0  0  0  0  0  0  0  0  0  0  0  0
   -2.6203    1.1197    2.0929 H   0  0  0  0  0  0  0  0  0  0  0  0
   -1.0636    1.7621    2.6266 H   0  0  0  0  0  0  0  0  0  0  0  0
   -1.5613    1.9576    0.9564 H   0  0  0  0  0  0  0  0  0  0  0  0
   -2.3418    0.8642   -0.6528 H   0  0  0  0  0  0  0  0  0  0  0  0
   -3.0994   -0.3785   -2.6026 H   0  0  0  0  0  0  0  0  0  0  0  0
   -2.6857   -2.8158   -2.7814 H   0  0  0  0  0  0  0  0  0  0  0  0
   -1.5166   -3.9815   -0.9332 H   0  0  0  0  0  0  0  0  0  0  0  0
   -0.7559   -2.7483    1.0219 H   0  0  0  0  0  0  0  0  0  0  0  0
    1.6586   -0.5484   -1.6079 C   0  0  0  0  0  0  0  0  0  0  0  0
    2.0373   -0.6089   -0.1249 C   0  0  0  0  0  0  0  0  0  0  0  0
    1.4771    0.6741    0.4590 C   0  0  0  0  0  3  0  0  0  0  0  0
    2.2565    1.4454    1.5032 C   0  0  0  0  0  0  0  0  0  0  0  0
    2.8707    2.6037    0.7040 C   0  0  0  0  0  0  0  0  0  0  0  0
    1.7647    2.9755   -0.2884 C   0  0  0  0  0  0  0  0  0  0  0  0
    1.1497    1.6281   -0.6964 C   0  0  0  0  0  0  0  0  0  0  0  0
    1.7580    0.9426   -1.9298 C   0  0  0  0  0  0  0  0  0  0  0  0
    2.2979   -1.1688   -2.2372 H   0  0  0  0  0  0  0  0  0  0  0  0
    0.6283   -0.8900   -1.7402 H   0  0  0  0  0  0  0  0  0  0  0  0
    1.6584   -1.5058    0.3718 H   0  0  0  0  0  0  0  0  0  0  0  0
    3.1290   -0.6214   -0.0119 H   0  0  0  0  0  0  0  0  0  0  0  0
    0.2463    0.3048    1.0159 H   0  0  0  0  0  0  0  0  0  0  0  0
    1.5849    1.8486    2.2699 H   0  0  0  0  0  0  0  0  0  0  0  0
    2.9989    0.8305    2.0150 H   0  0  0  0  0  0  0  0  0  0  0  0
    3.7518    2.2462    0.1631 H   0  0  0  0  0  0  0  0  0  0  0  0
    3.1875    3.4404    1.3283 H   0  0  0  0  0  0  0  0  0  0  0  0
    1.0150    3.5906    0.2168 H   0  0  0  0  0  0  0  0  0  0  0  0
    2.1307    3.5453   -1.1442 H   0  0  0  0  0  0  0  0  0  0  0  0
    0.0700    1.7187   -0.8466 H   0  0  0  0  0  0  0  0  0  0  0  0
    1.2552    1.2199   -2.8573 H   0  0  0  0  0  0  0  0  0  0  0  0
    2.8109    1.2292   -2.0267 H   0  0  0  0  0  0  0  0  0  0  0  0
  1  2  1  0
  1 10  1  0
  1 11  1  0
  1 12  1  0
  2  3  1  0
  2  4  1  0
  2 33  1  0
  3 13  1  0
  3 14  1  0
  3 15  1  0
  4  5  2  0
  4  9  1  0
  5  6  1  0
  5 16  1  0
  6  7  2  0
  6 17  1  0
  7  8  1  0
  7 18  1  0
  8  9  2  0
  8 19  1  0
  9 20  1  0
 21 28  1  0
 21 22  1  0
 21 29  1  0
 21 30  1  0
 22 23  1  0
 22 31  1  0
 22 32  1  0
 23 24  1  0
 23 27  1  0
 24 25  1  0
 24 34  1  0
 24 35  1  0
 25 26  1  0
 25 36  1  0
 25 37  1  0
 26 27  1  0
 26 38  1  0
 26 39  1  0
 27 28  1  0
 27 40  1  0
 28 41  1  0
 28 42  1  0
M  RAD  1  23   2
M  END
>  <reaction>  (4) 
rxn_571

>  <mol_properties>  (4) 
{"1": {"label": "*1", "atom_type": "Cs"}, "3": {"label": "*0", "atom_type": "Cd"}, "22": {"label": "*3", "atom_type": "Cs"}, "26": {"label": "*4", "atom_type": "Cs"}, "32": {"label": "*2", "atom_type": "H0"}}

>  <type>  (4) 
ts

$$$$
