
     RDKit          3D

 13 12  0  0  0  0  0  0  0  0999 V2000
    3.0977   -0.3549   -0.5105 C   0  0  0  0  0  0  0  0  0  0  0  0
    2.0556    0.4221   -0.2627 C   0  0  0  0  0  0  0  0  0  0  0  0
    0.6313   -0.0354   -0.2366 C   0  0  0  0  0  0  0  0  0  0  0  0
   -0.2567    0.6038   -1.2694 C   0  0  0  0  0  0  0  0  0  0  0  0
    0.1459    1.3456   -2.2891 C   0  0  0  0  0  0  0  0  0  0  0  0
    4.1081    0.0344   -0.5074 H   0  0  0  0  0  0  0  0  0  0  0  0
    2.9777   -1.4116   -0.7243 H   0  0  0  0  0  0  0  0  0  0  0  0
    2.2171    1.4781   -0.0618 H   0  0  0  0  0  0  0  0  0  0  0  0
    0.5865   -1.1233   -0.3540 H   0  0  0  0  0  0  0  0  0  0  0  0
    0.2065    0.1743    0.7521 H   0  0  0  0  0  0  0  0  0  0  0  0
   -1.3190    0.4126   -1.1445 H   0  0  0  0  0  0  0  0  0  0  0  0
    1.1948    1.5564   -2.4628 H   0  0  0  0  0  0  0  0  0  0  0  0
   -0.5644    1.7621   -2.9918 H   0  0  0  0  0  0  0  0  0  0  0  0
  1  2  2  3
  1  6  1  0
  1  7  1  0
  2  3  1  0
  2  8  1  0
  3  4  1  0
  3  9  1  0
  3 10  1  0
  4  5  2  3
  4 11  1  0
  5 12  1  0
  5 13  1  0
M  END
>  <reaction>  (1) 
rxn_743

>  <mol_properties>  (1) 
{"2": {"label": "donator", "atom_type": "Cs"}, "8": {"label": "d_hydrogen", "atom_type": "H0"}}

>  <type>  (1) 
r1h

$$$$

     RDKit          3D

 18 19  0  0  0  0  0  0  0  0999 V2000
    1.0085    0.0884    1.2095 C   0  0  0  0  0  3  0  0  0  0  0  0
    1.2139    1.0410    0.0690 C   0  0  0  0  0  0  0  0  0  0  0  0
    0.2881    0.4324   -1.0019 C   0  0  0  0  0  0  0  0  0  0  0  0
   -1.1714    0.6323   -0.5516 C   0  0  0  0  0  0  0  0  0  0  0  0
   -1.3278   -0.3670    0.6275 C   0  0  0  0  0  0  0  0  0  0  0  0
    0.0899   -0.9908    0.7354 C   0  0  0  0  0  0  0  0  0  0  0  0
    0.4790   -1.0703   -0.7525 C   0  0  0  0  0  0  0  0  0  0  0  0
    1.2161    0.3102    2.2471 H   0  0  0  0  0  0  0  0  0  0  0  0
    2.2567    1.0516   -0.2755 H   0  0  0  0  0  0  0  0  0  0  0  0
    0.9543    2.0764    0.3130 H   0  0  0  0  0  0  0  0  0  0  0  0
    0.4908    0.7813   -2.0131 H   0  0  0  0  0  0  0  0  0  0  0  0
   -1.8596    0.3913   -1.3630 H   0  0  0  0  0  0  0  0  0  0  0  0
   -1.3656    1.6639   -0.2546 H   0  0  0  0  0  0  0  0  0  0  0  0
   -1.6314    0.1167    1.5558 H   0  0  0  0  0  0  0  0  0  0  0  0
   -2.0651   -1.1401    0.3991 H   0  0  0  0  0  0  0  0  0  0  0  0
    0.1199   -1.9185    1.3041 H   0  0  0  0  0  0  0  0  0  0  0  0
   -0.2009   -1.6913   -1.3392 H   0  0  0  0  0  0  0  0  0  0  0  0
    1.5046   -1.4076   -0.9091 H   0  0  0  0  0  0  0  0  0  0  0  0
  1  2  1  0
  1  6  1  0
  1  8  1  0
  2  3  1  0
  2  9  1  0
  2 10  1  0
  3  4  1  0
  3  7  1  0
  3 11  1  0
  4  5  1  0
  4 12  1  0
  4 13  1  0
  5  6  1  0
  5 14  1  0
  5 15  1  0
  6  7  1  0
  6 16  1  0
  7 17  1  0
  7 18  1  0
M  RAD  1   1   2
M  END
>  <reaction>  (2) 
rxn_743

>  <mol_properties>  (2) 
{"0": {"label": "acceptor", "atom_type": "Cs"}}

>  <type>  (2) 
r2

$$$$

     RDKit          3D

 19 20  0  0  0  0  0  0  0  0999 V2000
    1.1087   -0.4716   -0.9619 C   0  0  0  0  0  0  0  0  0  0  0  0
    0.9355    1.0407   -0.6470 C   0  0  0  0  0  0  0  0  0  0  0  0
   -0.0085    1.0377    0.5657 C   0  0  0  0  0  0  0  0  0  0  0  0
   -1.4093    0.6181    0.0927 C   0  0  0  0  0  0  0  0  0  0  0  0
   -1.2361   -0.8942   -0.2222 C   0  0  0  0  0  0  0  0  0  0  0  0
    0.2422   -1.1516    0.1099 C   0  0  0  0  0  0  0  0  0  0  0  0
    0.4537   -0.2211    1.3118 C   0  0  0  0  0  0  0  0  0  0  0  0
    2.1524   -0.7752   -0.8653 H   0  0  0  0  0  0  0  0  0  0  0  0
    0.7855   -0.7316   -1.9710 H   0  0  0  0  0  0  0  0  0  0  0  0
    1.8918    1.5001   -0.3916 H   0  0  0  0  0  0  0  0  0  0  0  0
    0.5184    1.6005   -1.4855 H   0  0  0  0  0  0  0  0  0  0  0  0
    0.0038    1.9661    1.1351 H   0  0  0  0  0  0  0  0  0  0  0  0
   -1.7351    1.1944   -0.7746 H   0  0  0  0  0  0  0  0  0  0  0  0
   -2.1465    0.7723    0.8824 H   0  0  0  0  0  0  0  0  0  0  0  0
   -1.4680   -1.1377   -1.2601 H   0  0  0  0  0  0  0  0  0  0  0  0
   -1.8859   -1.5030    0.4087 H   0  0  0  0  0  0  0  0  0  0  0  0
    0.4812   -2.2025    0.2673 H   0  0  0  0  0  0  0  0  0  0  0  0
    1.4942   -0.1701    1.6391 H   0  0  0  0  0  0  0  0  0  0  0  0
   -0.1779   -0.4714    2.1666 H   0  0  0  0  0  0  0  0  0  0  0  0
  1  2  1  0
  1  6  1  0
  1  8  1  0
  1  9  1  0
  2  3  1  0
  2 10  1  0
  2 11  1  0
  3  4  1  0
  3  7  1  0
  3 12  1  0
  4  5  1  0
  4 13  1  0
  4 14  1  0
  5  6  1  0
  5 15  1  0
  5 16  1  0
  6  7  1  0
  6 17  1  0
  7 18  1  0
  7 19  1  0
M  END
>  <reaction>  (3) 
rxn_743

>  <mol_properties>  (3) 
{"0": {"label": "a_hydrogen", "atom_type": "H0"}, "1": {"label": "acceptor", "atom_type": "Cs"}}

>  <type>  (3) 
r2h

$$$$

     RDKit          3D

 31 31  0  0  0  0  0  0  0  0999 V2000
   -1.2457   -3.4314   -0.8760 C   0  0  0  0  0  0  0  0  0  0  0  0
   -0.4282   -2.6256   -0.2070 C   0  0  0  0  0  0  0  0  0  0  0  0
   -0.8640   -1.6160    0.7735 C   0  0  0  0  0  0  0  0  0  0  0  0
   -0.0256   -1.3458    1.9577 C   0  0  0  0  0  0  0  0  0  0  0  0
    1.2042   -1.7932    2.1971 C   0  0  0  0  0  0  0  0  0  0  0  0
   -0.8730   -4.1244   -1.6192 H   0  0  0  0  0  0  0  0  0  0  0  0
   -2.3156   -3.4281   -0.6971 H   0  0  0  0  0  0  0  0  0  0  0  0
    0.6346   -2.6682   -0.4275 H   0  0  0  0  0  0  0  0  0  0  0  0
   -0.9101   -0.5259    0.1358 H   0  0  0  0  0  0  0  0  0  0  0  0
   -1.9177   -1.7247    1.0366 H   0  0  0  0  0  0  0  0  0  0  0  0
   -0.4757   -0.6780    2.6875 H   0  0  0  0  0  0  0  0  0  0  0  0
    1.7159   -2.4745    1.5284 H   0  0  0  0  0  0  0  0  0  0  0  0
    1.7378   -1.4967    3.0907 H   0  0  0  0  0  0  0  0  0  0  0  0
   -1.0871    0.7350   -0.5932 C   0  0  0  0  0  3  0  0  0  0  0  0
   -0.9704    1.8648    0.4236 C   0  0  0  0  0  0  0  0  0  0  0  0
    0.2978    2.5958   -0.0496 C   0  0  0  0  0  0  0  0  0  0  0  0
    1.5150    1.6958    0.2276 C   0  0  0  0  0  0  0  0  0  0  0  0
    1.3882    0.5829   -0.8462 C   0  0  0  0  0  0  0  0  0  0  0  0
    0.0659    0.9330   -1.5566 C   0  0  0  0  0  0  0  0  0  0  0  0
    0.1586    2.4740   -1.5741 C   0  0  0  0  0  0  0  0  0  0  0  0
   -2.0673    0.5411   -1.0212 H   0  0  0  0  0  0  0  0  0  0  0  0
   -0.8804    1.5085    1.4541 H   0  0  0  0  0  0  0  0  0  0  0  0
   -1.8436    2.5217    0.3841 H   0  0  0  0  0  0  0  0  0  0  0  0
    0.3956    3.6056    0.3459 H   0  0  0  0  0  0  0  0  0  0  0  0
    2.4453    2.2538    0.1117 H   0  0  0  0  0  0  0  0  0  0  0  0
    1.4974    1.2899    1.2401 H   0  0  0  0  0  0  0  0  0  0  0  0
    2.2141    0.6259   -1.5583 H   0  0  0  0  0  0  0  0  0  0  0  0
    1.3805   -0.4140   -0.4100 H   0  0  0  0  0  0  0  0  0  0  0  0
   -0.0642    0.4418   -2.5186 H   0  0  0  0  0  0  0  0  0  0  0  0
   -0.7382    2.9577   -1.9655 H   0  0  0  0  0  0  0  0  0  0  0  0
    1.0317    2.8385   -2.1201 H   0  0  0  0  0  0  0  0  0  0  0  0
  1  2  2  3
  1  6  1  0
  1  7  1  0
  2  3  1  0
  2  8  1  0
  3  4  1  0
  3  9  1  0
  3 10  1  0
  4  5  2  3
  4 11  1  0
  5 12  1  0
  5 13  1  0
 14 15  1  0
 14 19  1  0
 14 21  1  0
 15 16  1  0
 15 22  1  0
 15 23  1  0
 16 17  1  0
 16 20  1  0
 16 24  1  0
 17 18  1  0
 17 25  1  0
 17 26  1  0
 18 19  1  0
 18 27  1  0
 18 28  1  0
 19 20  1  0
 19 29  1  0
 20 30  1  0
 20 31  1  0
M  RAD  1  14   2
M  END
>  <reaction>  (4) 
rxn_743

>  <mol_properties>  (4) 
{"1": {"label": "*0", "atom_type": "Cd"}, "2": {"label": "*1", "atom_type": "Cs"}, "8": {"label": "*2", "atom_type": "H0"}, "13": {"label": "*3", "atom_type": "Cs"}, "14": {"label": "*4", "atom_type": "Cs"}}

>  <type>  (4) 
ts

$$$$
