
     RDKit          3D

  4  3  0  0  0  0  0  0  0  0999 V2000
   -0.0057    0.0001   -0.0008 C   0  0  0  0  0  0  0  0  0  0  0  0
    1.1789   -0.0174    0.1563 O   0  0  0  0  0  0  0  0  0  0  0  0
   -0.5891    0.9399    0.0445 H   0  0  0  0  0  0  0  0  0  0  0  0
   -0.5841   -0.9226   -0.2001 H   0  0  0  0  0  0  0  0  0  0  0  0
  1  2  2  0
  1  3  1  0
  1  4  1  0
M  END
>  <reaction>  (1) 
rxn_369

>  <mol_properties>  (1) 
{"0": {"label": "donator", "atom_type": "CO"}, "2": {"label": "d_hydrogen", "atom_type": "H0"}}

>  <type>  (1) 
r1h

$$$$

     RDKit          3D

  3  2  0  0  0  0  0  0  0  0999 V2000
    0.9943   -0.1797    0.0000 O   0  0  0  0  0  1  0  0  0  0  0  0
   -0.1595    0.4394    0.0000 O   0  0  0  0  0  0  0  0  0  0  0  0
   -0.8348   -0.2597    0.0000 H   0  0  0  0  0  0  0  0  0  0  0  0
  1  2  1  0
  2  3  1  0
M  RAD  1   1   2
M  END
>  <reaction>  (2) 
rxn_369

>  <mol_properties>  (2) 
{"0": {"label": "acceptor", "atom_type": "O2s"}}

>  <type>  (2) 
r2

$$$$

     RDKit          3D

  4  3  0  0  0  0  0  0  0  0999 V2000
    0.5949   -0.3853    0.2659 O   0  0  0  0  0  0  0  0  0  0  0  0
   -0.5918    0.4028    0.2462 O   0  0  0  0  0  0  0  0  0  0  0  0
    1.1865    0.1539   -0.2689 H   0  0  0  0  0  0  0  0  0  0  0  0
   -1.1896   -0.1714   -0.2432 H   0  0  0  0  0  0  0  0  0  0  0  0
  1  2  1  0
  1  3  1  0
  2  4  1  0
M  END
>  <reaction>  (3) 
rxn_369

>  <mol_properties>  (3) 
{"0": {"label": "acceptor", "atom_type": "O2s"}, "3": {"label": "a_hydrogen", "atom_type": "H0"}}

>  <type>  (3) 
r2h

$$$$

     RDKit          3D

  7  5  0  0  0  0  0  0  0  0999 V2000
   -0.0345    0.7821    1.2591 O   0  0  0  0  0  0  0  0  0  0  0  0
    0.1510    1.6810    0.2330 O   0  0  0  0  0  0  0  0  0  0  0  0
   -0.7475    1.9221   -0.0243 H   0  0  0  0  0  0  0  0  0  0  0  0
   -0.0344   -1.3388   -0.0980 C   0  0  0  0  0  3  0  0  0  0  0  0
   -0.3075   -1.1858   -1.2332 O   0  0  0  0  0  0  0  0  0  0  0  0
   -0.0046   -0.2990    0.7052 H   0  0  0  0  0  0  0  0  0  0  0  0
    0.2131   -2.3245    0.3555 H   0  0  0  0  0  0  0  0  0  0  0  0
  1  2  1  0
  1  6  1  0
  2  3  1  0
  4  5  2  0
  4  7  1  0
M  RAD  1   4   2
M  END
>  <reaction>  (4) 
rxn_369

>  <mol_properties>  (4) 
{"0": {"label": "*1", "atom_type": "O2s"}, "1": {"label": "*0", "atom_type": "O2s"}, "3": {"label": "*3", "atom_type": "CO"}, "4": {"label": "*4", "atom_type": "O2d"}, "5": {"label": "*2", "atom_type": "H0"}}

>  <type>  (4) 
ts

$$$$
