
     RDKit          3D

 12 11  0  0  0  0  0  0  0  0999 V2000
    1.9877    0.1011    0.4814 C   0  0  0  0  0  0  0  0  0  0  0  0
    0.8179    0.5502    0.0525 C   0  0  0  0  0  0  0  0  0  0  0  0
   -0.2939   -0.2692   -0.5320 C   0  0  0  0  0  0  0  0  0  0  0  0
   -0.0292   -1.7631   -0.6328 C   0  0  0  0  0  0  0  0  0  0  0  0
    2.2522   -0.9490    0.4436 H   0  0  0  0  0  0  0  0  0  0  0  0
    2.7295    0.7757    0.8896 H   0  0  0  0  0  0  0  0  0  0  0  0
    0.6162    1.6164    0.1190 H   0  0  0  0  0  0  0  0  0  0  0  0
   -0.5268    0.1319   -1.5245 H   0  0  0  0  0  0  0  0  0  0  0  0
   -1.1959   -0.0938    0.0644 H   0  0  0  0  0  0  0  0  0  0  0  0
    0.1590   -2.1992    0.3502 H   0  0  0  0  0  0  0  0  0  0  0  0
    0.8382   -1.9701   -1.2626 H   0  0  0  0  0  0  0  0  0  0  0  0
   -0.8879   -2.2759   -1.0672 H   0  0  0  0  0  0  0  0  0  0  0  0
  1  2  2  3
  1  5  1  0
  1  6  1  0
  2  3  1  0
  2  7  1  0
  3  4  1  0
  3  8  1  0
  3  9  1  0
  4 10  1  0
  4 11  1  0
  4 12  1  0
M  END
>  <reaction>  (1) 
rxn_1072

>  <mol_properties>  (1) 
{"2": {"label": "donator", "atom_type": "Cs"}, "7": {"label": "d_hydrogen", "atom_type": "H0"}}

>  <type>  (1) 
r1h

$$$$

     RDKit          3D

  7  6  0  0  0  0  0  0  0  0999 V2000
   -2.0652    0.3855   -0.2963 S   0  0  0  0  0  0  0  0  0  0  0  0
   -0.7169   -0.5853    0.1792 C   0  0  0  0  0  3  0  0  0  0  0  0
    0.5987   -0.2168    0.0254 C   0  0  0  0  0  0  0  0  0  0  0  0
    1.7547    0.1211   -0.1163 C   0  0  0  0  0  0  0  0  0  0  0  0
   -1.3643    1.4227   -0.7731 H   0  0  0  0  0  0  0  0  0  0  0  0
   -0.9781   -1.5363    0.6220 H   0  0  0  0  0  0  0  0  0  0  0  0
    2.7711    0.4089   -0.2366 H   0  0  0  0  0  0  0  0  0  0  0  0
  1  2  1  0
  1  5  1  0
  2  3  1  0
  2  6  1  0
  3  4  3  0
  4  7  1  0
M  RAD  1   2   2
M  END
>  <reaction>  (2) 
rxn_1072

>  <mol_properties>  (2) 
{"1": {"label": "acceptor", "atom_type": "Cs"}}

>  <type>  (2) 
r2

$$$$

     RDKit          3D

  8  7  0  0  0  0  0  0  0  0999 V2000
   -0.7014    1.0753    1.5530 S   0  0  0  0  0  0  0  0  0  0  0  0
   -0.3105   -0.4583    0.6462 C   0  0  0  0  0  0  0  0  0  0  0  0
    0.0935   -0.2424   -0.7319 C   0  0  0  0  0  0  0  0  0  0  0  0
    0.4431   -0.0604   -1.8621 C   0  0  0  0  0  0  0  0  0  0  0  0
    0.4994    1.6466    1.3970 H   0  0  0  0  0  0  0  0  0  0  0  0
   -1.2277   -1.0477    0.6819 H   0  0  0  0  0  0  0  0  0  0  0  0
    0.4563   -1.0151    1.1841 H   0  0  0  0  0  0  0  0  0  0  0  0
    0.7474    0.1020   -2.8681 H   0  0  0  0  0  0  0  0  0  0  0  0
  1  2  1  0
  1  5  1  0
  2  3  1  0
  2  6  1  0
  2  7  1  0
  3  4  3  0
  4  8  1  0
M  END
>  <reaction>  (3) 
rxn_1072

>  <mol_properties>  (3) 
{"1": {"label": "acceptor", "atom_type": "Cs"}, "7": {"label": "a_hydrogen", "atom_type": "H0"}}

>  <type>  (3) 
r2h

$$$$

     RDKit          3D

 19 17  0  0  0  0  0  0  0  0999 V2000
    1.8219    0.8961   -0.1306 S   0  0  0  0  0  0  0  0  0  0  0  0
    0.5294    0.7957    1.0914 C   0  0  0  0  0  3  0  0  0  0  0  0
    0.5297   -0.3238    1.9685 C   0  0  0  0  0  0  0  0  0  0  0  0
    0.4614   -1.3087    2.6541 C   0  0  0  0  0  0  0  0  0  0  0  0
    1.6321   -0.3305   -0.6380 H   0  0  0  0  0  0  0  0  0  0  0  0
    0.4138    1.7601    1.5801 H   0  0  0  0  0  0  0  0  0  0  0  0
    0.4251   -2.1680    3.2794 H   0  0  0  0  0  0  0  0  0  0  0  0
   -0.9259   -1.0046   -2.2306 C   0  0  0  0  0  0  0  0  0  0  0  0
   -1.4461   -0.7928   -1.0165 C   0  0  0  0  0  0  0  0  0  0  0  0
   -1.6962    0.5066   -0.4094 C   0  0  0  0  0  0  0  0  0  0  0  0
   -1.6785    1.7443   -1.2672 C   0  0  0  0  0  0  0  0  0  0  0  0
   -0.6871   -0.1897   -2.9033 H   0  0  0  0  0  0  0  0  0  0  0  0
   -0.7411   -2.0083   -2.5906 H   0  0  0  0  0  0  0  0  0  0  0  0
   -1.6631   -1.6537   -0.3909 H   0  0  0  0  0  0  0  0  0  0  0  0
   -0.6366    0.6636    0.3872 H   0  0  0  0  0  0  0  0  0  0  0  0
   -2.4852    0.4876    0.3412 H   0  0  0  0  0  0  0  0  0  0  0  0
   -2.4499    1.6993   -2.0416 H   0  0  0  0  0  0  0  0  0  0  0  0
   -0.7137    1.8674   -1.7640 H   0  0  0  0  0  0  0  0  0  0  0  0
   -1.8579    2.6352   -0.6647 H   0  0  0  0  0  0  0  0  0  0  0  0
  1  2  1  0
  1  5  1  0
  2  3  1  0
  2  6  1  0
  3  4  3  0
  4  7  1  0
  8  9  2  3
  8 12  1  0
  8 13  1  0
  9 10  1  0
  9 14  1  0
 10 11  1  0
 10 15  1  0
 10 16  1  0
 11 17  1  0
 11 18  1  0
 11 19  1  0
M  RAD  1   2   2
M  END
>  <reaction>  (4) 
rxn_1072

>  <mol_properties>  (4) 
{"0": {"label": "*4", "atom_type": "S2s"}, "1": {"label": "*3", "atom_type": "Cs"}, "8": {"label": "*0", "atom_type": "Cd"}, "9": {"label": "*1", "atom_type": "Cs"}, "14": {"label": "*2", "atom_type": "H0"}}

>  <type>  (4) 
ts

$$$$
