
     RDKit          3D

  5  4  0  0  0  0  0  0  0  0999 V2000
    0.0000    0.0000    0.0000 C   0  0  0  0  0  0  0  0  0  0  0  0
   -0.6486   -0.7720   -0.4113 H   0  0  0  0  0  0  0  0  0  0  0  0
   -0.3482    0.9787   -0.3267 H   0  0  0  0  0  0  0  0  0  0  0  0
   -0.0223   -0.0487    1.0876 H   0  0  0  0  0  0  0  0  0  0  0  0
    1.0191   -0.1580   -0.3496 H   0  0  0  0  0  0  0  0  0  0  0  0
  1  2  1  0
  1  3  1  0
  1  4  1  0
  1  5  1  0
M  END
>  <reaction>  (1) 
rxn_322

>  <mol_properties>  (1) 
{"0": {"label": "donator", "atom_type": "Cs"}, "1": {"label": "d_hydrogen", "atom_type": "H0"}}

>  <type>  (1) 
r1h

$$$$

     RDKit          3D

  3  2  0  0  0  0  0  0  0  0999 V2000
    0.9943   -0.1797    0.0000 O   0  0  0  0  0  1  0  0  0  0  0  0
   -0.1595    0.4394    0.0000 O   0  0  0  0  0  0  0  0  0  0  0  0
   -0.8348   -0.2597    0.0000 H   0  0  0  0  0  0  0  0  0  0  0  0
  1  2  1  0
  2  3  1  0
M  RAD  1   1   2
M  END
>  <reaction>  (2) 
rxn_322

>  <mol_properties>  (2) 
{"0": {"label": "acceptor", "atom_type": "O2s"}}

>  <type>  (2) 
r2

$$$$

     RDKit          3D

  4  3  0  0  0  0  0  0  0  0999 V2000
    0.5949   -0.3853    0.2659 O   0  0  0  0  0  0  0  0  0  0  0  0
   -0.5918    0.4028    0.2462 O   0  0  0  0  0  0  0  0  0  0  0  0
    1.1865    0.1539   -0.2689 H   0  0  0  0  0  0  0  0  0  0  0  0
   -1.1896   -0.1714   -0.2432 H   0  0  0  0  0  0  0  0  0  0  0  0
  1  2  1  0
  1  3  1  0
  2  4  1  0
M  END
>  <reaction>  (3) 
rxn_322

>  <mol_properties>  (3) 
{"0": {"label": "acceptor", "atom_type": "O2s"}, "3": {"label": "a_hydrogen", "atom_type": "H0"}}

>  <type>  (3) 
r2h

$$$$

     RDKit          3D

  8  6  0  0  0  0  0  0  0  0999 V2000
   -0.3439    0.1355    0.9415 O   0  0  0  0  0  0  0  0  0  0  0  0
   -0.1267    1.2073    0.0833 O   0  0  0  0  0  0  0  0  0  0  0  0
   -0.9996    1.3588   -0.2972 H   0  0  0  0  0  0  0  0  0  0  0  0
    0.4088   -1.8587   -0.4095 C   0  0  0  0  0  3  0  0  0  0  0  0
   -0.0065   -0.7754    0.3592 H   0  0  0  0  0  0  0  0  0  0  0  0
   -0.5029   -2.2248   -0.8690 H   0  0  0  0  0  0  0  0  0  0  0  0
    1.1062   -1.3687   -1.0810 H   0  0  0  0  0  0  0  0  0  0  0  0
    0.8565   -2.5210    0.3237 H   0  0  0  0  0  0  0  0  0  0  0  0
  1  2  1  0
  1  5  1  0
  2  3  1  0
  4  6  1  0
  4  7  1  0
  4  8  1  0
M  RAD  1   4   2
M  END
>  <reaction>  (4) 
rxn_322

>  <mol_properties>  (4) 
{"0": {"label": "*1", "atom_type": "O2s"}, "1": {"label": "*0", "atom_type": "O2s"}, "3": {"label": "*3", "atom_type": "Cs"}, "4": {"label": "*2", "atom_type": "H0"}, "5": {"label": "*4", "atom_type": "H0"}}

>  <type>  (4) 
ts

$$$$
