
     RDKit          3D

 19 20  0  0  0  0  0  0  0  0999 V2000
    1.1087   -0.4716   -0.9619 C   0  0  0  0  0  0  0  0  0  0  0  0
    0.9355    1.0407   -0.6470 C   0  0  0  0  0  0  0  0  0  0  0  0
   -0.0085    1.0377    0.5657 C   0  0  0  0  0  0  0  0  0  0  0  0
   -1.4093    0.6181    0.0927 C   0  0  0  0  0  0  0  0  0  0  0  0
   -1.2361   -0.8942   -0.2222 C   0  0  0  0  0  0  0  0  0  0  0  0
    0.2422   -1.1516    0.1099 C   0  0  0  0  0  0  0  0  0  0  0  0
    0.4537   -0.2211    1.3118 C   0  0  0  0  0  0  0  0  0  0  0  0
    2.1524   -0.7752   -0.8653 H   0  0  0  0  0  0  0  0  0  0  0  0
    0.7855   -0.7316   -1.9710 H   0  0  0  0  0  0  0  0  0  0  0  0
    1.8918    1.5001   -0.3916 H   0  0  0  0  0  0  0  0  0  0  0  0
    0.5184    1.6005   -1.4855 H   0  0  0  0  0  0  0  0  0  0  0  0
    0.0038    1.9661    1.1351 H   0  0  0  0  0  0  0  0  0  0  0  0
   -1.7351    1.1944   -0.7746 H   0  0  0  0  0  0  0  0  0  0  0  0
   -2.1465    0.7723    0.8824 H   0  0  0  0  0  0  0  0  0  0  0  0
   -1.4680   -1.1377   -1.2601 H   0  0  0  0  0  0  0  0  0  0  0  0
   -1.8859   -1.5030    0.4087 H   0  0  0  0  0  0  0  0  0  0  0  0
    0.4812   -2.2025    0.2673 H   0  0  0  0  0  0  0  0  0  0  0  0
    1.4942   -0.1701    1.6391 H   0  0  0  0  0  0  0  0  0  0  0  0
   -0.1779   -0.4714    2.1666 H   0  0  0  0  0  0  0  0  0  0  0  0
  1  2  1  0
  1  6  1  0
  1  8  1  0
  1  9  1  0
  2  3  1  0
  2 10  1  0
  2 11  1  0
  3  4  1  0
  3  7  1  0
  3 12  1  0
  4  5  1  0
  4 13  1  0
  4 14  1  0
  5  6  1  0
  5 15  1  0
  5 16  1  0
  6  7  1  0
  6 17  1  0
  7 18  1  0
  7 19  1  0
M  END
>  <reaction>  (1) 
rxn_549

>  <mol_properties>  (1) 
{"6": {"label": "donator", "atom_type": "Cs"}, "17": {"label": "d_hydrogen", "atom_type": "H0"}}

>  <type>  (1) 
r1h

$$$$

     RDKit          3D

 20 20  0  0  0  0  0  0  0  0999 V2000
   -2.4774    0.8083    0.1488 C   0  0  0  0  0  0  0  0  0  0  0  0
   -1.4172   -0.1696   -0.2476 C   0  0  0  0  0  3  0  0  0  0  0  0
   -0.2904    0.2932   -1.1156 C   0  0  0  0  0  0  0  0  0  0  0  0
   -1.4797   -1.5204    0.1947 C   0  0  0  0  0  0  0  0  0  0  0  0
   -0.4907   -2.4664   -0.1650 C   0  0  0  0  0  0  0  0  0  0  0  0
   -0.5559   -3.7750    0.2665 C   0  0  0  0  0  0  0  0  0  0  0  0
   -1.6038   -4.2041    1.0733 C   0  0  0  0  0  0  0  0  0  0  0  0
   -2.5899   -3.2959    1.4424 C   0  0  0  0  0  0  0  0  0  0  0  0
   -2.5339   -1.9852    1.0162 C   0  0  0  0  0  0  0  0  0  0  0  0
   -3.4697    0.4933   -0.1924 H   0  0  0  0  0  0  0  0  0  0  0  0
   -2.5434    0.9184    1.2368 H   0  0  0  0  0  0  0  0  0  0  0  0
   -2.2829    1.7944   -0.2706 H   0  0  0  0  0  0  0  0  0  0  0  0
   -0.2452   -0.2661   -2.0565 H   0  0  0  0  0  0  0  0  0  0  0  0
   -0.3905    1.3487   -1.3647 H   0  0  0  0  0  0  0  0  0  0  0  0
    0.6811    0.1589   -0.6274 H   0  0  0  0  0  0  0  0  0  0  0  0
    0.3373   -2.1635   -0.7918 H   0  0  0  0  0  0  0  0  0  0  0  0
    0.2187   -4.4725   -0.0281 H   0  0  0  0  0  0  0  0  0  0  0  0
   -1.6513   -5.2316    1.4097 H   0  0  0  0  0  0  0  0  0  0  0  0
   -3.4116   -3.6175    2.0706 H   0  0  0  0  0  0  0  0  0  0  0  0
   -3.3164   -1.3029    1.3205 H   0  0  0  0  0  0  0  0  0  0  0  0
  1  2  1  0
  1 10  1  0
  1 11  1  0
  1 12  1  0
  2  3  1  0
  2  4  1  0
  3 13  1  0
  3 14  1  0
  3 15  1  0
  4  5  2  0
  4  9  1  0
  5  6  1  0
  5 16  1  0
  6  7  2  0
  6 17  1  0
  7  8  1  0
  7 18  1  0
  8  9  2  0
  8 19  1  0
  9 20  1  0
M  RAD  1   2   2
M  END
>  <reaction>  (2) 
rxn_549

>  <mol_properties>  (2) 
{"1": {"label": "acceptor", "atom_type": "Cs"}}

>  <type>  (2) 
r2

$$$$

     RDKit          3D

 21 21  0  0  0  0  0  0  0  0999 V2000
   -1.3695    1.3367   -1.0719 C   0  0  0  0  0  0  0  0  0  0  0  0
   -1.4091   -0.0981   -0.5428 C   0  0  0  0  0  0  0  0  0  0  0  0
   -0.1819   -0.3999    0.3191 C   0  0  0  0  0  0  0  0  0  0  0  0
   -1.5636   -1.1028   -1.6652 C   0  0  0  0  0  0  0  0  0  0  0  0
   -0.5920   -1.2314   -2.6553 C   0  0  0  0  0  0  0  0  0  0  0  0
   -0.7353   -2.1509   -3.6809 C   0  0  0  0  0  0  0  0  0  0  0  0
   -1.8582   -2.9642   -3.7377 C   0  0  0  0  0  0  0  0  0  0  0  0
   -2.8325   -2.8475   -2.7602 C   0  0  0  0  0  0  0  0  0  0  0  0
   -2.6828   -1.9241   -1.7351 C   0  0  0  0  0  0  0  0  0  0  0  0
   -0.4920    1.4974   -1.7025 H   0  0  0  0  0  0  0  0  0  0  0  0
   -2.2553    1.5607   -1.6679 H   0  0  0  0  0  0  0  0  0  0  0  0
   -1.3211    2.0496   -0.2461 H   0  0  0  0  0  0  0  0  0  0  0  0
   -2.2930   -0.1918    0.0948 H   0  0  0  0  0  0  0  0  0  0  0  0
   -0.1215    0.2955    1.1588 H   0  0  0  0  0  0  0  0  0  0  0  0
   -0.2200   -1.4155    0.7159 H   0  0  0  0  0  0  0  0  0  0  0  0
    0.7383   -0.3016   -0.2615 H   0  0  0  0  0  0  0  0  0  0  0  0
    0.2915   -0.6040   -2.6263 H   0  0  0  0  0  0  0  0  0  0  0  0
    0.0326   -2.2338   -4.4401 H   0  0  0  0  0  0  0  0  0  0  0  0
   -1.9712   -3.6833   -4.5391 H   0  0  0  0  0  0  0  0  0  0  0  0
   -3.7135   -3.4765   -2.7932 H   0  0  0  0  0  0  0  0  0  0  0  0
   -3.4509   -1.8400   -0.9743 H   0  0  0  0  0  0  0  0  0  0  0  0
  1  2  1  0
  1 10  1  0
  1 11  1  0
  1 12  1  0
  2  3  1  0
  2  4  1  0
  2 13  1  0
  3 14  1  0
  3 15  1  0
  3 16  1  0
  4  5  2  0
  4  9  1  0
  5  6  1  0
  5 17  1  0
  6  7  2  0
  6 18  1  0
  7  8  1  0
  7 19  1  0
  8  9  2  0
  8 20  1  0
  9 21  1  0
M  END
>  <reaction>  (3) 
rxn_549

>  <mol_properties>  (3) 
{"1": {"label": "acceptor", "atom_type": "Cs"}, "20": {"label": "a_hydrogen", "atom_type": "H0"}}

>  <type>  (3) 
r2h

$$$$

     RDKit          3D

 39 40  0  0  0  0  0  0  0  0999 V2000
   -1.9776    2.0457    0.9545 C   0  0  0  0  0  0  0  0  0  0  0  0
   -1.3517    1.1419   -0.0938 C   0  0  0  0  0  0  0  0  0  0  0  0
   -1.5180    1.7058   -1.4904 C   0  0  0  0  0  0  0  0  0  0  0  0
   -1.6377   -0.3143    0.0688 C   0  0  0  0  0  0  0  0  0  0  0  0
   -1.8866   -1.1488   -1.0218 C   0  0  0  0  0  0  0  0  0  0  0  0
   -2.0641   -2.5148   -0.8595 C   0  0  0  0  0  0  0  0  0  0  0  0
   -1.9984   -3.0866    0.3999 C   0  0  0  0  0  0  0  0  0  0  0  0
   -1.7565   -2.2729    1.4978 C   0  0  0  0  0  0  0  0  0  0  0  0
   -1.5800   -0.9111    1.3329 C   0  0  0  0  0  0  0  0  0  0  0  0
   -1.7293    1.7431    1.9713 H   0  0  0  0  0  0  0  0  0  0  0  0
   -1.6267    3.0714    0.8244 H   0  0  0  0  0  0  0  0  0  0  0  0
   -3.0682    2.0492    0.8646 H   0  0  0  0  0  0  0  0  0  0  0  0
   -2.5609    1.6607   -1.8209 H   0  0  0  0  0  0  0  0  0  0  0  0
   -1.2107    2.7528   -1.5054 H   0  0  0  0  0  0  0  0  0  0  0  0
   -0.9088    1.1777   -2.2250 H   0  0  0  0  0  0  0  0  0  0  0  0
   -1.9462   -0.7328   -2.0184 H   0  0  0  0  0  0  0  0  0  0  0  0
   -2.2559   -3.1342   -1.7270 H   0  0  0  0  0  0  0  0  0  0  0  0
   -2.1344   -4.1529    0.5267 H   0  0  0  0  0  0  0  0  0  0  0  0
   -1.6986   -2.7037    2.4898 H   0  0  0  0  0  0  0  0  0  0  0  0
   -1.3697   -0.3044    2.2041 H   0  0  0  0  0  0  0  0  0  0  0  0
    1.8471   -0.0660   -1.3118 C   0  0  0  0  0  0  0  0  0  0  0  0
    1.8457   -0.7792    0.0672 C   0  0  0  0  0  0  0  0  0  0  0  0
    2.0143    0.3821    1.0633 C   0  0  0  0  0  0  0  0  0  0  0  0
    3.4735    0.8791    0.9670 C   0  0  0  0  0  0  0  0  0  0  0  0
    3.5183    1.5650   -0.4301 C   0  0  0  0  0  0  0  0  0  0  0  0
    2.0694    1.4102   -0.9442 C   0  0  0  0  0  0  0  0  0  0  0  0
    1.3003    1.5211    0.3585 C   0  0  0  0  0  3  0  0  0  0  0  0
    0.8876   -0.2025   -1.8131 H   0  0  0  0  0  0  0  0  0  0  0  0
    2.6237   -0.4382   -1.9815 H   0  0  0  0  0  0  0  0  0  0  0  0
    0.9083   -1.3086    0.2327 H   0  0  0  0  0  0  0  0  0  0  0  0
    2.6552   -1.5044    0.1634 H   0  0  0  0  0  0  0  0  0  0  0  0
    1.6911    0.1520    2.0771 H   0  0  0  0  0  0  0  0  0  0  0  0
    4.1876    0.0585    1.0578 H   0  0  0  0  0  0  0  0  0  0  0  0
    3.6916    1.5948    1.7612 H   0  0  0  0  0  0  0  0  0  0  0  0
    4.2379    1.0981   -1.1054 H   0  0  0  0  0  0  0  0  0  0  0  0
    3.7871    2.6185   -0.3418 H   0  0  0  0  0  0  0  0  0  0  0  0
    1.8028    2.1132   -1.7317 H   0  0  0  0  0  0  0  0  0  0  0  0
   -0.1170    1.2423    0.1274 H   0  0  0  0  0  0  0  0  0  0  0  0
    1.2658    2.4899    0.8559 H   0  0  0  0  0  0  0  0  0  0  0  0
  1  2  1  0
  1 10  1  0
  1 11  1  0
  1 12  1  0
  2  3  1  0
  2  4  1  0
  2 38  1  0
  3 13  1  0
  3 14  1  0
  3 15  1  0
  4  5  2  0
  4  9  1  0
  5  6  1  0
  5 16  1  0
  6  7  2  0
  6 17  1  0
  7  8  1  0
  7 18  1  0
  8  9  2  0
  8 19  1  0
  9 20  1  0
 21 22  1  0
 21 26  1  0
 21 28  1  0
 21 29  1  0
 22 23  1  0
 22 30  1  0
 22 31  1  0
 23 24  1  0
 23 27  1  0
 23 32  1  0
 24 25  1  0
 24 33  1  0
 24 34  1  0
 25 26  1  0
 25 35  1  0
 25 36  1  0
 26 27  1  0
 26 37  1  0
 27 39  1  0
M  RAD  1  27   2
M  END
>  <reaction>  (4) 
rxn_549

>  <mol_properties>  (4) 
{"1": {"label": "*1", "atom_type": "Cs"}, "3": {"label": "*0", "atom_type": "Cd"}, "22": {"label": "*4", "atom_type": "Cs"}, "26": {"label": "*3", "atom_type": "Cs"}, "37": {"label": "*2", "atom_type": "H0"}}

>  <type>  (4) 
ts

$$$$
