
     RDKit          3D

 25 26  0  0  0  0  0  0  0  0999 V2000
    2.0298   -1.1515    0.0571 C   0  0  0  0  0  0  0  0  0  0  0  0
    2.2278    0.2445    0.6528 C   0  0  0  0  0  0  0  0  0  0  0  0
    1.2292    1.2625    0.0947 C   0  0  0  0  0  0  0  0  0  0  0  0
   -0.1869    0.7454    0.2762 C   0  0  0  0  0  0  0  0  0  0  0  0
   -1.3415    1.5501   -0.3122 C   0  0  0  0  0  0  0  0  0  0  0  0
   -2.5060    0.5338   -0.4178 C   0  0  0  0  0  0  0  0  0  0  0  0
   -1.8709   -0.8658   -0.2234 C   0  0  0  0  0  0  0  0  0  0  0  0
   -0.3715   -0.6265   -0.3693 C   0  0  0  0  0  0  0  0  0  0  0  0
    0.5898   -1.6500    0.2086 C   0  0  0  0  0  0  0  0  0  0  0  0
    2.2820   -1.1226   -1.0088 H   0  0  0  0  0  0  0  0  0  0  0  0
    2.7243   -1.8549    0.5221 H   0  0  0  0  0  0  0  0  0  0  0  0
    2.1030    0.1885    1.7400 H   0  0  0  0  0  0  0  0  0  0  0  0
    3.2514    0.5819    0.4743 H   0  0  0  0  0  0  0  0  0  0  0  0
    1.3611    2.2304    0.5855 H   0  0  0  0  0  0  0  0  0  0  0  0
    1.4198    1.4194   -0.9737 H   0  0  0  0  0  0  0  0  0  0  0  0
   -0.3675    0.6209    1.3539 H   0  0  0  0  0  0  0  0  0  0  0  0
   -1.5992    2.4249    0.2862 H   0  0  0  0  0  0  0  0  0  0  0  0
   -1.0595    1.9116   -1.3055 H   0  0  0  0  0  0  0  0  0  0  0  0
   -3.2666    0.7244    0.3399 H   0  0  0  0  0  0  0  0  0  0  0  0
   -3.0030    0.6112   -1.3853 H   0  0  0  0  0  0  0  0  0  0  0  0
   -2.2549   -1.6039   -0.9288 H   0  0  0  0  0  0  0  0  0  0  0  0
   -2.0796   -1.2429    0.7821 H   0  0  0  0  0  0  0  0  0  0  0  0
   -0.1432   -0.5121   -1.4391 H   0  0  0  0  0  0  0  0  0  0  0  0
    0.4720   -2.6209   -0.2799 H   0  0  0  0  0  0  0  0  0  0  0  0
    0.3601   -1.7986    1.2704 H   0  0  0  0  0  0  0  0  0  0  0  0
  1  2  1  0
  1  9  1  0
  1 10  1  0
  1 11  1  0
  2  3  1  0
  2 12  1  0
  2 13  1  0
  3  4  1  0
  3 14  1  0
  3 15  1  0
  4  5  1  0
  4  8  1  0
  4 16  1  0
  5  6  1  0
  5 17  1  0
  5 18  1  0
  6  7  1  0
  6 19  1  0
  6 20  1  0
  7  8  1  0
  7 21  1  0
  7 22  1  0
  8  9  1  0
  8 23  1  0
  9 24  1  0
  9 25  1  0
M  END
>  <reaction>  (1) 
rxn_600

>  <mol_properties>  (1) 
{"5": {"label": "donator", "atom_type": "Cs"}, "18": {"label": "d_hydrogen", "atom_type": "H0"}}

>  <type>  (1) 
r1h

$$$$

     RDKit          3D

  7  6  0  0  0  0  0  0  0  0999 V2000
   -0.6201    0.0189   -0.0017 C   0  0  0  0  0  0  0  0  0  0  0  0
    0.8589   -0.0553    0.0500 C   0  0  0  0  0  3  0  0  0  0  0  0
   -1.0738   -0.9730   -0.0559 H   0  0  0  0  0  0  0  0  0  0  0  0
   -0.9680    0.5706   -0.8872 H   0  0  0  0  0  0  0  0  0  0  0  0
   -1.0303    0.5369    0.8678 H   0  0  0  0  0  0  0  0  0  0  0  0
    1.3939   -0.8386   -0.4695 H   0  0  0  0  0  0  0  0  0  0  0  0
    1.4394    0.7404    0.4965 H   0  0  0  0  0  0  0  0  0  0  0  0
  1  2  1  0
  1  3  1  0
  1  4  1  0
  1  5  1  0
  2  6  1  0
  2  7  1  0
M  RAD  1   2   2
M  END
>  <reaction>  (2) 
rxn_600

>  <mol_properties>  (2) 
{"1": {"label": "acceptor", "atom_type": "Cs"}}

>  <type>  (2) 
r2

$$$$

     RDKit          3D

  8  7  0  0  0  0  0  0  0  0999 V2000
    0.7610    0.0250    0.0051 C   0  0  0  0  0  0  0  0  0  0  0  0
   -0.7610   -0.0250   -0.0051 C   0  0  0  0  0  0  0  0  0  0  0  0
    1.1904   -0.9237   -0.3217 H   0  0  0  0  0  0  0  0  0  0  0  0
    1.1359    0.8041   -0.6609 H   0  0  0  0  0  0  0  0  0  0  0  0
    1.1435    0.2336    1.0058 H   0  0  0  0  0  0  0  0  0  0  0  0
   -1.1435   -0.2336   -1.0058 H   0  0  0  0  0  0  0  0  0  0  0  0
   -1.1904    0.9237    0.3216 H   0  0  0  0  0  0  0  0  0  0  0  0
   -1.1359   -0.8041    0.6609 H   0  0  0  0  0  0  0  0  0  0  0  0
  1  2  1  0
  1  3  1  0
  1  4  1  0
  1  5  1  0
  2  6  1  0
  2  7  1  0
  2  8  1  0
M  END
>  <reaction>  (3) 
rxn_600

>  <mol_properties>  (3) 
{"1": {"label": "acceptor", "atom_type": "Cs"}, "7": {"label": "a_hydrogen", "atom_type": "H0"}}

>  <type>  (3) 
r2h

$$$$

     RDKit          3D

 32 32  0  0  0  0  0  0  0  0999 V2000
   -0.8777    2.8979    1.5092 C   0  0  0  0  0  0  0  0  0  0  0  0
    0.2748    3.5101    0.7603 C   0  0  0  0  0  3  0  0  0  0  0  0
   -1.4643    3.6538    2.0420 H   0  0  0  0  0  0  0  0  0  0  0  0
   -0.5302    2.1750    2.2503 H   0  0  0  0  0  0  0  0  0  0  0  0
   -1.5589    2.3770    0.8325 H   0  0  0  0  0  0  0  0  0  0  0  0
    1.0507    3.9474    1.3858 H   0  0  0  0  0  0  0  0  0  0  0  0
   -0.0065    4.1726   -0.0563 H   0  0  0  0  0  0  0  0  0  0  0  0
   -1.2235   -2.5766   -0.8033 C   0  0  0  0  0  0  0  0  0  0  0  0
   -0.9633   -2.5719    0.7053 C   0  0  0  0  0  0  0  0  0  0  0  0
    0.3505   -1.8738    1.0692 C   0  0  0  0  0  0  0  0  0  0  0  0
    0.3702   -0.4808    0.4667 C   0  0  0  0  0  0  0  0  0  0  0  0
    1.6243    0.3753    0.6139 C   0  0  0  0  0  0  0  0  0  0  0  0
    1.4541    1.4386   -0.4675 C   0  0  0  0  0  0  0  0  0  0  0  0
    0.4244    0.9228   -1.4760 C   0  0  0  0  0  0  0  0  0  0  0  0
    0.1703   -0.5240   -1.0480 C   0  0  0  0  0  0  0  0  0  0  0  0
   -1.1526   -1.1736   -1.4133 C   0  0  0  0  0  0  0  0  0  0  0  0
   -0.4742   -3.2098   -1.2915 H   0  0  0  0  0  0  0  0  0  0  0  0
   -2.1956   -3.0301   -1.0098 H   0  0  0  0  0  0  0  0  0  0  0  0
   -1.7873   -2.0522    1.2068 H   0  0  0  0  0  0  0  0  0  0  0  0
   -0.9652   -3.5964    1.0844 H   0  0  0  0  0  0  0  0  0  0  0  0
    0.4698   -1.8351    2.1552 H   0  0  0  0  0  0  0  0  0  0  0  0
    1.1971   -2.4492    0.6762 H   0  0  0  0  0  0  0  0  0  0  0  0
   -0.4738    0.0828    0.8878 H   0  0  0  0  0  0  0  0  0  0  0  0
    1.7385    0.8043    1.6130 H   0  0  0  0  0  0  0  0  0  0  0  0
    2.5149   -0.2356    0.4244 H   0  0  0  0  0  0  0  0  0  0  0  0
    0.9260    2.4864    0.1157 H   0  0  0  0  0  0  0  0  0  0  0  0
    2.3764    1.8357   -0.8866 H   0  0  0  0  0  0  0  0  0  0  0  0
    0.7652    1.0043   -2.5093 H   0  0  0  0  0  0  0  0  0  0  0  0
   -0.5068    1.4985   -1.4046 H   0  0  0  0  0  0  0  0  0  0  0  0
    0.9780   -1.1459   -1.4594 H   0  0  0  0  0  0  0  0  0  0  0  0
   -1.2806   -1.2258   -2.4977 H   0  0  0  0  0  0  0  0  0  0  0  0
   -1.9735   -0.5586   -1.0253 H   0  0  0  0  0  0  0  0  0  0  0  0
  1  2  1  0
  1  3  1  0
  1  4  1  0
  1  5  1  0
  2  6  1  0
  2  7  1  0
  8  9  1  0
  8 16  1  0
  8 17  1  0
  8 18  1  0
  9 10  1  0
  9 19  1  0
  9 20  1  0
 10 11  1  0
 10 21  1  0
 10 22  1  0
 11 12  1  0
 11 15  1  0
 11 23  1  0
 12 13  1  0
 12 24  1  0
 12 25  1  0
 13 14  1  0
 13 26  1  0
 13 27  1  0
 14 15  1  0
 14 28  1  0
 14 29  1  0
 15 16  1  0
 15 30  1  0
 16 31  1  0
 16 32  1  0
M  RAD  1   2   2
M  END
>  <reaction>  (4) 
rxn_600

>  <mol_properties>  (4) 
{"0": {"label": "*4", "atom_type": "Cs"}, "1": {"label": "*3", "atom_type": "Cs"}, "11": {"label": "*0", "atom_type": "Cs"}, "12": {"label": "*1", "atom_type": "Cs"}, "25": {"label": "*2", "atom_type": "H0"}}

>  <type>  (4) 
ts

$$$$
