
     RDKit          3D

 12 11  0  0  0  0  0  0  0  0999 V2000
    1.9877    0.1011    0.4814 C   0  0  0  0  0  0  0  0  0  0  0  0
    0.8179    0.5502    0.0525 C   0  0  0  0  0  0  0  0  0  0  0  0
   -0.2939   -0.2692   -0.5320 C   0  0  0  0  0  0  0  0  0  0  0  0
   -0.0292   -1.7631   -0.6328 C   0  0  0  0  0  0  0  0  0  0  0  0
    2.2522   -0.9490    0.4436 H   0  0  0  0  0  0  0  0  0  0  0  0
    2.7295    0.7757    0.8896 H   0  0  0  0  0  0  0  0  0  0  0  0
    0.6162    1.6164    0.1190 H   0  0  0  0  0  0  0  0  0  0  0  0
   -0.5268    0.1319   -1.5245 H   0  0  0  0  0  0  0  0  0  0  0  0
   -1.1959   -0.0938    0.0644 H   0  0  0  0  0  0  0  0  0  0  0  0
    0.1590   -2.1992    0.3502 H   0  0  0  0  0  0  0  0  0  0  0  0
    0.8382   -1.9701   -1.2626 H   0  0  0  0  0  0  0  0  0  0  0  0
   -0.8879   -2.2759   -1.0672 H   0  0  0  0  0  0  0  0  0  0  0  0
  1  2  2  3
  1  5  1  0
  1  6  1  0
  2  3  1  0
  2  7  1  0
  3  4  1  0
  3  8  1  0
  3  9  1  0
  4 10  1  0
  4 11  1  0
  4 12  1  0
M  END
>  <reaction>  (1) 
rxn_1069

>  <mol_properties>  (1) 
{"2": {"label": "donator", "atom_type": "Cs"}, "7": {"label": "d_hydrogen", "atom_type": "H0"}}

>  <type>  (1) 
r1h

$$$$

     RDKit          3D

 12 11  0  0  0  0  0  0  0  0999 V2000
   -0.9951    0.1196   -0.8321 C   0  0  0  0  0  0  0  0  0  0  0  0
   -0.3760    0.2571    0.5231 C   0  0  0  0  0  3  0  0  0  0  0  0
    0.9330   -0.1537    0.7810 C   0  0  0  0  0  0  0  0  0  0  0  0
    1.5987   -0.1880    1.9734 C   0  0  0  0  0  0  0  0  0  0  0  0
   -1.4483    0.9449    1.7152 S   0  0  0  0  0  0  0  0  0  0  0  0
   -1.9164   -0.4696   -0.7936 H   0  0  0  0  0  0  0  0  0  0  0  0
   -1.2565    1.0958   -1.2506 H   0  0  0  0  0  0  0  0  0  0  0  0
   -0.3088   -0.3780   -1.5170 H   0  0  0  0  0  0  0  0  0  0  0  0
    1.4783   -0.4898   -0.0971 H   0  0  0  0  0  0  0  0  0  0  0  0
    2.6278   -0.5153    2.0142 H   0  0  0  0  0  0  0  0  0  0  0  0
    1.1316    0.0690    2.9151 H   0  0  0  0  0  0  0  0  0  0  0  0
   -0.5306    1.3052    2.6211 H   0  0  0  0  0  0  0  0  0  0  0  0
  1  2  1  0
  1  6  1  0
  1  7  1  0
  1  8  1  0
  2  3  1  0
  2  5  1  0
  3  4  2  3
  3  9  1  0
  4 10  1  0
  4 11  1  0
  5 12  1  0
M  RAD  1   2   2
M  END
>  <reaction>  (2) 
rxn_1069

>  <mol_properties>  (2) 
{"1": {"label": "acceptor", "atom_type": "Cs"}}

>  <type>  (2) 
r2

$$$$

     RDKit          3D

 13 12  0  0  0  0  0  0  0  0999 V2000
   -1.1828    0.8269   -0.1645 C   0  0  0  0  0  0  0  0  0  0  0  0
   -0.4827   -0.4584   -0.5736 C   0  0  0  0  0  0  0  0  0  0  0  0
   -0.9759   -1.7030    0.1030 C   0  0  0  0  0  0  0  0  0  0  0  0
   -2.0084   -1.7831    0.9287 C   0  0  0  0  0  0  0  0  0  0  0  0
   -0.4908   -0.7025   -2.3913 S   0  0  0  0  0  0  0  0  0  0  0  0
   -1.0941    0.9860    0.9125 H   0  0  0  0  0  0  0  0  0  0  0  0
   -0.7405    1.6784   -0.6793 H   0  0  0  0  0  0  0  0  0  0  0  0
   -2.2437    0.7943   -0.4195 H   0  0  0  0  0  0  0  0  0  0  0  0
    0.5870   -0.3637   -0.3637 H   0  0  0  0  0  0  0  0  0  0  0  0
   -0.4209   -2.6026   -0.1443 H   0  0  0  0  0  0  0  0  0  0  0  0
   -2.2982   -2.7315    1.3623 H   0  0  0  0  0  0  0  0  0  0  0  0
   -2.5999   -0.9190    1.2055 H   0  0  0  0  0  0  0  0  0  0  0  0
   -1.8040   -0.9489   -2.4971 H   0  0  0  0  0  0  0  0  0  0  0  0
  1  2  1  0
  1  6  1  0
  1  7  1  0
  1  8  1  0
  2  3  1  0
  2  5  1  0
  2  9  1  0
  3  4  2  3
  3 10  1  0
  4 11  1  0
  4 12  1  0
  5 13  1  0
M  END
>  <reaction>  (3) 
rxn_1069

>  <mol_properties>  (3) 
{"1": {"label": "acceptor", "atom_type": "Cs"}, "12": {"label": "a_hydrogen", "atom_type": "H0"}}

>  <type>  (3) 
r2h

$$$$

     RDKit          3D

 24 22  0  0  0  0  0  0  0  0999 V2000
    0.0621    1.1077    2.0001 C   0  0  0  0  0  0  0  0  0  0  0  0
    0.4459    0.1433    0.9065 C   0  0  0  0  0  3  0  0  0  0  0  0
    1.3713    0.5934   -0.1301 C   0  0  0  0  0  0  0  0  0  0  0  0
    1.8382    1.8367   -0.2737 C   0  0  0  0  0  0  0  0  0  0  0  0
    0.6964   -1.5592    1.4347 S   0  0  0  0  0  0  0  0  0  0  0  0
    0.9172    1.3296    2.6457 H   0  0  0  0  0  0  0  0  0  0  0  0
   -0.2974    2.0492    1.5793 H   0  0  0  0  0  0  0  0  0  0  0  0
   -0.7266    0.6857    2.6220 H   0  0  0  0  0  0  0  0  0  0  0  0
    1.6621   -0.1650   -0.8498 H   0  0  0  0  0  0  0  0  0  0  0  0
    2.4985    2.0869   -1.0936 H   0  0  0  0  0  0  0  0  0  0  0  0
    1.5904    2.6331    0.4170 H   0  0  0  0  0  0  0  0  0  0  0  0
    1.9935   -1.4576    1.7633 H   0  0  0  0  0  0  0  0  0  0  0  0
   -1.0232   -0.5368   -2.8304 C   0  0  0  0  0  0  0  0  0  0  0  0
   -1.4441   -0.9557   -1.6329 C   0  0  0  0  0  0  0  0  0  0  0  0
   -1.8324   -0.0977   -0.5225 C   0  0  0  0  0  0  0  0  0  0  0  0
   -2.1173    1.3592   -0.7797 C   0  0  0  0  0  0  0  0  0  0  0  0
   -0.9853    0.5140   -3.0911 H   0  0  0  0  0  0  0  0  0  0  0  0
   -0.7133   -1.2417   -3.5906 H   0  0  0  0  0  0  0  0  0  0  0  0
   -1.4525   -2.0227   -1.4318 H   0  0  0  0  0  0  0  0  0  0  0  0
   -0.7128   -0.0463    0.2154 H   0  0  0  0  0  0  0  0  0  0  0  0
   -2.5126   -0.5740    0.1819 H   0  0  0  0  0  0  0  0  0  0  0  0
   -2.9233    1.4815   -1.5090 H   0  0  0  0  0  0  0  0  0  0  0  0
   -1.2347    1.8696   -1.1731 H   0  0  0  0  0  0  0  0  0  0  0  0
   -2.4139    1.8650    0.1392 H   0  0  0  0  0  0  0  0  0  0  0  0
  1  2  1  0
  1  6  1  0
  1  7  1  0
  1  8  1  0
  2  3  1  0
  2  5  1  0
  3  4  2  3
  3  9  1  0
  4 10  1  0
  4 11  1  0
  5 12  1  0
 13 14  2  3
 13 17  1  0
 13 18  1  0
 14 15  1  0
 14 19  1  0
 15 16  1  0
 15 20  1  0
 15 21  1  0
 16 22  1  0
 16 23  1  0
 16 24  1  0
M  RAD  1   2   2
M  END
>  <reaction>  (4) 
rxn_1069

>  <mol_properties>  (4) 
{"1": {"label": "*3", "atom_type": "Cs"}, "4": {"label": "*4", "atom_type": "S2s"}, "13": {"label": "*0", "atom_type": "Cd"}, "14": {"label": "*1", "atom_type": "Cs"}, "19": {"label": "*2", "atom_type": "H0"}}

>  <type>  (4) 
ts

$$$$
