
     RDKit          3D

 15 15  0  0  0  0  0  0  0  0999 V2000
    2.2031   -0.2111   -0.1693 C   0  0  0  0  0  0  0  0  0  0  0  0
    0.7140   -0.0314   -0.0623 C   0  0  0  0  0  0  0  0  0  0  0  0
   -0.0114    0.5491   -1.0982 C   0  0  0  0  0  0  0  0  0  0  0  0
   -1.3882    0.6886   -1.0150 C   0  0  0  0  0  0  0  0  0  0  0  0
   -2.0661    0.2493    0.1118 C   0  0  0  0  0  0  0  0  0  0  0  0
   -1.3551   -0.3278    1.1528 C   0  0  0  0  0  0  0  0  0  0  0  0
    0.0216   -0.4648    1.0642 C   0  0  0  0  0  0  0  0  0  0  0  0
    2.6776   -0.1836    0.8122 H   0  0  0  0  0  0  0  0  0  0  0  0
    2.4446   -1.1749   -0.6249 H   0  0  0  0  0  0  0  0  0  0  0  0
    2.6532    0.5664   -0.7875 H   0  0  0  0  0  0  0  0  0  0  0  0
    0.5104    0.8989   -1.9819 H   0  0  0  0  0  0  0  0  0  0  0  0
   -1.9328    1.1452   -1.8322 H   0  0  0  0  0  0  0  0  0  0  0  0
   -3.1409    0.3597    0.1800 H   0  0  0  0  0  0  0  0  0  0  0  0
   -1.8736   -0.6702    2.0398 H   0  0  0  0  0  0  0  0  0  0  0  0
    0.5695   -0.9141    1.8849 H   0  0  0  0  0  0  0  0  0  0  0  0
  1  2  1  0
  1  8  1  0
  1  9  1  0
  1 10  1  0
  2  3  2  0
  2  7  1  0
  3  4  1  0
  3 11  1  0
  4  5  2  0
  4 12  1  0
  5  6  1  0
  5 13  1  0
  6  7  2  0
  6 14  1  0
  7 15  1  0
M  END
>  <reaction>  (1) 
rxn_268

>  <mol_properties>  (1) 
{"2": {"label": "donator", "atom_type": "Cd"}, "10": {"label": "d_hydrogen", "atom_type": "H0"}}

>  <type>  (1) 
r1h

$$$$

     RDKit          3D

  4  3  0  0  0  0  0  0  0  0999 V2000
    0.0000    0.0000    0.0000 C   0  0  0  0  0  3  0  0  0  0  0  0
    1.0638   -0.1747    0.0540 H   0  0  0  0  0  0  0  0  0  0  0  0
   -0.6833   -0.8351   -0.0280 H   0  0  0  0  0  0  0  0  0  0  0  0
   -0.3805    1.0098   -0.0260 H   0  0  0  0  0  0  0  0  0  0  0  0
  1  2  1  0
  1  3  1  0
  1  4  1  0
M  RAD  1   1   2
M  END
>  <reaction>  (2) 
rxn_268

>  <mol_properties>  (2) 
{"0": {"label": "acceptor", "atom_type": "Cs"}}

>  <type>  (2) 
r2

$$$$

     RDKit          3D

  5  4  0  0  0  0  0  0  0  0999 V2000
    0.0000    0.0000    0.0000 C   0  0  0  0  0  0  0  0  0  0  0  0
   -0.6486   -0.7720   -0.4113 H   0  0  0  0  0  0  0  0  0  0  0  0
   -0.3482    0.9787   -0.3267 H   0  0  0  0  0  0  0  0  0  0  0  0
   -0.0223   -0.0487    1.0876 H   0  0  0  0  0  0  0  0  0  0  0  0
    1.0191   -0.1580   -0.3496 H   0  0  0  0  0  0  0  0  0  0  0  0
  1  2  1  0
  1  3  1  0
  1  4  1  0
  1  5  1  0
M  END
>  <reaction>  (3) 
rxn_268

>  <mol_properties>  (3) 
{"0": {"label": "a_hydrogen", "atom_type": "H0"}, "1": {"label": "acceptor", "atom_type": "Cs"}}

>  <type>  (3) 
r2h

$$$$

     RDKit          3D

 19 18  0  0  0  0  0  0  0  0999 V2000
    0.0443   -0.4571   -2.2223 C   0  0  0  0  0  0  0  0  0  0  0  0
    0.0190   -0.4998   -0.7192 C   0  0  0  0  0  0  0  0  0  0  0  0
    0.0087    0.6599    0.0364 C   0  0  0  0  0  3  0  0  0  0  0  0
   -0.0100    0.6726    1.4114 C   0  0  0  0  0  0  0  0  0  0  0  0
   -0.0193   -0.5415    2.0908 C   0  0  0  0  0  0  0  0  0  0  0  0
   -0.0100   -1.7250    1.3700 C   0  0  0  0  0  0  0  0  0  0  0  0
    0.0088   -1.7037   -0.0185 C   0  0  0  0  0  0  0  0  0  0  0  0
   -0.0030   -1.4601   -2.6459 H   0  0  0  0  0  0  0  0  0  0  0  0
   -0.7982    0.1174   -2.6114 H   0  0  0  0  0  0  0  0  0  0  0  0
    0.9574    0.0207   -2.5832 H   0  0  0  0  0  0  0  0  0  0  0  0
    0.0147    1.8587   -0.6205 H   0  0  0  0  0  0  0  0  0  0  0  0
   -0.0180    1.6096    1.9563 H   0  0  0  0  0  0  0  0  0  0  0  0
   -0.0344   -0.5603    3.1735 H   0  0  0  0  0  0  0  0  0  0  0  0
   -0.0179   -2.6747    1.8901 H   0  0  0  0  0  0  0  0  0  0  0  0
    0.0152   -2.6382   -0.5691 H   0  0  0  0  0  0  0  0  0  0  0  0
    0.0192    3.0030   -1.2409 C   0  0  0  0  0  0  0  0  0  0  0  0
    0.8925    2.9842   -1.8872 H   0  0  0  0  0  0  0  0  0  0  0  0
    0.0859    3.7555   -0.4597 H   0  0  0  0  0  0  0  0  0  0  0  0
   -0.9171    3.0443   -1.7908 H   0  0  0  0  0  0  0  0  0  0  0  0
  1  2  1  0
  1  8  1  0
  1  9  1  0
  1 10  1  0
  2  7  2  0
  2  3  1  0
  3  4  2  0
  4  5  1  0
  4 12  1  0
  5  6  2  0
  5 13  1  0
  6  7  1  0
  6 14  1  0
  7 15  1  0
 11 16  1  0
 16 17  1  0
 16 18  1  0
 16 19  1  0
M  RAD  1   3   2
M  END
>  <reaction>  (4) 
rxn_268

>  <mol_properties>  (4) 
{"1": {"label": "*4", "atom_type": "Cd"}, "2": {"label": "*3", "atom_type": "Cd"}, "10": {"label": "*2", "atom_type": "H0"}, "15": {"label": "*1", "atom_type": "Cs"}, "16": {"label": "*0", "atom_type": "H0"}}

>  <type>  (4) 
ts

$$$$
