
     RDKit          3D

 10  9  0  0  0  0  0  0  0  0999 V2000
    2.2738    0.0217   -0.0992 C   0  0  0  0  0  0  0  0  0  0  0  0
    1.1083    0.2960   -0.0695 C   0  0  0  0  0  0  0  0  0  0  0  0
   -0.3173    0.6046   -0.0227 C   0  0  0  0  0  0  0  0  0  0  0  0
   -1.1561   -0.5495    0.5292 C   0  0  0  0  0  0  0  0  0  0  0  0
    3.3097   -0.2166   -0.1277 H   0  0  0  0  0  0  0  0  0  0  0  0
   -0.6542    0.8617   -1.0302 H   0  0  0  0  0  0  0  0  0  0  0  0
   -0.4633    1.4978    0.5900 H   0  0  0  0  0  0  0  0  0  0  0  0
   -0.8485   -0.7997    1.5447 H   0  0  0  0  0  0  0  0  0  0  0  0
   -2.2115   -0.2752    0.5459 H   0  0  0  0  0  0  0  0  0  0  0  0
   -1.0409   -1.4407   -0.0879 H   0  0  0  0  0  0  0  0  0  0  0  0
  1  2  3  0
  1  5  1  0
  2  3  1  0
  3  4  1  0
  3  6  1  0
  3  7  1  0
  4  8  1  0
  4  9  1  0
  4 10  1  0
M  END
>  <reaction>  (1) 
rxn_1273

>  <mol_properties>  (1) 
{"2": {"label": "donator", "atom_type": "Cs"}, "5": {"label": "d_hydrogen", "atom_type": "H0"}}

>  <type>  (1) 
r1h

$$$$

     RDKit          3D

 20 20  0  0  0  0  0  0  0  0999 V2000
   -2.4774    0.8083    0.1488 C   0  0  0  0  0  0  0  0  0  0  0  0
   -1.4172   -0.1696   -0.2476 C   0  0  0  0  0  3  0  0  0  0  0  0
   -0.2904    0.2932   -1.1156 C   0  0  0  0  0  0  0  0  0  0  0  0
   -1.4797   -1.5204    0.1947 C   0  0  0  0  0  0  0  0  0  0  0  0
   -0.4907   -2.4664   -0.1650 C   0  0  0  0  0  0  0  0  0  0  0  0
   -0.5559   -3.7750    0.2665 C   0  0  0  0  0  0  0  0  0  0  0  0
   -1.6038   -4.2041    1.0733 C   0  0  0  0  0  0  0  0  0  0  0  0
   -2.5899   -3.2959    1.4424 C   0  0  0  0  0  0  0  0  0  0  0  0
   -2.5339   -1.9852    1.0162 C   0  0  0  0  0  0  0  0  0  0  0  0
   -3.4697    0.4933   -0.1924 H   0  0  0  0  0  0  0  0  0  0  0  0
   -2.5434    0.9184    1.2368 H   0  0  0  0  0  0  0  0  0  0  0  0
   -2.2829    1.7944   -0.2706 H   0  0  0  0  0  0  0  0  0  0  0  0
   -0.2452   -0.2661   -2.0565 H   0  0  0  0  0  0  0  0  0  0  0  0
   -0.3905    1.3487   -1.3647 H   0  0  0  0  0  0  0  0  0  0  0  0
    0.6811    0.1589   -0.6274 H   0  0  0  0  0  0  0  0  0  0  0  0
    0.3373   -2.1635   -0.7918 H   0  0  0  0  0  0  0  0  0  0  0  0
    0.2187   -4.4725   -0.0281 H   0  0  0  0  0  0  0  0  0  0  0  0
   -1.6513   -5.2316    1.4097 H   0  0  0  0  0  0  0  0  0  0  0  0
   -3.4116   -3.6175    2.0706 H   0  0  0  0  0  0  0  0  0  0  0  0
   -3.3164   -1.3029    1.3205 H   0  0  0  0  0  0  0  0  0  0  0  0
  1  2  1  0
  1 10  1  0
  1 11  1  0
  1 12  1  0
  2  3  1  0
  2  4  1  0
  3 13  1  0
  3 14  1  0
  3 15  1  0
  4  5  2  0
  4  9  1  0
  5  6  1  0
  5 16  1  0
  6  7  2  0
  6 17  1  0
  7  8  1  0
  7 18  1  0
  8  9  2  0
  8 19  1  0
  9 20  1  0
M  RAD  1   2   2
M  END
>  <reaction>  (2) 
rxn_1273

>  <mol_properties>  (2) 
{"1": {"label": "acceptor", "atom_type": "Cs"}}

>  <type>  (2) 
r2

$$$$

     RDKit          3D

 21 21  0  0  0  0  0  0  0  0999 V2000
   -1.3695    1.3367   -1.0719 C   0  0  0  0  0  0  0  0  0  0  0  0
   -1.4091   -0.0981   -0.5428 C   0  0  0  0  0  0  0  0  0  0  0  0
   -0.1819   -0.3999    0.3191 C   0  0  0  0  0  0  0  0  0  0  0  0
   -1.5636   -1.1028   -1.6652 C   0  0  0  0  0  0  0  0  0  0  0  0
   -0.5920   -1.2314   -2.6553 C   0  0  0  0  0  0  0  0  0  0  0  0
   -0.7353   -2.1509   -3.6809 C   0  0  0  0  0  0  0  0  0  0  0  0
   -1.8582   -2.9642   -3.7377 C   0  0  0  0  0  0  0  0  0  0  0  0
   -2.8325   -2.8475   -2.7602 C   0  0  0  0  0  0  0  0  0  0  0  0
   -2.6828   -1.9241   -1.7351 C   0  0  0  0  0  0  0  0  0  0  0  0
   -0.4920    1.4974   -1.7025 H   0  0  0  0  0  0  0  0  0  0  0  0
   -2.2553    1.5607   -1.6679 H   0  0  0  0  0  0  0  0  0  0  0  0
   -1.3211    2.0496   -0.2461 H   0  0  0  0  0  0  0  0  0  0  0  0
   -2.2930   -0.1918    0.0948 H   0  0  0  0  0  0  0  0  0  0  0  0
   -0.1215    0.2955    1.1588 H   0  0  0  0  0  0  0  0  0  0  0  0
   -0.2200   -1.4155    0.7159 H   0  0  0  0  0  0  0  0  0  0  0  0
    0.7383   -0.3016   -0.2615 H   0  0  0  0  0  0  0  0  0  0  0  0
    0.2915   -0.6040   -2.6263 H   0  0  0  0  0  0  0  0  0  0  0  0
    0.0326   -2.2338   -4.4401 H   0  0  0  0  0  0  0  0  0  0  0  0
   -1.9712   -3.6833   -4.5391 H   0  0  0  0  0  0  0  0  0  0  0  0
   -3.7135   -3.4765   -2.7932 H   0  0  0  0  0  0  0  0  0  0  0  0
   -3.4509   -1.8400   -0.9743 H   0  0  0  0  0  0  0  0  0  0  0  0
  1  2  1  0
  1 10  1  0
  1 11  1  0
  1 12  1  0
  2  3  1  0
  2  4  1  0
  2 13  1  0
  3 14  1  0
  3 15  1  0
  3 16  1  0
  4  5  2  0
  4  9  1  0
  5  6  1  0
  5 17  1  0
  6  7  2  0
  6 18  1  0
  7  8  1  0
  7 19  1  0
  8  9  2  0
  8 20  1  0
  9 21  1  0
M  END
>  <reaction>  (3) 
rxn_1273

>  <mol_properties>  (3) 
{"0": {"label": "a_hydrogen", "atom_type": "H0"}, "2": {"label": "acceptor", "atom_type": "Cs"}}

>  <type>  (3) 
r2h

$$$$

     RDKit          3D

 30 29  0  0  0  0  0  0  0  0999 V2000
   -3.3088   -1.0756   -1.3645 C   0  0  0  0  0  0  0  0  0  0  0  0
   -2.8798   -0.1286   -0.7566 C   0  0  0  0  0  0  0  0  0  0  0  0
   -2.3117    0.9487   -0.0226 C   0  0  0  0  0  3  0  0  0  0  0  0
   -1.5409    1.9916   -0.7996 C   0  0  0  0  0  0  0  0  0  0  0  0
   -3.7100   -1.8962   -1.9085 H   0  0  0  0  0  0  0  0  0  0  0  0
   -1.3514    0.3798    0.7599 H   0  0  0  0  0  0  0  0  0  0  0  0
   -2.9829    1.3533    0.7338 H   0  0  0  0  0  0  0  0  0  0  0  0
   -2.2041    2.5827   -1.4362 H   0  0  0  0  0  0  0  0  0  0  0  0
   -1.0300    2.6719   -0.1164 H   0  0  0  0  0  0  0  0  0  0  0  0
   -0.7894    1.5211   -1.4345 H   0  0  0  0  0  0  0  0  0  0  0  0
   -0.2691    0.8104    2.6604 C   0  0  0  0  0  0  0  0  0  0  0  0
   -0.3786   -0.1447    1.4957 C   0  0  0  0  0  0  0  0  0  0  0  0
   -0.9739   -1.4838    1.8753 C   0  0  0  0  0  0  0  0  0  0  0  0
    0.7593   -0.1823    0.5424 C   0  0  0  0  0  0  0  0  0  0  0  0
    0.6664   -0.9423   -0.6299 C   0  0  0  0  0  0  0  0  0  0  0  0
    1.6887   -0.9520   -1.5611 C   0  0  0  0  0  0  0  0  0  0  0  0
    2.8397   -0.2062   -1.3471 C   0  0  0  0  0  0  0  0  0  0  0  0
    2.9493    0.5522   -0.1931 C   0  0  0  0  0  0  0  0  0  0  0  0
    1.9207    0.5685    0.7364 C   0  0  0  0  0  0  0  0  0  0  0  0
   -0.0226    1.8232    2.3373 H   0  0  0  0  0  0  0  0  0  0  0  0
   -1.2162    0.8518    3.2010 H   0  0  0  0  0  0  0  0  0  0  0  0
    0.4992    0.4887    3.3719 H   0  0  0  0  0  0  0  0  0  0  0  0
   -0.2837   -2.0403    2.5180 H   0  0  0  0  0  0  0  0  0  0  0  0
   -1.9073   -1.3451    2.4245 H   0  0  0  0  0  0  0  0  0  0  0  0
   -1.1926   -2.1011    1.0052 H   0  0  0  0  0  0  0  0  0  0  0  0
   -0.2344   -1.5092   -0.8292 H   0  0  0  0  0  0  0  0  0  0  0  0
    1.5845   -1.5422   -2.4631 H   0  0  0  0  0  0  0  0  0  0  0  0
    3.6412   -0.2153   -2.0746 H   0  0  0  0  0  0  0  0  0  0  0  0
    3.8422    1.1378   -0.0118 H   0  0  0  0  0  0  0  0  0  0  0  0
    2.0343    1.1683    1.6296 H   0  0  0  0  0  0  0  0  0  0  0  0
  1  2  3  0
  1  5  1  0
  2  3  1  0
  3  4  1  0
  3  7  1  0
  4  8  1  0
  4  9  1  0
  4 10  1  0
  6 12  1  0
 11 12  1  0
 11 20  1  0
 11 21  1  0
 11 22  1  0
 12 13  1  0
 12 14  1  0
 13 23  1  0
 13 24  1  0
 13 25  1  0
 14 15  2  0
 14 19  1  0
 15 16  1  0
 15 26  1  0
 16 17  2  0
 16 27  1  0
 17 18  1  0
 17 28  1  0
 18 19  2  0
 18 29  1  0
 19 30  1  0
M  RAD  1   3   2
M  END
>  <reaction>  (4) 
rxn_1273

>  <mol_properties>  (4) 
{"1": {"label": "*4", "atom_type": "Ct"}, "2": {"label": "*3", "atom_type": "Cs"}, "5": {"label": "*2", "atom_type": "H0"}, "11": {"label": "*1", "atom_type": "Cs"}, "13": {"label": "*0", "atom_type": "Cd"}}

>  <type>  (4) 
ts

$$$$
