
     RDKit          3D

 15 15  0  0  0  0  0  0  0  0999 V2000
    2.2031   -0.2111   -0.1693 C   0  0  0  0  0  0  0  0  0  0  0  0
    0.7140   -0.0314   -0.0623 C   0  0  0  0  0  0  0  0  0  0  0  0
   -0.0114    0.5491   -1.0982 C   0  0  0  0  0  0  0  0  0  0  0  0
   -1.3882    0.6886   -1.0150 C   0  0  0  0  0  0  0  0  0  0  0  0
   -2.0661    0.2493    0.1118 C   0  0  0  0  0  0  0  0  0  0  0  0
   -1.3551   -0.3278    1.1528 C   0  0  0  0  0  0  0  0  0  0  0  0
    0.0216   -0.4648    1.0642 C   0  0  0  0  0  0  0  0  0  0  0  0
    2.6776   -0.1836    0.8122 H   0  0  0  0  0  0  0  0  0  0  0  0
    2.4446   -1.1749   -0.6249 H   0  0  0  0  0  0  0  0  0  0  0  0
    2.6532    0.5664   -0.7875 H   0  0  0  0  0  0  0  0  0  0  0  0
    0.5104    0.8989   -1.9819 H   0  0  0  0  0  0  0  0  0  0  0  0
   -1.9328    1.1452   -1.8322 H   0  0  0  0  0  0  0  0  0  0  0  0
   -3.1409    0.3597    0.1800 H   0  0  0  0  0  0  0  0  0  0  0  0
   -1.8736   -0.6702    2.0398 H   0  0  0  0  0  0  0  0  0  0  0  0
    0.5695   -0.9141    1.8849 H   0  0  0  0  0  0  0  0  0  0  0  0
  1  2  1  0
  1  8  1  0
  1  9  1  0
  1 10  1  0
  2  3  2  0
  2  7  1  0
  3  4  1  0
  3 11  1  0
  4  5  2  0
  4 12  1  0
  5  6  1  0
  5 13  1  0
  6  7  2  0
  6 14  1  0
  7 15  1  0
M  END
>  <reaction>  (1) 
rxn_1436

>  <mol_properties>  (1) 
{"0": {"label": "donator", "atom_type": "Cs"}, "7": {"label": "d_hydrogen", "atom_type": "H0"}}

>  <type>  (1) 
r1h

$$$$

     RDKit          3D

 10  9  0  0  0  0  0  0  0  0999 V2000
    1.2930    0.1441    0.3288 C   0  0  0  0  0  0  0  0  0  0  0  0
   -0.0374   -0.1647    0.9100 C   0  0  0  0  0  3  0  0  0  0  0  0
   -1.2664    0.4569    0.3567 C   0  0  0  0  0  0  0  0  0  0  0  0
    1.4384    1.2242    0.2174 H   0  0  0  0  0  0  0  0  0  0  0  0
    2.1077   -0.2477    0.9385 H   0  0  0  0  0  0  0  0  0  0  0  0
    1.4057   -0.2836   -0.6789 H   0  0  0  0  0  0  0  0  0  0  0  0
   -0.1309   -0.9912    1.6030 H   0  0  0  0  0  0  0  0  0  0  0  0
   -1.5005    0.0716   -0.6471 H   0  0  0  0  0  0  0  0  0  0  0  0
   -2.1382    0.2713    0.9849 H   0  0  0  0  0  0  0  0  0  0  0  0
   -1.1497    1.5406    0.2456 H   0  0  0  0  0  0  0  0  0  0  0  0
  1  2  1  0
  1  4  1  0
  1  5  1  0
  1  6  1  0
  2  3  1  0
  2  7  1  0
  3  8  1  0
  3  9  1  0
  3 10  1  0
M  RAD  1   2   2
M  END
>  <reaction>  (2) 
rxn_1436

>  <mol_properties>  (2) 
{"1": {"label": "acceptor", "atom_type": "Cs"}}

>  <type>  (2) 
r2

$$$$

     RDKit          3D

 11 10  0  0  0  0  0  0  0  0999 V2000
   -1.2710    0.1907   -0.2084 C   0  0  0  0  0  0  0  0  0  0  0  0
    0.0202   -0.6130   -0.2928 C   0  0  0  0  0  0  0  0  0  0  0  0
    0.1086   -1.6953    0.7756 C   0  0  0  0  0  0  0  0  0  0  0  0
   -1.3607    0.6851    0.7620 H   0  0  0  0  0  0  0  0  0  0  0  0
   -2.1429   -0.4567   -0.3299 H   0  0  0  0  0  0  0  0  0  0  0  0
   -1.3158    0.9602   -0.9809 H   0  0  0  0  0  0  0  0  0  0  0  0
    0.8757    0.0616   -0.1992 H   0  0  0  0  0  0  0  0  0  0  0  0
    0.0997   -1.0712   -1.2825 H   0  0  0  0  0  0  0  0  0  0  0  0
   -0.7198   -2.4022    0.6850 H   0  0  0  0  0  0  0  0  0  0  0  0
    1.0395   -2.2596    0.6989 H   0  0  0  0  0  0  0  0  0  0  0  0
    0.0624   -1.2603    1.7770 H   0  0  0  0  0  0  0  0  0  0  0  0
  1  2  1  0
  1  4  1  0
  1  5  1  0
  1  6  1  0
  2  3  1  0
  2  7  1  0
  2  8  1  0
  3  9  1  0
  3 10  1  0
  3 11  1  0
M  END
>  <reaction>  (3) 
rxn_1436

>  <mol_properties>  (3) 
{"0": {"label": "a_hydrogen", "atom_type": "H0"}, "2": {"label": "acceptor", "atom_type": "Cs"}}

>  <type>  (3) 
r2h

$$$$

     RDKit          3D

 25 24  0  0  0  0  0  0  0  0999 V2000
   -0.2437    1.5543    1.0350 C   0  0  0  0  0  0  0  0  0  0  0  0
    0.3049    0.8696   -0.1393 C   0  0  0  0  0  0  0  0  0  0  0  0
   -0.5026    0.5674   -1.2402 C   0  0  0  0  0  0  0  0  0  0  0  0
   -0.0041   -0.1414   -2.3194 C   0  0  0  0  0  0  0  0  0  0  0  0
    1.3159   -0.5703   -2.3261 C   0  0  0  0  0  0  0  0  0  0  0  0
    2.1318   -0.2783   -1.2418 C   0  0  0  0  0  0  0  0  0  0  0  0
    1.6324    0.4306   -0.1631 C   0  0  0  0  0  0  0  0  0  0  0  0
   -0.7076    0.6164    1.8353 H   0  0  0  0  0  0  0  0  0  0  0  0
    0.4884    2.0638    1.6576 H   0  0  0  0  0  0  0  0  0  0  0  0
   -1.1220    2.1670    0.8451 H   0  0  0  0  0  0  0  0  0  0  0  0
   -1.5356    0.8967   -1.2431 H   0  0  0  0  0  0  0  0  0  0  0  0
   -0.6487   -0.3601   -3.1620 H   0  0  0  0  0  0  0  0  0  0  0  0
    1.7065   -1.1235   -3.1705 H   0  0  0  0  0  0  0  0  0  0  0  0
    3.1646   -0.6045   -1.2381 H   0  0  0  0  0  0  0  0  0  0  0  0
    2.2766    0.6524    0.6802 H   0  0  0  0  0  0  0  0  0  0  0  0
    0.1162   -1.2644    2.8020 C   0  0  0  0  0  0  0  0  0  0  0  0
   -1.1398   -0.4771    2.5530 C   0  0  0  0  0  3  0  0  0  0  0  0
   -2.1599   -1.1181    1.6540 C   0  0  0  0  0  0  0  0  0  0  0  0
    0.5929   -1.5397    1.8575 H   0  0  0  0  0  0  0  0  0  0  0  0
    0.8370   -0.6962    3.3928 H   0  0  0  0  0  0  0  0  0  0  0  0
   -0.0977   -2.1931    3.3438 H   0  0  0  0  0  0  0  0  0  0  0  0
   -1.5616   -0.0189    3.4477 H   0  0  0  0  0  0  0  0  0  0  0  0
   -2.5631   -2.0346    2.1004 H   0  0  0  0  0  0  0  0  0  0  0  0
   -3.0001   -0.4495    1.4576 H   0  0  0  0  0  0  0  0  0  0  0  0
   -1.7119   -1.3915    0.6951 H   0  0  0  0  0  0  0  0  0  0  0  0
  1  2  1  0
  1  8  1  0
  1  9  1  0
  1 10  1  0
  2  3  2  0
  2  7  1  0
  3  4  1  0
  3 11  1  0
  4  5  2  0
  4 12  1  0
  5  6  1  0
  5 13  1  0
  6  7  2  0
  6 14  1  0
  7 15  1  0
 16 17  1  0
 16 19  1  0
 16 20  1  0
 16 21  1  0
 17 18  1  0
 17 22  1  0
 18 23  1  0
 18 24  1  0
 18 25  1  0
M  RAD  1  17   2
M  END
>  <reaction>  (4) 
rxn_1436

>  <mol_properties>  (4) 
{"0": {"label": "*1", "atom_type": "Cs"}, "1": {"label": "*0", "atom_type": "Cd"}, "7": {"label": "*2", "atom_type": "H0"}, "15": {"label": "*4", "atom_type": "Cs"}, "16": {"label": "*3", "atom_type": "Cs"}}

>  <type>  (4) 
ts

$$$$
