
     RDKit          3D

 15 14  0  0  0  0  0  0  0  0999 V2000
    2.1256    0.4849   -0.6284 C   0  0  0  0  0  0  0  0  0  0  0  0
    1.1128    0.2141    0.1794 C   0  0  0  0  0  0  0  0  0  0  0  0
   -0.3017   -0.0425   -0.2513 C   0  0  0  0  0  0  0  0  0  0  0  0
   -1.2427    1.0075    0.3423 C   0  0  0  0  0  0  0  0  0  0  0  0
   -0.7381   -1.4526    0.1504 C   0  0  0  0  0  0  0  0  0  0  0  0
    3.1243    0.6602   -0.2486 H   0  0  0  0  0  0  0  0  0  0  0  0
    1.9908    0.5411   -1.7036 H   0  0  0  0  0  0  0  0  0  0  0  0
    1.2888    0.1665    1.2533 H   0  0  0  0  0  0  0  0  0  0  0  0
   -0.3426    0.0343   -1.3424 H   0  0  0  0  0  0  0  0  0  0  0  0
   -0.9570    2.0133    0.0315 H   0  0  0  0  0  0  0  0  0  0  0  0
   -1.2189    0.9728    1.4350 H   0  0  0  0  0  0  0  0  0  0  0  0
   -2.2723    0.8287    0.0254 H   0  0  0  0  0  0  0  0  0  0  0  0
   -0.6964   -1.5744    1.2363 H   0  0  0  0  0  0  0  0  0  0  0  0
   -0.0911   -2.2079   -0.2978 H   0  0  0  0  0  0  0  0  0  0  0  0
   -1.7646   -1.6461   -0.1677 H   0  0  0  0  0  0  0  0  0  0  0  0
  1  2  2  3
  1  6  1  0
  1  7  1  0
  2  3  1  0
  2  8  1  0
  3  4  1  0
  3  5  1  0
  3  9  1  0
  4 10  1  0
  4 11  1  0
  4 12  1  0
  5 13  1  0
  5 14  1  0
  5 15  1  0
M  END
>  <reaction>  (1) 
rxn_1089

>  <mol_properties>  (1) 
{"2": {"label": "donator", "atom_type": "Cs"}, "8": {"label": "d_hydrogen", "atom_type": "H0"}}

>  <type>  (1) 
r1h

$$$$

     RDKit          3D

 15 14  0  0  0  0  0  0  0  0999 V2000
    2.4381    0.5770   -0.2356 C   0  0  0  0  0  0  0  0  0  0  0  0
    1.4430   -0.3367   -0.1409 C   0  0  0  0  0  0  0  0  0  0  0  0
    0.0521   -0.0957   -0.0045 C   0  0  0  0  0  3  0  0  0  0  0  0
   -0.5167    1.2867    0.0548 C   0  0  0  0  0  0  0  0  0  0  0  0
   -0.8226   -1.2147    0.0778 C   0  0  0  0  0  0  0  0  0  0  0  0
   -2.1666   -1.1669    0.2092 C   0  0  0  0  0  0  0  0  0  0  0  0
    3.4666    0.2585   -0.3369 H   0  0  0  0  0  0  0  0  0  0  0  0
    2.2594    1.6438   -0.2152 H   0  0  0  0  0  0  0  0  0  0  0  0
    1.7306   -1.3845   -0.1719 H   0  0  0  0  0  0  0  0  0  0  0  0
   -1.2300    1.4469   -0.7583 H   0  0  0  0  0  0  0  0  0  0  0  0
    0.2481    2.0557   -0.0178 H   0  0  0  0  0  0  0  0  0  0  0  0
   -1.0592    1.4421    0.9914 H   0  0  0  0  0  0  0  0  0  0  0  0
   -0.3519   -2.1929    0.0292 H   0  0  0  0  0  0  0  0  0  0  0  0
   -2.7080   -0.2310    0.2646 H   0  0  0  0  0  0  0  0  0  0  0  0
   -2.7513   -2.0751    0.2638 H   0  0  0  0  0  0  0  0  0  0  0  0
  1  2  2  3
  1  7  1  0
  1  8  1  0
  2  3  1  0
  2  9  1  0
  3  4  1  0
  3  5  1  0
  4 10  1  0
  4 11  1  0
  4 12  1  0
  5  6  2  3
  5 13  1  0
  6 14  1  0
  6 15  1  0
M  RAD  1   3   2
M  END
>  <reaction>  (2) 
rxn_1089

>  <mol_properties>  (2) 
{"2": {"label": "acceptor", "atom_type": "Cs"}}

>  <type>  (2) 
r2

$$$$

     RDKit          3D

 16 15  0  0  0  0  0  0  0  0999 V2000
    1.7961   -0.3807    1.6176 C   0  0  0  0  0  0  0  0  0  0  0  0
    0.8562   -0.8708    0.8256 C   0  0  0  0  0  0  0  0  0  0  0  0
    0.0895   -0.0826   -0.2048 C   0  0  0  0  0  0  0  0  0  0  0  0
   -1.4061   -0.1111    0.0982 C   0  0  0  0  0  0  0  0  0  0  0  0
    0.4476   -0.5902   -1.5797 C   0  0  0  0  0  0  0  0  0  0  0  0
   -0.3793   -1.1113   -2.4728 C   0  0  0  0  0  0  0  0  0  0  0  0
    2.3110   -1.0032    2.3386 H   0  0  0  0  0  0  0  0  0  0  0  0
    2.0846    0.6643    1.5737 H   0  0  0  0  0  0  0  0  0  0  0  0
    0.5921   -1.9241    0.8925 H   0  0  0  0  0  0  0  0  0  0  0  0
    0.4358    0.9557   -0.1462 H   0  0  0  0  0  0  0  0  0  0  0  0
   -1.5968    0.3080    1.0865 H   0  0  0  0  0  0  0  0  0  0  0  0
   -1.9674    0.4693   -0.6359 H   0  0  0  0  0  0  0  0  0  0  0  0
   -1.7902   -1.1338    0.0883 H   0  0  0  0  0  0  0  0  0  0  0  0
    1.5049   -0.5197   -1.8214 H   0  0  0  0  0  0  0  0  0  0  0  0
   -1.4421   -1.2131   -2.2889 H   0  0  0  0  0  0  0  0  0  0  0  0
   -0.0162   -1.4558   -3.4328 H   0  0  0  0  0  0  0  0  0  0  0  0
  1  2  2  3
  1  7  1  0
  1  8  1  0
  2  3  1  0
  2  9  1  0
  3  4  1  0
  3  5  1  0
  3 10  1  0
  4 11  1  0
  4 12  1  0
  4 13  1  0
  5  6  2  3
  5 14  1  0
  6 15  1  0
  6 16  1  0
M  END
>  <reaction>  (3) 
rxn_1089

>  <mol_properties>  (3) 
{"2": {"label": "acceptor", "atom_type": "Cs"}, "15": {"label": "a_hydrogen", "atom_type": "H0"}}

>  <type>  (3) 
r2h

$$$$

     RDKit          3D

 30 28  0  0  0  0  0  0  0  0999 V2000
    2.1604    0.7986   -1.7867 C   0  0  0  0  0  0  0  0  0  0  0  0
    1.6237    1.1823   -0.6295 C   0  0  0  0  0  0  0  0  0  0  0  0
    0.1917    1.1988   -0.2863 C   0  0  0  0  0  0  0  0  0  0  0  0
   -0.7878    1.0815   -1.4300 C   0  0  0  0  0  0  0  0  0  0  0  0
   -0.1526    2.1150    0.8133 C   0  0  0  0  0  0  0  0  0  0  0  0
   -1.3237    2.7136    1.0274 C   0  0  0  0  0  0  0  0  0  0  0  0
    3.2340    0.7895   -1.9226 H   0  0  0  0  0  0  0  0  0  0  0  0
    1.5578    0.4962   -2.6338 H   0  0  0  0  0  0  0  0  0  0  0  0
    2.2947    1.4748    0.1747 H   0  0  0  0  0  0  0  0  0  0  0  0
   -1.8081    0.9734   -1.0624 H   0  0  0  0  0  0  0  0  0  0  0  0
   -0.5689    0.2024   -2.0369 H   0  0  0  0  0  0  0  0  0  0  0  0
   -0.7474    1.9646   -2.0731 H   0  0  0  0  0  0  0  0  0  0  0  0
    0.6461    2.2881    1.5310 H   0  0  0  0  0  0  0  0  0  0  0  0
   -2.1652    2.6038    0.3549 H   0  0  0  0  0  0  0  0  0  0  0  0
   -1.4690    3.3512    1.8896 H   0  0  0  0  0  0  0  0  0  0  0  0
   -0.4949   -2.7855   -1.1307 C   0  0  0  0  0  0  0  0  0  0  0  0
    0.3001   -2.1257   -0.2773 C   0  0  0  0  0  0  0  0  0  0  0  0
   -0.1180   -1.2565    0.8080 C   0  0  0  0  0  3  0  0  0  0  0  0
    0.8415   -1.1364    1.9667 C   0  0  0  0  0  0  0  0  0  0  0  0
   -1.5763   -1.2164    1.1823 C   0  0  0  0  0  0  0  0  0  0  0  0
   -0.0757   -3.3837   -1.9289 H   0  0  0  0  0  0  0  0  0  0  0  0
   -1.5749   -2.7593   -1.0547 H   0  0  0  0  0  0  0  0  0  0  0  0
    1.3752   -2.2086   -0.4148 H   0  0  0  0  0  0  0  0  0  0  0  0
    0.0659    0.0121    0.2575 H   0  0  0  0  0  0  0  0  0  0  0  0
    1.8727   -1.0539    1.6175 H   0  0  0  0  0  0  0  0  0  0  0  0
    0.7782   -2.0122    2.6209 H   0  0  0  0  0  0  0  0  0  0  0  0
    0.6118   -0.2561    2.5717 H   0  0  0  0  0  0  0  0  0  0  0  0
   -1.8711   -2.1359    1.6997 H   0  0  0  0  0  0  0  0  0  0  0  0
   -2.2184   -1.1073    0.3076 H   0  0  0  0  0  0  0  0  0  0  0  0
   -1.7747   -0.3755    1.8488 H   0  0  0  0  0  0  0  0  0  0  0  0
  1  2  2  3
  1  7  1  0
  1  8  1  0
  2  3  1  0
  2  9  1  0
  3  4  1  0
  3  5  1  0
  3 24  1  0
  4 10  1  0
  4 11  1  0
  4 12  1  0
  5  6  2  3
  5 13  1  0
  6 14  1  0
  6 15  1  0
 16 17  2  3
 16 21  1  0
 16 22  1  0
 17 18  1  0
 17 23  1  0
 18 19  1  0
 18 20  1  0
 19 25  1  0
 19 26  1  0
 19 27  1  0
 20 28  1  0
 20 29  1  0
 20 30  1  0
M  RAD  1  18   2
M  END
>  <reaction>  (4) 
rxn_1089

>  <mol_properties>  (4) 
{"1": {"label": "*0", "atom_type": "Cd"}, "2": {"label": "*1", "atom_type": "Cs"}, "16": {"label": "*4", "atom_type": "Cd"}, "17": {"label": "*3", "atom_type": "Cs"}, "23": {"label": "*2", "atom_type": "H0"}}

>  <type>  (4) 
ts

$$$$
