
     RDKit          3D

 13 12  0  0  0  0  0  0  0  0999 V2000
    2.2975   -0.6134    0.7685 C   0  0  0  0  0  0  0  0  0  0  0  0
    1.1676   -0.5248    0.3802 C   0  0  0  0  0  0  0  0  0  0  0  0
   -0.2109   -0.3926   -0.0948 C   0  0  0  0  0  0  0  0  0  0  0  0
   -0.2501    0.2584   -1.4808 C   0  0  0  0  0  0  0  0  0  0  0  0
   -1.0633    0.3831    0.9141 C   0  0  0  0  0  0  0  0  0  0  0  0
    3.2999   -0.6974    1.1133 H   0  0  0  0  0  0  0  0  0  0  0  0
   -0.6209   -1.4038   -0.1814 H   0  0  0  0  0  0  0  0  0  0  0  0
    0.3402   -0.3102   -2.1992 H   0  0  0  0  0  0  0  0  0  0  0  0
    0.1511    1.2724   -1.4369 H   0  0  0  0  0  0  0  0  0  0  0  0
   -1.2791    0.3109   -1.8407 H   0  0  0  0  0  0  0  0  0  0  0  0
   -0.6861    1.4008    1.0287 H   0  0  0  0  0  0  0  0  0  0  0  0
   -1.0492   -0.0971    1.8924 H   0  0  0  0  0  0  0  0  0  0  0  0
   -2.0971    0.4363    0.5680 H   0  0  0  0  0  0  0  0  0  0  0  0
  1  2  3  0
  1  6  1  0
  2  3  1  0
  3  4  1  0
  3  5  1  0
  3  7  1  0
  4  8  1  0
  4  9  1  0
  4 10  1  0
  5 11  1  0
  5 12  1  0
  5 13  1  0
M  END
>  <reaction>  (1) 
rxn_1322

>  <mol_properties>  (1) 
{"2": {"label": "donator", "atom_type": "Cs"}, "6": {"label": "d_hydrogen", "atom_type": "H0"}}

>  <type>  (1) 
r1h

$$$$

     RDKit          3D

  7  6  0  0  0  0  0  0  0  0999 V2000
    1.3002    0.7433    2.1279 C   0  0  0  0  0  0  0  0  0  0  0  0
    0.5758    0.3292    1.2319 C   0  0  0  0  0  0  0  0  0  0  0  0
   -0.2057   -0.1176    0.2652 C   0  0  0  0  0  3  0  0  0  0  0  0
   -0.9747   -0.5572   -0.6858 C   0  0  0  0  0  0  0  0  0  0  0  0
    1.9293    1.1030    2.9060 H   0  0  0  0  0  0  0  0  0  0  0  0
   -1.9977   -0.8727   -0.4932 H   0  0  0  0  0  0  0  0  0  0  0  0
   -0.6274   -0.6280   -1.7143 H   0  0  0  0  0  0  0  0  0  0  0  0
  1  2  3  0
  1  5  1  0
  2  3  1  0
  3  4  2  3
  4  6  1  0
  4  7  1  0
M  RAD  1   3   2
M  END
>  <reaction>  (2) 
rxn_1322

>  <mol_properties>  (2) 
{"2": {"label": "acceptor", "atom_type": "Cd"}}

>  <type>  (2) 
r2

$$$$

     RDKit          3D

  8  7  0  0  0  0  0  0  0  0999 V2000
    1.9029    0.9046   -0.2050 C   0  0  0  0  0  0  0  0  0  0  0  0
    0.8517    0.4283    0.1217 C   0  0  0  0  0  0  0  0  0  0  0  0
   -0.3908   -0.1311    0.5404 C   0  0  0  0  0  0  0  0  0  0  0  0
   -1.2847   -0.6576   -0.2899 C   0  0  0  0  0  0  0  0  0  0  0  0
    2.8335    1.3255   -0.5014 H   0  0  0  0  0  0  0  0  0  0  0  0
   -0.5867   -0.1096    1.6074 H   0  0  0  0  0  0  0  0  0  0  0  0
   -2.2126   -1.0686    0.0850 H   0  0  0  0  0  0  0  0  0  0  0  0
   -1.1134   -0.6914   -1.3582 H   0  0  0  0  0  0  0  0  0  0  0  0
  1  2  3  0
  1  5  1  0
  2  3  1  0
  3  4  2  3
  3  6  1  0
  4  7  1  0
  4  8  1  0
M  END
>  <reaction>  (3) 
rxn_1322

>  <mol_properties>  (3) 
{"0": {"label": "a_hydrogen", "atom_type": "H0"}, "3": {"label": "acceptor", "atom_type": "Cd"}}

>  <type>  (3) 
r2h

$$$$

     RDKit          3D

 20 18  0  0  0  0  0  0  0  0999 V2000
   -2.1931    1.8379   -1.3609 C   0  0  0  0  0  0  0  0  0  0  0  0
   -1.1905    1.5817   -0.7501 C   0  0  0  0  0  0  0  0  0  0  0  0
   -0.0031    1.2378   -0.0156 C   0  0  0  0  0  0  0  0  0  0  0  0
    0.1008    1.8936    1.3497 C   0  0  0  0  0  0  0  0  0  0  0  0
    1.2753    1.2860   -0.8332 C   0  0  0  0  0  0  0  0  0  0  0  0
   -3.0765    2.0766   -1.9026 H   0  0  0  0  0  0  0  0  0  0  0  0
   -0.1351    0.0150    0.2538 H   0  0  0  0  0  0  0  0  0  0  0  0
   -0.8204    1.7664    1.9176 H   0  0  0  0  0  0  0  0  0  0  0  0
    0.2961    2.9644    1.2482 H   0  0  0  0  0  0  0  0  0  0  0  0
    0.9218    1.4474    1.9139 H   0  0  0  0  0  0  0  0  0  0  0  0
    1.5426    2.3196   -1.0685 H   0  0  0  0  0  0  0  0  0  0  0  0
    1.1634    0.7401   -1.7696 H   0  0  0  0  0  0  0  0  0  0  0  0
    2.0949    0.8405   -0.2665 H   0  0  0  0  0  0  0  0  0  0  0  0
    1.8282   -2.1526    1.9132 C   0  0  0  0  0  0  0  0  0  0  0  0
    0.8361   -1.8519    1.2958 C   0  0  0  0  0  0  0  0  0  0  0  0
   -0.2496   -1.3718    0.5782 C   0  0  0  0  0  3  0  0  0  0  0  0
   -1.3732   -1.8787    0.1147 C   0  0  0  0  0  0  0  0  0  0  0  0
    2.6908   -2.4493    2.4598 H   0  0  0  0  0  0  0  0  0  0  0  0
   -1.6364   -2.9221    0.2636 H   0  0  0  0  0  0  0  0  0  0  0  0
   -2.0720   -1.2565   -0.4343 H   0  0  0  0  0  0  0  0  0  0  0  0
  1  2  3  0
  1  6  1  0
  2  3  1  0
  3  4  1  0
  3  5  1  0
  3  7  1  0
  4  8  1  0
  4  9  1  0
  4 10  1  0
  5 11  1  0
  5 12  1  0
  5 13  1  0
 14 15  3  0
 14 18  1  0
 15 16  1  0
 16 17  2  3
 17 19  1  0
 17 20  1  0
M  RAD  1  16   2
M  END
>  <reaction>  (4) 
rxn_1322

>  <mol_properties>  (4) 
{"1": {"label": "*0", "atom_type": "Ct"}, "2": {"label": "*1", "atom_type": "Cs"}, "6": {"label": "*2", "atom_type": "H0"}, "14": {"label": "*4", "atom_type": "Ct"}, "15": {"label": "*3", "atom_type": "Cd"}}

>  <type>  (4) 
ts

$$$$
