
     RDKit          3D

 25 26  0  0  0  0  0  0  0  0999 V2000
    2.0298   -1.1515    0.0571 C   0  0  0  0  0  0  0  0  0  0  0  0
    2.2278    0.2445    0.6528 C   0  0  0  0  0  0  0  0  0  0  0  0
    1.2292    1.2625    0.0947 C   0  0  0  0  0  0  0  0  0  0  0  0
   -0.1869    0.7454    0.2762 C   0  0  0  0  0  0  0  0  0  0  0  0
   -1.3415    1.5501   -0.3122 C   0  0  0  0  0  0  0  0  0  0  0  0
   -2.5060    0.5338   -0.4178 C   0  0  0  0  0  0  0  0  0  0  0  0
   -1.8709   -0.8658   -0.2234 C   0  0  0  0  0  0  0  0  0  0  0  0
   -0.3715   -0.6265   -0.3693 C   0  0  0  0  0  0  0  0  0  0  0  0
    0.5898   -1.6500    0.2086 C   0  0  0  0  0  0  0  0  0  0  0  0
    2.2820   -1.1226   -1.0088 H   0  0  0  0  0  0  0  0  0  0  0  0
    2.7243   -1.8549    0.5221 H   0  0  0  0  0  0  0  0  0  0  0  0
    2.1030    0.1885    1.7400 H   0  0  0  0  0  0  0  0  0  0  0  0
    3.2514    0.5819    0.4743 H   0  0  0  0  0  0  0  0  0  0  0  0
    1.3611    2.2304    0.5855 H   0  0  0  0  0  0  0  0  0  0  0  0
    1.4198    1.4194   -0.9737 H   0  0  0  0  0  0  0  0  0  0  0  0
   -0.3675    0.6209    1.3539 H   0  0  0  0  0  0  0  0  0  0  0  0
   -1.5992    2.4249    0.2862 H   0  0  0  0  0  0  0  0  0  0  0  0
   -1.0595    1.9116   -1.3055 H   0  0  0  0  0  0  0  0  0  0  0  0
   -3.2666    0.7244    0.3399 H   0  0  0  0  0  0  0  0  0  0  0  0
   -3.0030    0.6112   -1.3853 H   0  0  0  0  0  0  0  0  0  0  0  0
   -2.2549   -1.6039   -0.9288 H   0  0  0  0  0  0  0  0  0  0  0  0
   -2.0796   -1.2429    0.7821 H   0  0  0  0  0  0  0  0  0  0  0  0
   -0.1432   -0.5121   -1.4391 H   0  0  0  0  0  0  0  0  0  0  0  0
    0.4720   -2.6209   -0.2799 H   0  0  0  0  0  0  0  0  0  0  0  0
    0.3601   -1.7986    1.2704 H   0  0  0  0  0  0  0  0  0  0  0  0
  1  2  1  0
  1  9  1  0
  1 10  1  0
  1 11  1  0
  2  3  1  0
  2 12  1  0
  2 13  1  0
  3  4  1  0
  3 14  1  0
  3 15  1  0
  4  5  1  0
  4  8  1  0
  4 16  1  0
  5  6  1  0
  5 17  1  0
  5 18  1  0
  6  7  1  0
  6 19  1  0
  6 20  1  0
  7  8  1  0
  7 21  1  0
  7 22  1  0
  8  9  1  0
  8 23  1  0
  9 24  1  0
  9 25  1  0
M  END
>  <reaction>  (1) 
rxn_617

>  <mol_properties>  (1) 
{"5": {"label": "donator", "atom_type": "Cs"}, "18": {"label": "d_hydrogen", "atom_type": "H0"}}

>  <type>  (1) 
r1h

$$$$

     RDKit          3D

  8  7  0  0  0  0  0  0  0  0999 V2000
    1.4038   -0.4003    0.0140 C   0  0  0  0  0  0  0  0  0  0  0  0
    0.2804    0.0563    0.4920 C   0  0  0  0  0  3  0  0  0  0  0  0
   -1.0935    0.3323    0.0625 C   0  0  0  0  0  0  0  0  0  0  0  0
    1.4898   -0.7154   -1.0285 H   0  0  0  0  0  0  0  0  0  0  0  0
    2.2990   -0.4891    0.6210 H   0  0  0  0  0  0  0  0  0  0  0  0
   -1.3399    1.3883    0.1900 H   0  0  0  0  0  0  0  0  0  0  0  0
   -1.2285    0.0762   -0.9967 H   0  0  0  0  0  0  0  0  0  0  0  0
   -1.8111   -0.2482    0.6457 H   0  0  0  0  0  0  0  0  0  0  0  0
  1  2  2  3
  1  4  1  0
  1  5  1  0
  2  3  1  0
  3  6  1  0
  3  7  1  0
  3  8  1  0
M  RAD  1   2   2
M  END
>  <reaction>  (2) 
rxn_617

>  <mol_properties>  (2) 
{"1": {"label": "acceptor", "atom_type": "Cd"}}

>  <type>  (2) 
r2

$$$$

     RDKit          3D

  9  8  0  0  0  0  0  0  0  0999 V2000
    1.1303   -0.2933   -0.7510 C   0  0  0  0  0  0  0  0  0  0  0  0
    0.2866    0.4560   -0.0588 C   0  0  0  0  0  0  0  0  0  0  0  0
   -0.9719   -0.0331    0.5823 C   0  0  0  0  0  0  0  0  0  0  0  0
    2.0274    0.1230   -1.1916 H   0  0  0  0  0  0  0  0  0  0  0  0
    0.9532   -1.3530   -0.9023 H   0  0  0  0  0  0  0  0  0  0  0  0
    0.5065    1.5132    0.0659 H   0  0  0  0  0  0  0  0  0  0  0  0
   -0.9526    0.1426    1.6610 H   0  0  0  0  0  0  0  0  0  0  0  0
   -1.1182   -1.1002    0.4106 H   0  0  0  0  0  0  0  0  0  0  0  0
   -1.8412    0.5010    0.1901 H   0  0  0  0  0  0  0  0  0  0  0  0
  1  2  2  3
  1  4  1  0
  1  5  1  0
  2  3  1  0
  2  6  1  0
  3  7  1  0
  3  8  1  0
  3  9  1  0
M  END
>  <reaction>  (3) 
rxn_617

>  <mol_properties>  (3) 
{"1": {"label": "acceptor", "atom_type": "Cd"}, "8": {"label": "a_hydrogen", "atom_type": "H0"}}

>  <type>  (3) 
r2h

$$$$

     RDKit          3D

 33 33  0  0  0  0  0  0  0  0999 V2000
    0.2687    3.9317   -0.3452 C   0  0  0  0  0  0  0  0  0  0  0  0
    0.1741    3.0265    0.6031 C   0  0  0  0  0  3  0  0  0  0  0  0
   -0.7169    2.9431    1.7833 C   0  0  0  0  0  0  0  0  0  0  0  0
   -0.3668    4.8166   -0.3574 H   0  0  0  0  0  0  0  0  0  0  0  0
    0.9856    3.8359   -1.1539 H   0  0  0  0  0  0  0  0  0  0  0  0
   -0.1365    2.9190    2.7088 H   0  0  0  0  0  0  0  0  0  0  0  0
   -1.4011    3.7968    1.8291 H   0  0  0  0  0  0  0  0  0  0  0  0
   -1.3128    2.0271    1.7550 H   0  0  0  0  0  0  0  0  0  0  0  0
   -1.0765   -2.7168   -1.4963 C   0  0  0  0  0  0  0  0  0  0  0  0
   -1.6841   -2.5864   -0.0973 C   0  0  0  0  0  0  0  0  0  0  0  0
   -0.6688   -2.0903    0.9367 C   0  0  0  0  0  0  0  0  0  0  0  0
   -0.0374   -0.7988    0.4505 C   0  0  0  0  0  0  0  0  0  0  0  0
    1.0833   -0.1611    1.2629 C   0  0  0  0  0  0  0  0  0  0  0  0
    1.6837    0.8364    0.2773 C   0  0  0  0  0  0  0  0  0  0  0  0
    1.3525    0.3482   -1.1381 C   0  0  0  0  0  0  0  0  0  0  0  0
    0.6135   -0.9759   -0.9215 C   0  0  0  0  0  0  0  0  0  0  0  0
   -0.3976   -1.4251   -1.9614 C   0  0  0  0  0  0  0  0  0  0  0  0
   -0.3327   -3.5213   -1.4875 H   0  0  0  0  0  0  0  0  0  0  0  0
   -1.8489   -3.0155   -2.2086 H   0  0  0  0  0  0  0  0  0  0  0  0
   -2.5193   -1.8782   -0.1367 H   0  0  0  0  0  0  0  0  0  0  0  0
   -2.1039   -3.5453    0.2150 H   0  0  0  0  0  0  0  0  0  0  0  0
   -1.1536   -1.9517    1.9067 H   0  0  0  0  0  0  0  0  0  0  0  0
    0.1150   -2.8439    1.0774 H   0  0  0  0  0  0  0  0  0  0  0  0
   -0.8354   -0.0498    0.3363 H   0  0  0  0  0  0  0  0  0  0  0  0
    0.7389    0.3112    2.1861 H   0  0  0  0  0  0  0  0  0  0  0  0
    1.8178   -0.9245    1.5456 H   0  0  0  0  0  0  0  0  0  0  0  0
    1.0310    1.9154    0.4544 H   0  0  0  0  0  0  0  0  0  0  0  0
    2.7181    1.1216    0.4594 H   0  0  0  0  0  0  0  0  0  0  0  0
    2.2402    0.2349   -1.7626 H   0  0  0  0  0  0  0  0  0  0  0  0
    0.6953    1.0640   -1.6444 H   0  0  0  0  0  0  0  0  0  0  0  0
    1.3639   -1.7719   -0.8150 H   0  0  0  0  0  0  0  0  0  0  0  0
    0.0784   -1.5773   -2.9336 H   0  0  0  0  0  0  0  0  0  0  0  0
   -1.1488   -0.6378   -2.0949 H   0  0  0  0  0  0  0  0  0  0  0  0
  1  2  2  3
  1  4  1  0
  1  5  1  0
  2  3  1  0
  3  6  1  0
  3  7  1  0
  3  8  1  0
  9 10  1  0
  9 17  1  0
  9 18  1  0
  9 19  1  0
 10 11  1  0
 10 20  1  0
 10 21  1  0
 11 12  1  0
 11 22  1  0
 11 23  1  0
 12 13  1  0
 12 16  1  0
 12 24  1  0
 13 14  1  0
 13 25  1  0
 13 26  1  0
 14 15  1  0
 14 27  1  0
 14 28  1  0
 15 16  1  0
 15 29  1  0
 15 30  1  0
 16 17  1  0
 16 31  1  0
 17 32  1  0
 17 33  1  0
M  RAD  1   2   2
M  END
>  <reaction>  (4) 
rxn_617

>  <mol_properties>  (4) 
{"0": {"label": "*4", "atom_type": "Cd"}, "1": {"label": "*3", "atom_type": "Cd"}, "12": {"label": "*0", "atom_type": "Cs"}, "13": {"label": "*1", "atom_type": "Cs"}, "26": {"label": "*2", "atom_type": "H0"}}

>  <type>  (4) 
ts

$$$$
