
     RDKit          3D

  7  6  0  0  0  0  0  0  0  0999 V2000
   -2.1655    1.0146    0.0087 N   0  0  0  0  0  0  0  0  0  0  0  0
   -1.2095    0.3846    0.0054 C   0  0  0  0  0  0  0  0  0  0  0  0
   -0.0101   -0.4520    0.0013 C   0  0  0  0  0  0  0  0  0  0  0  0
    1.2256    0.3300   -0.0075 C   0  0  0  0  0  0  0  0  0  0  0  0
    2.2088    0.9164   -0.0144 N   0  0  0  0  0  0  0  0  0  0  0  0
   -0.0199   -1.0943    0.8846 H   0  0  0  0  0  0  0  0  0  0  0  0
   -0.0293   -1.0993   -0.8781 H   0  0  0  0  0  0  0  0  0  0  0  0
  1  2  3  0
  2  3  1  0
  3  4  1  0
  3  6  1  0
  3  7  1  0
  4  5  3  0
M  END
>  <reaction>  (1) 
rxn_3164

>  <mol_properties>  (1) 
{"2": {"label": "donator", "atom_type": "Cs"}, "5": {"label": "d_hydrogen", "atom_type": "H0"}}

>  <type>  (1) 
r1h

$$$$

     RDKit          3D

  6  6  0  0  0  0  0  0  0  0999 V2000
    1.9594    0.0134   -0.3734 N   0  0  0  0  0  2  0  0  0  0  0  0
    0.7437    0.0051   -0.0788 C   0  0  0  0  0  0  0  0  0  0  0  0
   -0.0745    1.0868    0.0233 O   0  0  0  0  0  0  0  0  0  0  0  0
   -1.3223    0.5972    0.3682 N   0  0  0  0  0  0  0  0  0  0  0  0
   -1.2899   -0.6150    0.4676 N   0  0  0  0  0  0  0  0  0  0  0  0
   -0.0165   -1.0874    0.2015 O   0  0  0  0  0  0  0  0  0  0  0  0
  1  2  2  0
  2  3  1  0
  2  6  1  0
  3  4  1  0
  4  5  2  0
  5  6  1  0
M  RAD  1   1   2
M  END
>  <reaction>  (2) 
rxn_3164

>  <mol_properties>  (2) 
{"0": {"label": "acceptor", "atom_type": "N3d"}}

>  <type>  (2) 
r2

$$$$

     RDKit          3D

  7  7  0  0  0  0  0  0  0  0999 V2000
    1.6064   -0.4313    0.1905 N   0  0  0  0  0  0  0  0  0  0  0  0
    0.3982   -0.1725    0.0701 C   0  0  0  0  0  0  0  0  0  0  0  0
   -0.6051   -1.0481    0.3497 O   0  0  0  0  0  0  0  0  0  0  0  0
   -1.7906   -0.4044    0.0958 N   0  0  0  0  0  0  0  0  0  0  0  0
   -1.5819    0.7348   -0.2956 N   0  0  0  0  0  0  0  0  0  0  0  0
   -0.2229    0.9708   -0.3436 O   0  0  0  0  0  0  0  0  0  0  0  0
    2.1958    0.3506   -0.0669 H   0  0  0  0  0  0  0  0  0  0  0  0
  1  2  2  3
  1  7  1  0
  2  3  1  0
  2  6  1  0
  3  4  1  0
  4  5  2  0
  5  6  1  0
M  END
>  <reaction>  (3) 
rxn_3164

>  <mol_properties>  (3) 
{"0": {"label": "acceptor", "atom_type": "N3d"}, "6": {"label": "a_hydrogen", "atom_type": "H0"}}

>  <type>  (3) 
r2h

$$$$

     RDKit          3D

 13 12  0  0  0  0  0  0  0  0999 V2000
   -0.2922    1.1730    1.1685 N   0  0  0  0  0  2  0  0  0  0  0  0
    0.7204    1.0353    0.4389 C   0  0  0  0  0  0  0  0  0  0  0  0
    1.7955    1.8558    0.4586 O   0  0  0  0  0  0  0  0  0  0  0  0
    2.6816    1.3646   -0.4846 N   0  0  0  0  0  0  0  0  0  0  0  0
    2.2221    0.3728   -1.0200 N   0  0  0  0  0  0  0  0  0  0  0  0
    0.9722    0.0874   -0.4936 O   0  0  0  0  0  0  0  0  0  0  0  0
   -2.4850   -0.3663   -1.9251 N   0  0  0  0  0  0  0  0  0  0  0  0
   -2.2410   -0.5711   -0.8225 C   0  0  0  0  0  0  0  0  0  0  0  0
   -1.9147   -0.7606    0.5671 C   0  0  0  0  0  0  0  0  0  0  0  0
   -1.2032   -1.9722    0.8820 C   0  0  0  0  0  0  0  0  0  0  0  0
   -0.6025   -2.9077    1.1668 N   0  0  0  0  0  0  0  0  0  0  0  0
   -1.1606    0.2132    0.9084 H   0  0  0  0  0  0  0  0  0  0  0  0
   -2.7669   -0.5914    1.2250 H   0  0  0  0  0  0  0  0  0  0  0  0
  1  2  2  0
  2  3  1  0
  2  6  1  0
  3  4  1  0
  4  5  2  0
  5  6  1  0
  7  8  3  0
  8  9  1  0
  9 10  1  0
  9 12  1  0
  9 13  1  0
 10 11  3  0
M  RAD  1   1   2
M  END
>  <reaction>  (4) 
rxn_3164

>  <mol_properties>  (4) 
{"0": {"label": "*3", "atom_type": "N3d"}, "1": {"label": "*4", "atom_type": "Cd"}, "7": {"label": "*0", "atom_type": "Ct"}, "8": {"label": "*1", "atom_type": "Cs"}, "11": {"label": "*2", "atom_type": "H0"}}

>  <type>  (4) 
ts

$$$$
