
     RDKit          3D

  9  8  0  0  0  0  0  0  0  0999 V2000
    1.1303   -0.2933   -0.7510 C   0  0  0  0  0  0  0  0  0  0  0  0
    0.2866    0.4560   -0.0588 C   0  0  0  0  0  0  0  0  0  0  0  0
   -0.9719   -0.0331    0.5823 C   0  0  0  0  0  0  0  0  0  0  0  0
    2.0274    0.1230   -1.1916 H   0  0  0  0  0  0  0  0  0  0  0  0
    0.9532   -1.3530   -0.9023 H   0  0  0  0  0  0  0  0  0  0  0  0
    0.5065    1.5132    0.0659 H   0  0  0  0  0  0  0  0  0  0  0  0
   -0.9526    0.1426    1.6610 H   0  0  0  0  0  0  0  0  0  0  0  0
   -1.1182   -1.1002    0.4106 H   0  0  0  0  0  0  0  0  0  0  0  0
   -1.8412    0.5010    0.1901 H   0  0  0  0  0  0  0  0  0  0  0  0
  1  2  2  3
  1  4  1  0
  1  5  1  0
  2  3  1  0
  2  6  1  0
  3  7  1  0
  3  8  1  0
  3  9  1  0
M  END
>  <reaction>  (1) 
rxn_1616

>  <mol_properties>  (1) 
{"1": {"label": "donator", "atom_type": "Cd"}, "5": {"label": "d_hydrogen", "atom_type": "H0"}}

>  <type>  (1) 
r1h

$$$$

     RDKit          3D

  8  7  0  0  0  0  0  0  0  0999 V2000
   -2.2129    0.4855    0.7390 C   0  0  0  0  0  0  0  0  0  0  0  0
   -1.2226    0.0526    0.1974 C   0  0  0  0  0  0  0  0  0  0  0  0
   -0.1006   -0.4575   -0.4419 C   0  0  0  0  0  3  0  0  0  0  0  0
    1.1960   -0.1737   -0.0342 C   0  0  0  0  0  0  0  0  0  0  0  0
    2.3329    0.0603    0.3036 C   0  0  0  0  0  0  0  0  0  0  0  0
   -3.0803    0.8696    1.2198 H   0  0  0  0  0  0  0  0  0  0  0  0
   -0.2433   -1.1067   -1.2980 H   0  0  0  0  0  0  0  0  0  0  0  0
    3.3308    0.2700    0.6058 H   0  0  0  0  0  0  0  0  0  0  0  0
  1  2  3  0
  1  6  1  0
  2  3  1  0
  3  4  1  0
  3  7  1  0
  4  5  3  0
  5  8  1  0
M  RAD  1   3   2
M  END
>  <reaction>  (2) 
rxn_1616

>  <mol_properties>  (2) 
{"2": {"label": "acceptor", "atom_type": "Cs"}}

>  <type>  (2) 
r2

$$$$

     RDKit          3D

  9  8  0  0  0  0  0  0  0  0999 V2000
   -2.1022   -0.6873    0.3932 C   0  0  0  0  0  0  0  0  0  0  0  0
   -1.2072   -0.1086   -0.1482 C   0  0  0  0  0  0  0  0  0  0  0  0
   -0.1242    0.6105   -0.8193 C   0  0  0  0  0  0  0  0  0  0  0  0
    1.2067    0.1106   -0.4741 C   0  0  0  0  0  0  0  0  0  0  0  0
    2.3005   -0.2875   -0.2012 C   0  0  0  0  0  0  0  0  0  0  0  0
   -2.8942   -1.2059    0.8778 H   0  0  0  0  0  0  0  0  0  0  0  0
   -0.1862    1.6723   -0.5649 H   0  0  0  0  0  0  0  0  0  0  0  0
   -0.2641    0.5418   -1.9017 H   0  0  0  0  0  0  0  0  0  0  0  0
    3.2709   -0.6459    0.0455 H   0  0  0  0  0  0  0  0  0  0  0  0
  1  2  3  0
  1  6  1  0
  2  3  1  0
  3  4  1  0
  3  7  1  0
  3  8  1  0
  4  5  3  0
  5  9  1  0
M  END
>  <reaction>  (3) 
rxn_1616

>  <mol_properties>  (3) 
{"2": {"label": "acceptor", "atom_type": "Cs"}, "8": {"label": "a_hydrogen", "atom_type": "H0"}}

>  <type>  (3) 
r2h

$$$$

     RDKit          3D

 17 15  0  0  0  0  0  0  0  0999 V2000
   -1.6952   -0.9214    2.1014 C   0  0  0  0  0  0  0  0  0  0  0  0
   -0.9024   -1.0198    1.2082 C   0  0  0  0  0  0  0  0  0  0  0  0
    0.0231   -1.0839    0.1026 C   0  0  0  0  0  0  0  0  0  0  0  0
    1.4229   -1.0828    0.4538 C   0  0  0  0  0  0  0  0  0  0  0  0
    2.5926   -1.0376    0.7103 C   0  0  0  0  0  0  0  0  0  0  0  0
   -2.3919   -0.8513    2.9016 H   0  0  0  0  0  0  0  0  0  0  0  0
   -0.2251   -1.8847   -0.5954 H   0  0  0  0  0  0  0  0  0  0  0  0
    3.6287   -1.0144    0.9483 H   0  0  0  0  0  0  0  0  0  0  0  0
   -0.7656    1.1399   -2.5142 C   0  0  0  0  0  0  0  0  0  0  0  0
   -0.3604    1.2301   -1.2726 C   0  0  0  0  0  3  0  0  0  0  0  0
   -0.0305    2.3290   -0.3473 C   0  0  0  0  0  0  0  0  0  0  0  0
   -0.9467    0.1838   -2.9926 H   0  0  0  0  0  0  0  0  0  0  0  0
   -0.9373    2.0305   -3.1178 H   0  0  0  0  0  0  0  0  0  0  0  0
   -0.1681   -0.0566   -0.5725 H   0  0  0  0  0  0  0  0  0  0  0  0
   -0.6702    2.2910    0.5370 H   0  0  0  0  0  0  0  0  0  0  0  0
   -0.1618    3.3011   -0.8332 H   0  0  0  0  0  0  0  0  0  0  0  0
    1.0036    2.2457   -0.0060 H   0  0  0  0  0  0  0  0  0  0  0  0
  1  2  3  0
  1  6  1  0
  2  3  1  0
  3  4  1  0
  3  7  1  0
  3 14  1  0
  4  5  3  0
  5  8  1  0
  9 10  2  3
  9 12  1  0
  9 13  1  0
 10 11  1  0
 11 15  1  0
 11 16  1  0
 11 17  1  0
M  RAD  1  10   2
M  END
>  <reaction>  (4) 
rxn_1616

>  <mol_properties>  (4) 
{"1": {"label": "*0", "atom_type": "Ct"}, "2": {"label": "*1", "atom_type": "Cs"}, "8": {"label": "*4", "atom_type": "Cd"}, "9": {"label": "*3", "atom_type": "Cd"}, "13": {"label": "*2", "atom_type": "H0"}}

>  <type>  (4) 
ts

$$$$
