
     RDKit          3D

  9  8  0  0  0  0  0  0  0  0999 V2000
    1.1303   -0.2933   -0.7510 C   0  0  0  0  0  0  0  0  0  0  0  0
    0.2866    0.4560   -0.0588 C   0  0  0  0  0  0  0  0  0  0  0  0
   -0.9719   -0.0331    0.5823 C   0  0  0  0  0  0  0  0  0  0  0  0
    2.0274    0.1230   -1.1916 H   0  0  0  0  0  0  0  0  0  0  0  0
    0.9532   -1.3530   -0.9023 H   0  0  0  0  0  0  0  0  0  0  0  0
    0.5065    1.5132    0.0659 H   0  0  0  0  0  0  0  0  0  0  0  0
   -0.9526    0.1426    1.6610 H   0  0  0  0  0  0  0  0  0  0  0  0
   -1.1182   -1.1002    0.4106 H   0  0  0  0  0  0  0  0  0  0  0  0
   -1.8412    0.5010    0.1901 H   0  0  0  0  0  0  0  0  0  0  0  0
  1  2  2  3
  1  4  1  0
  1  5  1  0
  2  3  1  0
  2  6  1  0
  3  7  1  0
  3  8  1  0
  3  9  1  0
M  END
>  <reaction>  (1) 
rxn_741

>  <mol_properties>  (1) 
{"2": {"label": "donator", "atom_type": "Cs"}, "6": {"label": "d_hydrogen", "atom_type": "H0"}}

>  <type>  (1) 
r1h

$$$$

     RDKit          3D

 18 19  0  0  0  0  0  0  0  0999 V2000
   -0.2352   -0.0323    1.4420 C   0  0  0  0  0  3  0  0  0  0  0  0
   -0.1734   -1.1359    0.4256 C   0  0  0  0  0  0  0  0  0  0  0  0
   -1.2562   -0.6812   -0.5734 C   0  0  0  0  0  0  0  0  0  0  0  0
   -1.1576    0.8706   -0.5226 C   0  0  0  0  0  0  0  0  0  0  0  0
   -0.0301    1.1185    0.4994 C   0  0  0  0  0  0  0  0  0  0  0  0
    1.3075    0.7028   -0.1632 C   0  0  0  0  0  0  0  0  0  0  0  0
    1.2087   -0.8504   -0.2141 C   0  0  0  0  0  0  0  0  0  0  0  0
    0.1290   -0.0888    2.4599 H   0  0  0  0  0  0  0  0  0  0  0  0
   -0.2924   -2.1557    0.7848 H   0  0  0  0  0  0  0  0  0  0  0  0
   -2.2417   -1.0206   -0.2534 H   0  0  0  0  0  0  0  0  0  0  0  0
   -1.0769   -1.0814   -1.5727 H   0  0  0  0  0  0  0  0  0  0  0  0
   -0.9249    1.3092   -1.4944 H   0  0  0  0  0  0  0  0  0  0  0  0
   -2.0935    1.3103   -0.1770 H   0  0  0  0  0  0  0  0  0  0  0  0
   -0.0206    2.1196    0.9249 H   0  0  0  0  0  0  0  0  0  0  0  0
    1.4248    1.1518   -1.1514 H   0  0  0  0  0  0  0  0  0  0  0  0
    2.1542    1.0215    0.4460 H   0  0  0  0  0  0  0  0  0  0  0  0
    1.2724   -1.2452   -1.2300 H   0  0  0  0  0  0  0  0  0  0  0  0
    2.0058   -1.3127    0.3695 H   0  0  0  0  0  0  0  0  0  0  0  0
  1  2  1  0
  1  5  1  0
  1  8  1  0
  2  3  1  0
  2  7  1  0
  2  9  1  0
  3  4  1  0
  3 10  1  0
  3 11  1  0
  4  5  1  0
  4 12  1  0
  4 13  1  0
  5  6  1  0
  5 14  1  0
  6  7  1  0
  6 15  1  0
  6 16  1  0
  7 17  1  0
  7 18  1  0
M  RAD  1   1   2
M  END
>  <reaction>  (2) 
rxn_741

>  <mol_properties>  (2) 
{"0": {"label": "acceptor", "atom_type": "Cs"}}

>  <type>  (2) 
r2

$$$$

     RDKit          3D

 19 20  0  0  0  0  0  0  0  0999 V2000
    1.1087   -0.4716   -0.9619 C   0  0  0  0  0  0  0  0  0  0  0  0
    0.9355    1.0407   -0.6470 C   0  0  0  0  0  0  0  0  0  0  0  0
   -0.0085    1.0377    0.5657 C   0  0  0  0  0  0  0  0  0  0  0  0
   -1.4093    0.6181    0.0927 C   0  0  0  0  0  0  0  0  0  0  0  0
   -1.2361   -0.8942   -0.2222 C   0  0  0  0  0  0  0  0  0  0  0  0
    0.2422   -1.1516    0.1099 C   0  0  0  0  0  0  0  0  0  0  0  0
    0.4537   -0.2211    1.3118 C   0  0  0  0  0  0  0  0  0  0  0  0
    2.1524   -0.7752   -0.8653 H   0  0  0  0  0  0  0  0  0  0  0  0
    0.7855   -0.7316   -1.9710 H   0  0  0  0  0  0  0  0  0  0  0  0
    1.8918    1.5001   -0.3916 H   0  0  0  0  0  0  0  0  0  0  0  0
    0.5184    1.6005   -1.4855 H   0  0  0  0  0  0  0  0  0  0  0  0
    0.0038    1.9661    1.1351 H   0  0  0  0  0  0  0  0  0  0  0  0
   -1.7351    1.1944   -0.7746 H   0  0  0  0  0  0  0  0  0  0  0  0
   -2.1465    0.7723    0.8824 H   0  0  0  0  0  0  0  0  0  0  0  0
   -1.4680   -1.1377   -1.2601 H   0  0  0  0  0  0  0  0  0  0  0  0
   -1.8859   -1.5030    0.4087 H   0  0  0  0  0  0  0  0  0  0  0  0
    0.4812   -2.2025    0.2673 H   0  0  0  0  0  0  0  0  0  0  0  0
    1.4942   -0.1701    1.6391 H   0  0  0  0  0  0  0  0  0  0  0  0
   -0.1779   -0.4714    2.1666 H   0  0  0  0  0  0  0  0  0  0  0  0
  1  2  1  0
  1  6  1  0
  1  8  1  0
  1  9  1  0
  2  3  1  0
  2 10  1  0
  2 11  1  0
  3  4  1  0
  3  7  1  0
  3 12  1  0
  4  5  1  0
  4 13  1  0
  4 14  1  0
  5  6  1  0
  5 15  1  0
  5 16  1  0
  6  7  1  0
  6 17  1  0
  7 18  1  0
  7 19  1  0
M  END
>  <reaction>  (3) 
rxn_741

>  <mol_properties>  (3) 
{"0": {"label": "a_hydrogen", "atom_type": "H0"}, "1": {"label": "acceptor", "atom_type": "Cs"}}

>  <type>  (3) 
r2h

$$$$

     RDKit          3D

 27 27  0  0  0  0  0  0  0  0999 V2000
    2.1249   -0.5161   -2.7401 C   0  0  0  0  0  0  0  0  0  0  0  0
    2.3998   -0.8013   -1.4674 C   0  0  0  0  0  0  0  0  0  0  0  0
    2.4842    0.1766   -0.3829 C   0  0  0  0  0  0  0  0  0  0  0  0
    2.0420   -1.2925   -3.4895 H   0  0  0  0  0  0  0  0  0  0  0  0
    1.9828    0.5073   -3.0708 H   0  0  0  0  0  0  0  0  0  0  0  0
    2.5371   -1.8432   -1.1893 H   0  0  0  0  0  0  0  0  0  0  0  0
    1.4036    0.1645    0.3083 H   0  0  0  0  0  0  0  0  0  0  0  0
    2.5495    1.2117   -0.7159 H   0  0  0  0  0  0  0  0  0  0  0  0
    3.2323   -0.0495    0.3750 H   0  0  0  0  0  0  0  0  0  0  0  0
    0.2468    0.3072    1.1378 C   0  0  0  0  0  3  0  0  0  0  0  0
   -0.6647   -0.9023    1.0374 C   0  0  0  0  0  0  0  0  0  0  0  0
   -1.8965   -0.3848    1.8103 C   0  0  0  0  0  0  0  0  0  0  0  0
   -1.9430    1.1237    1.4289 C   0  0  0  0  0  0  0  0  0  0  0  0
   -0.7194    1.2893    0.5022 C   0  0  0  0  0  0  0  0  0  0  0  0
   -1.0280    0.5940   -0.8342 C   0  0  0  0  0  0  0  0  0  0  0  0
   -1.0115   -0.9133   -0.4616 C   0  0  0  0  0  0  0  0  0  0  0  0
    0.6692    0.5547    2.1110 H   0  0  0  0  0  0  0  0  0  0  0  0
   -0.2718   -1.8453    1.4135 H   0  0  0  0  0  0  0  0  0  0  0  0
   -1.7610   -0.5129    2.8852 H   0  0  0  0  0  0  0  0  0  0  0  0
   -2.8045   -0.9204    1.5270 H   0  0  0  0  0  0  0  0  0  0  0  0
   -2.8704    1.4027    0.9253 H   0  0  0  0  0  0  0  0  0  0  0  0
   -1.8473    1.7548    2.3135 H   0  0  0  0  0  0  0  0  0  0  0  0
   -0.3763    2.3178    0.4031 H   0  0  0  0  0  0  0  0  0  0  0  0
   -1.9837    0.9180   -1.2487 H   0  0  0  0  0  0  0  0  0  0  0  0
   -0.2546    0.8131   -1.5721 H   0  0  0  0  0  0  0  0  0  0  0  0
   -1.9681   -1.4038   -0.6479 H   0  0  0  0  0  0  0  0  0  0  0  0
   -0.2505   -1.4418   -1.0356 H   0  0  0  0  0  0  0  0  0  0  0  0
  1  2  2  3
  1  4  1  0
  1  5  1  0
  2  3  1  0
  2  6  1  0
  3  7  1  0
  3  8  1  0
  3  9  1  0
 10 11  1  0
 10 14  1  0
 10 17  1  0
 11 12  1  0
 11 16  1  0
 11 18  1  0
 12 13  1  0
 12 19  1  0
 12 20  1  0
 13 14  1  0
 13 21  1  0
 13 22  1  0
 14 15  1  0
 14 23  1  0
 15 16  1  0
 15 24  1  0
 15 25  1  0
 16 26  1  0
 16 27  1  0
M  RAD  1  10   2
M  END
>  <reaction>  (4) 
rxn_741

>  <mol_properties>  (4) 
{"1": {"label": "*0", "atom_type": "Cd"}, "2": {"label": "*1", "atom_type": "Cs"}, "6": {"label": "*2", "atom_type": "H0"}, "9": {"label": "*3", "atom_type": "Cs"}, "10": {"label": "*4", "atom_type": "Cs"}}

>  <type>  (4) 
ts

$$$$
