
     RDKit          3D

  9  8  0  0  0  0  0  0  0  0999 V2000
    1.1303   -0.2933   -0.7510 C   0  0  0  0  0  0  0  0  0  0  0  0
    0.2866    0.4560   -0.0588 C   0  0  0  0  0  0  0  0  0  0  0  0
   -0.9719   -0.0331    0.5823 C   0  0  0  0  0  0  0  0  0  0  0  0
    2.0274    0.1230   -1.1916 H   0  0  0  0  0  0  0  0  0  0  0  0
    0.9532   -1.3530   -0.9023 H   0  0  0  0  0  0  0  0  0  0  0  0
    0.5065    1.5132    0.0659 H   0  0  0  0  0  0  0  0  0  0  0  0
   -0.9526    0.1426    1.6610 H   0  0  0  0  0  0  0  0  0  0  0  0
   -1.1182   -1.1002    0.4106 H   0  0  0  0  0  0  0  0  0  0  0  0
   -1.8412    0.5010    0.1901 H   0  0  0  0  0  0  0  0  0  0  0  0
  1  2  2  3
  1  4  1  0
  1  5  1  0
  2  3  1  0
  2  6  1  0
  3  7  1  0
  3  8  1  0
  3  9  1  0
M  END
>  <reaction>  (1) 
rxn_739

>  <mol_properties>  (1) 
{"2": {"label": "donator", "atom_type": "Cs"}, "6": {"label": "d_hydrogen", "atom_type": "H0"}}

>  <type>  (1) 
r1h

$$$$

     RDKit          3D

 24 25  0  0  0  0  0  0  0  0999 V2000
   -1.3137    1.2076    0.0526 C   0  0  0  0  0  3  0  0  0  0  0  0
   -2.3065    0.1196    0.2833 C   0  0  0  0  0  0  0  0  0  0  0  0
   -1.7836   -1.0394   -0.5898 C   0  0  0  0  0  0  0  0  0  0  0  0
   -0.2749   -0.7855   -0.6984 C   0  0  0  0  0  0  0  0  0  0  0  0
    0.4655   -1.2917    0.5434 C   0  0  0  0  0  0  0  0  0  0  0  0
    1.8694   -0.7131    0.6745 C   0  0  0  0  0  0  0  0  0  0  0  0
    1.8184    0.8105    0.7119 C   0  0  0  0  0  0  0  0  0  0  0  0
    1.1779    1.3572   -0.5588 C   0  0  0  0  0  0  0  0  0  0  0  0
   -0.2011    0.7528   -0.8316 C   0  0  0  0  0  0  0  0  0  0  0  0
   -1.4277    2.2231    0.4082 H   0  0  0  0  0  0  0  0  0  0  0  0
   -2.3438   -0.1691    1.3425 H   0  0  0  0  0  0  0  0  0  0  0  0
   -3.3295    0.4088    0.0212 H   0  0  0  0  0  0  0  0  0  0  0  0
   -2.2393   -0.9859   -1.5815 H   0  0  0  0  0  0  0  0  0  0  0  0
   -2.0144   -2.0220   -0.1744 H   0  0  0  0  0  0  0  0  0  0  0  0
    0.1520   -1.2674   -1.5825 H   0  0  0  0  0  0  0  0  0  0  0  0
   -0.1033   -1.0202    1.4396 H   0  0  0  0  0  0  0  0  0  0  0  0
    0.4983   -2.3841    0.5177 H   0  0  0  0  0  0  0  0  0  0  0  0
    2.4827   -1.0338   -0.1757 H   0  0  0  0  0  0  0  0  0  0  0  0
    2.3514   -1.1019    1.5744 H   0  0  0  0  0  0  0  0  0  0  0  0
    1.2359    1.1286    1.5834 H   0  0  0  0  0  0  0  0  0  0  0  0
    2.8216    1.2258    0.8314 H   0  0  0  0  0  0  0  0  0  0  0  0
    1.0952    2.4462   -0.5109 H   0  0  0  0  0  0  0  0  0  0  0  0
    1.8331    1.1314   -1.4069 H   0  0  0  0  0  0  0  0  0  0  0  0
   -0.4636    1.0027   -1.8738 H   0  0  0  0  0  0  0  0  0  0  0  0
  1  2  1  0
  1  9  1  0
  1 10  1  0
  2  3  1  0
  2 11  1  0
  2 12  1  0
  3  4  1  0
  3 13  1  0
  3 14  1  0
  4  5  1  0
  4  9  1  0
  4 15  1  0
  5  6  1  0
  5 16  1  0
  5 17  1  0
  6  7  1  0
  6 18  1  0
  6 19  1  0
  7  8  1  0
  7 20  1  0
  7 21  1  0
  8  9  1  0
  8 22  1  0
  8 23  1  0
  9 24  1  0
M  RAD  1   1   2
M  END
>  <reaction>  (2) 
rxn_739

>  <mol_properties>  (2) 
{"0": {"label": "acceptor", "atom_type": "Cs"}}

>  <type>  (2) 
r2

$$$$

     RDKit          3D

 25 26  0  0  0  0  0  0  0  0999 V2000
    2.0298   -1.1515    0.0571 C   0  0  0  0  0  0  0  0  0  0  0  0
    2.2278    0.2445    0.6528 C   0  0  0  0  0  0  0  0  0  0  0  0
    1.2292    1.2625    0.0947 C   0  0  0  0  0  0  0  0  0  0  0  0
   -0.1869    0.7454    0.2762 C   0  0  0  0  0  0  0  0  0  0  0  0
   -1.3415    1.5501   -0.3122 C   0  0  0  0  0  0  0  0  0  0  0  0
   -2.5060    0.5338   -0.4178 C   0  0  0  0  0  0  0  0  0  0  0  0
   -1.8709   -0.8658   -0.2234 C   0  0  0  0  0  0  0  0  0  0  0  0
   -0.3715   -0.6265   -0.3693 C   0  0  0  0  0  0  0  0  0  0  0  0
    0.5898   -1.6500    0.2086 C   0  0  0  0  0  0  0  0  0  0  0  0
    2.2820   -1.1226   -1.0088 H   0  0  0  0  0  0  0  0  0  0  0  0
    2.7243   -1.8549    0.5221 H   0  0  0  0  0  0  0  0  0  0  0  0
    2.1030    0.1885    1.7400 H   0  0  0  0  0  0  0  0  0  0  0  0
    3.2514    0.5819    0.4743 H   0  0  0  0  0  0  0  0  0  0  0  0
    1.3611    2.2304    0.5855 H   0  0  0  0  0  0  0  0  0  0  0  0
    1.4198    1.4194   -0.9737 H   0  0  0  0  0  0  0  0  0  0  0  0
   -0.3675    0.6209    1.3539 H   0  0  0  0  0  0  0  0  0  0  0  0
   -1.5992    2.4249    0.2862 H   0  0  0  0  0  0  0  0  0  0  0  0
   -1.0595    1.9116   -1.3055 H   0  0  0  0  0  0  0  0  0  0  0  0
   -3.2666    0.7244    0.3399 H   0  0  0  0  0  0  0  0  0  0  0  0
   -3.0030    0.6112   -1.3853 H   0  0  0  0  0  0  0  0  0  0  0  0
   -2.2549   -1.6039   -0.9288 H   0  0  0  0  0  0  0  0  0  0  0  0
   -2.0796   -1.2429    0.7821 H   0  0  0  0  0  0  0  0  0  0  0  0
   -0.1432   -0.5121   -1.4391 H   0  0  0  0  0  0  0  0  0  0  0  0
    0.4720   -2.6209   -0.2799 H   0  0  0  0  0  0  0  0  0  0  0  0
    0.3601   -1.7986    1.2704 H   0  0  0  0  0  0  0  0  0  0  0  0
  1  2  1  0
  1  9  1  0
  1 10  1  0
  1 11  1  0
  2  3  1  0
  2 12  1  0
  2 13  1  0
  3  4  1  0
  3 14  1  0
  3 15  1  0
  4  5  1  0
  4  8  1  0
  4 16  1  0
  5  6  1  0
  5 17  1  0
  5 18  1  0
  6  7  1  0
  6 19  1  0
  6 20  1  0
  7  8  1  0
  7 21  1  0
  7 22  1  0
  8  9  1  0
  8 23  1  0
  9 24  1  0
  9 25  1  0
M  END
>  <reaction>  (3) 
rxn_739

>  <mol_properties>  (3) 
{"0": {"label": "a_hydrogen", "atom_type": "H0"}, "1": {"label": "acceptor", "atom_type": "Cs"}}

>  <type>  (3) 
r2h

$$$$

     RDKit          3D

 33 33  0  0  0  0  0  0  0  0999 V2000
    2.2686    1.2712   -2.4471 C   0  0  0  0  0  0  0  0  0  0  0  0
    2.3734    0.3963   -1.4442 C   0  0  0  0  0  0  0  0  0  0  0  0
    2.6996    0.7295   -0.0628 C   0  0  0  0  0  0  0  0  0  0  0  0
    1.9812    0.9593   -3.4426 H   0  0  0  0  0  0  0  0  0  0  0  0
    2.4787    2.3252   -2.3000 H   0  0  0  0  0  0  0  0  0  0  0  0
    2.1515   -0.6484   -1.6489 H   0  0  0  0  0  0  0  0  0  0  0  0
    1.5810    0.8663    0.6045 H   0  0  0  0  0  0  0  0  0  0  0  0
    3.1638    1.7048    0.0750 H   0  0  0  0  0  0  0  0  0  0  0  0
    3.2087   -0.0518    0.4968 H   0  0  0  0  0  0  0  0  0  0  0  0
    0.3984    1.1435    1.2797 C   0  0  0  0  0  3  0  0  0  0  0  0
   -0.2644    2.2563    0.4765 C   0  0  0  0  0  0  0  0  0  0  0  0
   -1.4669    1.5896   -0.2285 C   0  0  0  0  0  0  0  0  0  0  0  0
   -1.1040    0.1089   -0.2394 C   0  0  0  0  0  0  0  0  0  0  0  0
   -2.1908   -0.9202   -0.4899 C   0  0  0  0  0  0  0  0  0  0  0  0
   -1.6048   -2.3284   -0.3476 C   0  0  0  0  0  0  0  0  0  0  0  0
   -0.8965   -2.5354    0.9939 C   0  0  0  0  0  0  0  0  0  0  0  0
    0.1678   -1.4679    1.2631 C   0  0  0  0  0  0  0  0  0  0  0  0
   -0.4594   -0.0884    1.1339 C   0  0  0  0  0  0  0  0  0  0  0  0
    0.7667    1.3885    2.2738 H   0  0  0  0  0  0  0  0  0  0  0  0
   -0.5689    3.0941    1.1069 H   0  0  0  0  0  0  0  0  0  0  0  0
    0.4332    2.6612   -0.2637 H   0  0  0  0  0  0  0  0  0  0  0  0
   -1.6468    1.9939   -1.2252 H   0  0  0  0  0  0  0  0  0  0  0  0
   -2.3797    1.7372    0.3571 H   0  0  0  0  0  0  0  0  0  0  0  0
   -0.3166   -0.0360   -0.9905 H   0  0  0  0  0  0  0  0  0  0  0  0
   -2.9985   -0.7794    0.2383 H   0  0  0  0  0  0  0  0  0  0  0  0
   -2.6318   -0.7935   -1.4820 H   0  0  0  0  0  0  0  0  0  0  0  0
   -0.8857   -2.4919   -1.1581 H   0  0  0  0  0  0  0  0  0  0  0  0
   -2.3887   -3.0790   -0.4712 H   0  0  0  0  0  0  0  0  0  0  0  0
   -1.6401   -2.5015    1.7980 H   0  0  0  0  0  0  0  0  0  0  0  0
   -0.4487   -3.5312    1.0260 H   0  0  0  0  0  0  0  0  0  0  0  0
    0.6075   -1.6103    2.2536 H   0  0  0  0  0  0  0  0  0  0  0  0
    0.9811   -1.5656    0.5360 H   0  0  0  0  0  0  0  0  0  0  0  0
   -1.2680   -0.0256    1.8824 H   0  0  0  0  0  0  0  0  0  0  0  0
  1  2  2  3
  1  4  1  0
  1  5  1  0
  2  3  1  0
  2  6  1  0
  3  7  1  0
  3  8  1  0
  3  9  1  0
 10 11  1  0
 10 18  1  0
 10 19  1  0
 11 12  1  0
 11 20  1  0
 11 21  1  0
 12 13  1  0
 12 22  1  0
 12 23  1  0
 13 14  1  0
 13 18  1  0
 13 24  1  0
 14 15  1  0
 14 25  1  0
 14 26  1  0
 15 16  1  0
 15 27  1  0
 15 28  1  0
 16 17  1  0
 16 29  1  0
 16 30  1  0
 17 18  1  0
 17 31  1  0
 17 32  1  0
 18 33  1  0
M  RAD  1  10   2
M  END
>  <reaction>  (4) 
rxn_739

>  <mol_properties>  (4) 
{"1": {"label": "*0", "atom_type": "Cd"}, "2": {"label": "*1", "atom_type": "Cs"}, "6": {"label": "*2", "atom_type": "H0"}, "9": {"label": "*3", "atom_type": "Cs"}, "17": {"label": "*4", "atom_type": "Cs"}}

>  <type>  (4) 
ts

$$$$
