
     RDKit          3D

 14 13  0  0  0  0  0  0  0  0999 V2000
   -0.7647   -1.2352   -0.0349 C   0  0  0  0  0  0  0  0  0  0  0  0
    0.0570   -0.0126    0.3624 C   0  0  0  0  0  0  0  0  0  0  0  0
    1.4161   -0.0194   -0.3308 C   0  0  0  0  0  0  0  0  0  0  0  0
   -0.7022    1.2765    0.0629 C   0  0  0  0  0  0  0  0  0  0  0  0
   -0.2387   -2.1618    0.2040 H   0  0  0  0  0  0  0  0  0  0  0  0
   -0.9625   -1.2316   -1.1108 H   0  0  0  0  0  0  0  0  0  0  0  0
   -1.7273   -1.2512    0.4806 H   0  0  0  0  0  0  0  0  0  0  0  0
    0.2295   -0.0590    1.4432 H   0  0  0  0  0  0  0  0  0  0  0  0
    1.2933    0.0260   -1.4168 H   0  0  0  0  0  0  0  0  0  0  0  0
    2.0206    0.8381   -0.0279 H   0  0  0  0  0  0  0  0  0  0  0  0
    1.9767   -0.9268   -0.0966 H   0  0  0  0  0  0  0  0  0  0  0  0
   -1.6639    1.3001    0.5798 H   0  0  0  0  0  0  0  0  0  0  0  0
   -0.8977    1.3664   -1.0096 H   0  0  0  0  0  0  0  0  0  0  0  0
   -0.1313    2.1545    0.3722 H   0  0  0  0  0  0  0  0  0  0  0  0
  1  2  1  0
  1  5  1  0
  1  6  1  0
  1  7  1  0
  2  3  1  0
  2  4  1  0
  2  8  1  0
  3  9  1  0
  3 10  1  0
  3 11  1  0
  4 12  1  0
  4 13  1  0
  4 14  1  0
M  END
>  <reaction>  (1) 
rxn_486

>  <mol_properties>  (1) 
{"1": {"label": "donator", "atom_type": "Cs"}, "7": {"label": "d_hydrogen", "atom_type": "H0"}}

>  <type>  (1) 
r1h

$$$$

     RDKit          3D

  3  2  0  0  0  0  0  0  0  0999 V2000
    0.0002    0.4233    0.0000 N   0  0  0  0  0  2  0  0  0  0  0  0
   -0.8051   -0.2112    0.0000 H   0  0  0  0  0  0  0  0  0  0  0  0
    0.8049   -0.2121    0.0000 H   0  0  0  0  0  0  0  0  0  0  0  0
  1  2  1  0
  1  3  1  0
M  RAD  1   1   2
M  END
>  <reaction>  (2) 
rxn_486

>  <mol_properties>  (2) 
{"0": {"label": "acceptor", "atom_type": "N3s"}}

>  <type>  (2) 
r2

$$$$

     RDKit          3D

  4  3  0  0  0  0  0  0  0  0999 V2000
    0.0006   -0.0009    0.2762 N   0  0  0  0  0  0  0  0  0  0  0  0
   -0.4188    0.8439   -0.0883 H   0  0  0  0  0  0  0  0  0  0  0  0
   -0.5215   -0.7840   -0.0936 H   0  0  0  0  0  0  0  0  0  0  0  0
    0.9397   -0.0590   -0.0943 H   0  0  0  0  0  0  0  0  0  0  0  0
  1  2  1  0
  1  3  1  0
  1  4  1  0
M  END
>  <reaction>  (3) 
rxn_486

>  <mol_properties>  (3) 
{"0": {"label": "acceptor", "atom_type": "N3s"}, "3": {"label": "a_hydrogen", "atom_type": "H0"}}

>  <type>  (3) 
r2h

$$$$

     RDKit          3D

 17 15  0  0  0  0  0  0  0  0999 V2000
    1.9231   -0.9720    0.8320 N   0  0  0  0  0  2  0  0  0  0  0  0
    1.5479   -1.9226    0.8662 H   0  0  0  0  0  0  0  0  0  0  0  0
    2.4516   -0.9490   -0.0430 H   0  0  0  0  0  0  0  0  0  0  0  0
   -0.3363   -0.2352   -1.5257 C   0  0  0  0  0  0  0  0  0  0  0  0
   -0.2515    0.1648   -0.0684 C   0  0  0  0  0  0  0  0  0  0  0  0
   -0.0534    1.6507    0.1400 C   0  0  0  0  0  0  0  0  0  0  0  0
   -1.3593   -0.4185    0.7823 C   0  0  0  0  0  0  0  0  0  0  0  0
    0.5246    0.1300   -2.0895 H   0  0  0  0  0  0  0  0  0  0  0  0
   -1.2361    0.1862   -1.9879 H   0  0  0  0  0  0  0  0  0  0  0  0
   -0.3844   -1.3201   -1.6391 H   0  0  0  0  0  0  0  0  0  0  0  0
    0.7892   -0.3353    0.3893 H   0  0  0  0  0  0  0  0  0  0  0  0
   -0.9362    2.2057   -0.1972 H   0  0  0  0  0  0  0  0  0  0  0  0
    0.1070    1.8819    1.1942 H   0  0  0  0  0  0  0  0  0  0  0  0
    0.8063    2.0194   -0.4226 H   0  0  0  0  0  0  0  0  0  0  0  0
   -1.4258   -1.5019    0.6619 H   0  0  0  0  0  0  0  0  0  0  0  0
   -2.3277    0.0064    0.4954 H   0  0  0  0  0  0  0  0  0  0  0  0
   -1.1997   -0.2014    1.8399 H   0  0  0  0  0  0  0  0  0  0  0  0
  1  2  1  0
  1  3  1  0
  4  5  1  0
  4  8  1  0
  4  9  1  0
  4 10  1  0
  5  6  1  0
  5  7  1  0
  5 11  1  0
  6 12  1  0
  6 13  1  0
  6 14  1  0
  7 15  1  0
  7 16  1  0
  7 17  1  0
M  RAD  1   1   2
M  END
>  <reaction>  (4) 
rxn_486

>  <mol_properties>  (4) 
{"0": {"label": "*3", "atom_type": "N3s"}, "1": {"label": "*4", "atom_type": "H0"}, "3": {"label": "*0", "atom_type": "Cs"}, "4": {"label": "*1", "atom_type": "Cs"}, "10": {"label": "*2", "atom_type": "H0"}}

>  <type>  (4) 
ts

$$$$
