
     RDKit          3D

 22 23  0  0  0  0  0  0  0  0999 V2000
   -2.1093   -0.3263    0.3079 C   0  0  0  0  0  0  0  0  0  0  0  0
   -1.3270    0.9803    0.4115 C   0  0  0  0  0  0  0  0  0  0  0  0
   -0.1818    0.8289   -0.6044 C   0  0  0  0  0  0  0  0  0  0  0  0
    1.1682    1.3904   -0.1341 C   0  0  0  0  0  0  0  0  0  0  0  0
    1.8508    0.2041    0.5479 C   0  0  0  0  0  0  0  0  0  0  0  0
    1.4982   -0.9663   -0.3710 C   0  0  0  0  0  0  0  0  0  0  0  0
    0.0340   -0.7124   -0.7594 C   0  0  0  0  0  0  0  0  0  0  0  0
   -0.9986   -1.3650    0.1756 C   0  0  0  0  0  0  0  0  0  0  0  0
   -2.7686   -0.5042    1.1589 H   0  0  0  0  0  0  0  0  0  0  0  0
   -2.7285   -0.3223   -0.5943 H   0  0  0  0  0  0  0  0  0  0  0  0
   -1.9339    1.8682    0.2289 H   0  0  0  0  0  0  0  0  0  0  0  0
   -0.9144    1.0729    1.4218 H   0  0  0  0  0  0  0  0  0  0  0  0
   -0.4804    1.2763   -1.5535 H   0  0  0  0  0  0  0  0  0  0  0  0
    1.7667    1.7058   -0.9931 H   0  0  0  0  0  0  0  0  0  0  0  0
    1.0540    2.2578    0.5189 H   0  0  0  0  0  0  0  0  0  0  0  0
    1.4197    0.0438    1.5410 H   0  0  0  0  0  0  0  0  0  0  0  0
    2.9248    0.3413    0.6788 H   0  0  0  0  0  0  0  0  0  0  0  0
    2.1362   -0.9329   -1.2584 H   0  0  0  0  0  0  0  0  0  0  0  0
    1.6421   -1.9421    0.0966 H   0  0  0  0  0  0  0  0  0  0  0  0
   -0.1575   -1.0299   -1.7854 H   0  0  0  0  0  0  0  0  0  0  0  0
   -1.3459   -2.3310   -0.1933 H   0  0  0  0  0  0  0  0  0  0  0  0
   -0.5489   -1.5373    1.1593 H   0  0  0  0  0  0  0  0  0  0  0  0
  1  2  1  0
  1  8  1  0
  1  9  1  0
  1 10  1  0
  2  3  1  0
  2 11  1  0
  2 12  1  0
  3  4  1  0
  3  7  1  0
  3 13  1  0
  4  5  1  0
  4 14  1  0
  4 15  1  0
  5  6  1  0
  5 16  1  0
  5 17  1  0
  6  7  1  0
  6 18  1  0
  6 19  1  0
  7  8  1  0
  7 20  1  0
  8 21  1  0
  8 22  1  0
M  END
>  <reaction>  (1) 
rxn_573

>  <mol_properties>  (1) 
{"2": {"label": "donator", "atom_type": "Cs"}, "12": {"label": "d_hydrogen", "atom_type": "H0"}}

>  <type>  (1) 
r1h

$$$$

     RDKit          3D

  8  7  0  0  0  0  0  0  0  0999 V2000
    1.4038   -0.4003    0.0140 C   0  0  0  0  0  0  0  0  0  0  0  0
    0.2804    0.0563    0.4920 C   0  0  0  0  0  3  0  0  0  0  0  0
   -1.0935    0.3323    0.0625 C   0  0  0  0  0  0  0  0  0  0  0  0
    1.4898   -0.7154   -1.0285 H   0  0  0  0  0  0  0  0  0  0  0  0
    2.2990   -0.4891    0.6210 H   0  0  0  0  0  0  0  0  0  0  0  0
   -1.3399    1.3883    0.1900 H   0  0  0  0  0  0  0  0  0  0  0  0
   -1.2285    0.0762   -0.9967 H   0  0  0  0  0  0  0  0  0  0  0  0
   -1.8111   -0.2482    0.6457 H   0  0  0  0  0  0  0  0  0  0  0  0
  1  2  2  3
  1  4  1  0
  1  5  1  0
  2  3  1  0
  3  6  1  0
  3  7  1  0
  3  8  1  0
M  RAD  1   2   2
M  END
>  <reaction>  (2) 
rxn_573

>  <mol_properties>  (2) 
{"1": {"label": "acceptor", "atom_type": "Cd"}}

>  <type>  (2) 
r2

$$$$

     RDKit          3D

  9  8  0  0  0  0  0  0  0  0999 V2000
    1.1303   -0.2933   -0.7510 C   0  0  0  0  0  0  0  0  0  0  0  0
    0.2866    0.4560   -0.0588 C   0  0  0  0  0  0  0  0  0  0  0  0
   -0.9719   -0.0331    0.5823 C   0  0  0  0  0  0  0  0  0  0  0  0
    2.0274    0.1230   -1.1916 H   0  0  0  0  0  0  0  0  0  0  0  0
    0.9532   -1.3530   -0.9023 H   0  0  0  0  0  0  0  0  0  0  0  0
    0.5065    1.5132    0.0659 H   0  0  0  0  0  0  0  0  0  0  0  0
   -0.9526    0.1426    1.6610 H   0  0  0  0  0  0  0  0  0  0  0  0
   -1.1182   -1.1002    0.4106 H   0  0  0  0  0  0  0  0  0  0  0  0
   -1.8412    0.5010    0.1901 H   0  0  0  0  0  0  0  0  0  0  0  0
  1  2  2  3
  1  4  1  0
  1  5  1  0
  2  3  1  0
  2  6  1  0
  3  7  1  0
  3  8  1  0
  3  9  1  0
M  END
>  <reaction>  (3) 
rxn_573

>  <mol_properties>  (3) 
{"1": {"label": "acceptor", "atom_type": "Cd"}, "8": {"label": "a_hydrogen", "atom_type": "H0"}}

>  <type>  (3) 
r2h

$$$$

     RDKit          3D

 30 30  0  0  0  0  0  0  0  0999 V2000
   -2.8146    0.1898    1.3431 C   0  0  0  0  0  0  0  0  0  0  0  0
   -2.1583   -0.7966    0.7743 C   0  0  0  0  0  3  0  0  0  0  0  0
   -2.5860   -2.1618    0.3922 C   0  0  0  0  0  0  0  0  0  0  0  0
   -3.8618    0.0942    1.6287 H   0  0  0  0  0  0  0  0  0  0  0  0
   -2.3383    1.1423    1.5526 H   0  0  0  0  0  0  0  0  0  0  0  0
   -1.9805   -2.9153    0.9017 H   0  0  0  0  0  0  0  0  0  0  0  0
   -3.6371   -2.3380    0.6440 H   0  0  0  0  0  0  0  0  0  0  0  0
   -2.4595   -2.3212   -0.6815 H   0  0  0  0  0  0  0  0  0  0  0  0
    0.6715   -0.5513   -2.1854 C   0  0  0  0  0  0  0  0  0  0  0  0
    0.9037   -1.1884   -0.8146 C   0  0  0  0  0  0  0  0  0  0  0  0
    0.3733   -0.1579    0.1751 C   0  0  0  0  0  0  0  0  0  0  0  0
    1.1426    0.0605    1.4700 C   0  0  0  0  0  0  0  0  0  0  0  0
    1.9994    1.2975    1.1769 C   0  0  0  0  0  0  0  0  0  0  0  0
    1.0642    2.1839    0.3503 C   0  0  0  0  0  0  0  0  0  0  0  0
    0.3144    1.1993   -0.5593 C   0  0  0  0  0  0  0  0  0  0  0  0
    0.9633    0.9256   -1.9252 C   0  0  0  0  0  0  0  0  0  0  0  0
    1.2906   -0.9840   -2.9724 H   0  0  0  0  0  0  0  0  0  0  0  0
   -0.3747   -0.6751   -2.4807 H   0  0  0  0  0  0  0  0  0  0  0  0
    0.4283   -2.1659   -0.7049 H   0  0  0  0  0  0  0  0  0  0  0  0
    1.9781   -1.3376   -0.6531 H   0  0  0  0  0  0  0  0  0  0  0  0
   -0.8087   -0.4967    0.4600 H   0  0  0  0  0  0  0  0  0  0  0  0
    0.4509    0.2785    2.2899 H   0  0  0  0  0  0  0  0  0  0  0  0
    1.7288   -0.8122    1.7631 H   0  0  0  0  0  0  0  0  0  0  0  0
    2.8684    1.0105    0.5770 H   0  0  0  0  0  0  0  0  0  0  0  0
    2.3726    1.7875    2.0773 H   0  0  0  0  0  0  0  0  0  0  0  0
    0.3603    2.6893    1.0171 H   0  0  0  0  0  0  0  0  0  0  0  0
    1.5904    2.9565   -0.2131 H   0  0  0  0  0  0  0  0  0  0  0  0
   -0.7207    1.5146   -0.7130 H   0  0  0  0  0  0  0  0  0  0  0  0
    0.5923    1.5878   -2.7087 H   0  0  0  0  0  0  0  0  0  0  0  0
    2.0463    1.0747   -1.8559 H   0  0  0  0  0  0  0  0  0  0  0  0
  1  2  2  3
  1  4  1  0
  1  5  1  0
  2  3  1  0
  3  6  1  0
  3  7  1  0
  3  8  1  0
  9 10  1  0
  9 16  1  0
  9 17  1  0
  9 18  1  0
 10 11  1  0
 10 19  1  0
 10 20  1  0
 11 12  1  0
 11 15  1  0
 11 21  1  0
 12 13  1  0
 12 22  1  0
 12 23  1  0
 13 14  1  0
 13 24  1  0
 13 25  1  0
 14 15  1  0
 14 26  1  0
 14 27  1  0
 15 16  1  0
 15 28  1  0
 16 29  1  0
 16 30  1  0
M  RAD  1   2   2
M  END
>  <reaction>  (4) 
rxn_573

>  <mol_properties>  (4) 
{"0": {"label": "*4", "atom_type": "Cd"}, "1": {"label": "*3", "atom_type": "Cd"}, "10": {"label": "*1", "atom_type": "Cs"}, "14": {"label": "*0", "atom_type": "Cs"}, "20": {"label": "*2", "atom_type": "H0"}}

>  <type>  (4) 
ts

$$$$
