
     RDKit          3D

  7  6  0  0  0  0  0  0  0  0999 V2000
    1.2985   -0.0065   -0.2721 C   0  0  0  0  0  0  0  0  0  0  0  0
    0.0000    0.0000   -0.2926 C   0  0  0  0  0  0  0  0  0  0  0  0
   -1.2985    0.0065   -0.3130 C   0  0  0  0  0  0  0  0  0  0  0  0
    1.8444   -0.7551    0.2895 H   0  0  0  0  0  0  0  0  0  0  0  0
    1.8693    0.7364   -0.8162 H   0  0  0  0  0  0  0  0  0  0  0  0
   -1.8658    0.5623    0.4239 H   0  0  0  0  0  0  0  0  0  0  0  0
   -1.8479   -0.5437   -1.0675 H   0  0  0  0  0  0  0  0  0  0  0  0
  1  2  2  0
  1  4  1  0
  1  5  1  0
  2  3  2  0
  3  6  1  0
  3  7  1  0
M  END
>  <reaction>  (1) 
rxn_1791

>  <mol_properties>  (1) 
{"0": {"label": "donator", "atom_type": "Cd"}, "3": {"label": "d_hydrogen", "atom_type": "H0"}}

>  <type>  (1) 
r1h

$$$$

     RDKit          3D

  8  7  0  0  0  0  0  0  0  0999 V2000
    1.4098   -0.3617   -0.1137 C   0  0  0  0  0  0  0  0  0  0  0  0
    0.1829   -0.1715   -0.5109 C   0  0  0  0  0  3  0  0  0  0  0  0
   -1.1129    0.2669    0.0153 C   0  0  0  0  0  0  0  0  0  0  0  0
    2.1881   -0.7137   -0.7829 H   0  0  0  0  0  0  0  0  0  0  0  0
    1.7065   -0.1722    0.9205 H   0  0  0  0  0  0  0  0  0  0  0  0
   -1.8665   -0.5154   -0.0958 H   0  0  0  0  0  0  0  0  0  0  0  0
   -1.0351    0.5163    1.0818 H   0  0  0  0  0  0  0  0  0  0  0  0
   -1.4726    1.1513   -0.5143 H   0  0  0  0  0  0  0  0  0  0  0  0
  1  2  2  3
  1  4  1  0
  1  5  1  0
  2  3  1  0
  3  6  1  0
  3  7  1  0
  3  8  1  0
M  RAD  1   2   2
M  END
>  <reaction>  (2) 
rxn_1791

>  <mol_properties>  (2) 
{"1": {"label": "acceptor", "atom_type": "Cd"}}

>  <type>  (2) 
r2

$$$$

     RDKit          3D

  9  8  0  0  0  0  0  0  0  0999 V2000
    1.1303   -0.2933   -0.7510 C   0  0  0  0  0  0  0  0  0  0  0  0
    0.2866    0.4560   -0.0588 C   0  0  0  0  0  0  0  0  0  0  0  0
   -0.9719   -0.0331    0.5823 C   0  0  0  0  0  0  0  0  0  0  0  0
    2.0274    0.1230   -1.1916 H   0  0  0  0  0  0  0  0  0  0  0  0
    0.9532   -1.3530   -0.9023 H   0  0  0  0  0  0  0  0  0  0  0  0
    0.5065    1.5132    0.0659 H   0  0  0  0  0  0  0  0  0  0  0  0
   -0.9526    0.1426    1.6610 H   0  0  0  0  0  0  0  0  0  0  0  0
   -1.1182   -1.1002    0.4106 H   0  0  0  0  0  0  0  0  0  0  0  0
   -1.8412    0.5010    0.1901 H   0  0  0  0  0  0  0  0  0  0  0  0
  1  2  2  3
  1  4  1  0
  1  5  1  0
  2  3  1  0
  2  6  1  0
  3  7  1  0
  3  8  1  0
  3  9  1  0
M  END
>  <reaction>  (3) 
rxn_1791

>  <mol_properties>  (3) 
{"0": {"label": "a_hydrogen", "atom_type": "H0"}, "2": {"label": "acceptor", "atom_type": "Cd"}}

>  <type>  (3) 
r2h

$$$$

     RDKit          3D

 15 13  0  0  0  0  0  0  0  0999 V2000
    1.2751    0.6574   -0.1981 C   0  0  0  0  0  0  0  0  0  0  0  0
    0.9227    0.8850   -1.4073 C   0  0  0  0  0  0  0  0  0  0  0  0
    0.4834    1.0784   -2.6270 C   0  0  0  0  0  0  0  0  0  0  0  0
    0.4310    0.0594    0.5513 H   0  0  0  0  0  0  0  0  0  0  0  0
    2.2040    0.9021    0.2959 H   0  0  0  0  0  0  0  0  0  0  0  0
   -0.0459    1.9855   -2.8917 H   0  0  0  0  0  0  0  0  0  0  0  0
    0.6592    0.3464   -3.4056 H   0  0  0  0  0  0  0  0  0  0  0  0
   -0.2005   -0.8409    2.5571 C   0  0  0  0  0  0  0  0  0  0  0  0
   -0.5286   -0.5919    1.3117 C   0  0  0  0  0  3  0  0  0  0  0  0
   -1.7367   -0.8588    0.5040 C   0  0  0  0  0  0  0  0  0  0  0  0
    0.7628   -0.5535    2.9631 H   0  0  0  0  0  0  0  0  0  0  0  0
   -0.8874   -1.3481    3.2326 H   0  0  0  0  0  0  0  0  0  0  0  0
   -1.4928   -1.4782   -0.3618 H   0  0  0  0  0  0  0  0  0  0  0  0
   -2.4992   -1.3727    1.0970 H   0  0  0  0  0  0  0  0  0  0  0  0
   -2.1605    0.0734    0.1243 H   0  0  0  0  0  0  0  0  0  0  0  0
  1  2  2  0
  1  4  1  0
  1  5  1  0
  2  3  2  0
  3  6  1  0
  3  7  1  0
  8  9  2  3
  8 11  1  0
  8 12  1  0
  9 10  1  0
 10 13  1  0
 10 14  1  0
 10 15  1  0
M  RAD  1   9   2
M  END
>  <reaction>  (4) 
rxn_1791

>  <mol_properties>  (4) 
{"0": {"label": "*1", "atom_type": "Cd"}, "1": {"label": "*0", "atom_type": "Cdd"}, "3": {"label": "*2", "atom_type": "H0"}, "7": {"label": "*4", "atom_type": "Cd"}, "8": {"label": "*3", "atom_type": "Cd"}}

>  <type>  (4) 
ts

$$$$
