
     RDKit          3D

 16 15  0  0  0  0  0  0  0  0999 V2000
    1.7961   -0.3807    1.6176 C   0  0  0  0  0  0  0  0  0  0  0  0
    0.8562   -0.8708    0.8256 C   0  0  0  0  0  0  0  0  0  0  0  0
    0.0895   -0.0826   -0.2048 C   0  0  0  0  0  0  0  0  0  0  0  0
   -1.4061   -0.1111    0.0982 C   0  0  0  0  0  0  0  0  0  0  0  0
    0.4476   -0.5902   -1.5797 C   0  0  0  0  0  0  0  0  0  0  0  0
   -0.3793   -1.1113   -2.4728 C   0  0  0  0  0  0  0  0  0  0  0  0
    2.3110   -1.0032    2.3386 H   0  0  0  0  0  0  0  0  0  0  0  0
    2.0846    0.6643    1.5737 H   0  0  0  0  0  0  0  0  0  0  0  0
    0.5921   -1.9241    0.8925 H   0  0  0  0  0  0  0  0  0  0  0  0
    0.4358    0.9557   -0.1462 H   0  0  0  0  0  0  0  0  0  0  0  0
   -1.5968    0.3080    1.0865 H   0  0  0  0  0  0  0  0  0  0  0  0
   -1.9674    0.4693   -0.6359 H   0  0  0  0  0  0  0  0  0  0  0  0
   -1.7902   -1.1338    0.0883 H   0  0  0  0  0  0  0  0  0  0  0  0
    1.5049   -0.5197   -1.8214 H   0  0  0  0  0  0  0  0  0  0  0  0
   -1.4421   -1.2131   -2.2889 H   0  0  0  0  0  0  0  0  0  0  0  0
   -0.0162   -1.4558   -3.4328 H   0  0  0  0  0  0  0  0  0  0  0  0
  1  2  2  3
  1  7  1  0
  1  8  1  0
  2  3  1  0
  2  9  1  0
  3  4  1  0
  3  5  1  0
  3 10  1  0
  4 11  1  0
  4 12  1  0
  4 13  1  0
  5  6  2  3
  5 14  1  0
  6 15  1  0
  6 16  1  0
M  END
>  <reaction>  (1) 
rxn_1196

>  <mol_properties>  (1) 
{"2": {"label": "donator", "atom_type": "Cs"}, "9": {"label": "d_hydrogen", "atom_type": "H0"}}

>  <type>  (1) 
r1h

$$$$

     RDKit          3D

 12 11  0  0  0  0  0  0  0  0999 V2000
    2.7049    0.9350   -0.4404 S   0  0  0  0  0  1  0  0  0  0  0  0
    1.0313    1.0813   -0.4080 C   0  0  0  0  0  0  0  0  0  0  0  0
    0.1364    0.1019   -0.0473 C   0  0  0  0  0  0  0  0  0  0  0  0
    0.5360   -1.2679    0.3784 C   0  0  0  0  0  0  0  0  0  0  0  0
   -1.3304    0.3842   -0.0689 C   0  0  0  0  0  0  0  0  0  0  0  0
    0.6069    2.0398   -0.6990 H   0  0  0  0  0  0  0  0  0  0  0  0
    0.1578   -1.4699    1.3849 H   0  0  0  0  0  0  0  0  0  0  0  0
    0.0783   -2.0109   -0.2814 H   0  0  0  0  0  0  0  0  0  0  0  0
    1.6154   -1.3973    0.3689 H   0  0  0  0  0  0  0  0  0  0  0  0
   -1.8406   -0.3126   -0.7406 H   0  0  0  0  0  0  0  0  0  0  0  0
   -1.5514    1.4016   -0.3887 H   0  0  0  0  0  0  0  0  0  0  0  0
   -1.7610    0.2281    0.9247 H   0  0  0  0  0  0  0  0  0  0  0  0
  1  2  1  0
  2  3  2  3
  2  6  1  0
  3  4  1  0
  3  5  1  0
  4  7  1  0
  4  8  1  0
  4  9  1  0
  5 10  1  0
  5 11  1  0
  5 12  1  0
M  RAD  1   1   2
M  END
>  <reaction>  (2) 
rxn_1196

>  <mol_properties>  (2) 
{"2": {"label": "acceptor", "atom_type": "Cs"}}

>  <type>  (2) 
r2

$$$$

     RDKit          3D

 13 12  0  0  0  0  0  0  0  0999 V2000
    2.7452   -1.1134   -0.3601 S   0  0  0  0  0  0  0  0  0  0  0  0
    1.4120   -0.4899    0.2856 C   0  0  0  0  0  0  0  0  0  0  0  0
    0.1714   -0.0257   -0.4180 C   0  0  0  0  0  0  0  0  0  0  0  0
   -0.0717    1.4493   -0.0658 C   0  0  0  0  0  0  0  0  0  0  0  0
    0.1609   -0.2576   -1.9191 C   0  0  0  0  0  0  0  0  0  0  0  0
    1.3665   -0.3550    1.3690 H   0  0  0  0  0  0  0  0  0  0  0  0
   -0.6453   -0.6023    0.0382 H   0  0  0  0  0  0  0  0  0  0  0  0
    0.7161    2.0755   -0.4895 H   0  0  0  0  0  0  0  0  0  0  0  0
   -0.0915    1.6095    1.0136 H   0  0  0  0  0  0  0  0  0  0  0  0
   -1.0268    1.7797   -0.4755 H   0  0  0  0  0  0  0  0  0  0  0  0
    0.3131   -1.3093   -2.1616 H   0  0  0  0  0  0  0  0  0  0  0  0
    0.9567    0.3095   -2.4051 H   0  0  0  0  0  0  0  0  0  0  0  0
   -0.7945    0.0619   -2.3384 H   0  0  0  0  0  0  0  0  0  0  0  0
  1  2  2  0
  2  3  1  0
  2  6  1  0
  3  4  1  0
  3  5  1  0
  3  7  1  0
  4  8  1  0
  4  9  1  0
  4 10  1  0
  5 11  1  0
  5 12  1  0
  5 13  1  0
M  END
>  <reaction>  (3) 
rxn_1196

>  <mol_properties>  (3) 
{"0": {"label": "a_hydrogen", "atom_type": "H0"}, "3": {"label": "acceptor", "atom_type": "Cs"}}

>  <type>  (3) 
r2h

$$$$

     RDKit          3D

 28 26  0  0  0  0  0  0  0  0999 V2000
    1.0982   -3.1166   -1.2396 C   0  0  0  0  0  0  0  0  0  0  0  0
    0.0188   -2.4853   -0.7754 C   0  0  0  0  0  0  0  0  0  0  0  0
   -0.0377   -1.5537    0.3561 C   0  0  0  0  0  3  0  0  0  0  0  0
    1.1728   -1.4417    1.2493 C   0  0  0  0  0  0  0  0  0  0  0  0
   -1.3603   -1.4108    0.9750 C   0  0  0  0  0  0  0  0  0  0  0  0
   -1.6193   -0.8370    2.1503 C   0  0  0  0  0  0  0  0  0  0  0  0
    1.0270   -3.7729   -2.0968 H   0  0  0  0  0  0  0  0  0  0  0  0
    2.0738   -3.0162   -0.7815 H   0  0  0  0  0  0  0  0  0  0  0  0
   -0.9272   -2.6478   -1.2856 H   0  0  0  0  0  0  0  0  0  0  0  0
    0.0225   -0.3392   -0.2467 H   0  0  0  0  0  0  0  0  0  0  0  0
    2.0919   -1.4006    0.6668 H   0  0  0  0  0  0  0  0  0  0  0  0
    1.1343   -0.5342    1.8511 H   0  0  0  0  0  0  0  0  0  0  0  0
    1.2285   -2.3005    1.9230 H   0  0  0  0  0  0  0  0  0  0  0  0
   -2.1971   -1.7584    0.3751 H   0  0  0  0  0  0  0  0  0  0  0  0
   -0.8397   -0.4576    2.7980 H   0  0  0  0  0  0  0  0  0  0  0  0
   -2.6373   -0.7391    2.5036 H   0  0  0  0  0  0  0  0  0  0  0  0
    0.8089    2.4663    1.2681 S   0  0  0  0  0  0  0  0  0  0  0  0
   -0.1992    1.7221    0.2080 C   0  0  0  0  0  0  0  0  0  0  0  0
    0.1600    0.8438   -0.8688 C   0  0  0  0  0  0  0  0  0  0  0  0
   -0.8778    0.6602   -1.9548 C   0  0  0  0  0  0  0  0  0  0  0  0
    1.5909    0.7826   -1.3363 C   0  0  0  0  0  0  0  0  0  0  0  0
   -1.2725    1.8593    0.3389 H   0  0  0  0  0  0  0  0  0  0  0  0
   -0.8520    1.5007   -2.6533 H   0  0  0  0  0  0  0  0  0  0  0  0
   -0.6808   -0.2499   -2.5250 H   0  0  0  0  0  0  0  0  0  0  0  0
   -1.8841    0.5974   -1.5368 H   0  0  0  0  0  0  0  0  0  0  0  0
    1.7781   -0.1543   -1.8650 H   0  0  0  0  0  0  0  0  0  0  0  0
    2.2833    0.8754   -0.5016 H   0  0  0  0  0  0  0  0  0  0  0  0
    1.7919    1.6055   -2.0281 H   0  0  0  0  0  0  0  0  0  0  0  0
  1  2  2  3
  1  7  1  0
  1  8  1  0
  2  3  1  0
  2  9  1  0
  3  4  1  0
  3  5  1  0
  4 11  1  0
  4 12  1  0
  4 13  1  0
  5  6  2  3
  5 14  1  0
  6 15  1  0
  6 16  1  0
 10 19  1  0
 17 18  2  0
 18 19  1  0
 18 22  1  0
 19 20  1  0
 19 21  1  0
 20 23  1  0
 20 24  1  0
 20 25  1  0
 21 26  1  0
 21 27  1  0
 21 28  1  0
M  RAD  1   3   2
M  END
>  <reaction>  (4) 
rxn_1196

>  <mol_properties>  (4) 
{"1": {"label": "*4", "atom_type": "Cd"}, "2": {"label": "*3", "atom_type": "Cs"}, "9": {"label": "*2", "atom_type": "H0"}, "17": {"label": "*0", "atom_type": "CS"}, "18": {"label": "*1", "atom_type": "Cs"}}

>  <type>  (4) 
ts

$$$$
