
     RDKit          3D

 10  9  0  0  0  0  0  0  0  0999 V2000
   -1.1906   -0.0419   -0.0385 C   0  0  0  0  0  0  0  0  0  0  0  0
    0.2513    0.4500    0.0348 C   0  0  0  0  0  0  0  0  0  0  0  0
    1.2500   -0.5694    0.3278 N   0  0  0  0  0  0  0  0  0  0  0  0
   -1.4965   -0.4905    0.9100 H   0  0  0  0  0  0  0  0  0  0  0  0
   -1.3035   -0.7985   -0.8190 H   0  0  0  0  0  0  0  0  0  0  0  0
   -1.8789    0.7769   -0.2612 H   0  0  0  0  0  0  0  0  0  0  0  0
    0.3352    1.2278    0.7979 H   0  0  0  0  0  0  0  0  0  0  0  0
    0.5259    0.9233   -0.9113 H   0  0  0  0  0  0  0  0  0  0  0  0
    1.2298   -1.2971   -0.3752 H   0  0  0  0  0  0  0  0  0  0  0  0
    1.0523   -1.0138    1.2153 H   0  0  0  0  0  0  0  0  0  0  0  0
  1  2  1  0
  1  4  1  0
  1  5  1  0
  1  6  1  0
  2  3  1  0
  2  7  1  0
  2  8  1  0
  3  9  1  0
  3 10  1  0
M  END
>  <reaction>  (1) 
rxn_116

>  <mol_properties>  (1) 
{"2": {"label": "donator", "atom_type": "N3s"}, "8": {"label": "d_hydrogen", "atom_type": "H0"}}

>  <type>  (1) 
r1h

$$$$

     RDKit          3D

  4  3  0  0  0  0  0  0  0  0999 V2000
    0.0000    0.0000    0.0000 C   0  0  0  0  0  3  0  0  0  0  0  0
    1.0638   -0.1747    0.0540 H   0  0  0  0  0  0  0  0  0  0  0  0
   -0.6833   -0.8351   -0.0280 H   0  0  0  0  0  0  0  0  0  0  0  0
   -0.3805    1.0098   -0.0260 H   0  0  0  0  0  0  0  0  0  0  0  0
  1  2  1  0
  1  3  1  0
  1  4  1  0
M  RAD  1   1   2
M  END
>  <reaction>  (2) 
rxn_116

>  <mol_properties>  (2) 
{"0": {"label": "acceptor", "atom_type": "Cs"}}

>  <type>  (2) 
r2

$$$$

     RDKit          3D

  5  4  0  0  0  0  0  0  0  0999 V2000
    0.0000    0.0000    0.0000 C   0  0  0  0  0  0  0  0  0  0  0  0
   -0.6486   -0.7720   -0.4113 H   0  0  0  0  0  0  0  0  0  0  0  0
   -0.3482    0.9787   -0.3267 H   0  0  0  0  0  0  0  0  0  0  0  0
   -0.0223   -0.0487    1.0876 H   0  0  0  0  0  0  0  0  0  0  0  0
    1.0191   -0.1580   -0.3496 H   0  0  0  0  0  0  0  0  0  0  0  0
  1  2  1  0
  1  3  1  0
  1  4  1  0
  1  5  1  0
M  END
>  <reaction>  (3) 
rxn_116

>  <mol_properties>  (3) 
{"0": {"label": "a_hydrogen", "atom_type": "H0"}, "1": {"label": "acceptor", "atom_type": "Cs"}}

>  <type>  (3) 
r2h

$$$$

     RDKit          3D

 14 12  0  0  0  0  0  0  0  0999 V2000
    0.5460   -0.9196   -1.2793 C   0  0  0  0  0  0  0  0  0  0  0  0
    0.4977   -1.0195    0.2409 C   0  0  0  0  0  0  0  0  0  0  0  0
    0.6032    0.2333    0.9710 N   0  0  0  0  0  0  0  0  0  0  0  0
    1.4780   -0.4524   -1.6075 H   0  0  0  0  0  0  0  0  0  0  0  0
   -0.2834   -0.3176   -1.6549 H   0  0  0  0  0  0  0  0  0  0  0  0
    0.4856   -1.9078   -1.7400 H   0  0  0  0  0  0  0  0  0  0  0  0
    1.3170   -1.6601    0.5889 H   0  0  0  0  0  0  0  0  0  0  0  0
   -0.4261   -1.5113    0.5560 H   0  0  0  0  0  0  0  0  0  0  0  0
   -0.4015    0.8941    0.7025 H   0  0  0  0  0  0  0  0  0  0  0  0
    1.3352    0.7969    0.5374 H   0  0  0  0  0  0  0  0  0  0  0  0
   -1.4492    1.5800    0.1936 C   0  0  0  0  0  3  0  0  0  0  0  0
   -2.1917    0.8188   -0.0309 H   0  0  0  0  0  0  0  0  0  0  0  0
   -1.1006    2.1145   -0.6849 H   0  0  0  0  0  0  0  0  0  0  0  0
   -1.7304    2.2310    1.0166 H   0  0  0  0  0  0  0  0  0  0  0  0
  1  2  1  0
  1  4  1  0
  1  5  1  0
  1  6  1  0
  2  3  1  0
  2  7  1  0
  2  8  1  0
  3  9  1  0
  3 10  1  0
 11 12  1  0
 11 13  1  0
 11 14  1  0
M  RAD  1  11   2
M  END
>  <reaction>  (4) 
rxn_116

>  <mol_properties>  (4) 
{"1": {"label": "*0", "atom_type": "Cs"}, "2": {"label": "*1", "atom_type": "N3s"}, "8": {"label": "*2", "atom_type": "H0"}, "10": {"label": "*3", "atom_type": "Cs"}, "11": {"label": "*4", "atom_type": "H0"}}

>  <type>  (4) 
ts

$$$$
