
     RDKit          3D

 12 11  0  0  0  0  0  0  0  0999 V2000
    0.2765    1.4875   -0.3235 C   0  0  0  0  0  0  0  0  0  0  0  0
    0.0387    0.2116   -0.0470 C   0  0  0  0  0  0  0  0  0  0  0  0
    1.1382   -0.7557    0.2806 C   0  0  0  0  0  0  0  0  0  0  0  0
   -1.3481   -0.3618   -0.0405 C   0  0  0  0  0  0  0  0  0  0  0  0
    1.2833    1.8882   -0.3245 H   0  0  0  0  0  0  0  0  0  0  0  0
   -0.5275    2.1750   -0.5584 H   0  0  0  0  0  0  0  0  0  0  0  0
    0.9863   -1.1895    1.2731 H   0  0  0  0  0  0  0  0  0  0  0  0
    1.1431   -1.5878   -0.4293 H   0  0  0  0  0  0  0  0  0  0  0  0
    2.1177   -0.2788    0.2593 H   0  0  0  0  0  0  0  0  0  0  0  0
   -1.4296   -1.1802   -0.7616 H   0  0  0  0  0  0  0  0  0  0  0  0
   -1.5864   -0.7819    0.9408 H   0  0  0  0  0  0  0  0  0  0  0  0
   -2.0987    0.3891   -0.2854 H   0  0  0  0  0  0  0  0  0  0  0  0
  1  2  2  3
  1  5  1  0
  1  6  1  0
  2  3  1  0
  2  4  1  0
  3  7  1  0
  3  8  1  0
  3  9  1  0
  4 10  1  0
  4 11  1  0
  4 12  1  0
M  END
>  <reaction>  (1) 
rxn_410

>  <mol_properties>  (1) 
{"2": {"label": "donator", "atom_type": "Cs"}, "6": {"label": "d_hydrogen", "atom_type": "H0"}}

>  <type>  (1) 
r1h

$$$$

     RDKit          3D

 14 13  0  0  0  0  0  0  0  0999 V2000
   -1.1038   -1.2820   -0.0831 C   0  0  0  0  0  0  0  0  0  0  0  0
   -0.3738   -0.0303    0.3958 C   0  0  0  0  0  0  0  0  0  0  0  0
    1.0799   -0.0135   -0.1022 C   0  0  0  0  0  0  0  0  0  0  0  0
   -0.4539    0.0783    1.8774 C   0  0  0  0  0  3  0  0  0  0  0  0
   -0.0196    1.2652    2.3945 O   0  0  0  0  0  0  0  0  0  0  0  0
   -0.6387   -2.1819    0.3292 H   0  0  0  0  0  0  0  0  0  0  0  0
   -1.0649   -1.3593   -1.1709 H   0  0  0  0  0  0  0  0  0  0  0  0
   -2.1510   -1.2728    0.2226 H   0  0  0  0  0  0  0  0  0  0  0  0
   -0.8759    0.8495   -0.0235 H   0  0  0  0  0  0  0  0  0  0  0  0
    1.1145   -0.0235   -1.1941 H   0  0  0  0  0  0  0  0  0  0  0  0
    1.6194   -0.8920    0.2618 H   0  0  0  0  0  0  0  0  0  0  0  0
    1.6007    0.8771    0.2500 H   0  0  0  0  0  0  0  0  0  0  0  0
   -0.3212   -0.8061    2.4983 H   0  0  0  0  0  0  0  0  0  0  0  0
   -0.0217    1.2207    3.3511 H   0  0  0  0  0  0  0  0  0  0  0  0
  1  2  1  0
  1  6  1  0
  1  7  1  0
  1  8  1  0
  2  3  1  0
  2  4  1  0
  2  9  1  0
  3 10  1  0
  3 11  1  0
  3 12  1  0
  4  5  1  0
  4 13  1  0
  5 14  1  0
M  RAD  1   4   2
M  END
>  <reaction>  (2) 
rxn_410

>  <mol_properties>  (2) 
{"3": {"label": "acceptor", "atom_type": "Cs"}}

>  <type>  (2) 
r2

$$$$

     RDKit          3D

 15 14  0  0  0  0  0  0  0  0999 V2000
   -0.6986    1.3249   -0.1641 C   0  0  0  0  0  0  0  0  0  0  0  0
   -0.2590   -0.0344    0.3671 C   0  0  0  0  0  0  0  0  0  0  0  0
   -0.4734   -0.1429    1.8733 C   0  0  0  0  0  0  0  0  0  0  0  0
   -0.9841   -1.1722   -0.3462 C   0  0  0  0  0  0  0  0  0  0  0  0
   -0.7805   -1.1911   -1.7444 O   0  0  0  0  0  0  0  0  0  0  0  0
   -0.1246    2.1306    0.2976 H   0  0  0  0  0  0  0  0  0  0  0  0
   -1.7557    1.4964    0.0581 H   0  0  0  0  0  0  0  0  0  0  0  0
   -0.5709    1.3852   -1.2449 H   0  0  0  0  0  0  0  0  0  0  0  0
    0.8141   -0.1541    0.1667 H   0  0  0  0  0  0  0  0  0  0  0  0
   -1.5346   -0.0466    2.1192 H   0  0  0  0  0  0  0  0  0  0  0  0
    0.0611    0.6480    2.4019 H   0  0  0  0  0  0  0  0  0  0  0  0
   -0.1249   -1.1023    2.2618 H   0  0  0  0  0  0  0  0  0  0  0  0
   -0.6918   -2.1316    0.1011 H   0  0  0  0  0  0  0  0  0  0  0  0
   -2.0629   -1.0627   -0.2056 H   0  0  0  0  0  0  0  0  0  0  0  0
    0.1528   -1.3298   -1.9125 H   0  0  0  0  0  0  0  0  0  0  0  0
  1  2  1  0
  1  6  1  0
  1  7  1  0
  1  8  1  0
  2  3  1  0
  2  4  1  0
  2  9  1  0
  3 10  1  0
  3 11  1  0
  3 12  1  0
  4  5  1  0
  4 13  1  0
  4 14  1  0
  5 15  1  0
M  END
>  <reaction>  (3) 
rxn_410

>  <mol_properties>  (3) 
{"3": {"label": "acceptor", "atom_type": "Cs"}, "14": {"label": "a_hydrogen", "atom_type": "H0"}}

>  <type>  (3) 
r2h

$$$$

     RDKit          3D

 26 24  0  0  0  0  0  0  0  0999 V2000
   -0.0363    0.1363    2.3624 C   0  0  0  0  0  0  0  0  0  0  0  0
   -0.7587    1.2490    1.6070 C   0  0  0  0  0  0  0  0  0  0  0  0
   -0.0143    2.5759    1.7168 C   0  0  0  0  0  0  0  0  0  0  0  0
   -0.9607    0.8954    0.1578 C   0  0  0  0  0  3  0  0  0  0  0  0
   -1.6416   -0.2933   -0.0121 O   0  0  0  0  0  0  0  0  0  0  0  0
    0.0506    0.3841    3.4218 H   0  0  0  0  0  0  0  0  0  0  0  0
    0.9729   -0.0039    1.9658 H   0  0  0  0  0  0  0  0  0  0  0  0
   -0.5711   -0.8089    2.2734 H   0  0  0  0  0  0  0  0  0  0  0  0
   -1.7538    1.3716    2.0561 H   0  0  0  0  0  0  0  0  0  0  0  0
    0.9847    2.4953    1.2804 H   0  0  0  0  0  0  0  0  0  0  0  0
    0.1004    2.8694    2.7612 H   0  0  0  0  0  0  0  0  0  0  0  0
   -0.5448    3.3775    1.1988 H   0  0  0  0  0  0  0  0  0  0  0  0
   -1.3495    1.7160   -0.4560 H   0  0  0  0  0  0  0  0  0  0  0  0
   -1.5672   -0.5687   -0.9321 H   0  0  0  0  0  0  0  0  0  0  0  0
    0.2332   -1.1674   -2.8035 C   0  0  0  0  0  0  0  0  0  0  0  0
    0.8880   -1.0412   -1.6381 C   0  0  0  0  0  0  0  0  0  0  0  0
    1.3190    0.2568   -1.1279 C   0  0  0  0  0  0  0  0  0  0  0  0
    1.1251   -2.2190   -0.7355 C   0  0  0  0  0  0  0  0  0  0  0  0
    0.0711   -0.3145   -3.4527 H   0  0  0  0  0  0  0  0  0  0  0  0
   -0.1216   -2.1297   -3.1514 H   0  0  0  0  0  0  0  0  0  0  0  0
    0.2816    0.6805   -0.3972 H   0  0  0  0  0  0  0  0  0  0  0  0
    2.1427    0.2359   -0.4177 H   0  0  0  0  0  0  0  0  0  0  0  0
    1.4192    1.0476   -1.8674 H   0  0  0  0  0  0  0  0  0  0  0  0
    2.1955   -2.3625   -0.5679 H   0  0  0  0  0  0  0  0  0  0  0  0
    0.6644   -2.0426    0.2398 H   0  0  0  0  0  0  0  0  0  0  0  0
    0.7138   -3.1383   -1.1514 H   0  0  0  0  0  0  0  0  0  0  0  0
  1  2  1  0
  1  6  1  0
  1  7  1  0
  1  8  1  0
  2  3  1  0
  2  4  1  0
  2  9  1  0
  3 10  1  0
  3 11  1  0
  3 12  1  0
  4  5  1  0
  4 13  1  0
  5 14  1  0
 15 16  2  3
 15 19  1  0
 15 20  1  0
 16 17  1  0
 16 18  1  0
 17 21  1  0
 17 22  1  0
 17 23  1  0
 18 24  1  0
 18 25  1  0
 18 26  1  0
M  RAD  1   4   2
M  END
>  <reaction>  (4) 
rxn_410

>  <mol_properties>  (4) 
{"1": {"label": "*4", "atom_type": "Cs"}, "3": {"label": "*3", "atom_type": "Cs"}, "15": {"label": "*0", "atom_type": "Cd"}, "16": {"label": "*1", "atom_type": "Cs"}, "20": {"label": "*2", "atom_type": "H0"}}

>  <type>  (4) 
ts

$$$$
