
     RDKit          3D

  7  6  0  0  0  0  0  0  0  0999 V2000
   -0.8134   -0.1164    0.3300 C   0  0  0  0  0  0  0  0  0  0  0  0
    0.2313    0.4515   -0.2553 C   0  0  0  0  0  0  0  0  0  0  0  0
    1.4449   -0.1043   -0.4662 O   0  0  0  0  0  0  0  0  0  0  0  0
   -1.7342    0.4365    0.4394 H   0  0  0  0  0  0  0  0  0  0  0  0
   -0.7819   -1.1311    0.7105 H   0  0  0  0  0  0  0  0  0  0  0  0
    0.2022    1.4650   -0.6362 H   0  0  0  0  0  0  0  0  0  0  0  0
    1.4512   -1.0012   -0.1223 H   0  0  0  0  0  0  0  0  0  0  0  0
  1  2  2  3
  1  4  1  0
  1  5  1  0
  2  3  1  0
  2  6  1  0
  3  7  1  0
M  END
>  <reaction>  (1) 
rxn_481

>  <mol_properties>  (1) 
{"2": {"label": "donator", "atom_type": "O2s"}, "6": {"label": "d_hydrogen", "atom_type": "H0"}}

>  <type>  (1) 
r1h

$$$$

     RDKit          3D

  5  4  0  0  0  0  0  0  0  0999 V2000
   -0.1322   -0.0293    0.0034 C   0  0  0  0  0  0  0  0  0  0  0  0
    1.6514    0.0533   -0.0278 S   0  0  0  0  0  1  0  0  0  0  0  0
   -0.5276   -0.5578   -0.8632 H   0  0  0  0  0  0  0  0  0  0  0  0
   -0.5002   -0.4706    0.9289 H   0  0  0  0  0  0  0  0  0  0  0  0
   -0.4913    1.0044   -0.0413 H   0  0  0  0  0  0  0  0  0  0  0  0
  1  2  1  0
  1  3  1  0
  1  4  1  0
  1  5  1  0
M  RAD  1   2   2
M  END
>  <reaction>  (2) 
rxn_481

>  <mol_properties>  (2) 
{"1": {"label": "acceptor", "atom_type": "S2s"}}

>  <type>  (2) 
r2

$$$$

     RDKit          3D

  6  5  0  0  0  0  0  0  0  0999 V2000
   -0.5072   -0.0291   -0.0097 C   0  0  0  0  0  0  0  0  0  0  0  0
    1.1321   -0.1527   -0.7687 S   0  0  0  0  0  0  0  0  0  0  0  0
   -0.6174   -0.7330    0.8127 H   0  0  0  0  0  0  0  0  0  0  0  0
   -0.5863    0.9827    0.3845 H   0  0  0  0  0  0  0  0  0  0  0  0
   -1.2962   -0.1800   -0.7434 H   0  0  0  0  0  0  0  0  0  0  0  0
    1.0312   -1.4237   -1.1764 H   0  0  0  0  0  0  0  0  0  0  0  0
  1  2  1  0
  1  3  1  0
  1  4  1  0
  1  5  1  0
  2  6  1  0
M  END
>  <reaction>  (3) 
rxn_481

>  <mol_properties>  (3) 
{"0": {"label": "a_hydrogen", "atom_type": "H0"}, "2": {"label": "acceptor", "atom_type": "S2s"}}

>  <type>  (3) 
r2h

$$$$

     RDKit          3D

 12 10  0  0  0  0  0  0  0  0999 V2000
    0.3250   -1.2947   -1.1670 C   0  0  0  0  0  0  0  0  0  0  0  0
   -0.0618   -1.7570    0.0846 C   0  0  0  0  0  0  0  0  0  0  0  0
    0.4653   -1.3584    1.1685 O   0  0  0  0  0  0  0  0  0  0  0  0
   -0.2840   -1.5181   -2.0326 H   0  0  0  0  0  0  0  0  0  0  0  0
    1.3324   -0.9508   -1.3434 H   0  0  0  0  0  0  0  0  0  0  0  0
   -0.9039   -2.4528    0.1620 H   0  0  0  0  0  0  0  0  0  0  0  0
    0.7076   -0.1378    0.8529 H   0  0  0  0  0  0  0  0  0  0  0  0
   -1.2389    1.4156    0.4245 C   0  0  0  0  0  0  0  0  0  0  0  0
    0.4957    1.1656   -0.0021 S   0  0  0  0  0  1  0  0  0  0  0  0
   -1.7534    1.8865   -0.4107 H   0  0  0  0  0  0  0  0  0  0  0  0
   -1.7171    0.4652    0.6587 H   0  0  0  0  0  0  0  0  0  0  0  0
   -1.3021    2.0693    1.2940 H   0  0  0  0  0  0  0  0  0  0  0  0
  1  2  2  3
  1  4  1  0
  1  5  1  0
  2  3  1  0
  2  6  1  0
  3  7  1  0
  8  9  1  0
  8 10  1  0
  8 11  1  0
  8 12  1  0
M  RAD  1   9   2
M  END
>  <reaction>  (4) 
rxn_481

>  <mol_properties>  (4) 
{"1": {"label": "*0", "atom_type": "Cd"}, "2": {"label": "*1", "atom_type": "O2s"}, "6": {"label": "*2", "atom_type": "H0"}, "7": {"label": "*4", "atom_type": "Cs"}, "8": {"label": "*3", "atom_type": "S2s"}}

>  <type>  (4) 
ts

$$$$
