
     RDKit          3D

 12 11  0  0  0  0  0  0  0  0999 V2000
    0.2765    1.4875   -0.3235 C   0  0  0  0  0  0  0  0  0  0  0  0
    0.0387    0.2116   -0.0470 C   0  0  0  0  0  0  0  0  0  0  0  0
    1.1382   -0.7557    0.2806 C   0  0  0  0  0  0  0  0  0  0  0  0
   -1.3481   -0.3618   -0.0405 C   0  0  0  0  0  0  0  0  0  0  0  0
    1.2833    1.8882   -0.3245 H   0  0  0  0  0  0  0  0  0  0  0  0
   -0.5275    2.1750   -0.5584 H   0  0  0  0  0  0  0  0  0  0  0  0
    0.9863   -1.1895    1.2731 H   0  0  0  0  0  0  0  0  0  0  0  0
    1.1431   -1.5878   -0.4293 H   0  0  0  0  0  0  0  0  0  0  0  0
    2.1177   -0.2788    0.2593 H   0  0  0  0  0  0  0  0  0  0  0  0
   -1.4296   -1.1802   -0.7616 H   0  0  0  0  0  0  0  0  0  0  0  0
   -1.5864   -0.7819    0.9408 H   0  0  0  0  0  0  0  0  0  0  0  0
   -2.0987    0.3891   -0.2854 H   0  0  0  0  0  0  0  0  0  0  0  0
  1  2  2  3
  1  5  1  0
  1  6  1  0
  2  3  1  0
  2  4  1  0
  3  7  1  0
  3  8  1  0
  3  9  1  0
  4 10  1  0
  4 11  1  0
  4 12  1  0
M  END
>  <reaction>  (1) 
rxn_13

>  <mol_properties>  (1) 
{"2": {"label": "donator", "atom_type": "Cs"}, "6": {"label": "d_hydrogen", "atom_type": "H0"}}

>  <type>  (1) 
r1h

$$$$

     RDKit          3D

 14 13  0  0  0  0  0  0  0  0999 V2000
   -0.0263    1.3824   -0.7006 C   0  0  0  0  0  0  0  0  0  0  0  0
   -0.2039   -0.0453   -0.3213 C   0  0  0  0  0  3  0  0  0  0  0  0
   -1.1121   -0.3782    0.8104 C   0  0  0  0  0  0  0  0  0  0  0  0
    0.8313   -1.0381   -0.7322 C   0  0  0  0  0  0  0  0  0  0  0  0
    0.3307   -2.3541   -0.9005 O   0  0  0  0  0  0  0  0  0  0  0  0
    0.6071    1.9181    0.0231 H   0  0  0  0  0  0  0  0  0  0  0  0
   -0.9831    1.9109   -0.7211 H   0  0  0  0  0  0  0  0  0  0  0  0
    0.4475    1.4899   -1.6787 H   0  0  0  0  0  0  0  0  0  0  0  0
   -2.0864    0.1051    0.6984 H   0  0  0  0  0  0  0  0  0  0  0  0
   -1.2623   -1.4541    0.9003 H   0  0  0  0  0  0  0  0  0  0  0  0
   -0.6968   -0.0235    1.7662 H   0  0  0  0  0  0  0  0  0  0  0  0
    1.6088   -1.1338    0.0391 H   0  0  0  0  0  0  0  0  0  0  0  0
    1.3350   -0.6925   -1.6447 H   0  0  0  0  0  0  0  0  0  0  0  0
   -0.3997   -2.3102   -1.5208 H   0  0  0  0  0  0  0  0  0  0  0  0
  1  2  1  0
  1  6  1  0
  1  7  1  0
  1  8  1  0
  2  3  1  0
  2  4  1  0
  3  9  1  0
  3 10  1  0
  3 11  1  0
  4  5  1  0
  4 12  1  0
  4 13  1  0
  5 14  1  0
M  RAD  1   2   2
M  END
>  <reaction>  (2) 
rxn_13

>  <mol_properties>  (2) 
{"1": {"label": "acceptor", "atom_type": "Cs"}}

>  <type>  (2) 
r2

$$$$

     RDKit          3D

 15 14  0  0  0  0  0  0  0  0999 V2000
   -0.6986    1.3249   -0.1641 C   0  0  0  0  0  0  0  0  0  0  0  0
   -0.2590   -0.0344    0.3671 C   0  0  0  0  0  0  0  0  0  0  0  0
   -0.4734   -0.1429    1.8733 C   0  0  0  0  0  0  0  0  0  0  0  0
   -0.9841   -1.1722   -0.3462 C   0  0  0  0  0  0  0  0  0  0  0  0
   -0.7805   -1.1911   -1.7444 O   0  0  0  0  0  0  0  0  0  0  0  0
   -0.1246    2.1306    0.2976 H   0  0  0  0  0  0  0  0  0  0  0  0
   -1.7557    1.4964    0.0581 H   0  0  0  0  0  0  0  0  0  0  0  0
   -0.5709    1.3852   -1.2449 H   0  0  0  0  0  0  0  0  0  0  0  0
    0.8141   -0.1541    0.1667 H   0  0  0  0  0  0  0  0  0  0  0  0
   -1.5346   -0.0466    2.1192 H   0  0  0  0  0  0  0  0  0  0  0  0
    0.0611    0.6480    2.4019 H   0  0  0  0  0  0  0  0  0  0  0  0
   -0.1249   -1.1023    2.2618 H   0  0  0  0  0  0  0  0  0  0  0  0
   -0.6918   -2.1316    0.1011 H   0  0  0  0  0  0  0  0  0  0  0  0
   -2.0629   -1.0627   -0.2056 H   0  0  0  0  0  0  0  0  0  0  0  0
    0.1528   -1.3298   -1.9125 H   0  0  0  0  0  0  0  0  0  0  0  0
  1  2  1  0
  1  6  1  0
  1  7  1  0
  1  8  1  0
  2  3  1  0
  2  4  1  0
  2  9  1  0
  3 10  1  0
  3 11  1  0
  3 12  1  0
  4  5  1  0
  4 13  1  0
  4 14  1  0
  5 15  1  0
M  END
>  <reaction>  (3) 
rxn_13

>  <mol_properties>  (3) 
{"0": {"label": "a_hydrogen", "atom_type": "H0"}, "2": {"label": "acceptor", "atom_type": "Cs"}}

>  <type>  (3) 
r2h

$$$$

     RDKit          3D

 26 24  0  0  0  0  0  0  0  0999 V2000
    1.6473   -0.1299   -2.1543 C   0  0  0  0  0  0  0  0  0  0  0  0
    1.4079   -0.8963   -1.0808 C   0  0  0  0  0  0  0  0  0  0  0  0
    1.5828   -0.4038    0.2842 C   0  0  0  0  0  0  0  0  0  0  0  0
    0.8664   -2.2921   -1.2149 C   0  0  0  0  0  0  0  0  0  0  0  0
    2.0612    0.8670   -2.0526 H   0  0  0  0  0  0  0  0  0  0  0  0
    1.4713   -0.4924   -3.1594 H   0  0  0  0  0  0  0  0  0  0  0  0
    0.3785   -0.0300    0.7080 H   0  0  0  0  0  0  0  0  0  0  0  0
    1.8485   -1.1574    1.0231 H   0  0  0  0  0  0  0  0  0  0  0  0
    2.1646    0.5091    0.3853 H   0  0  0  0  0  0  0  0  0  0  0  0
    1.5749   -3.0155   -0.8032 H   0  0  0  0  0  0  0  0  0  0  0  0
   -0.0621   -2.4007   -0.6478 H   0  0  0  0  0  0  0  0  0  0  0  0
    0.6699   -2.5542   -2.2538 H   0  0  0  0  0  0  0  0  0  0  0  0
   -0.5894    1.7032    1.8018 C   0  0  0  0  0  0  0  0  0  0  0  0
   -0.8536    0.3791    1.1370 C   0  0  0  0  0  3  0  0  0  0  0  0
   -1.3048   -0.7223    2.0597 C   0  0  0  0  0  0  0  0  0  0  0  0
   -1.6483    0.4598   -0.1478 C   0  0  0  0  0  0  0  0  0  0  0  0
   -1.1263    1.3671   -1.0902 O   0  0  0  0  0  0  0  0  0  0  0  0
   -1.5117    2.1046    2.2395 H   0  0  0  0  0  0  0  0  0  0  0  0
   -0.2192    2.4335    1.0825 H   0  0  0  0  0  0  0  0  0  0  0  0
    0.1399    1.6008    2.6082 H   0  0  0  0  0  0  0  0  0  0  0  0
   -2.2964   -0.5047    2.4745 H   0  0  0  0  0  0  0  0  0  0  0  0
   -1.3685   -1.6818    1.5409 H   0  0  0  0  0  0  0  0  0  0  0  0
   -0.6187   -0.8365    2.9012 H   0  0  0  0  0  0  0  0  0  0  0  0
   -2.6645    0.8065    0.0792 H   0  0  0  0  0  0  0  0  0  0  0  0
   -1.7456   -0.5448   -0.5809 H   0  0  0  0  0  0  0  0  0  0  0  0
   -0.3338    0.9743   -1.4729 H   0  0  0  0  0  0  0  0  0  0  0  0
  1  2  2  3
  1  5  1  0
  1  6  1  0
  2  3  1  0
  2  4  1  0
  3  7  1  0
  3  8  1  0
  3  9  1  0
  4 10  1  0
  4 11  1  0
  4 12  1  0
 13 14  1  0
 13 18  1  0
 13 19  1  0
 13 20  1  0
 14 15  1  0
 14 16  1  0
 15 21  1  0
 15 22  1  0
 15 23  1  0
 16 17  1  0
 16 24  1  0
 16 25  1  0
 17 26  1  0
M  RAD  1  14   2
M  END
>  <reaction>  (4) 
rxn_13

>  <mol_properties>  (4) 
{"1": {"label": "*0", "atom_type": "Cd"}, "2": {"label": "*1", "atom_type": "Cs"}, "6": {"label": "*2", "atom_type": "H0"}, "13": {"label": "*3", "atom_type": "Cs"}, "15": {"label": "*4", "atom_type": "Cs"}}

>  <type>  (4) 
ts

$$$$
