
     RDKit          3D

 16 15  0  0  0  0  0  0  0  0999 V2000
    1.7961   -0.3807    1.6176 C   0  0  0  0  0  0  0  0  0  0  0  0
    0.8562   -0.8708    0.8256 C   0  0  0  0  0  0  0  0  0  0  0  0
    0.0895   -0.0826   -0.2048 C   0  0  0  0  0  0  0  0  0  0  0  0
   -1.4061   -0.1111    0.0982 C   0  0  0  0  0  0  0  0  0  0  0  0
    0.4476   -0.5902   -1.5797 C   0  0  0  0  0  0  0  0  0  0  0  0
   -0.3793   -1.1113   -2.4728 C   0  0  0  0  0  0  0  0  0  0  0  0
    2.3110   -1.0032    2.3386 H   0  0  0  0  0  0  0  0  0  0  0  0
    2.0846    0.6643    1.5737 H   0  0  0  0  0  0  0  0  0  0  0  0
    0.5921   -1.9241    0.8925 H   0  0  0  0  0  0  0  0  0  0  0  0
    0.4358    0.9557   -0.1462 H   0  0  0  0  0  0  0  0  0  0  0  0
   -1.5968    0.3080    1.0865 H   0  0  0  0  0  0  0  0  0  0  0  0
   -1.9674    0.4693   -0.6359 H   0  0  0  0  0  0  0  0  0  0  0  0
   -1.7902   -1.1338    0.0883 H   0  0  0  0  0  0  0  0  0  0  0  0
    1.5049   -0.5197   -1.8214 H   0  0  0  0  0  0  0  0  0  0  0  0
   -1.4421   -1.2131   -2.2889 H   0  0  0  0  0  0  0  0  0  0  0  0
   -0.0162   -1.4558   -3.4328 H   0  0  0  0  0  0  0  0  0  0  0  0
  1  2  2  3
  1  7  1  0
  1  8  1  0
  2  3  1  0
  2  9  1  0
  3  4  1  0
  3  5  1  0
  3 10  1  0
  4 11  1  0
  4 12  1  0
  4 13  1  0
  5  6  2  3
  5 14  1  0
  6 15  1  0
  6 16  1  0
M  END
>  <reaction>  (1) 
rxn_1210

>  <mol_properties>  (1) 
{"2": {"label": "donator", "atom_type": "Cs"}, "9": {"label": "d_hydrogen", "atom_type": "H0"}}

>  <type>  (1) 
r1h

$$$$

     RDKit          3D

  4  3  0  0  0  0  0  0  0  0999 V2000
   -0.7528   -0.8706   -0.3839 S   0  0  0  0  0  0  0  0  0  0  0  0
    0.7502   -0.2564   -0.0649 C   0  0  0  0  0  3  0  0  0  0  0  0
    1.5655    0.9691    0.4633 S   0  0  0  0  0  0  0  0  0  0  0  0
   -1.5629    0.1579   -0.0146 H   0  0  0  0  0  0  0  0  0  0  0  0
  1  2  1  0
  1  4  1  0
  2  3  2  0
M  RAD  1   2   2
M  END
>  <reaction>  (2) 
rxn_1210

>  <mol_properties>  (2) 
{"1": {"label": "acceptor", "atom_type": "CS"}}

>  <type>  (2) 
r2

$$$$

     RDKit          3D

  5  4  0  0  0  0  0  0  0  0999 V2000
    1.2280   -0.4626    0.1225 S   0  0  0  0  0  0  0  0  0  0  0  0
   -0.4732   -0.2566   -0.0746 C   0  0  0  0  0  0  0  0  0  0  0  0
   -1.3314    1.1074   -0.0947 S   0  0  0  0  0  0  0  0  0  0  0  0
    1.5289    0.8405    0.2416 H   0  0  0  0  0  0  0  0  0  0  0  0
   -0.9523   -1.2286   -0.1949 H   0  0  0  0  0  0  0  0  0  0  0  0
  1  2  1  0
  1  4  1  0
  2  3  2  0
  2  5  1  0
M  END
>  <reaction>  (3) 
rxn_1210

>  <mol_properties>  (3) 
{"1": {"label": "acceptor", "atom_type": "CS"}, "4": {"label": "a_hydrogen", "atom_type": "H0"}}

>  <type>  (3) 
r2h

$$$$

     RDKit          3D

 20 18  0  0  0  0  0  0  0  0999 V2000
   -0.6288    2.2366   -0.3275 S   0  0  0  0  0  0  0  0  0  0  0  0
    0.5834    1.1229   -0.7351 C   0  0  0  0  0  3  0  0  0  0  0  0
    1.8561    1.1405   -1.6853 S   0  0  0  0  0  0  0  0  0  0  0  0
   -0.2276    3.2807   -1.0832 H   0  0  0  0  0  0  0  0  0  0  0  0
   -0.0949   -3.1841   -0.6730 C   0  0  0  0  0  0  0  0  0  0  0  0
    0.6346   -2.1815   -0.1914 C   0  0  0  0  0  0  0  0  0  0  0  0
    0.1969   -1.1333    0.7544 C   0  0  0  0  0  0  0  0  0  0  0  0
    1.2031   -0.8350    1.8477 C   0  0  0  0  0  0  0  0  0  0  0  0
   -1.2284   -1.1255    1.1334 C   0  0  0  0  0  0  0  0  0  0  0  0
   -1.7220   -0.8238    2.3310 C   0  0  0  0  0  0  0  0  0  0  0  0
    0.3272   -3.8839   -1.3825 H   0  0  0  0  0  0  0  0  0  0  0  0
   -1.1205   -3.3540   -0.3689 H   0  0  0  0  0  0  0  0  0  0  0  0
    1.6657   -2.0855   -0.5223 H   0  0  0  0  0  0  0  0  0  0  0  0
    0.3066   -0.0829    0.0205 H   0  0  0  0  0  0  0  0  0  0  0  0
    2.2065   -0.7560    1.4270 H   0  0  0  0  0  0  0  0  0  0  0  0
    0.9749    0.1058    2.3516 H   0  0  0  0  0  0  0  0  0  0  0  0
    1.2124   -1.6307    2.5975 H   0  0  0  0  0  0  0  0  0  0  0  0
   -1.9250   -1.3482    0.3301 H   0  0  0  0  0  0  0  0  0  0  0  0
   -1.0871   -0.5942    3.1779 H   0  0  0  0  0  0  0  0  0  0  0  0
   -2.7904   -0.8071    2.5032 H   0  0  0  0  0  0  0  0  0  0  0  0
  1  2  1  0
  1  4  1  0
  2  3  2  0
  5  6  2  3
  5 11  1  0
  5 12  1  0
  6  7  1  0
  6 13  1  0
  7  8  1  0
  7  9  1  0
  7 14  1  0
  8 15  1  0
  8 16  1  0
  8 17  1  0
  9 10  2  3
  9 18  1  0
 10 19  1  0
 10 20  1  0
M  RAD  1   2   2
M  END
>  <reaction>  (4) 
rxn_1210

>  <mol_properties>  (4) 
{"0": {"label": "*4", "atom_type": "S2s"}, "1": {"label": "*3", "atom_type": "CS"}, "5": {"label": "*0", "atom_type": "Cd"}, "6": {"label": "*1", "atom_type": "Cs"}, "13": {"label": "*2", "atom_type": "H0"}}

>  <type>  (4) 
ts

$$$$
