
     RDKit          3D

  7  6  0  0  0  0  0  0  0  0999 V2000
    1.6964   -0.0938    0.0583 C   0  0  0  0  0  0  0  0  0  0  0  0
    0.5019   -0.0278    0.0173 C   0  0  0  0  0  0  0  0  0  0  0  0
   -0.9505    0.0525   -0.0327 C   0  0  0  0  0  0  0  0  0  0  0  0
    2.7574   -0.1524    0.0947 H   0  0  0  0  0  0  0  0  0  0  0  0
   -1.2692    0.9972   -0.4754 H   0  0  0  0  0  0  0  0  0  0  0  0
   -1.3749   -0.0147    0.9700 H   0  0  0  0  0  0  0  0  0  0  0  0
   -1.3610   -0.7611   -0.6323 H   0  0  0  0  0  0  0  0  0  0  0  0
  1  2  3  0
  1  4  1  0
  2  3  1  0
  3  5  1  0
  3  6  1  0
  3  7  1  0
M  END
>  <reaction>  (1) 
rxn_1227

>  <mol_properties>  (1) 
{"0": {"label": "donator", "atom_type": "Cs"}, "3": {"label": "d_hydrogen", "atom_type": "H0"}}

>  <type>  (1) 
r1h

$$$$

     RDKit          3D

 14 14  0  0  0  0  0  0  0  0999 V2000
    2.3111    0.1295    0.0255 C   0  0  0  0  0  0  0  0  0  0  0  0
    0.9132    0.0511    0.0101 C   0  0  0  0  0  0  0  0  0  0  0  0
    0.2446   -1.1981    0.0389 C   0  0  0  0  0  3  0  0  0  0  0  0
   -1.1306   -1.2689    0.0235 C   0  0  0  0  0  0  0  0  0  0  0  0
   -1.8967   -0.1062   -0.0209 C   0  0  0  0  0  0  0  0  0  0  0  0
   -1.2644    1.1347   -0.0499 C   0  0  0  0  0  0  0  0  0  0  0  0
    0.1101    1.2180   -0.0350 C   0  0  0  0  0  0  0  0  0  0  0  0
    2.9188   -0.7647    0.0599 H   0  0  0  0  0  0  0  0  0  0  0  0
    2.8158    1.0859    0.0034 H   0  0  0  0  0  0  0  0  0  0  0  0
    0.8353   -2.1058    0.0735 H   0  0  0  0  0  0  0  0  0  0  0  0
   -1.6191   -2.2351    0.0461 H   0  0  0  0  0  0  0  0  0  0  0  0
   -2.9772   -0.1668   -0.0328 H   0  0  0  0  0  0  0  0  0  0  0  0
   -1.8572    2.0404   -0.0845 H   0  0  0  0  0  0  0  0  0  0  0  0
    0.5964    2.1860   -0.0577 H   0  0  0  0  0  0  0  0  0  0  0  0
  1  2  2  3
  1  8  1  0
  1  9  1  0
  2  3  1  0
  2  7  1  0
  3  4  1  0
  3 10  1  0
  4  5  2  0
  4 11  1  0
  5  6  1  0
  5 12  1  0
  6  7  2  0
  6 13  1  0
  7 14  1  0
M  RAD  1   3   2
M  END
>  <reaction>  (2) 
rxn_1227

>  <mol_properties>  (2) 
{"0": {"label": "acceptor", "atom_type": "Cs"}}

>  <type>  (2) 
r2

$$$$

     RDKit          3D

 15 15  0  0  0  0  0  0  0  0999 V2000
    2.2031   -0.2111   -0.1693 C   0  0  0  0  0  0  0  0  0  0  0  0
    0.7140   -0.0314   -0.0623 C   0  0  0  0  0  0  0  0  0  0  0  0
   -0.0114    0.5491   -1.0982 C   0  0  0  0  0  0  0  0  0  0  0  0
   -1.3882    0.6886   -1.0150 C   0  0  0  0  0  0  0  0  0  0  0  0
   -2.0661    0.2493    0.1118 C   0  0  0  0  0  0  0  0  0  0  0  0
   -1.3551   -0.3278    1.1528 C   0  0  0  0  0  0  0  0  0  0  0  0
    0.0216   -0.4648    1.0642 C   0  0  0  0  0  0  0  0  0  0  0  0
    2.6776   -0.1836    0.8122 H   0  0  0  0  0  0  0  0  0  0  0  0
    2.4446   -1.1749   -0.6249 H   0  0  0  0  0  0  0  0  0  0  0  0
    2.6532    0.5664   -0.7875 H   0  0  0  0  0  0  0  0  0  0  0  0
    0.5104    0.8989   -1.9819 H   0  0  0  0  0  0  0  0  0  0  0  0
   -1.9328    1.1452   -1.8322 H   0  0  0  0  0  0  0  0  0  0  0  0
   -3.1409    0.3597    0.1800 H   0  0  0  0  0  0  0  0  0  0  0  0
   -1.8736   -0.6702    2.0398 H   0  0  0  0  0  0  0  0  0  0  0  0
    0.5695   -0.9141    1.8849 H   0  0  0  0  0  0  0  0  0  0  0  0
  1  2  1  0
  1  8  1  0
  1  9  1  0
  1 10  1  0
  2  3  2  0
  2  7  1  0
  3  4  1  0
  3 11  1  0
  4  5  2  0
  4 12  1  0
  5  6  1  0
  5 13  1  0
  6  7  2  0
  6 14  1  0
  7 15  1  0
M  END
>  <reaction>  (3) 
rxn_1227

>  <mol_properties>  (3) 
{"0": {"label": "acceptor", "atom_type": "Cs"}, "9": {"label": "a_hydrogen", "atom_type": "H0"}}

>  <type>  (3) 
r2h

$$$$

     RDKit          3D

 21 20  0  0  0  0  0  0  0  0999 V2000
    0.4530   -1.1495   -1.4861 C   0  0  0  0  0  0  0  0  0  0  0  0
   -0.5198   -0.2960   -0.8109 C   0  0  0  0  0  0  0  0  0  0  0  0
   -1.3820   -0.8176    0.1589 C   0  0  0  0  0  0  0  0  0  0  0  0
   -0.5624    1.0798   -1.0589 C   0  0  0  0  0  0  0  0  0  0  0  0
   -2.2567    0.0025    0.8482 C   0  0  0  0  0  0  0  0  0  0  0  0
   -1.4371    1.9000   -0.3697 C   0  0  0  0  0  0  0  0  0  0  0  0
   -2.2875    1.3658    0.5886 C   0  0  0  0  0  0  0  0  0  0  0  0
    2.6041   -1.0330    0.1430 C   0  0  0  0  0  3  0  0  0  0  0  0
    2.1715   -0.1769    1.1857 C   0  0  0  0  0  0  0  0  0  0  0  0
    1.7232    0.5572    2.0276 C   0  0  0  0  0  0  0  0  0  0  0  0
    0.8369   -0.7767   -2.4325 H   0  0  0  0  0  0  0  0  0  0  0  0
    0.2176   -2.2105   -1.5122 H   0  0  0  0  0  0  0  0  0  0  0  0
    1.5430   -1.1209   -0.7080 H   0  0  0  0  0  0  0  0  0  0  0  0
   -1.3581   -1.8802    0.3715 H   0  0  0  0  0  0  0  0  0  0  0  0
    0.1038    1.5045   -1.8009 H   0  0  0  0  0  0  0  0  0  0  0  0
   -2.9174   -0.4222    1.5936 H   0  0  0  0  0  0  0  0  0  0  0  0
   -1.4556    2.9624   -0.5786 H   0  0  0  0  0  0  0  0  0  0  0  0
   -2.9728    2.0076    1.1275 H   0  0  0  0  0  0  0  0  0  0  0  0
    3.3925   -0.6337   -0.4901 H   0  0  0  0  0  0  0  0  0  0  0  0
    2.7730   -2.0677    0.4304 H   0  0  0  0  0  0  0  0  0  0  0  0
    1.3304    1.2053    2.7730 H   0  0  0  0  0  0  0  0  0  0  0  0
  1  2  1  0
  1 11  1  0
  1 12  1  0
  1 13  1  0
  2  3  2  0
  2  4  1  0
  3  5  1  0
  3 14  1  0
  4  6  2  0
  4 15  1  0
  5  7  2  0
  5 16  1  0
  6  7  1  0
  6 17  1  0
  7 18  1  0
  8  9  1  0
  8 19  1  0
  8 20  1  0
  9 10  3  0
 10 21  1  0
M  RAD  1   8   2
M  END
>  <reaction>  (4) 
rxn_1227

>  <mol_properties>  (4) 
{"0": {"label": "*1", "atom_type": "Cs"}, "1": {"label": "*0", "atom_type": "Cd"}, "7": {"label": "*3", "atom_type": "Cs"}, "8": {"label": "*4", "atom_type": "Ct"}, "12": {"label": "*2", "atom_type": "H0"}}

>  <type>  (4) 
ts

$$$$
