
     RDKit          3D

 16 15  0  0  0  0  0  0  0  0999 V2000
    1.7961   -0.3807    1.6176 C   0  0  0  0  0  0  0  0  0  0  0  0
    0.8562   -0.8708    0.8256 C   0  0  0  0  0  0  0  0  0  0  0  0
    0.0895   -0.0826   -0.2048 C   0  0  0  0  0  0  0  0  0  0  0  0
   -1.4061   -0.1111    0.0982 C   0  0  0  0  0  0  0  0  0  0  0  0
    0.4476   -0.5902   -1.5797 C   0  0  0  0  0  0  0  0  0  0  0  0
   -0.3793   -1.1113   -2.4728 C   0  0  0  0  0  0  0  0  0  0  0  0
    2.3110   -1.0032    2.3386 H   0  0  0  0  0  0  0  0  0  0  0  0
    2.0846    0.6643    1.5737 H   0  0  0  0  0  0  0  0  0  0  0  0
    0.5921   -1.9241    0.8925 H   0  0  0  0  0  0  0  0  0  0  0  0
    0.4358    0.9557   -0.1462 H   0  0  0  0  0  0  0  0  0  0  0  0
   -1.5968    0.3080    1.0865 H   0  0  0  0  0  0  0  0  0  0  0  0
   -1.9674    0.4693   -0.6359 H   0  0  0  0  0  0  0  0  0  0  0  0
   -1.7902   -1.1338    0.0883 H   0  0  0  0  0  0  0  0  0  0  0  0
    1.5049   -0.5197   -1.8214 H   0  0  0  0  0  0  0  0  0  0  0  0
   -1.4421   -1.2131   -2.2889 H   0  0  0  0  0  0  0  0  0  0  0  0
   -0.0162   -1.4558   -3.4328 H   0  0  0  0  0  0  0  0  0  0  0  0
  1  2  2  3
  1  7  1  0
  1  8  1  0
  2  3  1  0
  2  9  1  0
  3  4  1  0
  3  5  1  0
  3 10  1  0
  4 11  1  0
  4 12  1  0
  4 13  1  0
  5  6  2  3
  5 14  1  0
  6 15  1  0
  6 16  1  0
M  END
>  <reaction>  (1) 
rxn_1177

>  <mol_properties>  (1) 
{"2": {"label": "donator", "atom_type": "Cs"}, "9": {"label": "d_hydrogen", "atom_type": "H0"}}

>  <type>  (1) 
r1h

$$$$

     RDKit          3D

 12 11  0  0  0  0  0  0  0  0999 V2000
   -2.3791    0.4612   -0.5870 C   0  0  0  0  0  0  0  0  0  0  0  0
   -1.3422   -0.3138   -0.1893 C   0  0  0  0  0  0  0  0  0  0  0  0
   -1.4723   -1.6058    0.3589 C   0  0  0  0  0  3  0  0  0  0  0  0
   -0.3798   -2.3973    0.7671 C   0  0  0  0  0  0  0  0  0  0  0  0
   -0.4849   -3.6397    1.2956 C   0  0  0  0  0  0  0  0  0  0  0  0
   -2.2205    1.4472   -1.0017 H   0  0  0  0  0  0  0  0  0  0  0  0
   -3.4026    0.1153   -0.5011 H   0  0  0  0  0  0  0  0  0  0  0  0
   -0.3330    0.0765   -0.2952 H   0  0  0  0  0  0  0  0  0  0  0  0
   -2.4723   -2.0151    0.4735 H   0  0  0  0  0  0  0  0  0  0  0  0
    0.6117   -1.9687    0.6436 H   0  0  0  0  0  0  0  0  0  0  0  0
    0.3893   -4.2030    1.5920 H   0  0  0  0  0  0  0  0  0  0  0  0
   -1.4516   -4.1084    1.4378 H   0  0  0  0  0  0  0  0  0  0  0  0
  1  2  2  3
  1  6  1  0
  1  7  1  0
  2  3  1  0
  2  8  1  0
  3  4  1  0
  3  9  1  0
  4  5  2  3
  4 10  1  0
  5 11  1  0
  5 12  1  0
M  RAD  1   3   2
M  END
>  <reaction>  (2) 
rxn_1177

>  <mol_properties>  (2) 
{"2": {"label": "acceptor", "atom_type": "Cs"}}

>  <type>  (2) 
r2

$$$$

     RDKit          3D

 13 12  0  0  0  0  0  0  0  0999 V2000
    3.0977   -0.3549   -0.5105 C   0  0  0  0  0  0  0  0  0  0  0  0
    2.0556    0.4221   -0.2627 C   0  0  0  0  0  0  0  0  0  0  0  0
    0.6313   -0.0354   -0.2366 C   0  0  0  0  0  0  0  0  0  0  0  0
   -0.2567    0.6038   -1.2694 C   0  0  0  0  0  0  0  0  0  0  0  0
    0.1459    1.3456   -2.2891 C   0  0  0  0  0  0  0  0  0  0  0  0
    4.1081    0.0344   -0.5074 H   0  0  0  0  0  0  0  0  0  0  0  0
    2.9777   -1.4116   -0.7243 H   0  0  0  0  0  0  0  0  0  0  0  0
    2.2171    1.4781   -0.0618 H   0  0  0  0  0  0  0  0  0  0  0  0
    0.5865   -1.1233   -0.3540 H   0  0  0  0  0  0  0  0  0  0  0  0
    0.2065    0.1743    0.7521 H   0  0  0  0  0  0  0  0  0  0  0  0
   -1.3190    0.4126   -1.1445 H   0  0  0  0  0  0  0  0  0  0  0  0
    1.1948    1.5564   -2.4628 H   0  0  0  0  0  0  0  0  0  0  0  0
   -0.5644    1.7621   -2.9918 H   0  0  0  0  0  0  0  0  0  0  0  0
  1  2  2  3
  1  6  1  0
  1  7  1  0
  2  3  1  0
  2  8  1  0
  3  4  1  0
  3  9  1  0
  3 10  1  0
  4  5  2  3
  4 11  1  0
  5 12  1  0
  5 13  1  0
M  END
>  <reaction>  (3) 
rxn_1177

>  <mol_properties>  (3) 
{"2": {"label": "acceptor", "atom_type": "Cs"}, "12": {"label": "a_hydrogen", "atom_type": "H0"}}

>  <type>  (3) 
r2h

$$$$

     RDKit          3D

 28 26  0  0  0  0  0  0  0  0999 V2000
   -2.5184    1.4074   -0.8503 C   0  0  0  0  0  0  0  0  0  0  0  0
   -1.2381    1.3492   -1.2187 C   0  0  0  0  0  0  0  0  0  0  0  0
   -0.1190    1.5466   -0.3039 C   0  0  0  0  0  3  0  0  0  0  0  0
    1.2308    1.8079   -0.7898 C   0  0  0  0  0  0  0  0  0  0  0  0
    1.7247    1.5029   -1.9939 C   0  0  0  0  0  0  0  0  0  0  0  0
   -3.3176    1.2231   -1.5561 H   0  0  0  0  0  0  0  0  0  0  0  0
   -2.8017    1.6532    0.1674 H   0  0  0  0  0  0  0  0  0  0  0  0
   -1.0028    1.0912   -2.2459 H   0  0  0  0  0  0  0  0  0  0  0  0
   -0.3811    2.0774    0.6098 H   0  0  0  0  0  0  0  0  0  0  0  0
    1.9054    2.2488   -0.0618 H   0  0  0  0  0  0  0  0  0  0  0  0
    2.7582    1.7116   -2.2364 H   0  0  0  0  0  0  0  0  0  0  0  0
    1.1260    1.0413   -2.7690 H   0  0  0  0  0  0  0  0  0  0  0  0
    0.9385   -2.2005   -1.1949 C   0  0  0  0  0  0  0  0  0  0  0  0
   -0.0410   -1.7351   -0.4184 C   0  0  0  0  0  0  0  0  0  0  0  0
    0.1097   -0.9189    0.7909 C   0  0  0  0  0  0  0  0  0  0  0  0
    1.4855   -0.8065    1.3985 C   0  0  0  0  0  0  0  0  0  0  0  0
   -1.0432   -0.9503    1.6987 C   0  0  0  0  0  0  0  0  0  0  0  0
   -1.0372   -0.7020    3.0089 C   0  0  0  0  0  0  0  0  0  0  0  0
    0.7123   -2.7671   -2.0886 H   0  0  0  0  0  0  0  0  0  0  0  0
    1.9853   -2.0467   -0.9661 H   0  0  0  0  0  0  0  0  0  0  0  0
   -1.0677   -1.9301   -0.7164 H   0  0  0  0  0  0  0  0  0  0  0  0
   -0.0163    0.3050    0.2522 H   0  0  0  0  0  0  0  0  0  0  0  0
    2.2270   -0.5615    0.6380 H   0  0  0  0  0  0  0  0  0  0  0  0
    1.5171   -0.0164    2.1496 H   0  0  0  0  0  0  0  0  0  0  0  0
    1.7804   -1.7441    1.8771 H   0  0  0  0  0  0  0  0  0  0  0  0
   -1.9955   -1.1677    1.2218 H   0  0  0  0  0  0  0  0  0  0  0  0
   -0.1281   -0.4873    3.5566 H   0  0  0  0  0  0  0  0  0  0  0  0
   -1.9561   -0.7250    3.5799 H   0  0  0  0  0  0  0  0  0  0  0  0
  1  2  2  3
  1  6  1  0
  1  7  1  0
  2  3  1  0
  2  8  1  0
  3  4  1  0
  3  9  1  0
  4  5  2  3
  4 10  1  0
  5 11  1  0
  5 12  1  0
 13 14  2  3
 13 19  1  0
 13 20  1  0
 14 15  1  0
 14 21  1  0
 15 16  1  0
 15 17  1  0
 15 22  1  0
 16 23  1  0
 16 24  1  0
 16 25  1  0
 17 18  2  3
 17 26  1  0
 18 27  1  0
 18 28  1  0
M  RAD  1   3   2
M  END
>  <reaction>  (4) 
rxn_1177

>  <mol_properties>  (4) 
{"1": {"label": "*4", "atom_type": "Cd"}, "2": {"label": "*3", "atom_type": "Cs"}, "13": {"label": "*0", "atom_type": "Cd"}, "14": {"label": "*1", "atom_type": "Cs"}, "21": {"label": "*2", "atom_type": "H0"}}

>  <type>  (4) 
ts

$$$$
