
     RDKit          3D

  9  8  0  0  0  0  0  0  0  0999 V2000
    1.1303   -0.2933   -0.7510 C   0  0  0  0  0  0  0  0  0  0  0  0
    0.2866    0.4560   -0.0588 C   0  0  0  0  0  0  0  0  0  0  0  0
   -0.9719   -0.0331    0.5823 C   0  0  0  0  0  0  0  0  0  0  0  0
    2.0274    0.1230   -1.1916 H   0  0  0  0  0  0  0  0  0  0  0  0
    0.9532   -1.3530   -0.9023 H   0  0  0  0  0  0  0  0  0  0  0  0
    0.5065    1.5132    0.0659 H   0  0  0  0  0  0  0  0  0  0  0  0
   -0.9526    0.1426    1.6610 H   0  0  0  0  0  0  0  0  0  0  0  0
   -1.1182   -1.1002    0.4106 H   0  0  0  0  0  0  0  0  0  0  0  0
   -1.8412    0.5010    0.1901 H   0  0  0  0  0  0  0  0  0  0  0  0
  1  2  2  3
  1  4  1  0
  1  5  1  0
  2  3  1  0
  2  6  1  0
  3  7  1  0
  3  8  1  0
  3  9  1  0
M  END
>  <reaction>  (1) 
rxn_414

>  <mol_properties>  (1) 
{"2": {"label": "donator", "atom_type": "Cs"}, "6": {"label": "d_hydrogen", "atom_type": "H0"}}

>  <type>  (1) 
r1h

$$$$

     RDKit          3D

 14 13  0  0  0  0  0  0  0  0999 V2000
   -1.1038   -1.2820   -0.0831 C   0  0  0  0  0  0  0  0  0  0  0  0
   -0.3738   -0.0303    0.3958 C   0  0  0  0  0  0  0  0  0  0  0  0
    1.0799   -0.0135   -0.1022 C   0  0  0  0  0  0  0  0  0  0  0  0
   -0.4539    0.0783    1.8774 C   0  0  0  0  0  3  0  0  0  0  0  0
   -0.0196    1.2652    2.3945 O   0  0  0  0  0  0  0  0  0  0  0  0
   -0.6387   -2.1819    0.3292 H   0  0  0  0  0  0  0  0  0  0  0  0
   -1.0649   -1.3593   -1.1709 H   0  0  0  0  0  0  0  0  0  0  0  0
   -2.1510   -1.2728    0.2226 H   0  0  0  0  0  0  0  0  0  0  0  0
   -0.8759    0.8495   -0.0235 H   0  0  0  0  0  0  0  0  0  0  0  0
    1.1145   -0.0235   -1.1941 H   0  0  0  0  0  0  0  0  0  0  0  0
    1.6194   -0.8920    0.2618 H   0  0  0  0  0  0  0  0  0  0  0  0
    1.6007    0.8771    0.2500 H   0  0  0  0  0  0  0  0  0  0  0  0
   -0.3212   -0.8061    2.4983 H   0  0  0  0  0  0  0  0  0  0  0  0
   -0.0217    1.2207    3.3511 H   0  0  0  0  0  0  0  0  0  0  0  0
  1  2  1  0
  1  6  1  0
  1  7  1  0
  1  8  1  0
  2  3  1  0
  2  4  1  0
  2  9  1  0
  3 10  1  0
  3 11  1  0
  3 12  1  0
  4  5  1  0
  4 13  1  0
  5 14  1  0
M  RAD  1   4   2
M  END
>  <reaction>  (2) 
rxn_414

>  <mol_properties>  (2) 
{"3": {"label": "acceptor", "atom_type": "Cs"}}

>  <type>  (2) 
r2

$$$$

     RDKit          3D

 15 14  0  0  0  0  0  0  0  0999 V2000
   -0.6986    1.3249   -0.1641 C   0  0  0  0  0  0  0  0  0  0  0  0
   -0.2590   -0.0344    0.3671 C   0  0  0  0  0  0  0  0  0  0  0  0
   -0.4734   -0.1429    1.8733 C   0  0  0  0  0  0  0  0  0  0  0  0
   -0.9841   -1.1722   -0.3462 C   0  0  0  0  0  0  0  0  0  0  0  0
   -0.7805   -1.1911   -1.7444 O   0  0  0  0  0  0  0  0  0  0  0  0
   -0.1246    2.1306    0.2976 H   0  0  0  0  0  0  0  0  0  0  0  0
   -1.7557    1.4964    0.0581 H   0  0  0  0  0  0  0  0  0  0  0  0
   -0.5709    1.3852   -1.2449 H   0  0  0  0  0  0  0  0  0  0  0  0
    0.8141   -0.1541    0.1667 H   0  0  0  0  0  0  0  0  0  0  0  0
   -1.5346   -0.0466    2.1192 H   0  0  0  0  0  0  0  0  0  0  0  0
    0.0611    0.6480    2.4019 H   0  0  0  0  0  0  0  0  0  0  0  0
   -0.1249   -1.1023    2.2618 H   0  0  0  0  0  0  0  0  0  0  0  0
   -0.6918   -2.1316    0.1011 H   0  0  0  0  0  0  0  0  0  0  0  0
   -2.0629   -1.0627   -0.2056 H   0  0  0  0  0  0  0  0  0  0  0  0
    0.1528   -1.3298   -1.9125 H   0  0  0  0  0  0  0  0  0  0  0  0
  1  2  1  0
  1  6  1  0
  1  7  1  0
  1  8  1  0
  2  3  1  0
  2  4  1  0
  2  9  1  0
  3 10  1  0
  3 11  1  0
  3 12  1  0
  4  5  1  0
  4 13  1  0
  4 14  1  0
  5 15  1  0
M  END
>  <reaction>  (3) 
rxn_414

>  <mol_properties>  (3) 
{"3": {"label": "acceptor", "atom_type": "Cs"}, "14": {"label": "a_hydrogen", "atom_type": "H0"}}

>  <type>  (3) 
r2h

$$$$

     RDKit          3D

 23 21  0  0  0  0  0  0  0  0999 V2000
   -0.3129   -1.4746    1.8731 C   0  0  0  0  0  0  0  0  0  0  0  0
   -0.4658    0.0438    1.8344 C   0  0  0  0  0  0  0  0  0  0  0  0
    0.6699    0.7407    2.5772 C   0  0  0  0  0  0  0  0  0  0  0  0
   -0.5439    0.5597    0.4230 C   0  0  0  0  0  3  0  0  0  0  0  0
   -1.5579   -0.0210   -0.3068 O   0  0  0  0  0  0  0  0  0  0  0  0
   -0.3206   -1.8344    2.9035 H   0  0  0  0  0  0  0  0  0  0  0  0
    0.6343   -1.7759    1.4184 H   0  0  0  0  0  0  0  0  0  0  0  0
   -1.1205   -1.9649    1.3308 H   0  0  0  0  0  0  0  0  0  0  0  0
   -1.4124    0.3018    2.3288 H   0  0  0  0  0  0  0  0  0  0  0  0
    1.6331    0.5087    2.1151 H   0  0  0  0  0  0  0  0  0  0  0  0
    0.7107    0.4114    3.6165 H   0  0  0  0  0  0  0  0  0  0  0  0
    0.5463    1.8257    2.5732 H   0  0  0  0  0  0  0  0  0  0  0  0
   -0.5065    1.6515    0.3368 H   0  0  0  0  0  0  0  0  0  0  0  0
   -1.4637    0.2351   -1.2302 H   0  0  0  0  0  0  0  0  0  0  0  0
    0.3421    0.3760   -3.2598 C   0  0  0  0  0  0  0  0  0  0  0  0
    0.7562   -0.4965   -2.3298 C   0  0  0  0  0  0  0  0  0  0  0  0
    1.5232   -0.1537   -1.1444 C   0  0  0  0  0  0  0  0  0  0  0  0
   -0.2643    0.0615   -4.0993 H   0  0  0  0  0  0  0  0  0  0  0  0
    0.6305    1.4212   -3.2209 H   0  0  0  0  0  0  0  0  0  0  0  0
    0.4411   -1.5322   -2.4211 H   0  0  0  0  0  0  0  0  0  0  0  0
    0.6145    0.1824   -0.2331 H   0  0  0  0  0  0  0  0  0  0  0  0
    2.1085    0.7613   -1.2131 H   0  0  0  0  0  0  0  0  0  0  0  0
    2.0707   -0.9696   -0.6807 H   0  0  0  0  0  0  0  0  0  0  0  0
  1  2  1  0
  1  6  1  0
  1  7  1  0
  1  8  1  0
  2  3  1  0
  2  4  1  0
  2  9  1  0
  3 10  1  0
  3 11  1  0
  3 12  1  0
  4  5  1  0
  4 13  1  0
  5 14  1  0
 15 16  2  3
 15 18  1  0
 15 19  1  0
 16 17  1  0
 16 20  1  0
 17 21  1  0
 17 22  1  0
 17 23  1  0
M  RAD  1   4   2
M  END
>  <reaction>  (4) 
rxn_414

>  <mol_properties>  (4) 
{"1": {"label": "*4", "atom_type": "Cs"}, "3": {"label": "*3", "atom_type": "Cs"}, "15": {"label": "*0", "atom_type": "Cd"}, "16": {"label": "*1", "atom_type": "Cs"}, "20": {"label": "*2", "atom_type": "H0"}}

>  <type>  (4) 
ts

$$$$
