
     RDKit          3D

 12 11  0  0  0  0  0  0  0  0999 V2000
    2.1696    0.6854    1.1310 C   0  0  0  0  0  0  0  0  0  0  0  0
    1.2518    0.4145    0.4134 C   0  0  0  0  0  0  0  0  0  0  0  0
    0.1391    0.0443   -0.4683 C   0  0  0  0  0  0  0  0  0  0  0  0
   -0.2054   -1.4492   -0.3339 C   0  0  0  0  0  0  0  0  0  0  0  0
   -1.0375    0.8853   -0.2222 C   0  0  0  0  0  0  0  0  0  0  0  0
   -2.0160    1.5463   -0.0311 C   0  0  0  0  0  0  0  0  0  0  0  0
    2.9819    0.9356    1.7702 H   0  0  0  0  0  0  0  0  0  0  0  0
    0.4629    0.2285   -1.4981 H   0  0  0  0  0  0  0  0  0  0  0  0
   -0.5327   -1.6703    0.6812 H   0  0  0  0  0  0  0  0  0  0  0  0
    0.6727   -2.0535   -0.5593 H   0  0  0  0  0  0  0  0  0  0  0  0
   -1.0064   -1.7081   -1.0256 H   0  0  0  0  0  0  0  0  0  0  0  0
   -2.8802    2.1413    0.1426 H   0  0  0  0  0  0  0  0  0  0  0  0
  1  2  3  0
  1  7  1  0
  2  3  1  0
  3  4  1  0
  3  5  1  0
  3  8  1  0
  4  9  1  0
  4 10  1  0
  4 11  1  0
  5  6  3  0
  6 12  1  0
M  END
>  <reaction>  (1) 
rxn_1402

>  <mol_properties>  (1) 
{"2": {"label": "donator", "atom_type": "Cs"}, "7": {"label": "d_hydrogen", "atom_type": "H0"}}

>  <type>  (1) 
r1h

$$$$

     RDKit          3D

  8  7  0  0  0  0  0  0  0  0999 V2000
   -2.2129    0.4855    0.7390 C   0  0  0  0  0  0  0  0  0  0  0  0
   -1.2226    0.0526    0.1974 C   0  0  0  0  0  0  0  0  0  0  0  0
   -0.1006   -0.4575   -0.4419 C   0  0  0  0  0  3  0  0  0  0  0  0
    1.1960   -0.1737   -0.0342 C   0  0  0  0  0  0  0  0  0  0  0  0
    2.3329    0.0603    0.3036 C   0  0  0  0  0  0  0  0  0  0  0  0
   -3.0803    0.8696    1.2198 H   0  0  0  0  0  0  0  0  0  0  0  0
   -0.2433   -1.1067   -1.2980 H   0  0  0  0  0  0  0  0  0  0  0  0
    3.3308    0.2700    0.6058 H   0  0  0  0  0  0  0  0  0  0  0  0
  1  2  3  0
  1  6  1  0
  2  3  1  0
  3  4  1  0
  3  7  1  0
  4  5  3  0
  5  8  1  0
M  RAD  1   3   2
M  END
>  <reaction>  (2) 
rxn_1402

>  <mol_properties>  (2) 
{"2": {"label": "acceptor", "atom_type": "Cs"}}

>  <type>  (2) 
r2

$$$$

     RDKit          3D

  9  8  0  0  0  0  0  0  0  0999 V2000
   -2.1022   -0.6873    0.3932 C   0  0  0  0  0  0  0  0  0  0  0  0
   -1.2072   -0.1086   -0.1482 C   0  0  0  0  0  0  0  0  0  0  0  0
   -0.1242    0.6105   -0.8193 C   0  0  0  0  0  0  0  0  0  0  0  0
    1.2067    0.1106   -0.4741 C   0  0  0  0  0  0  0  0  0  0  0  0
    2.3005   -0.2875   -0.2012 C   0  0  0  0  0  0  0  0  0  0  0  0
   -2.8942   -1.2059    0.8778 H   0  0  0  0  0  0  0  0  0  0  0  0
   -0.1862    1.6723   -0.5649 H   0  0  0  0  0  0  0  0  0  0  0  0
   -0.2641    0.5418   -1.9017 H   0  0  0  0  0  0  0  0  0  0  0  0
    3.2709   -0.6459    0.0455 H   0  0  0  0  0  0  0  0  0  0  0  0
  1  2  3  0
  1  6  1  0
  2  3  1  0
  3  4  1  0
  3  7  1  0
  3  8  1  0
  4  5  3  0
  5  9  1  0
M  END
>  <reaction>  (3) 
rxn_1402

>  <mol_properties>  (3) 
{"2": {"label": "acceptor", "atom_type": "Cs"}, "8": {"label": "a_hydrogen", "atom_type": "H0"}}

>  <type>  (3) 
r2h

$$$$

     RDKit          3D

 20 18  0  0  0  0  0  0  0  0999 V2000
    1.7624   -2.3515    0.7847 C   0  0  0  0  0  0  0  0  0  0  0  0
    1.6800   -1.2045    0.4395 C   0  0  0  0  0  0  0  0  0  0  0  0
    1.5069    0.1441    0.0075 C   0  0  0  0  0  3  0  0  0  0  0  0
    1.7498    1.1908    0.9459 C   0  0  0  0  0  0  0  0  0  0  0  0
    1.8920    2.0938    1.7244 C   0  0  0  0  0  0  0  0  0  0  0  0
    1.8553   -3.3654    1.0919 H   0  0  0  0  0  0  0  0  0  0  0  0
    1.8709    0.3462   -0.9988 H   0  0  0  0  0  0  0  0  0  0  0  0
    2.0377    2.8899    2.4143 H   0  0  0  0  0  0  0  0  0  0  0  0
   -1.4789    2.7908   -1.1940 C   0  0  0  0  0  0  0  0  0  0  0  0
   -1.3642    1.6490   -0.8426 C   0  0  0  0  0  0  0  0  0  0  0  0
   -1.1624    0.3048   -0.3846 C   0  0  0  0  0  0  0  0  0  0  0  0
   -1.6036    0.0162    1.0415 C   0  0  0  0  0  0  0  0  0  0  0  0
   -1.4335   -0.7259   -1.3446 C   0  0  0  0  0  0  0  0  0  0  0  0
   -1.6075   -1.6197   -2.1263 C   0  0  0  0  0  0  0  0  0  0  0  0
   -1.5940    3.7990   -1.5120 H   0  0  0  0  0  0  0  0  0  0  0  0
    0.1646    0.2377   -0.2500 H   0  0  0  0  0  0  0  0  0  0  0  0
   -2.6923    0.0323    1.1154 H   0  0  0  0  0  0  0  0  0  0  0  0
   -1.1940    0.7701    1.7136 H   0  0  0  0  0  0  0  0  0  0  0  0
   -1.2446   -0.9666    1.3465 H   0  0  0  0  0  0  0  0  0  0  0  0
   -1.7748   -2.4051   -2.8234 H   0  0  0  0  0  0  0  0  0  0  0  0
  1  2  3  0
  1  6  1  0
  2  3  1  0
  3  4  1  0
  3  7  1  0
  4  5  3  0
  5  8  1  0
  9 10  3  0
  9 15  1  0
 10 11  1  0
 11 12  1  0
 11 13  1  0
 11 16  1  0
 12 17  1  0
 12 18  1  0
 12 19  1  0
 13 14  3  0
 14 20  1  0
M  RAD  1   3   2
M  END
>  <reaction>  (4) 
rxn_1402

>  <mol_properties>  (4) 
{"1": {"label": "*4", "atom_type": "Ct"}, "2": {"label": "*3", "atom_type": "Cs"}, "9": {"label": "*0", "atom_type": "Ct"}, "10": {"label": "*1", "atom_type": "Cs"}, "15": {"label": "*2", "atom_type": "H0"}}

>  <type>  (4) 
ts

$$$$
