
     RDKit          3D

 12 11  0  0  0  0  0  0  0  0999 V2000
    1.2394   -0.3763   -0.3020 C   0  0  0  0  0  0  0  0  0  0  0  0
    0.1007    0.3024    0.4464 C   0  0  0  0  0  0  0  0  0  0  0  0
   -0.1187    2.0399   -0.0725 S   0  0  0  0  0  0  0  0  0  0  0  0
   -1.1974   -0.4877    0.3552 C   0  0  0  0  0  0  0  0  0  0  0  0
    2.1681    0.1850   -0.2048 H   0  0  0  0  0  0  0  0  0  0  0  0
    1.0030   -0.4604   -1.3656 H   0  0  0  0  0  0  0  0  0  0  0  0
    1.3993   -1.3856    0.0859 H   0  0  0  0  0  0  0  0  0  0  0  0
    0.3797    0.4050    1.4982 H   0  0  0  0  0  0  0  0  0  0  0  0
   -0.4500    1.7774   -1.3452 H   0  0  0  0  0  0  0  0  0  0  0  0
   -1.0545   -1.4977    0.7478 H   0  0  0  0  0  0  0  0  0  0  0  0
   -1.5206   -0.5758   -0.6849 H   0  0  0  0  0  0  0  0  0  0  0  0
   -1.9957   -0.0054    0.9183 H   0  0  0  0  0  0  0  0  0  0  0  0
  1  2  1  0
  1  5  1  0
  1  6  1  0
  1  7  1  0
  2  4  1  0
  2  3  1  0
  2  8  1  0
  3  9  1  0
  4 10  1  0
  4 11  1  0
  4 12  1  0
M  END
>  <reaction>  (1) 
rxn_1922

>  <mol_properties>  (1) 
{"1": {"label": "donator", "atom_type": "Cs"}, "7": {"label": "d_hydrogen", "atom_type": "H0"}}

>  <type>  (1) 
r1h

$$$$

     RDKit          3D

 14 14  0  0  0  0  0  0  0  0999 V2000
    2.3111    0.1295    0.0255 C   0  0  0  0  0  0  0  0  0  0  0  0
    0.9132    0.0511    0.0101 C   0  0  0  0  0  0  0  0  0  0  0  0
    0.1101    1.2180   -0.0350 C   0  0  0  0  0  3  0  0  0  0  0  0
   -1.2644    1.1347   -0.0499 C   0  0  0  0  0  0  0  0  0  0  0  0
   -1.8967   -0.1062   -0.0209 C   0  0  0  0  0  0  0  0  0  0  0  0
   -1.1306   -1.2689    0.0235 C   0  0  0  0  0  0  0  0  0  0  0  0
    0.2446   -1.1981    0.0389 C   0  0  0  0  0  0  0  0  0  0  0  0
    2.9188   -0.7647    0.0599 H   0  0  0  0  0  0  0  0  0  0  0  0
    2.8158    1.0859    0.0034 H   0  0  0  0  0  0  0  0  0  0  0  0
    0.5964    2.1860   -0.0577 H   0  0  0  0  0  0  0  0  0  0  0  0
   -1.8572    2.0404   -0.0845 H   0  0  0  0  0  0  0  0  0  0  0  0
   -2.9772   -0.1668   -0.0328 H   0  0  0  0  0  0  0  0  0  0  0  0
   -1.6191   -2.2351    0.0461 H   0  0  0  0  0  0  0  0  0  0  0  0
    0.8353   -2.1058    0.0735 H   0  0  0  0  0  0  0  0  0  0  0  0
  1  2  2  3
  1  8  1  0
  1  9  1  0
  2  3  1  0
  2  7  1  0
  3  4  1  0
  3 10  1  0
  4  5  2  0
  4 11  1  0
  5  6  1  0
  5 12  1  0
  6  7  2  0
  6 13  1  0
  7 14  1  0
M  RAD  1   3   2
M  END
>  <reaction>  (2) 
rxn_1922

>  <mol_properties>  (2) 
{"0": {"label": "acceptor", "atom_type": "Cs"}}

>  <type>  (2) 
r2

$$$$

     RDKit          3D

 15 15  0  0  0  0  0  0  0  0999 V2000
    2.2033   -0.2106   -0.1691 C   0  0  0  0  0  0  0  0  0  0  0  0
    0.7079   -0.0769   -0.0833 C   0  0  0  0  0  0  0  0  0  0  0  0
    0.0133   -0.5320    1.0332 C   0  0  0  0  0  0  0  0  0  0  0  0
   -1.3681   -0.4375    1.1023 C   0  0  0  0  0  0  0  0  0  0  0  0
   -2.0817    0.1179    0.0512 C   0  0  0  0  0  0  0  0  0  0  0  0
   -1.4017    0.5784   -1.0658 C   0  0  0  0  0  0  0  0  0  0  0  0
   -0.0203    0.4813   -1.1294 C   0  0  0  0  0  0  0  0  0  0  0  0
    2.6627   -0.1689    0.8190 H   0  0  0  0  0  0  0  0  0  0  0  0
    2.4808   -1.1663   -0.6212 H   0  0  0  0  0  0  0  0  0  0  0  0
    2.6378    0.5807   -0.7809 H   0  0  0  0  0  0  0  0  0  0  0  0
    0.5630   -0.9645    1.8617 H   0  0  0  0  0  0  0  0  0  0  0  0
   -1.8884   -0.7961    1.9818 H   0  0  0  0  0  0  0  0  0  0  0  0
   -3.1603    0.1950    0.1041 H   0  0  0  0  0  0  0  0  0  0  0  0
   -1.9485    1.0183   -1.8907 H   0  0  0  0  0  0  0  0  0  0  0  0
    0.5030    0.8475   -2.0056 H   0  0  0  0  0  0  0  0  0  0  0  0
  1  2  1  0
  1  8  1  0
  1  9  1  0
  1 10  1  0
  2  3  2  0
  2  7  1  0
  3  4  1  0
  3 11  1  0
  4  5  2  0
  4 12  1  0
  5  6  1  0
  5 13  1  0
  6  7  2  0
  6 14  1  0
  7 15  1  0
M  END
>  <reaction>  (3) 
rxn_1922

>  <mol_properties>  (3) 
{"0": {"label": "a_hydrogen", "atom_type": "H0"}, "1": {"label": "acceptor", "atom_type": "Cs"}}

>  <type>  (3) 
r2h

$$$$

     RDKit          3D

 26 25  0  0  0  0  0  0  0  0999 V2000
    0.3785    2.1236   -2.8407 C   0  0  0  0  0  0  0  0  0  0  0  0
    0.8054    1.2652   -1.6775 C   0  0  0  0  0  3  0  0  0  0  0  0
    2.2797    0.2883   -1.9371 S   0  0  0  0  0  0  0  0  0  0  0  0
    0.8618    1.9684   -0.3437 C   0  0  0  0  0  0  0  0  0  0  0  0
    0.2490    1.5333   -3.7497 H   0  0  0  0  0  0  0  0  0  0  0  0
    1.1167    2.9046   -3.0475 H   0  0  0  0  0  0  0  0  0  0  0  0
   -0.5744    2.6082   -2.6141 H   0  0  0  0  0  0  0  0  0  0  0  0
   -0.1948    0.3784   -1.5115 H   0  0  0  0  0  0  0  0  0  0  0  0
    1.9822   -0.1388   -3.1718 H   0  0  0  0  0  0  0  0  0  0  0  0
   -0.1057    2.4264   -0.1286 H   0  0  0  0  0  0  0  0  0  0  0  0
    1.6186    2.7597   -0.3428 H   0  0  0  0  0  0  0  0  0  0  0  0
    1.0873    1.2732    0.4665 H   0  0  0  0  0  0  0  0  0  0  0  0
   -1.1658   -0.5125   -1.2437 C   0  0  0  0  0  0  0  0  0  0  0  0
   -1.0982   -0.7351    0.1988 C   0  0  0  0  0  0  0  0  0  0  0  0
   -0.1401   -1.5971    0.7441 C   0  0  0  0  0  0  0  0  0  0  0  0
   -0.0143   -1.7461    2.1140 C   0  0  0  0  0  0  0  0  0  0  0  0
   -0.8415   -1.0378    2.9753 C   0  0  0  0  0  0  0  0  0  0  0  0
   -1.7984   -0.1801    2.4503 C   0  0  0  0  0  0  0  0  0  0  0  0
   -1.9235   -0.0292    1.0805 C   0  0  0  0  0  0  0  0  0  0  0  0
   -2.0742   -0.0381   -1.6071 H   0  0  0  0  0  0  0  0  0  0  0  0
   -0.8435   -1.3453   -1.8644 H   0  0  0  0  0  0  0  0  0  0  0  0
    0.5174   -2.1430    0.0777 H   0  0  0  0  0  0  0  0  0  0  0  0
    0.7346   -2.4185    2.5138 H   0  0  0  0  0  0  0  0  0  0  0  0
   -0.7430   -1.1555    4.0468 H   0  0  0  0  0  0  0  0  0  0  0  0
   -2.4513    0.3737    3.1137 H   0  0  0  0  0  0  0  0  0  0  0  0
   -2.6719    0.6447    0.6790 H   0  0  0  0  0  0  0  0  0  0  0  0
  1  2  1  0
  1  5  1  0
  1  6  1  0
  1  7  1  0
  2  4  1  0
  2  3  1  0
  3  9  1  0
  4 10  1  0
  4 11  1  0
  4 12  1  0
  8 13  1  0
 13 14  1  0
 13 20  1  0
 13 21  1  0
 14 15  2  0
 14 19  1  0
 15 16  1  0
 15 22  1  0
 16 17  2  0
 16 23  1  0
 17 18  1  0
 17 24  1  0
 18 19  2  0
 18 25  1  0
 19 26  1  0
M  RAD  1   2   2
M  END
>  <reaction>  (4) 
rxn_1922

>  <mol_properties>  (4) 
{"1": {"label": "*3", "atom_type": "Cs"}, "2": {"label": "*4", "atom_type": "S2s"}, "7": {"label": "*2", "atom_type": "H0"}, "12": {"label": "*1", "atom_type": "Cs"}, "13": {"label": "*0", "atom_type": "Cd"}}

>  <type>  (4) 
ts

$$$$
