
     RDKit          3D

 10  9  0  0  0  0  0  0  0  0999 V2000
   -1.3430   -0.0068    0.1802 C   0  0  0  0  0  0  0  0  0  0  0  0
    0.0800   -0.1753   -0.3125 C   0  0  0  0  0  0  0  0  0  0  0  0
    0.4144    0.6817   -1.3880 O   0  0  0  0  0  0  0  0  0  0  0  0
    0.4868    2.0101   -0.8782 O   0  0  0  0  0  0  0  0  0  0  0  0
   -2.0531   -0.1437   -0.6372 H   0  0  0  0  0  0  0  0  0  0  0  0
   -1.5603   -0.7484    0.9509 H   0  0  0  0  0  0  0  0  0  0  0  0
   -1.4899    0.9815    0.6164 H   0  0  0  0  0  0  0  0  0  0  0  0
    0.2328   -1.1698   -0.7380 H   0  0  0  0  0  0  0  0  0  0  0  0
    0.8000   -0.0345    0.4993 H   0  0  0  0  0  0  0  0  0  0  0  0
   -0.2791    2.4184   -1.2952 H   0  0  0  0  0  0  0  0  0  0  0  0
  1  2  1  0
  1  5  1  0
  1  6  1  0
  1  7  1  0
  2  3  1  0
  2  8  1  0
  2  9  1  0
  3  4  1  0
  4 10  1  0
M  END
>  <reaction>  (1) 
rxn_458

>  <mol_properties>  (1) 
{"3": {"label": "donator", "atom_type": "O2s"}, "9": {"label": "d_hydrogen", "atom_type": "H0"}}

>  <type>  (1) 
r1h

$$$$

     RDKit          3D

  9  8  0  0  0  0  0  0  0  0999 V2000
   -1.1429   -0.0056    0.0357 C   0  0  0  0  0  0  0  0  0  0  0  0
    0.2348   -0.4846   -0.1988 C   0  0  0  0  0  0  0  0  0  0  0  0
    1.3889    0.3067    0.0768 C   0  0  0  0  0  0  0  0  0  0  0  0
    1.3416    1.4450    0.5289 O   0  0  0  0  0  1  0  0  0  0  0  0
   -1.7198   -0.0230   -0.8945 H   0  0  0  0  0  0  0  0  0  0  0  0
   -1.1399    1.0063    0.4362 H   0  0  0  0  0  0  0  0  0  0  0  0
   -1.6667   -0.6673    0.7330 H   0  0  0  0  0  0  0  0  0  0  0  0
    0.3900   -1.4812   -0.5984 H   0  0  0  0  0  0  0  0  0  0  0  0
    2.3646   -0.1624   -0.1407 H   0  0  0  0  0  0  0  0  0  0  0  0
  1  2  1  0
  1  5  1  0
  1  6  1  0
  1  7  1  0
  2  3  2  3
  2  8  1  0
  3  4  1  0
  3  9  1  0
M  RAD  1   4   2
M  END
>  <reaction>  (2) 
rxn_458

>  <mol_properties>  (2) 
{"1": {"label": "acceptor", "atom_type": "Cs"}}

>  <type>  (2) 
r2

$$$$

     RDKit          3D

 10  9  0  0  0  0  0  0  0  0999 V2000
   -1.1238    0.2714    0.2496 C   0  0  0  0  0  0  0  0  0  0  0  0
    0.0881   -0.5850   -0.0680 C   0  0  0  0  0  0  0  0  0  0  0  0
   -0.0512   -1.4242   -1.3070 C   0  0  0  0  0  0  0  0  0  0  0  0
   -1.0187   -1.4480   -2.0158 O   0  0  0  0  0  0  0  0  0  0  0  0
   -2.0096   -0.3470    0.3939 H   0  0  0  0  0  0  0  0  0  0  0  0
   -0.9564    0.8523    1.1567 H   0  0  0  0  0  0  0  0  0  0  0  0
   -1.3376    0.9606   -0.5673 H   0  0  0  0  0  0  0  0  0  0  0  0
    0.3267   -1.2715    0.7528 H   0  0  0  0  0  0  0  0  0  0  0  0
    0.9917    0.0222   -0.1983 H   0  0  0  0  0  0  0  0  0  0  0  0
    0.8330   -2.0534   -1.5447 H   0  0  0  0  0  0  0  0  0  0  0  0
  1  2  1  0
  1  5  1  0
  1  6  1  0
  1  7  1  0
  2  3  1  0
  2  8  1  0
  2  9  1  0
  3  4  2  0
  3 10  1  0
M  END
>  <reaction>  (3) 
rxn_458

>  <mol_properties>  (3) 
{"0": {"label": "a_hydrogen", "atom_type": "H0"}, "2": {"label": "acceptor", "atom_type": "Cs"}}

>  <type>  (3) 
r2h

$$$$

     RDKit          3D

 19 17  0  0  0  0  0  0  0  0999 V2000
    0.6190   -2.0387   -0.3355 C   0  0  0  0  0  0  0  0  0  0  0  0
    0.4094   -2.0940    1.1611 C   0  0  0  0  0  0  0  0  0  0  0  0
    0.4763   -0.8116    1.7902 O   0  0  0  0  0  0  0  0  0  0  0  0
   -0.6850   -0.1273    1.5802 O   0  0  0  0  0  0  0  0  0  0  0  0
    1.5971   -1.6217   -0.5759 H   0  0  0  0  0  0  0  0  0  0  0  0
    0.5686   -3.0491   -0.7448 H   0  0  0  0  0  0  0  0  0  0  0  0
   -0.1480   -1.4411   -0.8273 H   0  0  0  0  0  0  0  0  0  0  0  0
    1.2076   -2.6528    1.6528 H   0  0  0  0  0  0  0  0  0  0  0  0
   -0.5493   -2.5483    1.4188 H   0  0  0  0  0  0  0  0  0  0  0  0
   -0.4975    0.6332    0.6931 H   0  0  0  0  0  0  0  0  0  0  0  0
    1.2636    1.4612   -0.4737 C   0  0  0  0  0  0  0  0  0  0  0  0
   -0.2048    1.5916   -0.2148 C   0  0  0  0  0  0  0  0  0  0  0  0
   -1.1586    1.2449   -1.2782 C   0  0  0  0  0  0  0  0  0  0  0  0
   -0.8697    0.6373   -2.2825 O   0  0  0  0  0  1  0  0  0  0  0  0
    1.8009    1.2128    0.4442 H   0  0  0  0  0  0  0  0  0  0  0  0
    1.6706    2.4049   -0.8480 H   0  0  0  0  0  0  0  0  0  0  0  0
    1.4548    0.6915   -1.2190 H   0  0  0  0  0  0  0  0  0  0  0  0
   -0.5170    2.4411    0.3916 H   0  0  0  0  0  0  0  0  0  0  0  0
   -2.2058    1.5509   -1.0907 H   0  0  0  0  0  0  0  0  0  0  0  0
  1  2  1  0
  1  5  1  0
  1  6  1  0
  1  7  1  0
  2  3  1  0
  2  8  1  0
  2  9  1  0
  3  4  1  0
  4 10  1  0
 11 12  1  0
 11 15  1  0
 11 16  1  0
 11 17  1  0
 12 13  2  3
 12 18  1  0
 13 14  1  0
 13 19  1  0
M  RAD  1  14   2
M  END
>  <reaction>  (4) 
rxn_458

>  <mol_properties>  (4) 
{"2": {"label": "*0", "atom_type": "O2s"}, "3": {"label": "*1", "atom_type": "O2s"}, "9": {"label": "*2", "atom_type": "H0"}, "11": {"label": "*3", "atom_type": "Cd"}, "12": {"label": "*4", "atom_type": "Cd"}}

>  <type>  (4) 
ts

$$$$
