
     RDKit          3D

 15 15  0  0  0  0  0  0  0  0999 V2000
    2.2031   -0.2111   -0.1693 C   0  0  0  0  0  0  0  0  0  0  0  0
    0.7140   -0.0314   -0.0623 C   0  0  0  0  0  0  0  0  0  0  0  0
   -0.0114    0.5491   -1.0982 C   0  0  0  0  0  0  0  0  0  0  0  0
   -1.3882    0.6886   -1.0150 C   0  0  0  0  0  0  0  0  0  0  0  0
   -2.0661    0.2493    0.1118 C   0  0  0  0  0  0  0  0  0  0  0  0
   -1.3551   -0.3278    1.1528 C   0  0  0  0  0  0  0  0  0  0  0  0
    0.0216   -0.4648    1.0642 C   0  0  0  0  0  0  0  0  0  0  0  0
    2.6776   -0.1836    0.8122 H   0  0  0  0  0  0  0  0  0  0  0  0
    2.4446   -1.1749   -0.6249 H   0  0  0  0  0  0  0  0  0  0  0  0
    2.6532    0.5664   -0.7875 H   0  0  0  0  0  0  0  0  0  0  0  0
    0.5104    0.8989   -1.9819 H   0  0  0  0  0  0  0  0  0  0  0  0
   -1.9328    1.1452   -1.8322 H   0  0  0  0  0  0  0  0  0  0  0  0
   -3.1409    0.3597    0.1800 H   0  0  0  0  0  0  0  0  0  0  0  0
   -1.8736   -0.6702    2.0398 H   0  0  0  0  0  0  0  0  0  0  0  0
    0.5695   -0.9141    1.8849 H   0  0  0  0  0  0  0  0  0  0  0  0
  1  2  1  0
  1  8  1  0
  1  9  1  0
  1 10  1  0
  2  3  2  0
  2  7  1  0
  3  4  1  0
  3 11  1  0
  4  5  2  0
  4 12  1  0
  5  6  1  0
  5 13  1  0
  6  7  2  0
  6 14  1  0
  7 15  1  0
M  END
>  <reaction>  (1) 
rxn_262

>  <mol_properties>  (1) 
{"4": {"label": "donator", "atom_type": "Cd"}, "12": {"label": "d_hydrogen", "atom_type": "H0"}}

>  <type>  (1) 
r1h

$$$$

     RDKit          3D

  1  0  0  0  0  0  0  0  0  0999 V2000
    0.0000    0.0000    0.0000 H   0  0  0  0  0 15  0  0  0  0  0  0
M  END
>  <reaction>  (2) 
rxn_262

>  <mol_properties>  (2) 
{"0": {"label": "acceptor", "atom_type": "H0"}}

>  <type>  (2) 
r2

$$$$

     RDKit          3D

  2  1  0  0  0  0  0  0  0  0999 V2000
    0.0000    0.0000    0.3721 H   0  0  0  0  0  0  0  0  0  0  0  0
    0.0000    0.0000   -0.3721 H   0  0  0  0  0  0  0  0  0  0  0  0
  1  2  1  0
M  END
>  <reaction>  (3) 
rxn_262

>  <mol_properties>  (3) 
{"0": {"label": "a_hydrogen", "atom_type": "H0"}, "1": {"label": "acceptor", "atom_type": "H0"}}

>  <type>  (3) 
r2h

$$$$

     RDKit          3D

 16 15  0  0  0  0  0  0  0  0999 V2000
    0.0258   -0.0003   -2.5022 C   0  0  0  0  0  0  0  0  0  0  0  0
    0.0256   -0.0003   -0.9979 C   0  0  0  0  0  0  0  0  0  0  0  0
    0.0257    1.1979   -0.2884 C   0  0  0  0  0  0  0  0  0  0  0  0
   -0.0047    1.2097    1.1017 C   0  0  0  0  0  0  0  0  0  0  0  0
   -0.0335    0.0004    1.7514 C   0  0  0  0  0  0  0  0  0  0  0  0
   -0.0313   -1.2093    1.1017 C   0  0  0  0  0  0  0  0  0  0  0  0
   -0.0008   -1.1982   -0.2884 C   0  0  0  0  0  0  0  0  0  0  0  0
    0.5178   -0.8889   -2.8987 H   0  0  0  0  0  0  0  0  0  0  0  0
   -0.9962    0.0110   -2.8892 H   0  0  0  0  0  0  0  0  0  0  0  0
    0.5373    0.8772   -2.8987 H   0  0  0  0  0  0  0  0  0  0  0  0
    0.0523    2.1377   -0.8291 H   0  0  0  0  0  0  0  0  0  0  0  0
   -0.0021    2.1449    1.6480 H   0  0  0  0  0  0  0  0  0  0  0  0
   -0.0614    0.0007    3.2038 H   0  0  0  0  0  0  0  0  0  0  0  0
   -0.0493   -2.1443    1.6480 H   0  0  0  0  0  0  0  0  0  0  0  0
    0.0052   -2.1383   -0.8291 H   0  0  0  0  0  0  0  0  0  0  0  0
   -0.0776    0.0009    4.0660 H   0  0  0  0  0 15  0  0  0  0  0  0
  1  2  1  0
  1  8  1  0
  1  9  1  0
  1 10  1  0
  2  3  2  0
  2  7  1  0
  3  4  1  0
  3 11  1  0
  4  5  2  0
  4 12  1  0
  5  6  1  0
  5 13  1  0
  6  7  2  0
  6 14  1  0
  7 15  1  0
M  END
>  <reaction>  (4) 
rxn_262

>  <mol_properties>  (4) 
{"3": {"label": "*4", "atom_type": "Cd"}, "4": {"label": "*3", "atom_type": "Cd"}, "12": {"label": "*2", "atom_type": "H0"}, "15": {"label": "*1", "atom_type": "H0"}}

>  <type>  (4) 
ts

$$$$
