
     RDKit          3D

 12 11  0  0  0  0  0  0  0  0999 V2000
    2.1696    0.6854    1.1310 C   0  0  0  0  0  0  0  0  0  0  0  0
    1.2518    0.4145    0.4134 C   0  0  0  0  0  0  0  0  0  0  0  0
    0.1391    0.0443   -0.4683 C   0  0  0  0  0  0  0  0  0  0  0  0
   -0.2054   -1.4492   -0.3339 C   0  0  0  0  0  0  0  0  0  0  0  0
   -1.0375    0.8853   -0.2222 C   0  0  0  0  0  0  0  0  0  0  0  0
   -2.0160    1.5463   -0.0311 C   0  0  0  0  0  0  0  0  0  0  0  0
    2.9819    0.9356    1.7702 H   0  0  0  0  0  0  0  0  0  0  0  0
    0.4629    0.2285   -1.4981 H   0  0  0  0  0  0  0  0  0  0  0  0
   -0.5327   -1.6703    0.6812 H   0  0  0  0  0  0  0  0  0  0  0  0
    0.6727   -2.0535   -0.5593 H   0  0  0  0  0  0  0  0  0  0  0  0
   -1.0064   -1.7081   -1.0256 H   0  0  0  0  0  0  0  0  0  0  0  0
   -2.8802    2.1413    0.1426 H   0  0  0  0  0  0  0  0  0  0  0  0
  1  2  3  0
  1  7  1  0
  2  3  1  0
  3  4  1  0
  3  5  1  0
  3  8  1  0
  4  9  1  0
  4 10  1  0
  4 11  1  0
  5  6  3  0
  6 12  1  0
M  END
>  <reaction>  (1) 
rxn_1395

>  <mol_properties>  (1) 
{"2": {"label": "donator", "atom_type": "Cs"}, "7": {"label": "d_hydrogen", "atom_type": "H0"}}

>  <type>  (1) 
r1h

$$$$

     RDKit          3D

 11 10  0  0  0  0  0  0  0  0999 V2000
    2.0591    0.2533   -0.1061 C   0  0  0  0  0  0  0  0  0  0  0  0
    0.8045   -0.3111   -0.1535 C   0  0  0  0  0  0  0  0  0  0  0  0
   -0.3816    0.3942   -0.1885 C   0  0  0  0  0  3  0  0  0  0  0  0
   -1.7316   -0.2294   -0.2396 C   0  0  0  0  0  0  0  0  0  0  0  0
    2.9505   -0.3576   -0.0805 H   0  0  0  0  0  0  0  0  0  0  0  0
    2.1872    1.3290   -0.0933 H   0  0  0  0  0  0  0  0  0  0  0  0
    0.7385   -1.3970   -0.1643 H   0  0  0  0  0  0  0  0  0  0  0  0
   -0.3340    1.4795   -0.1783 H   0  0  0  0  0  0  0  0  0  0  0  0
   -1.6704   -1.3186   -0.2461 H   0  0  0  0  0  0  0  0  0  0  0  0
   -2.3404    0.0713    0.6191 H   0  0  0  0  0  0  0  0  0  0  0  0
   -2.2805    0.0851   -1.1331 H   0  0  0  0  0  0  0  0  0  0  0  0
  1  2  2  3
  1  5  1  0
  1  6  1  0
  2  3  1  0
  2  7  1  0
  3  4  1  0
  3  8  1  0
  4  9  1  0
  4 10  1  0
  4 11  1  0
M  RAD  1   3   2
M  END
>  <reaction>  (2) 
rxn_1395

>  <mol_properties>  (2) 
{"2": {"label": "acceptor", "atom_type": "Cs"}}

>  <type>  (2) 
r2

$$$$

     RDKit          3D

 12 11  0  0  0  0  0  0  0  0999 V2000
    1.9877    0.1011    0.4814 C   0  0  0  0  0  0  0  0  0  0  0  0
    0.8179    0.5502    0.0525 C   0  0  0  0  0  0  0  0  0  0  0  0
   -0.2939   -0.2692   -0.5320 C   0  0  0  0  0  0  0  0  0  0  0  0
   -0.0292   -1.7631   -0.6328 C   0  0  0  0  0  0  0  0  0  0  0  0
    2.2522   -0.9490    0.4436 H   0  0  0  0  0  0  0  0  0  0  0  0
    2.7295    0.7757    0.8896 H   0  0  0  0  0  0  0  0  0  0  0  0
    0.6162    1.6164    0.1190 H   0  0  0  0  0  0  0  0  0  0  0  0
   -0.5268    0.1319   -1.5245 H   0  0  0  0  0  0  0  0  0  0  0  0
   -1.1959   -0.0938    0.0644 H   0  0  0  0  0  0  0  0  0  0  0  0
    0.1590   -2.1992    0.3502 H   0  0  0  0  0  0  0  0  0  0  0  0
    0.8382   -1.9701   -1.2626 H   0  0  0  0  0  0  0  0  0  0  0  0
   -0.8879   -2.2759   -1.0672 H   0  0  0  0  0  0  0  0  0  0  0  0
  1  2  2  3
  1  5  1  0
  1  6  1  0
  2  3  1  0
  2  7  1  0
  3  4  1  0
  3  8  1  0
  3  9  1  0
  4 10  1  0
  4 11  1  0
  4 12  1  0
M  END
>  <reaction>  (3) 
rxn_1395

>  <mol_properties>  (3) 
{"0": {"label": "a_hydrogen", "atom_type": "H0"}, "3": {"label": "acceptor", "atom_type": "Cs"}}

>  <type>  (3) 
r2h

$$$$

     RDKit          3D

 23 21  0  0  0  0  0  0  0  0999 V2000
   -0.7790   -1.0687   -2.1688 C   0  0  0  0  0  0  0  0  0  0  0  0
   -0.9681   -0.4731   -1.1435 C   0  0  0  0  0  0  0  0  0  0  0  0
   -1.1211    0.2643    0.0779 C   0  0  0  0  0  0  0  0  0  0  0  0
   -1.2911    1.7669   -0.0889 C   0  0  0  0  0  0  0  0  0  0  0  0
   -1.9564   -0.3527    1.0699 C   0  0  0  0  0  0  0  0  0  0  0  0
   -2.6097   -0.8486    1.9464 C   0  0  0  0  0  0  0  0  0  0  0  0
   -0.6322   -1.5998   -3.0782 H   0  0  0  0  0  0  0  0  0  0  0  0
    0.1020    0.2038    0.6188 H   0  0  0  0  0  0  0  0  0  0  0  0
   -2.2473    2.0008   -0.5599 H   0  0  0  0  0  0  0  0  0  0  0  0
   -0.4893    2.1590   -0.7154 H   0  0  0  0  0  0  0  0  0  0  0  0
   -1.2547    2.2557    0.8848 H   0  0  0  0  0  0  0  0  0  0  0  0
   -3.2051   -1.2930    2.7070 H   0  0  0  0  0  0  0  0  0  0  0  0
    2.8633    0.6954   -0.7540 C   0  0  0  0  0  0  0  0  0  0  0  0
    2.1452    1.0054    0.3329 C   0  0  0  0  0  0  0  0  0  0  0  0
    1.3579    0.0788    1.1241 C   0  0  0  0  0  3  0  0  0  0  0  0
    1.5717   -1.4047    0.9957 C   0  0  0  0  0  0  0  0  0  0  0  0
    3.3954    1.4581   -1.3070 H   0  0  0  0  0  0  0  0  0  0  0  0
    2.9450   -0.3216   -1.1169 H   0  0  0  0  0  0  0  0  0  0  0  0
    2.1020    2.0465    0.6404 H   0  0  0  0  0  0  0  0  0  0  0  0
    1.1547    0.4201    2.1380 H   0  0  0  0  0  0  0  0  0  0  0  0
    2.5698   -1.6882    1.3420 H   0  0  0  0  0  0  0  0  0  0  0  0
    0.8360   -1.9488    1.5884 H   0  0  0  0  0  0  0  0  0  0  0  0
    1.4693   -1.7325   -0.0404 H   0  0  0  0  0  0  0  0  0  0  0  0
  1  2  3  0
  1  7  1  0
  2  3  1  0
  3  4  1  0
  3  5  1  0
  3  8  1  0
  4  9  1  0
  4 10  1  0
  4 11  1  0
  5  6  3  0
  6 12  1  0
 13 14  2  3
 13 17  1  0
 13 18  1  0
 14 15  1  0
 14 19  1  0
 15 16  1  0
 15 20  1  0
 16 21  1  0
 16 22  1  0
 16 23  1  0
M  RAD  1  15   2
M  END
>  <reaction>  (4) 
rxn_1395

>  <mol_properties>  (4) 
{"1": {"label": "*0", "atom_type": "Ct"}, "2": {"label": "*1", "atom_type": "Cs"}, "7": {"label": "*2", "atom_type": "H0"}, "13": {"label": "*4", "atom_type": "Cd"}, "14": {"label": "*3", "atom_type": "Cs"}}

>  <type>  (4) 
ts

$$$$
