
     RDKit          3D

 10  9  0  0  0  0  0  0  0  0999 V2000
   -1.1508    0.0666    0.2839 C   0  0  0  0  0  0  0  0  0  0  0  0
    0.1022   -0.3749   -0.4771 C   0  0  0  0  0  0  0  0  0  0  0  0
    1.3428    0.1620    0.1542 C   0  0  0  0  0  0  0  0  0  0  0  0
    2.5613   -0.6971    0.7526 S   0  0  0  0  0  0  0  0  0  0  0  0
   -1.2137    1.1546    0.3481 H   0  0  0  0  0  0  0  0  0  0  0  0
   -2.0472   -0.2935   -0.2212 H   0  0  0  0  0  0  0  0  0  0  0  0
   -1.1467   -0.3334    1.2987 H   0  0  0  0  0  0  0  0  0  0  0  0
    0.1602   -1.4616   -0.5369 H   0  0  0  0  0  0  0  0  0  0  0  0
    0.0536    0.0174   -1.4997 H   0  0  0  0  0  0  0  0  0  0  0  0
    1.3824    1.2528    0.2110 H   0  0  0  0  0  0  0  0  0  0  0  0
  1  2  1  0
  1  5  1  0
  1  6  1  0
  1  7  1  0
  2  3  1  0
  2  8  1  0
  2  9  1  0
  3  4  2  0
  3 10  1  0
M  END
>  <reaction>  (1) 
rxn_2021

>  <mol_properties>  (1) 
{"1": {"label": "donator", "atom_type": "Cs"}, "7": {"label": "d_hydrogen", "atom_type": "H0"}}

>  <type>  (1) 
r1h

$$$$

     RDKit          3D

  6  5  0  0  0  0  0  0  0  0999 V2000
   -0.7309   -0.0987    0.0327 C   0  0  0  0  0  0  0  0  0  0  0  0
    0.6208    0.0065   -0.0096 C   0  0  0  0  0  0  0  0  0  0  0  0
    1.6572   -1.2972    0.2837 S   0  0  0  0  0  1  0  0  0  0  0  0
   -1.3651    0.7588   -0.1608 H   0  0  0  0  0  0  0  0  0  0  0  0
   -1.2044   -1.0453    0.2616 H   0  0  0  0  0  0  0  0  0  0  0  0
    1.0609    0.9725   -0.2426 H   0  0  0  0  0  0  0  0  0  0  0  0
  1  2  2  3
  1  4  1  0
  1  5  1  0
  2  3  1  0
  2  6  1  0
M  RAD  1   3   2
M  END
>  <reaction>  (2) 
rxn_2021

>  <mol_properties>  (2) 
{"0": {"label": "acceptor", "atom_type": "Cs"}}

>  <type>  (2) 
r2

$$$$

     RDKit          3D

  7  6  0  0  0  0  0  0  0  0999 V2000
   -0.6782    0.0507    0.0301 C   0  0  0  0  0  0  0  0  0  0  0  0
    0.8092    0.0996    0.0213 C   0  0  0  0  0  0  0  0  0  0  0  0
    1.7473    0.7521    1.1507 S   0  0  0  0  0  0  0  0  0  0  0  0
   -1.0667    0.5456   -0.8653 H   0  0  0  0  0  0  0  0  0  0  0  0
   -1.0112   -0.9904   -0.0239 H   0  0  0  0  0  0  0  0  0  0  0  0
   -1.0920    0.5225    0.9188 H   0  0  0  0  0  0  0  0  0  0  0  0
    1.2740   -0.3620   -0.8520 H   0  0  0  0  0  0  0  0  0  0  0  0
  1  2  1  0
  1  4  1  0
  1  5  1  0
  1  6  1  0
  2  3  2  0
  2  7  1  0
M  END
>  <reaction>  (3) 
rxn_2021

>  <mol_properties>  (3) 
{"0": {"label": "acceptor", "atom_type": "Cs"}, "6": {"label": "a_hydrogen", "atom_type": "H0"}}

>  <type>  (3) 
r2h

$$$$

     RDKit          3D

 16 14  0  0  0  0  0  0  0  0999 V2000
   -0.5280   -1.4114   -0.3768 C   0  0  0  0  0  0  0  0  0  0  0  0
   -1.1131   -0.5417    0.5787 C   0  0  0  0  0  0  0  0  0  0  0  0
   -0.5214   -0.3083    2.0934 S   0  0  0  0  0  1  0  0  0  0  0  0
   -1.1093   -1.6642   -1.2595 H   0  0  0  0  0  0  0  0  0  0  0  0
    0.1221   -2.1944    0.0024 H   0  0  0  0  0  0  0  0  0  0  0  0
   -1.9639    0.0500    0.2463 H   0  0  0  0  0  0  0  0  0  0  0  0
    0.5589    0.5496   -2.7946 C   0  0  0  0  0  0  0  0  0  0  0  0
    1.3257    0.1551   -1.5605 C   0  0  0  0  0  0  0  0  0  0  0  0
    1.5796    1.0954   -0.5083 C   0  0  0  0  0  0  0  0  0  0  0  0
    0.7045    2.4444   -0.2100 S   0  0  0  0  0  0  0  0  0  0  0  0
    1.1676    1.2029   -3.4234 H   0  0  0  0  0  0  0  0  0  0  0  0
    0.2915   -0.3311   -3.3790 H   0  0  0  0  0  0  0  0  0  0  0  0
   -0.3460    1.0973   -2.5330 H   0  0  0  0  0  0  0  0  0  0  0  0
    0.4470   -0.6171   -0.9176 H   0  0  0  0  0  0  0  0  0  0  0  0
    2.1322   -0.5581   -1.7247 H   0  0  0  0  0  0  0  0  0  0  0  0
    2.3726    0.8208    0.1849 H   0  0  0  0  0  0  0  0  0  0  0  0
  1  2  2  3
  1  4  1  0
  1  5  1  0
  2  3  1  0
  2  6  1  0
  7  8  1  0
  7 11  1  0
  7 12  1  0
  7 13  1  0
  8  9  1  0
  8 14  1  0
  8 15  1  0
  9 10  2  0
  9 16  1  0
M  RAD  1   3   2
M  END
>  <reaction>  (4) 
rxn_2021

>  <mol_properties>  (4) 
{"0": {"label": "*3", "atom_type": "Cd"}, "1": {"label": "*4", "atom_type": "Cd"}, "7": {"label": "*1", "atom_type": "Cs"}, "8": {"label": "*0", "atom_type": "CS"}, "13": {"label": "*2", "atom_type": "H0"}}

>  <type>  (4) 
ts

$$$$
