
     RDKit          3D

 10  9  0  0  0  0  0  0  0  0999 V2000
    1.8334    0.0847   -0.1062 C   0  0  0  0  0  0  0  0  0  0  0  0
    0.5993   -0.4071   -0.0750 C   0  0  0  0  0  0  0  0  0  0  0  0
   -0.5993    0.4071    0.0750 C   0  0  0  0  0  0  0  0  0  0  0  0
   -1.8334   -0.0847    0.1062 C   0  0  0  0  0  0  0  0  0  0  0  0
    2.0179    1.1498   -0.0189 H   0  0  0  0  0  0  0  0  0  0  0  0
    2.6972   -0.5572   -0.2194 H   0  0  0  0  0  0  0  0  0  0  0  0
    0.4465   -1.4793   -0.1649 H   0  0  0  0  0  0  0  0  0  0  0  0
   -0.4465    1.4793    0.1649 H   0  0  0  0  0  0  0  0  0  0  0  0
   -2.0179   -1.1498    0.0189 H   0  0  0  0  0  0  0  0  0  0  0  0
   -2.6972    0.5572    0.2194 H   0  0  0  0  0  0  0  0  0  0  0  0
  1  2  2  3
  1  5  1  0
  1  6  1  0
  2  3  1  0
  2  7  1  0
  3  4  2  3
  3  8  1  0
  4  9  1  0
  4 10  1  0
M  END
>  <reaction>  (1) 
rxn_1671

>  <mol_properties>  (1) 
{"2": {"label": "donator", "atom_type": "Cd"}, "7": {"label": "d_hydrogen", "atom_type": "H0"}}

>  <type>  (1) 
r1h

$$$$

     RDKit          3D

  6  5  0  0  0  0  0  0  0  0999 V2000
   -0.7309   -0.0987    0.0327 C   0  0  0  0  0  0  0  0  0  0  0  0
    0.6208    0.0065   -0.0096 C   0  0  0  0  0  0  0  0  0  0  0  0
    1.6572   -1.2972    0.2837 S   0  0  0  0  0  1  0  0  0  0  0  0
   -1.3651    0.7588   -0.1608 H   0  0  0  0  0  0  0  0  0  0  0  0
   -1.2044   -1.0453    0.2616 H   0  0  0  0  0  0  0  0  0  0  0  0
    1.0609    0.9725   -0.2426 H   0  0  0  0  0  0  0  0  0  0  0  0
  1  2  2  3
  1  4  1  0
  1  5  1  0
  2  3  1  0
  2  6  1  0
M  RAD  1   3   2
M  END
>  <reaction>  (2) 
rxn_1671

>  <mol_properties>  (2) 
{"0": {"label": "acceptor", "atom_type": "Cs"}}

>  <type>  (2) 
r2

$$$$

     RDKit          3D

  7  6  0  0  0  0  0  0  0  0999 V2000
   -0.6782    0.0507    0.0301 C   0  0  0  0  0  0  0  0  0  0  0  0
    0.8092    0.0996    0.0213 C   0  0  0  0  0  0  0  0  0  0  0  0
    1.7473    0.7521    1.1507 S   0  0  0  0  0  0  0  0  0  0  0  0
   -1.0667    0.5456   -0.8653 H   0  0  0  0  0  0  0  0  0  0  0  0
   -1.0112   -0.9904   -0.0239 H   0  0  0  0  0  0  0  0  0  0  0  0
   -1.0920    0.5225    0.9188 H   0  0  0  0  0  0  0  0  0  0  0  0
    1.2740   -0.3620   -0.8520 H   0  0  0  0  0  0  0  0  0  0  0  0
  1  2  1  0
  1  4  1  0
  1  5  1  0
  1  6  1  0
  2  3  2  0
  2  7  1  0
M  END
>  <reaction>  (3) 
rxn_1671

>  <mol_properties>  (3) 
{"0": {"label": "a_hydrogen", "atom_type": "H0"}, "1": {"label": "acceptor", "atom_type": "Cs"}}

>  <type>  (3) 
r2h

$$$$

     RDKit          3D

 16 14  0  0  0  0  0  0  0  0999 V2000
    0.6045   -2.2872   -0.3857 C   0  0  0  0  0  0  0  0  0  0  0  0
    0.3991   -2.3150    0.9271 C   0  0  0  0  0  0  0  0  0  0  0  0
    0.0846   -1.1676    1.7397 C   0  0  0  0  0  3  0  0  0  0  0  0
   -0.2078   -0.9988    3.0096 C   0  0  0  0  0  0  0  0  0  0  0  0
    0.5408   -1.3682   -0.9573 H   0  0  0  0  0  0  0  0  0  0  0  0
    0.8351   -3.1938   -0.9291 H   0  0  0  0  0  0  0  0  0  0  0  0
    0.4663   -3.2611    1.4645 H   0  0  0  0  0  0  0  0  0  0  0  0
    0.0957    0.1303    0.9621 H   0  0  0  0  0  0  0  0  0  0  0  0
   -0.2640   -1.8457    3.6914 H   0  0  0  0  0  0  0  0  0  0  0  0
   -0.4064   -0.0188    3.4282 H   0  0  0  0  0  0  0  0  0  0  0  0
    0.2325    1.2152    0.4101 C   0  0  0  0  0  0  0  0  0  0  0  0
   -0.8920    1.3791   -0.4981 C   0  0  0  0  0  0  0  0  0  0  0  0
   -0.8954    1.0138   -2.0775 S   0  0  0  0  0  0  0  0  0  0  0  0
    0.2378    1.9105    1.2491 H   0  0  0  0  0  0  0  0  0  0  0  0
    1.1990    1.1363   -0.0817 H   0  0  0  0  0  0  0  0  0  0  0  0
   -1.8140    1.7395   -0.0405 H   0  0  0  0  0  0  0  0  0  0  0  0
  1  2  2  3
  1  5  1  0
  1  6  1  0
  2  3  1  0
  2  7  1  0
  3  4  2  3
  4  9  1  0
  4 10  1  0
  8 11  1  0
 11 12  1  0
 11 14  1  0
 11 15  1  0
 12 13  2  0
 12 16  1  0
M  RAD  1   3   2
M  END
>  <reaction>  (4) 
rxn_1671

>  <mol_properties>  (4) 
{"1": {"label": "*4", "atom_type": "Cd"}, "2": {"label": "*3", "atom_type": "Cd"}, "7": {"label": "*2", "atom_type": "H0"}, "10": {"label": "*1", "atom_type": "Cs"}, "11": {"label": "*0", "atom_type": "CS"}}

>  <type>  (4) 
ts

$$$$
