
     RDKit          3D

 15 15  0  0  0  0  0  0  0  0999 V2000
    2.2031   -0.2111   -0.1693 C   0  0  0  0  0  0  0  0  0  0  0  0
    0.7140   -0.0314   -0.0623 C   0  0  0  0  0  0  0  0  0  0  0  0
   -0.0114    0.5491   -1.0982 C   0  0  0  0  0  0  0  0  0  0  0  0
   -1.3882    0.6886   -1.0150 C   0  0  0  0  0  0  0  0  0  0  0  0
   -2.0661    0.2493    0.1118 C   0  0  0  0  0  0  0  0  0  0  0  0
   -1.3551   -0.3278    1.1528 C   0  0  0  0  0  0  0  0  0  0  0  0
    0.0216   -0.4648    1.0642 C   0  0  0  0  0  0  0  0  0  0  0  0
    2.6776   -0.1836    0.8122 H   0  0  0  0  0  0  0  0  0  0  0  0
    2.4446   -1.1749   -0.6249 H   0  0  0  0  0  0  0  0  0  0  0  0
    2.6532    0.5664   -0.7875 H   0  0  0  0  0  0  0  0  0  0  0  0
    0.5104    0.8989   -1.9819 H   0  0  0  0  0  0  0  0  0  0  0  0
   -1.9328    1.1452   -1.8322 H   0  0  0  0  0  0  0  0  0  0  0  0
   -3.1409    0.3597    0.1800 H   0  0  0  0  0  0  0  0  0  0  0  0
   -1.8736   -0.6702    2.0398 H   0  0  0  0  0  0  0  0  0  0  0  0
    0.5695   -0.9141    1.8849 H   0  0  0  0  0  0  0  0  0  0  0  0
  1  2  1  0
  1  8  1  0
  1  9  1  0
  1 10  1  0
  2  3  2  0
  2  7  1  0
  3  4  1  0
  3 11  1  0
  4  5  2  0
  4 12  1  0
  5  6  1  0
  5 13  1  0
  6  7  2  0
  6 14  1  0
  7 15  1  0
M  END
>  <reaction>  (1) 
rxn_265

>  <mol_properties>  (1) 
{"4": {"label": "donator", "atom_type": "Cd"}, "11": {"label": "d_hydrogen", "atom_type": "H0"}}

>  <type>  (1) 
r1h

$$$$

     RDKit          3D

  1  0  0  0  0  0  0  0  0  0999 V2000
    0.0000    0.0000    0.0000 O   0  0  0  0  0 15  0  0  0  0  0  0
M  END
>  <reaction>  (2) 
rxn_265

>  <mol_properties>  (2) 
{"0": {"label": "acceptor", "atom_type": "O2s"}}

>  <type>  (2) 
r2

$$$$

     RDKit          3D

  2  1  0  0  0  0  0  0  0  0999 V2000
    0.0000    0.0000    0.4855 O   0  0  0  0  0  1  0  0  0  0  0  0
    0.0000    0.0000   -0.4855 H   0  0  0  0  0  0  0  0  0  0  0  0
  1  2  1  0
M  RAD  1   1   2
M  END
>  <reaction>  (3) 
rxn_265

>  <mol_properties>  (3) 
{"0": {"label": "acceptor", "atom_type": "O2s"}, "1": {"label": "a_hydrogen", "atom_type": "H0"}}

>  <type>  (3) 
r2h

$$$$

     RDKit          3D

 16 15  0  0  0  0  0  0  0  0999 V2000
   -1.5533    2.8580    2.2099 O   0  0  0  0  0  1  0  0  0  0  0  0
    2.2436   -0.4984   -0.6971 C   0  0  0  0  0  0  0  0  0  0  0  0
    0.8008   -0.3069   -0.3213 C   0  0  0  0  0  0  0  0  0  0  0  0
    0.4179    0.7726    0.4789 C   0  0  0  0  0  0  0  0  0  0  0  0
   -0.1873   -1.1773   -0.7711 C   0  0  0  0  0  0  0  0  0  0  0  0
   -0.9131    0.9193    0.7749 C   0  0  0  0  0  3  0  0  0  0  0  0
   -1.9131    0.0806    0.3464 C   0  0  0  0  0  0  0  0  0  0  0  0
   -1.5240   -0.9923   -0.4470 C   0  0  0  0  0  0  0  0  0  0  0  0
    2.9004   -0.3160    0.1543 H   0  0  0  0  0  0  0  0  0  0  0  0
    2.5311    0.1972   -1.4889 H   0  0  0  0  0  0  0  0  0  0  0  0
    2.4268   -1.5099   -1.0591 H   0  0  0  0  0  0  0  0  0  0  0  0
    1.1549    1.4720    0.8546 H   0  0  0  0  0  0  0  0  0  0  0  0
   -1.2627    1.9673    1.5508 H   0  0  0  0  0  0  0  0  0  0  0  0
   -2.9482    0.2437    0.6139 H   0  0  0  0  0  0  0  0  0  0  0  0
   -2.2695   -1.6884   -0.8110 H   0  0  0  0  0  0  0  0  0  0  0  0
    0.0957   -2.0217   -1.3884 H   0  0  0  0  0  0  0  0  0  0  0  0
  1 13  1  0
  2  3  1  0
  2  9  1  0
  2 10  1  0
  2 11  1  0
  3  5  2  0
  3  4  1  0
  4  6  2  0
  4 12  1  0
  5  8  1  0
  5 16  1  0
  6  7  1  0
  7  8  2  0
  7 14  1  0
  8 15  1  0
M  RAD  2   1   2   6   2
M  END
>  <reaction>  (4) 
rxn_265

>  <mol_properties>  (4) 
{"0": {"label": "*1", "atom_type": "O2s"}, "3": {"label": "*4", "atom_type": "Cd"}, "5": {"label": "*3", "atom_type": "Cd"}, "12": {"label": "*2", "atom_type": "H0"}}

>  <type>  (4) 
ts

$$$$
