
     RDKit          3D

 11 10  0  0  0  0  0  0  0  0999 V2000
   -1.2710    0.1907   -0.2084 C   0  0  0  0  0  0  0  0  0  0  0  0
    0.0202   -0.6130   -0.2928 C   0  0  0  0  0  0  0  0  0  0  0  0
    0.1086   -1.6953    0.7756 C   0  0  0  0  0  0  0  0  0  0  0  0
   -1.3607    0.6851    0.7620 H   0  0  0  0  0  0  0  0  0  0  0  0
   -2.1429   -0.4567   -0.3299 H   0  0  0  0  0  0  0  0  0  0  0  0
   -1.3158    0.9602   -0.9809 H   0  0  0  0  0  0  0  0  0  0  0  0
    0.8757    0.0616   -0.1992 H   0  0  0  0  0  0  0  0  0  0  0  0
    0.0997   -1.0712   -1.2825 H   0  0  0  0  0  0  0  0  0  0  0  0
   -0.7198   -2.4022    0.6850 H   0  0  0  0  0  0  0  0  0  0  0  0
    1.0395   -2.2596    0.6989 H   0  0  0  0  0  0  0  0  0  0  0  0
    0.0624   -1.2603    1.7770 H   0  0  0  0  0  0  0  0  0  0  0  0
  1  2  1  0
  1  4  1  0
  1  5  1  0
  1  6  1  0
  2  3  1  0
  2  7  1  0
  2  8  1  0
  3  9  1  0
  3 10  1  0
  3 11  1  0
M  END
>  <reaction>  (1) 
rxn_330

>  <mol_properties>  (1) 
{"1": {"label": "donator", "atom_type": "Cs"}, "6": {"label": "d_hydrogen", "atom_type": "H0"}}

>  <type>  (1) 
r1h

$$$$

     RDKit          3D

  3  2  0  0  0  0  0  0  0  0999 V2000
    0.0000    0.0000    0.1037 C   0  0  0  0  0  2  0  0  0  0  0  0
    0.0000    0.9954   -0.3147 H   0  0  0  0  0  0  0  0  0  0  0  0
    0.0000   -0.9954   -0.3147 H   0  0  0  0  0  0  0  0  0  0  0  0
  1  2  1  0
  1  3  1  0
M  RAD  1   1   3
M  END
>  <reaction>  (2) 
rxn_330

>  <mol_properties>  (2) 
{"0": {"label": "acceptor", "atom_type": "Cs"}}

>  <type>  (2) 
r2

$$$$

     RDKit          3D

  4  3  0  0  0  0  0  0  0  0999 V2000
    0.0000    0.0000    0.0000 C   0  0  0  0  0  3  0  0  0  0  0  0
    1.0638   -0.1747    0.0540 H   0  0  0  0  0  0  0  0  0  0  0  0
   -0.6833   -0.8351   -0.0280 H   0  0  0  0  0  0  0  0  0  0  0  0
   -0.3805    1.0098   -0.0260 H   0  0  0  0  0  0  0  0  0  0  0  0
  1  2  1  0
  1  3  1  0
  1  4  1  0
M  RAD  1   1   2
M  END
>  <reaction>  (3) 
rxn_330

>  <mol_properties>  (3) 
{"0": {"label": "acceptor", "atom_type": "Cs"}, "3": {"label": "a_hydrogen", "atom_type": "H0"}}

>  <type>  (3) 
r2h

$$$$

     RDKit          3D

 14 12  0  0  0  0  0  0  0  0999 V2000
    1.5232   -1.2645    1.0334 C   0  0  0  0  0  2  0  0  0  0  0  0
    1.7646   -2.2086    0.5612 H   0  0  0  0  0  0  0  0  0  0  0  0
    2.1079   -0.8145    1.8261 H   0  0  0  0  0  0  0  0  0  0  0  0
   -0.7461   -0.3113   -1.3308 C   0  0  0  0  0  0  0  0  0  0  0  0
   -0.6030    0.0896    0.1181 C   0  0  0  0  0  0  0  0  0  0  0  0
   -0.2884    1.5473    0.3556 C   0  0  0  0  0  0  0  0  0  0  0  0
    0.1536   -0.0560   -1.8958 H   0  0  0  0  0  0  0  0  0  0  0  0
   -1.5881    0.2084   -1.7992 H   0  0  0  0  0  0  0  0  0  0  0  0
   -0.9180   -1.3837   -1.4345 H   0  0  0  0  0  0  0  0  0  0  0  0
    0.3675   -0.5591    0.5696 H   0  0  0  0  0  0  0  0  0  0  0  0
   -1.4368   -0.2600    0.7296 H   0  0  0  0  0  0  0  0  0  0  0  0
   -1.1010    2.1866   -0.0043 H   0  0  0  0  0  0  0  0  0  0  0  0
   -0.1444    1.7582    1.4163 H   0  0  0  0  0  0  0  0  0  0  0  0
    0.6206    1.8406   -0.1749 H   0  0  0  0  0  0  0  0  0  0  0  0
  1  2  1  0
  1  3  1  0
  4  5  1  0
  4  7  1  0
  4  8  1  0
  4  9  1  0
  5  6  1  0
  5 10  1  0
  5 11  1  0
  6 12  1  0
  6 13  1  0
  6 14  1  0
M  RAD  1   1   3
M  END
>  <reaction>  (4) 
rxn_330

>  <mol_properties>  (4) 
{"0": {"label": "*3", "atom_type": "Cs"}, "1": {"label": "*4", "atom_type": "H0"}, "3": {"label": "*0", "atom_type": "Cs"}, "4": {"label": "*1", "atom_type": "Cs"}, "9": {"label": "*2", "atom_type": "H0"}}

>  <type>  (4) 
ts

$$$$
