
     RDKit          3D

  7  7  0  0  0  0  0  0  0  0999 V2000
    2.2162   -0.4702   -0.0767 O   0  0  0  0  0  0  0  0  0  0  0  0
    1.0900   -0.1272   -0.0403 C   0  0  0  0  0  0  0  0  0  0  0  0
    0.6125    1.1345   -0.0526 O   0  0  0  0  0  0  0  0  0  0  0  0
   -0.7870    1.1033    0.0040 N   0  0  0  0  0  0  0  0  0  0  0  0
   -1.0656   -0.1341    0.0458 C   0  0  0  0  0  0  0  0  0  0  0  0
   -0.0073   -0.9572    0.0240 O   0  0  0  0  0  0  0  0  0  0  0  0
   -2.0587   -0.5492    0.0957 H   0  0  0  0  0  0  0  0  0  0  0  0
  1  2  2  0
  2  6  1  0
  2  3  1  0
  3  4  1  0
  4  5  2  0
  5  6  1  0
  5  7  1  0
M  END
>  <reaction>  (1) 
rxn_3193

>  <mol_properties>  (1) 
{"4": {"label": "donator", "atom_type": "Cd"}, "6": {"label": "d_hydrogen", "atom_type": "H0"}}

>  <type>  (1) 
r1h

$$$$

     RDKit          3D

  6  6  0  0  0  0  0  0  0  0999 V2000
    1.9594    0.0134   -0.3734 N   0  0  0  0  0  2  0  0  0  0  0  0
    0.7437    0.0051   -0.0788 C   0  0  0  0  0  0  0  0  0  0  0  0
   -0.0745    1.0868    0.0233 O   0  0  0  0  0  0  0  0  0  0  0  0
   -1.3223    0.5972    0.3682 N   0  0  0  0  0  0  0  0  0  0  0  0
   -1.2899   -0.6150    0.4676 N   0  0  0  0  0  0  0  0  0  0  0  0
   -0.0165   -1.0874    0.2015 O   0  0  0  0  0  0  0  0  0  0  0  0
  1  2  2  0
  2  3  1  0
  2  6  1  0
  3  4  1  0
  4  5  2  0
  5  6  1  0
M  RAD  1   1   2
M  END
>  <reaction>  (2) 
rxn_3193

>  <mol_properties>  (2) 
{"0": {"label": "acceptor", "atom_type": "N3d"}}

>  <type>  (2) 
r2

$$$$

     RDKit          3D

  7  7  0  0  0  0  0  0  0  0999 V2000
    1.6064   -0.4313    0.1905 N   0  0  0  0  0  0  0  0  0  0  0  0
    0.3982   -0.1725    0.0701 C   0  0  0  0  0  0  0  0  0  0  0  0
   -0.6051   -1.0481    0.3497 O   0  0  0  0  0  0  0  0  0  0  0  0
   -1.7906   -0.4044    0.0958 N   0  0  0  0  0  0  0  0  0  0  0  0
   -1.5819    0.7348   -0.2956 N   0  0  0  0  0  0  0  0  0  0  0  0
   -0.2229    0.9708   -0.3436 O   0  0  0  0  0  0  0  0  0  0  0  0
    2.1958    0.3506   -0.0669 H   0  0  0  0  0  0  0  0  0  0  0  0
  1  2  2  3
  1  7  1  0
  2  3  1  0
  2  6  1  0
  3  4  1  0
  4  5  2  0
  5  6  1  0
M  END
>  <reaction>  (3) 
rxn_3193

>  <mol_properties>  (3) 
{"0": {"label": "acceptor", "atom_type": "N3d"}, "6": {"label": "a_hydrogen", "atom_type": "H0"}}

>  <type>  (3) 
r2h

$$$$

     RDKit          3D

 13 13  0  0  0  0  0  0  0  0999 V2000
    0.7249    1.6921    0.7866 N   0  0  0  0  0  0  0  0  0  0  0  0
    0.1536    1.9817   -0.2905 C   0  0  0  0  0  0  0  0  0  0  0  0
    0.0161    3.2459   -0.7506 O   0  0  0  0  0  0  0  0  0  0  0  0
   -0.6610    3.1616   -1.9506 N   0  0  0  0  0  0  0  0  0  0  0  0
   -0.9161    1.9989   -2.2113 N   0  0  0  0  0  0  0  0  0  0  0  0
   -0.4333    1.1752   -1.2068 O   0  0  0  0  0  0  0  0  0  0  0  0
   -1.2678   -3.6052    1.2297 O   0  0  0  0  0  0  0  0  0  0  0  0
   -0.4575   -2.7789    1.0199 C   0  0  0  0  0  0  0  0  0  0  0  0
    0.7800   -2.9411    0.5283 O   0  0  0  0  0  0  0  0  0  0  0  0
    1.4143   -1.6659    0.4289 N   0  0  0  0  0  0  0  0  0  0  0  0
    0.5363   -0.8789    0.8708 C   0  0  0  0  0  3  0  0  0  0  0  0
   -0.6219   -1.4135    1.2481 O   0  0  0  0  0  0  0  0  0  0  0  0
    0.7323    0.5822    0.9765 H   0  0  0  0  0  0  0  0  0  0  0  0
  1  2  2  3
  1 13  1  0
  2  3  1  0
  2  6  1  0
  3  4  1  0
  4  5  2  0
  5  6  1  0
  7  8  2  0
  8 12  1  0
  8  9  1  0
  9 10  1  0
 10 11  2  0
 11 12  1  0
M  RAD  1  11   2
M  END
>  <reaction>  (4) 
rxn_3193

>  <mol_properties>  (4) 
{"0": {"label": "*1", "atom_type": "N3d"}, "1": {"label": "*0", "atom_type": "Cd"}, "10": {"label": "*3", "atom_type": "Cd"}, "11": {"label": "*4", "atom_type": "O2s"}, "12": {"label": "*2", "atom_type": "H0"}}

>  <type>  (4) 
ts

$$$$
