
     RDKit          3D

  7  6  0  0  0  0  0  0  0  0999 V2000
   -1.0240    0.8044   -0.4204 O   0  0  0  0  0  0  0  0  0  0  0  0
   -0.3365   -0.3409    0.0003 C   0  0  0  0  0  0  0  0  0  0  0  0
    1.1270   -0.1767   -0.0328 C   0  0  0  0  0  0  0  0  0  0  0  0
    2.2637   -0.0259   -0.0358 N   0  0  0  0  0  0  0  0  0  0  0  0
   -0.8050    1.5374    0.1584 H   0  0  0  0  0  0  0  0  0  0  0  0
   -0.6168   -0.6523    1.0127 H   0  0  0  0  0  0  0  0  0  0  0  0
   -0.6084   -1.1459   -0.6824 H   0  0  0  0  0  0  0  0  0  0  0  0
  1  2  1  0
  1  5  1  0
  2  3  1  0
  2  6  1  0
  2  7  1  0
  3  4  3  0
M  END
>  <reaction>  (1) 
rxn_3161

>  <mol_properties>  (1) 
{"1": {"label": "donator", "atom_type": "Cs"}, "5": {"label": "d_hydrogen", "atom_type": "H0"}}

>  <type>  (1) 
r1h

$$$$

     RDKit          3D

  6  6  0  0  0  0  0  0  0  0999 V2000
    1.9594    0.0134   -0.3734 N   0  0  0  0  0  2  0  0  0  0  0  0
    0.7437    0.0051   -0.0788 C   0  0  0  0  0  0  0  0  0  0  0  0
   -0.0745    1.0868    0.0233 O   0  0  0  0  0  0  0  0  0  0  0  0
   -1.3223    0.5972    0.3682 N   0  0  0  0  0  0  0  0  0  0  0  0
   -1.2899   -0.6150    0.4676 N   0  0  0  0  0  0  0  0  0  0  0  0
   -0.0165   -1.0874    0.2015 O   0  0  0  0  0  0  0  0  0  0  0  0
  1  2  2  0
  2  3  1  0
  2  6  1  0
  3  4  1  0
  4  5  2  0
  5  6  1  0
M  RAD  1   1   2
M  END
>  <reaction>  (2) 
rxn_3161

>  <mol_properties>  (2) 
{"0": {"label": "acceptor", "atom_type": "N3d"}}

>  <type>  (2) 
r2

$$$$

     RDKit          3D

  7  7  0  0  0  0  0  0  0  0999 V2000
    1.6064   -0.4313    0.1905 N   0  0  0  0  0  0  0  0  0  0  0  0
    0.3982   -0.1725    0.0701 C   0  0  0  0  0  0  0  0  0  0  0  0
   -0.6051   -1.0481    0.3497 O   0  0  0  0  0  0  0  0  0  0  0  0
   -1.7906   -0.4044    0.0958 N   0  0  0  0  0  0  0  0  0  0  0  0
   -1.5819    0.7348   -0.2956 N   0  0  0  0  0  0  0  0  0  0  0  0
   -0.2229    0.9708   -0.3436 O   0  0  0  0  0  0  0  0  0  0  0  0
    2.1958    0.3506   -0.0669 H   0  0  0  0  0  0  0  0  0  0  0  0
  1  2  2  3
  1  7  1  0
  2  3  1  0
  2  6  1  0
  3  4  1  0
  4  5  2  0
  5  6  1  0
M  END
>  <reaction>  (3) 
rxn_3161

>  <mol_properties>  (3) 
{"0": {"label": "acceptor", "atom_type": "N3d"}, "6": {"label": "a_hydrogen", "atom_type": "H0"}}

>  <type>  (3) 
r2h

$$$$

     RDKit          3D

 13 12  0  0  0  0  0  0  0  0999 V2000
    0.3583   -0.9715    1.2502 N   0  0  0  0  0  2  0  0  0  0  0  0
   -0.5911   -0.9359    0.4407 C   0  0  0  0  0  0  0  0  0  0  0  0
   -1.7278   -1.6834    0.5271 O   0  0  0  0  0  0  0  0  0  0  0  0
   -2.5144   -1.3456   -0.5510 N   0  0  0  0  0  0  0  0  0  0  0  0
   -1.9637   -0.5023   -1.2370 N   0  0  0  0  0  0  0  0  0  0  0  0
   -0.7336   -0.1788   -0.6882 O   0  0  0  0  0  0  0  0  0  0  0  0
    2.2880    0.5446   -1.0372 O   0  0  0  0  0  0  0  0  0  0  0  0
    2.0359    0.8188    0.2877 C   0  0  0  0  0  0  0  0  0  0  0  0
    1.3817    2.0922    0.5451 C   0  0  0  0  0  0  0  0  0  0  0  0
    0.8090    3.0694    0.7334 N   0  0  0  0  0  0  0  0  0  0  0  0
    1.5127    0.7523   -1.5660 H   0  0  0  0  0  0  0  0  0  0  0  0
    1.2981   -0.0320    0.7916 H   0  0  0  0  0  0  0  0  0  0  0  0
    2.9521    0.7054    0.8651 H   0  0  0  0  0  0  0  0  0  0  0  0
  1  2  2  0
  2  3  1  0
  2  6  1  0
  3  4  1  0
  4  5  2  0
  5  6  1  0
  7  8  1  0
  7 11  1  0
  8  9  1  0
  8 12  1  0
  8 13  1  0
  9 10  3  0
M  RAD  1   1   2
M  END
>  <reaction>  (4) 
rxn_3161

>  <mol_properties>  (4) 
{"0": {"label": "*3", "atom_type": "N3d"}, "1": {"label": "*4", "atom_type": "Cd"}, "7": {"label": "*1", "atom_type": "Cs"}, "8": {"label": "*0", "atom_type": "Ct"}, "11": {"label": "*2", "atom_type": "H0"}}

>  <type>  (4) 
ts

$$$$
