
     RDKit          3D

 13 12  0  0  0  0  0  0  0  0999 V2000
    3.0977   -0.3549   -0.5105 C   0  0  0  0  0  0  0  0  0  0  0  0
    2.0556    0.4221   -0.2627 C   0  0  0  0  0  0  0  0  0  0  0  0
    0.6313   -0.0354   -0.2366 C   0  0  0  0  0  0  0  0  0  0  0  0
   -0.2567    0.6038   -1.2694 C   0  0  0  0  0  0  0  0  0  0  0  0
    0.1459    1.3456   -2.2891 C   0  0  0  0  0  0  0  0  0  0  0  0
    4.1081    0.0344   -0.5074 H   0  0  0  0  0  0  0  0  0  0  0  0
    2.9777   -1.4116   -0.7243 H   0  0  0  0  0  0  0  0  0  0  0  0
    2.2171    1.4781   -0.0618 H   0  0  0  0  0  0  0  0  0  0  0  0
    0.5865   -1.1233   -0.3540 H   0  0  0  0  0  0  0  0  0  0  0  0
    0.2065    0.1743    0.7521 H   0  0  0  0  0  0  0  0  0  0  0  0
   -1.3190    0.4126   -1.1445 H   0  0  0  0  0  0  0  0  0  0  0  0
    1.1948    1.5564   -2.4628 H   0  0  0  0  0  0  0  0  0  0  0  0
   -0.5644    1.7621   -2.9918 H   0  0  0  0  0  0  0  0  0  0  0  0
  1  2  2  3
  1  6  1  0
  1  7  1  0
  2  3  1  0
  2  8  1  0
  3  4  1  0
  3  9  1  0
  3 10  1  0
  4  5  2  3
  4 11  1  0
  5 12  1  0
  5 13  1  0
M  END
>  <reaction>  (1) 
rxn_1144

>  <mol_properties>  (1) 
{"2": {"label": "donator", "atom_type": "Cs"}, "8": {"label": "d_hydrogen", "atom_type": "H0"}}

>  <type>  (1) 
r1h

$$$$

     RDKit          3D

  9  8  0  0  0  0  0  0  0  0999 V2000
    1.8963   -0.1405   -0.2150 C   0  0  0  0  0  0  0  0  0  0  0  0
    0.6340    0.1486   -0.2254 C   0  0  0  0  0  3  0  0  0  0  0  0
   -0.6770    0.4501   -0.2373 C   0  0  0  0  0  0  0  0  0  0  0  0
   -1.6600   -0.2303    0.4662 C   0  0  0  0  0  0  0  0  0  0  0  0
    2.3274   -0.8354   -0.9313 H   0  0  0  0  0  0  0  0  0  0  0  0
    2.5751    0.2988    0.5117 H   0  0  0  0  0  0  0  0  0  0  0  0
   -0.9723    1.2966   -0.8520 H   0  0  0  0  0  0  0  0  0  0  0  0
   -2.6934    0.0777    0.4015 H   0  0  0  0  0  0  0  0  0  0  0  0
   -1.4140   -1.0782    1.0904 H   0  0  0  0  0  0  0  0  0  0  0  0
  1  2  2  3
  1  5  1  0
  1  6  1  0
  2  3  1  0
  3  4  2  3
  3  7  1  0
  4  8  1  0
  4  9  1  0
M  RAD  1   2   2
M  END
>  <reaction>  (2) 
rxn_1144

>  <mol_properties>  (2) 
{"1": {"label": "acceptor", "atom_type": "Cd"}}

>  <type>  (2) 
r2

$$$$

     RDKit          3D

 10  9  0  0  0  0  0  0  0  0999 V2000
    1.8334    0.0847   -0.1062 C   0  0  0  0  0  0  0  0  0  0  0  0
    0.5993   -0.4071   -0.0750 C   0  0  0  0  0  0  0  0  0  0  0  0
   -0.5993    0.4071    0.0750 C   0  0  0  0  0  0  0  0  0  0  0  0
   -1.8334   -0.0847    0.1062 C   0  0  0  0  0  0  0  0  0  0  0  0
    2.0179    1.1498   -0.0189 H   0  0  0  0  0  0  0  0  0  0  0  0
    2.6972   -0.5572   -0.2194 H   0  0  0  0  0  0  0  0  0  0  0  0
    0.4465   -1.4793   -0.1649 H   0  0  0  0  0  0  0  0  0  0  0  0
   -0.4465    1.4793    0.1649 H   0  0  0  0  0  0  0  0  0  0  0  0
   -2.0179   -1.1498    0.0189 H   0  0  0  0  0  0  0  0  0  0  0  0
   -2.6972    0.5572    0.2194 H   0  0  0  0  0  0  0  0  0  0  0  0
  1  2  2  3
  1  5  1  0
  1  6  1  0
  2  3  1  0
  2  7  1  0
  3  4  2  3
  3  8  1  0
  4  9  1  0
  4 10  1  0
M  END
>  <reaction>  (3) 
rxn_1144

>  <mol_properties>  (3) 
{"1": {"label": "acceptor", "atom_type": "Cd"}, "9": {"label": "a_hydrogen", "atom_type": "H0"}}

>  <type>  (3) 
r2h

$$$$

     RDKit          3D

 22 20  0  0  0  0  0  0  0  0999 V2000
    0.8364    2.2084   -0.2789 C   0  0  0  0  0  0  0  0  0  0  0  0
   -0.2895    1.5307   -0.3566 C   0  0  0  0  0  3  0  0  0  0  0  0
   -1.5562    1.8237   -0.9832 C   0  0  0  0  0  0  0  0  0  0  0  0
   -2.5498    0.9497   -1.1124 C   0  0  0  0  0  0  0  0  0  0  0  0
    1.6956    1.8123    0.2528 H   0  0  0  0  0  0  0  0  0  0  0  0
    0.9505    3.1844   -0.7486 H   0  0  0  0  0  0  0  0  0  0  0  0
   -1.6781    2.8370   -1.3669 H   0  0  0  0  0  0  0  0  0  0  0  0
   -3.4782    1.2237   -1.5960 H   0  0  0  0  0  0  0  0  0  0  0  0
   -2.4558   -0.0662   -0.7474 H   0  0  0  0  0  0  0  0  0  0  0  0
    0.0235   -1.8099   -1.2735 C   0  0  0  0  0  0  0  0  0  0  0  0
   -0.1229   -1.9280    0.0374 C   0  0  0  0  0  0  0  0  0  0  0  0
   -0.0698   -0.8043    1.0149 C   0  0  0  0  0  0  0  0  0  0  0  0
    1.1802   -0.6448    1.7879 C   0  0  0  0  0  0  0  0  0  0  0  0
    2.3621   -1.1683    1.4713 C   0  0  0  0  0  0  0  0  0  0  0  0
   -0.0194   -2.6746   -1.9238 H   0  0  0  0  0  0  0  0  0  0  0  0
    0.1889   -0.8447   -1.7392 H   0  0  0  0  0  0  0  0  0  0  0  0
   -0.2823   -2.9167    0.4637 H   0  0  0  0  0  0  0  0  0  0  0  0
   -0.2152    0.2534    0.3748 H   0  0  0  0  0  0  0  0  0  0  0  0
   -0.9432   -0.7946    1.6711 H   0  0  0  0  0  0  0  0  0  0  0  0
    1.1059   -0.0111    2.6670 H   0  0  0  0  0  0  0  0  0  0  0  0
    2.4869   -1.8013    0.6007 H   0  0  0  0  0  0  0  0  0  0  0  0
    3.2371   -0.9781    2.0794 H   0  0  0  0  0  0  0  0  0  0  0  0
  1  2  2  3
  1  5  1  0
  1  6  1  0
  2  3  1  0
  3  4  2  3
  3  7  1  0
  4  8  1  0
  4  9  1  0
 10 11  2  3
 10 15  1  0
 10 16  1  0
 11 12  1  0
 11 17  1  0
 12 13  1  0
 12 18  1  0
 12 19  1  0
 13 14  2  3
 13 20  1  0
 14 21  1  0
 14 22  1  0
M  RAD  1   2   2
M  END
>  <reaction>  (4) 
rxn_1144

>  <mol_properties>  (4) 
{"1": {"label": "*3", "atom_type": "Cd"}, "2": {"label": "*4", "atom_type": "Cd"}, "10": {"label": "*0", "atom_type": "Cd"}, "11": {"label": "*1", "atom_type": "Cs"}, "17": {"label": "*2", "atom_type": "H0"}}

>  <type>  (4) 
ts

$$$$
