
     RDKit          3D

 15 15  0  0  0  0  0  0  0  0999 V2000
    2.2031   -0.2111   -0.1693 C   0  0  0  0  0  0  0  0  0  0  0  0
    0.7140   -0.0314   -0.0623 C   0  0  0  0  0  0  0  0  0  0  0  0
   -0.0114    0.5491   -1.0982 C   0  0  0  0  0  0  0  0  0  0  0  0
   -1.3882    0.6886   -1.0150 C   0  0  0  0  0  0  0  0  0  0  0  0
   -2.0661    0.2493    0.1118 C   0  0  0  0  0  0  0  0  0  0  0  0
   -1.3551   -0.3278    1.1528 C   0  0  0  0  0  0  0  0  0  0  0  0
    0.0216   -0.4648    1.0642 C   0  0  0  0  0  0  0  0  0  0  0  0
    2.6776   -0.1836    0.8122 H   0  0  0  0  0  0  0  0  0  0  0  0
    2.4446   -1.1749   -0.6249 H   0  0  0  0  0  0  0  0  0  0  0  0
    2.6532    0.5664   -0.7875 H   0  0  0  0  0  0  0  0  0  0  0  0
    0.5104    0.8989   -1.9819 H   0  0  0  0  0  0  0  0  0  0  0  0
   -1.9328    1.1452   -1.8322 H   0  0  0  0  0  0  0  0  0  0  0  0
   -3.1409    0.3597    0.1800 H   0  0  0  0  0  0  0  0  0  0  0  0
   -1.8736   -0.6702    2.0398 H   0  0  0  0  0  0  0  0  0  0  0  0
    0.5695   -0.9141    1.8849 H   0  0  0  0  0  0  0  0  0  0  0  0
  1  2  1  0
  1  8  1  0
  1  9  1  0
  1 10  1  0
  2  3  2  0
  2  7  1  0
  3  4  1  0
  3 11  1  0
  4  5  2  0
  4 12  1  0
  5  6  1  0
  5 13  1  0
  6  7  2  0
  6 14  1  0
  7 15  1  0
M  END
>  <reaction>  (1) 
rxn_269

>  <mol_properties>  (1) 
{"3": {"label": "donator", "atom_type": "Cd"}, "11": {"label": "d_hydrogen", "atom_type": "H0"}}

>  <type>  (1) 
r1h

$$$$

     RDKit          3D

  4  3  0  0  0  0  0  0  0  0999 V2000
    0.0000    0.0000    0.0000 C   0  0  0  0  0  3  0  0  0  0  0  0
    1.0638   -0.1747    0.0540 H   0  0  0  0  0  0  0  0  0  0  0  0
   -0.6833   -0.8351   -0.0280 H   0  0  0  0  0  0  0  0  0  0  0  0
   -0.3805    1.0098   -0.0260 H   0  0  0  0  0  0  0  0  0  0  0  0
  1  2  1  0
  1  3  1  0
  1  4  1  0
M  RAD  1   1   2
M  END
>  <reaction>  (2) 
rxn_269

>  <mol_properties>  (2) 
{"0": {"label": "acceptor", "atom_type": "Cs"}}

>  <type>  (2) 
r2

$$$$

     RDKit          3D

  5  4  0  0  0  0  0  0  0  0999 V2000
    0.0000    0.0000    0.0000 C   0  0  0  0  0  0  0  0  0  0  0  0
   -0.6486   -0.7720   -0.4113 H   0  0  0  0  0  0  0  0  0  0  0  0
   -0.3482    0.9787   -0.3267 H   0  0  0  0  0  0  0  0  0  0  0  0
   -0.0223   -0.0487    1.0876 H   0  0  0  0  0  0  0  0  0  0  0  0
    1.0191   -0.1580   -0.3496 H   0  0  0  0  0  0  0  0  0  0  0  0
  1  2  1  0
  1  3  1  0
  1  4  1  0
  1  5  1  0
M  END
>  <reaction>  (3) 
rxn_269

>  <mol_properties>  (3) 
{"0": {"label": "a_hydrogen", "atom_type": "H0"}, "1": {"label": "acceptor", "atom_type": "Cs"}}

>  <type>  (3) 
r2h

$$$$

     RDKit          3D

 19 18  0  0  0  0  0  0  0  0999 V2000
    0.1781   -0.4718   -2.8025 C   0  0  0  0  0  0  0  0  0  0  0  0
    0.1180   -0.4945   -1.3000 C   0  0  0  0  0  0  0  0  0  0  0  0
    0.0322    0.6925   -0.5716 C   0  0  0  0  0  0  0  0  0  0  0  0
   -0.0526    0.6417    0.8011 C   0  0  0  0  0  3  0  0  0  0  0  0
   -0.0545   -0.5424    1.5048 C   0  0  0  0  0  0  0  0  0  0  0  0
    0.0348   -1.7272    0.7842 C   0  0  0  0  0  0  0  0  0  0  0  0
    0.1203   -1.6979   -0.6002 C   0  0  0  0  0  0  0  0  0  0  0  0
   -0.8280   -0.4578   -3.2291 H   0  0  0  0  0  0  0  0  0  0  0  0
    0.7008    0.4142   -3.1646 H   0  0  0  0  0  0  0  0  0  0  0  0
    0.6892   -1.3527   -3.1921 H   0  0  0  0  0  0  0  0  0  0  0  0
    0.0350    1.6461   -1.0893 H   0  0  0  0  0  0  0  0  0  0  0  0
   -0.1320    1.8187    1.4936 H   0  0  0  0  0  0  0  0  0  0  0  0
   -0.1194   -0.5534    2.5861 H   0  0  0  0  0  0  0  0  0  0  0  0
    0.0410   -2.6780    1.3036 H   0  0  0  0  0  0  0  0  0  0  0  0
    0.1929   -2.6296   -1.1496 H   0  0  0  0  0  0  0  0  0  0  0  0
   -0.2065    2.9382    2.1470 C   0  0  0  0  0  0  0  0  0  0  0  0
   -1.1085    2.8677    2.7487 H   0  0  0  0  0  0  0  0  0  0  0  0
   -0.2635    3.7134    1.3874 H   0  0  0  0  0  0  0  0  0  0  0  0
    0.7010    2.9931    2.7419 H   0  0  0  0  0  0  0  0  0  0  0  0
  1  2  1  0
  1  8  1  0
  1  9  1  0
  1 10  1  0
  2  7  2  0
  2  3  1  0
  3  4  2  0
  3 11  1  0
  4  5  1  0
  5  6  2  0
  5 13  1  0
  6  7  1  0
  6 14  1  0
  7 15  1  0
 12 16  1  0
 16 17  1  0
 16 18  1  0
 16 19  1  0
M  RAD  1   4   2
M  END
>  <reaction>  (4) 
rxn_269

>  <mol_properties>  (4) 
{"2": {"label": "*4", "atom_type": "Cd"}, "3": {"label": "*3", "atom_type": "Cd"}, "11": {"label": "*2", "atom_type": "H0"}, "15": {"label": "*1", "atom_type": "Cs"}, "16": {"label": "*0", "atom_type": "H0"}}

>  <type>  (4) 
ts

$$$$
