
     RDKit          3D

 18 18  0  0  0  0  0  0  0  0999 V2000
   -2.4852    0.3210   -0.3966 C   0  0  0  0  0  0  0  0  0  0  0  0
   -1.5917   -0.2708    0.6941 C   0  0  0  0  0  0  0  0  0  0  0  0
   -0.1292   -0.1692    0.3493 C   0  0  0  0  0  0  0  0  0  0  0  0
    0.6099    0.9558    0.7015 C   0  0  0  0  0  0  0  0  0  0  0  0
    1.9447    1.0728    0.3458 C   0  0  0  0  0  0  0  0  0  0  0  0
    2.5646    0.0613   -0.3720 C   0  0  0  0  0  0  0  0  0  0  0  0
    1.8399   -1.0657   -0.7287 C   0  0  0  0  0  0  0  0  0  0  0  0
    0.5055   -1.1769   -0.3700 C   0  0  0  0  0  0  0  0  0  0  0  0
   -2.3325   -0.1971   -1.3452 H   0  0  0  0  0  0  0  0  0  0  0  0
   -2.2554    1.3763   -0.5546 H   0  0  0  0  0  0  0  0  0  0  0  0
   -3.5397    0.2376   -0.1280 H   0  0  0  0  0  0  0  0  0  0  0  0
   -1.7801    0.2462    1.6380 H   0  0  0  0  0  0  0  0  0  0  0  0
   -1.8568   -1.3190    0.8516 H   0  0  0  0  0  0  0  0  0  0  0  0
    0.1327    1.7497    1.2656 H   0  0  0  0  0  0  0  0  0  0  0  0
    2.5033    1.9550    0.6330 H   0  0  0  0  0  0  0  0  0  0  0  0
    3.6077    0.1491   -0.6484 H   0  0  0  0  0  0  0  0  0  0  0  0
    2.3163   -1.8632   -1.2854 H   0  0  0  0  0  0  0  0  0  0  0  0
   -0.0540   -2.0629   -0.6500 H   0  0  0  0  0  0  0  0  0  0  0  0
  1  2  1  0
  1  9  1  0
  1 10  1  0
  1 11  1  0
  2  3  1  0
  2 12  1  0
  2 13  1  0
  3  4  2  0
  3  8  1  0
  4  5  1  0
  4 14  1  0
  5  6  2  0
  5 15  1  0
  6  7  1  0
  6 16  1  0
  7  8  2  0
  7 17  1  0
  8 18  1  0
M  END
>  <reaction>  (1) 
rxn_1488

>  <mol_properties>  (1) 
{"1": {"label": "donator", "atom_type": "Cs"}, "11": {"label": "d_hydrogen", "atom_type": "H0"}}

>  <type>  (1) 
r1h

$$$$

     RDKit          3D

  9  8  0  0  0  0  0  0  0  0999 V2000
    2.3038   -0.0269    0.1590 C   0  0  0  0  0  0  0  0  0  0  0  0
    1.1426    0.1377   -0.1648 C   0  0  0  0  0  0  0  0  0  0  0  0
   -0.1694    0.3175   -0.5203 C   0  0  0  0  0  3  0  0  0  0  0  0
   -1.3163   -0.1910    0.2856 C   0  0  0  0  0  0  0  0  0  0  0  0
    3.3199   -0.1683    0.4378 H   0  0  0  0  0  0  0  0  0  0  0  0
   -0.3786    0.8584   -1.4360 H   0  0  0  0  0  0  0  0  0  0  0  0
   -1.9694    0.6309    0.5951 H   0  0  0  0  0  0  0  0  0  0  0  0
   -1.9325   -0.8770   -0.3039 H   0  0  0  0  0  0  0  0  0  0  0  0
   -0.9753   -0.7144    1.1774 H   0  0  0  0  0  0  0  0  0  0  0  0
  1  2  3  0
  1  5  1  0
  2  3  1  0
  3  4  1  0
  3  6  1  0
  4  7  1  0
  4  8  1  0
  4  9  1  0
M  RAD  1   3   2
M  END
>  <reaction>  (2) 
rxn_1488

>  <mol_properties>  (2) 
{"2": {"label": "acceptor", "atom_type": "Cs"}}

>  <type>  (2) 
r2

$$$$

     RDKit          3D

 10  9  0  0  0  0  0  0  0  0999 V2000
    2.2738    0.0217   -0.0992 C   0  0  0  0  0  0  0  0  0  0  0  0
    1.1083    0.2960   -0.0695 C   0  0  0  0  0  0  0  0  0  0  0  0
   -0.3173    0.6046   -0.0227 C   0  0  0  0  0  0  0  0  0  0  0  0
   -1.1561   -0.5495    0.5292 C   0  0  0  0  0  0  0  0  0  0  0  0
    3.3097   -0.2166   -0.1277 H   0  0  0  0  0  0  0  0  0  0  0  0
   -0.6542    0.8617   -1.0302 H   0  0  0  0  0  0  0  0  0  0  0  0
   -0.4633    1.4978    0.5900 H   0  0  0  0  0  0  0  0  0  0  0  0
   -0.8485   -0.7997    1.5447 H   0  0  0  0  0  0  0  0  0  0  0  0
   -2.2115   -0.2752    0.5459 H   0  0  0  0  0  0  0  0  0  0  0  0
   -1.0409   -1.4407   -0.0879 H   0  0  0  0  0  0  0  0  0  0  0  0
  1  2  3  0
  1  5  1  0
  2  3  1  0
  3  4  1  0
  3  6  1  0
  3  7  1  0
  4  8  1  0
  4  9  1  0
  4 10  1  0
M  END
>  <reaction>  (3) 
rxn_1488

>  <mol_properties>  (3) 
{"2": {"label": "acceptor", "atom_type": "Cs"}, "9": {"label": "a_hydrogen", "atom_type": "H0"}}

>  <type>  (3) 
r2h

$$$$

     RDKit          3D

 27 26  0  0  0  0  0  0  0  0999 V2000
   -0.0335   -2.8892    2.3560 C   0  0  0  0  0  0  0  0  0  0  0  0
   -0.5733   -2.5782    1.3261 C   0  0  0  0  0  0  0  0  0  0  0  0
   -1.1491   -2.1598    0.0941 C   0  0  0  0  0  3  0  0  0  0  0  0
   -2.2021   -1.0772    0.1520 C   0  0  0  0  0  0  0  0  0  0  0  0
    0.4215   -3.1792    3.2720 H   0  0  0  0  0  0  0  0  0  0  0  0
   -1.3851   -2.9867   -0.5744 H   0  0  0  0  0  0  0  0  0  0  0  0
   -2.4558   -0.7398   -0.8541 H   0  0  0  0  0  0  0  0  0  0  0  0
   -3.1155   -1.4394    0.6307 H   0  0  0  0  0  0  0  0  0  0  0  0
   -1.8399   -0.2176    0.7171 H   0  0  0  0  0  0  0  0  0  0  0  0
    0.5814   -1.1065   -2.6638 C   0  0  0  0  0  0  0  0  0  0  0  0
    0.8241   -0.8658   -1.1975 C   0  0  0  0  0  0  0  0  0  0  0  0
    0.6826    0.4865   -0.6412 C   0  0  0  0  0  0  0  0  0  0  0  0
    0.0751    1.5310   -1.3426 C   0  0  0  0  0  0  0  0  0  0  0  0
   -0.1075    2.7718   -0.7535 C   0  0  0  0  0  0  0  0  0  0  0  0
    0.3057    2.9972    0.5506 C   0  0  0  0  0  0  0  0  0  0  0  0
    0.9112    1.9689    1.2616 C   0  0  0  0  0  0  0  0  0  0  0  0
    1.0981    0.7323    0.6731 C   0  0  0  0  0  0  0  0  0  0  0  0
    1.2793   -0.5379   -3.2859 H   0  0  0  0  0  0  0  0  0  0  0  0
   -0.4303   -0.8186   -2.9585 H   0  0  0  0  0  0  0  0  0  0  0  0
    0.7063   -2.1630   -2.9027 H   0  0  0  0  0  0  0  0  0  0  0  0
   -0.1261   -1.5602   -0.5712 H   0  0  0  0  0  0  0  0  0  0  0  0
    1.6895   -1.3960   -0.8011 H   0  0  0  0  0  0  0  0  0  0  0  0
   -0.2550    1.3766   -2.3620 H   0  0  0  0  0  0  0  0  0  0  0  0
   -0.5762    3.5685   -1.3180 H   0  0  0  0  0  0  0  0  0  0  0  0
    0.1600    3.9666    1.0098 H   0  0  0  0  0  0  0  0  0  0  0  0
    1.2379    2.1337    2.2808 H   0  0  0  0  0  0  0  0  0  0  0  0
    1.5584   -0.0712    1.2367 H   0  0  0  0  0  0  0  0  0  0  0  0
  1  2  3  0
  1  5  1  0
  2  3  1  0
  3  4  1  0
  3  6  1  0
  4  7  1  0
  4  8  1  0
  4  9  1  0
 10 11  1  0
 10 18  1  0
 10 19  1  0
 10 20  1  0
 11 12  1  0
 11 21  1  0
 11 22  1  0
 12 13  2  0
 12 17  1  0
 13 14  1  0
 13 23  1  0
 14 15  2  0
 14 24  1  0
 15 16  1  0
 15 25  1  0
 16 17  2  0
 16 26  1  0
 17 27  1  0
M  RAD  1   3   2
M  END
>  <reaction>  (4) 
rxn_1488

>  <mol_properties>  (4) 
{"1": {"label": "*4", "atom_type": "Ct"}, "2": {"label": "*3", "atom_type": "Cs"}, "10": {"label": "*1", "atom_type": "Cs"}, "11": {"label": "*0", "atom_type": "Cd"}, "20": {"label": "*2", "atom_type": "H0"}}

>  <type>  (4) 
ts

$$$$
