
     RDKit          3D

 12 11  0  0  0  0  0  0  0  0999 V2000
    1.4428    0.2441    1.3554 C   0  0  0  0  0  0  0  0  0  0  0  0
    0.3166    0.4887    0.4026 C   0  0  0  0  0  0  0  0  0  0  0  0
   -0.8306    1.0759    0.7113 C   0  0  0  0  0  0  0  0  0  0  0  0
   -1.9569    1.3205   -0.2415 C   0  0  0  0  0  0  0  0  0  0  0  0
    1.6690   -0.8228    1.4301 H   0  0  0  0  0  0  0  0  0  0  0  0
    2.3573    0.7388    1.0175 H   0  0  0  0  0  0  0  0  0  0  0  0
    1.2058    0.6125    2.3545 H   0  0  0  0  0  0  0  0  0  0  0  0
    0.4700    0.1508   -0.6205 H   0  0  0  0  0  0  0  0  0  0  0  0
   -0.9840    1.4138    1.7343 H   0  0  0  0  0  0  0  0  0  0  0  0
   -2.8714    0.8258    0.0963 H   0  0  0  0  0  0  0  0  0  0  0  0
   -2.1831    2.3874   -0.3163 H   0  0  0  0  0  0  0  0  0  0  0  0
   -1.7199    0.9521   -1.2407 H   0  0  0  0  0  0  0  0  0  0  0  0
  1  2  1  0
  1  5  1  0
  1  6  1  0
  1  7  1  0
  2  3  2  3
  2  8  1  0
  3  4  1  0
  3  9  1  0
  4 10  1  0
  4 11  1  0
  4 12  1  0
M  END
>  <reaction>  (1) 
rxn_32

>  <mol_properties>  (1) 
{"3": {"label": "donator", "atom_type": "Cs"}, "11": {"label": "d_hydrogen", "atom_type": "H0"}}

>  <type>  (1) 
r1h

$$$$

     RDKit          3D

  3  2  0  0  0  0  0  0  0  0999 V2000
    0.9943   -0.1797    0.0000 O   0  0  0  0  0  1  0  0  0  0  0  0
   -0.1595    0.4394    0.0000 O   0  0  0  0  0  0  0  0  0  0  0  0
   -0.8348   -0.2597    0.0000 H   0  0  0  0  0  0  0  0  0  0  0  0
  1  2  1  0
  2  3  1  0
M  RAD  1   1   2
M  END
>  <reaction>  (2) 
rxn_32

>  <mol_properties>  (2) 
{"0": {"label": "acceptor", "atom_type": "O2s"}}

>  <type>  (2) 
r2

$$$$

     RDKit          3D

  4  3  0  0  0  0  0  0  0  0999 V2000
    0.5949   -0.3853    0.2659 O   0  0  0  0  0  0  0  0  0  0  0  0
   -0.5918    0.4028    0.2462 O   0  0  0  0  0  0  0  0  0  0  0  0
    1.1865    0.1539   -0.2689 H   0  0  0  0  0  0  0  0  0  0  0  0
   -1.1896   -0.1714   -0.2432 H   0  0  0  0  0  0  0  0  0  0  0  0
  1  2  1  0
  1  3  1  0
  2  4  1  0
M  END
>  <reaction>  (3) 
rxn_32

>  <mol_properties>  (3) 
{"0": {"label": "a_hydrogen", "atom_type": "H0"}, "1": {"label": "acceptor", "atom_type": "O2s"}}

>  <type>  (3) 
r2h

$$$$

     RDKit          3D

 15 13  0  0  0  0  0  0  0  0999 V2000
    0.0010    0.2858   -2.6744 C   0  0  0  0  0  0  0  0  0  0  0  0
   -0.4769    0.4339   -1.2701 C   0  0  0  0  0  0  0  0  0  0  0  0
    0.1378    1.1562   -0.3191 C   0  0  0  0  0  0  0  0  0  0  0  0
   -0.3103    1.2483    1.0521 C   0  0  0  0  0  3  0  0  0  0  0  0
    0.1579   -0.7674   -2.9242 H   0  0  0  0  0  0  0  0  0  0  0  0
   -0.7427    0.6647   -3.3807 H   0  0  0  0  0  0  0  0  0  0  0  0
    0.9359    0.8223   -2.8406 H   0  0  0  0  0  0  0  0  0  0  0  0
   -1.4000   -0.0781   -1.0114 H   0  0  0  0  0  0  0  0  0  0  0  0
    1.0686    1.6585   -0.5728 H   0  0  0  0  0  0  0  0  0  0  0  0
    0.0425    2.1051    1.6201 H   0  0  0  0  0  0  0  0  0  0  0  0
   -1.3574    1.0109    1.2278 H   0  0  0  0  0  0  0  0  0  0  0  0
    0.2638    0.2462    1.6464 H   0  0  0  0  0  0  0  0  0  0  0  0
    0.7578   -0.8212    2.0365 O   0  0  0  0  0  0  0  0  0  0  0  0
    0.4484   -1.7118    1.0361 O   0  0  0  0  0  0  0  0  0  0  0  0
    1.1881   -1.6312    0.4206 H   0  0  0  0  0  0  0  0  0  0  0  0
  1  2  1  0
  1  5  1  0
  1  6  1  0
  1  7  1  0
  2  3  2  3
  2  8  1  0
  3  4  1  0
  3  9  1  0
  4 10  1  0
  4 11  1  0
 12 13  1  0
 13 14  1  0
 14 15  1  0
M  RAD  1   4   2
M  END
>  <reaction>  (4) 
rxn_32

>  <mol_properties>  (4) 
{"2": {"label": "*4", "atom_type": "Cd"}, "3": {"label": "*3", "atom_type": "Cs"}, "11": {"label": "*2", "atom_type": "H0"}, "12": {"label": "*1", "atom_type": "O2s"}, "13": {"label": "*0", "atom_type": "O2s"}}

>  <type>  (4) 
ts

$$$$
