
     RDKit          3D

  7  6  0  0  0  0  0  0  0  0999 V2000
   -0.6782    0.0507    0.0301 C   0  0  0  0  0  0  0  0  0  0  0  0
    0.8092    0.0996    0.0213 C   0  0  0  0  0  0  0  0  0  0  0  0
    1.7473    0.7521    1.1507 S   0  0  0  0  0  0  0  0  0  0  0  0
   -1.0667    0.5456   -0.8653 H   0  0  0  0  0  0  0  0  0  0  0  0
   -1.0112   -0.9904   -0.0239 H   0  0  0  0  0  0  0  0  0  0  0  0
   -1.0920    0.5225    0.9188 H   0  0  0  0  0  0  0  0  0  0  0  0
    1.2740   -0.3620   -0.8520 H   0  0  0  0  0  0  0  0  0  0  0  0
  1  2  1  0
  1  4  1  0
  1  5  1  0
  1  6  1  0
  2  3  2  0
  2  7  1  0
M  END
>  <reaction>  (1) 
rxn_1978

>  <mol_properties>  (1) 
{"0": {"label": "donator", "atom_type": "Cs"}, "3": {"label": "d_hydrogen", "atom_type": "H0"}}

>  <type>  (1) 
r1h

$$$$

     RDKit          3D

 12 11  0  0  0  0  0  0  0  0999 V2000
    2.7049    0.9350   -0.4404 S   0  0  0  0  0  1  0  0  0  0  0  0
    1.0313    1.0813   -0.4080 C   0  0  0  0  0  0  0  0  0  0  0  0
    0.1364    0.1019   -0.0473 C   0  0  0  0  0  0  0  0  0  0  0  0
    0.5360   -1.2679    0.3784 C   0  0  0  0  0  0  0  0  0  0  0  0
   -1.3304    0.3842   -0.0689 C   0  0  0  0  0  0  0  0  0  0  0  0
    0.6069    2.0398   -0.6990 H   0  0  0  0  0  0  0  0  0  0  0  0
    0.1578   -1.4699    1.3849 H   0  0  0  0  0  0  0  0  0  0  0  0
    0.0783   -2.0109   -0.2814 H   0  0  0  0  0  0  0  0  0  0  0  0
    1.6154   -1.3973    0.3689 H   0  0  0  0  0  0  0  0  0  0  0  0
   -1.8406   -0.3126   -0.7406 H   0  0  0  0  0  0  0  0  0  0  0  0
   -1.5514    1.4016   -0.3887 H   0  0  0  0  0  0  0  0  0  0  0  0
   -1.7610    0.2281    0.9247 H   0  0  0  0  0  0  0  0  0  0  0  0
  1  2  1  0
  2  3  2  3
  2  6  1  0
  3  4  1  0
  3  5  1  0
  4  7  1  0
  4  8  1  0
  4  9  1  0
  5 10  1  0
  5 11  1  0
  5 12  1  0
M  RAD  1   1   2
M  END
>  <reaction>  (2) 
rxn_1978

>  <mol_properties>  (2) 
{"2": {"label": "acceptor", "atom_type": "Cs"}}

>  <type>  (2) 
r2

$$$$

     RDKit          3D

 13 12  0  0  0  0  0  0  0  0999 V2000
    2.7452   -1.1134   -0.3601 S   0  0  0  0  0  0  0  0  0  0  0  0
    1.4120   -0.4899    0.2856 C   0  0  0  0  0  0  0  0  0  0  0  0
    0.1714   -0.0257   -0.4180 C   0  0  0  0  0  0  0  0  0  0  0  0
   -0.0717    1.4493   -0.0658 C   0  0  0  0  0  0  0  0  0  0  0  0
    0.1609   -0.2576   -1.9191 C   0  0  0  0  0  0  0  0  0  0  0  0
    1.3665   -0.3550    1.3690 H   0  0  0  0  0  0  0  0  0  0  0  0
   -0.6453   -0.6023    0.0382 H   0  0  0  0  0  0  0  0  0  0  0  0
    0.7161    2.0755   -0.4895 H   0  0  0  0  0  0  0  0  0  0  0  0
   -0.0915    1.6095    1.0136 H   0  0  0  0  0  0  0  0  0  0  0  0
   -1.0268    1.7797   -0.4755 H   0  0  0  0  0  0  0  0  0  0  0  0
    0.3131   -1.3093   -2.1616 H   0  0  0  0  0  0  0  0  0  0  0  0
    0.9567    0.3095   -2.4051 H   0  0  0  0  0  0  0  0  0  0  0  0
   -0.7945    0.0619   -2.3384 H   0  0  0  0  0  0  0  0  0  0  0  0
  1  2  2  0
  2  3  1  0
  2  6  1  0
  3  4  1  0
  3  5  1  0
  3  7  1  0
  4  8  1  0
  4  9  1  0
  4 10  1  0
  5 11  1  0
  5 12  1  0
  5 13  1  0
M  END
>  <reaction>  (3) 
rxn_1978

>  <mol_properties>  (3) 
{"2": {"label": "acceptor", "atom_type": "Cs"}, "12": {"label": "a_hydrogen", "atom_type": "H0"}}

>  <type>  (3) 
r2h

$$$$

     RDKit          3D

 19 17  0  0  0  0  0  0  0  0999 V2000
   -0.2616    2.2250    2.3850 S   0  0  0  0  0  0  0  0  0  0  0  0
   -0.3781    0.6378    2.0603 C   0  0  0  0  0  0  0  0  0  0  0  0
   -0.8436    0.0238    0.8271 C   0  0  0  0  0  0  0  0  0  0  0  0
   -1.3076   -1.4097    0.9360 C   0  0  0  0  0  0  0  0  0  0  0  0
   -1.5992    0.8641   -0.1686 C   0  0  0  0  0  0  0  0  0  0  0  0
   -0.0360   -0.0760    2.8119 H   0  0  0  0  0  0  0  0  0  0  0  0
   -2.3459   -1.4431    1.2763 H   0  0  0  0  0  0  0  0  0  0  0  0
   -1.2669   -1.9011   -0.0386 H   0  0  0  0  0  0  0  0  0  0  0  0
   -0.7000   -1.9808    1.6395 H   0  0  0  0  0  0  0  0  0  0  0  0
   -1.6112    0.3745   -1.1438 H   0  0  0  0  0  0  0  0  0  0  0  0
   -1.1592    1.8548   -0.2682 H   0  0  0  0  0  0  0  0  0  0  0  0
   -2.6330    0.9903    0.1639 H   0  0  0  0  0  0  0  0  0  0  0  0
    1.4022   -0.2477   -0.6127 C   0  0  0  0  0  0  0  0  0  0  0  0
    1.1803   -1.4160   -1.3878 C   0  0  0  0  0  0  0  0  0  0  0  0
    0.3962   -1.4547   -2.8302 S   0  0  0  0  0  1  0  0  0  0  0  0
    0.3115   -0.1418    0.2230 H   0  0  0  0  0  0  0  0  0  0  0  0
    2.1652   -0.2896    0.1606 H   0  0  0  0  0  0  0  0  0  0  0  0
    1.2874    0.7112   -1.1093 H   0  0  0  0  0  0  0  0  0  0  0  0
    1.5313   -2.3527   -0.9562 H   0  0  0  0  0  0  0  0  0  0  0  0
  1  2  2  0
  2  3  1  0
  2  6  1  0
  3  4  1  0
  3  5  1  0
  3 16  1  0
  4  7  1  0
  4  8  1  0
  4  9  1  0
  5 10  1  0
  5 11  1  0
  5 12  1  0
 13 14  2  3
 13 17  1  0
 13 18  1  0
 14 15  1  0
 14 19  1  0
M  RAD  1  15   2
M  END
>  <reaction>  (4) 
rxn_1978

>  <mol_properties>  (4) 
{"1": {"label": "*0", "atom_type": "CS"}, "2": {"label": "*1", "atom_type": "Cs"}, "12": {"label": "*3", "atom_type": "Cd"}, "13": {"label": "*4", "atom_type": "Cd"}, "15": {"label": "*2", "atom_type": "H0"}}

>  <type>  (4) 
ts

$$$$
