
     RDKit          3D

 15 14  0  0  0  0  0  0  0  0999 V2000
   -0.6986    1.3249   -0.1641 C   0  0  0  0  0  0  0  0  0  0  0  0
   -0.2590   -0.0344    0.3671 C   0  0  0  0  0  0  0  0  0  0  0  0
   -0.4734   -0.1429    1.8733 C   0  0  0  0  0  0  0  0  0  0  0  0
   -0.9841   -1.1722   -0.3462 C   0  0  0  0  0  0  0  0  0  0  0  0
   -0.7805   -1.1911   -1.7444 O   0  0  0  0  0  0  0  0  0  0  0  0
   -0.1246    2.1306    0.2976 H   0  0  0  0  0  0  0  0  0  0  0  0
   -1.7557    1.4964    0.0581 H   0  0  0  0  0  0  0  0  0  0  0  0
   -0.5709    1.3852   -1.2449 H   0  0  0  0  0  0  0  0  0  0  0  0
    0.8141   -0.1541    0.1667 H   0  0  0  0  0  0  0  0  0  0  0  0
   -1.5346   -0.0466    2.1192 H   0  0  0  0  0  0  0  0  0  0  0  0
    0.0611    0.6480    2.4019 H   0  0  0  0  0  0  0  0  0  0  0  0
   -0.1249   -1.1023    2.2618 H   0  0  0  0  0  0  0  0  0  0  0  0
   -0.6918   -2.1316    0.1011 H   0  0  0  0  0  0  0  0  0  0  0  0
   -2.0629   -1.0627   -0.2056 H   0  0  0  0  0  0  0  0  0  0  0  0
    0.1528   -1.3298   -1.9125 H   0  0  0  0  0  0  0  0  0  0  0  0
  1  2  1  0
  1  6  1  0
  1  7  1  0
  1  8  1  0
  2  3  1  0
  2  4  1  0
  2  9  1  0
  3 10  1  0
  3 11  1  0
  3 12  1  0
  4  5  1  0
  4 13  1  0
  4 14  1  0
  5 15  1  0
M  END
>  <reaction>  (1) 
rxn_418

>  <mol_properties>  (1) 
{"3": {"label": "donator", "atom_type": "Cs"}, "12": {"label": "d_hydrogen", "atom_type": "H0"}}

>  <type>  (1) 
r1h

$$$$

     RDKit          3D

  7  6  0  0  0  0  0  0  0  0999 V2000
   -0.6201    0.0189   -0.0017 C   0  0  0  0  0  0  0  0  0  0  0  0
    0.8589   -0.0553    0.0500 C   0  0  0  0  0  3  0  0  0  0  0  0
   -1.0738   -0.9730   -0.0559 H   0  0  0  0  0  0  0  0  0  0  0  0
   -0.9680    0.5706   -0.8872 H   0  0  0  0  0  0  0  0  0  0  0  0
   -1.0303    0.5369    0.8678 H   0  0  0  0  0  0  0  0  0  0  0  0
    1.3939   -0.8386   -0.4695 H   0  0  0  0  0  0  0  0  0  0  0  0
    1.4394    0.7404    0.4965 H   0  0  0  0  0  0  0  0  0  0  0  0
  1  2  1  0
  1  3  1  0
  1  4  1  0
  1  5  1  0
  2  6  1  0
  2  7  1  0
M  RAD  1   2   2
M  END
>  <reaction>  (2) 
rxn_418

>  <mol_properties>  (2) 
{"1": {"label": "acceptor", "atom_type": "Cs"}}

>  <type>  (2) 
r2

$$$$

     RDKit          3D

  8  7  0  0  0  0  0  0  0  0999 V2000
    0.7610    0.0250    0.0051 C   0  0  0  0  0  0  0  0  0  0  0  0
   -0.7610   -0.0250   -0.0051 C   0  0  0  0  0  0  0  0  0  0  0  0
    1.1904   -0.9237   -0.3217 H   0  0  0  0  0  0  0  0  0  0  0  0
    1.1359    0.8041   -0.6609 H   0  0  0  0  0  0  0  0  0  0  0  0
    1.1435    0.2336    1.0058 H   0  0  0  0  0  0  0  0  0  0  0  0
   -1.1435   -0.2336   -1.0058 H   0  0  0  0  0  0  0  0  0  0  0  0
   -1.1904    0.9237    0.3216 H   0  0  0  0  0  0  0  0  0  0  0  0
   -1.1359   -0.8041    0.6609 H   0  0  0  0  0  0  0  0  0  0  0  0
  1  2  1  0
  1  3  1  0
  1  4  1  0
  1  5  1  0
  2  6  1  0
  2  7  1  0
  2  8  1  0
M  END
>  <reaction>  (3) 
rxn_418

>  <mol_properties>  (3) 
{"0": {"label": "a_hydrogen", "atom_type": "H0"}, "2": {"label": "acceptor", "atom_type": "Cs"}}

>  <type>  (3) 
r2h

$$$$

     RDKit          3D

 22 20  0  0  0  0  0  0  0  0999 V2000
   -0.0993   -0.0038   -2.4234 C   0  0  0  0  0  0  0  0  0  0  0  0
    0.2574    0.0719   -0.9386 C   0  0  0  0  0  0  0  0  0  0  0  0
    1.7140    0.4765   -0.7369 C   0  0  0  0  0  0  0  0  0  0  0  0
   -0.6578    1.0213   -0.1935 C   0  0  0  0  0  0  0  0  0  0  0  0
   -2.0113    0.6968   -0.2170 O   0  0  0  0  0  0  0  0  0  0  0  0
    0.5183   -0.7451   -2.9351 H   0  0  0  0  0  0  0  0  0  0  0  0
    0.0675    0.9637   -2.9042 H   0  0  0  0  0  0  0  0  0  0  0  0
   -1.1467   -0.2709   -2.5660 H   0  0  0  0  0  0  0  0  0  0  0  0
    0.1185   -0.9263   -0.5009 H   0  0  0  0  0  0  0  0  0  0  0  0
    1.8926    1.4790   -1.1349 H   0  0  0  0  0  0  0  0  0  0  0  0
    2.3833   -0.2108   -1.2567 H   0  0  0  0  0  0  0  0  0  0  0  0
    1.9858    0.4821    0.3198 H   0  0  0  0  0  0  0  0  0  0  0  0
   -0.2687    1.0137    1.0581 H   0  0  0  0  0  0  0  0  0  0  0  0
   -0.5564    2.0589   -0.5176 H   0  0  0  0  0  0  0  0  0  0  0  0
   -2.1088   -0.2267    0.0250 H   0  0  0  0  0  0  0  0  0  0  0  0
    0.0568   -0.6862    2.5987 C   0  0  0  0  0  0  0  0  0  0  0  0
    0.0185    0.8061    2.4114 C   0  0  0  0  0  3  0  0  0  0  0  0
    0.2429   -0.9665    3.6407 H   0  0  0  0  0  0  0  0  0  0  0  0
    0.8448   -1.1437    1.9957 H   0  0  0  0  0  0  0  0  0  0  0  0
   -0.8922   -1.1468    2.3115 H   0  0  0  0  0  0  0  0  0  0  0  0
    0.9661    1.3172    2.5698 H   0  0  0  0  0  0  0  0  0  0  0  0
   -0.8065    1.3141    2.9061 H   0  0  0  0  0  0  0  0  0  0  0  0
  1  2  1  0
  1  6  1  0
  1  7  1  0
  1  8  1  0
  2  3  1  0
  2  4  1  0
  2  9  1  0
  3 10  1  0
  3 11  1  0
  3 12  1  0
  4  5  1  0
  4 13  1  0
  4 14  1  0
  5 15  1  0
 16 17  1  0
 16 18  1  0
 16 19  1  0
 16 20  1  0
 17 21  1  0
 17 22  1  0
M  RAD  1  17   2
M  END
>  <reaction>  (4) 
rxn_418

>  <mol_properties>  (4) 
{"1": {"label": "*0", "atom_type": "Cs"}, "3": {"label": "*1", "atom_type": "Cs"}, "12": {"label": "*2", "atom_type": "H0"}, "15": {"label": "*4", "atom_type": "Cs"}, "16": {"label": "*3", "atom_type": "Cs"}}

>  <type>  (4) 
ts

$$$$
