
     RDKit          3D

  4  3  0  0  0  0  0  0  0  0999 V2000
    0.0006   -0.0009    0.2762 N   0  0  0  0  0  0  0  0  0  0  0  0
   -0.4188    0.8439   -0.0883 H   0  0  0  0  0  0  0  0  0  0  0  0
   -0.5215   -0.7840   -0.0936 H   0  0  0  0  0  0  0  0  0  0  0  0
    0.9397   -0.0590   -0.0943 H   0  0  0  0  0  0  0  0  0  0  0  0
  1  2  1  0
  1  3  1  0
  1  4  1  0
M  END
>  <reaction>  (1) 
rxn_494

>  <mol_properties>  (1) 
{"0": {"label": "donator", "atom_type": "N3s"}, "1": {"label": "d_hydrogen", "atom_type": "H0"}}

>  <type>  (1) 
r1h

$$$$

     RDKit          3D

  4  3  0  0  0  0  0  0  0  0999 V2000
    0.0000    0.0000    0.0000 C   0  0  0  0  0  3  0  0  0  0  0  0
    1.0638   -0.1747    0.0540 H   0  0  0  0  0  0  0  0  0  0  0  0
   -0.6833   -0.8351   -0.0280 H   0  0  0  0  0  0  0  0  0  0  0  0
   -0.3805    1.0098   -0.0260 H   0  0  0  0  0  0  0  0  0  0  0  0
  1  2  1  0
  1  3  1  0
  1  4  1  0
M  RAD  1   1   2
M  END
>  <reaction>  (2) 
rxn_494

>  <mol_properties>  (2) 
{"0": {"label": "acceptor", "atom_type": "Cs"}}

>  <type>  (2) 
r2

$$$$

     RDKit          3D

  5  4  0  0  0  0  0  0  0  0999 V2000
    0.0000    0.0000    0.0000 C   0  0  0  0  0  0  0  0  0  0  0  0
   -0.6486   -0.7720   -0.4113 H   0  0  0  0  0  0  0  0  0  0  0  0
   -0.3482    0.9787   -0.3267 H   0  0  0  0  0  0  0  0  0  0  0  0
   -0.0223   -0.0487    1.0876 H   0  0  0  0  0  0  0  0  0  0  0  0
    1.0191   -0.1580   -0.3496 H   0  0  0  0  0  0  0  0  0  0  0  0
  1  2  1  0
  1  3  1  0
  1  4  1  0
  1  5  1  0
M  END
>  <reaction>  (3) 
rxn_494

>  <mol_properties>  (3) 
{"0": {"label": "acceptor", "atom_type": "Cs"}, "4": {"label": "a_hydrogen", "atom_type": "H0"}}

>  <type>  (3) 
r2h

$$$$

     RDKit          3D

  8  6  0  0  0  0  0  0  0  0999 V2000
   -0.0445    1.1833    0.4178 C   0  0  0  0  0  3  0  0  0  0  0  0
    0.6706    1.7809   -0.1411 H   0  0  0  0  0  0  0  0  0  0  0  0
    0.3098    0.9049    1.4057 H   0  0  0  0  0  0  0  0  0  0  0  0
   -1.0437    1.6102    0.4255 H   0  0  0  0  0  0  0  0  0  0  0  0
   -0.2234   -1.0717   -0.8030 N   0  0  0  0  0  0  0  0  0  0  0  0
   -0.1721    0.0959   -0.2961 H   0  0  0  0  0  0  0  0  0  0  0  0
    0.7254   -1.3982   -0.6120 H   0  0  0  0  0  0  0  0  0  0  0  0
   -0.7994   -1.5499   -0.1081 H   0  0  0  0  0  0  0  0  0  0  0  0
  1  2  1  0
  1  3  1  0
  1  4  1  0
  5  6  1  0
  5  7  1  0
  5  8  1  0
M  RAD  1   1   2
M  END
>  <reaction>  (4) 
rxn_494

>  <mol_properties>  (4) 
{"0": {"label": "*3", "atom_type": "Cs"}, "1": {"label": "*4", "atom_type": "H0"}, "4": {"label": "*1", "atom_type": "N3s"}, "5": {"label": "*2", "atom_type": "H0"}, "6": {"label": "*0", "atom_type": "H0"}}

>  <type>  (4) 
ts

$$$$
