
     RDKit          3D

  7  6  0  0  0  0  0  0  0  0999 V2000
    1.6964   -0.0938    0.0583 C   0  0  0  0  0  0  0  0  0  0  0  0
    0.5019   -0.0278    0.0173 C   0  0  0  0  0  0  0  0  0  0  0  0
   -0.9505    0.0525   -0.0327 C   0  0  0  0  0  0  0  0  0  0  0  0
    2.7574   -0.1524    0.0947 H   0  0  0  0  0  0  0  0  0  0  0  0
   -1.2692    0.9972   -0.4754 H   0  0  0  0  0  0  0  0  0  0  0  0
   -1.3749   -0.0147    0.9700 H   0  0  0  0  0  0  0  0  0  0  0  0
   -1.3610   -0.7611   -0.6323 H   0  0  0  0  0  0  0  0  0  0  0  0
  1  2  3  0
  1  4  1  0
  2  3  1  0
  3  5  1  0
  3  6  1  0
  3  7  1  0
M  END
>  <reaction>  (1) 
rxn_1228

>  <mol_properties>  (1) 
{"0": {"label": "donator", "atom_type": "Cs"}, "3": {"label": "d_hydrogen", "atom_type": "H0"}}

>  <type>  (1) 
r1h

$$$$

     RDKit          3D

 17 17  0  0  0  0  0  0  0  0999 V2000
    2.7069    0.2860   -0.1817 C   0  0  0  0  0  0  0  0  0  0  0  0
    1.6304   -0.7245    0.0085 C   0  0  0  0  0  0  0  0  0  0  0  0
    1.4786   -1.8800   -0.7837 C   0  0  0  0  0  0  0  0  0  0  0  0
    0.4231   -2.7891   -0.5312 C   0  0  0  0  0  3  0  0  0  0  0  0
    0.2582   -3.9235   -1.2940 C   0  0  0  0  0  0  0  0  0  0  0  0
    1.1348   -4.2030   -2.3401 C   0  0  0  0  0  0  0  0  0  0  0  0
    2.1804   -3.3260   -2.6093 C   0  0  0  0  0  0  0  0  0  0  0  0
    2.3549   -2.1866   -1.8513 C   0  0  0  0  0  0  0  0  0  0  0  0
    2.6698    0.7343   -1.1808 H   0  0  0  0  0  0  0  0  0  0  0  0
    3.7029   -0.1584   -0.0766 H   0  0  0  0  0  0  0  0  0  0  0  0
    2.6250    1.0917    0.5463 H   0  0  0  0  0  0  0  0  0  0  0  0
    0.9136   -0.5677    0.8059 H   0  0  0  0  0  0  0  0  0  0  0  0
   -0.2629   -2.5783    0.2811 H   0  0  0  0  0  0  0  0  0  0  0  0
   -0.5582   -4.6017   -1.0785 H   0  0  0  0  0  0  0  0  0  0  0  0
    1.0033   -5.0952   -2.9384 H   0  0  0  0  0  0  0  0  0  0  0  0
    2.8650   -3.5382   -3.4214 H   0  0  0  0  0  0  0  0  0  0  0  0
    3.1750   -1.5169   -2.0772 H   0  0  0  0  0  0  0  0  0  0  0  0
  1  2  1  0
  1  9  1  0
  1 10  1  0
  1 11  1  0
  2  3  2  3
  2 12  1  0
  3  4  1  0
  3  8  1  0
  4  5  1  0
  4 13  1  0
  5  6  2  0
  5 14  1  0
  6  7  1  0
  6 15  1  0
  7  8  2  0
  7 16  1  0
  8 17  1  0
M  RAD  1   4   2
M  END
>  <reaction>  (2) 
rxn_1228

>  <mol_properties>  (2) 
{"0": {"label": "acceptor", "atom_type": "Cs"}}

>  <type>  (2) 
r2

$$$$

     RDKit          3D

 18 18  0  0  0  0  0  0  0  0999 V2000
   -2.4852    0.3210   -0.3966 C   0  0  0  0  0  0  0  0  0  0  0  0
   -1.5917   -0.2708    0.6941 C   0  0  0  0  0  0  0  0  0  0  0  0
   -0.1292   -0.1692    0.3493 C   0  0  0  0  0  0  0  0  0  0  0  0
    0.6099    0.9558    0.7015 C   0  0  0  0  0  0  0  0  0  0  0  0
    1.9447    1.0728    0.3458 C   0  0  0  0  0  0  0  0  0  0  0  0
    2.5646    0.0613   -0.3720 C   0  0  0  0  0  0  0  0  0  0  0  0
    1.8399   -1.0657   -0.7287 C   0  0  0  0  0  0  0  0  0  0  0  0
    0.5055   -1.1769   -0.3700 C   0  0  0  0  0  0  0  0  0  0  0  0
   -2.3325   -0.1971   -1.3452 H   0  0  0  0  0  0  0  0  0  0  0  0
   -2.2554    1.3763   -0.5546 H   0  0  0  0  0  0  0  0  0  0  0  0
   -3.5397    0.2376   -0.1280 H   0  0  0  0  0  0  0  0  0  0  0  0
   -1.7801    0.2462    1.6380 H   0  0  0  0  0  0  0  0  0  0  0  0
   -1.8568   -1.3190    0.8516 H   0  0  0  0  0  0  0  0  0  0  0  0
    0.1327    1.7497    1.2656 H   0  0  0  0  0  0  0  0  0  0  0  0
    2.5033    1.9550    0.6330 H   0  0  0  0  0  0  0  0  0  0  0  0
    3.6077    0.1491   -0.6484 H   0  0  0  0  0  0  0  0  0  0  0  0
    2.3163   -1.8632   -1.2854 H   0  0  0  0  0  0  0  0  0  0  0  0
   -0.0540   -2.0629   -0.6500 H   0  0  0  0  0  0  0  0  0  0  0  0
  1  2  1  0
  1  9  1  0
  1 10  1  0
  1 11  1  0
  2  3  1  0
  2 12  1  0
  2 13  1  0
  3  4  2  0
  3  8  1  0
  4  5  1  0
  4 14  1  0
  5  6  2  0
  5 15  1  0
  6  7  1  0
  6 16  1  0
  7  8  2  0
  7 17  1  0
  8 18  1  0
M  END
>  <reaction>  (3) 
rxn_1228

>  <mol_properties>  (3) 
{"0": {"label": "acceptor", "atom_type": "Cs"}, "8": {"label": "a_hydrogen", "atom_type": "H0"}}

>  <type>  (3) 
r2h

$$$$

     RDKit          3D

 24 23  0  0  0  0  0  0  0  0999 V2000
    0.6010   -1.1391    0.6132 C   0  0  0  0  0  0  0  0  0  0  0  0
    1.2943   -0.6573    1.8626 C   0  0  0  0  0  0  0  0  0  0  0  0
   -0.6951   -0.5544    0.2322 C   0  0  0  0  0  0  0  0  0  0  0  0
   -1.0523    0.7492    0.5857 C   0  0  0  0  0  0  0  0  0  0  0  0
   -1.5832   -1.2851   -0.5633 C   0  0  0  0  0  0  0  0  0  0  0  0
   -2.2547    1.2945    0.1670 C   0  0  0  0  0  0  0  0  0  0  0  0
   -3.1264    0.5542   -0.6173 C   0  0  0  0  0  0  0  0  0  0  0  0
   -2.7841   -0.7410   -0.9813 C   0  0  0  0  0  0  0  0  0  0  0  0
    2.2724   -0.1999   -1.2785 C   0  0  0  0  0  3  0  0  0  0  0  0
    2.4629    1.1485   -0.8913 C   0  0  0  0  0  0  0  0  0  0  0  0
    2.5820    2.2839   -0.5072 C   0  0  0  0  0  0  0  0  0  0  0  0
    1.4183   -0.7501   -0.3411 H   0  0  0  0  0  0  0  0  0  0  0  0
    0.6202   -2.2223    0.4947 H   0  0  0  0  0  0  0  0  0  0  0  0
    0.6595   -0.7889    2.7434 H   0  0  0  0  0  0  0  0  0  0  0  0
    1.5567    0.4001    1.7926 H   0  0  0  0  0  0  0  0  0  0  0  0
    2.2188   -1.2123    2.0246 H   0  0  0  0  0  0  0  0  0  0  0  0
   -0.3815    1.3453    1.1903 H   0  0  0  0  0  0  0  0  0  0  0  0
   -2.5117    2.3066    0.4538 H   0  0  0  0  0  0  0  0  0  0  0  0
   -4.0661    0.9822   -0.9423 H   0  0  0  0  0  0  0  0  0  0  0  0
   -3.4581   -1.3292   -1.5916 H   0  0  0  0  0  0  0  0  0  0  0  0
   -1.3239   -2.2984   -0.8496 H   0  0  0  0  0  0  0  0  0  0  0  0
    3.1527   -0.8338   -1.2146 H   0  0  0  0  0  0  0  0  0  0  0  0
    1.6955   -0.3452   -2.1880 H   0  0  0  0  0  0  0  0  0  0  0  0
    2.7029    3.2927   -0.1943 H   0  0  0  0  0  0  0  0  0  0  0  0
  1  2  1  0
  1  3  1  0
  1 12  1  0
  1 13  1  0
  2 14  1  0
  2 15  1  0
  2 16  1  0
  3  4  2  0
  3  5  1  0
  4  6  1  0
  4 17  1  0
  5  8  2  0
  5 21  1  0
  6  7  2  0
  6 18  1  0
  7  8  1  0
  7 19  1  0
  8 20  1  0
  9 10  1  0
  9 22  1  0
  9 23  1  0
 10 11  3  0
 11 24  1  0
M  RAD  1   9   2
M  END
>  <reaction>  (4) 
rxn_1228

>  <mol_properties>  (4) 
{"0": {"label": "*1", "atom_type": "Cs"}, "2": {"label": "*0", "atom_type": "Cd"}, "8": {"label": "*3", "atom_type": "Cs"}, "9": {"label": "*4", "atom_type": "Ct"}, "11": {"label": "*2", "atom_type": "H0"}}

>  <type>  (4) 
ts

$$$$
