
     RDKit          3D

 19 20  0  0  0  0  0  0  0  0999 V2000
    1.1087   -0.4716   -0.9619 C   0  0  0  0  0  0  0  0  0  0  0  0
    0.9355    1.0407   -0.6470 C   0  0  0  0  0  0  0  0  0  0  0  0
   -0.0085    1.0377    0.5657 C   0  0  0  0  0  0  0  0  0  0  0  0
   -1.4093    0.6181    0.0927 C   0  0  0  0  0  0  0  0  0  0  0  0
   -1.2361   -0.8942   -0.2222 C   0  0  0  0  0  0  0  0  0  0  0  0
    0.2422   -1.1516    0.1099 C   0  0  0  0  0  0  0  0  0  0  0  0
    0.4537   -0.2211    1.3118 C   0  0  0  0  0  0  0  0  0  0  0  0
    2.1524   -0.7752   -0.8653 H   0  0  0  0  0  0  0  0  0  0  0  0
    0.7855   -0.7316   -1.9710 H   0  0  0  0  0  0  0  0  0  0  0  0
    1.8918    1.5001   -0.3916 H   0  0  0  0  0  0  0  0  0  0  0  0
    0.5184    1.6005   -1.4855 H   0  0  0  0  0  0  0  0  0  0  0  0
    0.0038    1.9661    1.1351 H   0  0  0  0  0  0  0  0  0  0  0  0
   -1.7351    1.1944   -0.7746 H   0  0  0  0  0  0  0  0  0  0  0  0
   -2.1465    0.7723    0.8824 H   0  0  0  0  0  0  0  0  0  0  0  0
   -1.4680   -1.1377   -1.2601 H   0  0  0  0  0  0  0  0  0  0  0  0
   -1.8859   -1.5030    0.4087 H   0  0  0  0  0  0  0  0  0  0  0  0
    0.4812   -2.2025    0.2673 H   0  0  0  0  0  0  0  0  0  0  0  0
    1.4942   -0.1701    1.6391 H   0  0  0  0  0  0  0  0  0  0  0  0
   -0.1779   -0.4714    2.1666 H   0  0  0  0  0  0  0  0  0  0  0  0
  1  2  1  0
  1  6  1  0
  1  8  1  0
  1  9  1  0
  2  3  1  0
  2 10  1  0
  2 11  1  0
  3  4  1  0
  3  7  1  0
  3 12  1  0
  4  5  1  0
  4 13  1  0
  4 14  1  0
  5  6  1  0
  5 15  1  0
  5 16  1  0
  6  7  1  0
  6 17  1  0
  7 18  1  0
  7 19  1  0
M  END
>  <reaction>  (1) 
rxn_485

>  <mol_properties>  (1) 
{"0": {"label": "donator", "atom_type": "Cs"}, "7": {"label": "d_hydrogen", "atom_type": "H0"}}

>  <type>  (1) 
r1h

$$$$

     RDKit          3D

  7  6  0  0  0  0  0  0  0  0999 V2000
   -0.6201    0.0189   -0.0017 C   0  0  0  0  0  0  0  0  0  0  0  0
    0.8589   -0.0553    0.0500 C   0  0  0  0  0  3  0  0  0  0  0  0
   -1.0738   -0.9730   -0.0559 H   0  0  0  0  0  0  0  0  0  0  0  0
   -0.9680    0.5706   -0.8872 H   0  0  0  0  0  0  0  0  0  0  0  0
   -1.0303    0.5369    0.8678 H   0  0  0  0  0  0  0  0  0  0  0  0
    1.3939   -0.8386   -0.4695 H   0  0  0  0  0  0  0  0  0  0  0  0
    1.4394    0.7404    0.4965 H   0  0  0  0  0  0  0  0  0  0  0  0
  1  2  1  0
  1  3  1  0
  1  4  1  0
  1  5  1  0
  2  6  1  0
  2  7  1  0
M  RAD  1   2   2
M  END
>  <reaction>  (2) 
rxn_485

>  <mol_properties>  (2) 
{"1": {"label": "acceptor", "atom_type": "Cs"}}

>  <type>  (2) 
r2

$$$$

     RDKit          3D

  8  7  0  0  0  0  0  0  0  0999 V2000
    0.7610    0.0250    0.0051 C   0  0  0  0  0  0  0  0  0  0  0  0
   -0.7610   -0.0250   -0.0051 C   0  0  0  0  0  0  0  0  0  0  0  0
    1.1904   -0.9237   -0.3217 H   0  0  0  0  0  0  0  0  0  0  0  0
    1.1359    0.8041   -0.6609 H   0  0  0  0  0  0  0  0  0  0  0  0
    1.1435    0.2336    1.0058 H   0  0  0  0  0  0  0  0  0  0  0  0
   -1.1435   -0.2336   -1.0058 H   0  0  0  0  0  0  0  0  0  0  0  0
   -1.1904    0.9237    0.3216 H   0  0  0  0  0  0  0  0  0  0  0  0
   -1.1359   -0.8041    0.6609 H   0  0  0  0  0  0  0  0  0  0  0  0
  1  2  1  0
  1  3  1  0
  1  4  1  0
  1  5  1  0
  2  6  1  0
  2  7  1  0
  2  8  1  0
M  END
>  <reaction>  (3) 
rxn_485

>  <mol_properties>  (3) 
{"1": {"label": "acceptor", "atom_type": "Cs"}, "7": {"label": "a_hydrogen", "atom_type": "H0"}}

>  <type>  (3) 
r2h

$$$$

     RDKit          3D

 26 26  0  0  0  0  0  0  0  0999 V2000
    2.3446   -0.9860    2.2157 C   0  0  0  0  0  0  0  0  0  0  0  0
    1.8060   -1.9356    1.1799 C   0  0  0  0  0  3  0  0  0  0  0  0
    3.3051   -1.3240    2.6182 H   0  0  0  0  0  0  0  0  0  0  0  0
    1.6563   -0.8876    3.0580 H   0  0  0  0  0  0  0  0  0  0  0  0
    2.5003    0.0103    1.7964 H   0  0  0  0  0  0  0  0  0  0  0  0
    1.5446   -2.9243    1.5527 H   0  0  0  0  0  0  0  0  0  0  0  0
    2.3904   -1.9954    0.2630 H   0  0  0  0  0  0  0  0  0  0  0  0
   -0.4941   -0.8456    0.3262 C   0  0  0  0  0  0  0  0  0  0  0  0
   -0.5064   -0.9517   -1.2027 C   0  0  0  0  0  0  0  0  0  0  0  0
   -0.3638    0.5169   -1.6389 C   0  0  0  0  0  0  0  0  0  0  0  0
   -1.6802    1.2458   -1.3235 C   0  0  0  0  0  0  0  0  0  0  0  0
   -1.6761    1.3307    0.2280 C   0  0  0  0  0  0  0  0  0  0  0  0
   -0.3506    0.6409    0.6085 C   0  0  0  0  0  0  0  0  0  0  0  0
    0.5618    1.0737   -0.5481 C   0  0  0  0  0  0  0  0  0  0  0  0
    0.6105   -1.4269    0.7583 H   0  0  0  0  0  0  0  0  0  0  0  0
   -1.2922   -1.3589    0.8610 H   0  0  0  0  0  0  0  0  0  0  0  0
    0.3362   -1.5491   -1.5651 H   0  0  0  0  0  0  0  0  0  0  0  0
   -1.4178   -1.4112   -1.5907 H   0  0  0  0  0  0  0  0  0  0  0  0
   -0.0249    0.6420   -2.6664 H   0  0  0  0  0  0  0  0  0  0  0  0
   -2.5459    0.7084   -1.7134 H   0  0  0  0  0  0  0  0  0  0  0  0
   -1.6858    2.2415   -1.7698 H   0  0  0  0  0  0  0  0  0  0  0  0
   -2.5358    0.8345    0.6803 H   0  0  0  0  0  0  0  0  0  0  0  0
   -1.6808    2.3686    0.5671 H   0  0  0  0  0  0  0  0  0  0  0  0
   -0.0041    0.8760    1.6141 H   0  0  0  0  0  0  0  0  0  0  0  0
    1.5402    0.5898   -0.5255 H   0  0  0  0  0  0  0  0  0  0  0  0
    0.6966    2.1553   -0.6094 H   0  0  0  0  0  0  0  0  0  0  0  0
  1  2  1  0
  1  3  1  0
  1  4  1  0
  1  5  1  0
  2  6  1  0
  2  7  1  0
  8  9  1  0
  8 13  1  0
  8 15  1  0
  8 16  1  0
  9 10  1  0
  9 17  1  0
  9 18  1  0
 10 11  1  0
 10 14  1  0
 10 19  1  0
 11 12  1  0
 11 20  1  0
 11 21  1  0
 12 13  1  0
 12 22  1  0
 12 23  1  0
 13 14  1  0
 13 24  1  0
 14 25  1  0
 14 26  1  0
M  RAD  1   2   2
M  END
>  <reaction>  (4) 
rxn_485

>  <mol_properties>  (4) 
{"0": {"label": "*4", "atom_type": "Cs"}, "1": {"label": "*3", "atom_type": "Cs"}, "7": {"label": "*1", "atom_type": "Cs"}, "8": {"label": "*0", "atom_type": "Cs"}, "14": {"label": "*2", "atom_type": "H0"}}

>  <type>  (4) 
ts

$$$$
