
     RDKit          3D

 15 15  0  0  0  0  0  0  0  0999 V2000
    2.2031   -0.2111   -0.1693 C   0  0  0  0  0  0  0  0  0  0  0  0
    0.7140   -0.0314   -0.0623 C   0  0  0  0  0  0  0  0  0  0  0  0
   -0.0114    0.5491   -1.0982 C   0  0  0  0  0  0  0  0  0  0  0  0
   -1.3882    0.6886   -1.0150 C   0  0  0  0  0  0  0  0  0  0  0  0
   -2.0661    0.2493    0.1118 C   0  0  0  0  0  0  0  0  0  0  0  0
   -1.3551   -0.3278    1.1528 C   0  0  0  0  0  0  0  0  0  0  0  0
    0.0216   -0.4648    1.0642 C   0  0  0  0  0  0  0  0  0  0  0  0
    2.6776   -0.1836    0.8122 H   0  0  0  0  0  0  0  0  0  0  0  0
    2.4446   -1.1749   -0.6249 H   0  0  0  0  0  0  0  0  0  0  0  0
    2.6532    0.5664   -0.7875 H   0  0  0  0  0  0  0  0  0  0  0  0
    0.5104    0.8989   -1.9819 H   0  0  0  0  0  0  0  0  0  0  0  0
   -1.9328    1.1452   -1.8322 H   0  0  0  0  0  0  0  0  0  0  0  0
   -3.1409    0.3597    0.1800 H   0  0  0  0  0  0  0  0  0  0  0  0
   -1.8736   -0.6702    2.0398 H   0  0  0  0  0  0  0  0  0  0  0  0
    0.5695   -0.9141    1.8849 H   0  0  0  0  0  0  0  0  0  0  0  0
  1  2  1  0
  1  8  1  0
  1  9  1  0
  1 10  1  0
  2  3  2  0
  2  7  1  0
  3  4  1  0
  3 11  1  0
  4  5  2  0
  4 12  1  0
  5  6  1  0
  5 13  1  0
  6  7  2  0
  6 14  1  0
  7 15  1  0
M  END
>  <reaction>  (1) 
rxn_1453

>  <mol_properties>  (1) 
{"0": {"label": "donator", "atom_type": "Cs"}, "7": {"label": "d_hydrogen", "atom_type": "H0"}}

>  <type>  (1) 
r1h

$$$$

     RDKit          3D

 11 11  0  0  0  0  0  0  0  0999 V2000
    0.1524   -1.5397    0.0698 C   0  0  0  0  0  3  0  0  0  0  0  0
   -1.1218   -1.0406    0.0516 C   0  0  0  0  0  0  0  0  0  0  0  0
   -1.2464    0.3470   -0.0114 C   0  0  0  0  0  0  0  0  0  0  0  0
   -0.1137    1.1487   -0.0521 C   0  0  0  0  0  0  0  0  0  0  0  0
    1.1542    0.5837   -0.0308 C   0  0  0  0  0  0  0  0  0  0  0  0
    1.3041   -0.8014    0.0319 C   0  0  0  0  0  0  0  0  0  0  0  0
   -1.9955   -1.6793    0.0840 H   0  0  0  0  0  0  0  0  0  0  0  0
   -2.2319    0.7966   -0.0284 H   0  0  0  0  0  0  0  0  0  0  0  0
   -0.2203    2.2248   -0.1009 H   0  0  0  0  0  0  0  0  0  0  0  0
    2.0325    1.2173   -0.0630 H   0  0  0  0  0  0  0  0  0  0  0  0
    2.2862   -1.2570    0.0492 H   0  0  0  0  0  0  0  0  0  0  0  0
  1  2  2  0
  1  6  1  0
  2  3  1  0
  2  7  1  0
  3  4  2  0
  3  8  1  0
  4  5  1  0
  4  9  1  0
  5  6  2  0
  5 10  1  0
  6 11  1  0
M  RAD  1   1   2
M  END
>  <reaction>  (2) 
rxn_1453

>  <mol_properties>  (2) 
{"0": {"label": "acceptor", "atom_type": "Cd"}}

>  <type>  (2) 
r2

$$$$

     RDKit          3D

 12 12  0  0  0  0  0  0  0  0999 V2000
   -1.2385    0.6248   -0.0199 C   0  0  0  0  0  0  0  0  0  0  0  0
   -0.0779    1.3848   -0.0298 C   0  0  0  0  0  0  0  0  0  0  0  0
    1.1605    0.7600   -0.0100 C   0  0  0  0  0  0  0  0  0  0  0  0
    1.2385   -0.6248    0.0199 C   0  0  0  0  0  0  0  0  0  0  0  0
    0.0779   -1.3848    0.0298 C   0  0  0  0  0  0  0  0  0  0  0  0
   -1.1606   -0.7600    0.0100 C   0  0  0  0  0  0  0  0  0  0  0  0
   -2.2052    1.1125   -0.0354 H   0  0  0  0  0  0  0  0  0  0  0  0
   -0.1387    2.4657   -0.0531 H   0  0  0  0  0  0  0  0  0  0  0  0
    2.0664    1.3532   -0.0177 H   0  0  0  0  0  0  0  0  0  0  0  0
    2.2052   -1.1125    0.0354 H   0  0  0  0  0  0  0  0  0  0  0  0
    0.1387   -2.4657    0.0531 H   0  0  0  0  0  0  0  0  0  0  0  0
   -2.0664   -1.3532    0.0177 H   0  0  0  0  0  0  0  0  0  0  0  0
  1  2  2  0
  1  6  1  0
  1  7  1  0
  2  3  1  0
  2  8  1  0
  3  4  2  0
  3  9  1  0
  4  5  1  0
  4 10  1  0
  5  6  2  0
  5 11  1  0
  6 12  1  0
M  END
>  <reaction>  (3) 
rxn_1453

>  <mol_properties>  (3) 
{"0": {"label": "acceptor", "atom_type": "Cd"}, "11": {"label": "a_hydrogen", "atom_type": "H0"}}

>  <type>  (3) 
r2h

$$$$

     RDKit          3D

 26 26  0  0  0  0  0  0  0  0999 V2000
    0.2541   -0.6232    1.6423 C   0  0  0  0  0  3  0  0  0  0  0  0
   -0.8740   -0.9393    0.9221 C   0  0  0  0  0  0  0  0  0  0  0  0
   -1.8037   -1.7936    1.5075 C   0  0  0  0  0  0  0  0  0  0  0  0
   -1.5779   -2.2989    2.7806 C   0  0  0  0  0  0  0  0  0  0  0  0
   -0.4275   -1.9584    3.4791 C   0  0  0  0  0  0  0  0  0  0  0  0
    0.5101   -1.1051    2.9051 C   0  0  0  0  0  0  0  0  0  0  0  0
   -1.0340   -0.5353   -0.0713 H   0  0  0  0  0  0  0  0  0  0  0  0
   -2.7036   -2.0633    0.9680 H   0  0  0  0  0  0  0  0  0  0  0  0
   -2.3039   -2.9632    3.2322 H   0  0  0  0  0  0  0  0  0  0  0  0
   -0.2582   -2.3568    4.4724 H   0  0  0  0  0  0  0  0  0  0  0  0
    1.4110   -0.8334    3.4421 H   0  0  0  0  0  0  0  0  0  0  0  0
    1.8504    1.0472    0.2331 C   0  0  0  0  0  0  0  0  0  0  0  0
    1.0834    1.2159   -1.0183 C   0  0  0  0  0  0  0  0  0  0  0  0
    0.1151    2.2139   -1.1350 C   0  0  0  0  0  0  0  0  0  0  0  0
   -0.6600    2.3244   -2.2774 C   0  0  0  0  0  0  0  0  0  0  0  0
   -0.4846    1.4359   -3.3286 C   0  0  0  0  0  0  0  0  0  0  0  0
    0.4748    0.4387   -3.2272 C   0  0  0  0  0  0  0  0  0  0  0  0
    1.2487    0.3301   -2.0838 C   0  0  0  0  0  0  0  0  0  0  0  0
    1.1922    0.2890    0.9519 H   0  0  0  0  0  0  0  0  0  0  0  0
    2.8063    0.5417    0.1081 H   0  0  0  0  0  0  0  0  0  0  0  0
    1.9544    1.9573    0.8210 H   0  0  0  0  0  0  0  0  0  0  0  0
   -0.0320    2.9077   -0.3153 H   0  0  0  0  0  0  0  0  0  0  0  0
   -1.4045    3.1076   -2.3481 H   0  0  0  0  0  0  0  0  0  0  0  0
   -1.0898    1.5218   -4.2221 H   0  0  0  0  0  0  0  0  0  0  0  0
    0.6208   -0.2580   -4.0432 H   0  0  0  0  0  0  0  0  0  0  0  0
    1.9919   -0.4554   -2.0092 H   0  0  0  0  0  0  0  0  0  0  0  0
  1  2  2  0
  1  6  1  0
  2  3  1  0
  2  7  1  0
  3  4  2  0
  3  8  1  0
  4  5  1  0
  4  9  1  0
  5  6  2  0
  5 10  1  0
  6 11  1  0
 12 13  1  0
 12 19  1  0
 12 20  1  0
 12 21  1  0
 13 14  2  0
 13 18  1  0
 14 15  1  0
 14 22  1  0
 15 16  2  0
 15 23  1  0
 16 17  1  0
 16 24  1  0
 17 18  2  0
 17 25  1  0
 18 26  1  0
M  RAD  1   1   2
M  END
>  <reaction>  (4) 
rxn_1453

>  <mol_properties>  (4) 
{"0": {"label": "*3", "atom_type": "Cd"}, "1": {"label": "*4", "atom_type": "Cd"}, "11": {"label": "*1", "atom_type": "Cs"}, "12": {"label": "*0", "atom_type": "Cd"}, "18": {"label": "*2", "atom_type": "H0"}}

>  <type>  (4) 
ts

$$$$
