
     RDKit          3D

  7  6  0  0  0  0  0  0  0  0999 V2000
    1.6964   -0.0938    0.0583 C   0  0  0  0  0  0  0  0  0  0  0  0
    0.5019   -0.0278    0.0173 C   0  0  0  0  0  0  0  0  0  0  0  0
   -0.9505    0.0525   -0.0327 C   0  0  0  0  0  0  0  0  0  0  0  0
    2.7574   -0.1524    0.0947 H   0  0  0  0  0  0  0  0  0  0  0  0
   -1.2692    0.9972   -0.4754 H   0  0  0  0  0  0  0  0  0  0  0  0
   -1.3749   -0.0147    0.9700 H   0  0  0  0  0  0  0  0  0  0  0  0
   -1.3610   -0.7611   -0.6323 H   0  0  0  0  0  0  0  0  0  0  0  0
  1  2  3  0
  1  4  1  0
  2  3  1  0
  3  5  1  0
  3  6  1  0
  3  7  1  0
M  END
>  <reaction>  (1) 
rxn_1256

>  <mol_properties>  (1) 
{"2": {"label": "donator", "atom_type": "Cs"}, "4": {"label": "d_hydrogen", "atom_type": "H0"}}

>  <type>  (1) 
r1h

$$$$

     RDKit          3D

  5  4  0  0  0  0  0  0  0  0999 V2000
    2.6313   -0.6921   -0.0583 S   0  0  0  0  0  0  0  0  0  0  0  0
    1.1354   -0.3285    0.0802 C   0  0  0  0  0  3  0  0  0  0  0  0
   -0.1320    0.0261    0.1834 C   0  0  0  0  0  0  0  0  0  0  0  0
   -1.3118    0.3358    0.2856 C   0  0  0  0  0  0  0  0  0  0  0  0
   -2.3230    0.6587    0.3557 H   0  0  0  0  0  0  0  0  0  0  0  0
  1  2  2  0
  2  3  1  0
  3  4  3  0
  4  5  1  0
M  RAD  1   2   2
M  END
>  <reaction>  (2) 
rxn_1256

>  <mol_properties>  (2) 
{"1": {"label": "acceptor", "atom_type": "CS"}}

>  <type>  (2) 
r2

$$$$

     RDKit          3D

  6  5  0  0  0  0  0  0  0  0999 V2000
   -1.9761    1.0978   -0.6585 S   0  0  0  0  0  0  0  0  0  0  0  0
   -1.0502    0.0275    0.1158 C   0  0  0  0  0  0  0  0  0  0  0  0
    0.3587   -0.0566   -0.0000 C   0  0  0  0  0  0  0  0  0  0  0  0
    1.5530   -0.1477   -0.0815 C   0  0  0  0  0  0  0  0  0  0  0  0
   -1.4972   -0.7045    0.7881 H   0  0  0  0  0  0  0  0  0  0  0  0
    2.6118   -0.2165   -0.1639 H   0  0  0  0  0  0  0  0  0  0  0  0
  1  2  2  0
  2  3  1  0
  2  5  1  0
  3  4  3  0
  4  6  1  0
M  END
>  <reaction>  (3) 
rxn_1256

>  <mol_properties>  (3) 
{"1": {"label": "acceptor", "atom_type": "CS"}, "5": {"label": "a_hydrogen", "atom_type": "H0"}}

>  <type>  (3) 
r2h

$$$$

     RDKit          3D

 12 10  0  0  0  0  0  0  0  0999 V2000
    0.1675    1.5450   -0.6136 S   0  0  0  0  0  0  0  0  0  0  0  0
    0.0556    0.4846    0.5639 C   0  0  0  0  0  0  0  0  0  0  0  0
    0.0659    0.6319    1.9519 C   0  0  0  0  0  0  0  0  0  0  0  0
    0.0637    0.6515    3.1555 C   0  0  0  0  0  0  0  0  0  0  0  0
    0.0650    0.6999    4.2187 H   0  0  0  0  0  0  0  0  0  0  0  0
   -0.1627   -1.7762   -2.8421 C   0  0  0  0  0  0  0  0  0  0  0  0
   -0.1857   -1.9622   -1.6517 C   0  0  0  0  0  0  0  0  0  0  0  0
   -0.2031   -2.0857   -0.2468 C   0  0  0  0  0  3  0  0  0  0  0  0
   -0.1441   -1.6292   -3.8950 H   0  0  0  0  0  0  0  0  0  0  0  0
   -0.0722   -0.7837    0.2104 H   0  0  0  0  0  0  0  0  0  0  0  0
    0.6603   -2.5738    0.1980 H   0  0  0  0  0  0  0  0  0  0  0  0
   -1.1500   -2.3896    0.1918 H   0  0  0  0  0  0  0  0  0  0  0  0
  1  2  2  0
  2  3  1  0
  2 10  1  0
  3  4  3  0
  4  5  1  0
  6  7  3  0
  6  9  1  0
  7  8  1  0
  8 11  1  0
  8 12  1  0
M  RAD  1   8   2
M  END
>  <reaction>  (4) 
rxn_1256

>  <mol_properties>  (4) 
{"0": {"label": "*0", "atom_type": "S2d"}, "1": {"label": "*1", "atom_type": "CS"}, "6": {"label": "*4", "atom_type": "Ct"}, "7": {"label": "*3", "atom_type": "Cs"}, "9": {"label": "*2", "atom_type": "H0"}}

>  <type>  (4) 
ts

$$$$
