
     RDKit          3D

 10  9  0  0  0  0  0  0  0  0999 V2000
    1.8334    0.0847   -0.1062 C   0  0  0  0  0  0  0  0  0  0  0  0
    0.5993   -0.4071   -0.0750 C   0  0  0  0  0  0  0  0  0  0  0  0
   -0.5993    0.4071    0.0750 C   0  0  0  0  0  0  0  0  0  0  0  0
   -1.8334   -0.0847    0.1062 C   0  0  0  0  0  0  0  0  0  0  0  0
    2.0179    1.1498   -0.0189 H   0  0  0  0  0  0  0  0  0  0  0  0
    2.6972   -0.5572   -0.2194 H   0  0  0  0  0  0  0  0  0  0  0  0
    0.4465   -1.4793   -0.1649 H   0  0  0  0  0  0  0  0  0  0  0  0
   -0.4465    1.4793    0.1649 H   0  0  0  0  0  0  0  0  0  0  0  0
   -2.0179   -1.1498    0.0189 H   0  0  0  0  0  0  0  0  0  0  0  0
   -2.6972    0.5572    0.2194 H   0  0  0  0  0  0  0  0  0  0  0  0
  1  2  2  3
  1  5  1  0
  1  6  1  0
  2  3  1  0
  2  7  1  0
  3  4  2  3
  3  8  1  0
  4  9  1  0
  4 10  1  0
M  END
>  <reaction>  (1) 
rxn_180

>  <mol_properties>  (1) 
{"3": {"label": "donator", "atom_type": "Cd"}, "9": {"label": "d_hydrogen", "atom_type": "H0"}}

>  <type>  (1) 
r1h

$$$$

     RDKit          3D

 11 11  0  0  0  0  0  0  0  0999 V2000
    0.1524   -1.5397    0.0698 C   0  0  0  0  0  3  0  0  0  0  0  0
   -1.1218   -1.0406    0.0516 C   0  0  0  0  0  0  0  0  0  0  0  0
   -1.2464    0.3470   -0.0114 C   0  0  0  0  0  0  0  0  0  0  0  0
   -0.1137    1.1487   -0.0521 C   0  0  0  0  0  0  0  0  0  0  0  0
    1.1542    0.5837   -0.0308 C   0  0  0  0  0  0  0  0  0  0  0  0
    1.3041   -0.8014    0.0319 C   0  0  0  0  0  0  0  0  0  0  0  0
   -1.9955   -1.6793    0.0840 H   0  0  0  0  0  0  0  0  0  0  0  0
   -2.2319    0.7966   -0.0284 H   0  0  0  0  0  0  0  0  0  0  0  0
   -0.2203    2.2248   -0.1009 H   0  0  0  0  0  0  0  0  0  0  0  0
    2.0325    1.2173   -0.0630 H   0  0  0  0  0  0  0  0  0  0  0  0
    2.2862   -1.2570    0.0492 H   0  0  0  0  0  0  0  0  0  0  0  0
  1  2  2  0
  1  6  1  0
  2  3  1  0
  2  7  1  0
  3  4  2  0
  3  8  1  0
  4  5  1  0
  4  9  1  0
  5  6  2  0
  5 10  1  0
  6 11  1  0
M  RAD  1   1   2
M  END
>  <reaction>  (2) 
rxn_180

>  <mol_properties>  (2) 
{"0": {"label": "acceptor", "atom_type": "Cd"}}

>  <type>  (2) 
r2

$$$$

     RDKit          3D

 12 12  0  0  0  0  0  0  0  0999 V2000
   -1.2385    0.6248   -0.0199 C   0  0  0  0  0  0  0  0  0  0  0  0
   -0.0779    1.3848   -0.0298 C   0  0  0  0  0  0  0  0  0  0  0  0
    1.1605    0.7600   -0.0100 C   0  0  0  0  0  0  0  0  0  0  0  0
    1.2385   -0.6248    0.0199 C   0  0  0  0  0  0  0  0  0  0  0  0
    0.0779   -1.3848    0.0298 C   0  0  0  0  0  0  0  0  0  0  0  0
   -1.1606   -0.7600    0.0100 C   0  0  0  0  0  0  0  0  0  0  0  0
   -2.2052    1.1125   -0.0354 H   0  0  0  0  0  0  0  0  0  0  0  0
   -0.1387    2.4657   -0.0531 H   0  0  0  0  0  0  0  0  0  0  0  0
    2.0664    1.3532   -0.0177 H   0  0  0  0  0  0  0  0  0  0  0  0
    2.2052   -1.1125    0.0354 H   0  0  0  0  0  0  0  0  0  0  0  0
    0.1387   -2.4657    0.0531 H   0  0  0  0  0  0  0  0  0  0  0  0
   -2.0664   -1.3532    0.0177 H   0  0  0  0  0  0  0  0  0  0  0  0
  1  2  2  0
  1  6  1  0
  1  7  1  0
  2  3  1  0
  2  8  1  0
  3  4  2  0
  3  9  1  0
  4  5  1  0
  4 10  1  0
  5  6  2  0
  5 11  1  0
  6 12  1  0
M  END
>  <reaction>  (3) 
rxn_180

>  <mol_properties>  (3) 
{"0": {"label": "a_hydrogen", "atom_type": "H0"}, "1": {"label": "acceptor", "atom_type": "Cd"}}

>  <type>  (3) 
r2h

$$$$

     RDKit          3D

 21 20  0  0  0  0  0  0  0  0999 V2000
    0.9380   -2.7353   -3.8696 C   0  0  0  0  0  0  0  0  0  0  0  0
    0.2435   -2.8177   -2.7397 C   0  0  0  0  0  0  0  0  0  0  0  0
    0.1760   -1.7461   -1.7496 C   0  0  0  0  0  0  0  0  0  0  0  0
   -0.5091   -1.8103   -0.6214 C   0  0  0  0  0  0  0  0  0  0  0  0
    1.5043   -1.8449   -4.1194 H   0  0  0  0  0  0  0  0  0  0  0  0
    0.9634   -3.5518   -4.5793 H   0  0  0  0  0  0  0  0  0  0  0  0
   -0.3148   -3.7217   -2.5148 H   0  0  0  0  0  0  0  0  0  0  0  0
    0.7363   -0.8408   -1.9767 H   0  0  0  0  0  0  0  0  0  0  0  0
   -1.1095   -2.6395   -0.2636 H   0  0  0  0  0  0  0  0  0  0  0  0
   -0.4649   -0.7460    0.1630 H   0  0  0  0  0  0  0  0  0  0  0  0
   -0.3482    0.3768    0.8534 C   0  0  0  0  0  3  0  0  0  0  0  0
   -1.2198    1.4101    0.5840 C   0  0  0  0  0  0  0  0  0  0  0  0
   -1.0880    2.5932    1.3022 C   0  0  0  0  0  0  0  0  0  0  0  0
   -0.0949    2.7144    2.2644 C   0  0  0  0  0  0  0  0  0  0  0  0
    0.7714    1.6593    2.5154 C   0  0  0  0  0  0  0  0  0  0  0  0
    0.6473    0.4725    1.8019 C   0  0  0  0  0  0  0  0  0  0  0  0
   -1.9897    1.3034   -0.1707 H   0  0  0  0  0  0  0  0  0  0  0  0
   -1.7605    3.4203    1.1099 H   0  0  0  0  0  0  0  0  0  0  0  0
    0.0049    3.6372    2.8218 H   0  0  0  0  0  0  0  0  0  0  0  0
    1.5452    1.7601    3.2667 H   0  0  0  0  0  0  0  0  0  0  0  0
    1.3188   -0.3572    1.9871 H   0  0  0  0  0  0  0  0  0  0  0  0
  1  2  2  3
  1  5  1  0
  1  6  1  0
  2  3  1  0
  2  7  1  0
  3  4  2  3
  3  8  1  0
  4  9  1  0
  4 10  1  0
 11 12  2  0
 11 16  1  0
 12 13  1  0
 12 17  1  0
 13 14  2  0
 13 18  1  0
 14 15  1  0
 14 19  1  0
 15 16  2  0
 15 20  1  0
 16 21  1  0
M  RAD  1  11   2
M  END
>  <reaction>  (4) 
rxn_180

>  <mol_properties>  (4) 
{"2": {"label": "*0", "atom_type": "Cd"}, "3": {"label": "*1", "atom_type": "Cd"}, "9": {"label": "*2", "atom_type": "H0"}, "10": {"label": "*3", "atom_type": "Cd"}, "11": {"label": "*4", "atom_type": "Cd"}}

>  <type>  (4) 
ts

$$$$
