
     RDKit          3D

 14 13  0  0  0  0  0  0  0  0999 V2000
   -0.7647   -1.2352   -0.0349 C   0  0  0  0  0  0  0  0  0  0  0  0
    0.0570   -0.0126    0.3624 C   0  0  0  0  0  0  0  0  0  0  0  0
    1.4161   -0.0194   -0.3308 C   0  0  0  0  0  0  0  0  0  0  0  0
   -0.7022    1.2765    0.0629 C   0  0  0  0  0  0  0  0  0  0  0  0
   -0.2387   -2.1618    0.2040 H   0  0  0  0  0  0  0  0  0  0  0  0
   -0.9625   -1.2316   -1.1108 H   0  0  0  0  0  0  0  0  0  0  0  0
   -1.7273   -1.2512    0.4806 H   0  0  0  0  0  0  0  0  0  0  0  0
    0.2295   -0.0590    1.4432 H   0  0  0  0  0  0  0  0  0  0  0  0
    1.2933    0.0260   -1.4168 H   0  0  0  0  0  0  0  0  0  0  0  0
    2.0206    0.8381   -0.0279 H   0  0  0  0  0  0  0  0  0  0  0  0
    1.9767   -0.9268   -0.0966 H   0  0  0  0  0  0  0  0  0  0  0  0
   -1.6639    1.3001    0.5798 H   0  0  0  0  0  0  0  0  0  0  0  0
   -0.8977    1.3664   -1.0096 H   0  0  0  0  0  0  0  0  0  0  0  0
   -0.1313    2.1545    0.3722 H   0  0  0  0  0  0  0  0  0  0  0  0
  1  2  1  0
  1  5  1  0
  1  6  1  0
  1  7  1  0
  2  3  1  0
  2  4  1  0
  2  8  1  0
  3  9  1  0
  3 10  1  0
  3 11  1  0
  4 12  1  0
  4 13  1  0
  4 14  1  0
M  END
>  <reaction>  (1) 
rxn_954

>  <mol_properties>  (1) 
{"1": {"label": "donator", "atom_type": "Cs"}, "7": {"label": "d_hydrogen", "atom_type": "H0"}}

>  <type>  (1) 
r1h

$$$$

     RDKit          3D

  7  6  0  0  0  0  0  0  0  0999 V2000
   -0.6201    0.0189   -0.0017 C   0  0  0  0  0  0  0  0  0  0  0  0
    0.8589   -0.0553    0.0500 C   0  0  0  0  0  3  0  0  0  0  0  0
   -1.0738   -0.9730   -0.0559 H   0  0  0  0  0  0  0  0  0  0  0  0
   -0.9680    0.5706   -0.8872 H   0  0  0  0  0  0  0  0  0  0  0  0
   -1.0303    0.5369    0.8678 H   0  0  0  0  0  0  0  0  0  0  0  0
    1.3939   -0.8386   -0.4695 H   0  0  0  0  0  0  0  0  0  0  0  0
    1.4394    0.7404    0.4965 H   0  0  0  0  0  0  0  0  0  0  0  0
  1  2  1  0
  1  3  1  0
  1  4  1  0
  1  5  1  0
  2  6  1  0
  2  7  1  0
M  RAD  1   2   2
M  END
>  <reaction>  (2) 
rxn_954

>  <mol_properties>  (2) 
{"1": {"label": "acceptor", "atom_type": "Cs"}}

>  <type>  (2) 
r2

$$$$

     RDKit          3D

  8  7  0  0  0  0  0  0  0  0999 V2000
    0.7610    0.0250    0.0051 C   0  0  0  0  0  0  0  0  0  0  0  0
   -0.7610   -0.0250   -0.0051 C   0  0  0  0  0  0  0  0  0  0  0  0
    1.1904   -0.9237   -0.3217 H   0  0  0  0  0  0  0  0  0  0  0  0
    1.1359    0.8041   -0.6609 H   0  0  0  0  0  0  0  0  0  0  0  0
    1.1435    0.2336    1.0058 H   0  0  0  0  0  0  0  0  0  0  0  0
   -1.1435   -0.2336   -1.0058 H   0  0  0  0  0  0  0  0  0  0  0  0
   -1.1904    0.9237    0.3216 H   0  0  0  0  0  0  0  0  0  0  0  0
   -1.1359   -0.8041    0.6609 H   0  0  0  0  0  0  0  0  0  0  0  0
  1  2  1  0
  1  3  1  0
  1  4  1  0
  1  5  1  0
  2  6  1  0
  2  7  1  0
  2  8  1  0
M  END
>  <reaction>  (3) 
rxn_954

>  <mol_properties>  (3) 
{"1": {"label": "acceptor", "atom_type": "Cs"}, "7": {"label": "a_hydrogen", "atom_type": "H0"}}

>  <type>  (3) 
r2h

$$$$

     RDKit          3D

 21 19  0  0  0  0  0  0  0  0999 V2000
    2.4688   -0.1777    0.7185 C   0  0  0  0  0  0  0  0  0  0  0  0
    1.2700   -1.0324    1.0265 C   0  0  0  0  0  3  0  0  0  0  0  0
    3.3766   -0.5569    1.1997 H   0  0  0  0  0  0  0  0  0  0  0  0
    2.3233    0.8476    1.0659 H   0  0  0  0  0  0  0  0  0  0  0  0
    2.6630   -0.1408   -0.3555 H   0  0  0  0  0  0  0  0  0  0  0  0
    0.9588   -1.0372    2.0695 H   0  0  0  0  0  0  0  0  0  0  0  0
    1.2941   -2.0359    0.6058 H   0  0  0  0  0  0  0  0  0  0  0  0
   -0.3020    0.2777   -1.6778 C   0  0  0  0  0  0  0  0  0  0  0  0
   -0.7758    0.1661   -0.2478 C   0  0  0  0  0  0  0  0  0  0  0  0
   -0.9168    1.4961    0.4545 C   0  0  0  0  0  0  0  0  0  0  0  0
   -1.9658   -0.7470   -0.0692 C   0  0  0  0  0  0  0  0  0  0  0  0
    0.6084    0.8770   -1.7485 H   0  0  0  0  0  0  0  0  0  0  0  0
   -1.0619    0.7566   -2.3074 H   0  0  0  0  0  0  0  0  0  0  0  0
   -0.0945   -0.7065   -2.1042 H   0  0  0  0  0  0  0  0  0  0  0  0
    0.1950   -0.4386    0.3783 H   0  0  0  0  0  0  0  0  0  0  0  0
   -1.7266    2.0898    0.0134 H   0  0  0  0  0  0  0  0  0  0  0  0
   -1.1467    1.3620    1.5139 H   0  0  0  0  0  0  0  0  0  0  0  0
    0.0005    2.0842    0.3780 H   0  0  0  0  0  0  0  0  0  0  0  0
   -1.7779   -1.7318   -0.5029 H   0  0  0  0  0  0  0  0  0  0  0  0
   -2.8552   -0.3337   -0.5601 H   0  0  0  0  0  0  0  0  0  0  0  0
   -2.2059   -0.8827    0.9877 H   0  0  0  0  0  0  0  0  0  0  0  0
  1  2  1  0
  1  3  1  0
  1  4  1  0
  1  5  1  0
  2  6  1  0
  2  7  1  0
  8  9  1  0
  8 12  1  0
  8 13  1  0
  8 14  1  0
  9 10  1  0
  9 11  1  0
  9 15  1  0
 10 16  1  0
 10 17  1  0
 10 18  1  0
 11 19  1  0
 11 20  1  0
 11 21  1  0
M  RAD  1   2   2
M  END
>  <reaction>  (4) 
rxn_954

>  <mol_properties>  (4) 
{"0": {"label": "*4", "atom_type": "Cs"}, "1": {"label": "*3", "atom_type": "Cs"}, "7": {"label": "*0", "atom_type": "Cs"}, "8": {"label": "*1", "atom_type": "Cs"}, "14": {"label": "*2", "atom_type": "H0"}}

>  <type>  (4) 
ts

$$$$
