
     RDKit          3D

 15 15  0  0  0  0  0  0  0  0999 V2000
    2.2031   -0.2111   -0.1693 C   0  0  0  0  0  0  0  0  0  0  0  0
    0.7140   -0.0314   -0.0623 C   0  0  0  0  0  0  0  0  0  0  0  0
   -0.0114    0.5491   -1.0982 C   0  0  0  0  0  0  0  0  0  0  0  0
   -1.3882    0.6886   -1.0150 C   0  0  0  0  0  0  0  0  0  0  0  0
   -2.0661    0.2493    0.1118 C   0  0  0  0  0  0  0  0  0  0  0  0
   -1.3551   -0.3278    1.1528 C   0  0  0  0  0  0  0  0  0  0  0  0
    0.0216   -0.4648    1.0642 C   0  0  0  0  0  0  0  0  0  0  0  0
    2.6776   -0.1836    0.8122 H   0  0  0  0  0  0  0  0  0  0  0  0
    2.4446   -1.1749   -0.6249 H   0  0  0  0  0  0  0  0  0  0  0  0
    2.6532    0.5664   -0.7875 H   0  0  0  0  0  0  0  0  0  0  0  0
    0.5104    0.8989   -1.9819 H   0  0  0  0  0  0  0  0  0  0  0  0
   -1.9328    1.1452   -1.8322 H   0  0  0  0  0  0  0  0  0  0  0  0
   -3.1409    0.3597    0.1800 H   0  0  0  0  0  0  0  0  0  0  0  0
   -1.8736   -0.6702    2.0398 H   0  0  0  0  0  0  0  0  0  0  0  0
    0.5695   -0.9141    1.8849 H   0  0  0  0  0  0  0  0  0  0  0  0
  1  2  1  0
  1  8  1  0
  1  9  1  0
  1 10  1  0
  2  3  2  0
  2  7  1  0
  3  4  1  0
  3 11  1  0
  4  5  2  0
  4 12  1  0
  5  6  1  0
  5 13  1  0
  6  7  2  0
  6 14  1  0
  7 15  1  0
M  END
>  <reaction>  (1) 
rxn_259

>  <mol_properties>  (1) 
{"4": {"label": "donator", "atom_type": "Cd"}, "11": {"label": "d_hydrogen", "atom_type": "H0"}}

>  <type>  (1) 
r1h

$$$$

     RDKit          3D

  2  1  0  0  0  0  0  0  0  0999 V2000
    0.0000    0.0000    0.4855 O   0  0  0  0  0  1  0  0  0  0  0  0
    0.0000    0.0000   -0.4855 H   0  0  0  0  0  0  0  0  0  0  0  0
  1  2  1  0
M  RAD  1   1   2
M  END
>  <reaction>  (2) 
rxn_259

>  <mol_properties>  (2) 
{"0": {"label": "acceptor", "atom_type": "O2s"}}

>  <type>  (2) 
r2

$$$$

     RDKit          3D

  3  2  0  0  0  0  0  0  0  0999 V2000
   -0.0003    0.3867    0.0000 O   0  0  0  0  0  0  0  0  0  0  0  0
   -0.7617   -0.1940    0.0000 H   0  0  0  0  0  0  0  0  0  0  0  0
    0.7620   -0.1927    0.0000 H   0  0  0  0  0  0  0  0  0  0  0  0
  1  2  1  0
  1  3  1  0
M  END
>  <reaction>  (3) 
rxn_259

>  <mol_properties>  (3) 
{"0": {"label": "acceptor", "atom_type": "O2s"}, "1": {"label": "a_hydrogen", "atom_type": "H0"}}

>  <type>  (3) 
r2h

$$$$

     RDKit          3D

 17 16  0  0  0  0  0  0  0  0999 V2000
    3.1089   -0.0059   -2.0067 O   0  0  0  0  0  1  0  0  0  0  0  0
   -2.4386    0.7010   -0.3416 C   0  0  0  0  0  0  0  0  0  0  0  0
   -1.0784    0.2052    0.0637 C   0  0  0  0  0  0  0  0  0  0  0  0
   -0.0185    0.2199   -0.8430 C   0  0  0  0  0  0  0  0  0  0  0  0
   -0.8475   -0.3013    1.3393 C   0  0  0  0  0  0  0  0  0  0  0  0
    1.2046   -0.2773   -0.4532 C   0  0  0  0  0  0  0  0  0  0  0  0
    1.4520   -0.7767    0.8067 C   0  0  0  0  0  0  0  0  0  0  0  0
    0.3973   -0.7876    1.7107 C   0  0  0  0  0  0  0  0  0  0  0  0
   -3.0134    1.0311    0.5238 H   0  0  0  0  0  0  0  0  0  0  0  0
   -2.3642    1.5342   -1.0411 H   0  0  0  0  0  0  0  0  0  0  0  0
   -3.0063   -0.0924   -0.8339 H   0  0  0  0  0  0  0  0  0  0  0  0
   -0.1582    0.6114   -1.8436 H   0  0  0  0  0  0  0  0  0  0  0  0
    2.1138   -0.2904   -1.2783 H   0  0  0  0  0  0  0  0  0  0  0  0
    2.4301   -1.1502    1.0788 H   0  0  0  0  0  0  0  0  0  0  0  0
    0.5493   -1.1741    2.7108 H   0  0  0  0  0  0  0  0  0  0  0  0
   -1.6586   -0.3124    2.0582 H   0  0  0  0  0  0  0  0  0  0  0  0
    3.3277    0.8657   -1.6506 H   0  0  0  0  0  0  0  0  0  0  0  0
  1 17  1  0
  2  3  1  0
  2  9  1  0
  2 10  1  0
  2 11  1  0
  3  4  2  0
  3  5  1  0
  4  6  1  0
  4 12  1  0
  5  8  2  0
  5 16  1  0
  6  7  2  0
  6 13  1  0
  7  8  1  0
  7 14  1  0
  8 15  1  0
M  RAD  1   1   2
M  END
>  <reaction>  (4) 
rxn_259

>  <mol_properties>  (4) 
{"0": {"label": "*3", "atom_type": "O2s"}, "3": {"label": "*0", "atom_type": "Cd"}, "5": {"label": "*1", "atom_type": "Cd"}, "12": {"label": "*2", "atom_type": "H0"}, "16": {"label": "*4", "atom_type": "H0"}}

>  <type>  (4) 
ts

$$$$
