
     RDKit          3D

 21 21  0  0  0  0  0  0  0  0999 V2000
   -1.3695    1.3367   -1.0719 C   0  0  0  0  0  0  0  0  0  0  0  0
   -1.4091   -0.0981   -0.5428 C   0  0  0  0  0  0  0  0  0  0  0  0
   -0.1819   -0.3999    0.3191 C   0  0  0  0  0  0  0  0  0  0  0  0
   -1.5636   -1.1028   -1.6652 C   0  0  0  0  0  0  0  0  0  0  0  0
   -0.5920   -1.2314   -2.6553 C   0  0  0  0  0  0  0  0  0  0  0  0
   -0.7353   -2.1509   -3.6809 C   0  0  0  0  0  0  0  0  0  0  0  0
   -1.8582   -2.9642   -3.7377 C   0  0  0  0  0  0  0  0  0  0  0  0
   -2.8325   -2.8475   -2.7602 C   0  0  0  0  0  0  0  0  0  0  0  0
   -2.6828   -1.9241   -1.7351 C   0  0  0  0  0  0  0  0  0  0  0  0
   -0.4920    1.4974   -1.7025 H   0  0  0  0  0  0  0  0  0  0  0  0
   -2.2553    1.5607   -1.6679 H   0  0  0  0  0  0  0  0  0  0  0  0
   -1.3211    2.0496   -0.2461 H   0  0  0  0  0  0  0  0  0  0  0  0
   -2.2930   -0.1918    0.0948 H   0  0  0  0  0  0  0  0  0  0  0  0
   -0.1215    0.2955    1.1588 H   0  0  0  0  0  0  0  0  0  0  0  0
   -0.2200   -1.4155    0.7159 H   0  0  0  0  0  0  0  0  0  0  0  0
    0.7383   -0.3016   -0.2615 H   0  0  0  0  0  0  0  0  0  0  0  0
    0.2915   -0.6040   -2.6263 H   0  0  0  0  0  0  0  0  0  0  0  0
    0.0326   -2.2338   -4.4401 H   0  0  0  0  0  0  0  0  0  0  0  0
   -1.9712   -3.6833   -4.5391 H   0  0  0  0  0  0  0  0  0  0  0  0
   -3.7135   -3.4765   -2.7932 H   0  0  0  0  0  0  0  0  0  0  0  0
   -3.4509   -1.8400   -0.9743 H   0  0  0  0  0  0  0  0  0  0  0  0
  1  2  1  0
  1 10  1  0
  1 11  1  0
  1 12  1  0
  2  3  1  0
  2  4  1  0
  2 13  1  0
  3 14  1  0
  3 15  1  0
  3 16  1  0
  4  5  2  0
  4  9  1  0
  5  6  1  0
  5 17  1  0
  6  7  2  0
  6 18  1  0
  7  8  1  0
  7 19  1  0
  8  9  2  0
  8 20  1  0
  9 21  1  0
M  END
>  <reaction>  (1) 
rxn_1525

>  <mol_properties>  (1) 
{"1": {"label": "donator", "atom_type": "Cs"}, "12": {"label": "d_hydrogen", "atom_type": "H0"}}

>  <type>  (1) 
r1h

$$$$

     RDKit          3D

 13 12  0  0  0  0  0  0  0  0999 V2000
   -1.3649   -0.5967   -0.3477 C   0  0  0  0  0  0  0  0  0  0  0  0
   -0.1601   -0.2776    0.4669 C   0  0  0  0  0  3  0  0  0  0  0  0
    1.1241   -0.9571    0.1414 C   0  0  0  0  0  0  0  0  0  0  0  0
   -0.1188    1.0130    1.2082 C   0  0  0  0  0  0  0  0  0  0  0  0
   -1.4265   -1.6632   -0.5770 H   0  0  0  0  0  0  0  0  0  0  0  0
   -2.2859   -0.3004    0.1602 H   0  0  0  0  0  0  0  0  0  0  0  0
   -1.3532   -0.0668   -1.3139 H   0  0  0  0  0  0  0  0  0  0  0  0
    1.6174   -0.4963   -0.7297 H   0  0  0  0  0  0  0  0  0  0  0  0
    0.9723   -2.0104   -0.1064 H   0  0  0  0  0  0  0  0  0  0  0  0
    1.8338   -0.8977    0.9701 H   0  0  0  0  0  0  0  0  0  0  0  0
   -1.0851    1.2507    1.6593 H   0  0  0  0  0  0  0  0  0  0  0  0
    0.6358    1.0009    1.9983 H   0  0  0  0  0  0  0  0  0  0  0  0
    0.1343    1.8546    0.5434 H   0  0  0  0  0  0  0  0  0  0  0  0
  1  2  1  0
  1  5  1  0
  1  6  1  0
  1  7  1  0
  2  3  1  0
  2  4  1  0
  3  8  1  0
  3  9  1  0
  3 10  1  0
  4 11  1  0
  4 12  1  0
  4 13  1  0
M  RAD  1   2   2
M  END
>  <reaction>  (2) 
rxn_1525

>  <mol_properties>  (2) 
{"1": {"label": "acceptor", "atom_type": "Cs"}}

>  <type>  (2) 
r2

$$$$

     RDKit          3D

 14 13  0  0  0  0  0  0  0  0999 V2000
   -0.7647   -1.2352   -0.0349 C   0  0  0  0  0  0  0  0  0  0  0  0
    0.0570   -0.0126    0.3624 C   0  0  0  0  0  0  0  0  0  0  0  0
    1.4161   -0.0194   -0.3307 C   0  0  0  0  0  0  0  0  0  0  0  0
   -0.7022    1.2765    0.0630 C   0  0  0  0  0  0  0  0  0  0  0  0
   -0.2387   -2.1619    0.2040 H   0  0  0  0  0  0  0  0  0  0  0  0
   -0.9624   -1.2316   -1.1108 H   0  0  0  0  0  0  0  0  0  0  0  0
   -1.7274   -1.2511    0.4805 H   0  0  0  0  0  0  0  0  0  0  0  0
    0.2295   -0.0590    1.4432 H   0  0  0  0  0  0  0  0  0  0  0  0
    1.2933    0.0260   -1.4168 H   0  0  0  0  0  0  0  0  0  0  0  0
    2.0206    0.8381   -0.0278 H   0  0  0  0  0  0  0  0  0  0  0  0
    1.9767   -0.9268   -0.0966 H   0  0  0  0  0  0  0  0  0  0  0  0
   -1.6638    1.3002    0.5801 H   0  0  0  0  0  0  0  0  0  0  0  0
   -0.8979    1.3663   -1.0096 H   0  0  0  0  0  0  0  0  0  0  0  0
   -0.1312    2.1545    0.3720 H   0  0  0  0  0  0  0  0  0  0  0  0
  1  2  1  0
  1  5  1  0
  1  6  1  0
  1  7  1  0
  2  3  1  0
  2  4  1  0
  2  8  1  0
  3  9  1  0
  3 10  1  0
  3 11  1  0
  4 12  1  0
  4 13  1  0
  4 14  1  0
M  END
>  <reaction>  (3) 
rxn_1525

>  <mol_properties>  (3) 
{"0": {"label": "a_hydrogen", "atom_type": "H0"}, "2": {"label": "acceptor", "atom_type": "Cs"}}

>  <type>  (3) 
r2h

$$$$

     RDKit          3D

 34 33  0  0  0  0  0  0  0  0999 V2000
   -0.3210    1.5438   -1.8964 C   0  0  0  0  0  0  0  0  0  0  0  0
   -0.0885    1.2096   -0.4387 C   0  0  0  0  0  0  0  0  0  0  0  0
   -0.1571    2.4359    0.4508 C   0  0  0  0  0  0  0  0  0  0  0  0
    1.0106    0.2509   -0.1476 C   0  0  0  0  0  0  0  0  0  0  0  0
    1.7086   -0.4094   -1.1626 C   0  0  0  0  0  0  0  0  0  0  0  0
    2.6817   -1.3538   -0.8745 C   0  0  0  0  0  0  0  0  0  0  0  0
    2.9857   -1.6723    0.4388 C   0  0  0  0  0  0  0  0  0  0  0  0
    2.3052   -1.0278    1.4622 C   0  0  0  0  0  0  0  0  0  0  0  0
    1.3373   -0.0831    1.1728 C   0  0  0  0  0  0  0  0  0  0  0  0
    0.5392    2.0602   -2.3363 H   0  0  0  0  0  0  0  0  0  0  0  0
   -0.5171    0.6520   -2.4946 H   0  0  0  0  0  0  0  0  0  0  0  0
   -1.1859    2.2016   -1.9953 H   0  0  0  0  0  0  0  0  0  0  0  0
   -1.1587    0.5401   -0.1161 H   0  0  0  0  0  0  0  0  0  0  0  0
   -1.0832    2.9846    0.2663 H   0  0  0  0  0  0  0  0  0  0  0  0
   -0.1298    2.1889    1.5115 H   0  0  0  0  0  0  0  0  0  0  0  0
    0.6785    3.1139    0.2473 H   0  0  0  0  0  0  0  0  0  0  0  0
    1.4979   -0.1823   -2.1988 H   0  0  0  0  0  0  0  0  0  0  0  0
    3.2063   -1.8429   -1.6862 H   0  0  0  0  0  0  0  0  0  0  0  0
    3.7441   -2.4111    0.6638 H   0  0  0  0  0  0  0  0  0  0  0  0
    2.5295   -1.2638    2.4952 H   0  0  0  0  0  0  0  0  0  0  0  0
    0.8173    0.3957    1.9923 H   0  0  0  0  0  0  0  0  0  0  0  0
   -3.4194    0.5423   -0.5005 C   0  0  0  0  0  0  0  0  0  0  0  0
   -2.3029   -0.1973    0.1885 C   0  0  0  0  0  3  0  0  0  0  0  0
   -2.3629   -0.1646    1.6930 C   0  0  0  0  0  0  0  0  0  0  0  0
   -1.9757   -1.5455   -0.3968 C   0  0  0  0  0  0  0  0  0  0  0  0
   -3.5076    1.5663   -0.1297 H   0  0  0  0  0  0  0  0  0  0  0  0
   -3.2638    0.5831   -1.5806 H   0  0  0  0  0  0  0  0  0  0  0  0
   -4.3839    0.0476   -0.3262 H   0  0  0  0  0  0  0  0  0  0  0  0
   -3.2333   -0.7232    2.0618 H   0  0  0  0  0  0  0  0  0  0  0  0
   -2.4496    0.8580    2.0675 H   0  0  0  0  0  0  0  0  0  0  0  0
   -1.4731   -0.6184    2.1338 H   0  0  0  0  0  0  0  0  0  0  0  0
   -1.8334   -1.4854   -1.4782 H   0  0  0  0  0  0  0  0  0  0  0  0
   -1.0626   -1.9547    0.0407 H   0  0  0  0  0  0  0  0  0  0  0  0
   -2.7860   -2.2623   -0.2104 H   0  0  0  0  0  0  0  0  0  0  0  0
  1  2  1  0
  1 10  1  0
  1 11  1  0
  1 12  1  0
  2  3  1  0
  2  4  1  0
  2 13  1  0
  3 14  1  0
  3 15  1  0
  3 16  1  0
  4  5  2  0
  4  9  1  0
  5  6  1  0
  5 17  1  0
  6  7  2  0
  6 18  1  0
  7  8  1  0
  7 19  1  0
  8  9  2  0
  8 20  1  0
  9 21  1  0
 22 23  1  0
 22 26  1  0
 22 27  1  0
 22 28  1  0
 23 24  1  0
 23 25  1  0
 24 29  1  0
 24 30  1  0
 24 31  1  0
 25 32  1  0
 25 33  1  0
 25 34  1  0
M  RAD  1  23   2
M  END
>  <reaction>  (4) 
rxn_1525

>  <mol_properties>  (4) 
{"1": {"label": "*1", "atom_type": "Cs"}, "3": {"label": "*0", "atom_type": "Cd"}, "12": {"label": "*2", "atom_type": "H0"}, "21": {"label": "*4", "atom_type": "Cs"}, "22": {"label": "*3", "atom_type": "Cs"}}

>  <type>  (4) 
ts

$$$$
