
     RDKit          3D

 13 12  0  0  0  0  0  0  0  0999 V2000
    2.2975   -0.6134    0.7685 C   0  0  0  0  0  0  0  0  0  0  0  0
    1.1676   -0.5248    0.3802 C   0  0  0  0  0  0  0  0  0  0  0  0
   -0.2109   -0.3926   -0.0948 C   0  0  0  0  0  0  0  0  0  0  0  0
   -0.2501    0.2584   -1.4808 C   0  0  0  0  0  0  0  0  0  0  0  0
   -1.0633    0.3831    0.9141 C   0  0  0  0  0  0  0  0  0  0  0  0
    3.2999   -0.6974    1.1133 H   0  0  0  0  0  0  0  0  0  0  0  0
   -0.6209   -1.4038   -0.1814 H   0  0  0  0  0  0  0  0  0  0  0  0
    0.3402   -0.3102   -2.1992 H   0  0  0  0  0  0  0  0  0  0  0  0
    0.1511    1.2724   -1.4369 H   0  0  0  0  0  0  0  0  0  0  0  0
   -1.2791    0.3109   -1.8407 H   0  0  0  0  0  0  0  0  0  0  0  0
   -0.6861    1.4008    1.0287 H   0  0  0  0  0  0  0  0  0  0  0  0
   -1.0492   -0.0971    1.8924 H   0  0  0  0  0  0  0  0  0  0  0  0
   -2.0971    0.4363    0.5680 H   0  0  0  0  0  0  0  0  0  0  0  0
  1  2  3  0
  1  6  1  0
  2  3  1  0
  3  4  1  0
  3  5  1  0
  3  7  1  0
  4  8  1  0
  4  9  1  0
  4 10  1  0
  5 11  1  0
  5 12  1  0
  5 13  1  0
M  END
>  <reaction>  (1) 
rxn_1330

>  <mol_properties>  (1) 
{"2": {"label": "donator", "atom_type": "Cs"}, "6": {"label": "d_hydrogen", "atom_type": "H0"}}

>  <type>  (1) 
r1h

$$$$

     RDKit          3D

  7  6  0  0  0  0  0  0  0  0999 V2000
   -1.3496    0.0255    0.0758 C   0  0  0  0  0  0  0  0  0  0  0  0
   -0.0636   -0.0704   -0.0033 C   0  0  0  0  0  0  0  0  0  0  0  0
    1.2597   -0.1602   -0.0839 C   0  0  0  0  0  0  0  0  0  0  0  0
    2.2616    1.2090   -0.0064 S   0  0  0  0  0  1  0  0  0  0  0  0
   -1.8547   -0.0180    1.0345 H   0  0  0  0  0  0  0  0  0  0  0  0
   -1.9552    0.1601   -0.8138 H   0  0  0  0  0  0  0  0  0  0  0  0
    1.7017   -1.1460   -0.2029 H   0  0  0  0  0  0  0  0  0  0  0  0
  1  2  2  0
  1  5  1  0
  1  6  1  0
  2  3  2  0
  3  4  1  0
  3  7  1  0
M  RAD  1   4   2
M  END
>  <reaction>  (2) 
rxn_1330

>  <mol_properties>  (2) 
{"1": {"label": "acceptor", "atom_type": "Cd"}}

>  <type>  (2) 
r2

$$$$

     RDKit          3D

  8  7  0  0  0  0  0  0  0  0999 V2000
   -1.1617    0.0338    0.5053 C   0  0  0  0  0  0  0  0  0  0  0  0
   -0.1023    0.4503   -0.1863 C   0  0  0  0  0  0  0  0  0  0  0  0
    1.0978   -0.3557   -0.3104 C   0  0  0  0  0  0  0  0  0  0  0  0
    2.4251    0.0667   -1.1256 S   0  0  0  0  0  0  0  0  0  0  0  0
   -1.1653   -0.9292    1.0039 H   0  0  0  0  0  0  0  0  0  0  0  0
   -2.0546    0.6389    0.5948 H   0  0  0  0  0  0  0  0  0  0  0  0
   -0.0991    1.4132   -0.6847 H   0  0  0  0  0  0  0  0  0  0  0  0
    1.0601   -1.3180    0.2032 H   0  0  0  0  0  0  0  0  0  0  0  0
  1  2  2  3
  1  5  1  0
  1  6  1  0
  2  3  1  0
  2  7  1  0
  3  4  2  0
  3  8  1  0
M  END
>  <reaction>  (3) 
rxn_1330

>  <mol_properties>  (3) 
{"0": {"label": "a_hydrogen", "atom_type": "H0"}, "2": {"label": "acceptor", "atom_type": "Cd"}}

>  <type>  (3) 
r2h

$$$$

     RDKit          3D

 20 18  0  0  0  0  0  0  0  0999 V2000
   -0.2671    0.7993   -3.4485 C   0  0  0  0  0  0  0  0  0  0  0  0
   -0.1751    0.9480   -2.2588 C   0  0  0  0  0  0  0  0  0  0  0  0
   -0.0593    1.0830   -0.8416 C   0  0  0  0  0  3  0  0  0  0  0  0
   -1.2691    1.6492   -0.1327 C   0  0  0  0  0  0  0  0  0  0  0  0
    1.2809    1.5778   -0.3421 C   0  0  0  0  0  0  0  0  0  0  0  0
   -0.3512    0.6797   -4.5020 H   0  0  0  0  0  0  0  0  0  0  0  0
   -0.0858   -0.1735   -0.4023 H   0  0  0  0  0  0  0  0  0  0  0  0
   -2.1903    1.1955   -0.4969 H   0  0  0  0  0  0  0  0  0  0  0  0
   -1.3312    2.7286   -0.2952 H   0  0  0  0  0  0  0  0  0  0  0  0
   -1.1877    1.4739    0.9419 H   0  0  0  0  0  0  0  0  0  0  0  0
    1.3880    2.6459   -0.5519 H   0  0  0  0  0  0  0  0  0  0  0  0
    2.1002    1.0492   -0.8274 H   0  0  0  0  0  0  0  0  0  0  0  0
    1.3591    1.4258    0.7351 H   0  0  0  0  0  0  0  0  0  0  0  0
    0.5460   -2.1827   -0.8550 C   0  0  0  0  0  0  0  0  0  0  0  0
    0.0347   -1.4065    0.0713 C   0  0  0  0  0  0  0  0  0  0  0  0
   -0.3952   -1.4595    1.4168 C   0  0  0  0  0  0  0  0  0  0  0  0
    0.4992   -0.9868    2.7039 S   0  0  0  0  0  0  0  0  0  0  0  0
    0.7821   -3.2227   -0.6556 H   0  0  0  0  0  0  0  0  0  0  0  0
    0.7549   -1.7989   -1.8475 H   0  0  0  0  0  0  0  0  0  0  0  0
   -1.4328   -1.7616    1.5678 H   0  0  0  0  0  0  0  0  0  0  0  0
  1  2  3  0
  1  6  1  0
  2  3  1  0
  3  4  1  0
  3  5  1  0
  4  8  1  0
  4  9  1  0
  4 10  1  0
  5 11  1  0
  5 12  1  0
  5 13  1  0
  7 15  1  0
 14 15  2  3
 14 18  1  0
 14 19  1  0
 15 16  1  0
 16 17  2  0
 16 20  1  0
M  RAD  1   3   2
M  END
>  <reaction>  (4) 
rxn_1330

>  <mol_properties>  (4) 
{"1": {"label": "*4", "atom_type": "Ct"}, "2": {"label": "*3", "atom_type": "Cs"}, "6": {"label": "*2", "atom_type": "H0"}, "14": {"label": "*1", "atom_type": "Cd"}, "15": {"label": "*0", "atom_type": "CS"}}

>  <type>  (4) 
ts

$$$$
