
     RDKit          3D

  4  3  0  0  0  0  0  0  0  0999 V2000
   -0.0057    0.0001   -0.0008 C   0  0  0  0  0  0  0  0  0  0  0  0
    1.1789   -0.0174    0.1563 O   0  0  0  0  0  0  0  0  0  0  0  0
   -0.5891    0.9399    0.0445 H   0  0  0  0  0  0  0  0  0  0  0  0
   -0.5841   -0.9226   -0.2001 H   0  0  0  0  0  0  0  0  0  0  0  0
  1  2  2  0
  1  3  1  0
  1  4  1  0
M  END
>  <reaction>  (1) 
rxn_3126

>  <mol_properties>  (1) 
{"0": {"label": "donator", "atom_type": "CO"}, "2": {"label": "d_hydrogen", "atom_type": "H0"}}

>  <type>  (1) 
r1h

$$$$

     RDKit          3D

  6  6  0  0  0  0  0  0  0  0999 V2000
    1.9594    0.0134   -0.3734 N   0  0  0  0  0  2  0  0  0  0  0  0
    0.7437    0.0051   -0.0788 C   0  0  0  0  0  0  0  0  0  0  0  0
   -0.0745    1.0868    0.0233 O   0  0  0  0  0  0  0  0  0  0  0  0
   -1.3223    0.5972    0.3682 N   0  0  0  0  0  0  0  0  0  0  0  0
   -1.2899   -0.6150    0.4676 N   0  0  0  0  0  0  0  0  0  0  0  0
   -0.0165   -1.0874    0.2015 O   0  0  0  0  0  0  0  0  0  0  0  0
  1  2  2  0
  2  3  1  0
  2  6  1  0
  3  4  1  0
  4  5  2  0
  5  6  1  0
M  RAD  1   1   2
M  END
>  <reaction>  (2) 
rxn_3126

>  <mol_properties>  (2) 
{"0": {"label": "acceptor", "atom_type": "N3d"}}

>  <type>  (2) 
r2

$$$$

     RDKit          3D

  7  7  0  0  0  0  0  0  0  0999 V2000
    1.6064   -0.4313    0.1905 N   0  0  0  0  0  0  0  0  0  0  0  0
    0.3982   -0.1725    0.0701 C   0  0  0  0  0  0  0  0  0  0  0  0
   -0.6051   -1.0481    0.3497 O   0  0  0  0  0  0  0  0  0  0  0  0
   -1.7906   -0.4044    0.0958 N   0  0  0  0  0  0  0  0  0  0  0  0
   -1.5819    0.7348   -0.2956 N   0  0  0  0  0  0  0  0  0  0  0  0
   -0.2229    0.9708   -0.3436 O   0  0  0  0  0  0  0  0  0  0  0  0
    2.1958    0.3506   -0.0669 H   0  0  0  0  0  0  0  0  0  0  0  0
  1  2  2  3
  1  7  1  0
  2  3  1  0
  2  6  1  0
  3  4  1  0
  4  5  2  0
  5  6  1  0
M  END
>  <reaction>  (3) 
rxn_3126

>  <mol_properties>  (3) 
{"0": {"label": "acceptor", "atom_type": "N3d"}, "6": {"label": "a_hydrogen", "atom_type": "H0"}}

>  <type>  (3) 
r2h

$$$$

     RDKit          3D

 10  9  0  0  0  0  0  0  0  0999 V2000
    1.4502   -0.0488    0.2304 N   0  0  0  0  0  2  0  0  0  0  0  0
    0.3263    0.3507    0.5966 C   0  0  0  0  0  0  0  0  0  0  0  0
    0.1004    1.2244    1.6233 O   0  0  0  0  0  0  0  0  0  0  0  0
   -1.2625    1.4052    1.7026 N   0  0  0  0  0  0  0  0  0  0  0  0
   -1.8303    0.7433    0.8498 N   0  0  0  0  0  0  0  0  0  0  0  0
   -0.9079    0.0416    0.1002 O   0  0  0  0  0  0  0  0  0  0  0  0
    1.1051   -1.7342   -1.8294 C   0  0  0  0  0  0  0  0  0  0  0  0
    0.0646   -2.0372   -2.2969 O   0  0  0  0  0  0  0  0  0  0  0  0
    1.2258   -0.9676   -0.8961 H   0  0  0  0  0  0  0  0  0  0  0  0
    2.0836   -2.1163   -2.1913 H   0  0  0  0  0  0  0  0  0  0  0  0
  1  2  2  0
  2  3  1  0
  2  6  1  0
  3  4  1  0
  4  5  2  0
  5  6  1  0
  7  8  2  0
  7  9  1  0
  7 10  1  0
M  RAD  1   1   2
M  END
>  <reaction>  (4) 
rxn_3126

>  <mol_properties>  (4) 
{"0": {"label": "*3", "atom_type": "N3d"}, "1": {"label": "*4", "atom_type": "Cd"}, "6": {"label": "*1", "atom_type": "CO"}, "7": {"label": "*0", "atom_type": "O2d"}, "8": {"label": "*2", "atom_type": "H0"}}

>  <type>  (4) 
ts

$$$$
