
     RDKit          3D

 25 26  0  0  0  0  0  0  0  0999 V2000
    2.0298   -1.1515    0.0571 C   0  0  0  0  0  0  0  0  0  0  0  0
    2.2278    0.2445    0.6528 C   0  0  0  0  0  0  0  0  0  0  0  0
    1.2292    1.2625    0.0947 C   0  0  0  0  0  0  0  0  0  0  0  0
   -0.1869    0.7454    0.2762 C   0  0  0  0  0  0  0  0  0  0  0  0
   -1.3415    1.5501   -0.3122 C   0  0  0  0  0  0  0  0  0  0  0  0
   -2.5060    0.5338   -0.4178 C   0  0  0  0  0  0  0  0  0  0  0  0
   -1.8709   -0.8658   -0.2234 C   0  0  0  0  0  0  0  0  0  0  0  0
   -0.3715   -0.6265   -0.3693 C   0  0  0  0  0  0  0  0  0  0  0  0
    0.5898   -1.6500    0.2086 C   0  0  0  0  0  0  0  0  0  0  0  0
    2.2820   -1.1226   -1.0088 H   0  0  0  0  0  0  0  0  0  0  0  0
    2.7243   -1.8549    0.5221 H   0  0  0  0  0  0  0  0  0  0  0  0
    2.1030    0.1885    1.7400 H   0  0  0  0  0  0  0  0  0  0  0  0
    3.2514    0.5819    0.4743 H   0  0  0  0  0  0  0  0  0  0  0  0
    1.3611    2.2304    0.5855 H   0  0  0  0  0  0  0  0  0  0  0  0
    1.4198    1.4194   -0.9737 H   0  0  0  0  0  0  0  0  0  0  0  0
   -0.3675    0.6209    1.3539 H   0  0  0  0  0  0  0  0  0  0  0  0
   -1.5992    2.4249    0.2862 H   0  0  0  0  0  0  0  0  0  0  0  0
   -1.0595    1.9116   -1.3055 H   0  0  0  0  0  0  0  0  0  0  0  0
   -3.2666    0.7244    0.3399 H   0  0  0  0  0  0  0  0  0  0  0  0
   -3.0030    0.6112   -1.3853 H   0  0  0  0  0  0  0  0  0  0  0  0
   -2.2549   -1.6039   -0.9288 H   0  0  0  0  0  0  0  0  0  0  0  0
   -2.0796   -1.2429    0.7821 H   0  0  0  0  0  0  0  0  0  0  0  0
   -0.1432   -0.5121   -1.4391 H   0  0  0  0  0  0  0  0  0  0  0  0
    0.4720   -2.6209   -0.2799 H   0  0  0  0  0  0  0  0  0  0  0  0
    0.3601   -1.7986    1.2704 H   0  0  0  0  0  0  0  0  0  0  0  0
  1  2  1  0
  1  9  1  0
  1 10  1  0
  1 11  1  0
  2  3  1  0
  2 12  1  0
  2 13  1  0
  3  4  1  0
  3 14  1  0
  3 15  1  0
  4  5  1  0
  4  8  1  0
  4 16  1  0
  5  6  1  0
  5 17  1  0
  5 18  1  0
  6  7  1  0
  6 19  1  0
  6 20  1  0
  7  8  1  0
  7 21  1  0
  7 22  1  0
  8  9  1  0
  8 23  1  0
  9 24  1  0
  9 25  1  0
M  END
>  <reaction>  (1) 
rxn_613

>  <mol_properties>  (1) 
{"6": {"label": "donator", "atom_type": "Cs"}, "12": {"label": "d_hydrogen", "atom_type": "H0"}}

>  <type>  (1) 
r1h

$$$$

     RDKit          3D

 14 14  0  0  0  0  0  0  0  0999 V2000
    2.3111    0.1295    0.0255 C   0  0  0  0  0  0  0  0  0  0  0  0
    0.9132    0.0511    0.0101 C   0  0  0  0  0  0  0  0  0  0  0  0
    0.2446   -1.1981    0.0389 C   0  0  0  0  0  3  0  0  0  0  0  0
   -1.1306   -1.2689    0.0235 C   0  0  0  0  0  0  0  0  0  0  0  0
   -1.8967   -0.1062   -0.0209 C   0  0  0  0  0  0  0  0  0  0  0  0
   -1.2644    1.1347   -0.0499 C   0  0  0  0  0  0  0  0  0  0  0  0
    0.1101    1.2180   -0.0350 C   0  0  0  0  0  0  0  0  0  0  0  0
    2.9188   -0.7647    0.0599 H   0  0  0  0  0  0  0  0  0  0  0  0
    2.8158    1.0859    0.0034 H   0  0  0  0  0  0  0  0  0  0  0  0
    0.8353   -2.1058    0.0735 H   0  0  0  0  0  0  0  0  0  0  0  0
   -1.6191   -2.2351    0.0461 H   0  0  0  0  0  0  0  0  0  0  0  0
   -2.9772   -0.1668   -0.0328 H   0  0  0  0  0  0  0  0  0  0  0  0
   -1.8572    2.0404   -0.0845 H   0  0  0  0  0  0  0  0  0  0  0  0
    0.5964    2.1860   -0.0577 H   0  0  0  0  0  0  0  0  0  0  0  0
  1  2  2  3
  1  8  1  0
  1  9  1  0
  2  3  1  0
  2  7  1  0
  3  4  1  0
  3 10  1  0
  4  5  2  0
  4 11  1  0
  5  6  1  0
  5 12  1  0
  6  7  2  0
  6 13  1  0
  7 14  1  0
M  RAD  1   3   2
M  END
>  <reaction>  (2) 
rxn_613

>  <mol_properties>  (2) 
{"6": {"label": "acceptor", "atom_type": "Cs"}}

>  <type>  (2) 
r2

$$$$

     RDKit          3D

 15 15  0  0  0  0  0  0  0  0999 V2000
    2.2031   -0.2111   -0.1693 C   0  0  0  0  0  0  0  0  0  0  0  0
    0.7140   -0.0314   -0.0623 C   0  0  0  0  0  0  0  0  0  0  0  0
   -0.0114    0.5491   -1.0982 C   0  0  0  0  0  0  0  0  0  0  0  0
   -1.3882    0.6886   -1.0150 C   0  0  0  0  0  0  0  0  0  0  0  0
   -2.0661    0.2493    0.1118 C   0  0  0  0  0  0  0  0  0  0  0  0
   -1.3551   -0.3278    1.1528 C   0  0  0  0  0  0  0  0  0  0  0  0
    0.0216   -0.4648    1.0642 C   0  0  0  0  0  0  0  0  0  0  0  0
    2.6776   -0.1836    0.8122 H   0  0  0  0  0  0  0  0  0  0  0  0
    2.4446   -1.1749   -0.6249 H   0  0  0  0  0  0  0  0  0  0  0  0
    2.6532    0.5664   -0.7875 H   0  0  0  0  0  0  0  0  0  0  0  0
    0.5104    0.8989   -1.9819 H   0  0  0  0  0  0  0  0  0  0  0  0
   -1.9328    1.1452   -1.8322 H   0  0  0  0  0  0  0  0  0  0  0  0
   -3.1409    0.3597    0.1800 H   0  0  0  0  0  0  0  0  0  0  0  0
   -1.8736   -0.6702    2.0398 H   0  0  0  0  0  0  0  0  0  0  0  0
    0.5695   -0.9141    1.8849 H   0  0  0  0  0  0  0  0  0  0  0  0
  1  2  1  0
  1  8  1  0
  1  9  1  0
  1 10  1  0
  2  3  2  0
  2  7  1  0
  3  4  1  0
  3 11  1  0
  4  5  2  0
  4 12  1  0
  5  6  1  0
  5 13  1  0
  6  7  2  0
  6 14  1  0
  7 15  1  0
M  END
>  <reaction>  (3) 
rxn_613

>  <mol_properties>  (3) 
{"6": {"label": "acceptor", "atom_type": "Cs"}, "7": {"label": "a_hydrogen", "atom_type": "H0"}}

>  <type>  (3) 
r2h

$$$$

     RDKit          3D

 39 40  0  0  0  0  0  0  0  0999 V2000
    0.7774    0.8942    0.1014 C   0  0  0  0  0  0  0  0  0  0  0  0
    1.6672   -0.0596    0.8974 C   0  0  0  0  0  0  0  0  0  0  0  0
    0.1998    1.8016    1.1824 C   0  0  0  0  0  0  0  0  0  0  0  0
    0.8203   -0.3929    2.1303 C   0  0  0  0  0  0  0  0  0  0  0  0
    1.5233    1.5052   -1.0691 C   0  0  0  0  0  0  0  0  0  0  0  0
    2.1549   -1.2017    0.0231 C   0  0  0  0  0  0  0  0  0  0  0  0
   -0.0491    0.8437    2.3371 C   0  0  0  0  0  3  0  0  0  0  0  0
    2.0464    0.3816   -1.9689 C   0  0  0  0  0  0  0  0  0  0  0  0
    2.8889   -0.6382   -1.1976 C   0  0  0  0  0  0  0  0  0  0  0  0
   -2.4762   -0.4050    0.4378 C   0  0  0  0  0  0  0  0  0  0  0  0
   -2.7635    0.5454   -0.5470 C   0  0  0  0  0  0  0  0  0  0  0  0
   -2.0074   -1.6551    0.0213 C   0  0  0  0  0  0  0  0  0  0  0  0
   -2.5619    0.2689   -1.8877 C   0  0  0  0  0  0  0  0  0  0  0  0
   -2.0729   -0.9693   -2.2818 C   0  0  0  0  0  0  0  0  0  0  0  0
   -1.8062   -1.9332   -1.3193 C   0  0  0  0  0  0  0  0  0  0  0  0
   -2.5381   -0.0588    1.8591 C   0  0  0  0  0  0  0  0  0  0  0  0
   -0.0459    0.2993   -0.3092 H   0  0  0  0  0  0  0  0  0  0  0  0
    2.5431    0.5144    1.2316 H   0  0  0  0  0  0  0  0  0  0  0  0
   -0.0823    1.2710    3.3366 H   0  0  0  0  0  0  0  0  0  0  0  0
   -1.3375    0.4135    2.1653 H   0  0  0  0  0  0  0  0  0  0  0  0
    0.9327    2.5673    1.4665 H   0  0  0  0  0  0  0  0  0  0  0  0
   -0.7051    2.3264    0.8643 H   0  0  0  0  0  0  0  0  0  0  0  0
    1.4244   -0.6338    3.0070 H   0  0  0  0  0  0  0  0  0  0  0  0
    0.1988   -1.2728    1.9248 H   0  0  0  0  0  0  0  0  0  0  0  0
    0.8733    2.1732   -1.6405 H   0  0  0  0  0  0  0  0  0  0  0  0
    2.3605    2.1096   -0.6991 H   0  0  0  0  0  0  0  0  0  0  0  0
    2.8109   -1.8760    0.5804 H   0  0  0  0  0  0  0  0  0  0  0  0
    1.2897   -1.7902   -0.3040 H   0  0  0  0  0  0  0  0  0  0  0  0
    2.6308    0.7954   -2.7940 H   0  0  0  0  0  0  0  0  0  0  0  0
    1.1871   -0.1310   -2.4156 H   0  0  0  0  0  0  0  0  0  0  0  0
    3.8126   -0.1546   -0.8600 H   0  0  0  0  0  0  0  0  0  0  0  0
    3.1891   -1.4498   -1.8645 H   0  0  0  0  0  0  0  0  0  0  0  0
   -3.1318    1.5202   -0.2481 H   0  0  0  0  0  0  0  0  0  0  0  0
   -2.7831    1.0247   -2.6311 H   0  0  0  0  0  0  0  0  0  0  0  0
   -1.9090   -1.1837   -3.3300 H   0  0  0  0  0  0  0  0  0  0  0  0
   -1.4344   -2.9062   -1.6160 H   0  0  0  0  0  0  0  0  0  0  0  0
   -1.7844   -2.4105    0.7662 H   0  0  0  0  0  0  0  0  0  0  0  0
   -2.6429   -0.8999    2.5406 H   0  0  0  0  0  0  0  0  0  0  0  0
   -3.1996    0.7668    2.1104 H   0  0  0  0  0  0  0  0  0  0  0  0
  1  5  1  0
  1  3  1  0
  1  2  1  0
  1 17  1  0
  2  6  1  0
  2  4  1  0
  2 18  1  0
  3  7  1  0
  3 21  1  0
  3 22  1  0
  4  7  1  0
  4 23  1  0
  4 24  1  0
  5  8  1  0
  5 25  1  0
  5 26  1  0
  6  9  1  0
  6 27  1  0
  6 28  1  0
  7 19  1  0
  8  9  1  0
  8 29  1  0
  8 30  1  0
  9 31  1  0
  9 32  1  0
 10 16  1  0
 10 11  2  0
 10 12  1  0
 11 13  1  0
 11 33  1  0
 12 15  2  0
 12 37  1  0
 13 14  2  0
 13 34  1  0
 14 15  1  0
 14 35  1  0
 15 36  1  0
 16 20  1  0
 16 38  1  0
 16 39  1  0
M  RAD  1   7   2
M  END
>  <reaction>  (4) 
rxn_613

>  <mol_properties>  (4) 
{"2": {"label": "*4", "atom_type": "Cs"}, "6": {"label": "*3", "atom_type": "Cs"}, "9": {"label": "*0", "atom_type": "Cd"}, "15": {"label": "*1", "atom_type": "Cs"}, "19": {"label": "*2", "atom_type": "H0"}}

>  <type>  (4) 
ts

$$$$
