
     RDKit          3D

  6  5  0  0  0  0  0  0  0  0999 V2000
    0.6594    0.0438   -0.0050 C   0  0  0  0  0  0  0  0  0  0  0  0
   -0.6594   -0.0438    0.0050 C   0  0  0  0  0  0  0  0  0  0  0  0
    1.1706    0.8681   -0.4881 H   0  0  0  0  0  0  0  0  0  0  0  0
    1.2824   -0.7051    0.4696 H   0  0  0  0  0  0  0  0  0  0  0  0
   -1.2824    0.7051   -0.4696 H   0  0  0  0  0  0  0  0  0  0  0  0
   -1.1706   -0.8681    0.4881 H   0  0  0  0  0  0  0  0  0  0  0  0
  1  2  2  3
  1  3  1  0
  1  4  1  0
  2  5  1  0
  2  6  1  0
M  END
>  <reaction>  (1) 
rxn_107

>  <mol_properties>  (1) 
{"1": {"label": "donator", "atom_type": "Cd"}, "4": {"label": "d_hydrogen", "atom_type": "H0"}}

>  <type>  (1) 
r1h

$$$$

     RDKit          3D

  3  2  0  0  0  0  0  0  0  0999 V2000
    0.0002    0.4233    0.0000 N   0  0  0  0  0  2  0  0  0  0  0  0
   -0.8051   -0.2112    0.0000 H   0  0  0  0  0  0  0  0  0  0  0  0
    0.8049   -0.2121    0.0000 H   0  0  0  0  0  0  0  0  0  0  0  0
  1  2  1  0
  1  3  1  0
M  RAD  1   1   2
M  END
>  <reaction>  (2) 
rxn_107

>  <mol_properties>  (2) 
{"0": {"label": "acceptor", "atom_type": "N3s"}}

>  <type>  (2) 
r2

$$$$

     RDKit          3D

  4  3  0  0  0  0  0  0  0  0999 V2000
    0.0006   -0.0009    0.2762 N   0  0  0  0  0  0  0  0  0  0  0  0
   -0.4188    0.8439   -0.0883 H   0  0  0  0  0  0  0  0  0  0  0  0
   -0.5215   -0.7840   -0.0936 H   0  0  0  0  0  0  0  0  0  0  0  0
    0.9397   -0.0590   -0.0943 H   0  0  0  0  0  0  0  0  0  0  0  0
  1  2  1  0
  1  3  1  0
  1  4  1  0
M  END
>  <reaction>  (3) 
rxn_107

>  <mol_properties>  (3) 
{"0": {"label": "acceptor", "atom_type": "N3s"}, "3": {"label": "a_hydrogen", "atom_type": "H0"}}

>  <type>  (3) 
r2h

$$$$

     RDKit          3D

  9  7  0  0  0  0  0  0  0  0999 V2000
   -0.4479    1.1381    1.3986 N   0  0  0  0  0  0  0  0  0  0  0  0
    0.4979    0.9561    1.7372 H   0  0  0  0  0  0  0  0  0  0  0  0
   -0.3402    1.8944    0.7213 H   0  0  0  0  0  0  0  0  0  0  0  0
    0.4182   -0.8430   -1.1459 C   0  0  0  0  0  0  0  0  0  0  0  0
   -0.5660   -0.7841   -0.2794 C   0  0  0  0  0  3  0  0  0  0  0  0
    1.2272   -0.1202   -1.1457 H   0  0  0  0  0  0  0  0  0  0  0  0
    0.4633   -1.6221   -1.9026 H   0  0  0  0  0  0  0  0  0  0  0  0
   -0.6158    0.1670    0.6402 H   0  0  0  0  0  0  0  0  0  0  0  0
   -1.4144   -1.4551   -0.1991 H   0  0  0  0  0  0  0  0  0  0  0  0
  1  2  1  0
  1  3  1  0
  1  8  1  0
  4  5  2  3
  4  6  1  0
  4  7  1  0
  5  9  1  0
M  RAD  1   5   2
M  END
>  <reaction>  (4) 
rxn_107

>  <mol_properties>  (4) 
{"0": {"label": "*1", "atom_type": "N3s"}, "1": {"label": "*0", "atom_type": "H0"}, "3": {"label": "*4", "atom_type": "Cd"}, "4": {"label": "*3", "atom_type": "Cd"}, "7": {"label": "*2", "atom_type": "H0"}}

>  <type>  (4) 
ts

$$$$
