
     RDKit          3D

 10  9  0  0  0  0  0  0  0  0999 V2000
   -1.3430   -0.0068    0.1802 C   0  0  0  0  0  0  0  0  0  0  0  0
    0.0800   -0.1753   -0.3125 C   0  0  0  0  0  0  0  0  0  0  0  0
    0.4144    0.6817   -1.3880 O   0  0  0  0  0  0  0  0  0  0  0  0
    0.4868    2.0101   -0.8782 O   0  0  0  0  0  0  0  0  0  0  0  0
   -2.0531   -0.1437   -0.6372 H   0  0  0  0  0  0  0  0  0  0  0  0
   -1.5603   -0.7484    0.9509 H   0  0  0  0  0  0  0  0  0  0  0  0
   -1.4899    0.9815    0.6164 H   0  0  0  0  0  0  0  0  0  0  0  0
    0.2328   -1.1698   -0.7380 H   0  0  0  0  0  0  0  0  0  0  0  0
    0.8000   -0.0345    0.4993 H   0  0  0  0  0  0  0  0  0  0  0  0
   -0.2791    2.4184   -1.2952 H   0  0  0  0  0  0  0  0  0  0  0  0
  1  2  1  0
  1  5  1  0
  1  6  1  0
  1  7  1  0
  2  3  1  0
  2  8  1  0
  2  9  1  0
  3  4  1  0
  4 10  1  0
M  END
>  <reaction>  (1) 
rxn_456

>  <mol_properties>  (1) 
{"3": {"label": "donator", "atom_type": "O2s"}, "9": {"label": "d_hydrogen", "atom_type": "H0"}}

>  <type>  (1) 
r1h

$$$$

     RDKit          3D

  6  5  0  0  0  0  0  0  0  0999 V2000
   -0.4556    0.0419   -0.0850 C   0  0  0  0  0  0  0  0  0  0  0  0
    0.9351    0.2849    0.4399 C   0  0  0  0  0  3  0  0  0  0  0  0
    1.9128   -0.3354    0.2428 O   0  0  0  0  0  0  0  0  0  0  0  0
   -1.1294   -0.0755    0.7639 H   0  0  0  0  0  0  0  0  0  0  0  0
   -0.7760    0.9264   -0.6360 H   0  0  0  0  0  0  0  0  0  0  0  0
   -0.4869   -0.8422   -0.7256 H   0  0  0  0  0  0  0  0  0  0  0  0
  1  2  1  0
  1  4  1  0
  1  5  1  0
  1  6  1  0
  2  3  2  0
M  RAD  1   2   2
M  END
>  <reaction>  (2) 
rxn_456

>  <mol_properties>  (2) 
{"1": {"label": "acceptor", "atom_type": "CO"}}

>  <type>  (2) 
r2

$$$$

     RDKit          3D

  7  6  0  0  0  0  0  0  0  0999 V2000
   -0.6468   -0.0443   -0.0231 C   0  0  0  0  0  0  0  0  0  0  0  0
    0.8470    0.0371    0.0688 C   0  0  0  0  0  0  0  0  0  0  0  0
    1.4866   -0.2280    1.0479 O   0  0  0  0  0  0  0  0  0  0  0  0
   -1.0466    0.9363   -0.2943 H   0  0  0  0  0  0  0  0  0  0  0  0
   -0.9229   -0.7318   -0.8269 H   0  0  0  0  0  0  0  0  0  0  0  0
   -1.0759   -0.3772    0.9198 H   0  0  0  0  0  0  0  0  0  0  0  0
    1.3584    0.3712   -0.8589 H   0  0  0  0  0  0  0  0  0  0  0  0
  1  2  1  0
  1  4  1  0
  1  5  1  0
  1  6  1  0
  2  3  2  0
  2  7  1  0
M  END
>  <reaction>  (3) 
rxn_456

>  <mol_properties>  (3) 
{"0": {"label": "a_hydrogen", "atom_type": "H0"}, "2": {"label": "acceptor", "atom_type": "CO"}}

>  <type>  (3) 
r2h

$$$$

     RDKit          3D

 16 14  0  0  0  0  0  0  0  0999 V2000
    0.1378   -2.1046   -0.8282 C   0  0  0  0  0  0  0  0  0  0  0  0
    0.4352   -2.1766    0.6551 C   0  0  0  0  0  0  0  0  0  0  0  0
    0.7114   -0.9063    1.2354 O   0  0  0  0  0  0  0  0  0  0  0  0
   -0.4461   -0.1657    1.3007 O   0  0  0  0  0  0  0  0  0  0  0  0
    0.9579   -1.6266   -1.3677 H   0  0  0  0  0  0  0  0  0  0  0  0
    0.0133   -3.1126   -1.2273 H   0  0  0  0  0  0  0  0  0  0  0  0
   -0.7827   -1.5531   -1.0194 H   0  0  0  0  0  0  0  0  0  0  0  0
    1.3470   -2.7457    0.8468 H   0  0  0  0  0  0  0  0  0  0  0  0
   -0.3893   -2.6394    1.2029 H   0  0  0  0  0  0  0  0  0  0  0  0
   -0.4377    0.5485    0.2821 H   0  0  0  0  0  0  0  0  0  0  0  0
    1.1902    1.8350   -0.7121 C   0  0  0  0  0  0  0  0  0  0  0  0
   -0.2082    1.2932   -0.7628 C   0  0  0  0  0  3  0  0  0  0  0  0
   -1.0304    1.4627   -1.5945 O   0  0  0  0  0  0  0  0  0  0  0  0
    1.2567    2.5047    0.1476 H   0  0  0  0  0  0  0  0  0  0  0  0
    1.8782    1.0104   -0.5235 H   0  0  0  0  0  0  0  0  0  0  0  0
    1.4393    2.3618   -1.6320 H   0  0  0  0  0  0  0  0  0  0  0  0
  1  2  1  0
  1  5  1  0
  1  6  1  0
  1  7  1  0
  2  3  1  0
  2  8  1  0
  2  9  1  0
  3  4  1  0
  4 10  1  0
 11 12  1  0
 11 14  1  0
 11 15  1  0
 11 16  1  0
 12 13  2  0
M  RAD  1  12   2
M  END
>  <reaction>  (4) 
rxn_456

>  <mol_properties>  (4) 
{"2": {"label": "*0", "atom_type": "O2s"}, "3": {"label": "*1", "atom_type": "O2s"}, "9": {"label": "*2", "atom_type": "H0"}, "11": {"label": "*3", "atom_type": "CO"}, "12": {"label": "*4", "atom_type": "O2d"}}

>  <type>  (4) 
ts

$$$$
