
     RDKit          3D

  6  5  0  0  0  0  0  0  0  0999 V2000
    1.3543    1.0529    0.1454 O   0  0  0  0  0  0  0  0  0  0  0  0
    0.7621    0.0240   -0.0005 C   0  0  0  0  0  0  0  0  0  0  0  0
   -0.7621   -0.0240    0.0005 C   0  0  0  0  0  0  0  0  0  0  0  0
   -1.3543   -1.0529   -0.1454 O   0  0  0  0  0  0  0  0  0  0  0  0
    1.2588   -0.9541   -0.1447 H   0  0  0  0  0  0  0  0  0  0  0  0
   -1.2588    0.9541    0.1447 H   0  0  0  0  0  0  0  0  0  0  0  0
  1  2  2  0
  2  3  1  0
  2  5  1  0
  3  4  2  0
  3  6  1  0
M  END
>  <reaction>  (1) 
rxn_3226

>  <mol_properties>  (1) 
{"2": {"label": "donator", "atom_type": "CO"}, "5": {"label": "d_hydrogen", "atom_type": "H0"}}

>  <type>  (1) 
r1h

$$$$

     RDKit          3D

  7  6  0  0  0  0  0  0  0  0999 V2000
   -1.3059    0.5497   -0.1304 N   0  0  0  0  0  2  0  0  0  0  0  0
   -0.2700   -0.4288    0.0448 C   0  0  0  0  0  0  0  0  0  0  0  0
    1.1109    0.0669    0.0401 C   0  0  0  0  0  0  0  0  0  0  0  0
    2.1758    0.4925    0.0308 N   0  0  0  0  0  0  0  0  0  0  0  0
   -0.8815    1.4733   -0.2339 H   0  0  0  0  0  0  0  0  0  0  0  0
   -0.3767   -1.1909   -0.7373 H   0  0  0  0  0  0  0  0  0  0  0  0
   -0.4527   -0.9628    0.9858 H   0  0  0  0  0  0  0  0  0  0  0  0
  1  2  1  0
  1  5  1  0
  2  3  1  0
  2  6  1  0
  2  7  1  0
  3  4  3  0
M  RAD  1   1   2
M  END
>  <reaction>  (2) 
rxn_3226

>  <mol_properties>  (2) 
{"0": {"label": "acceptor", "atom_type": "N3s"}}

>  <type>  (2) 
r2

$$$$

     RDKit          3D

  8  7  0  0  0  0  0  0  0  0999 V2000
   -1.0805    0.5317    0.0204 N   0  0  0  0  0  0  0  0  0  0  0  0
   -0.1080   -0.5393    0.0956 C   0  0  0  0  0  0  0  0  0  0  0  0
    1.2945   -0.1247   -0.1005 C   0  0  0  0  0  0  0  0  0  0  0  0
    2.3714    0.2386   -0.2580 N   0  0  0  0  0  0  0  0  0  0  0  0
   -1.0516    0.9857   -0.8822 H   0  0  0  0  0  0  0  0  0  0  0  0
   -0.9009    1.2352    0.7235 H   0  0  0  0  0  0  0  0  0  0  0  0
   -0.3427   -1.2965   -0.6542 H   0  0  0  0  0  0  0  0  0  0  0  0
   -0.1810   -1.0288    1.0680 H   0  0  0  0  0  0  0  0  0  0  0  0
  1  2  1  0
  1  5  1  0
  1  6  1  0
  2  3  1  0
  2  7  1  0
  2  8  1  0
  3  4  3  0
M  END
>  <reaction>  (3) 
rxn_3226

>  <mol_properties>  (3) 
{"0": {"label": "acceptor", "atom_type": "N3s"}, "7": {"label": "a_hydrogen", "atom_type": "H0"}}

>  <type>  (3) 
r2h

$$$$

     RDKit          3D

 13 11  0  0  0  0  0  0  0  0999 V2000
    1.0675    1.4770   -0.0020 N   0  0  0  0  0  2  0  0  0  0  0  0
   -0.2671    2.0492   -0.0216 C   0  0  0  0  0  0  0  0  0  0  0  0
   -1.3064    1.1445   -0.5365 C   0  0  0  0  0  0  0  0  0  0  0  0
   -2.0696    0.3786   -0.9211 N   0  0  0  0  0  0  0  0  0  0  0  0
    1.2620    1.0888   -0.9271 H   0  0  0  0  0  0  0  0  0  0  0  0
   -0.2615    2.9525   -0.6412 H   0  0  0  0  0  0  0  0  0  0  0  0
   -0.5484    2.3544    0.9878 H   0  0  0  0  0  0  0  0  0  0  0  0
    1.0576   -1.6291   -1.1065 O   0  0  0  0  0  0  0  0  0  0  0  0
    0.5991   -1.9001   -0.0405 C   0  0  0  0  0  0  0  0  0  0  0  0
    0.5410   -0.8454    1.0861 C   0  0  0  0  0  0  0  0  0  0  0  0
    0.1423   -1.0745    2.1753 O   0  0  0  0  0  0  0  0  0  0  0  0
    0.2011   -2.8958    0.2275 H   0  0  0  0  0  0  0  0  0  0  0  0
    0.9340    0.2908    0.6940 H   0  0  0  0  0  0  0  0  0  0  0  0
  1  2  1  0
  1  5  1  0
  2  3  1  0
  2  6  1  0
  2  7  1  0
  3  4  3  0
  8  9  2  0
  9 10  1  0
  9 12  1  0
 10 11  2  0
 10 13  1  0
M  RAD  1   1   2
M  END
>  <reaction>  (4) 
rxn_3226

>  <mol_properties>  (4) 
{"0": {"label": "*3", "atom_type": "N3s"}, "1": {"label": "*4", "atom_type": "Cs"}, "8": {"label": "*0", "atom_type": "CO"}, "9": {"label": "*1", "atom_type": "CO"}, "12": {"label": "*2", "atom_type": "H0"}}

>  <type>  (4) 
ts

$$$$
