
     RDKit          3D

 16 15  0  0  0  0  0  0  0  0999 V2000
    1.7961   -0.3807    1.6176 C   0  0  0  0  0  0  0  0  0  0  0  0
    0.8562   -0.8708    0.8256 C   0  0  0  0  0  0  0  0  0  0  0  0
    0.0895   -0.0826   -0.2048 C   0  0  0  0  0  0  0  0  0  0  0  0
   -1.4061   -0.1111    0.0982 C   0  0  0  0  0  0  0  0  0  0  0  0
    0.4476   -0.5902   -1.5797 C   0  0  0  0  0  0  0  0  0  0  0  0
   -0.3793   -1.1113   -2.4728 C   0  0  0  0  0  0  0  0  0  0  0  0
    2.3110   -1.0032    2.3386 H   0  0  0  0  0  0  0  0  0  0  0  0
    2.0846    0.6643    1.5737 H   0  0  0  0  0  0  0  0  0  0  0  0
    0.5921   -1.9241    0.8925 H   0  0  0  0  0  0  0  0  0  0  0  0
    0.4358    0.9557   -0.1462 H   0  0  0  0  0  0  0  0  0  0  0  0
   -1.5968    0.3080    1.0865 H   0  0  0  0  0  0  0  0  0  0  0  0
   -1.9674    0.4693   -0.6359 H   0  0  0  0  0  0  0  0  0  0  0  0
   -1.7902   -1.1338    0.0883 H   0  0  0  0  0  0  0  0  0  0  0  0
    1.5049   -0.5197   -1.8214 H   0  0  0  0  0  0  0  0  0  0  0  0
   -1.4421   -1.2131   -2.2889 H   0  0  0  0  0  0  0  0  0  0  0  0
   -0.0162   -1.4558   -3.4328 H   0  0  0  0  0  0  0  0  0  0  0  0
  1  2  2  3
  1  7  1  0
  1  8  1  0
  2  3  1  0
  2  9  1  0
  3  4  1  0
  3  5  1  0
  3 10  1  0
  4 11  1  0
  4 12  1  0
  4 13  1  0
  5  6  2  3
  5 14  1  0
  6 15  1  0
  6 16  1  0
M  END
>  <reaction>  (1) 
rxn_1176

>  <mol_properties>  (1) 
{"2": {"label": "donator", "atom_type": "Cs"}, "9": {"label": "d_hydrogen", "atom_type": "H0"}}

>  <type>  (1) 
r1h

$$$$

     RDKit          3D

 14 13  0  0  0  0  0  0  0  0999 V2000
    1.0767   -1.6838    1.2931 C   0  0  0  0  0  0  0  0  0  0  0  0
    1.0020   -0.3665    0.9163 C   0  0  0  0  0  0  0  0  0  0  0  0
    1.3965    0.7260    1.6806 C   0  0  0  0  0  3  0  0  0  0  0  0
    1.2666    2.1197    1.1619 C   0  0  0  0  0  0  0  0  0  0  0  0
    1.9670    0.5479    3.0536 C   0  0  0  0  0  0  0  0  0  0  0  0
    0.7448   -2.4705    0.6300 H   0  0  0  0  0  0  0  0  0  0  0  0
    1.4663   -1.9826    2.2578 H   0  0  0  0  0  0  0  0  0  0  0  0
    0.5980   -0.1511   -0.0695 H   0  0  0  0  0  0  0  0  0  0  0  0
    0.6296    2.7241    1.8172 H   0  0  0  0  0  0  0  0  0  0  0  0
    2.2410    2.6200    1.1341 H   0  0  0  0  0  0  0  0  0  0  0  0
    0.8426    2.1448    0.1579 H   0  0  0  0  0  0  0  0  0  0  0  0
    2.8745   -0.0634    3.0328 H   0  0  0  0  0  0  0  0  0  0  0  0
    1.2599    0.0408    3.7173 H   0  0  0  0  0  0  0  0  0  0  0  0
    2.2205    1.5071    3.5054 H   0  0  0  0  0  0  0  0  0  0  0  0
  1  2  2  3
  1  6  1  0
  1  7  1  0
  2  3  1  0
  2  8  1  0
  3  4  1  0
  3  5  1  0
  4  9  1  0
  4 10  1  0
  4 11  1  0
  5 12  1  0
  5 13  1  0
  5 14  1  0
M  RAD  1   3   2
M  END
>  <reaction>  (2) 
rxn_1176

>  <mol_properties>  (2) 
{"2": {"label": "acceptor", "atom_type": "Cs"}}

>  <type>  (2) 
r2

$$$$

     RDKit          3D

 15 14  0  0  0  0  0  0  0  0999 V2000
    2.1256    0.4849   -0.6284 C   0  0  0  0  0  0  0  0  0  0  0  0
    1.1128    0.2141    0.1794 C   0  0  0  0  0  0  0  0  0  0  0  0
   -0.3017   -0.0425   -0.2513 C   0  0  0  0  0  0  0  0  0  0  0  0
   -1.2427    1.0075    0.3423 C   0  0  0  0  0  0  0  0  0  0  0  0
   -0.7381   -1.4526    0.1504 C   0  0  0  0  0  0  0  0  0  0  0  0
    3.1243    0.6602   -0.2486 H   0  0  0  0  0  0  0  0  0  0  0  0
    1.9908    0.5411   -1.7036 H   0  0  0  0  0  0  0  0  0  0  0  0
    1.2888    0.1665    1.2533 H   0  0  0  0  0  0  0  0  0  0  0  0
   -0.3426    0.0343   -1.3424 H   0  0  0  0  0  0  0  0  0  0  0  0
   -0.9570    2.0133    0.0315 H   0  0  0  0  0  0  0  0  0  0  0  0
   -1.2189    0.9728    1.4350 H   0  0  0  0  0  0  0  0  0  0  0  0
   -2.2723    0.8287    0.0254 H   0  0  0  0  0  0  0  0  0  0  0  0
   -0.6964   -1.5744    1.2363 H   0  0  0  0  0  0  0  0  0  0  0  0
   -0.0911   -2.2079   -0.2978 H   0  0  0  0  0  0  0  0  0  0  0  0
   -1.7646   -1.6461   -0.1677 H   0  0  0  0  0  0  0  0  0  0  0  0
  1  2  2  3
  1  6  1  0
  1  7  1  0
  2  3  1  0
  2  8  1  0
  3  4  1  0
  3  5  1  0
  3  9  1  0
  4 10  1  0
  4 11  1  0
  4 12  1  0
  5 13  1  0
  5 14  1  0
  5 15  1  0
M  END
>  <reaction>  (3) 
rxn_1176

>  <mol_properties>  (3) 
{"0": {"label": "a_hydrogen", "atom_type": "H0"}, "3": {"label": "acceptor", "atom_type": "Cs"}}

>  <type>  (3) 
r2h

$$$$

     RDKit          3D

 30 28  0  0  0  0  0  0  0  0999 V2000
    0.1745   -2.8133   -1.3806 C   0  0  0  0  0  0  0  0  0  0  0  0
   -0.5864   -2.0630   -0.5844 C   0  0  0  0  0  0  0  0  0  0  0  0
   -0.1333   -1.1240    0.4548 C   0  0  0  0  0  0  0  0  0  0  0  0
    1.3273   -1.1582    0.8379 C   0  0  0  0  0  0  0  0  0  0  0  0
   -1.1040   -0.9165    1.5426 C   0  0  0  0  0  0  0  0  0  0  0  0
   -0.8394   -0.4793    2.7728 C   0  0  0  0  0  0  0  0  0  0  0  0
   -0.2727   -3.4524   -2.1306 H   0  0  0  0  0  0  0  0  0  0  0  0
    1.2546   -2.8293   -1.3075 H   0  0  0  0  0  0  0  0  0  0  0  0
   -1.6650   -2.1150   -0.7146 H   0  0  0  0  0  0  0  0  0  0  0  0
   -0.1956    0.0419   -0.1424 H   0  0  0  0  0  0  0  0  0  0  0  0
    1.9636   -1.1857   -0.0465 H   0  0  0  0  0  0  0  0  0  0  0  0
    1.5990   -0.2661    1.4030 H   0  0  0  0  0  0  0  0  0  0  0  0
    1.5521   -2.0365    1.4487 H   0  0  0  0  0  0  0  0  0  0  0  0
   -2.1419   -1.1029    1.2772 H   0  0  0  0  0  0  0  0  0  0  0  0
    0.1683   -0.2744    3.1115 H   0  0  0  0  0  0  0  0  0  0  0  0
   -1.6363   -0.3252    3.4885 H   0  0  0  0  0  0  0  0  0  0  0  0
    1.3861    2.7163    0.5008 C   0  0  0  0  0  0  0  0  0  0  0  0
    0.1749    2.1838    0.2889 C   0  0  0  0  0  0  0  0  0  0  0  0
   -0.2043    1.2810   -0.7833 C   0  0  0  0  0  3  0  0  0  0  0  0
    0.7673    1.0469   -1.9099 C   0  0  0  0  0  0  0  0  0  0  0  0
   -1.6574    1.3099   -1.1897 C   0  0  0  0  0  0  0  0  0  0  0  0
    1.5690    3.3550    1.3549 H   0  0  0  0  0  0  0  0  0  0  0  0
    2.2201    2.5436   -0.1680 H   0  0  0  0  0  0  0  0  0  0  0  0
   -0.6135    2.4112    1.0019 H   0  0  0  0  0  0  0  0  0  0  0  0
    0.4498    0.1963   -2.5152 H   0  0  0  0  0  0  0  0  0  0  0  0
    0.8255    1.9246   -2.5628 H   0  0  0  0  0  0  0  0  0  0  0  0
    1.7732    0.8385   -1.5436 H   0  0  0  0  0  0  0  0  0  0  0  0
   -1.8707    2.1780   -1.8221 H   0  0  0  0  0  0  0  0  0  0  0  0
   -2.3100    1.3645   -0.3160 H   0  0  0  0  0  0  0  0  0  0  0  0
   -1.9195    0.4151   -1.7593 H   0  0  0  0  0  0  0  0  0  0  0  0
  1  2  2  3
  1  7  1  0
  1  8  1  0
  2  3  1  0
  2  9  1  0
  3  4  1  0
  3  5  1  0
  3 10  1  0
  4 11  1  0
  4 12  1  0
  4 13  1  0
  5  6  2  3
  5 14  1  0
  6 15  1  0
  6 16  1  0
 17 18  2  3
 17 22  1  0
 17 23  1  0
 18 19  1  0
 18 24  1  0
 19 20  1  0
 19 21  1  0
 20 25  1  0
 20 26  1  0
 20 27  1  0
 21 28  1  0
 21 29  1  0
 21 30  1  0
M  RAD  1  19   2
M  END
>  <reaction>  (4) 
rxn_1176

>  <mol_properties>  (4) 
{"1": {"label": "*0", "atom_type": "Cd"}, "2": {"label": "*1", "atom_type": "Cs"}, "9": {"label": "*2", "atom_type": "H0"}, "17": {"label": "*4", "atom_type": "Cd"}, "18": {"label": "*3", "atom_type": "Cs"}}

>  <type>  (4) 
ts

$$$$
