
     RDKit          3D

 22 23  0  0  0  0  0  0  0  0999 V2000
   -2.1093   -0.3263    0.3079 C   0  0  0  0  0  0  0  0  0  0  0  0
   -1.3270    0.9803    0.4115 C   0  0  0  0  0  0  0  0  0  0  0  0
   -0.1818    0.8289   -0.6044 C   0  0  0  0  0  0  0  0  0  0  0  0
    1.1682    1.3904   -0.1341 C   0  0  0  0  0  0  0  0  0  0  0  0
    1.8508    0.2041    0.5479 C   0  0  0  0  0  0  0  0  0  0  0  0
    1.4982   -0.9663   -0.3710 C   0  0  0  0  0  0  0  0  0  0  0  0
    0.0340   -0.7124   -0.7594 C   0  0  0  0  0  0  0  0  0  0  0  0
   -0.9986   -1.3650    0.1756 C   0  0  0  0  0  0  0  0  0  0  0  0
   -2.7686   -0.5042    1.1589 H   0  0  0  0  0  0  0  0  0  0  0  0
   -2.7285   -0.3223   -0.5943 H   0  0  0  0  0  0  0  0  0  0  0  0
   -1.9339    1.8682    0.2289 H   0  0  0  0  0  0  0  0  0  0  0  0
   -0.9144    1.0729    1.4218 H   0  0  0  0  0  0  0  0  0  0  0  0
   -0.4804    1.2763   -1.5535 H   0  0  0  0  0  0  0  0  0  0  0  0
    1.7667    1.7058   -0.9931 H   0  0  0  0  0  0  0  0  0  0  0  0
    1.0540    2.2578    0.5189 H   0  0  0  0  0  0  0  0  0  0  0  0
    1.4197    0.0438    1.5410 H   0  0  0  0  0  0  0  0  0  0  0  0
    2.9248    0.3413    0.6788 H   0  0  0  0  0  0  0  0  0  0  0  0
    2.1362   -0.9329   -1.2584 H   0  0  0  0  0  0  0  0  0  0  0  0
    1.6421   -1.9421    0.0966 H   0  0  0  0  0  0  0  0  0  0  0  0
   -0.1575   -1.0299   -1.7854 H   0  0  0  0  0  0  0  0  0  0  0  0
   -1.3459   -2.3310   -0.1933 H   0  0  0  0  0  0  0  0  0  0  0  0
   -0.5489   -1.5373    1.1593 H   0  0  0  0  0  0  0  0  0  0  0  0
  1  2  1  0
  1  8  1  0
  1  9  1  0
  1 10  1  0
  2  3  1  0
  2 11  1  0
  2 12  1  0
  3  4  1  0
  3  7  1  0
  3 13  1  0
  4  5  1  0
  4 14  1  0
  4 15  1  0
  5  6  1  0
  5 16  1  0
  5 17  1  0
  6  7  1  0
  6 18  1  0
  6 19  1  0
  7  8  1  0
  7 20  1  0
  8 21  1  0
  8 22  1  0
M  END
>  <reaction>  (1) 
rxn_567

>  <mol_properties>  (1) 
{"2": {"label": "donator", "atom_type": "Cs"}, "12": {"label": "d_hydrogen", "atom_type": "H0"}}

>  <type>  (1) 
r1h

$$$$

     RDKit          3D

  8  7  0  0  0  0  0  0  0  0999 V2000
   -2.2129    0.4855    0.7390 C   0  0  0  0  0  0  0  0  0  0  0  0
   -1.2226    0.0526    0.1974 C   0  0  0  0  0  0  0  0  0  0  0  0
   -0.1006   -0.4575   -0.4419 C   0  0  0  0  0  3  0  0  0  0  0  0
    1.1960   -0.1737   -0.0342 C   0  0  0  0  0  0  0  0  0  0  0  0
    2.3329    0.0603    0.3036 C   0  0  0  0  0  0  0  0  0  0  0  0
   -3.0803    0.8696    1.2198 H   0  0  0  0  0  0  0  0  0  0  0  0
   -0.2433   -1.1067   -1.2980 H   0  0  0  0  0  0  0  0  0  0  0  0
    3.3308    0.2700    0.6058 H   0  0  0  0  0  0  0  0  0  0  0  0
  1  2  3  0
  1  6  1  0
  2  3  1  0
  3  4  1  0
  3  7  1  0
  4  5  3  0
  5  8  1  0
M  RAD  1   3   2
M  END
>  <reaction>  (2) 
rxn_567

>  <mol_properties>  (2) 
{"2": {"label": "acceptor", "atom_type": "Cs"}}

>  <type>  (2) 
r2

$$$$

     RDKit          3D

  9  8  0  0  0  0  0  0  0  0999 V2000
   -2.1022   -0.6873    0.3932 C   0  0  0  0  0  0  0  0  0  0  0  0
   -1.2072   -0.1086   -0.1482 C   0  0  0  0  0  0  0  0  0  0  0  0
   -0.1242    0.6105   -0.8193 C   0  0  0  0  0  0  0  0  0  0  0  0
    1.2067    0.1106   -0.4741 C   0  0  0  0  0  0  0  0  0  0  0  0
    2.3005   -0.2875   -0.2012 C   0  0  0  0  0  0  0  0  0  0  0  0
   -2.8942   -1.2059    0.8778 H   0  0  0  0  0  0  0  0  0  0  0  0
   -0.1862    1.6723   -0.5649 H   0  0  0  0  0  0  0  0  0  0  0  0
   -0.2641    0.5418   -1.9017 H   0  0  0  0  0  0  0  0  0  0  0  0
    3.2709   -0.6459    0.0455 H   0  0  0  0  0  0  0  0  0  0  0  0
  1  2  3  0
  1  6  1  0
  2  3  1  0
  3  4  1  0
  3  7  1  0
  3  8  1  0
  4  5  3  0
  5  9  1  0
M  END
>  <reaction>  (3) 
rxn_567

>  <mol_properties>  (3) 
{"2": {"label": "acceptor", "atom_type": "Cs"}, "8": {"label": "a_hydrogen", "atom_type": "H0"}}

>  <type>  (3) 
r2h

$$$$

     RDKit          3D

 30 30  0  0  0  0  0  0  0  0999 V2000
   -1.7495   -2.9002   -0.8661 C   0  0  0  0  0  0  0  0  0  0  0  0
   -1.7360   -2.0118   -0.0599 C   0  0  0  0  0  0  0  0  0  0  0  0
   -1.6400   -0.9399    0.8933 C   0  0  0  0  0  0  0  0  0  0  0  0
   -2.5000    0.1924    0.6803 C   0  0  0  0  0  0  0  0  0  0  0  0
   -3.1575    1.1804    0.5033 C   0  0  0  0  0  0  0  0  0  0  0  0
   -1.7864   -3.6908   -1.5760 H   0  0  0  0  0  0  0  0  0  0  0  0
   -1.6493   -1.2895    1.9257 H   0  0  0  0  0  0  0  0  0  0  0  0
   -3.7632    2.0402    0.3471 H   0  0  0  0  0  0  0  0  0  0  0  0
    1.9539   -1.2667   -1.0695 C   0  0  0  0  0  0  0  0  0  0  0  0
    1.7916   -1.0166    0.4340 C   0  0  0  0  0  0  0  0  0  0  0  0
    0.7962    0.1222    0.5160 C   0  0  0  0  0  3  0  0  0  0  0  0
    0.9451    1.2304    1.5344 C   0  0  0  0  0  0  0  0  0  0  0  0
    1.4721    2.4054    0.6970 C   0  0  0  0  0  0  0  0  0  0  0  0
    0.7151    2.2661   -0.6277 C   0  0  0  0  0  0  0  0  0  0  0  0
    0.6478    0.7518   -0.8710 C   0  0  0  0  0  0  0  0  0  0  0  0
    1.7991    0.1285   -1.6750 C   0  0  0  0  0  0  0  0  0  0  0  0
    2.9003   -1.7459   -1.3222 H   0  0  0  0  0  0  0  0  0  0  0  0
    1.1453   -1.9125   -1.4211 H   0  0  0  0  0  0  0  0  0  0  0  0
    1.4728   -1.9060    0.9835 H   0  0  0  0  0  0  0  0  0  0  0  0
    2.7447   -0.6978    0.8737 H   0  0  0  0  0  0  0  0  0  0  0  0
   -0.4460   -0.4720    0.7642 H   0  0  0  0  0  0  0  0  0  0  0  0
   -0.0309    1.4965    1.9555 H   0  0  0  0  0  0  0  0  0  0  0  0
    1.5990    0.9574    2.3640 H   0  0  0  0  0  0  0  0  0  0  0  0
    2.5462    2.2826    0.5299 H   0  0  0  0  0  0  0  0  0  0  0  0
    1.3241    3.3733    1.1771 H   0  0  0  0  0  0  0  0  0  0  0  0
   -0.2958    2.6643   -0.5134 H   0  0  0  0  0  0  0  0  0  0  0  0
    1.1914    2.8015   -1.4506 H   0  0  0  0  0  0  0  0  0  0  0  0
   -0.3024    0.4702   -1.3354 H   0  0  0  0  0  0  0  0  0  0  0  0
    1.6043    0.1163   -2.7480 H   0  0  0  0  0  0  0  0  0  0  0  0
    2.7161    0.7053   -1.5119 H   0  0  0  0  0  0  0  0  0  0  0  0
  1  2  3  0
  1  6  1  0
  2  3  1  0
  3  4  1  0
  3  7  1  0
  3 21  1  0
  4  5  3  0
  5  8  1  0
  9 16  1  0
  9 10  1  0
  9 17  1  0
  9 18  1  0
 10 11  1  0
 10 19  1  0
 10 20  1  0
 11 12  1  0
 11 15  1  0
 12 13  1  0
 12 22  1  0
 12 23  1  0
 13 14  1  0
 13 24  1  0
 13 25  1  0
 14 15  1  0
 14 26  1  0
 14 27  1  0
 15 16  1  0
 15 28  1  0
 16 29  1  0
 16 30  1  0
M  RAD  1  11   2
M  END
>  <reaction>  (4) 
rxn_567

>  <mol_properties>  (4) 
{"1": {"label": "*0", "atom_type": "Ct"}, "2": {"label": "*1", "atom_type": "Cs"}, "10": {"label": "*3", "atom_type": "Cs"}, "14": {"label": "*4", "atom_type": "Cs"}, "20": {"label": "*2", "atom_type": "H0"}}

>  <type>  (4) 
ts

$$$$
