
     RDKit          3D

 15 14  0  0  0  0  0  0  0  0999 V2000
    2.1256    0.4849   -0.6284 C   0  0  0  0  0  0  0  0  0  0  0  0
    1.1128    0.2141    0.1794 C   0  0  0  0  0  0  0  0  0  0  0  0
   -0.3017   -0.0425   -0.2513 C   0  0  0  0  0  0  0  0  0  0  0  0
   -1.2427    1.0075    0.3423 C   0  0  0  0  0  0  0  0  0  0  0  0
   -0.7381   -1.4526    0.1504 C   0  0  0  0  0  0  0  0  0  0  0  0
    3.1243    0.6602   -0.2486 H   0  0  0  0  0  0  0  0  0  0  0  0
    1.9908    0.5411   -1.7036 H   0  0  0  0  0  0  0  0  0  0  0  0
    1.2888    0.1665    1.2533 H   0  0  0  0  0  0  0  0  0  0  0  0
   -0.3426    0.0343   -1.3424 H   0  0  0  0  0  0  0  0  0  0  0  0
   -0.9570    2.0133    0.0315 H   0  0  0  0  0  0  0  0  0  0  0  0
   -1.2189    0.9728    1.4350 H   0  0  0  0  0  0  0  0  0  0  0  0
   -2.2723    0.8287    0.0254 H   0  0  0  0  0  0  0  0  0  0  0  0
   -0.6964   -1.5744    1.2363 H   0  0  0  0  0  0  0  0  0  0  0  0
   -0.0911   -2.2079   -0.2978 H   0  0  0  0  0  0  0  0  0  0  0  0
   -1.7646   -1.6461   -0.1677 H   0  0  0  0  0  0  0  0  0  0  0  0
  1  2  2  3
  1  6  1  0
  1  7  1  0
  2  3  1  0
  2  8  1  0
  3  4  1  0
  3  5  1  0
  3  9  1  0
  4 10  1  0
  4 11  1  0
  4 12  1  0
  5 13  1  0
  5 14  1  0
  5 15  1  0
M  END
>  <reaction>  (1) 
rxn_1083

>  <mol_properties>  (1) 
{"2": {"label": "donator", "atom_type": "Cs"}, "8": {"label": "d_hydrogen", "atom_type": "H0"}}

>  <type>  (1) 
r1h

$$$$

     RDKit          3D

  7  6  0  0  0  0  0  0  0  0999 V2000
   -0.6201    0.0189   -0.0017 C   0  0  0  0  0  0  0  0  0  0  0  0
    0.8589   -0.0553    0.0500 C   0  0  0  0  0  3  0  0  0  0  0  0
   -1.0738   -0.9730   -0.0559 H   0  0  0  0  0  0  0  0  0  0  0  0
   -0.9680    0.5706   -0.8872 H   0  0  0  0  0  0  0  0  0  0  0  0
   -1.0303    0.5369    0.8678 H   0  0  0  0  0  0  0  0  0  0  0  0
    1.3939   -0.8386   -0.4695 H   0  0  0  0  0  0  0  0  0  0  0  0
    1.4394    0.7404    0.4965 H   0  0  0  0  0  0  0  0  0  0  0  0
  1  2  1  0
  1  3  1  0
  1  4  1  0
  1  5  1  0
  2  6  1  0
  2  7  1  0
M  RAD  1   2   2
M  END
>  <reaction>  (2) 
rxn_1083

>  <mol_properties>  (2) 
{"1": {"label": "acceptor", "atom_type": "Cs"}}

>  <type>  (2) 
r2

$$$$

     RDKit          3D

  8  7  0  0  0  0  0  0  0  0999 V2000
    0.7610    0.0250    0.0051 C   0  0  0  0  0  0  0  0  0  0  0  0
   -0.7610   -0.0250   -0.0051 C   0  0  0  0  0  0  0  0  0  0  0  0
    1.1904   -0.9237   -0.3217 H   0  0  0  0  0  0  0  0  0  0  0  0
    1.1359    0.8041   -0.6609 H   0  0  0  0  0  0  0  0  0  0  0  0
    1.1435    0.2336    1.0058 H   0  0  0  0  0  0  0  0  0  0  0  0
   -1.1435   -0.2336   -1.0058 H   0  0  0  0  0  0  0  0  0  0  0  0
   -1.1904    0.9237    0.3216 H   0  0  0  0  0  0  0  0  0  0  0  0
   -1.1359   -0.8041    0.6609 H   0  0  0  0  0  0  0  0  0  0  0  0
  1  2  1  0
  1  3  1  0
  1  4  1  0
  1  5  1  0
  2  6  1  0
  2  7  1  0
  2  8  1  0
M  END
>  <reaction>  (3) 
rxn_1083

>  <mol_properties>  (3) 
{"0": {"label": "a_hydrogen", "atom_type": "H0"}, "2": {"label": "acceptor", "atom_type": "Cs"}}

>  <type>  (3) 
r2h

$$$$

     RDKit          3D

 22 20  0  0  0  0  0  0  0  0999 V2000
    0.1701   -2.0744   -1.0580 C   0  0  0  0  0  0  0  0  0  0  0  0
   -0.5196   -1.3742   -0.1600 C   0  0  0  0  0  0  0  0  0  0  0  0
   -0.0056   -0.3130    0.7260 C   0  0  0  0  0  0  0  0  0  0  0  0
    1.4941   -0.1174    0.7363 C   0  0  0  0  0  0  0  0  0  0  0  0
   -0.6257   -0.3221    2.1107 C   0  0  0  0  0  0  0  0  0  0  0  0
   -0.3161   -2.8149   -1.6800 H   0  0  0  0  0  0  0  0  0  0  0  0
    1.2360   -1.9423   -1.1994 H   0  0  0  0  0  0  0  0  0  0  0  0
   -1.5863   -1.5693   -0.0690 H   0  0  0  0  0  0  0  0  0  0  0  0
   -0.4473    0.7572    0.2164 H   0  0  0  0  0  0  0  0  0  0  0  0
    1.8846    0.0538   -0.2684 H   0  0  0  0  0  0  0  0  0  0  0  0
    2.0042   -0.9935    1.1492 H   0  0  0  0  0  0  0  0  0  0  0  0
    1.7607    0.7456    1.3492 H   0  0  0  0  0  0  0  0  0  0  0  0
   -0.2610   -1.1701    2.6989 H   0  0  0  0  0  0  0  0  0  0  0  0
   -1.7138   -0.3973    2.0568 H   0  0  0  0  0  0  0  0  0  0  0  0
   -0.3769    0.5925    2.6533 H   0  0  0  0  0  0  0  0  0  0  0  0
   -0.2533    1.9215   -1.7850 C   0  0  0  0  0  0  0  0  0  0  0  0
   -0.8485    2.0019   -0.4111 C   0  0  0  0  0  3  0  0  0  0  0  0
   -0.5684    2.7614   -2.4143 H   0  0  0  0  0  0  0  0  0  0  0  0
   -0.5565    1.0021   -2.2907 H   0  0  0  0  0  0  0  0  0  0  0  0
    0.8375    1.9363   -1.7460 H   0  0  0  0  0  0  0  0  0  0  0  0
   -1.9320    1.9300   -0.3533 H   0  0  0  0  0  0  0  0  0  0  0  0
   -0.4384    2.7593    0.2524 H   0  0  0  0  0  0  0  0  0  0  0  0
  1  2  2  3
  1  6  1  0
  1  7  1  0
  2  3  1  0
  2  8  1  0
  3  4  1  0
  3  5  1  0
  3  9  1  0
  4 10  1  0
  4 11  1  0
  4 12  1  0
  5 13  1  0
  5 14  1  0
  5 15  1  0
 16 17  1  0
 16 18  1  0
 16 19  1  0
 16 20  1  0
 17 21  1  0
 17 22  1  0
M  RAD  1  17   2
M  END
>  <reaction>  (4) 
rxn_1083

>  <mol_properties>  (4) 
{"1": {"label": "*0", "atom_type": "Cd"}, "2": {"label": "*1", "atom_type": "Cs"}, "8": {"label": "*2", "atom_type": "H0"}, "15": {"label": "*4", "atom_type": "Cs"}, "16": {"label": "*3", "atom_type": "Cs"}}

>  <type>  (4) 
ts

$$$$
