
     RDKit          3D

 21 21  0  0  0  0  0  0  0  0999 V2000
   -1.3695    1.3367   -1.0719 C   0  0  0  0  0  0  0  0  0  0  0  0
   -1.4091   -0.0981   -0.5428 C   0  0  0  0  0  0  0  0  0  0  0  0
   -0.1819   -0.3999    0.3191 C   0  0  0  0  0  0  0  0  0  0  0  0
   -1.5636   -1.1028   -1.6652 C   0  0  0  0  0  0  0  0  0  0  0  0
   -0.5920   -1.2314   -2.6553 C   0  0  0  0  0  0  0  0  0  0  0  0
   -0.7353   -2.1509   -3.6809 C   0  0  0  0  0  0  0  0  0  0  0  0
   -1.8582   -2.9642   -3.7377 C   0  0  0  0  0  0  0  0  0  0  0  0
   -2.8325   -2.8475   -2.7602 C   0  0  0  0  0  0  0  0  0  0  0  0
   -2.6828   -1.9241   -1.7351 C   0  0  0  0  0  0  0  0  0  0  0  0
   -0.4920    1.4974   -1.7025 H   0  0  0  0  0  0  0  0  0  0  0  0
   -2.2553    1.5607   -1.6679 H   0  0  0  0  0  0  0  0  0  0  0  0
   -1.3211    2.0496   -0.2461 H   0  0  0  0  0  0  0  0  0  0  0  0
   -2.2930   -0.1918    0.0948 H   0  0  0  0  0  0  0  0  0  0  0  0
   -0.1215    0.2955    1.1588 H   0  0  0  0  0  0  0  0  0  0  0  0
   -0.2200   -1.4155    0.7159 H   0  0  0  0  0  0  0  0  0  0  0  0
    0.7383   -0.3016   -0.2615 H   0  0  0  0  0  0  0  0  0  0  0  0
    0.2915   -0.6040   -2.6263 H   0  0  0  0  0  0  0  0  0  0  0  0
    0.0326   -2.2338   -4.4401 H   0  0  0  0  0  0  0  0  0  0  0  0
   -1.9712   -3.6833   -4.5391 H   0  0  0  0  0  0  0  0  0  0  0  0
   -3.7135   -3.4765   -2.7932 H   0  0  0  0  0  0  0  0  0  0  0  0
   -3.4509   -1.8400   -0.9743 H   0  0  0  0  0  0  0  0  0  0  0  0
  1  2  1  0
  1 10  1  0
  1 11  1  0
  1 12  1  0
  2  3  1  0
  2  4  1  0
  2 13  1  0
  3 14  1  0
  3 15  1  0
  3 16  1  0
  4  5  2  0
  4  9  1  0
  5  6  1  0
  5 17  1  0
  6  7  2  0
  6 18  1  0
  7  8  1  0
  7 19  1  0
  8  9  2  0
  8 20  1  0
  9 21  1  0
M  END
>  <reaction>  (1) 
rxn_1561

>  <mol_properties>  (1) 
{"1": {"label": "donator", "atom_type": "Cs"}, "12": {"label": "d_hydrogen", "atom_type": "H0"}}

>  <type>  (1) 
r1h

$$$$

     RDKit          3D

  6  5  0  0  0  0  0  0  0  0999 V2000
   -0.5036    0.1196    0.0353 C   0  0  0  0  0  0  0  0  0  0  0  0
    0.9526    0.1121    0.2227 C   0  0  0  0  0  3  0  0  0  0  0  0
    2.2066   -0.6670   -0.2771 S   0  0  0  0  0  0  0  0  0  0  0  0
   -0.8527   -0.6450   -0.6654 H   0  0  0  0  0  0  0  0  0  0  0  0
   -0.8134    1.1060   -0.3189 H   0  0  0  0  0  0  0  0  0  0  0  0
   -0.9894   -0.0257    1.0035 H   0  0  0  0  0  0  0  0  0  0  0  0
  1  2  1  0
  1  4  1  0
  1  5  1  0
  1  6  1  0
  2  3  2  0
M  RAD  1   2   2
M  END
>  <reaction>  (2) 
rxn_1561

>  <mol_properties>  (2) 
{"1": {"label": "acceptor", "atom_type": "CS"}}

>  <type>  (2) 
r2

$$$$

     RDKit          3D

  7  6  0  0  0  0  0  0  0  0999 V2000
   -0.6782    0.0507    0.0301 C   0  0  0  0  0  0  0  0  0  0  0  0
    0.8092    0.0996    0.0213 C   0  0  0  0  0  0  0  0  0  0  0  0
    1.7473    0.7521    1.1507 S   0  0  0  0  0  0  0  0  0  0  0  0
   -1.0667    0.5456   -0.8653 H   0  0  0  0  0  0  0  0  0  0  0  0
   -1.0112   -0.9904   -0.0239 H   0  0  0  0  0  0  0  0  0  0  0  0
   -1.0920    0.5225    0.9188 H   0  0  0  0  0  0  0  0  0  0  0  0
    1.2740   -0.3620   -0.8520 H   0  0  0  0  0  0  0  0  0  0  0  0
  1  2  1  0
  1  4  1  0
  1  5  1  0
  1  6  1  0
  2  3  2  0
  2  7  1  0
M  END
>  <reaction>  (3) 
rxn_1561

>  <mol_properties>  (3) 
{"0": {"label": "a_hydrogen", "atom_type": "H0"}, "2": {"label": "acceptor", "atom_type": "CS"}}

>  <type>  (3) 
r2h

$$$$

     RDKit          3D

 27 26  0  0  0  0  0  0  0  0999 V2000
    0.2481    1.7616   -1.7373 C   0  0  0  0  0  0  0  0  0  0  0  0
    0.1082    1.1881   -0.3433 C   0  0  0  0  0  0  0  0  0  0  0  0
   -0.3349    2.2138    0.6742 C   0  0  0  0  0  0  0  0  0  0  0  0
    1.1620    0.2293    0.0811 C   0  0  0  0  0  0  0  0  0  0  0  0
    1.5321   -0.8260   -0.7617 C   0  0  0  0  0  0  0  0  0  0  0  0
    2.4641   -1.7689   -0.3686 C   0  0  0  0  0  0  0  0  0  0  0  0
    3.0616   -1.6848    0.8818 C   0  0  0  0  0  0  0  0  0  0  0  0
    2.7092   -0.6481    1.7299 C   0  0  0  0  0  0  0  0  0  0  0  0
    1.7690    0.2929    1.3371 C   0  0  0  0  0  0  0  0  0  0  0  0
    1.0684    2.4868   -1.7723 H   0  0  0  0  0  0  0  0  0  0  0  0
    0.4505    0.9965   -2.4859 H   0  0  0  0  0  0  0  0  0  0  0  0
   -0.6690    2.2747   -2.0326 H   0  0  0  0  0  0  0  0  0  0  0  0
   -0.9599    0.4183   -0.4699 H   0  0  0  0  0  0  0  0  0  0  0  0
   -1.2028    2.7592    0.3001 H   0  0  0  0  0  0  0  0  0  0  0  0
   -0.6126    1.7558    1.6253 H   0  0  0  0  0  0  0  0  0  0  0  0
    0.4530    2.9485    0.8739 H   0  0  0  0  0  0  0  0  0  0  0  0
    1.0659   -0.9214   -1.7348 H   0  0  0  0  0  0  0  0  0  0  0  0
    2.7250   -2.5767   -1.0412 H   0  0  0  0  0  0  0  0  0  0  0  0
    3.7931   -2.4207    1.1898 H   0  0  0  0  0  0  0  0  0  0  0  0
    3.1690   -0.5671    2.7071 H   0  0  0  0  0  0  0  0  0  0  0  0
    1.5163    1.0940    2.0188 H   0  0  0  0  0  0  0  0  0  0  0  0
   -1.9504   -1.4177    0.5404 C   0  0  0  0  0  0  0  0  0  0  0  0
   -1.9774   -0.4978   -0.6180 C   0  0  0  0  0  3  0  0  0  0  0  0
   -2.8056   -0.5214   -1.9701 S   0  0  0  0  0  0  0  0  0  0  0  0
   -2.6681   -2.2337    0.4486 H   0  0  0  0  0  0  0  0  0  0  0  0
   -2.1444   -0.8522    1.4562 H   0  0  0  0  0  0  0  0  0  0  0  0
   -0.9378   -1.8209    0.6412 H   0  0  0  0  0  0  0  0  0  0  0  0
  1  2  1  0
  1 10  1  0
  1 11  1  0
  1 12  1  0
  2  3  1  0
  2  4  1  0
  2 13  1  0
  3 14  1  0
  3 15  1  0
  3 16  1  0
  4  5  2  0
  4  9  1  0
  5  6  1  0
  5 17  1  0
  6  7  2  0
  6 18  1  0
  7  8  1  0
  7 19  1  0
  8  9  2  0
  8 20  1  0
  9 21  1  0
 22 23  1  0
 22 25  1  0
 22 26  1  0
 22 27  1  0
 23 24  2  0
M  RAD  1  23   2
M  END
>  <reaction>  (4) 
rxn_1561

>  <mol_properties>  (4) 
{"1": {"label": "*1", "atom_type": "Cs"}, "3": {"label": "*0", "atom_type": "Cd"}, "12": {"label": "*2", "atom_type": "H0"}, "22": {"label": "*3", "atom_type": "CS"}, "23": {"label": "*4", "atom_type": "S2d"}}

>  <type>  (4) 
ts

$$$$
