
     RDKit          3D

 25 26  0  0  0  0  0  0  0  0999 V2000
    2.0298   -1.1515    0.0571 C   0  0  0  0  0  0  0  0  0  0  0  0
    2.2278    0.2445    0.6528 C   0  0  0  0  0  0  0  0  0  0  0  0
    1.2292    1.2625    0.0947 C   0  0  0  0  0  0  0  0  0  0  0  0
   -0.1869    0.7454    0.2762 C   0  0  0  0  0  0  0  0  0  0  0  0
   -1.3415    1.5501   -0.3122 C   0  0  0  0  0  0  0  0  0  0  0  0
   -2.5060    0.5338   -0.4178 C   0  0  0  0  0  0  0  0  0  0  0  0
   -1.8709   -0.8658   -0.2234 C   0  0  0  0  0  0  0  0  0  0  0  0
   -0.3715   -0.6265   -0.3693 C   0  0  0  0  0  0  0  0  0  0  0  0
    0.5898   -1.6500    0.2086 C   0  0  0  0  0  0  0  0  0  0  0  0
    2.2820   -1.1226   -1.0088 H   0  0  0  0  0  0  0  0  0  0  0  0
    2.7243   -1.8549    0.5221 H   0  0  0  0  0  0  0  0  0  0  0  0
    2.1030    0.1885    1.7400 H   0  0  0  0  0  0  0  0  0  0  0  0
    3.2514    0.5819    0.4743 H   0  0  0  0  0  0  0  0  0  0  0  0
    1.3611    2.2304    0.5855 H   0  0  0  0  0  0  0  0  0  0  0  0
    1.4198    1.4194   -0.9737 H   0  0  0  0  0  0  0  0  0  0  0  0
   -0.3675    0.6209    1.3539 H   0  0  0  0  0  0  0  0  0  0  0  0
   -1.5992    2.4249    0.2862 H   0  0  0  0  0  0  0  0  0  0  0  0
   -1.0595    1.9116   -1.3055 H   0  0  0  0  0  0  0  0  0  0  0  0
   -3.2666    0.7244    0.3399 H   0  0  0  0  0  0  0  0  0  0  0  0
   -3.0030    0.6112   -1.3853 H   0  0  0  0  0  0  0  0  0  0  0  0
   -2.2549   -1.6039   -0.9288 H   0  0  0  0  0  0  0  0  0  0  0  0
   -2.0796   -1.2429    0.7821 H   0  0  0  0  0  0  0  0  0  0  0  0
   -0.1432   -0.5121   -1.4391 H   0  0  0  0  0  0  0  0  0  0  0  0
    0.4720   -2.6209   -0.2799 H   0  0  0  0  0  0  0  0  0  0  0  0
    0.3601   -1.7986    1.2704 H   0  0  0  0  0  0  0  0  0  0  0  0
  1  2  1  0
  1  9  1  0
  1 10  1  0
  1 11  1  0
  2  3  1  0
  2 12  1  0
  2 13  1  0
  3  4  1  0
  3 14  1  0
  3 15  1  0
  4  5  1  0
  4  8  1  0
  4 16  1  0
  5  6  1  0
  5 17  1  0
  5 18  1  0
  6  7  1  0
  6 19  1  0
  6 20  1  0
  7  8  1  0
  7 21  1  0
  7 22  1  0
  8  9  1  0
  8 23  1  0
  9 24  1  0
  9 25  1  0
M  END
>  <reaction>  (1) 
rxn_607

>  <mol_properties>  (1) 
{"5": {"label": "donator", "atom_type": "Cs"}, "18": {"label": "d_hydrogen", "atom_type": "H0"}}

>  <type>  (1) 
r1h

$$$$

     RDKit          3D

 15 14  0  0  0  0  0  0  0  0999 V2000
    2.4381    0.5770   -0.2356 C   0  0  0  0  0  0  0  0  0  0  0  0
    1.4430   -0.3367   -0.1409 C   0  0  0  0  0  0  0  0  0  0  0  0
    0.0521   -0.0957   -0.0045 C   0  0  0  0  0  3  0  0  0  0  0  0
   -0.5167    1.2867    0.0548 C   0  0  0  0  0  0  0  0  0  0  0  0
   -0.8226   -1.2147    0.0778 C   0  0  0  0  0  0  0  0  0  0  0  0
   -2.1666   -1.1669    0.2092 C   0  0  0  0  0  0  0  0  0  0  0  0
    3.4666    0.2585   -0.3369 H   0  0  0  0  0  0  0  0  0  0  0  0
    2.2594    1.6438   -0.2152 H   0  0  0  0  0  0  0  0  0  0  0  0
    1.7306   -1.3845   -0.1719 H   0  0  0  0  0  0  0  0  0  0  0  0
   -1.2300    1.4469   -0.7583 H   0  0  0  0  0  0  0  0  0  0  0  0
    0.2481    2.0557   -0.0178 H   0  0  0  0  0  0  0  0  0  0  0  0
   -1.0592    1.4421    0.9914 H   0  0  0  0  0  0  0  0  0  0  0  0
   -0.3519   -2.1929    0.0292 H   0  0  0  0  0  0  0  0  0  0  0  0
   -2.7080   -0.2310    0.2646 H   0  0  0  0  0  0  0  0  0  0  0  0
   -2.7513   -2.0751    0.2638 H   0  0  0  0  0  0  0  0  0  0  0  0
  1  2  2  3
  1  7  1  0
  1  8  1  0
  2  3  1  0
  2  9  1  0
  3  4  1  0
  3  5  1  0
  4 10  1  0
  4 11  1  0
  4 12  1  0
  5  6  2  3
  5 13  1  0
  6 14  1  0
  6 15  1  0
M  RAD  1   3   2
M  END
>  <reaction>  (2) 
rxn_607

>  <mol_properties>  (2) 
{"2": {"label": "acceptor", "atom_type": "Cs"}}

>  <type>  (2) 
r2

$$$$

     RDKit          3D

 16 15  0  0  0  0  0  0  0  0999 V2000
    1.7961   -0.3807    1.6176 C   0  0  0  0  0  0  0  0  0  0  0  0
    0.8562   -0.8708    0.8256 C   0  0  0  0  0  0  0  0  0  0  0  0
    0.0895   -0.0826   -0.2048 C   0  0  0  0  0  0  0  0  0  0  0  0
   -1.4061   -0.1111    0.0982 C   0  0  0  0  0  0  0  0  0  0  0  0
    0.4476   -0.5902   -1.5797 C   0  0  0  0  0  0  0  0  0  0  0  0
   -0.3793   -1.1113   -2.4728 C   0  0  0  0  0  0  0  0  0  0  0  0
    2.3110   -1.0032    2.3386 H   0  0  0  0  0  0  0  0  0  0  0  0
    2.0846    0.6643    1.5737 H   0  0  0  0  0  0  0  0  0  0  0  0
    0.5921   -1.9241    0.8925 H   0  0  0  0  0  0  0  0  0  0  0  0
    0.4358    0.9557   -0.1462 H   0  0  0  0  0  0  0  0  0  0  0  0
   -1.5968    0.3080    1.0865 H   0  0  0  0  0  0  0  0  0  0  0  0
   -1.9674    0.4693   -0.6359 H   0  0  0  0  0  0  0  0  0  0  0  0
   -1.7902   -1.1338    0.0883 H   0  0  0  0  0  0  0  0  0  0  0  0
    1.5049   -0.5197   -1.8214 H   0  0  0  0  0  0  0  0  0  0  0  0
   -1.4421   -1.2131   -2.2889 H   0  0  0  0  0  0  0  0  0  0  0  0
   -0.0162   -1.4558   -3.4328 H   0  0  0  0  0  0  0  0  0  0  0  0
  1  2  2  3
  1  7  1  0
  1  8  1  0
  2  3  1  0
  2  9  1  0
  3  4  1  0
  3  5  1  0
  3 10  1  0
  4 11  1  0
  4 12  1  0
  4 13  1  0
  5  6  2  3
  5 14  1  0
  6 15  1  0
  6 16  1  0
M  END
>  <reaction>  (3) 
rxn_607

>  <mol_properties>  (3) 
{"2": {"label": "acceptor", "atom_type": "Cs"}, "15": {"label": "a_hydrogen", "atom_type": "H0"}}

>  <type>  (3) 
r2h

$$$$

     RDKit          3D

 40 40  0  0  0  0  0  0  0  0999 V2000
   -1.8759    1.7839    1.9750 C   0  0  0  0  0  0  0  0  0  0  0  0
   -0.6058    2.1199    1.7668 C   0  0  0  0  0  0  0  0  0  0  0  0
    0.0701    2.3496    0.4685 C   0  0  0  0  0  0  0  0  0  0  0  0
    0.9969    3.5506    0.4744 C   0  0  0  0  0  0  0  0  0  0  0  0
   -0.7680    2.1800   -0.7345 C   0  0  0  0  0  0  0  0  0  0  0  0
   -0.7608    2.9458   -1.8223 C   0  0  0  0  0  0  0  0  0  0  0  0
   -2.2460    1.6135    2.9778 H   0  0  0  0  0  0  0  0  0  0  0  0
   -2.5897    1.6823    1.1669 H   0  0  0  0  0  0  0  0  0  0  0  0
    0.0420    2.2307    2.6338 H   0  0  0  0  0  0  0  0  0  0  0  0
    1.6574    3.5403   -0.3946 H   0  0  0  0  0  0  0  0  0  0  0  0
    1.6215    3.5442    1.3693 H   0  0  0  0  0  0  0  0  0  0  0  0
    0.4342    4.4880    0.4639 H   0  0  0  0  0  0  0  0  0  0  0  0
   -1.4266    1.3154   -0.7239 H   0  0  0  0  0  0  0  0  0  0  0  0
   -0.1346    3.8254   -1.9072 H   0  0  0  0  0  0  0  0  0  0  0  0
   -1.3937    2.7140   -2.6693 H   0  0  0  0  0  0  0  0  0  0  0  0
   -0.8103   -3.3951   -1.3328 C   0  0  0  0  0  0  0  0  0  0  0  0
   -1.4282   -3.2295    0.0584 C   0  0  0  0  0  0  0  0  0  0  0  0
   -0.4296   -2.6818    1.0828 C   0  0  0  0  0  0  0  0  0  0  0  0
    0.1778   -1.3970    0.5529 C   0  0  0  0  0  0  0  0  0  0  0  0
    1.2633   -0.6856    1.3522 C   0  0  0  0  0  0  0  0  0  0  0  0
    1.8319    0.2696    0.3266 C   0  0  0  0  0  3  0  0  0  0  0  0
    1.5928   -0.2986   -1.0618 C   0  0  0  0  0  0  0  0  0  0  0  0
    0.8521   -1.6168   -0.8024 C   0  0  0  0  0  0  0  0  0  0  0  0
   -0.1435   -2.1114   -1.8364 C   0  0  0  0  0  0  0  0  0  0  0  0
   -0.0564   -4.1893   -1.2945 H   0  0  0  0  0  0  0  0  0  0  0  0
   -1.5746   -3.7264   -2.0395 H   0  0  0  0  0  0  0  0  0  0  0  0
   -2.2748   -2.5370   -0.0081 H   0  0  0  0  0  0  0  0  0  0  0  0
   -1.8342   -4.1849    0.3984 H   0  0  0  0  0  0  0  0  0  0  0  0
   -0.9259   -2.5150    2.0422 H   0  0  0  0  0  0  0  0  0  0  0  0
    0.3658   -3.4162    1.2567 H   0  0  0  0  0  0  0  0  0  0  0  0
   -0.6389   -0.6760    0.4055 H   0  0  0  0  0  0  0  0  0  0  0  0
    0.8831   -0.1814    2.2439 H   0  0  0  0  0  0  0  0  0  0  0  0
    2.0238   -1.4050    1.6851 H   0  0  0  0  0  0  0  0  0  0  0  0
    0.8936    1.3788    0.4077 H   0  0  0  0  0  0  0  0  0  0  0  0
    2.7752    0.7664    0.5361 H   0  0  0  0  0  0  0  0  0  0  0  0
    2.5213   -0.4421   -1.6193 H   0  0  0  0  0  0  0  0  0  0  0  0
    0.9727    0.3787   -1.6613 H   0  0  0  0  0  0  0  0  0  0  0  0
    1.6050   -2.4040   -0.6565 H   0  0  0  0  0  0  0  0  0  0  0  0
    0.3425   -2.2908   -2.7991 H   0  0  0  0  0  0  0  0  0  0  0  0
   -0.9018   -1.3371   -2.0029 H   0  0  0  0  0  0  0  0  0  0  0  0
  1  2  2  3
  1  7  1  0
  1  8  1  0
  2  3  1  0
  2  9  1  0
  3  4  1  0
  3  5  1  0
  3 34  1  0
  4 10  1  0
  4 11  1  0
  4 12  1  0
  5  6  2  3
  5 13  1  0
  6 14  1  0
  6 15  1  0
 16 17  1  0
 16 24  1  0
 16 25  1  0
 16 26  1  0
 17 18  1  0
 17 27  1  0
 17 28  1  0
 18 19  1  0
 18 29  1  0
 18 30  1  0
 19 20  1  0
 19 23  1  0
 19 31  1  0
 20 21  1  0
 20 32  1  0
 20 33  1  0
 21 22  1  0
 21 35  1  0
 22 23  1  0
 22 36  1  0
 22 37  1  0
 23 24  1  0
 23 38  1  0
 24 39  1  0
 24 40  1  0
M  RAD  1  21   2
M  END
>  <reaction>  (4) 
rxn_607

>  <mol_properties>  (4) 
{"1": {"label": "*0", "atom_type": "Cd"}, "2": {"label": "*1", "atom_type": "Cs"}, "19": {"label": "*4", "atom_type": "Cs"}, "20": {"label": "*3", "atom_type": "Cs"}, "33": {"label": "*2", "atom_type": "H0"}}

>  <type>  (4) 
ts

$$$$
