
     RDKit          3D

  7  6  0  0  0  0  0  0  0  0999 V2000
    1.6964   -0.0938    0.0583 C   0  0  0  0  0  0  0  0  0  0  0  0
    0.5019   -0.0278    0.0173 C   0  0  0  0  0  0  0  0  0  0  0  0
   -0.9505    0.0525   -0.0327 C   0  0  0  0  0  0  0  0  0  0  0  0
    2.7574   -0.1524    0.0947 H   0  0  0  0  0  0  0  0  0  0  0  0
   -1.2692    0.9972   -0.4754 H   0  0  0  0  0  0  0  0  0  0  0  0
   -1.3749   -0.0147    0.9700 H   0  0  0  0  0  0  0  0  0  0  0  0
   -1.3610   -0.7611   -0.6323 H   0  0  0  0  0  0  0  0  0  0  0  0
  1  2  3  0
  1  4  1  0
  2  3  1  0
  3  5  1  0
  3  6  1  0
  3  7  1  0
M  END
>  <reaction>  (1) 
rxn_1254

>  <mol_properties>  (1) 
{"2": {"label": "donator", "atom_type": "Cs"}, "4": {"label": "d_hydrogen", "atom_type": "H0"}}

>  <type>  (1) 
r1h

$$$$

     RDKit          3D

  4  3  0  0  0  0  0  0  0  0999 V2000
   -0.7528   -0.8706   -0.3839 S   0  0  0  0  0  0  0  0  0  0  0  0
    0.7502   -0.2564   -0.0649 C   0  0  0  0  0  3  0  0  0  0  0  0
    1.5655    0.9691    0.4633 S   0  0  0  0  0  0  0  0  0  0  0  0
   -1.5629    0.1579   -0.0146 H   0  0  0  0  0  0  0  0  0  0  0  0
  1  2  1  0
  1  4  1  0
  2  3  2  0
M  RAD  1   2   2
M  END
>  <reaction>  (2) 
rxn_1254

>  <mol_properties>  (2) 
{"1": {"label": "acceptor", "atom_type": "CS"}}

>  <type>  (2) 
r2

$$$$

     RDKit          3D

  5  4  0  0  0  0  0  0  0  0999 V2000
    1.2280   -0.4626    0.1225 S   0  0  0  0  0  0  0  0  0  0  0  0
   -0.4732   -0.2566   -0.0746 C   0  0  0  0  0  0  0  0  0  0  0  0
   -1.3314    1.1074   -0.0947 S   0  0  0  0  0  0  0  0  0  0  0  0
    1.5289    0.8405    0.2416 H   0  0  0  0  0  0  0  0  0  0  0  0
   -0.9523   -1.2286   -0.1949 H   0  0  0  0  0  0  0  0  0  0  0  0
  1  2  1  0
  1  4  1  0
  2  3  2  0
  2  5  1  0
M  END
>  <reaction>  (3) 
rxn_1254

>  <mol_properties>  (3) 
{"1": {"label": "acceptor", "atom_type": "CS"}, "4": {"label": "a_hydrogen", "atom_type": "H0"}}

>  <type>  (3) 
r2h

$$$$

     RDKit          3D

 11  9  0  0  0  0  0  0  0  0999 V2000
   -0.5074    0.5707    2.0787 S   0  0  0  0  0  0  0  0  0  0  0  0
   -0.0740    0.4844    0.4327 C   0  0  0  0  0  0  0  0  0  0  0  0
    0.5015    1.5329   -0.6127 S   0  0  0  0  0  0  0  0  0  0  0  0
   -0.2180    1.8664    2.3061 H   0  0  0  0  0  0  0  0  0  0  0  0
    0.2869   -1.6819   -2.9904 C   0  0  0  0  0  0  0  0  0  0  0  0
   -0.0816   -1.8845   -1.8616 C   0  0  0  0  0  0  0  0  0  0  0  0
   -0.4924   -2.0226   -0.5170 C   0  0  0  0  0  3  0  0  0  0  0  0
    0.6084   -1.5212   -3.9910 H   0  0  0  0  0  0  0  0  0  0  0  0
   -0.2992   -0.7740    0.0107 H   0  0  0  0  0  0  0  0  0  0  0  0
    0.1382   -2.6548    0.1035 H   0  0  0  0  0  0  0  0  0  0  0  0
   -1.5557   -2.1939   -0.3668 H   0  0  0  0  0  0  0  0  0  0  0  0
  1  2  1  0
  1  4  1  0
  2  3  2  0
  2  9  1  0
  5  6  3  0
  5  8  1  0
  6  7  1  0
  7 10  1  0
  7 11  1  0
M  RAD  1   7   2
M  END
>  <reaction>  (4) 
rxn_1254

>  <mol_properties>  (4) 
{"0": {"label": "*0", "atom_type": "S2s"}, "1": {"label": "*1", "atom_type": "CS"}, "5": {"label": "*4", "atom_type": "Ct"}, "6": {"label": "*3", "atom_type": "Cs"}, "8": {"label": "*2", "atom_type": "H0"}}

>  <type>  (4) 
ts

$$$$
