
     RDKit          3D

 14 13  0  0  0  0  0  0  0  0999 V2000
   -0.7648   -1.2351   -0.0349 C   0  0  0  0  0  0  0  0  0  0  0  0
    0.0570   -0.0126    0.3624 C   0  0  0  0  0  0  0  0  0  0  0  0
    1.4161   -0.0194   -0.3307 C   0  0  0  0  0  0  0  0  0  0  0  0
   -0.7022    1.2765    0.0630 C   0  0  0  0  0  0  0  0  0  0  0  0
   -0.2387   -2.1618    0.2039 H   0  0  0  0  0  0  0  0  0  0  0  0
   -0.9625   -1.2315   -1.1108 H   0  0  0  0  0  0  0  0  0  0  0  0
   -1.7273   -1.2512    0.4806 H   0  0  0  0  0  0  0  0  0  0  0  0
    0.2295   -0.0590    1.4432 H   0  0  0  0  0  0  0  0  0  0  0  0
    1.2933    0.0258   -1.4168 H   0  0  0  0  0  0  0  0  0  0  0  0
    2.0206    0.8382   -0.0279 H   0  0  0  0  0  0  0  0  0  0  0  0
    1.9767   -0.9268   -0.0965 H   0  0  0  0  0  0  0  0  0  0  0  0
   -1.6639    1.3001    0.5799 H   0  0  0  0  0  0  0  0  0  0  0  0
   -0.8977    1.3664   -1.0096 H   0  0  0  0  0  0  0  0  0  0  0  0
   -0.1313    2.1545    0.3722 H   0  0  0  0  0  0  0  0  0  0  0  0
  1  2  1  0
  1  5  1  0
  1  6  1  0
  1  7  1  0
  2  3  1  0
  2  4  1  0
  2  8  1  0
  3  9  1  0
  3 10  1  0
  3 11  1  0
  4 12  1  0
  4 13  1  0
  4 14  1  0
M  END
>  <reaction>  (1) 
rxn_987

>  <mol_properties>  (1) 
{"1": {"label": "donator", "atom_type": "Cs"}, "7": {"label": "d_hydrogen", "atom_type": "H0"}}

>  <type>  (1) 
r1h

$$$$

     RDKit          3D

 10  9  0  0  0  0  0  0  0  0999 V2000
   -1.2648    0.1959    0.8197 C   0  0  0  0  0  0  0  0  0  0  0  0
   -0.2805    0.0995   -0.3030 C   0  0  0  0  0  3  0  0  0  0  0  0
   -0.0444    1.1347   -1.1797 C   0  0  0  0  0  0  0  0  0  0  0  0
    0.1640    2.0467   -1.9525 C   0  0  0  0  0  0  0  0  0  0  0  0
    0.5686   -1.4168   -0.4488 S   0  0  0  0  0  0  0  0  0  0  0  0
   -2.0466   -0.5638    0.7258 H   0  0  0  0  0  0  0  0  0  0  0  0
   -0.7765    0.0454    1.7871 H   0  0  0  0  0  0  0  0  0  0  0  0
   -1.7371    1.1762    0.8222 H   0  0  0  0  0  0  0  0  0  0  0  0
    0.3433    2.8484   -2.6273 H   0  0  0  0  0  0  0  0  0  0  0  0
    1.3075   -1.0953   -1.5176 H   0  0  0  0  0  0  0  0  0  0  0  0
  1  2  1  0
  1  6  1  0
  1  7  1  0
  1  8  1  0
  2  3  1  0
  2  5  1  0
  3  4  3  0
  4  9  1  0
  5 10  1  0
M  RAD  1   2   2
M  END
>  <reaction>  (2) 
rxn_987

>  <mol_properties>  (2) 
{"1": {"label": "acceptor", "atom_type": "Cs"}}

>  <type>  (2) 
r2

$$$$

     RDKit          3D

 11 10  0  0  0  0  0  0  0  0999 V2000
   -1.2582   -0.5130    0.2160 C   0  0  0  0  0  0  0  0  0  0  0  0
   -0.1109    0.0509   -0.6210 C   0  0  0  0  0  0  0  0  0  0  0  0
    1.1862   -0.2025   -0.0072 C   0  0  0  0  0  0  0  0  0  0  0  0
    2.2351   -0.4206    0.5274 C   0  0  0  0  0  0  0  0  0  0  0  0
   -0.3298    1.8272   -1.0120 S   0  0  0  0  0  0  0  0  0  0  0  0
   -1.2875   -0.0327    1.1945 H   0  0  0  0  0  0  0  0  0  0  0  0
   -2.2088   -0.3391   -0.2866 H   0  0  0  0  0  0  0  0  0  0  0  0
   -1.1220   -1.5854    0.3655 H   0  0  0  0  0  0  0  0  0  0  0  0
   -0.1222   -0.4181   -1.6078 H   0  0  0  0  0  0  0  0  0  0  0  0
    3.1729   -0.6098    0.9920 H   0  0  0  0  0  0  0  0  0  0  0  0
   -0.1942    2.2663    0.2466 H   0  0  0  0  0  0  0  0  0  0  0  0
  1  2  1  0
  1  6  1  0
  1  7  1  0
  1  8  1  0
  2  3  1  0
  2  5  1  0
  2  9  1  0
  3  4  3  0
  4 10  1  0
  5 11  1  0
M  END
>  <reaction>  (3) 
rxn_987

>  <mol_properties>  (3) 
{"1": {"label": "acceptor", "atom_type": "Cs"}, "10": {"label": "a_hydrogen", "atom_type": "H0"}}

>  <type>  (3) 
r2h

$$$$

     RDKit          3D

 24 22  0  0  0  0  0  0  0  0999 V2000
    0.5811   -0.4264    2.0486 C   0  0  0  0  0  0  0  0  0  0  0  0
    0.7255   -0.4157    0.5403 C   0  0  0  0  0  0  0  0  0  0  0  0
    0.6877   -1.6982   -0.0883 C   0  0  0  0  0  0  0  0  0  0  0  0
    0.6096   -2.7755   -0.6164 C   0  0  0  0  0  0  0  0  0  0  0  0
    1.9961    0.6900   -0.1079 S   0  0  0  0  0  0  0  0  0  0  0  0
    1.4658   -0.8563    2.5250 H   0  0  0  0  0  0  0  0  0  0  0  0
    0.4544    0.5906    2.4203 H   0  0  0  0  0  0  0  0  0  0  0  0
   -0.2855   -1.0228    2.3398 H   0  0  0  0  0  0  0  0  0  0  0  0
    0.5575   -3.7284   -1.0850 H   0  0  0  0  0  0  0  0  0  0  0  0
    3.0592   -0.0815    0.1679 H   0  0  0  0  0  0  0  0  0  0  0  0
   -1.4223    0.6297   -1.8125 C   0  0  0  0  0  0  0  0  0  0  0  0
   -1.5353    0.7733   -0.3174 C   0  0  0  0  0  3  0  0  0  0  0  0
   -1.4808    2.1882    0.1963 C   0  0  0  0  0  0  0  0  0  0  0  0
   -2.5820   -0.1016    0.3212 C   0  0  0  0  0  0  0  0  0  0  0  0
   -0.5699    1.1882   -2.2033 H   0  0  0  0  0  0  0  0  0  0  0  0
   -2.3260    1.0105   -2.3042 H   0  0  0  0  0  0  0  0  0  0  0  0
   -1.3027   -0.4170   -2.0986 H   0  0  0  0  0  0  0  0  0  0  0  0
   -0.3699    0.2023    0.1130 H   0  0  0  0  0  0  0  0  0  0  0  0
   -2.3762    2.7430   -0.1109 H   0  0  0  0  0  0  0  0  0  0  0  0
   -1.4372    2.2167    1.2870 H   0  0  0  0  0  0  0  0  0  0  0  0
   -0.6134    2.7227   -0.1958 H   0  0  0  0  0  0  0  0  0  0  0  0
   -2.4359   -1.1498    0.0517 H   0  0  0  0  0  0  0  0  0  0  0  0
   -3.5850    0.1899   -0.0140 H   0  0  0  0  0  0  0  0  0  0  0  0
   -2.5629   -0.0195    1.4098 H   0  0  0  0  0  0  0  0  0  0  0  0
  1  2  1  0
  1  6  1  0
  1  7  1  0
  1  8  1  0
  2  3  1  0
  2  5  1  0
  2 18  1  0
  3  4  3  0
  4  9  1  0
  5 10  1  0
 11 12  1  0
 11 15  1  0
 11 16  1  0
 11 17  1  0
 12 13  1  0
 12 14  1  0
 13 19  1  0
 13 20  1  0
 13 21  1  0
 14 22  1  0
 14 23  1  0
 14 24  1  0
M  RAD  1  12   2
M  END
>  <reaction>  (4) 
rxn_987

>  <mol_properties>  (4) 
{"1": {"label": "*1", "atom_type": "Cs"}, "4": {"label": "*0", "atom_type": "S2s"}, "10": {"label": "*4", "atom_type": "Cs"}, "11": {"label": "*3", "atom_type": "Cs"}, "17": {"label": "*2", "atom_type": "H0"}}

>  <type>  (4) 
ts

$$$$
