
     RDKit          3D

  9  8  0  0  0  0  0  0  0  0999 V2000
   -2.1022   -0.6873    0.3932 C   0  0  0  0  0  0  0  0  0  0  0  0
   -1.2072   -0.1086   -0.1482 C   0  0  0  0  0  0  0  0  0  0  0  0
   -0.1242    0.6105   -0.8193 C   0  0  0  0  0  0  0  0  0  0  0  0
    1.2067    0.1106   -0.4741 C   0  0  0  0  0  0  0  0  0  0  0  0
    2.3005   -0.2875   -0.2012 C   0  0  0  0  0  0  0  0  0  0  0  0
   -2.8942   -1.2059    0.8778 H   0  0  0  0  0  0  0  0  0  0  0  0
   -0.1862    1.6723   -0.5649 H   0  0  0  0  0  0  0  0  0  0  0  0
   -0.2641    0.5418   -1.9017 H   0  0  0  0  0  0  0  0  0  0  0  0
    3.2709   -0.6459    0.0455 H   0  0  0  0  0  0  0  0  0  0  0  0
  1  2  3  0
  1  6  1  0
  2  3  1  0
  3  4  1  0
  3  7  1  0
  3  8  1  0
  4  5  3  0
  5  9  1  0
M  END
>  <reaction>  (1) 
rxn_1374

>  <mol_properties>  (1) 
{"2": {"label": "donator", "atom_type": "Cs"}, "6": {"label": "d_hydrogen", "atom_type": "H0"}}

>  <type>  (1) 
r1h

$$$$

     RDKit          3D

  7  6  0  0  0  0  0  0  0  0999 V2000
   -1.3496    0.0255    0.0758 C   0  0  0  0  0  0  0  0  0  0  0  0
   -0.0636   -0.0704   -0.0033 C   0  0  0  0  0  0  0  0  0  0  0  0
    1.2597   -0.1602   -0.0839 C   0  0  0  0  0  0  0  0  0  0  0  0
    2.2616    1.2090   -0.0064 S   0  0  0  0  0  1  0  0  0  0  0  0
   -1.8547   -0.0180    1.0345 H   0  0  0  0  0  0  0  0  0  0  0  0
   -1.9552    0.1601   -0.8138 H   0  0  0  0  0  0  0  0  0  0  0  0
    1.7017   -1.1460   -0.2029 H   0  0  0  0  0  0  0  0  0  0  0  0
  1  2  2  0
  1  5  1  0
  1  6  1  0
  2  3  2  0
  3  4  1  0
  3  7  1  0
M  RAD  1   4   2
M  END
>  <reaction>  (2) 
rxn_1374

>  <mol_properties>  (2) 
{"1": {"label": "acceptor", "atom_type": "Cd"}}

>  <type>  (2) 
r2

$$$$

     RDKit          3D

  8  7  0  0  0  0  0  0  0  0999 V2000
   -1.1617    0.0338    0.5053 C   0  0  0  0  0  0  0  0  0  0  0  0
   -0.1023    0.4503   -0.1863 C   0  0  0  0  0  0  0  0  0  0  0  0
    1.0978   -0.3557   -0.3104 C   0  0  0  0  0  0  0  0  0  0  0  0
    2.4251    0.0667   -1.1256 S   0  0  0  0  0  0  0  0  0  0  0  0
   -1.1653   -0.9292    1.0039 H   0  0  0  0  0  0  0  0  0  0  0  0
   -2.0546    0.6389    0.5948 H   0  0  0  0  0  0  0  0  0  0  0  0
   -0.0991    1.4132   -0.6847 H   0  0  0  0  0  0  0  0  0  0  0  0
    1.0601   -1.3180    0.2032 H   0  0  0  0  0  0  0  0  0  0  0  0
  1  2  2  3
  1  5  1  0
  1  6  1  0
  2  3  1  0
  2  7  1  0
  3  4  2  0
  3  8  1  0
M  END
>  <reaction>  (3) 
rxn_1374

>  <mol_properties>  (3) 
{"0": {"label": "a_hydrogen", "atom_type": "H0"}, "2": {"label": "acceptor", "atom_type": "Cd"}}

>  <type>  (3) 
r2h

$$$$

     RDKit          3D

 16 14  0  0  0  0  0  0  0  0999 V2000
   -0.3880   -0.6864   -3.5174 C   0  0  0  0  0  0  0  0  0  0  0  0
   -0.4608   -0.8143   -2.3266 C   0  0  0  0  0  0  0  0  0  0  0  0
   -0.4955   -0.9391   -0.9018 C   0  0  0  0  0  0  0  0  0  0  0  0
   -1.7265   -0.6627   -0.2281 C   0  0  0  0  0  0  0  0  0  0  0  0
   -2.7159   -0.3850    0.3903 C   0  0  0  0  0  0  0  0  0  0  0  0
   -0.3409   -0.5846   -4.5752 H   0  0  0  0  0  0  0  0  0  0  0  0
    0.3113    0.0004   -0.4426 H   0  0  0  0  0  0  0  0  0  0  0  0
    0.0229   -1.8192   -0.5226 H   0  0  0  0  0  0  0  0  0  0  0  0
   -3.6054   -0.1574    0.9273 H   0  0  0  0  0  0  0  0  0  0  0  0
    2.0127    1.2601   -0.9689 C   0  0  0  0  0  0  0  0  0  0  0  0
    1.2173    0.8934    0.0056 C   0  0  0  0  0  0  0  0  0  0  0  0
    0.9921    1.0795    1.3888 C   0  0  0  0  0  0  0  0  0  0  0  0
    1.3790   -0.0180    2.5351 S   0  0  0  0  0  1  0  0  0  0  0  0
    2.8613    1.9128   -0.7905 H   0  0  0  0  0  0  0  0  0  0  0  0
    1.8525    0.9072   -1.9817 H   0  0  0  0  0  0  0  0  0  0  0  0
    0.4445    1.9815    1.6637 H   0  0  0  0  0  0  0  0  0  0  0  0
  1  2  3  0
  1  6  1  0
  2  3  1  0
  3  4  1  0
  3  7  1  0
  3  8  1  0
  4  5  3  0
  5  9  1  0
 10 11  2  0
 10 14  1  0
 10 15  1  0
 11 12  2  0
 12 13  1  0
 12 16  1  0
M  RAD  1  13   2
M  END
>  <reaction>  (4) 
rxn_1374

>  <mol_properties>  (4) 
{"1": {"label": "*0", "atom_type": "Ct"}, "2": {"label": "*1", "atom_type": "Cs"}, "6": {"label": "*2", "atom_type": "H0"}, "10": {"label": "*3", "atom_type": "Cdd"}, "11": {"label": "*4", "atom_type": "Cd"}}

>  <type>  (4) 
ts

$$$$
