
     RDKit          3D

  4  3  0  0  0  0  0  0  0  0999 V2000
    0.5949   -0.3853    0.2659 O   0  0  0  0  0  0  0  0  0  0  0  0
   -0.5918    0.4028    0.2462 O   0  0  0  0  0  0  0  0  0  0  0  0
    1.1865    0.1539   -0.2689 H   0  0  0  0  0  0  0  0  0  0  0  0
   -1.1896   -0.1714   -0.2432 H   0  0  0  0  0  0  0  0  0  0  0  0
  1  2  1  0
  1  3  1  0
  2  4  1  0
M  END
>  <reaction>  (1) 
rxn_399

>  <mol_properties>  (1) 
{"1": {"label": "donator", "atom_type": "O2s"}, "3": {"label": "d_hydrogen", "atom_type": "H0"}}

>  <type>  (1) 
r1h

$$$$

     RDKit          3D

 14 13  0  0  0  0  0  0  0  0999 V2000
    2.0213   -0.4754    0.1269 C   0  0  0  0  0  3  0  0  0  0  0  0
    0.7442   -0.1818   -0.5688 C   0  0  0  0  0  0  0  0  0  0  0  0
    0.8895   -0.1481   -2.0943 C   0  0  0  0  0  0  0  0  0  0  0  0
   -0.4084    0.2063   -2.7881 C   0  0  0  0  0  0  0  0  0  0  0  0
    1.2989   -1.4091   -2.5921 O   0  0  0  0  0  0  0  0  0  0  0  0
    2.9199    0.0702   -0.1377 H   0  0  0  0  0  0  0  0  0  0  0  0
    2.0644   -1.1304    0.9857 H   0  0  0  0  0  0  0  0  0  0  0  0
   -0.0190   -0.9186   -0.3045 H   0  0  0  0  0  0  0  0  0  0  0  0
    0.3596    0.7988   -0.2492 H   0  0  0  0  0  0  0  0  0  0  0  0
    1.6473    0.6092   -2.3461 H   0  0  0  0  0  0  0  0  0  0  0  0
   -0.7474    1.1989   -2.4875 H   0  0  0  0  0  0  0  0  0  0  0  0
   -1.1822   -0.5209   -2.5347 H   0  0  0  0  0  0  0  0  0  0  0  0
   -0.2721    0.1980   -3.8695 H   0  0  0  0  0  0  0  0  0  0  0  0
    2.0431   -1.7082   -2.0635 H   0  0  0  0  0  0  0  0  0  0  0  0
  1  2  1  0
  1  6  1  0
  1  7  1  0
  2  3  1  0
  2  8  1  0
  2  9  1  0
  3  4  1  0
  3  5  1  0
  3 10  1  0
  4 11  1  0
  4 12  1  0
  4 13  1  0
  5 14  1  0
M  RAD  1   1   2
M  END
>  <reaction>  (2) 
rxn_399

>  <mol_properties>  (2) 
{"0": {"label": "acceptor", "atom_type": "Cs"}}

>  <type>  (2) 
r2

$$$$

     RDKit          3D

 15 14  0  0  0  0  0  0  0  0999 V2000
    1.8142    0.7938   -0.4532 C   0  0  0  0  0  0  0  0  0  0  0  0
    0.8343   -0.0482    0.3508 C   0  0  0  0  0  0  0  0  0  0  0  0
    1.2689   -1.5028    0.5052 C   0  0  0  0  0  0  0  0  0  0  0  0
    0.3206   -2.2929    1.3933 C   0  0  0  0  0  0  0  0  0  0  0  0
    1.4305   -2.1354   -0.7561 O   0  0  0  0  0  0  0  0  0  0  0  0
    1.9652    0.3705   -1.4464 H   0  0  0  0  0  0  0  0  0  0  0  0
    1.4536    1.8171   -0.5671 H   0  0  0  0  0  0  0  0  0  0  0  0
    2.7876    0.8346    0.0411 H   0  0  0  0  0  0  0  0  0  0  0  0
    0.7005    0.3820    1.3477 H   0  0  0  0  0  0  0  0  0  0  0  0
   -0.1543   -0.0316   -0.1246 H   0  0  0  0  0  0  0  0  0  0  0  0
    2.2701   -1.5232    0.9456 H   0  0  0  0  0  0  0  0  0  0  0  0
   -0.6918   -2.2835    0.9773 H   0  0  0  0  0  0  0  0  0  0  0  0
    0.2728   -1.8641    2.3960 H   0  0  0  0  0  0  0  0  0  0  0  0
    0.6493   -3.3293    1.4729 H   0  0  0  0  0  0  0  0  0  0  0  0
    0.5703   -2.1794   -1.1802 H   0  0  0  0  0  0  0  0  0  0  0  0
  1  2  1  0
  1  6  1  0
  1  7  1  0
  1  8  1  0
  2  3  1  0
  2  9  1  0
  2 10  1  0
  3  4  1  0
  3  5  1  0
  3 11  1  0
  4 12  1  0
  4 13  1  0
  4 14  1  0
  5 15  1  0
M  END
>  <reaction>  (3) 
rxn_399

>  <mol_properties>  (3) 
{"0": {"label": "a_hydrogen", "atom_type": "H0"}, "1": {"label": "acceptor", "atom_type": "Cs"}}

>  <type>  (3) 
r2h

$$$$

     RDKit          3D

 18 16  0  0  0  0  0  0  0  0999 V2000
    1.0573   -2.4225   -1.2645 O   0  0  0  0  0  0  0  0  0  0  0  0
   -0.0197   -1.9921   -2.0308 O   0  0  0  0  0  0  0  0  0  0  0  0
    0.6399   -2.9888   -0.6052 H   0  0  0  0  0  0  0  0  0  0  0  0
   -0.2808   -0.9405   -1.6123 H   0  0  0  0  0  0  0  0  0  0  0  0
   -0.5349    0.2620   -1.0262 C   0  0  0  0  0  3  0  0  0  0  0  0
   -0.0895    0.1174    0.3956 C   0  0  0  0  0  0  0  0  0  0  0  0
   -0.0497    1.4554    1.1532 C   0  0  0  0  0  0  0  0  0  0  0  0
    0.3134    1.2549    2.6159 C   0  0  0  0  0  0  0  0  0  0  0  0
    0.8229    2.3767    0.5262 O   0  0  0  0  0  0  0  0  0  0  0  0
    0.0628    0.9339   -1.6363 H   0  0  0  0  0  0  0  0  0  0  0  0
   -1.6056    0.3744   -1.1852 H   0  0  0  0  0  0  0  0  0  0  0  0
   -0.7510   -0.5669    0.9337 H   0  0  0  0  0  0  0  0  0  0  0  0
    0.9164   -0.3184    0.4276 H   0  0  0  0  0  0  0  0  0  0  0  0
   -1.0349    1.9242    1.0886 H   0  0  0  0  0  0  0  0  0  0  0  0
    1.2928    0.7754    2.7060 H   0  0  0  0  0  0  0  0  0  0  0  0
   -0.4180    0.6205    3.1195 H   0  0  0  0  0  0  0  0  0  0  0  0
    0.3521    2.2161    3.1287 H   0  0  0  0  0  0  0  0  0  0  0  0
    1.7205    2.0443    0.6021 H   0  0  0  0  0  0  0  0  0  0  0  0
  1  2  1  0
  1  3  1  0
  2  4  1  0
  5  6  1  0
  5 10  1  0
  5 11  1  0
  6  7  1  0
  6 12  1  0
  6 13  1  0
  7  8  1  0
  7  9  1  0
  7 14  1  0
  8 15  1  0
  8 16  1  0
  8 17  1  0
  9 18  1  0
M  RAD  1   5   2
M  END
>  <reaction>  (4) 
rxn_399

>  <mol_properties>  (4) 
{"0": {"label": "*0", "atom_type": "O2s"}, "1": {"label": "*1", "atom_type": "O2s"}, "3": {"label": "*2", "atom_type": "H0"}, "4": {"label": "*3", "atom_type": "Cs"}, "5": {"label": "*4", "atom_type": "Cs"}}

>  <type>  (4) 
ts

$$$$
