
     RDKit          3D

 13 12  0  0  0  0  0  0  0  0999 V2000
    2.2975   -0.6134    0.7685 C   0  0  0  0  0  0  0  0  0  0  0  0
    1.1676   -0.5248    0.3802 C   0  0  0  0  0  0  0  0  0  0  0  0
   -0.2109   -0.3926   -0.0948 C   0  0  0  0  0  0  0  0  0  0  0  0
   -0.2501    0.2584   -1.4808 C   0  0  0  0  0  0  0  0  0  0  0  0
   -1.0633    0.3831    0.9141 C   0  0  0  0  0  0  0  0  0  0  0  0
    3.2999   -0.6974    1.1133 H   0  0  0  0  0  0  0  0  0  0  0  0
   -0.6209   -1.4038   -0.1814 H   0  0  0  0  0  0  0  0  0  0  0  0
    0.3402   -0.3102   -2.1992 H   0  0  0  0  0  0  0  0  0  0  0  0
    0.1511    1.2724   -1.4369 H   0  0  0  0  0  0  0  0  0  0  0  0
   -1.2791    0.3109   -1.8407 H   0  0  0  0  0  0  0  0  0  0  0  0
   -0.6861    1.4008    1.0287 H   0  0  0  0  0  0  0  0  0  0  0  0
   -1.0492   -0.0971    1.8924 H   0  0  0  0  0  0  0  0  0  0  0  0
   -2.0971    0.4363    0.5680 H   0  0  0  0  0  0  0  0  0  0  0  0
  1  2  3  0
  1  6  1  0
  2  3  1  0
  3  4  1  0
  3  5  1  0
  3  7  1  0
  4  8  1  0
  4  9  1  0
  4 10  1  0
  5 11  1  0
  5 12  1  0
  5 13  1  0
M  END
>  <reaction>  (1) 
rxn_1309

>  <mol_properties>  (1) 
{"2": {"label": "donator", "atom_type": "Cs"}, "6": {"label": "d_hydrogen", "atom_type": "H0"}}

>  <type>  (1) 
r1h

$$$$

     RDKit          3D

 12 11  0  0  0  0  0  0  0  0999 V2000
   -2.3791    0.4612   -0.5870 C   0  0  0  0  0  0  0  0  0  0  0  0
   -1.3422   -0.3138   -0.1893 C   0  0  0  0  0  0  0  0  0  0  0  0
   -1.4723   -1.6058    0.3589 C   0  0  0  0  0  3  0  0  0  0  0  0
   -0.3798   -2.3973    0.7671 C   0  0  0  0  0  0  0  0  0  0  0  0
   -0.4849   -3.6397    1.2956 C   0  0  0  0  0  0  0  0  0  0  0  0
   -2.2205    1.4472   -1.0017 H   0  0  0  0  0  0  0  0  0  0  0  0
   -3.4026    0.1153   -0.5011 H   0  0  0  0  0  0  0  0  0  0  0  0
   -0.3330    0.0765   -0.2952 H   0  0  0  0  0  0  0  0  0  0  0  0
   -2.4723   -2.0151    0.4735 H   0  0  0  0  0  0  0  0  0  0  0  0
    0.6117   -1.9687    0.6436 H   0  0  0  0  0  0  0  0  0  0  0  0
    0.3893   -4.2030    1.5920 H   0  0  0  0  0  0  0  0  0  0  0  0
   -1.4516   -4.1084    1.4378 H   0  0  0  0  0  0  0  0  0  0  0  0
  1  2  2  3
  1  6  1  0
  1  7  1  0
  2  3  1  0
  2  8  1  0
  3  4  1  0
  3  9  1  0
  4  5  2  3
  4 10  1  0
  5 11  1  0
  5 12  1  0
M  RAD  1   3   2
M  END
>  <reaction>  (2) 
rxn_1309

>  <mol_properties>  (2) 
{"2": {"label": "acceptor", "atom_type": "Cs"}}

>  <type>  (2) 
r2

$$$$

     RDKit          3D

 13 12  0  0  0  0  0  0  0  0999 V2000
    3.0977   -0.3549   -0.5105 C   0  0  0  0  0  0  0  0  0  0  0  0
    2.0556    0.4221   -0.2627 C   0  0  0  0  0  0  0  0  0  0  0  0
    0.6313   -0.0354   -0.2366 C   0  0  0  0  0  0  0  0  0  0  0  0
   -0.2567    0.6038   -1.2694 C   0  0  0  0  0  0  0  0  0  0  0  0
    0.1459    1.3456   -2.2891 C   0  0  0  0  0  0  0  0  0  0  0  0
    4.1081    0.0344   -0.5074 H   0  0  0  0  0  0  0  0  0  0  0  0
    2.9777   -1.4116   -0.7243 H   0  0  0  0  0  0  0  0  0  0  0  0
    2.2171    1.4781   -0.0618 H   0  0  0  0  0  0  0  0  0  0  0  0
    0.5865   -1.1233   -0.3540 H   0  0  0  0  0  0  0  0  0  0  0  0
    0.2065    0.1743    0.7521 H   0  0  0  0  0  0  0  0  0  0  0  0
   -1.3190    0.4126   -1.1445 H   0  0  0  0  0  0  0  0  0  0  0  0
    1.1948    1.5564   -2.4628 H   0  0  0  0  0  0  0  0  0  0  0  0
   -0.5644    1.7621   -2.9918 H   0  0  0  0  0  0  0  0  0  0  0  0
  1  2  2  3
  1  6  1  0
  1  7  1  0
  2  3  1  0
  2  8  1  0
  3  4  1  0
  3  9  1  0
  3 10  1  0
  4  5  2  3
  4 11  1  0
  5 12  1  0
  5 13  1  0
M  END
>  <reaction>  (3) 
rxn_1309

>  <mol_properties>  (3) 
{"0": {"label": "a_hydrogen", "atom_type": "H0"}, "3": {"label": "acceptor", "atom_type": "Cs"}}

>  <type>  (3) 
r2h

$$$$

     RDKit          3D

 25 23  0  0  0  0  0  0  0  0999 V2000
   -2.5721    1.5353   -1.4823 C   0  0  0  0  0  0  0  0  0  0  0  0
   -1.5059    1.5172   -0.9232 C   0  0  0  0  0  0  0  0  0  0  0  0
   -0.2608    1.4284   -0.2393 C   0  0  0  0  0  3  0  0  0  0  0  0
   -0.1036    2.3105    0.9775 C   0  0  0  0  0  0  0  0  0  0  0  0
    0.9638    1.2869   -1.1125 C   0  0  0  0  0  0  0  0  0  0  0  0
   -3.5087    1.5702   -1.9842 H   0  0  0  0  0  0  0  0  0  0  0  0
   -0.3138    0.1567    0.3261 H   0  0  0  0  0  0  0  0  0  0  0  0
   -0.9971    2.2861    1.6013 H   0  0  0  0  0  0  0  0  0  0  0  0
    0.0746    3.3496    0.6831 H   0  0  0  0  0  0  0  0  0  0  0  0
    0.7487    1.9766    1.5727 H   0  0  0  0  0  0  0  0  0  0  0  0
    1.1922    2.2290   -1.6201 H   0  0  0  0  0  0  0  0  0  0  0  0
    0.8164    0.5179   -1.8713 H   0  0  0  0  0  0  0  0  0  0  0  0
    1.8276    1.0153   -0.5020 H   0  0  0  0  0  0  0  0  0  0  0  0
    1.4357   -0.9005    2.6482 C   0  0  0  0  0  0  0  0  0  0  0  0
    1.0829   -1.1749    1.3932 C   0  0  0  0  0  0  0  0  0  0  0  0
   -0.2744   -1.0388    0.8626 C   0  0  0  0  0  0  0  0  0  0  0  0
   -0.7348   -1.8883   -0.2440 C   0  0  0  0  0  0  0  0  0  0  0  0
   -0.0096   -2.7549   -0.9493 C   0  0  0  0  0  0  0  0  0  0  0  0
    2.4635   -0.9821    2.9768 H   0  0  0  0  0  0  0  0  0  0  0  0
    0.7034   -0.5935    3.3871 H   0  0  0  0  0  0  0  0  0  0  0  0
    1.8554   -1.4753    0.6915 H   0  0  0  0  0  0  0  0  0  0  0  0
   -1.0309   -0.8886    1.6337 H   0  0  0  0  0  0  0  0  0  0  0  0
   -1.7741   -1.7409   -0.5224 H   0  0  0  0  0  0  0  0  0  0  0  0
   -0.4489   -3.3000   -1.7743 H   0  0  0  0  0  0  0  0  0  0  0  0
    1.0291   -2.9648   -0.7254 H   0  0  0  0  0  0  0  0  0  0  0  0
  1  2  3  0
  1  6  1  0
  2  3  1  0
  3  4  1  0
  3  5  1  0
  4  8  1  0
  4  9  1  0
  4 10  1  0
  5 11  1  0
  5 12  1  0
  5 13  1  0
  7 16  1  0
 14 15  2  3
 14 19  1  0
 14 20  1  0
 15 16  1  0
 15 21  1  0
 16 17  1  0
 16 22  1  0
 17 18  2  3
 17 23  1  0
 18 24  1  0
 18 25  1  0
M  RAD  1   3   2
M  END
>  <reaction>  (4) 
rxn_1309

>  <mol_properties>  (4) 
{"1": {"label": "*4", "atom_type": "Ct"}, "2": {"label": "*3", "atom_type": "Cs"}, "6": {"label": "*2", "atom_type": "H0"}, "14": {"label": "*0", "atom_type": "Cd"}, "15": {"label": "*1", "atom_type": "Cs"}}

>  <type>  (4) 
ts

$$$$
