
     RDKit          3D

 10  9  0  0  0  0  0  0  0  0999 V2000
   -1.1508    0.0666    0.2839 C   0  0  0  0  0  0  0  0  0  0  0  0
    0.1022   -0.3749   -0.4771 C   0  0  0  0  0  0  0  0  0  0  0  0
    1.3428    0.1620    0.1542 C   0  0  0  0  0  0  0  0  0  0  0  0
    2.5613   -0.6971    0.7526 S   0  0  0  0  0  0  0  0  0  0  0  0
   -1.2137    1.1546    0.3481 H   0  0  0  0  0  0  0  0  0  0  0  0
   -2.0472   -0.2935   -0.2212 H   0  0  0  0  0  0  0  0  0  0  0  0
   -1.1467   -0.3334    1.2987 H   0  0  0  0  0  0  0  0  0  0  0  0
    0.1602   -1.4616   -0.5369 H   0  0  0  0  0  0  0  0  0  0  0  0
    0.0536    0.0174   -1.4997 H   0  0  0  0  0  0  0  0  0  0  0  0
    1.3824    1.2528    0.2110 H   0  0  0  0  0  0  0  0  0  0  0  0
  1  2  1  0
  1  5  1  0
  1  6  1  0
  1  7  1  0
  2  3  1  0
  2  8  1  0
  2  9  1  0
  3  4  2  0
  3 10  1  0
M  END
>  <reaction>  (1) 
rxn_1998

>  <mol_properties>  (1) 
{"1": {"label": "donator", "atom_type": "Cs"}, "7": {"label": "d_hydrogen", "atom_type": "H0"}}

>  <type>  (1) 
r1h

$$$$

     RDKit          3D

 13 12  0  0  0  0  0  0  0  0999 V2000
   -1.3649   -0.5967   -0.3477 C   0  0  0  0  0  0  0  0  0  0  0  0
   -0.1601   -0.2776    0.4669 C   0  0  0  0  0  3  0  0  0  0  0  0
    1.1241   -0.9571    0.1414 C   0  0  0  0  0  0  0  0  0  0  0  0
   -0.1188    1.0130    1.2082 C   0  0  0  0  0  0  0  0  0  0  0  0
   -1.4265   -1.6632   -0.5770 H   0  0  0  0  0  0  0  0  0  0  0  0
   -2.2858   -0.3004    0.1602 H   0  0  0  0  0  0  0  0  0  0  0  0
   -1.3532   -0.0668   -1.3139 H   0  0  0  0  0  0  0  0  0  0  0  0
    1.6174   -0.4963   -0.7297 H   0  0  0  0  0  0  0  0  0  0  0  0
    0.9723   -2.0104   -0.1064 H   0  0  0  0  0  0  0  0  0  0  0  0
    1.8338   -0.8977    0.9701 H   0  0  0  0  0  0  0  0  0  0  0  0
   -1.0851    1.2507    1.6593 H   0  0  0  0  0  0  0  0  0  0  0  0
    0.6358    1.0009    1.9983 H   0  0  0  0  0  0  0  0  0  0  0  0
    0.1343    1.8546    0.5434 H   0  0  0  0  0  0  0  0  0  0  0  0
  1  2  1  0
  1  5  1  0
  1  6  1  0
  1  7  1  0
  2  3  1  0
  2  4  1  0
  3  8  1  0
  3  9  1  0
  3 10  1  0
  4 11  1  0
  4 12  1  0
  4 13  1  0
M  RAD  1   2   2
M  END
>  <reaction>  (2) 
rxn_1998

>  <mol_properties>  (2) 
{"1": {"label": "acceptor", "atom_type": "Cs"}}

>  <type>  (2) 
r2

$$$$

     RDKit          3D

 14 13  0  0  0  0  0  0  0  0999 V2000
   -0.7647   -1.2352   -0.0349 C   0  0  0  0  0  0  0  0  0  0  0  0
    0.0570   -0.0126    0.3624 C   0  0  0  0  0  0  0  0  0  0  0  0
    1.4161   -0.0194   -0.3307 C   0  0  0  0  0  0  0  0  0  0  0  0
   -0.7022    1.2765    0.0630 C   0  0  0  0  0  0  0  0  0  0  0  0
   -0.2387   -2.1618    0.2040 H   0  0  0  0  0  0  0  0  0  0  0  0
   -0.9624   -1.2315   -1.1108 H   0  0  0  0  0  0  0  0  0  0  0  0
   -1.7273   -1.2512    0.4805 H   0  0  0  0  0  0  0  0  0  0  0  0
    0.2295   -0.0590    1.4432 H   0  0  0  0  0  0  0  0  0  0  0  0
    1.2933    0.0259   -1.4168 H   0  0  0  0  0  0  0  0  0  0  0  0
    2.0206    0.8381   -0.0279 H   0  0  0  0  0  0  0  0  0  0  0  0
    1.9767   -0.9268   -0.0965 H   0  0  0  0  0  0  0  0  0  0  0  0
   -1.6638    1.3002    0.5800 H   0  0  0  0  0  0  0  0  0  0  0  0
   -0.8979    1.3663   -1.0096 H   0  0  0  0  0  0  0  0  0  0  0  0
   -0.1313    2.1545    0.3721 H   0  0  0  0  0  0  0  0  0  0  0  0
  1  2  1  0
  1  5  1  0
  1  6  1  0
  1  7  1  0
  2  3  1  0
  2  4  1  0
  2  8  1  0
  3  9  1  0
  3 10  1  0
  3 11  1  0
  4 12  1  0
  4 13  1  0
  4 14  1  0
M  END
>  <reaction>  (3) 
rxn_1998

>  <mol_properties>  (3) 
{"0": {"label": "a_hydrogen", "atom_type": "H0"}, "2": {"label": "acceptor", "atom_type": "Cs"}}

>  <type>  (3) 
r2h

$$$$

     RDKit          3D

 23 21  0  0  0  0  0  0  0  0999 V2000
    0.4628    0.1571   -2.3636 C   0  0  0  0  0  0  0  0  0  0  0  0
    1.2116   -0.0749   -1.0727 C   0  0  0  0  0  0  0  0  0  0  0  0
    1.6336    1.0578   -0.2770 C   0  0  0  0  0  0  0  0  0  0  0  0
    1.0388    2.5761   -0.3342 S   0  0  0  0  0  0  0  0  0  0  0  0
    1.1170    0.6047   -3.1147 H   0  0  0  0  0  0  0  0  0  0  0  0
    0.0823   -0.7857   -2.7596 H   0  0  0  0  0  0  0  0  0  0  0  0
   -0.3729    0.8393   -2.2115 H   0  0  0  0  0  0  0  0  0  0  0  0
    0.3924   -0.6578   -0.3295 H   0  0  0  0  0  0  0  0  0  0  0  0
    1.9886   -0.8384   -1.1450 H   0  0  0  0  0  0  0  0  0  0  0  0
    2.3935    0.8275    0.4708 H   0  0  0  0  0  0  0  0  0  0  0  0
   -1.8575   -0.4592    0.1217 C   0  0  0  0  0  0  0  0  0  0  0  0
   -0.6648   -1.2997    0.4711 C   0  0  0  0  0  3  0  0  0  0  0  0
   -0.0923   -1.0750    1.8393 C   0  0  0  0  0  0  0  0  0  0  0  0
   -0.6737   -2.7150   -0.0259 C   0  0  0  0  0  0  0  0  0  0  0  0
   -1.6542    0.6013    0.2846 H   0  0  0  0  0  0  0  0  0  0  0  0
   -2.1556   -0.5971   -0.9186 H   0  0  0  0  0  0  0  0  0  0  0  0
   -2.7146   -0.7317    0.7509 H   0  0  0  0  0  0  0  0  0  0  0  0
   -0.7896   -1.4249    2.6105 H   0  0  0  0  0  0  0  0  0  0  0  0
    0.0878   -0.0130    2.0215 H   0  0  0  0  0  0  0  0  0  0  0  0
    0.8470   -1.6147    1.9757 H   0  0  0  0  0  0  0  0  0  0  0  0
   -0.9346   -2.7648   -1.0848 H   0  0  0  0  0  0  0  0  0  0  0  0
    0.2963   -3.1956    0.1157 H   0  0  0  0  0  0  0  0  0  0  0  0
   -1.4162   -3.3101    0.5213 H   0  0  0  0  0  0  0  0  0  0  0  0
  1  2  1  0
  1  5  1  0
  1  6  1  0
  1  7  1  0
  2  3  1  0
  2  8  1  0
  2  9  1  0
  3  4  2  0
  3 10  1  0
 11 12  1  0
 11 15  1  0
 11 16  1  0
 11 17  1  0
 12 13  1  0
 12 14  1  0
 13 18  1  0
 13 19  1  0
 13 20  1  0
 14 21  1  0
 14 22  1  0
 14 23  1  0
M  RAD  1  12   2
M  END
>  <reaction>  (4) 
rxn_1998

>  <mol_properties>  (4) 
{"1": {"label": "*1", "atom_type": "Cs"}, "2": {"label": "*0", "atom_type": "CS"}, "7": {"label": "*2", "atom_type": "H0"}, "10": {"label": "*4", "atom_type": "Cs"}, "11": {"label": "*3", "atom_type": "Cs"}}

>  <type>  (4) 
ts

$$$$
