
     RDKit          3D

 10  9  0  0  0  0  0  0  0  0999 V2000
    2.2738    0.0217   -0.0992 C   0  0  0  0  0  0  0  0  0  0  0  0
    1.1083    0.2960   -0.0695 C   0  0  0  0  0  0  0  0  0  0  0  0
   -0.3173    0.6046   -0.0227 C   0  0  0  0  0  0  0  0  0  0  0  0
   -1.1561   -0.5495    0.5292 C   0  0  0  0  0  0  0  0  0  0  0  0
    3.3097   -0.2166   -0.1277 H   0  0  0  0  0  0  0  0  0  0  0  0
   -0.6542    0.8617   -1.0302 H   0  0  0  0  0  0  0  0  0  0  0  0
   -0.4633    1.4978    0.5900 H   0  0  0  0  0  0  0  0  0  0  0  0
   -0.8485   -0.7997    1.5447 H   0  0  0  0  0  0  0  0  0  0  0  0
   -2.2115   -0.2752    0.5459 H   0  0  0  0  0  0  0  0  0  0  0  0
   -1.0409   -1.4407   -0.0879 H   0  0  0  0  0  0  0  0  0  0  0  0
  1  2  3  0
  1  5  1  0
  2  3  1  0
  3  4  1  0
  3  6  1  0
  3  7  1  0
  4  8  1  0
  4  9  1  0
  4 10  1  0
M  END
>  <reaction>  (1) 
rxn_1274

>  <mol_properties>  (1) 
{"2": {"label": "donator", "atom_type": "Cs"}, "5": {"label": "d_hydrogen", "atom_type": "H0"}}

>  <type>  (1) 
r1h

$$$$

     RDKit          3D

  5  4  0  0  0  0  0  0  0  0999 V2000
    0.0397    0.7134    0.0000 C   0  0  0  0  0  3  0  0  0  0  0  0
    0.0458   -0.5870    0.0000 C   0  0  0  0  0  0  0  0  0  0  0  0
   -0.6871    1.5118    0.0000 H   0  0  0  0  0  0  0  0  0  0  0  0
   -0.8806   -1.1637    0.0000 H   0  0  0  0  0  0  0  0  0  0  0  0
    0.9690   -1.1600    0.0000 H   0  0  0  0  0  0  0  0  0  0  0  0
  1  2  2  3
  1  3  1  0
  2  4  1  0
  2  5  1  0
M  RAD  1   1   2
M  END
>  <reaction>  (2) 
rxn_1274

>  <mol_properties>  (2) 
{"0": {"label": "acceptor", "atom_type": "Cd"}}

>  <type>  (2) 
r2

$$$$

     RDKit          3D

  6  5  0  0  0  0  0  0  0  0999 V2000
    0.6594    0.0438   -0.0050 C   0  0  0  0  0  0  0  0  0  0  0  0
   -0.6594   -0.0438    0.0050 C   0  0  0  0  0  0  0  0  0  0  0  0
    1.1706    0.8681   -0.4881 H   0  0  0  0  0  0  0  0  0  0  0  0
    1.2824   -0.7051    0.4696 H   0  0  0  0  0  0  0  0  0  0  0  0
   -1.2824    0.7051   -0.4696 H   0  0  0  0  0  0  0  0  0  0  0  0
   -1.1706   -0.8681    0.4881 H   0  0  0  0  0  0  0  0  0  0  0  0
  1  2  2  3
  1  3  1  0
  1  4  1  0
  2  5  1  0
  2  6  1  0
M  END
>  <reaction>  (3) 
rxn_1274

>  <mol_properties>  (3) 
{"0": {"label": "a_hydrogen", "atom_type": "H0"}, "1": {"label": "acceptor", "atom_type": "Cd"}}

>  <type>  (3) 
r2h

$$$$

     RDKit          3D

 15 13  0  0  0  0  0  0  0  0999 V2000
   -0.6971    0.0884   -2.2167 C   0  0  0  0  0  0  0  0  0  0  0  0
   -0.8295    0.1797   -1.0263 C   0  0  0  0  0  0  0  0  0  0  0  0
   -0.9389    0.2866    0.4027 C   0  0  0  0  0  0  0  0  0  0  0  0
   -0.8206    1.6928    0.9636 C   0  0  0  0  0  0  0  0  0  0  0  0
   -0.5957    0.0096   -3.2722 H   0  0  0  0  0  0  0  0  0  0  0  0
    0.0093   -0.3575    0.8747 H   0  0  0  0  0  0  0  0  0  0  0  0
   -1.8137   -0.2472    0.7764 H   0  0  0  0  0  0  0  0  0  0  0  0
   -1.6446    2.3224    0.6223 H   0  0  0  0  0  0  0  0  0  0  0  0
   -0.8378    1.6673    2.0538 H   0  0  0  0  0  0  0  0  0  0  0  0
    0.1138    2.1552    0.6444 H   0  0  0  0  0  0  0  0  0  0  0  0
    1.2283   -1.0545    1.3171 C   0  0  0  0  0  3  0  0  0  0  0  0
    2.0040   -1.4130    0.3255 C   0  0  0  0  0  0  0  0  0  0  0  0
    1.3446   -1.1866    2.3858 H   0  0  0  0  0  0  0  0  0  0  0  0
    2.9444   -1.9361    0.4886 H   0  0  0  0  0  0  0  0  0  0  0  0
    1.7323   -1.2001   -0.7049 H   0  0  0  0  0  0  0  0  0  0  0  0
  1  2  3  0
  1  5  1  0
  2  3  1  0
  3  4  1  0
  3  6  1  0
  3  7  1  0
  4  8  1  0
  4  9  1  0
  4 10  1  0
 11 12  2  3
 11 13  1  0
 12 14  1  0
 12 15  1  0
M  RAD  1  11   2
M  END
>  <reaction>  (4) 
rxn_1274

>  <mol_properties>  (4) 
{"1": {"label": "*0", "atom_type": "Ct"}, "2": {"label": "*1", "atom_type": "Cs"}, "5": {"label": "*2", "atom_type": "H0"}, "10": {"label": "*3", "atom_type": "Cd"}, "11": {"label": "*4", "atom_type": "Cd"}}

>  <type>  (4) 
ts

$$$$
