
     RDKit          3D

 10  9  0  0  0  0  0  0  0  0999 V2000
    1.8334    0.0847   -0.1062 C   0  0  0  0  0  0  0  0  0  0  0  0
    0.5993   -0.4071   -0.0750 C   0  0  0  0  0  0  0  0  0  0  0  0
   -0.5993    0.4071    0.0750 C   0  0  0  0  0  0  0  0  0  0  0  0
   -1.8334   -0.0847    0.1062 C   0  0  0  0  0  0  0  0  0  0  0  0
    2.0179    1.1498   -0.0189 H   0  0  0  0  0  0  0  0  0  0  0  0
    2.6972   -0.5572   -0.2194 H   0  0  0  0  0  0  0  0  0  0  0  0
    0.4465   -1.4793   -0.1649 H   0  0  0  0  0  0  0  0  0  0  0  0
   -0.4465    1.4793    0.1649 H   0  0  0  0  0  0  0  0  0  0  0  0
   -2.0179   -1.1498    0.0189 H   0  0  0  0  0  0  0  0  0  0  0  0
   -2.6972    0.5572    0.2194 H   0  0  0  0  0  0  0  0  0  0  0  0
  1  2  2  3
  1  5  1  0
  1  6  1  0
  2  3  1  0
  2  7  1  0
  3  4  2  3
  3  8  1  0
  4  9  1  0
  4 10  1  0
M  END
>  <reaction>  (1) 
rxn_1649

>  <mol_properties>  (1) 
{"2": {"label": "donator", "atom_type": "Cd"}, "7": {"label": "d_hydrogen", "atom_type": "H0"}}

>  <type>  (1) 
r1h

$$$$

     RDKit          3D

 10  9  0  0  0  0  0  0  0  0999 V2000
    1.2930    0.1441    0.3288 C   0  0  0  0  0  0  0  0  0  0  0  0
   -0.0374   -0.1647    0.9100 C   0  0  0  0  0  3  0  0  0  0  0  0
   -1.2664    0.4569    0.3567 C   0  0  0  0  0  0  0  0  0  0  0  0
    1.4384    1.2242    0.2174 H   0  0  0  0  0  0  0  0  0  0  0  0
    2.1077   -0.2477    0.9385 H   0  0  0  0  0  0  0  0  0  0  0  0
    1.4057   -0.2836   -0.6789 H   0  0  0  0  0  0  0  0  0  0  0  0
   -0.1309   -0.9912    1.6030 H   0  0  0  0  0  0  0  0  0  0  0  0
   -1.5005    0.0716   -0.6471 H   0  0  0  0  0  0  0  0  0  0  0  0
   -2.1382    0.2713    0.9849 H   0  0  0  0  0  0  0  0  0  0  0  0
   -1.1497    1.5406    0.2456 H   0  0  0  0  0  0  0  0  0  0  0  0
  1  2  1  0
  1  4  1  0
  1  5  1  0
  1  6  1  0
  2  3  1  0
  2  7  1  0
  3  8  1  0
  3  9  1  0
  3 10  1  0
M  RAD  1   2   2
M  END
>  <reaction>  (2) 
rxn_1649

>  <mol_properties>  (2) 
{"1": {"label": "acceptor", "atom_type": "Cs"}}

>  <type>  (2) 
r2

$$$$

     RDKit          3D

 11 10  0  0  0  0  0  0  0  0999 V2000
   -1.2710    0.1907   -0.2084 C   0  0  0  0  0  0  0  0  0  0  0  0
    0.0202   -0.6130   -0.2928 C   0  0  0  0  0  0  0  0  0  0  0  0
    0.1086   -1.6953    0.7756 C   0  0  0  0  0  0  0  0  0  0  0  0
   -1.3607    0.6851    0.7620 H   0  0  0  0  0  0  0  0  0  0  0  0
   -2.1429   -0.4567   -0.3299 H   0  0  0  0  0  0  0  0  0  0  0  0
   -1.3158    0.9602   -0.9809 H   0  0  0  0  0  0  0  0  0  0  0  0
    0.8757    0.0616   -0.1992 H   0  0  0  0  0  0  0  0  0  0  0  0
    0.0997   -1.0712   -1.2825 H   0  0  0  0  0  0  0  0  0  0  0  0
   -0.7198   -2.4022    0.6850 H   0  0  0  0  0  0  0  0  0  0  0  0
    1.0395   -2.2596    0.6989 H   0  0  0  0  0  0  0  0  0  0  0  0
    0.0624   -1.2603    1.7770 H   0  0  0  0  0  0  0  0  0  0  0  0
  1  2  1  0
  1  4  1  0
  1  5  1  0
  1  6  1  0
  2  3  1  0
  2  7  1  0
  2  8  1  0
  3  9  1  0
  3 10  1  0
  3 11  1  0
M  END
>  <reaction>  (3) 
rxn_1649

>  <mol_properties>  (3) 
{"0": {"label": "a_hydrogen", "atom_type": "H0"}, "2": {"label": "acceptor", "atom_type": "Cs"}}

>  <type>  (3) 
r2h

$$$$

     RDKit          3D

 20 18  0  0  0  0  0  0  0  0999 V2000
   -0.5475   -1.9754   -1.5260 C   0  0  0  0  0  0  0  0  0  0  0  0
   -0.3289   -2.0943   -0.2200 C   0  0  0  0  0  0  0  0  0  0  0  0
   -0.1556   -0.9809    0.6869 C   0  0  0  0  0  3  0  0  0  0  0  0
    0.0263   -0.9886    1.9940 C   0  0  0  0  0  0  0  0  0  0  0  0
   -0.6117   -1.0026   -1.9990 H   0  0  0  0  0  0  0  0  0  0  0  0
   -0.6715   -2.8446   -2.1584 H   0  0  0  0  0  0  0  0  0  0  0  0
   -0.2725   -3.0890    0.2232 H   0  0  0  0  0  0  0  0  0  0  0  0
   -0.1606    0.2951    0.0721 H   0  0  0  0  0  0  0  0  0  0  0  0
    0.0609   -1.9187    2.5596 H   0  0  0  0  0  0  0  0  0  0  0  0
    0.1458   -0.0709    2.5589 H   0  0  0  0  0  0  0  0  0  0  0  0
    1.2280    1.5139   -1.1741 C   0  0  0  0  0  0  0  0  0  0  0  0
   -0.0778    1.4680   -0.4191 C   0  0  0  0  0  0  0  0  0  0  0  0
   -0.1854    2.4174    0.7490 C   0  0  0  0  0  0  0  0  0  0  0  0
    2.0700    1.3324   -0.5019 H   0  0  0  0  0  0  0  0  0  0  0  0
    1.2630    0.7608   -1.9631 H   0  0  0  0  0  0  0  0  0  0  0  0
    1.3815    2.4932   -1.6392 H   0  0  0  0  0  0  0  0  0  0  0  0
   -0.9475    1.5191   -1.0772 H   0  0  0  0  0  0  0  0  0  0  0  0
   -0.1571    3.4597    0.4142 H   0  0  0  0  0  0  0  0  0  0  0  0
   -1.1158    2.2701    1.2998 H   0  0  0  0  0  0  0  0  0  0  0  0
    0.6474    2.2765    1.4427 H   0  0  0  0  0  0  0  0  0  0  0  0
  1  2  2  3
  1  5  1  0
  1  6  1  0
  2  3  1  0
  2  7  1  0
  3  4  2  3
  4  9  1  0
  4 10  1  0
  8 12  1  0
 11 12  1  0
 11 14  1  0
 11 15  1  0
 11 16  1  0
 12 13  1  0
 12 17  1  0
 13 18  1  0
 13 19  1  0
 13 20  1  0
M  RAD  1   3   2
M  END
>  <reaction>  (4) 
rxn_1649

>  <mol_properties>  (4) 
{"1": {"label": "*4", "atom_type": "Cd"}, "2": {"label": "*3", "atom_type": "Cd"}, "7": {"label": "*2", "atom_type": "H0"}, "10": {"label": "*0", "atom_type": "Cs"}, "11": {"label": "*1", "atom_type": "Cs"}}

>  <type>  (4) 
ts

$$$$
