
     RDKit          3D

 15 15  0  0  0  0  0  0  0  0999 V2000
    2.2031   -0.2111   -0.1693 C   0  0  0  0  0  0  0  0  0  0  0  0
    0.7140   -0.0314   -0.0623 C   0  0  0  0  0  0  0  0  0  0  0  0
   -0.0114    0.5491   -1.0982 C   0  0  0  0  0  0  0  0  0  0  0  0
   -1.3882    0.6886   -1.0150 C   0  0  0  0  0  0  0  0  0  0  0  0
   -2.0661    0.2493    0.1118 C   0  0  0  0  0  0  0  0  0  0  0  0
   -1.3551   -0.3278    1.1528 C   0  0  0  0  0  0  0  0  0  0  0  0
    0.0216   -0.4648    1.0642 C   0  0  0  0  0  0  0  0  0  0  0  0
    2.6776   -0.1836    0.8122 H   0  0  0  0  0  0  0  0  0  0  0  0
    2.4446   -1.1749   -0.6249 H   0  0  0  0  0  0  0  0  0  0  0  0
    2.6532    0.5664   -0.7875 H   0  0  0  0  0  0  0  0  0  0  0  0
    0.5104    0.8989   -1.9819 H   0  0  0  0  0  0  0  0  0  0  0  0
   -1.9328    1.1452   -1.8322 H   0  0  0  0  0  0  0  0  0  0  0  0
   -3.1409    0.3597    0.1800 H   0  0  0  0  0  0  0  0  0  0  0  0
   -1.8736   -0.6702    2.0398 H   0  0  0  0  0  0  0  0  0  0  0  0
    0.5695   -0.9141    1.8849 H   0  0  0  0  0  0  0  0  0  0  0  0
  1  2  1  0
  1  8  1  0
  1  9  1  0
  1 10  1  0
  2  3  2  0
  2  7  1  0
  3  4  1  0
  3 11  1  0
  4  5  2  0
  4 12  1  0
  5  6  1  0
  5 13  1  0
  6  7  2  0
  6 14  1  0
  7 15  1  0
M  END
>  <reaction>  (1) 
rxn_264

>  <mol_properties>  (1) 
{"2": {"label": "donator", "atom_type": "Cd"}, "10": {"label": "d_hydrogen", "atom_type": "H0"}}

>  <type>  (1) 
r1h

$$$$

     RDKit          3D

  1  0  0  0  0  0  0  0  0  0999 V2000
    0.0000    0.0000    0.0000 O   0  0  0  0  0 15  0  0  0  0  0  0
M  END
>  <reaction>  (2) 
rxn_264

>  <mol_properties>  (2) 
{"0": {"label": "acceptor", "atom_type": "O2s"}}

>  <type>  (2) 
r2

$$$$

     RDKit          3D

  2  1  0  0  0  0  0  0  0  0999 V2000
    0.0000    0.0000    0.4855 O   0  0  0  0  0  1  0  0  0  0  0  0
    0.0000    0.0000   -0.4855 H   0  0  0  0  0  0  0  0  0  0  0  0
  1  2  1  0
M  RAD  1   1   2
M  END
>  <reaction>  (3) 
rxn_264

>  <mol_properties>  (3) 
{"0": {"label": "a_hydrogen", "atom_type": "H0"}, "1": {"label": "acceptor", "atom_type": "O2s"}}

>  <type>  (3) 
r2h

$$$$

     RDKit          3D

 16 15  0  0  0  0  0  0  0  0999 V2000
   -0.0018   -0.5001   -2.2517 C   0  0  0  0  0  0  0  0  0  0  0  0
   -0.0194   -0.4984   -0.7495 C   0  0  0  0  0  0  0  0  0  0  0  0
    0.0532    0.6508    0.0060 C   0  0  0  0  0  3  0  0  0  0  0  0
    0.0492    0.7137    1.3793 C   0  0  0  0  0  0  0  0  0  0  0  0
   -0.0355   -0.4865    2.0733 C   0  0  0  0  0  0  0  0  0  0  0  0
   -0.1121   -1.6800    1.3678 C   0  0  0  0  0  0  0  0  0  0  0  0
   -0.1044   -1.6862   -0.0173 C   0  0  0  0  0  0  0  0  0  0  0  0
    0.8989   -0.9931   -2.6227 H   0  0  0  0  0  0  0  0  0  0  0  0
   -0.8617   -1.0441   -2.6457 H   0  0  0  0  0  0  0  0  0  0  0  0
   -0.0226    0.5137   -2.6474 H   0  0  0  0  0  0  0  0  0  0  0  0
    0.1310    1.8322   -0.6414 H   0  0  0  0  0  0  0  0  0  0  0  0
    0.1091    1.6623    1.8965 H   0  0  0  0  0  0  0  0  0  0  0  0
   -0.0424   -0.4863    3.1558 H   0  0  0  0  0  0  0  0  0  0  0  0
   -0.1796   -2.6177    1.9046 H   0  0  0  0  0  0  0  0  0  0  0  0
   -0.1660   -2.6270   -0.5532 H   0  0  0  0  0  0  0  0  0  0  0  0
    0.1927    2.8439   -1.1826 O   0  0  0  0  0  1  0  0  0  0  0  0
  1  2  1  0
  1  8  1  0
  1  9  1  0
  1 10  1  0
  2  7  2  0
  2  3  1  0
  3  4  2  0
  4  5  1  0
  4 12  1  0
  5  6  2  0
  5 13  1  0
  6  7  1  0
  6 14  1  0
  7 15  1  0
 11 16  1  0
M  RAD  2   3   2  16   2
M  END
>  <reaction>  (4) 
rxn_264

>  <mol_properties>  (4) 
{"1": {"label": "*4", "atom_type": "Cd"}, "2": {"label": "*3", "atom_type": "Cd"}, "10": {"label": "*2", "atom_type": "H0"}, "15": {"label": "*1", "atom_type": "O2s"}}

>  <type>  (4) 
ts

$$$$
