
     RDKit          3D

 10  9  0  0  0  0  0  0  0  0999 V2000
   -1.1508    0.0666    0.2839 C   0  0  0  0  0  0  0  0  0  0  0  0
    0.1022   -0.3749   -0.4771 C   0  0  0  0  0  0  0  0  0  0  0  0
    1.3428    0.1620    0.1542 C   0  0  0  0  0  0  0  0  0  0  0  0
    2.5613   -0.6971    0.7526 S   0  0  0  0  0  0  0  0  0  0  0  0
   -1.2137    1.1546    0.3481 H   0  0  0  0  0  0  0  0  0  0  0  0
   -2.0472   -0.2935   -0.2212 H   0  0  0  0  0  0  0  0  0  0  0  0
   -1.1467   -0.3334    1.2987 H   0  0  0  0  0  0  0  0  0  0  0  0
    0.1602   -1.4616   -0.5369 H   0  0  0  0  0  0  0  0  0  0  0  0
    0.0536    0.0174   -1.4997 H   0  0  0  0  0  0  0  0  0  0  0  0
    1.3824    1.2528    0.2110 H   0  0  0  0  0  0  0  0  0  0  0  0
  1  2  1  0
  1  5  1  0
  1  6  1  0
  1  7  1  0
  2  3  1  0
  2  8  1  0
  2  9  1  0
  3  4  2  0
  3 10  1  0
M  END
>  <reaction>  (1) 
rxn_2002

>  <mol_properties>  (1) 
{"1": {"label": "donator", "atom_type": "Cs"}, "7": {"label": "d_hydrogen", "atom_type": "H0"}}

>  <type>  (1) 
r1h

$$$$

     RDKit          3D

 14 13  0  0  0  0  0  0  0  0999 V2000
    0.7079   -1.6438    1.4652 C   0  0  0  0  0  0  0  0  0  0  0  0
    0.6983   -0.3170    1.1153 C   0  0  0  0  0  0  0  0  0  0  0  0
    1.4436    0.6920    1.7151 C   0  0  0  0  0  3  0  0  0  0  0  0
    2.3699    0.4004    2.8550 C   0  0  0  0  0  0  0  0  0  0  0  0
    1.3495    2.1059    1.2457 C   0  0  0  0  0  0  0  0  0  0  0  0
    0.0923   -2.3608    0.9401 H   0  0  0  0  0  0  0  0  0  0  0  0
    1.3252   -2.0194    2.2712 H   0  0  0  0  0  0  0  0  0  0  0  0
    0.0502   -0.0216    0.2943 H   0  0  0  0  0  0  0  0  0  0  0  0
    3.1408   -0.3217    2.5687 H   0  0  0  0  0  0  0  0  0  0  0  0
    2.8709    1.3048    3.2004 H   0  0  0  0  0  0  0  0  0  0  0  0
    1.8331   -0.0314    3.7054 H   0  0  0  0  0  0  0  0  0  0  0  0
    1.0230    2.7670    2.0562 H   0  0  0  0  0  0  0  0  0  0  0  0
    0.6519    2.2158    0.4152 H   0  0  0  0  0  0  0  0  0  0  0  0
    2.3281    2.4773    0.9217 H   0  0  0  0  0  0  0  0  0  0  0  0
  1  2  2  3
  1  6  1  0
  1  7  1  0
  2  3  1  0
  2  8  1  0
  3  4  1  0
  3  5  1  0
  4  9  1  0
  4 10  1  0
  4 11  1  0
  5 12  1  0
  5 13  1  0
  5 14  1  0
M  RAD  1   3   2
M  END
>  <reaction>  (2) 
rxn_2002

>  <mol_properties>  (2) 
{"2": {"label": "acceptor", "atom_type": "Cs"}}

>  <type>  (2) 
r2

$$$$

     RDKit          3D

 15 14  0  0  0  0  0  0  0  0999 V2000
    2.1256    0.4849   -0.6284 C   0  0  0  0  0  0  0  0  0  0  0  0
    1.1128    0.2141    0.1794 C   0  0  0  0  0  0  0  0  0  0  0  0
   -0.3017   -0.0425   -0.2513 C   0  0  0  0  0  0  0  0  0  0  0  0
   -1.2427    1.0075    0.3423 C   0  0  0  0  0  0  0  0  0  0  0  0
   -0.7381   -1.4526    0.1504 C   0  0  0  0  0  0  0  0  0  0  0  0
    3.1243    0.6602   -0.2486 H   0  0  0  0  0  0  0  0  0  0  0  0
    1.9908    0.5411   -1.7036 H   0  0  0  0  0  0  0  0  0  0  0  0
    1.2888    0.1665    1.2533 H   0  0  0  0  0  0  0  0  0  0  0  0
   -0.3426    0.0343   -1.3424 H   0  0  0  0  0  0  0  0  0  0  0  0
   -0.9570    2.0133    0.0315 H   0  0  0  0  0  0  0  0  0  0  0  0
   -1.2189    0.9728    1.4350 H   0  0  0  0  0  0  0  0  0  0  0  0
   -2.2723    0.8287    0.0254 H   0  0  0  0  0  0  0  0  0  0  0  0
   -0.6964   -1.5744    1.2363 H   0  0  0  0  0  0  0  0  0  0  0  0
   -0.0911   -2.2079   -0.2978 H   0  0  0  0  0  0  0  0  0  0  0  0
   -1.7646   -1.6461   -0.1677 H   0  0  0  0  0  0  0  0  0  0  0  0
  1  2  2  3
  1  6  1  0
  1  7  1  0
  2  3  1  0
  2  8  1  0
  3  4  1  0
  3  5  1  0
  3  9  1  0
  4 10  1  0
  4 11  1  0
  4 12  1  0
  5 13  1  0
  5 14  1  0
  5 15  1  0
M  END
>  <reaction>  (3) 
rxn_2002

>  <mol_properties>  (3) 
{"2": {"label": "acceptor", "atom_type": "Cs"}, "14": {"label": "a_hydrogen", "atom_type": "H0"}}

>  <type>  (3) 
r2h

$$$$

     RDKit          3D

 24 22  0  0  0  0  0  0  0  0999 V2000
   -0.5337   -0.2542    2.2996 C   0  0  0  0  0  0  0  0  0  0  0  0
   -0.2952   -1.2825    1.4800 C   0  0  0  0  0  0  0  0  0  0  0  0
   -0.6744   -1.3588    0.0758 C   0  0  0  0  0  3  0  0  0  0  0  0
   -1.7742   -0.4506   -0.4118 C   0  0  0  0  0  0  0  0  0  0  0  0
   -0.6365   -2.7289   -0.5523 C   0  0  0  0  0  0  0  0  0  0  0  0
   -0.1672   -0.2598    3.3177 H   0  0  0  0  0  0  0  0  0  0  0  0
   -1.0997    0.6146    1.9890 H   0  0  0  0  0  0  0  0  0  0  0  0
    0.2945   -2.1151    1.8552 H   0  0  0  0  0  0  0  0  0  0  0  0
   -1.5448    0.6000   -0.2262 H   0  0  0  0  0  0  0  0  0  0  0  0
   -1.9287   -0.5731   -1.4840 H   0  0  0  0  0  0  0  0  0  0  0  0
   -2.7146   -0.6847    0.0967 H   0  0  0  0  0  0  0  0  0  0  0  0
   -1.5228   -3.3050   -0.2660 H   0  0  0  0  0  0  0  0  0  0  0  0
    0.2427   -3.2916   -0.2344 H   0  0  0  0  0  0  0  0  0  0  0  0
   -0.6289   -2.6629   -1.6416 H   0  0  0  0  0  0  0  0  0  0  0  0
    0.8671    0.1406   -2.4878 C   0  0  0  0  0  0  0  0  0  0  0  0
    1.3739   -0.0425   -1.0812 C   0  0  0  0  0  0  0  0  0  0  0  0
    1.5357    1.0814   -0.2053 C   0  0  0  0  0  0  0  0  0  0  0  0
    0.8684    2.5693   -0.3865 S   0  0  0  0  0  0  0  0  0  0  0  0
    1.6375    0.5981   -3.1129 H   0  0  0  0  0  0  0  0  0  0  0  0
    0.5987   -0.8196   -2.9307 H   0  0  0  0  0  0  0  0  0  0  0  0
   -0.0002    0.7989   -2.5077 H   0  0  0  0  0  0  0  0  0  0  0  0
    0.4250   -0.7204   -0.4712 H   0  0  0  0  0  0  0  0  0  0  0  0
    2.1651   -0.7862   -0.9769 H   0  0  0  0  0  0  0  0  0  0  0  0
    2.1284    0.8860    0.6870 H   0  0  0  0  0  0  0  0  0  0  0  0
  1  2  2  3
  1  6  1  0
  1  7  1  0
  2  3  1  0
  2  8  1  0
  3  4  1  0
  3  5  1  0
  4  9  1  0
  4 10  1  0
  4 11  1  0
  5 12  1  0
  5 13  1  0
  5 14  1  0
 15 16  1  0
 15 19  1  0
 15 20  1  0
 15 21  1  0
 16 17  1  0
 16 22  1  0
 16 23  1  0
 17 18  2  0
 17 24  1  0
M  RAD  1   3   2
M  END
>  <reaction>  (4) 
rxn_2002

>  <mol_properties>  (4) 
{"1": {"label": "*4", "atom_type": "Cd"}, "2": {"label": "*3", "atom_type": "Cs"}, "15": {"label": "*1", "atom_type": "Cs"}, "16": {"label": "*0", "atom_type": "CS"}, "21": {"label": "*2", "atom_type": "H0"}}

>  <type>  (4) 
ts

$$$$
