
     RDKit          3D

 12 12  0  0  0  0  0  0  0  0999 V2000
   -1.2385    0.6248   -0.0199 C   0  0  0  0  0  0  0  0  0  0  0  0
   -0.0779    1.3848   -0.0298 C   0  0  0  0  0  0  0  0  0  0  0  0
    1.1605    0.7600   -0.0100 C   0  0  0  0  0  0  0  0  0  0  0  0
    1.2385   -0.6248    0.0199 C   0  0  0  0  0  0  0  0  0  0  0  0
    0.0779   -1.3848    0.0298 C   0  0  0  0  0  0  0  0  0  0  0  0
   -1.1606   -0.7600    0.0100 C   0  0  0  0  0  0  0  0  0  0  0  0
   -2.2052    1.1125   -0.0354 H   0  0  0  0  0  0  0  0  0  0  0  0
   -0.1387    2.4657   -0.0531 H   0  0  0  0  0  0  0  0  0  0  0  0
    2.0664    1.3532   -0.0177 H   0  0  0  0  0  0  0  0  0  0  0  0
    2.2052   -1.1125    0.0354 H   0  0  0  0  0  0  0  0  0  0  0  0
    0.1387   -2.4657    0.0531 H   0  0  0  0  0  0  0  0  0  0  0  0
   -2.0664   -1.3532    0.0177 H   0  0  0  0  0  0  0  0  0  0  0  0
  1  2  2  0
  1  6  1  0
  1  7  1  0
  2  3  1  0
  2  8  1  0
  3  4  2  0
  3  9  1  0
  4  5  1  0
  4 10  1  0
  5  6  2  0
  5 11  1  0
  6 12  1  0
M  END
>  <reaction>  (1) 
rxn_275

>  <mol_properties>  (1) 
{"0": {"label": "donator", "atom_type": "Cd"}, "6": {"label": "d_hydrogen", "atom_type": "H0"}}

>  <type>  (1) 
r1h

$$$$

     RDKit          3D

  1  0  0  0  0  0  0  0  0  0999 V2000
    0.0000    0.0000    0.0000 H   0  0  0  0  0 15  0  0  0  0  0  0
M  END
>  <reaction>  (2) 
rxn_275

>  <mol_properties>  (2) 
{"0": {"label": "acceptor", "atom_type": "H0"}}

>  <type>  (2) 
r2

$$$$

     RDKit          3D

  2  1  0  0  0  0  0  0  0  0999 V2000
    0.0000    0.0000    0.3721 H   0  0  0  0  0  0  0  0  0  0  0  0
    0.0000    0.0000   -0.3721 H   0  0  0  0  0  0  0  0  0  0  0  0
  1  2  1  0
M  END
>  <reaction>  (3) 
rxn_275

>  <mol_properties>  (3) 
{"0": {"label": "a_hydrogen", "atom_type": "H0"}, "1": {"label": "acceptor", "atom_type": "H0"}}

>  <type>  (3) 
r2h

$$$$

     RDKit          3D

 13 12  0  0  0  0  0  0  0  0999 V2000
    0.9578    0.0038   -0.3962 C   0  0  0  0  0  0  0  0  0  0  0  0
    0.3529    1.2149   -0.1615 C   0  0  0  0  0  0  0  0  0  0  0  0
   -0.9328    1.2016    0.3704 C   0  0  0  0  0  0  0  0  0  0  0  0
   -1.5596   -0.0062    0.6450 C   0  0  0  0  0  0  0  0  0  0  0  0
   -0.9137   -1.2089    0.3933 C   0  0  0  0  0  0  0  0  0  0  0  0
    0.3722   -1.2120   -0.1384 C   0  0  0  0  0  0  0  0  0  0  0  0
    2.2957    0.0092   -0.9495 H   0  0  0  0  0  0  0  0  0  0  0  0
    0.8558    2.1486   -0.3814 H   0  0  0  0  0  0  0  0  0  0  0  0
   -1.4434    2.1358    0.5696 H   0  0  0  0  0  0  0  0  0  0  0  0
   -2.5599   -0.0102    1.0588 H   0  0  0  0  0  0  0  0  0  0  0  0
   -1.4095   -2.1472    0.6104 H   0  0  0  0  0  0  0  0  0  0  0  0
    0.8898   -2.1416   -0.3406 H   0  0  0  0  0  0  0  0  0  0  0  0
    3.0946    0.0124   -1.2799 H   0  0  0  0  0 15  0  0  0  0  0  0
  1  2  2  0
  1  6  1  0
  1  7  1  0
  2  3  1  0
  2  8  1  0
  3  4  2  0
  3  9  1  0
  4  5  1  0
  4 10  1  0
  5  6  2  0
  5 11  1  0
  6 12  1  0
M  END
>  <reaction>  (4) 
rxn_275

>  <mol_properties>  (4) 
{"0": {"label": "*3", "atom_type": "Cd"}, "1": {"label": "*4", "atom_type": "Cd"}, "6": {"label": "*2", "atom_type": "H0"}, "12": {"label": "*1", "atom_type": "H0"}}

>  <type>  (4) 
ts

$$$$
