
     RDKit          3D

 13 12  0  0  0  0  0  0  0  0999 V2000
    3.0977   -0.3549   -0.5105 C   0  0  0  0  0  0  0  0  0  0  0  0
    2.0556    0.4221   -0.2627 C   0  0  0  0  0  0  0  0  0  0  0  0
    0.6313   -0.0354   -0.2366 C   0  0  0  0  0  0  0  0  0  0  0  0
   -0.2567    0.6038   -1.2694 C   0  0  0  0  0  0  0  0  0  0  0  0
    0.1459    1.3456   -2.2891 C   0  0  0  0  0  0  0  0  0  0  0  0
    4.1081    0.0344   -0.5074 H   0  0  0  0  0  0  0  0  0  0  0  0
    2.9777   -1.4116   -0.7243 H   0  0  0  0  0  0  0  0  0  0  0  0
    2.2171    1.4781   -0.0618 H   0  0  0  0  0  0  0  0  0  0  0  0
    0.5865   -1.1233   -0.3540 H   0  0  0  0  0  0  0  0  0  0  0  0
    0.2065    0.1743    0.7521 H   0  0  0  0  0  0  0  0  0  0  0  0
   -1.3190    0.4126   -1.1445 H   0  0  0  0  0  0  0  0  0  0  0  0
    1.1948    1.5564   -2.4628 H   0  0  0  0  0  0  0  0  0  0  0  0
   -0.5644    1.7621   -2.9918 H   0  0  0  0  0  0  0  0  0  0  0  0
  1  2  2  3
  1  6  1  0
  1  7  1  0
  2  3  1  0
  2  8  1  0
  3  4  1  0
  3  9  1  0
  3 10  1  0
  4  5  2  3
  4 11  1  0
  5 12  1  0
  5 13  1  0
M  END
>  <reaction>  (1) 
rxn_1159

>  <mol_properties>  (1) 
{"2": {"label": "donator", "atom_type": "Cs"}, "8": {"label": "d_hydrogen", "atom_type": "H0"}}

>  <type>  (1) 
r1h

$$$$

     RDKit          3D

 10  9  0  0  0  0  0  0  0  0999 V2000
   -1.3354   -0.2069    0.0525 C   0  0  0  0  0  0  0  0  0  0  0  0
    0.0851    0.2624    0.0266 C   0  0  0  0  0  0  0  0  0  0  0  0
    0.4841    1.3876    0.7359 C   0  0  0  0  0  0  0  0  0  0  0  0
    2.0191    2.0303    0.8057 S   0  0  0  0  0  1  0  0  0  0  0  0
    1.1566   -0.6823   -0.9297 S   0  0  0  0  0  0  0  0  0  0  0  0
   -1.7589   -0.2174   -0.9545 H   0  0  0  0  0  0  0  0  0  0  0  0
   -1.4004   -1.2253    0.4427 H   0  0  0  0  0  0  0  0  0  0  0  0
   -1.9442    0.4442    0.6783 H   0  0  0  0  0  0  0  0  0  0  0  0
   -0.3073    1.8814    1.2951 H   0  0  0  0  0  0  0  0  0  0  0  0
    2.2383    0.0827   -0.6554 H   0  0  0  0  0  0  0  0  0  0  0  0
  1  2  1  0
  1  6  1  0
  1  7  1  0
  1  8  1  0
  2  3  2  3
  2  5  1  0
  3  4  1  0
  3  9  1  0
  5 10  1  0
M  RAD  1   4   2
M  END
>  <reaction>  (2) 
rxn_1159

>  <mol_properties>  (2) 
{"1": {"label": "acceptor", "atom_type": "Cs"}}

>  <type>  (2) 
r2

$$$$

     RDKit          3D

 11 10  0  0  0  0  0  0  0  0999 V2000
   -1.0997   -0.5860   -0.1182 C   0  0  0  0  0  0  0  0  0  0  0  0
    0.0827    0.2961    0.2270 C   0  0  0  0  0  0  0  0  0  0  0  0
    0.1622    1.6171   -0.4774 C   0  0  0  0  0  0  0  0  0  0  0  0
   -0.9879    2.3087   -1.3633 S   0  0  0  0  0  0  0  0  0  0  0  0
    0.2176    0.6619    2.0187 S   0  0  0  0  0  0  0  0  0  0  0  0
   -1.1052   -0.8107   -1.1861 H   0  0  0  0  0  0  0  0  0  0  0  0
   -2.0402   -0.0893    0.1198 H   0  0  0  0  0  0  0  0  0  0  0  0
   -1.0438   -1.5182    0.4423 H   0  0  0  0  0  0  0  0  0  0  0  0
    1.0207   -0.2324    0.0280 H   0  0  0  0  0  0  0  0  0  0  0  0
    1.1091    2.1333   -0.3182 H   0  0  0  0  0  0  0  0  0  0  0  0
   -0.9205    1.3661    2.0994 H   0  0  0  0  0  0  0  0  0  0  0  0
  1  2  1  0
  1  6  1  0
  1  7  1  0
  1  8  1  0
  2  3  1  0
  2  5  1  0
  2  9  1  0
  3  4  2  0
  3 10  1  0
  5 11  1  0
M  END
>  <reaction>  (3) 
rxn_1159

>  <mol_properties>  (3) 
{"1": {"label": "acceptor", "atom_type": "Cs"}, "10": {"label": "a_hydrogen", "atom_type": "H0"}}

>  <type>  (3) 
r2h

$$$$

     RDKit          3D

 23 21  0  0  0  0  0  0  0  0999 V2000
    1.1400    0.7714   -1.1506 C   0  0  0  0  0  0  0  0  0  0  0  0
   -0.1646    0.8713   -0.4041 C   0  0  0  0  0  0  0  0  0  0  0  0
   -0.2580    1.7093    0.7680 C   0  0  0  0  0  0  0  0  0  0  0  0
    0.9916    2.2973    1.6332 S   0  0  0  0  0  0  0  0  0  0  0  0
   -1.6548    0.9254   -1.3982 S   0  0  0  0  0  0  0  0  0  0  0  0
    1.3458    1.7028   -1.6812 H   0  0  0  0  0  0  0  0  0  0  0  0
    1.9567    0.5871   -0.4526 H   0  0  0  0  0  0  0  0  0  0  0  0
    1.1002   -0.0395   -1.8792 H   0  0  0  0  0  0  0  0  0  0  0  0
   -1.2752    1.8924    1.1162 H   0  0  0  0  0  0  0  0  0  0  0  0
   -1.3899   -0.1791   -2.1106 H   0  0  0  0  0  0  0  0  0  0  0  0
   -1.1247   -2.8998   -1.2669 C   0  0  0  0  0  0  0  0  0  0  0  0
   -0.0727   -2.4335   -0.5892 C   0  0  0  0  0  0  0  0  0  0  0  0
   -0.1733   -1.6358    0.6235 C   0  0  0  0  0  3  0  0  0  0  0  0
    0.9136   -1.5582    1.5920 C   0  0  0  0  0  0  0  0  0  0  0  0
    2.1555   -2.0268    1.4416 C   0  0  0  0  0  0  0  0  0  0  0  0
   -1.0000   -3.4715   -2.1771 H   0  0  0  0  0  0  0  0  0  0  0  0
   -2.1384   -2.7327   -0.9202 H   0  0  0  0  0  0  0  0  0  0  0  0
    0.9222   -2.6262   -0.9771 H   0  0  0  0  0  0  0  0  0  0  0  0
   -0.2206   -0.3316    0.1641 H   0  0  0  0  0  0  0  0  0  0  0  0
   -1.1720   -1.6048    1.0581 H   0  0  0  0  0  0  0  0  0  0  0  0
    0.6754   -1.0251    2.5066 H   0  0  0  0  0  0  0  0  0  0  0  0
    2.4724   -2.5744    0.5628 H   0  0  0  0  0  0  0  0  0  0  0  0
    2.8967   -1.8790    2.2152 H   0  0  0  0  0  0  0  0  0  0  0  0
  1  2  1  0
  1  6  1  0
  1  7  1  0
  1  8  1  0
  2  3  1  0
  2  5  1  0
  2 19  1  0
  3  4  2  0
  3  9  1  0
  5 10  1  0
 11 12  2  3
 11 16  1  0
 11 17  1  0
 12 13  1  0
 12 18  1  0
 13 14  1  0
 13 20  1  0
 14 15  2  3
 14 21  1  0
 15 22  1  0
 15 23  1  0
M  RAD  1  13   2
M  END
>  <reaction>  (4) 
rxn_1159

>  <mol_properties>  (4) 
{"1": {"label": "*1", "atom_type": "Cs"}, "2": {"label": "*0", "atom_type": "CS"}, "11": {"label": "*4", "atom_type": "Cd"}, "12": {"label": "*3", "atom_type": "Cs"}, "18": {"label": "*2", "atom_type": "H0"}}

>  <type>  (4) 
ts

$$$$
