
     RDKit          3D

 19 20  0  0  0  0  0  0  0  0999 V2000
    1.1087   -0.4716   -0.9619 C   0  0  0  0  0  0  0  0  0  0  0  0
    0.9355    1.0407   -0.6470 C   0  0  0  0  0  0  0  0  0  0  0  0
   -0.0085    1.0377    0.5657 C   0  0  0  0  0  0  0  0  0  0  0  0
   -1.4093    0.6181    0.0927 C   0  0  0  0  0  0  0  0  0  0  0  0
   -1.2361   -0.8942   -0.2222 C   0  0  0  0  0  0  0  0  0  0  0  0
    0.2422   -1.1516    0.1099 C   0  0  0  0  0  0  0  0  0  0  0  0
    0.4537   -0.2211    1.3118 C   0  0  0  0  0  0  0  0  0  0  0  0
    2.1524   -0.7752   -0.8653 H   0  0  0  0  0  0  0  0  0  0  0  0
    0.7855   -0.7316   -1.9710 H   0  0  0  0  0  0  0  0  0  0  0  0
    1.8918    1.5001   -0.3916 H   0  0  0  0  0  0  0  0  0  0  0  0
    0.5184    1.6005   -1.4855 H   0  0  0  0  0  0  0  0  0  0  0  0
    0.0038    1.9661    1.1351 H   0  0  0  0  0  0  0  0  0  0  0  0
   -1.7351    1.1944   -0.7746 H   0  0  0  0  0  0  0  0  0  0  0  0
   -2.1465    0.7723    0.8824 H   0  0  0  0  0  0  0  0  0  0  0  0
   -1.4680   -1.1377   -1.2601 H   0  0  0  0  0  0  0  0  0  0  0  0
   -1.8859   -1.5030    0.4087 H   0  0  0  0  0  0  0  0  0  0  0  0
    0.4812   -2.2025    0.2673 H   0  0  0  0  0  0  0  0  0  0  0  0
    1.4942   -0.1701    1.6391 H   0  0  0  0  0  0  0  0  0  0  0  0
   -0.1779   -0.4714    2.1666 H   0  0  0  0  0  0  0  0  0  0  0  0
  1  2  1  0
  1  6  1  0
  1  8  1  0
  1  9  1  0
  2  3  1  0
  2 10  1  0
  2 11  1  0
  3  4  1  0
  3  7  1  0
  3 12  1  0
  4  5  1  0
  4 13  1  0
  4 14  1  0
  5  6  1  0
  5 15  1  0
  5 16  1  0
  6  7  1  0
  6 17  1  0
  7 18  1  0
  7 19  1  0
M  END
>  <reaction>  (1) 
rxn_550

>  <mol_properties>  (1) 
{"6": {"label": "donator", "atom_type": "Cs"}, "17": {"label": "d_hydrogen", "atom_type": "H0"}}

>  <type>  (1) 
r1h

$$$$

     RDKit          3D

  5  4  0  0  0  0  0  0  0  0999 V2000
    0.0397    0.7134    0.0000 C   0  0  0  0  0  3  0  0  0  0  0  0
    0.0458   -0.5870    0.0000 C   0  0  0  0  0  0  0  0  0  0  0  0
   -0.6871    1.5118    0.0000 H   0  0  0  0  0  0  0  0  0  0  0  0
   -0.8806   -1.1637    0.0000 H   0  0  0  0  0  0  0  0  0  0  0  0
    0.9690   -1.1600    0.0000 H   0  0  0  0  0  0  0  0  0  0  0  0
  1  2  2  3
  1  3  1  0
  2  4  1  0
  2  5  1  0
M  RAD  1   1   2
M  END
>  <reaction>  (2) 
rxn_550

>  <mol_properties>  (2) 
{"0": {"label": "acceptor", "atom_type": "Cd"}}

>  <type>  (2) 
r2

$$$$

     RDKit          3D

  6  5  0  0  0  0  0  0  0  0999 V2000
    0.6594    0.0438   -0.0050 C   0  0  0  0  0  0  0  0  0  0  0  0
   -0.6594   -0.0438    0.0050 C   0  0  0  0  0  0  0  0  0  0  0  0
    1.1706    0.8681   -0.4881 H   0  0  0  0  0  0  0  0  0  0  0  0
    1.2824   -0.7051    0.4696 H   0  0  0  0  0  0  0  0  0  0  0  0
   -1.2824    0.7051   -0.4696 H   0  0  0  0  0  0  0  0  0  0  0  0
   -1.1706   -0.8681    0.4881 H   0  0  0  0  0  0  0  0  0  0  0  0
  1  2  2  3
  1  3  1  0
  1  4  1  0
  2  5  1  0
  2  6  1  0
M  END
>  <reaction>  (3) 
rxn_550

>  <mol_properties>  (3) 
{"0": {"label": "acceptor", "atom_type": "Cd"}, "5": {"label": "a_hydrogen", "atom_type": "H0"}}

>  <type>  (3) 
r2h

$$$$

     RDKit          3D

 24 24  0  0  0  0  0  0  0  0999 V2000
   -2.7425   -0.0151   -0.1542 C   0  0  0  0  0  3  0  0  0  0  0  0
   -3.1896   -0.4205    1.0123 C   0  0  0  0  0  0  0  0  0  0  0  0
   -3.2756   -0.0159   -1.0985 H   0  0  0  0  0  0  0  0  0  0  0  0
   -4.1936   -0.8173    1.1437 H   0  0  0  0  0  0  0  0  0  0  0  0
   -2.5683   -0.3738    1.9022 H   0  0  0  0  0  0  0  0  0  0  0  0
    0.4972   -1.1976   -0.9384 C   0  0  0  0  0  0  0  0  0  0  0  0
    0.4743   -1.2270    0.6148 C   0  0  0  0  0  0  0  0  0  0  0  0
    0.5448    0.2619    0.9946 C   0  0  0  0  0  0  0  0  0  0  0  0
    1.9687    0.7693    0.6917 C   0  0  0  0  0  0  0  0  0  0  0  0
    2.0124    0.7864   -0.8636 C   0  0  0  0  0  0  0  0  0  0  0  0
    0.6032    0.3020   -1.2594 C   0  0  0  0  0  0  0  0  0  0  0  0
   -0.2328    0.9120   -0.1424 C   0  0  0  0  0  0  0  0  0  0  0  0
   -0.4255   -1.6131   -1.3462 H   0  0  0  0  0  0  0  0  0  0  0  0
    1.3295   -1.7629   -1.3601 H   0  0  0  0  0  0  0  0  0  0  0  0
   -0.4488   -1.6780    0.9795 H   0  0  0  0  0  0  0  0  0  0  0  0
    1.3080   -1.7894    1.0376 H   0  0  0  0  0  0  0  0  0  0  0  0
    0.2049    0.4819    2.0054 H   0  0  0  0  0  0  0  0  0  0  0  0
    2.7302    0.1211    1.1286 H   0  0  0  0  0  0  0  0  0  0  0  0
    2.1169    1.7707    1.0988 H   0  0  0  0  0  0  0  0  0  0  0  0
    2.7907    0.1385   -1.2705 H   0  0  0  0  0  0  0  0  0  0  0  0
    2.1951    1.7941   -1.2396 H   0  0  0  0  0  0  0  0  0  0  0  0
    0.3178    0.5607   -2.2777 H   0  0  0  0  0  0  0  0  0  0  0  0
   -1.4512    0.4809   -0.1903 H   0  0  0  0  0  0  0  0  0  0  0  0
   -0.3112    1.9995   -0.1230 H   0  0  0  0  0  0  0  0  0  0  0  0
  1  2  2  3
  1  3  1  0
  2  4  1  0
  2  5  1  0
  6  7  1  0
  6 11  1  0
  6 13  1  0
  6 14  1  0
  7  8  1  0
  7 15  1  0
  7 16  1  0
  8  9  1  0
  8 12  1  0
  8 17  1  0
  9 10  1  0
  9 18  1  0
  9 19  1  0
 10 11  1  0
 10 20  1  0
 10 21  1  0
 11 12  1  0
 11 22  1  0
 12 23  1  0
 12 24  1  0
M  RAD  1   1   2
M  END
>  <reaction>  (4) 
rxn_550

>  <mol_properties>  (4) 
{"0": {"label": "*3", "atom_type": "Cd"}, "1": {"label": "*4", "atom_type": "Cd"}, "7": {"label": "*0", "atom_type": "Cs"}, "11": {"label": "*1", "atom_type": "Cs"}, "22": {"label": "*2", "atom_type": "H0"}}

>  <type>  (4) 
ts

$$$$
