
     RDKit          3D

 10  9  0  0  0  0  0  0  0  0999 V2000
    1.2734    0.0490    0.2233 C   0  0  0  0  0  0  0  0  0  0  0  0
    0.0091   -0.5167   -0.3796 C   0  0  0  0  0  0  0  0  0  0  0  0
   -1.2750    0.2005   -0.0353 C   0  0  0  0  0  0  0  0  0  0  0  0
    0.0241   -1.4856   -1.0949 O   0  0  0  0  0  0  0  0  0  0  0  0
    1.2000    0.0499    1.3134 H   0  0  0  0  0  0  0  0  0  0  0  0
    1.4040    1.0879   -0.0883 H   0  0  0  0  0  0  0  0  0  0  0  0
    2.1329   -0.5399   -0.0877 H   0  0  0  0  0  0  0  0  0  0  0  0
   -1.2178    1.2439   -0.3544 H   0  0  0  0  0  0  0  0  0  0  0  0
   -2.1179   -0.2871   -0.5191 H   0  0  0  0  0  0  0  0  0  0  0  0
   -1.4218    0.2058    1.0473 H   0  0  0  0  0  0  0  0  0  0  0  0
  1  2  1  0
  1  5  1  0
  1  6  1  0
  1  7  1  0
  2  3  1  0
  2  4  2  0
  3  8  1  0
  3  9  1  0
  3 10  1  0
M  END
>  <reaction>  (1) 
rxn_42

>  <mol_properties>  (1) 
{"0": {"label": "donator", "atom_type": "Cs"}, "4": {"label": "d_hydrogen", "atom_type": "H0"}}

>  <type>  (1) 
r1h

$$$$

     RDKit          3D

  2  1  0  0  0  0  0  0  0  0999 V2000
    0.0000    0.0000    0.4855 O   0  0  0  0  0  1  0  0  0  0  0  0
    0.0000    0.0000   -0.4855 H   0  0  0  0  0  0  0  0  0  0  0  0
  1  2  1  0
M  RAD  1   1   2
M  END
>  <reaction>  (2) 
rxn_42

>  <mol_properties>  (2) 
{"0": {"label": "acceptor", "atom_type": "O2s"}}

>  <type>  (2) 
r2

$$$$

     RDKit          3D

  3  2  0  0  0  0  0  0  0  0999 V2000
   -0.0003    0.3867    0.0000 O   0  0  0  0  0  0  0  0  0  0  0  0
   -0.7617   -0.1940    0.0000 H   0  0  0  0  0  0  0  0  0  0  0  0
    0.7620   -0.1927    0.0000 H   0  0  0  0  0  0  0  0  0  0  0  0
  1  2  1  0
  1  3  1  0
M  END
>  <reaction>  (3) 
rxn_42

>  <mol_properties>  (3) 
{"0": {"label": "a_hydrogen", "atom_type": "H0"}, "1": {"label": "acceptor", "atom_type": "O2s"}}

>  <type>  (3) 
r2h

$$$$

     RDKit          3D

 12 10  0  0  0  0  0  0  0  0999 V2000
    0.4714    0.7484    0.6132 C   0  0  0  0  0  0  0  0  0  0  0  0
    0.3162   -0.5882   -0.0503 C   0  0  0  0  0  0  0  0  0  0  0  0
    0.6651   -0.6565   -1.5135 C   0  0  0  0  0  0  0  0  0  0  0  0
   -0.1027   -1.5380    0.5647 O   0  0  0  0  0  0  0  0  0  0  0  0
   -0.4889    1.3675    0.2819 H   0  0  0  0  0  0  0  0  0  0  0  0
    1.2964    1.3526    0.2376 H   0  0  0  0  0  0  0  0  0  0  0  0
    0.4462    0.6833    1.6974 H   0  0  0  0  0  0  0  0  0  0  0  0
    1.7312   -0.4593   -1.6494 H   0  0  0  0  0  0  0  0  0  0  0  0
    0.4197   -1.6371   -1.9136 H   0  0  0  0  0  0  0  0  0  0  0  0
    0.1208    0.1199   -2.0561 H   0  0  0  0  0  0  0  0  0  0  0  0
   -1.7392    1.8174   -0.0633 O   0  0  0  0  0  1  0  0  0  0  0  0
   -2.2608    1.1619    0.4238 H   0  0  0  0  0  0  0  0  0  0  0  0
  1  2  1  0
  1  5  1  0
  1  6  1  0
  1  7  1  0
  2  3  1  0
  2  4  2  0
  3  8  1  0
  3  9  1  0
  3 10  1  0
 11 12  1  0
M  RAD  1  11   2
M  END
>  <reaction>  (4) 
rxn_42

>  <mol_properties>  (4) 
{"0": {"label": "*1", "atom_type": "Cs"}, "1": {"label": "*0", "atom_type": "CO"}, "4": {"label": "*2", "atom_type": "H0"}, "10": {"label": "*3", "atom_type": "O2s"}, "11": {"label": "*4", "atom_type": "H0"}}

>  <type>  (4) 
ts

$$$$
