
     RDKit          3D

  6  5  0  0  0  0  0  0  0  0999 V2000
    0.6594    0.0438   -0.0050 C   0  0  0  0  0  0  0  0  0  0  0  0
   -0.6594   -0.0438    0.0050 C   0  0  0  0  0  0  0  0  0  0  0  0
    1.1706    0.8681   -0.4881 H   0  0  0  0  0  0  0  0  0  0  0  0
    1.2824   -0.7051    0.4696 H   0  0  0  0  0  0  0  0  0  0  0  0
   -1.2824    0.7051   -0.4696 H   0  0  0  0  0  0  0  0  0  0  0  0
   -1.1706   -0.8681    0.4881 H   0  0  0  0  0  0  0  0  0  0  0  0
  1  2  2  3
  1  3  1  0
  1  4  1  0
  2  5  1  0
  2  6  1  0
M  END
>  <reaction>  (1) 
rxn_1607

>  <mol_properties>  (1) 
{"1": {"label": "donator", "atom_type": "Cd"}, "4": {"label": "d_hydrogen", "atom_type": "H0"}}

>  <type>  (1) 
r1h

$$$$

     RDKit          3D

  5  4  0  0  0  0  0  0  0  0999 V2000
    2.6288   -0.7067   -0.0494 S   0  0  0  0  0  0  0  0  0  0  0  0
    1.1409   -0.3066    0.0744 C   0  0  0  0  0  3  0  0  0  0  0  0
   -0.1298    0.0349    0.1801 C   0  0  0  0  0  0  0  0  0  0  0  0
   -1.3080    0.3516    0.2781 C   0  0  0  0  0  0  0  0  0  0  0  0
   -2.3320    0.6268    0.3633 H   0  0  0  0  0  0  0  0  0  0  0  0
  1  2  2  0
  2  3  1  0
  3  4  3  0
  4  5  1  0
M  RAD  1   2   2
M  END
>  <reaction>  (2) 
rxn_1607

>  <mol_properties>  (2) 
{"1": {"label": "acceptor", "atom_type": "CS"}}

>  <type>  (2) 
r2

$$$$

     RDKit          3D

  6  5  0  0  0  0  0  0  0  0999 V2000
   -1.9761    1.0978   -0.6585 S   0  0  0  0  0  0  0  0  0  0  0  0
   -1.0502    0.0275    0.1158 C   0  0  0  0  0  0  0  0  0  0  0  0
    0.3587   -0.0566   -0.0000 C   0  0  0  0  0  0  0  0  0  0  0  0
    1.5530   -0.1477   -0.0815 C   0  0  0  0  0  0  0  0  0  0  0  0
   -1.4972   -0.7045    0.7881 H   0  0  0  0  0  0  0  0  0  0  0  0
    2.6118   -0.2165   -0.1639 H   0  0  0  0  0  0  0  0  0  0  0  0
  1  2  2  0
  2  3  1  0
  2  5  1  0
  3  4  3  0
  4  6  1  0
M  END
>  <reaction>  (3) 
rxn_1607

>  <mol_properties>  (3) 
{"1": {"label": "acceptor", "atom_type": "CS"}, "5": {"label": "a_hydrogen", "atom_type": "H0"}}

>  <type>  (3) 
r2h

$$$$

     RDKit          3D

 11  9  0  0  0  0  0  0  0  0999 V2000
   -0.0021    1.4852   -0.6435 S   0  0  0  0  0  0  0  0  0  0  0  0
   -0.0008    0.1844    0.2876 C   0  0  0  0  0  0  0  0  0  0  0  0
   -0.0005    0.1087    1.6889 C   0  0  0  0  0  0  0  0  0  0  0  0
   -0.0002   -0.0389    2.8822 C   0  0  0  0  0  0  0  0  0  0  0  0
    0.0001   -0.1443    3.9412 H   0  0  0  0  0  0  0  0  0  0  0  0
    0.0004   -1.9082   -2.3514 C   0  0  0  0  0  0  0  0  0  0  0  0
    0.0009   -2.1695   -1.0706 C   0  0  0  0  0  3  0  0  0  0  0  0
   -0.0005   -0.8841   -2.7172 H   0  0  0  0  0  0  0  0  0  0  0  0
    0.0010   -2.6975   -3.1013 H   0  0  0  0  0  0  0  0  0  0  0  0
   -0.0000   -0.9263   -0.2445 H   0  0  0  0  0  0  0  0  0  0  0  0
    0.0018   -3.1032   -0.5228 H   0  0  0  0  0  0  0  0  0  0  0  0
  1  2  2  0
  2  3  1  0
  2 10  1  0
  3  4  3  0
  4  5  1  0
  6  7  2  3
  6  8  1  0
  6  9  1  0
  7 11  1  0
M  RAD  1   7   2
M  END
>  <reaction>  (4) 
rxn_1607

>  <mol_properties>  (4) 
{"0": {"label": "*0", "atom_type": "S2d"}, "1": {"label": "*1", "atom_type": "CS"}, "5": {"label": "*4", "atom_type": "Cd"}, "6": {"label": "*3", "atom_type": "Cd"}, "9": {"label": "*2", "atom_type": "H0"}}

>  <type>  (4) 
ts

$$$$
