
     RDKit          3D

 15 14  0  0  0  0  0  0  0  0999 V2000
   -0.6986    1.3249   -0.1641 C   0  0  0  0  0  0  0  0  0  0  0  0
   -0.2590   -0.0344    0.3671 C   0  0  0  0  0  0  0  0  0  0  0  0
   -0.4734   -0.1429    1.8733 C   0  0  0  0  0  0  0  0  0  0  0  0
   -0.9841   -1.1722   -0.3462 C   0  0  0  0  0  0  0  0  0  0  0  0
   -0.7805   -1.1911   -1.7444 O   0  0  0  0  0  0  0  0  0  0  0  0
   -0.1246    2.1306    0.2976 H   0  0  0  0  0  0  0  0  0  0  0  0
   -1.7557    1.4964    0.0581 H   0  0  0  0  0  0  0  0  0  0  0  0
   -0.5709    1.3852   -1.2449 H   0  0  0  0  0  0  0  0  0  0  0  0
    0.8141   -0.1541    0.1667 H   0  0  0  0  0  0  0  0  0  0  0  0
   -1.5346   -0.0466    2.1192 H   0  0  0  0  0  0  0  0  0  0  0  0
    0.0611    0.6480    2.4019 H   0  0  0  0  0  0  0  0  0  0  0  0
   -0.1249   -1.1023    2.2618 H   0  0  0  0  0  0  0  0  0  0  0  0
   -0.6918   -2.1316    0.1011 H   0  0  0  0  0  0  0  0  0  0  0  0
   -2.0629   -1.0627   -0.2056 H   0  0  0  0  0  0  0  0  0  0  0  0
    0.1528   -1.3298   -1.9125 H   0  0  0  0  0  0  0  0  0  0  0  0
  1  2  1  0
  1  6  1  0
  1  7  1  0
  1  8  1  0
  2  3  1  0
  2  4  1  0
  2  9  1  0
  3 10  1  0
  3 11  1  0
  3 12  1  0
  4  5  1  0
  4 13  1  0
  4 14  1  0
  5 15  1  0
M  END
>  <reaction>  (1) 
rxn_468

>  <mol_properties>  (1) 
{"1": {"label": "donator", "atom_type": "Cs"}, "8": {"label": "d_hydrogen", "atom_type": "H0"}}

>  <type>  (1) 
r1h

$$$$

     RDKit          3D

 10  9  0  0  0  0  0  0  0  0999 V2000
    1.2930    0.1441    0.3288 C   0  0  0  0  0  0  0  0  0  0  0  0
   -0.0374   -0.1647    0.9100 C   0  0  0  0  0  3  0  0  0  0  0  0
   -1.2664    0.4569    0.3567 C   0  0  0  0  0  0  0  0  0  0  0  0
    1.4384    1.2242    0.2174 H   0  0  0  0  0  0  0  0  0  0  0  0
    2.1077   -0.2477    0.9385 H   0  0  0  0  0  0  0  0  0  0  0  0
    1.4057   -0.2836   -0.6789 H   0  0  0  0  0  0  0  0  0  0  0  0
   -0.1309   -0.9912    1.6030 H   0  0  0  0  0  0  0  0  0  0  0  0
   -1.5005    0.0716   -0.6471 H   0  0  0  0  0  0  0  0  0  0  0  0
   -2.1382    0.2713    0.9849 H   0  0  0  0  0  0  0  0  0  0  0  0
   -1.1497    1.5406    0.2456 H   0  0  0  0  0  0  0  0  0  0  0  0
  1  2  1  0
  1  4  1  0
  1  5  1  0
  1  6  1  0
  2  3  1  0
  2  7  1  0
  3  8  1  0
  3  9  1  0
  3 10  1  0
M  RAD  1   2   2
M  END
>  <reaction>  (2) 
rxn_468

>  <mol_properties>  (2) 
{"1": {"label": "acceptor", "atom_type": "Cs"}}

>  <type>  (2) 
r2

$$$$

     RDKit          3D

 11 10  0  0  0  0  0  0  0  0999 V2000
   -1.2710    0.1907   -0.2084 C   0  0  0  0  0  0  0  0  0  0  0  0
    0.0202   -0.6130   -0.2928 C   0  0  0  0  0  0  0  0  0  0  0  0
    0.1086   -1.6953    0.7756 C   0  0  0  0  0  0  0  0  0  0  0  0
   -1.3607    0.6851    0.7620 H   0  0  0  0  0  0  0  0  0  0  0  0
   -2.1429   -0.4567   -0.3299 H   0  0  0  0  0  0  0  0  0  0  0  0
   -1.3158    0.9602   -0.9809 H   0  0  0  0  0  0  0  0  0  0  0  0
    0.8757    0.0616   -0.1992 H   0  0  0  0  0  0  0  0  0  0  0  0
    0.0997   -1.0712   -1.2825 H   0  0  0  0  0  0  0  0  0  0  0  0
   -0.7198   -2.4022    0.6850 H   0  0  0  0  0  0  0  0  0  0  0  0
    1.0395   -2.2596    0.6989 H   0  0  0  0  0  0  0  0  0  0  0  0
    0.0624   -1.2603    1.7770 H   0  0  0  0  0  0  0  0  0  0  0  0
  1  2  1  0
  1  4  1  0
  1  5  1  0
  1  6  1  0
  2  3  1  0
  2  7  1  0
  2  8  1  0
  3  9  1  0
  3 10  1  0
  3 11  1  0
M  END
>  <reaction>  (3) 
rxn_468

>  <mol_properties>  (3) 
{"0": {"label": "a_hydrogen", "atom_type": "H0"}, "2": {"label": "acceptor", "atom_type": "Cs"}}

>  <type>  (3) 
r2h

$$$$

     RDKit          3D

 25 23  0  0  0  0  0  0  0  0999 V2000
   -0.6394    0.4865   -1.7227 C   0  0  0  0  0  0  0  0  0  0  0  0
   -0.6244    0.8227   -0.2522 C   0  0  0  0  0  0  0  0  0  0  0  0
   -0.3253    2.2712    0.0496 C   0  0  0  0  0  0  0  0  0  0  0  0
   -1.8147    0.3020    0.5215 C   0  0  0  0  0  0  0  0  0  0  0  0
   -2.0757   -1.0731    0.3292 O   0  0  0  0  0  0  0  0  0  0  0  0
    0.2984    0.7776   -2.2005 H   0  0  0  0  0  0  0  0  0  0  0  0
   -1.4506    1.0194   -2.2341 H   0  0  0  0  0  0  0  0  0  0  0  0
   -0.7964   -0.5799   -1.8852 H   0  0  0  0  0  0  0  0  0  0  0  0
    0.4276    0.1784    0.2560 H   0  0  0  0  0  0  0  0  0  0  0  0
   -1.1168    2.9271   -0.3317 H   0  0  0  0  0  0  0  0  0  0  0  0
    0.6102    2.5830   -0.4197 H   0  0  0  0  0  0  0  0  0  0  0  0
   -0.2382    2.4475    1.1244 H   0  0  0  0  0  0  0  0  0  0  0  0
   -1.6829    0.5292    1.5886 H   0  0  0  0  0  0  0  0  0  0  0  0
   -2.7245    0.8201    0.1948 H   0  0  0  0  0  0  0  0  0  0  0  0
   -1.3117   -1.5687    0.6299 H   0  0  0  0  0  0  0  0  0  0  0  0
    2.5625   -0.2709   -0.3950 C   0  0  0  0  0  0  0  0  0  0  0  0
    1.5717   -0.4035    0.7310 C   0  0  0  0  0  3  0  0  0  0  0  0
    1.2148   -1.8130    1.1242 C   0  0  0  0  0  0  0  0  0  0  0  0
    2.2245   -0.8172   -1.2794 H   0  0  0  0  0  0  0  0  0  0  0  0
    2.7061    0.7730   -0.6803 H   0  0  0  0  0  0  0  0  0  0  0  0
    3.5430   -0.6747   -0.1173 H   0  0  0  0  0  0  0  0  0  0  0  0
    1.8058    0.2323    1.5855 H   0  0  0  0  0  0  0  0  0  0  0  0
    2.0906   -2.3663    1.4819 H   0  0  0  0  0  0  0  0  0  0  0  0
    0.4764   -1.8346    1.9301 H   0  0  0  0  0  0  0  0  0  0  0  0
    0.8183   -2.3713    0.2700 H   0  0  0  0  0  0  0  0  0  0  0  0
  1  2  1  0
  1  6  1  0
  1  7  1  0
  1  8  1  0
  2  3  1  0
  2  4  1  0
  2  9  1  0
  3 10  1  0
  3 11  1  0
  3 12  1  0
  4  5  1  0
  4 13  1  0
  4 14  1  0
  5 15  1  0
 16 17  1  0
 16 19  1  0
 16 20  1  0
 16 21  1  0
 17 18  1  0
 17 22  1  0
 18 23  1  0
 18 24  1  0
 18 25  1  0
M  RAD  1  17   2
M  END
>  <reaction>  (4) 
rxn_468

>  <mol_properties>  (4) 
{"1": {"label": "*1", "atom_type": "Cs"}, "3": {"label": "*0", "atom_type": "Cs"}, "8": {"label": "*2", "atom_type": "H0"}, "15": {"label": "*4", "atom_type": "Cs"}, "16": {"label": "*3", "atom_type": "Cs"}}

>  <type>  (4) 
ts

$$$$
