
     RDKit          3D

 12 11  0  0  0  0  0  0  0  0999 V2000
    1.3372   -0.1398    0.4136 C   0  0  0  0  0  0  0  0  0  0  0  0
   -0.0787    0.3743    0.2016 C   0  0  0  0  0  0  0  0  0  0  0  0
   -1.0057   -0.7011   -0.3445 C   0  0  0  0  0  0  0  0  0  0  0  0
   -0.0866    1.5266   -0.6273 O   0  0  0  0  0  0  0  0  0  0  0  0
    1.7593   -0.4986   -0.5303 H   0  0  0  0  0  0  0  0  0  0  0  0
    1.3510   -0.9703    1.1220 H   0  0  0  0  0  0  0  0  0  0  0  0
    1.9774    0.6555    0.7960 H   0  0  0  0  0  0  0  0  0  0  0  0
   -0.4728    0.7287    1.1572 H   0  0  0  0  0  0  0  0  0  0  0  0
   -1.0678   -1.5498    0.3393 H   0  0  0  0  0  0  0  0  0  0  0  0
   -2.0082   -0.2994   -0.4937 H   0  0  0  0  0  0  0  0  0  0  0  0
   -0.6364   -1.0726   -1.3055 H   0  0  0  0  0  0  0  0  0  0  0  0
    0.2522    1.2779   -1.4902 H   0  0  0  0  0  0  0  0  0  0  0  0
  1  2  1  0
  1  5  1  0
  1  6  1  0
  1  7  1  0
  2  3  1  0
  2  4  1  0
  2  8  1  0
  3  9  1  0
  3 10  1  0
  3 11  1  0
  4 12  1  0
M  END
>  <reaction>  (1) 
rxn_751

>  <mol_properties>  (1) 
{"0": {"label": "donator", "atom_type": "Cs"}, "4": {"label": "d_hydrogen", "atom_type": "H0"}}

>  <type>  (1) 
r1h

$$$$

     RDKit          3D

  4  3  0  0  0  0  0  0  0  0999 V2000
    0.0000    0.0000    0.0000 C   0  0  0  0  0  3  0  0  0  0  0  0
    1.0638   -0.1747    0.0540 H   0  0  0  0  0  0  0  0  0  0  0  0
   -0.6833   -0.8351   -0.0280 H   0  0  0  0  0  0  0  0  0  0  0  0
   -0.3805    1.0098   -0.0260 H   0  0  0  0  0  0  0  0  0  0  0  0
  1  2  1  0
  1  3  1  0
  1  4  1  0
M  RAD  1   1   2
M  END
>  <reaction>  (2) 
rxn_751

>  <mol_properties>  (2) 
{"0": {"label": "acceptor", "atom_type": "Cs"}}

>  <type>  (2) 
r2

$$$$

     RDKit          3D

  5  4  0  0  0  0  0  0  0  0999 V2000
    0.0000    0.0000    0.0000 C   0  0  0  0  0  0  0  0  0  0  0  0
   -0.6486   -0.7720   -0.4113 H   0  0  0  0  0  0  0  0  0  0  0  0
   -0.3482    0.9787   -0.3267 H   0  0  0  0  0  0  0  0  0  0  0  0
   -0.0223   -0.0487    1.0876 H   0  0  0  0  0  0  0  0  0  0  0  0
    1.0191   -0.1580   -0.3496 H   0  0  0  0  0  0  0  0  0  0  0  0
  1  2  1  0
  1  3  1  0
  1  4  1  0
  1  5  1  0
M  END
>  <reaction>  (3) 
rxn_751

>  <mol_properties>  (3) 
{"0": {"label": "a_hydrogen", "atom_type": "H0"}, "1": {"label": "acceptor", "atom_type": "Cs"}}

>  <type>  (3) 
r2h

$$$$

     RDKit          3D

 16 14  0  0  0  0  0  0  0  0999 V2000
    0.2821    0.1923    1.0311 C   0  0  0  0  0  0  0  0  0  0  0  0
    0.6334   -0.7156   -0.1207 C   0  0  0  0  0  0  0  0  0  0  0  0
    1.2970    0.0302   -1.2703 C   0  0  0  0  0  0  0  0  0  0  0  0
   -0.5021   -1.4440   -0.5619 O   0  0  0  0  0  0  0  0  0  0  0  0
   -0.6239    1.0439    0.5799 H   0  0  0  0  0  0  0  0  0  0  0  0
    1.0994    0.8243    1.3753 H   0  0  0  0  0  0  0  0  0  0  0  0
   -0.2189   -0.3177    1.8516 H   0  0  0  0  0  0  0  0  0  0  0  0
    1.3240   -1.4876    0.2366 H   0  0  0  0  0  0  0  0  0  0  0  0
    2.2238    0.5054   -0.9428 H   0  0  0  0  0  0  0  0  0  0  0  0
    1.5266   -0.6591   -2.0828 H   0  0  0  0  0  0  0  0  0  0  0  0
    0.6360    0.8113   -1.6548 H   0  0  0  0  0  0  0  0  0  0  0  0
   -1.1760   -0.8124   -0.8234 H   0  0  0  0  0  0  0  0  0  0  0  0
   -1.5852    1.8973    0.1012 C   0  0  0  0  0  3  0  0  0  0  0  0
   -2.4806    1.6503    0.6640 H   0  0  0  0  0  0  0  0  0  0  0  0
   -1.6745    1.6987   -0.9641 H   0  0  0  0  0  0  0  0  0  0  0  0
   -1.1968    2.8883    0.3162 H   0  0  0  0  0  0  0  0  0  0  0  0
  1  2  1  0
  1  5  1  0
  1  6  1  0
  1  7  1  0
  2  3  1  0
  2  4  1  0
  2  8  1  0
  3  9  1  0
  3 10  1  0
  3 11  1  0
  4 12  1  0
 13 14  1  0
 13 15  1  0
 13 16  1  0
M  RAD  1  13   2
M  END
>  <reaction>  (4) 
rxn_751

>  <mol_properties>  (4) 
{"0": {"label": "*1", "atom_type": "Cs"}, "1": {"label": "*0", "atom_type": "Cs"}, "4": {"label": "*2", "atom_type": "H0"}, "12": {"label": "*3", "atom_type": "Cs"}, "13": {"label": "*4", "atom_type": "H0"}}

>  <type>  (4) 
ts

$$$$
