
     RDKit          3D

 16 15  0  0  0  0  0  0  0  0999 V2000
    1.7961   -0.3807    1.6176 C   0  0  0  0  0  0  0  0  0  0  0  0
    0.8562   -0.8708    0.8256 C   0  0  0  0  0  0  0  0  0  0  0  0
    0.0895   -0.0826   -0.2048 C   0  0  0  0  0  0  0  0  0  0  0  0
   -1.4061   -0.1111    0.0982 C   0  0  0  0  0  0  0  0  0  0  0  0
    0.4476   -0.5902   -1.5797 C   0  0  0  0  0  0  0  0  0  0  0  0
   -0.3793   -1.1113   -2.4728 C   0  0  0  0  0  0  0  0  0  0  0  0
    2.3110   -1.0032    2.3386 H   0  0  0  0  0  0  0  0  0  0  0  0
    2.0846    0.6643    1.5737 H   0  0  0  0  0  0  0  0  0  0  0  0
    0.5921   -1.9241    0.8925 H   0  0  0  0  0  0  0  0  0  0  0  0
    0.4358    0.9557   -0.1462 H   0  0  0  0  0  0  0  0  0  0  0  0
   -1.5968    0.3080    1.0865 H   0  0  0  0  0  0  0  0  0  0  0  0
   -1.9674    0.4693   -0.6359 H   0  0  0  0  0  0  0  0  0  0  0  0
   -1.7902   -1.1338    0.0883 H   0  0  0  0  0  0  0  0  0  0  0  0
    1.5049   -0.5197   -1.8214 H   0  0  0  0  0  0  0  0  0  0  0  0
   -1.4421   -1.2131   -2.2889 H   0  0  0  0  0  0  0  0  0  0  0  0
   -0.0162   -1.4558   -3.4328 H   0  0  0  0  0  0  0  0  0  0  0  0
  1  2  2  3
  1  7  1  0
  1  8  1  0
  2  3  1  0
  2  9  1  0
  3  4  1  0
  3  5  1  0
  3 10  1  0
  4 11  1  0
  4 12  1  0
  4 13  1  0
  5  6  2  3
  5 14  1  0
  6 15  1  0
  6 16  1  0
M  END
>  <reaction>  (1) 
rxn_1170

>  <mol_properties>  (1) 
{"2": {"label": "donator", "atom_type": "Cs"}, "9": {"label": "d_hydrogen", "atom_type": "H0"}}

>  <type>  (1) 
r1h

$$$$

     RDKit          3D

  4  3  0  0  0  0  0  0  0  0999 V2000
    0.0000    0.0000    0.0000 C   0  0  0  0  0  3  0  0  0  0  0  0
    1.0638   -0.1747    0.0540 H   0  0  0  0  0  0  0  0  0  0  0  0
   -0.6833   -0.8351   -0.0280 H   0  0  0  0  0  0  0  0  0  0  0  0
   -0.3805    1.0098   -0.0260 H   0  0  0  0  0  0  0  0  0  0  0  0
  1  2  1  0
  1  3  1  0
  1  4  1  0
M  RAD  1   1   2
M  END
>  <reaction>  (2) 
rxn_1170

>  <mol_properties>  (2) 
{"0": {"label": "acceptor", "atom_type": "Cs"}}

>  <type>  (2) 
r2

$$$$

     RDKit          3D

  5  4  0  0  0  0  0  0  0  0999 V2000
    0.0000    0.0000    0.0000 C   0  0  0  0  0  0  0  0  0  0  0  0
   -0.6486   -0.7720   -0.4113 H   0  0  0  0  0  0  0  0  0  0  0  0
   -0.3482    0.9787   -0.3267 H   0  0  0  0  0  0  0  0  0  0  0  0
   -0.0223   -0.0487    1.0876 H   0  0  0  0  0  0  0  0  0  0  0  0
    1.0191   -0.1580   -0.3496 H   0  0  0  0  0  0  0  0  0  0  0  0
  1  2  1  0
  1  3  1  0
  1  4  1  0
  1  5  1  0
M  END
>  <reaction>  (3) 
rxn_1170

>  <mol_properties>  (3) 
{"0": {"label": "acceptor", "atom_type": "Cs"}, "4": {"label": "a_hydrogen", "atom_type": "H0"}}

>  <type>  (3) 
r2h

$$$$

     RDKit          3D

 20 18  0  0  0  0  0  0  0  0999 V2000
    0.4344    2.1818   -1.2902 C   0  0  0  0  0  3  0  0  0  0  0  0
    0.7060    2.8925   -0.5177 H   0  0  0  0  0  0  0  0  0  0  0  0
   -0.5479    2.3272   -1.7257 H   0  0  0  0  0  0  0  0  0  0  0  0
    1.2218    1.9247   -1.9896 H   0  0  0  0  0  0  0  0  0  0  0  0
    0.0098   -1.2454   -2.0470 C   0  0  0  0  0  0  0  0  0  0  0  0
    0.4404   -1.2279   -0.7943 C   0  0  0  0  0  0  0  0  0  0  0  0
    0.2300   -0.1086    0.1770 C   0  0  0  0  0  0  0  0  0  0  0  0
    1.3780    0.0527    1.1533 C   0  0  0  0  0  0  0  0  0  0  0  0
   -1.1330   -0.1036    0.7676 C   0  0  0  0  0  0  0  0  0  0  0  0
   -1.4472    0.1612    2.0311 C   0  0  0  0  0  0  0  0  0  0  0  0
    0.1796   -2.0985   -2.6911 H   0  0  0  0  0  0  0  0  0  0  0  0
   -0.5287   -0.4053   -2.4724 H   0  0  0  0  0  0  0  0  0  0  0  0
    0.9900   -2.0864   -0.4120 H   0  0  0  0  0  0  0  0  0  0  0  0
    0.2648    0.9213   -0.5132 H   0  0  0  0  0  0  0  0  0  0  0  0
    2.3270    0.0989    0.6173 H   0  0  0  0  0  0  0  0  0  0  0  0
    1.2770    0.9697    1.7355 H   0  0  0  0  0  0  0  0  0  0  0  0
    1.4225   -0.7878    1.8519 H   0  0  0  0  0  0  0  0  0  0  0  0
   -1.9312   -0.3247    0.0644 H   0  0  0  0  0  0  0  0  0  0  0  0
   -0.6972    0.3761    2.7825 H   0  0  0  0  0  0  0  0  0  0  0  0
   -2.4791    0.1618    2.3577 H   0  0  0  0  0  0  0  0  0  0  0  0
  1  2  1  0
  1  3  1  0
  1  4  1  0
  5  6  2  3
  5 11  1  0
  5 12  1  0
  6  7  1  0
  6 13  1  0
  7  8  1  0
  7  9  1  0
  7 14  1  0
  8 15  1  0
  8 16  1  0
  8 17  1  0
  9 10  2  3
  9 18  1  0
 10 19  1  0
 10 20  1  0
M  RAD  1   1   2
M  END
>  <reaction>  (4) 
rxn_1170

>  <mol_properties>  (4) 
{"0": {"label": "*3", "atom_type": "Cs"}, "1": {"label": "*4", "atom_type": "H0"}, "5": {"label": "*0", "atom_type": "Cd"}, "6": {"label": "*1", "atom_type": "Cs"}, "13": {"label": "*2", "atom_type": "H0"}}

>  <type>  (4) 
ts

$$$$
