
     RDKit          3D

 12 11  0  0  0  0  0  0  0  0999 V2000
    1.2394   -0.3763   -0.3020 C   0  0  0  0  0  0  0  0  0  0  0  0
    0.1007    0.3023    0.4464 C   0  0  0  0  0  0  0  0  0  0  0  0
   -0.1187    2.0399   -0.0725 S   0  0  0  0  0  0  0  0  0  0  0  0
   -1.1974   -0.4877    0.3552 C   0  0  0  0  0  0  0  0  0  0  0  0
    2.1681    0.1849   -0.2048 H   0  0  0  0  0  0  0  0  0  0  0  0
    1.0031   -0.4606   -1.3656 H   0  0  0  0  0  0  0  0  0  0  0  0
    1.3994   -1.3856    0.0860 H   0  0  0  0  0  0  0  0  0  0  0  0
    0.3796    0.4050    1.4981 H   0  0  0  0  0  0  0  0  0  0  0  0
   -0.4500    1.7779   -1.3452 H   0  0  0  0  0  0  0  0  0  0  0  0
   -1.0545   -1.4978    0.7479 H   0  0  0  0  0  0  0  0  0  0  0  0
   -1.5206   -0.5759   -0.6849 H   0  0  0  0  0  0  0  0  0  0  0  0
   -1.9957   -0.0054    0.9183 H   0  0  0  0  0  0  0  0  0  0  0  0
  1  2  1  0
  1  5  1  0
  1  6  1  0
  1  7  1  0
  2  4  1  0
  2  3  1  0
  2  8  1  0
  3  9  1  0
  4 10  1  0
  4 11  1  0
  4 12  1  0
M  END
>  <reaction>  (1) 
rxn_1949

>  <mol_properties>  (1) 
{"1": {"label": "donator", "atom_type": "Cs"}, "7": {"label": "d_hydrogen", "atom_type": "H0"}}

>  <type>  (1) 
r1h

$$$$

     RDKit          3D

  5  4  0  0  0  0  0  0  0  0999 V2000
    2.6236   -0.7239   -0.0480 S   0  0  0  0  0  0  0  0  0  0  0  0
    1.1387   -0.3127    0.0749 C   0  0  0  0  0  3  0  0  0  0  0  0
   -0.1295    0.0381    0.1799 C   0  0  0  0  0  0  0  0  0  0  0  0
   -1.3055    0.3633    0.2773 C   0  0  0  0  0  0  0  0  0  0  0  0
   -2.3276    0.6458    0.3620 H   0  0  0  0  0  0  0  0  0  0  0  0
  1  2  2  0
  2  3  1  0
  3  4  3  0
  4  5  1  0
M  RAD  1   2   2
M  END
>  <reaction>  (2) 
rxn_1949

>  <mol_properties>  (2) 
{"1": {"label": "acceptor", "atom_type": "CS"}}

>  <type>  (2) 
r2

$$$$

     RDKit          3D

  6  5  0  0  0  0  0  0  0  0999 V2000
   -1.9761    1.0978   -0.6585 S   0  0  0  0  0  0  0  0  0  0  0  0
   -1.0502    0.0275    0.1158 C   0  0  0  0  0  0  0  0  0  0  0  0
    0.3587   -0.0566   -0.0000 C   0  0  0  0  0  0  0  0  0  0  0  0
    1.5530   -0.1477   -0.0815 C   0  0  0  0  0  0  0  0  0  0  0  0
   -1.4972   -0.7045    0.7881 H   0  0  0  0  0  0  0  0  0  0  0  0
    2.6118   -0.2165   -0.1639 H   0  0  0  0  0  0  0  0  0  0  0  0
  1  2  2  0
  2  3  1  0
  2  5  1  0
  3  4  3  0
  4  6  1  0
M  END
>  <reaction>  (3) 
rxn_1949

>  <mol_properties>  (3) 
{"1": {"label": "acceptor", "atom_type": "CS"}, "5": {"label": "a_hydrogen", "atom_type": "H0"}}

>  <type>  (3) 
r2h

$$$$

     RDKit          3D

 17 15  0  0  0  0  0  0  0  0999 V2000
   -0.8311   -0.7028    1.8861 S   0  0  0  0  0  0  0  0  0  0  0  0
   -1.0664   -0.2169    0.3838 C   0  0  0  0  0  0  0  0  0  0  0  0
   -2.2409   -0.0295   -0.3448 C   0  0  0  0  0  0  0  0  0  0  0  0
   -3.1891    0.1612   -1.0633 C   0  0  0  0  0  0  0  0  0  0  0  0
   -4.0465    0.3179   -1.6738 H   0  0  0  0  0  0  0  0  0  0  0  0
    0.7912    0.9921   -2.2585 C   0  0  0  0  0  0  0  0  0  0  0  0
    1.1219    0.7895   -0.8007 C   0  0  0  0  0  3  0  0  0  0  0  0
    2.3798   -0.4480   -0.5792 S   0  0  0  0  0  0  0  0  0  0  0  0
    1.2802    2.0482    0.0127 C   0  0  0  0  0  0  0  0  0  0  0  0
    0.6092    0.0432   -2.7649 H   0  0  0  0  0  0  0  0  0  0  0  0
    1.6040    1.5076   -2.7805 H   0  0  0  0  0  0  0  0  0  0  0  0
   -0.1072    1.6054   -2.3508 H   0  0  0  0  0  0  0  0  0  0  0  0
    0.0114    0.2119   -0.2799 H   0  0  0  0  0  0  0  0  0  0  0  0
    2.4212   -0.3964    0.7595 H   0  0  0  0  0  0  0  0  0  0  0  0
    0.4077    2.6922   -0.1220 H   0  0  0  0  0  0  0  0  0  0  0  0
    2.1685    2.6061   -0.2984 H   0  0  0  0  0  0  0  0  0  0  0  0
    1.3747    1.8248    1.0768 H   0  0  0  0  0  0  0  0  0  0  0  0
  1  2  2  0
  2  3  1  0
  2 13  1  0
  3  4  3  0
  4  5  1  0
  6  7  1  0
  6 10  1  0
  6 11  1  0
  6 12  1  0
  7  9  1  0
  7  8  1  0
  8 14  1  0
  9 15  1  0
  9 16  1  0
  9 17  1  0
M  RAD  1   7   2
M  END
>  <reaction>  (4) 
rxn_1949

>  <mol_properties>  (4) 
{"0": {"label": "*0", "atom_type": "S2d"}, "1": {"label": "*1", "atom_type": "CS"}, "6": {"label": "*3", "atom_type": "Cs"}, "7": {"label": "*4", "atom_type": "S2s"}, "12": {"label": "*2", "atom_type": "H0"}}

>  <type>  (4) 
ts

$$$$
