
     RDKit          3D

  5  4  0  0  0  0  0  0  0  0999 V2000
    0.0000    0.0000    0.0000 C   0  0  0  0  0  0  0  0  0  0  0  0
   -0.6486   -0.7720   -0.4113 H   0  0  0  0  0  0  0  0  0  0  0  0
   -0.3482    0.9787   -0.3267 H   0  0  0  0  0  0  0  0  0  0  0  0
   -0.0223   -0.0487    1.0876 H   0  0  0  0  0  0  0  0  0  0  0  0
    1.0191   -0.1580   -0.3496 H   0  0  0  0  0  0  0  0  0  0  0  0
  1  2  1  0
  1  3  1  0
  1  4  1  0
  1  5  1  0
M  END
>  <reaction>  (1) 
rxn_128

>  <mol_properties>  (1) 
{"0": {"label": "donator", "atom_type": "Cs"}, "1": {"label": "d_hydrogen", "atom_type": "H0"}}

>  <type>  (1) 
r1h

$$$$

     RDKit          3D

  2  1  0  0  0  0  0  0  0  0999 V2000
    0.0000    0.0000    0.5193 N   0  0  0  0  0  1  0  0  0  0  0  0
    0.0000    0.0000   -0.5193 H   0  0  0  0  0  0  0  0  0  0  0  0
  1  2  1  0
M  RAD  1   1   3
M  END
>  <reaction>  (2) 
rxn_128

>  <mol_properties>  (2) 
{"0": {"label": "acceptor", "atom_type": "N3s"}}

>  <type>  (2) 
r2

$$$$

     RDKit          3D

  3  2  0  0  0  0  0  0  0  0999 V2000
    0.0002    0.4233    0.0000 N   0  0  0  0  0  2  0  0  0  0  0  0
   -0.8051   -0.2112    0.0000 H   0  0  0  0  0  0  0  0  0  0  0  0
    0.8049   -0.2121    0.0000 H   0  0  0  0  0  0  0  0  0  0  0  0
  1  2  1  0
  1  3  1  0
M  RAD  1   1   2
M  END
>  <reaction>  (3) 
rxn_128

>  <mol_properties>  (3) 
{"0": {"label": "acceptor", "atom_type": "N3s"}, "2": {"label": "a_hydrogen", "atom_type": "H0"}}

>  <type>  (3) 
r2h

$$$$

     RDKit          3D

  7  5  0  0  0  0  0  0  0  0999 V2000
   -0.2906    1.2403    0.3336 N   0  0  0  0  0  2  0  0  0  0  0  0
    0.4805    1.6178   -0.2393 H   0  0  0  0  0  0  0  0  0  0  0  0
   -0.0138   -1.2350   -0.4196 C   0  0  0  0  0  3  0  0  0  0  0  0
   -0.2285    0.0811    0.0379 H   0  0  0  0  0  0  0  0  0  0  0  0
    1.0008   -1.4717   -0.1163 H   0  0  0  0  0  0  0  0  0  0  0  0
   -0.7849   -1.7763    0.1189 H   0  0  0  0  0  0  0  0  0  0  0  0
   -0.1634   -1.1829   -1.4931 H   0  0  0  0  0  0  0  0  0  0  0  0
  1  2  1  0
  1  4  1  0
  3  5  1  0
  3  6  1  0
  3  7  1  0
M  RAD  2   1   2   3   2
M  END
>  <reaction>  (4) 
rxn_128

>  <mol_properties>  (4) 
{"0": {"label": "*1", "atom_type": "N3s"}, "1": {"label": "*0", "atom_type": "H0"}, "2": {"label": "*3", "atom_type": "Cs"}, "3": {"label": "*2", "atom_type": "H0"}, "4": {"label": "*4", "atom_type": "H0"}}

>  <type>  (4) 
ts

$$$$
