
     RDKit          3D

 11 10  0  0  0  0  0  0  0  0999 V2000
   -1.2710    0.1907   -0.2084 C   0  0  0  0  0  0  0  0  0  0  0  0
    0.0202   -0.6130   -0.2928 C   0  0  0  0  0  0  0  0  0  0  0  0
    0.1086   -1.6953    0.7756 C   0  0  0  0  0  0  0  0  0  0  0  0
   -1.3607    0.6851    0.7620 H   0  0  0  0  0  0  0  0  0  0  0  0
   -2.1429   -0.4567   -0.3299 H   0  0  0  0  0  0  0  0  0  0  0  0
   -1.3158    0.9602   -0.9809 H   0  0  0  0  0  0  0  0  0  0  0  0
    0.8757    0.0616   -0.1992 H   0  0  0  0  0  0  0  0  0  0  0  0
    0.0997   -1.0712   -1.2825 H   0  0  0  0  0  0  0  0  0  0  0  0
   -0.7198   -2.4022    0.6850 H   0  0  0  0  0  0  0  0  0  0  0  0
    1.0395   -2.2596    0.6989 H   0  0  0  0  0  0  0  0  0  0  0  0
    0.0624   -1.2603    1.7770 H   0  0  0  0  0  0  0  0  0  0  0  0
  1  2  1  0
  1  4  1  0
  1  5  1  0
  1  6  1  0
  2  3  1  0
  2  7  1  0
  2  8  1  0
  3  9  1  0
  3 10  1  0
  3 11  1  0
M  END
>  <reaction>  (1) 
rxn_331

>  <mol_properties>  (1) 
{"1": {"label": "donator", "atom_type": "Cs"}, "6": {"label": "d_hydrogen", "atom_type": "H0"}}

>  <type>  (1) 
r1h

$$$$

     RDKit          3D

  5  4  0  0  0  0  0  0  0  0999 V2000
   -0.4594   -0.0218    0.1029 C   0  0  0  0  0  3  0  0  0  0  0  0
    0.7950   -0.5236   -0.0267 O   0  0  0  0  0  0  0  0  0  0  0  0
   -0.5206    1.0442   -0.0551 H   0  0  0  0  0  0  0  0  0  0  0  0
   -1.3063   -0.6674   -0.0961 H   0  0  0  0  0  0  0  0  0  0  0  0
    0.7727   -1.4781    0.0538 H   0  0  0  0  0  0  0  0  0  0  0  0
  1  2  1  0
  1  3  1  0
  1  4  1  0
  2  5  1  0
M  RAD  1   1   2
M  END
>  <reaction>  (2) 
rxn_331

>  <mol_properties>  (2) 
{"0": {"label": "acceptor", "atom_type": "Cs"}}

>  <type>  (2) 
r2

$$$$

     RDKit          3D

  6  5  0  0  0  0  0  0  0  0999 V2000
   -0.3669    0.0060    0.0609 C   0  0  0  0  0  0  0  0  0  0  0  0
    0.9818   -0.0507    0.4695 O   0  0  0  0  0  0  0  0  0  0  0  0
   -0.6066    0.9462   -0.4488 H   0  0  0  0  0  0  0  0  0  0  0  0
   -0.5221   -0.8115   -0.6420 H   0  0  0  0  0  0  0  0  0  0  0  0
   -1.0602   -0.1268    0.8992 H   0  0  0  0  0  0  0  0  0  0  0  0
    1.1451    0.6595    1.0897 H   0  0  0  0  0  0  0  0  0  0  0  0
  1  2  1  0
  1  3  1  0
  1  4  1  0
  1  5  1  0
  2  6  1  0
M  END
>  <reaction>  (3) 
rxn_331

>  <mol_properties>  (3) 
{"0": {"label": "acceptor", "atom_type": "Cs"}, "5": {"label": "a_hydrogen", "atom_type": "H0"}}

>  <type>  (3) 
r2h

$$$$

     RDKit          3D

 16 14  0  0  0  0  0  0  0  0999 V2000
    0.9646   -1.1803    0.8258 C   0  0  0  0  0  0  0  0  0  0  0  0
    1.9990   -0.2960    0.5469 O   0  0  0  0  0  0  0  0  0  0  0  0
    1.0838   -2.0751    0.2195 H   0  0  0  0  0  0  0  0  0  0  0  0
    0.8381   -1.4096    1.8876 H   0  0  0  0  0  0  0  0  0  0  0  0
    1.9388    0.4509    1.1438 H   0  0  0  0  0  0  0  0  0  0  0  0
   -1.1335   -0.0534   -1.5631 C   0  0  0  0  0  0  0  0  0  0  0  0
   -1.2126    0.1257   -0.0703 C   0  0  0  0  0  3  0  0  0  0  0  0
   -0.9351    1.5165    0.4372 C   0  0  0  0  0  0  0  0  0  0  0  0
   -0.1471    0.2374   -1.9343 H   0  0  0  0  0  0  0  0  0  0  0  0
   -1.8744    0.5648   -2.0833 H   0  0  0  0  0  0  0  0  0  0  0  0
   -1.3085   -1.0911   -1.8526 H   0  0  0  0  0  0  0  0  0  0  0  0
   -0.1927   -0.6259    0.4263 H   0  0  0  0  0  0  0  0  0  0  0  0
   -2.0986   -0.3266    0.3772 H   0  0  0  0  0  0  0  0  0  0  0  0
   -1.6973    2.2294    0.1025 H   0  0  0  0  0  0  0  0  0  0  0  0
   -0.9149    1.5508    1.5291 H   0  0  0  0  0  0  0  0  0  0  0  0
    0.0270    1.8793    0.0640 H   0  0  0  0  0  0  0  0  0  0  0  0
  1  2  1  0
  1  3  1  0
  1  4  1  0
  1 12  1  0
  2  5  1  0
  6  7  1  0
  6  9  1  0
  6 10  1  0
  6 11  1  0
  7  8  1  0
  7 13  1  0
  8 14  1  0
  8 15  1  0
  8 16  1  0
M  RAD  1   7   2
M  END
>  <reaction>  (4) 
rxn_331

>  <mol_properties>  (4) 
{"0": {"label": "*1", "atom_type": "Cs"}, "1": {"label": "*0", "atom_type": "O2s"}, "5": {"label": "*4", "atom_type": "Cs"}, "6": {"label": "*3", "atom_type": "Cs"}, "11": {"label": "*2", "atom_type": "H0"}}

>  <type>  (4) 
ts

$$$$
