
     RDKit          3D

  9  8  0  0  0  0  0  0  0  0999 V2000
    1.1303   -0.2933   -0.7510 C   0  0  0  0  0  0  0  0  0  0  0  0
    0.2866    0.4560   -0.0588 C   0  0  0  0  0  0  0  0  0  0  0  0
   -0.9719   -0.0331    0.5823 C   0  0  0  0  0  0  0  0  0  0  0  0
    2.0274    0.1230   -1.1916 H   0  0  0  0  0  0  0  0  0  0  0  0
    0.9532   -1.3530   -0.9023 H   0  0  0  0  0  0  0  0  0  0  0  0
    0.5065    1.5132    0.0659 H   0  0  0  0  0  0  0  0  0  0  0  0
   -0.9526    0.1426    1.6610 H   0  0  0  0  0  0  0  0  0  0  0  0
   -1.1182   -1.1002    0.4106 H   0  0  0  0  0  0  0  0  0  0  0  0
   -1.8412    0.5010    0.1901 H   0  0  0  0  0  0  0  0  0  0  0  0
  1  2  2  3
  1  4  1  0
  1  5  1  0
  2  3  1  0
  2  6  1  0
  3  7  1  0
  3  8  1  0
  3  9  1  0
M  END
>  <reaction>  (1) 
rxn_1016

>  <mol_properties>  (1) 
{"2": {"label": "donator", "atom_type": "Cs"}, "6": {"label": "d_hydrogen", "atom_type": "H0"}}

>  <type>  (1) 
r1h

$$$$

     RDKit          3D

  7  6  0  0  0  0  0  0  0  0999 V2000
    1.3003    0.7433    2.1278 C   0  0  0  0  0  0  0  0  0  0  0  0
    0.5759    0.3292    1.2319 C   0  0  0  0  0  0  0  0  0  0  0  0
   -0.2057   -0.1176    0.2652 C   0  0  0  0  0  3  0  0  0  0  0  0
   -0.9747   -0.5572   -0.6858 C   0  0  0  0  0  0  0  0  0  0  0  0
    1.9294    1.1030    2.9059 H   0  0  0  0  0  0  0  0  0  0  0  0
   -1.9977   -0.8727   -0.4931 H   0  0  0  0  0  0  0  0  0  0  0  0
   -0.6275   -0.6280   -1.7142 H   0  0  0  0  0  0  0  0  0  0  0  0
  1  2  3  0
  1  5  1  0
  2  3  1  0
  3  4  2  3
  4  6  1  0
  4  7  1  0
M  RAD  1   3   2
M  END
>  <reaction>  (2) 
rxn_1016

>  <mol_properties>  (2) 
{"2": {"label": "acceptor", "atom_type": "Cd"}}

>  <type>  (2) 
r2

$$$$

     RDKit          3D

  8  7  0  0  0  0  0  0  0  0999 V2000
    1.9029    0.9046   -0.2050 C   0  0  0  0  0  0  0  0  0  0  0  0
    0.8517    0.4283    0.1217 C   0  0  0  0  0  0  0  0  0  0  0  0
   -0.3908   -0.1311    0.5404 C   0  0  0  0  0  0  0  0  0  0  0  0
   -1.2847   -0.6576   -0.2899 C   0  0  0  0  0  0  0  0  0  0  0  0
    2.8335    1.3255   -0.5014 H   0  0  0  0  0  0  0  0  0  0  0  0
   -0.5867   -0.1096    1.6074 H   0  0  0  0  0  0  0  0  0  0  0  0
   -2.2126   -1.0686    0.0850 H   0  0  0  0  0  0  0  0  0  0  0  0
   -1.1134   -0.6914   -1.3582 H   0  0  0  0  0  0  0  0  0  0  0  0
  1  2  3  0
  1  5  1  0
  2  3  1  0
  3  4  2  3
  3  6  1  0
  4  7  1  0
  4  8  1  0
M  END
>  <reaction>  (3) 
rxn_1016

>  <mol_properties>  (3) 
{"2": {"label": "acceptor", "atom_type": "Cd"}, "7": {"label": "a_hydrogen", "atom_type": "H0"}}

>  <type>  (3) 
r2h

$$$$

     RDKit          3D

 16 14  0  0  0  0  0  0  0  0999 V2000
   -1.3807   -1.1276    2.9573 C   0  0  0  0  0  0  0  0  0  0  0  0
   -1.1891   -0.5037    1.9437 C   0  0  0  0  0  0  0  0  0  0  0  0
   -0.8564    0.1429    0.7593 C   0  0  0  0  0  3  0  0  0  0  0  0
   -1.4018    1.1057    0.0444 C   0  0  0  0  0  0  0  0  0  0  0  0
   -1.5727   -1.6633    3.8557 H   0  0  0  0  0  0  0  0  0  0  0  0
   -2.3280    1.5888    0.3416 H   0  0  0  0  0  0  0  0  0  0  0  0
   -0.9290    1.4448   -0.8716 H   0  0  0  0  0  0  0  0  0  0  0  0
    1.9415    1.0991   -2.1439 C   0  0  0  0  0  0  0  0  0  0  0  0
    1.3646   -0.0485   -1.7825 C   0  0  0  0  0  0  0  0  0  0  0  0
    1.4202   -0.6234   -0.4412 C   0  0  0  0  0  0  0  0  0  0  0  0
    1.8427    1.4898   -3.1483 H   0  0  0  0  0  0  0  0  0  0  0  0
    2.5374    1.6752   -1.4445 H   0  0  0  0  0  0  0  0  0  0  0  0
    0.7755   -0.5893   -2.5179 H   0  0  0  0  0  0  0  0  0  0  0  0
    0.3379   -0.3152    0.1624 H   0  0  0  0  0  0  0  0  0  0  0  0
    2.1859   -0.2033    0.2083 H   0  0  0  0  0  0  0  0  0  0  0  0
    1.3902   -1.7100   -0.3976 H   0  0  0  0  0  0  0  0  0  0  0  0
  1  2  3  0
  1  5  1  0
  2  3  1  0
  3  4  2  3
  4  6  1  0
  4  7  1  0
  8  9  2  3
  8 11  1  0
  8 12  1  0
  9 10  1  0
  9 13  1  0
 10 14  1  0
 10 15  1  0
 10 16  1  0
M  RAD  1   3   2
M  END
>  <reaction>  (4) 
rxn_1016

>  <mol_properties>  (4) 
{"1": {"label": "*4", "atom_type": "Ct"}, "2": {"label": "*3", "atom_type": "Cd"}, "8": {"label": "*0", "atom_type": "Cd"}, "9": {"label": "*1", "atom_type": "Cs"}, "13": {"label": "*2", "atom_type": "H0"}}

>  <type>  (4) 
ts

$$$$
