
     RDKit          3D

  9  8  0  0  0  0  0  0  0  0999 V2000
    1.1303   -0.2933   -0.7510 C   0  0  0  0  0  0  0  0  0  0  0  0
    0.2866    0.4560   -0.0588 C   0  0  0  0  0  0  0  0  0  0  0  0
   -0.9719   -0.0331    0.5823 C   0  0  0  0  0  0  0  0  0  0  0  0
    2.0274    0.1230   -1.1916 H   0  0  0  0  0  0  0  0  0  0  0  0
    0.9532   -1.3530   -0.9023 H   0  0  0  0  0  0  0  0  0  0  0  0
    0.5065    1.5132    0.0659 H   0  0  0  0  0  0  0  0  0  0  0  0
   -0.9526    0.1426    1.6610 H   0  0  0  0  0  0  0  0  0  0  0  0
   -1.1182   -1.1002    0.4106 H   0  0  0  0  0  0  0  0  0  0  0  0
   -1.8412    0.5010    0.1901 H   0  0  0  0  0  0  0  0  0  0  0  0
  1  2  2  3
  1  4  1  0
  1  5  1  0
  2  3  1  0
  2  6  1  0
  3  7  1  0
  3  8  1  0
  3  9  1  0
M  END
>  <reaction>  (1) 
rxn_1641

>  <mol_properties>  (1) 
{"1": {"label": "donator", "atom_type": "Cd"}, "5": {"label": "d_hydrogen", "atom_type": "H0"}}

>  <type>  (1) 
r1h

$$$$

     RDKit          3D

  6  5  0  0  0  0  0  0  0  0999 V2000
   -0.5028    0.1222    0.0383 C   0  0  0  0  0  0  0  0  0  0  0  0
    0.9563    0.1199    0.2015 C   0  0  0  0  0  3  0  0  0  0  0  0
    2.2007   -0.6837   -0.2834 S   0  0  0  0  0  0  0  0  0  0  0  0
   -0.8647   -0.6725   -0.6213 H   0  0  0  0  0  0  0  0  0  0  0  0
   -0.8170    1.0923   -0.3550 H   0  0  0  0  0  0  0  0  0  0  0  0
   -0.9725    0.0219    1.0200 H   0  0  0  0  0  0  0  0  0  0  0  0
  1  2  1  0
  1  4  1  0
  1  5  1  0
  1  6  1  0
  2  3  2  0
M  RAD  1   2   2
M  END
>  <reaction>  (2) 
rxn_1641

>  <mol_properties>  (2) 
{"1": {"label": "acceptor", "atom_type": "CS"}}

>  <type>  (2) 
r2

$$$$

     RDKit          3D

  7  6  0  0  0  0  0  0  0  0999 V2000
   -0.6782    0.0507    0.0301 C   0  0  0  0  0  0  0  0  0  0  0  0
    0.8092    0.0996    0.0213 C   0  0  0  0  0  0  0  0  0  0  0  0
    1.7473    0.7521    1.1507 S   0  0  0  0  0  0  0  0  0  0  0  0
   -1.0667    0.5456   -0.8653 H   0  0  0  0  0  0  0  0  0  0  0  0
   -1.0112   -0.9904   -0.0239 H   0  0  0  0  0  0  0  0  0  0  0  0
   -1.0920    0.5225    0.9188 H   0  0  0  0  0  0  0  0  0  0  0  0
    1.2740   -0.3620   -0.8520 H   0  0  0  0  0  0  0  0  0  0  0  0
  1  2  1  0
  1  4  1  0
  1  5  1  0
  1  6  1  0
  2  3  2  0
  2  7  1  0
M  END
>  <reaction>  (3) 
rxn_1641

>  <mol_properties>  (3) 
{"0": {"label": "a_hydrogen", "atom_type": "H0"}, "2": {"label": "acceptor", "atom_type": "CS"}}

>  <type>  (3) 
r2h

$$$$

     RDKit          3D

 15 13  0  0  0  0  0  0  0  0999 V2000
   -0.0386    1.4118   -2.0047 C   0  0  0  0  0  0  0  0  0  0  0  0
    0.2901    1.5589   -0.7430 C   0  0  0  0  0  3  0  0  0  0  0  0
    0.6200    2.7476    0.0755 C   0  0  0  0  0  0  0  0  0  0  0  0
   -0.2467    0.4311   -2.4216 H   0  0  0  0  0  0  0  0  0  0  0  0
   -0.1153    2.2637   -2.6798 H   0  0  0  0  0  0  0  0  0  0  0  0
    0.3217    0.2883   -0.0700 H   0  0  0  0  0  0  0  0  0  0  0  0
   -0.0725    2.8511    0.9143 H   0  0  0  0  0  0  0  0  0  0  0  0
    0.5691    3.6631   -0.5230 H   0  0  0  0  0  0  0  0  0  0  0  0
    1.6268    2.6699    0.4926 H   0  0  0  0  0  0  0  0  0  0  0  0
    0.6957   -0.7881    1.9000 C   0  0  0  0  0  0  0  0  0  0  0  0
    0.3314   -0.8630    0.4640 C   0  0  0  0  0  0  0  0  0  0  0  0
   -0.0263   -2.1250   -0.4353 S   0  0  0  0  0  0  0  0  0  0  0  0
    0.7103   -1.7666    2.3793 H   0  0  0  0  0  0  0  0  0  0  0  0
   -0.0136   -0.1346    2.4165 H   0  0  0  0  0  0  0  0  0  0  0  0
    1.6774   -0.3149    1.9969 H   0  0  0  0  0  0  0  0  0  0  0  0
  1  2  2  3
  1  4  1  0
  1  5  1  0
  2  3  1  0
  3  7  1  0
  3  8  1  0
  3  9  1  0
  6 11  1  0
 10 11  1  0
 10 13  1  0
 10 14  1  0
 10 15  1  0
 11 12  2  0
M  RAD  1   2   2
M  END
>  <reaction>  (4) 
rxn_1641

>  <mol_properties>  (4) 
{"0": {"label": "*4", "atom_type": "Cd"}, "1": {"label": "*3", "atom_type": "Cd"}, "5": {"label": "*2", "atom_type": "H0"}, "10": {"label": "*1", "atom_type": "CS"}, "11": {"label": "*0", "atom_type": "S2d"}}

>  <type>  (4) 
ts

$$$$
