
     RDKit          3D

  7  6  0  0  0  0  0  0  0  0999 V2000
    1.6964   -0.0938    0.0583 C   0  0  0  0  0  0  0  0  0  0  0  0
    0.5019   -0.0278    0.0173 C   0  0  0  0  0  0  0  0  0  0  0  0
   -0.9505    0.0525   -0.0327 C   0  0  0  0  0  0  0  0  0  0  0  0
    2.7574   -0.1524    0.0947 H   0  0  0  0  0  0  0  0  0  0  0  0
   -1.2692    0.9972   -0.4754 H   0  0  0  0  0  0  0  0  0  0  0  0
   -1.3749   -0.0147    0.9700 H   0  0  0  0  0  0  0  0  0  0  0  0
   -1.3610   -0.7611   -0.6323 H   0  0  0  0  0  0  0  0  0  0  0  0
  1  2  3  0
  1  4  1  0
  2  3  1  0
  3  5  1  0
  3  6  1  0
  3  7  1  0
M  END
>  <reaction>  (1) 
rxn_1235

>  <mol_properties>  (1) 
{"2": {"label": "donator", "atom_type": "Cs"}, "4": {"label": "d_hydrogen", "atom_type": "H0"}}

>  <type>  (1) 
r1h

$$$$

     RDKit          3D

  5  4  0  0  0  0  0  0  0  0999 V2000
   -0.5642    0.0794    0.0348 C   0  0  0  0  0  3  0  0  0  0  0  0
    1.0624    0.5420    0.2853 S   0  0  0  0  0  0  0  0  0  0  0  0
   -1.3257    0.7631    0.3741 H   0  0  0  0  0  0  0  0  0  0  0  0
   -0.8236   -0.8519   -0.4401 H   0  0  0  0  0  0  0  0  0  0  0  0
    1.6511   -0.5325   -0.2540 H   0  0  0  0  0  0  0  0  0  0  0  0
  1  2  1  0
  1  3  1  0
  1  4  1  0
  2  5  1  0
M  RAD  1   1   2
M  END
>  <reaction>  (2) 
rxn_1235

>  <mol_properties>  (2) 
{"0": {"label": "acceptor", "atom_type": "Cs"}}

>  <type>  (2) 
r2

$$$$

     RDKit          3D

  6  5  0  0  0  0  0  0  0  0999 V2000
   -0.5072   -0.0291   -0.0097 C   0  0  0  0  0  0  0  0  0  0  0  0
    1.1321   -0.1527   -0.7687 S   0  0  0  0  0  0  0  0  0  0  0  0
   -0.6174   -0.7330    0.8127 H   0  0  0  0  0  0  0  0  0  0  0  0
   -0.5863    0.9827    0.3845 H   0  0  0  0  0  0  0  0  0  0  0  0
   -1.2962   -0.1800   -0.7434 H   0  0  0  0  0  0  0  0  0  0  0  0
    1.0312   -1.4237   -1.1764 H   0  0  0  0  0  0  0  0  0  0  0  0
  1  2  1  0
  1  3  1  0
  1  4  1  0
  1  5  1  0
  2  6  1  0
M  END
>  <reaction>  (3) 
rxn_1235

>  <mol_properties>  (3) 
{"0": {"label": "a_hydrogen", "atom_type": "H0"}, "1": {"label": "acceptor", "atom_type": "Cs"}}

>  <type>  (3) 
r2h

$$$$

     RDKit          3D

 12 10  0  0  0  0  0  0  0  0999 V2000
    0.2846   -1.6662   -1.9026 C   0  0  0  0  0  0  0  0  0  0  0  0
   -0.0659   -1.7648   -0.7555 C   0  0  0  0  0  0  0  0  0  0  0  0
   -0.4475   -1.7972    0.6134 C   0  0  0  0  0  0  0  0  0  0  0  0
    0.5796   -1.6140   -2.9228 H   0  0  0  0  0  0  0  0  0  0  0  0
   -0.0928   -0.6077    1.1129 H   0  0  0  0  0  0  0  0  0  0  0  0
    0.0955   -2.5163    1.2221 H   0  0  0  0  0  0  0  0  0  0  0  0
   -1.5211   -1.8220    0.7851 H   0  0  0  0  0  0  0  0  0  0  0  0
    0.3043    0.6361    1.4829 C   0  0  0  0  0  3  0  0  0  0  0  0
   -0.3770    1.7932    0.3442 S   0  0  0  0  0  0  0  0  0  0  0  0
   -0.1059    0.7926    2.4770 H   0  0  0  0  0  0  0  0  0  0  0  0
    1.3886    0.5619    1.4764 H   0  0  0  0  0  0  0  0  0  0  0  0
    0.2975    1.3744   -0.7353 H   0  0  0  0  0  0  0  0  0  0  0  0
  1  2  3  0
  1  4  1  0
  2  3  1  0
  3  5  1  0
  3  6  1  0
  3  7  1  0
  8  9  1  0
  8 10  1  0
  8 11  1  0
  9 12  1  0
M  RAD  1   8   2
M  END
>  <reaction>  (4) 
rxn_1235

>  <mol_properties>  (4) 
{"1": {"label": "*0", "atom_type": "Ct"}, "2": {"label": "*1", "atom_type": "Cs"}, "4": {"label": "*2", "atom_type": "H0"}, "7": {"label": "*3", "atom_type": "Cs"}, "8": {"label": "*4", "atom_type": "S2s"}}

>  <type>  (4) 
ts

$$$$
