
     RDKit          3D

  7  6  0  0  0  0  0  0  0  0999 V2000
   -0.2485    1.7413   -0.3992 O   0  0  0  0  0  0  0  0  0  0  0  0
    0.0502    0.5901   -0.2826 C   0  0  0  0  0  0  0  0  0  0  0  0
    1.4448    0.1264   -0.3338 C   0  0  0  0  0  0  0  0  0  0  0  0
    2.5364   -0.2222   -0.3757 N   0  0  0  0  0  0  0  0  0  0  0  0
   -1.0118   -0.4953   -0.0692 C   0  0  0  0  0  0  0  0  0  0  0  0
   -0.7311   -1.6469    0.0488 O   0  0  0  0  0  0  0  0  0  0  0  0
   -2.0400   -0.0934   -0.0387 H   0  0  0  0  0  0  0  0  0  0  0  0
  1  2  2  0
  2  3  1  0
  2  5  1  0
  3  4  3  0
  5  6  2  0
  5  7  1  0
M  END
>  <reaction>  (1) 
rxn_3239

>  <mol_properties>  (1) 
{"4": {"label": "donator", "atom_type": "CO"}, "6": {"label": "d_hydrogen", "atom_type": "H0"}}

>  <type>  (1) 
r1h

$$$$

     RDKit          3D

  7  6  0  0  0  0  0  0  0  0999 V2000
   -1.3059    0.5497   -0.1304 N   0  0  0  0  0  2  0  0  0  0  0  0
   -0.2700   -0.4288    0.0448 C   0  0  0  0  0  0  0  0  0  0  0  0
    1.1109    0.0669    0.0401 C   0  0  0  0  0  0  0  0  0  0  0  0
    2.1758    0.4925    0.0308 N   0  0  0  0  0  0  0  0  0  0  0  0
   -0.8815    1.4733   -0.2339 H   0  0  0  0  0  0  0  0  0  0  0  0
   -0.3767   -1.1909   -0.7373 H   0  0  0  0  0  0  0  0  0  0  0  0
   -0.4527   -0.9628    0.9858 H   0  0  0  0  0  0  0  0  0  0  0  0
  1  2  1  0
  1  5  1  0
  2  3  1  0
  2  6  1  0
  2  7  1  0
  3  4  3  0
M  RAD  1   1   2
M  END
>  <reaction>  (2) 
rxn_3239

>  <mol_properties>  (2) 
{"0": {"label": "acceptor", "atom_type": "N3s"}}

>  <type>  (2) 
r2

$$$$

     RDKit          3D

  8  7  0  0  0  0  0  0  0  0999 V2000
   -1.0805    0.5317    0.0204 N   0  0  0  0  0  0  0  0  0  0  0  0
   -0.1080   -0.5393    0.0956 C   0  0  0  0  0  0  0  0  0  0  0  0
    1.2945   -0.1247   -0.1005 C   0  0  0  0  0  0  0  0  0  0  0  0
    2.3714    0.2386   -0.2580 N   0  0  0  0  0  0  0  0  0  0  0  0
   -1.0516    0.9857   -0.8822 H   0  0  0  0  0  0  0  0  0  0  0  0
   -0.9009    1.2352    0.7235 H   0  0  0  0  0  0  0  0  0  0  0  0
   -0.3427   -1.2965   -0.6542 H   0  0  0  0  0  0  0  0  0  0  0  0
   -0.1810   -1.0288    1.0680 H   0  0  0  0  0  0  0  0  0  0  0  0
  1  2  1  0
  1  5  1  0
  1  6  1  0
  2  3  1  0
  2  7  1  0
  2  8  1  0
  3  4  3  0
M  END
>  <reaction>  (3) 
rxn_3239

>  <mol_properties>  (3) 
{"0": {"label": "acceptor", "atom_type": "N3s"}, "7": {"label": "a_hydrogen", "atom_type": "H0"}}

>  <type>  (3) 
r2h

$$$$

     RDKit          3D

 14 12  0  0  0  0  0  0  0  0999 V2000
   -0.4076   -2.3937   -0.1650 N   0  0  0  0  0  2  0  0  0  0  0  0
    0.7969   -2.4691   -0.9750 C   0  0  0  0  0  0  0  0  0  0  0  0
    1.1356   -1.2091   -1.6525 C   0  0  0  0  0  0  0  0  0  0  0  0
    1.3477   -0.1814   -2.1172 N   0  0  0  0  0  0  0  0  0  0  0  0
   -1.1613   -2.0231   -0.7473 H   0  0  0  0  0  0  0  0  0  0  0  0
    0.6687   -3.2485   -1.7334 H   0  0  0  0  0  0  0  0  0  0  0  0
    1.6408   -2.7629   -0.3489 H   0  0  0  0  0  0  0  0  0  0  0  0
   -1.6747    0.6370   -0.2974 O   0  0  0  0  0  0  0  0  0  0  0  0
   -0.7940    0.9237    0.4534 C   0  0  0  0  0  0  0  0  0  0  0  0
   -0.4810    2.3030    0.8350 C   0  0  0  0  0  0  0  0  0  0  0  0
   -0.2257    3.3736    1.1574 N   0  0  0  0  0  0  0  0  0  0  0  0
    0.0795   -0.1770    1.1105 C   0  0  0  0  0  0  0  0  0  0  0  0
    0.9336    0.0355    1.8947 O   0  0  0  0  0  0  0  0  0  0  0  0
   -0.2194   -1.3348    0.6575 H   0  0  0  0  0  0  0  0  0  0  0  0
  1  2  1  0
  1  5  1  0
  2  3  1  0
  2  6  1  0
  2  7  1  0
  3  4  3  0
  8  9  2  0
  9 10  1  0
  9 12  1  0
 10 11  3  0
 12 13  2  0
 12 14  1  0
M  RAD  1   1   2
M  END
>  <reaction>  (4) 
rxn_3239

>  <mol_properties>  (4) 
{"0": {"label": "*3", "atom_type": "N3s"}, "1": {"label": "*4", "atom_type": "Cs"}, "8": {"label": "*0", "atom_type": "CO"}, "11": {"label": "*1", "atom_type": "CO"}, "13": {"label": "*2", "atom_type": "H0"}}

>  <type>  (4) 
ts

$$$$
