
     RDKit          3D

 16 15  0  0  0  0  0  0  0  0999 V2000
    1.7961   -0.3807    1.6176 C   0  0  0  0  0  0  0  0  0  0  0  0
    0.8562   -0.8708    0.8256 C   0  0  0  0  0  0  0  0  0  0  0  0
    0.0895   -0.0826   -0.2048 C   0  0  0  0  0  0  0  0  0  0  0  0
   -1.4061   -0.1111    0.0982 C   0  0  0  0  0  0  0  0  0  0  0  0
    0.4476   -0.5902   -1.5797 C   0  0  0  0  0  0  0  0  0  0  0  0
   -0.3793   -1.1113   -2.4728 C   0  0  0  0  0  0  0  0  0  0  0  0
    2.3110   -1.0032    2.3386 H   0  0  0  0  0  0  0  0  0  0  0  0
    2.0846    0.6643    1.5737 H   0  0  0  0  0  0  0  0  0  0  0  0
    0.5921   -1.9241    0.8925 H   0  0  0  0  0  0  0  0  0  0  0  0
    0.4358    0.9557   -0.1462 H   0  0  0  0  0  0  0  0  0  0  0  0
   -1.5968    0.3080    1.0865 H   0  0  0  0  0  0  0  0  0  0  0  0
   -1.9674    0.4693   -0.6359 H   0  0  0  0  0  0  0  0  0  0  0  0
   -1.7902   -1.1338    0.0883 H   0  0  0  0  0  0  0  0  0  0  0  0
    1.5049   -0.5197   -1.8214 H   0  0  0  0  0  0  0  0  0  0  0  0
   -1.4421   -1.2131   -2.2889 H   0  0  0  0  0  0  0  0  0  0  0  0
   -0.0162   -1.4558   -3.4328 H   0  0  0  0  0  0  0  0  0  0  0  0
  1  2  2  3
  1  7  1  0
  1  8  1  0
  2  3  1  0
  2  9  1  0
  3  4  1  0
  3  5  1  0
  3 10  1  0
  4 11  1  0
  4 12  1  0
  4 13  1  0
  5  6  2  3
  5 14  1  0
  6 15  1  0
  6 16  1  0
M  END
>  <reaction>  (1) 
rxn_1211

>  <mol_properties>  (1) 
{"2": {"label": "donator", "atom_type": "Cs"}, "9": {"label": "d_hydrogen", "atom_type": "H0"}}

>  <type>  (1) 
r1h

$$$$

     RDKit          3D

  7  6  0  0  0  0  0  0  0  0999 V2000
   -0.6904   -0.9066   -0.0346 C   0  0  0  0  0  0  0  0  0  0  0  0
    0.1413    0.0254   -0.6161 C   0  0  0  0  0  0  0  0  0  0  0  0
    0.4603    0.1105   -1.9267 C   0  0  0  0  0  3  0  0  0  0  0  0
    0.8318    0.2180   -3.4201 S   0  0  0  0  0  0  0  0  0  0  0  0
   -0.8731   -0.8770    1.0287 H   0  0  0  0  0  0  0  0  0  0  0  0
   -1.1718   -1.6767   -0.6199 H   0  0  0  0  0  0  0  0  0  0  0  0
    0.6090    0.7866    0.0044 H   0  0  0  0  0  0  0  0  0  0  0  0
  1  2  2  3
  1  5  1  0
  1  6  1  0
  2  3  1  0
  2  7  1  0
  3  4  2  0
M  RAD  1   3   2
M  END
>  <reaction>  (2) 
rxn_1211

>  <mol_properties>  (2) 
{"2": {"label": "acceptor", "atom_type": "CS"}}

>  <type>  (2) 
r2

$$$$

     RDKit          3D

  8  7  0  0  0  0  0  0  0  0999 V2000
   -1.1617    0.0338    0.5053 C   0  0  0  0  0  0  0  0  0  0  0  0
   -0.1023    0.4503   -0.1863 C   0  0  0  0  0  0  0  0  0  0  0  0
    1.0978   -0.3557   -0.3104 C   0  0  0  0  0  0  0  0  0  0  0  0
    2.4251    0.0667   -1.1256 S   0  0  0  0  0  0  0  0  0  0  0  0
   -1.1653   -0.9292    1.0039 H   0  0  0  0  0  0  0  0  0  0  0  0
   -2.0546    0.6389    0.5948 H   0  0  0  0  0  0  0  0  0  0  0  0
   -0.0991    1.4132   -0.6847 H   0  0  0  0  0  0  0  0  0  0  0  0
    1.0601   -1.3180    0.2032 H   0  0  0  0  0  0  0  0  0  0  0  0
  1  2  2  3
  1  5  1  0
  1  6  1  0
  2  3  1  0
  2  7  1  0
  3  4  2  0
  3  8  1  0
M  END
>  <reaction>  (3) 
rxn_1211

>  <mol_properties>  (3) 
{"0": {"label": "a_hydrogen", "atom_type": "H0"}, "3": {"label": "acceptor", "atom_type": "CS"}}

>  <type>  (3) 
r2h

$$$$

     RDKit          3D

 23 21  0  0  0  0  0  0  0  0999 V2000
    0.3153   -2.9160   -0.9901 C   0  0  0  0  0  0  0  0  0  0  0  0
   -0.5150   -2.2853   -0.1638 C   0  0  0  0  0  0  0  0  0  0  0  0
   -0.1990   -1.1277    0.7006 C   0  0  0  0  0  0  0  0  0  0  0  0
    1.2421   -0.6727    0.7281 C   0  0  0  0  0  0  0  0  0  0  0  0
   -0.9086   -1.1585    1.9927 C   0  0  0  0  0  0  0  0  0  0  0  0
   -0.4681   -0.6803    3.1544 C   0  0  0  0  0  0  0  0  0  0  0  0
   -0.0273   -3.7472   -1.5926 H   0  0  0  0  0  0  0  0  0  0  0  0
    1.3601   -2.6445   -1.0810 H   0  0  0  0  0  0  0  0  0  0  0  0
   -1.5460   -2.6273   -0.1117 H   0  0  0  0  0  0  0  0  0  0  0  0
   -0.7988   -0.1418    0.1262 H   0  0  0  0  0  0  0  0  0  0  0  0
    1.6299   -0.5391   -0.2826 H   0  0  0  0  0  0  0  0  0  0  0  0
    1.3337    0.2858    1.2401 H   0  0  0  0  0  0  0  0  0  0  0  0
    1.8775   -1.3977    1.2436 H   0  0  0  0  0  0  0  0  0  0  0  0
   -1.9050   -1.5919    1.9608 H   0  0  0  0  0  0  0  0  0  0  0  0
    0.5136   -0.2377    3.2658 H   0  0  0  0  0  0  0  0  0  0  0  0
   -1.0868   -0.7254    4.0410 H   0  0  0  0  0  0  0  0  0  0  0  0
   -0.3202    0.5653   -2.4921 C   0  0  0  0  0  0  0  0  0  0  0  0
   -0.8744    1.4743   -1.6902 C   0  0  0  0  0  0  0  0  0  0  0  0
   -1.2761    1.1660   -0.3371 C   0  0  0  0  0  3  0  0  0  0  0  0
   -1.9739    2.0615    0.7678 S   0  0  0  0  0  0  0  0  0  0  0  0
   -0.0333    0.8184   -3.5051 H   0  0  0  0  0  0  0  0  0  0  0  0
   -0.1491   -0.4526   -2.1616 H   0  0  0  0  0  0  0  0  0  0  0  0
   -1.0514    2.4875   -2.0424 H   0  0  0  0  0  0  0  0  0  0  0  0
  1  2  2  3
  1  7  1  0
  1  8  1  0
  2  3  1  0
  2  9  1  0
  3  4  1  0
  3  5  1  0
  3 10  1  0
  4 11  1  0
  4 12  1  0
  4 13  1  0
  5  6  2  3
  5 14  1  0
  6 15  1  0
  6 16  1  0
 17 18  2  3
 17 21  1  0
 17 22  1  0
 18 19  1  0
 18 23  1  0
 19 20  2  0
M  RAD  1  19   2
M  END
>  <reaction>  (4) 
rxn_1211

>  <mol_properties>  (4) 
{"1": {"label": "*0", "atom_type": "Cd"}, "2": {"label": "*1", "atom_type": "Cs"}, "9": {"label": "*2", "atom_type": "H0"}, "18": {"label": "*3", "atom_type": "CS"}, "19": {"label": "*4", "atom_type": "S2d"}}

>  <type>  (4) 
ts

$$$$
