
     RDKit          3D

 11 10  0  0  0  0  0  0  0  0999 V2000
   -1.2710    0.1907   -0.2084 C   0  0  0  0  0  0  0  0  0  0  0  0
    0.0202   -0.6130   -0.2928 C   0  0  0  0  0  0  0  0  0  0  0  0
    0.1086   -1.6953    0.7756 C   0  0  0  0  0  0  0  0  0  0  0  0
   -1.3607    0.6851    0.7620 H   0  0  0  0  0  0  0  0  0  0  0  0
   -2.1429   -0.4567   -0.3299 H   0  0  0  0  0  0  0  0  0  0  0  0
   -1.3158    0.9602   -0.9809 H   0  0  0  0  0  0  0  0  0  0  0  0
    0.8757    0.0616   -0.1992 H   0  0  0  0  0  0  0  0  0  0  0  0
    0.0997   -1.0712   -1.2825 H   0  0  0  0  0  0  0  0  0  0  0  0
   -0.7198   -2.4022    0.6850 H   0  0  0  0  0  0  0  0  0  0  0  0
    1.0395   -2.2596    0.6989 H   0  0  0  0  0  0  0  0  0  0  0  0
    0.0624   -1.2603    1.7770 H   0  0  0  0  0  0  0  0  0  0  0  0
  1  2  1  0
  1  4  1  0
  1  5  1  0
  1  6  1  0
  2  3  1  0
  2  7  1  0
  2  8  1  0
  3  9  1  0
  3 10  1  0
  3 11  1  0
M  END
>  <reaction>  (1) 
rxn_948

>  <mol_properties>  (1) 
{"1": {"label": "donator", "atom_type": "Cs"}, "6": {"label": "d_hydrogen", "atom_type": "H0"}}

>  <type>  (1) 
r1h

$$$$

     RDKit          3D

  6  5  0  0  0  0  0  0  0  0999 V2000
   -0.5122    0.0769    0.0313 C   0  0  0  0  0  0  0  0  0  0  0  0
    0.8184   -0.5422    0.0757 C   0  0  0  0  0  3  0  0  0  0  0  0
    2.3075   -0.1691   -0.1943 S   0  0  0  0  0  0  0  0  0  0  0  0
   -1.1500   -0.4948   -0.6475 H   0  0  0  0  0  0  0  0  0  0  0  0
   -0.4906    1.1243   -0.2849 H   0  0  0  0  0  0  0  0  0  0  0  0
   -0.9730    0.0050    1.0197 H   0  0  0  0  0  0  0  0  0  0  0  0
  1  2  1  0
  1  4  1  0
  1  5  1  0
  1  6  1  0
  2  3  2  0
M  RAD  1   2   2
M  END
>  <reaction>  (2) 
rxn_948

>  <mol_properties>  (2) 
{"1": {"label": "acceptor", "atom_type": "CS"}}

>  <type>  (2) 
r2

$$$$

     RDKit          3D

  7  6  0  0  0  0  0  0  0  0999 V2000
   -0.6782    0.0507    0.0301 C   0  0  0  0  0  0  0  0  0  0  0  0
    0.8092    0.0996    0.0213 C   0  0  0  0  0  0  0  0  0  0  0  0
    1.7473    0.7521    1.1507 S   0  0  0  0  0  0  0  0  0  0  0  0
   -1.0667    0.5456   -0.8653 H   0  0  0  0  0  0  0  0  0  0  0  0
   -1.0112   -0.9904   -0.0239 H   0  0  0  0  0  0  0  0  0  0  0  0
   -1.0920    0.5225    0.9188 H   0  0  0  0  0  0  0  0  0  0  0  0
    1.2740   -0.3620   -0.8520 H   0  0  0  0  0  0  0  0  0  0  0  0
  1  2  1  0
  1  4  1  0
  1  5  1  0
  1  6  1  0
  2  3  2  0
  2  7  1  0
M  END
>  <reaction>  (3) 
rxn_948

>  <mol_properties>  (3) 
{"1": {"label": "acceptor", "atom_type": "CS"}, "6": {"label": "a_hydrogen", "atom_type": "H0"}}

>  <type>  (3) 
r2h

$$$$

     RDKit          3D

 17 15  0  0  0  0  0  0  0  0999 V2000
    0.5048   -1.0353    1.9509 C   0  0  0  0  0  0  0  0  0  0  0  0
    0.6808   -0.1338    0.7881 C   0  0  0  0  0  0  0  0  0  0  0  0
    1.9983    0.2883    0.0042 S   0  0  0  0  0  0  0  0  0  0  0  0
    0.0249   -0.4821    2.7637 H   0  0  0  0  0  0  0  0  0  0  0  0
    1.4457   -1.4607    2.3010 H   0  0  0  0  0  0  0  0  0  0  0  0
   -0.1853   -1.8397    1.6793 H   0  0  0  0  0  0  0  0  0  0  0  0
   -1.6526    0.4511   -1.5524 C   0  0  0  0  0  0  0  0  0  0  0  0
   -1.6070    0.9598   -0.1377 C   0  0  0  0  0  3  0  0  0  0  0  0
   -1.3460    2.4316    0.0296 C   0  0  0  0  0  0  0  0  0  0  0  0
   -0.7253    0.6929   -2.0784 H   0  0  0  0  0  0  0  0  0  0  0  0
   -2.4763    0.9088   -2.1125 H   0  0  0  0  0  0  0  0  0  0  0  0
   -1.7896   -0.6311   -1.5889 H   0  0  0  0  0  0  0  0  0  0  0  0
   -0.4815    0.3710    0.3813 H   0  0  0  0  0  0  0  0  0  0  0  0
   -2.4084    0.5777    0.4960 H   0  0  0  0  0  0  0  0  0  0  0  0
   -2.1478    3.0304   -0.4178 H   0  0  0  0  0  0  0  0  0  0  0  0
   -1.2719    2.7123    1.0817 H   0  0  0  0  0  0  0  0  0  0  0  0
   -0.4122    2.7154   -0.4629 H   0  0  0  0  0  0  0  0  0  0  0  0
  1  2  1  0
  1  4  1  0
  1  5  1  0
  1  6  1  0
  2  3  2  0
  2 13  1  0
  7  8  1  0
  7 10  1  0
  7 11  1  0
  7 12  1  0
  8  9  1  0
  8 14  1  0
  9 15  1  0
  9 16  1  0
  9 17  1  0
M  RAD  1   8   2
M  END
>  <reaction>  (4) 
rxn_948

>  <mol_properties>  (4) 
{"1": {"label": "*1", "atom_type": "CS"}, "2": {"label": "*0", "atom_type": "S2d"}, "6": {"label": "*4", "atom_type": "Cs"}, "7": {"label": "*3", "atom_type": "Cs"}, "12": {"label": "*2", "atom_type": "H0"}}

>  <type>  (4) 
ts

$$$$
