
     RDKit          3D

 16 15  0  0  0  0  0  0  0  0999 V2000
    1.7961   -0.3807    1.6176 C   0  0  0  0  0  0  0  0  0  0  0  0
    0.8562   -0.8708    0.8256 C   0  0  0  0  0  0  0  0  0  0  0  0
    0.0895   -0.0826   -0.2048 C   0  0  0  0  0  0  0  0  0  0  0  0
   -1.4061   -0.1111    0.0982 C   0  0  0  0  0  0  0  0  0  0  0  0
    0.4476   -0.5902   -1.5797 C   0  0  0  0  0  0  0  0  0  0  0  0
   -0.3793   -1.1113   -2.4728 C   0  0  0  0  0  0  0  0  0  0  0  0
    2.3110   -1.0032    2.3386 H   0  0  0  0  0  0  0  0  0  0  0  0
    2.0846    0.6643    1.5737 H   0  0  0  0  0  0  0  0  0  0  0  0
    0.5921   -1.9241    0.8925 H   0  0  0  0  0  0  0  0  0  0  0  0
    0.4358    0.9557   -0.1462 H   0  0  0  0  0  0  0  0  0  0  0  0
   -1.5968    0.3080    1.0865 H   0  0  0  0  0  0  0  0  0  0  0  0
   -1.9674    0.4693   -0.6359 H   0  0  0  0  0  0  0  0  0  0  0  0
   -1.7902   -1.1338    0.0883 H   0  0  0  0  0  0  0  0  0  0  0  0
    1.5049   -0.5197   -1.8214 H   0  0  0  0  0  0  0  0  0  0  0  0
   -1.4421   -1.2131   -2.2889 H   0  0  0  0  0  0  0  0  0  0  0  0
   -0.0162   -1.4558   -3.4328 H   0  0  0  0  0  0  0  0  0  0  0  0
  1  2  2  3
  1  7  1  0
  1  8  1  0
  2  3  1  0
  2  9  1  0
  3  4  1  0
  3  5  1  0
  3 10  1  0
  4 11  1  0
  4 12  1  0
  4 13  1  0
  5  6  2  3
  5 14  1  0
  6 15  1  0
  6 16  1  0
M  END
>  <reaction>  (1) 
rxn_1190

>  <mol_properties>  (1) 
{"2": {"label": "donator", "atom_type": "Cs"}, "9": {"label": "d_hydrogen", "atom_type": "H0"}}

>  <type>  (1) 
r1h

$$$$

     RDKit          3D

  7  6  0  0  0  0  0  0  0  0999 V2000
    1.3002    0.7433    2.1279 C   0  0  0  0  0  0  0  0  0  0  0  0
    0.5758    0.3292    1.2319 C   0  0  0  0  0  0  0  0  0  0  0  0
   -0.2057   -0.1176    0.2652 C   0  0  0  0  0  3  0  0  0  0  0  0
   -0.9747   -0.5572   -0.6858 C   0  0  0  0  0  0  0  0  0  0  0  0
    1.9293    1.1030    2.9060 H   0  0  0  0  0  0  0  0  0  0  0  0
   -1.9977   -0.8727   -0.4932 H   0  0  0  0  0  0  0  0  0  0  0  0
   -0.6274   -0.6280   -1.7143 H   0  0  0  0  0  0  0  0  0  0  0  0
  1  2  3  0
  1  5  1  0
  2  3  1  0
  3  4  2  3
  4  6  1  0
  4  7  1  0
M  RAD  1   3   2
M  END
>  <reaction>  (2) 
rxn_1190

>  <mol_properties>  (2) 
{"2": {"label": "acceptor", "atom_type": "Cd"}}

>  <type>  (2) 
r2

$$$$

     RDKit          3D

  8  7  0  0  0  0  0  0  0  0999 V2000
    1.9029    0.9046   -0.2050 C   0  0  0  0  0  0  0  0  0  0  0  0
    0.8517    0.4283    0.1217 C   0  0  0  0  0  0  0  0  0  0  0  0
   -0.3908   -0.1311    0.5404 C   0  0  0  0  0  0  0  0  0  0  0  0
   -1.2847   -0.6576   -0.2899 C   0  0  0  0  0  0  0  0  0  0  0  0
    2.8335    1.3255   -0.5014 H   0  0  0  0  0  0  0  0  0  0  0  0
   -0.5867   -0.1096    1.6074 H   0  0  0  0  0  0  0  0  0  0  0  0
   -2.2126   -1.0686    0.0850 H   0  0  0  0  0  0  0  0  0  0  0  0
   -1.1134   -0.6914   -1.3582 H   0  0  0  0  0  0  0  0  0  0  0  0
  1  2  3  0
  1  5  1  0
  2  3  1  0
  3  4  2  3
  3  6  1  0
  4  7  1  0
  4  8  1  0
M  END
>  <reaction>  (3) 
rxn_1190

>  <mol_properties>  (3) 
{"2": {"label": "acceptor", "atom_type": "Cd"}, "7": {"label": "a_hydrogen", "atom_type": "H0"}}

>  <type>  (3) 
r2h

$$$$

     RDKit          3D

 23 21  0  0  0  0  0  0  0  0999 V2000
   -0.0910    3.4435    0.6282 C   0  0  0  0  0  0  0  0  0  0  0  0
   -0.1446    2.5598   -0.1933 C   0  0  0  0  0  0  0  0  0  0  0  0
   -0.2062    1.4530   -1.0145 C   0  0  0  0  0  3  0  0  0  0  0  0
   -0.2397    1.1884   -2.3022 C   0  0  0  0  0  0  0  0  0  0  0  0
   -0.0459    4.2391    1.3324 H   0  0  0  0  0  0  0  0  0  0  0  0
   -0.2230    1.9770   -3.0500 H   0  0  0  0  0  0  0  0  0  0  0  0
   -0.2839    0.1634   -2.6555 H   0  0  0  0  0  0  0  0  0  0  0  0
    0.1393   -2.7472   -1.3046 C   0  0  0  0  0  0  0  0  0  0  0  0
   -0.5931   -1.8956   -0.5947 C   0  0  0  0  0  0  0  0  0  0  0  0
   -0.0943   -0.8929    0.3805 C   0  0  0  0  0  0  0  0  0  0  0  0
    1.3859   -0.9302    0.6884 C   0  0  0  0  0  0  0  0  0  0  0  0
   -1.0056   -0.7248    1.5415 C   0  0  0  0  0  0  0  0  0  0  0  0
   -0.6505   -0.4979    2.8005 C   0  0  0  0  0  0  0  0  0  0  0  0
   -0.3269   -3.4304   -2.0028 H   0  0  0  0  0  0  0  0  0  0  0  0
    1.2165   -2.8052   -1.2094 H   0  0  0  0  0  0  0  0  0  0  0  0
   -1.6714   -1.9002   -0.7345 H   0  0  0  0  0  0  0  0  0  0  0  0
   -0.2310    0.1718   -0.2189 H   0  0  0  0  0  0  0  0  0  0  0  0
    1.9714   -0.9119   -0.2310 H   0  0  0  0  0  0  0  0  0  0  0  0
    1.6768   -0.0598    1.2769 H   0  0  0  0  0  0  0  0  0  0  0  0
    1.6504   -1.8303    1.2490 H   0  0  0  0  0  0  0  0  0  0  0  0
   -2.0650   -0.7751    1.3031 H   0  0  0  0  0  0  0  0  0  0  0  0
    0.3855   -0.4396    3.1098 H   0  0  0  0  0  0  0  0  0  0  0  0
   -1.3985   -0.3687    3.5719 H   0  0  0  0  0  0  0  0  0  0  0  0
  1  2  3  0
  1  5  1  0
  2  3  1  0
  3  4  2  3
  4  6  1  0
  4  7  1  0
  8  9  2  3
  8 14  1  0
  8 15  1  0
  9 10  1  0
  9 16  1  0
 10 11  1  0
 10 12  1  0
 10 17  1  0
 11 18  1  0
 11 19  1  0
 11 20  1  0
 12 13  2  3
 12 21  1  0
 13 22  1  0
 13 23  1  0
M  RAD  1   3   2
M  END
>  <reaction>  (4) 
rxn_1190

>  <mol_properties>  (4) 
{"1": {"label": "*4", "atom_type": "Ct"}, "2": {"label": "*3", "atom_type": "Cd"}, "8": {"label": "*0", "atom_type": "Cd"}, "9": {"label": "*1", "atom_type": "Cs"}, "16": {"label": "*2", "atom_type": "H0"}}

>  <type>  (4) 
ts

$$$$
