
     RDKit          3D

 25 26  0  0  0  0  0  0  0  0999 V2000
    2.0298   -1.1515    0.0571 C   0  0  0  0  0  0  0  0  0  0  0  0
    2.2278    0.2445    0.6528 C   0  0  0  0  0  0  0  0  0  0  0  0
    1.2292    1.2625    0.0947 C   0  0  0  0  0  0  0  0  0  0  0  0
   -0.1869    0.7454    0.2762 C   0  0  0  0  0  0  0  0  0  0  0  0
   -1.3415    1.5501   -0.3122 C   0  0  0  0  0  0  0  0  0  0  0  0
   -2.5060    0.5338   -0.4178 C   0  0  0  0  0  0  0  0  0  0  0  0
   -1.8709   -0.8658   -0.2234 C   0  0  0  0  0  0  0  0  0  0  0  0
   -0.3715   -0.6265   -0.3693 C   0  0  0  0  0  0  0  0  0  0  0  0
    0.5898   -1.6500    0.2086 C   0  0  0  0  0  0  0  0  0  0  0  0
    2.2820   -1.1226   -1.0088 H   0  0  0  0  0  0  0  0  0  0  0  0
    2.7243   -1.8549    0.5221 H   0  0  0  0  0  0  0  0  0  0  0  0
    2.1030    0.1885    1.7400 H   0  0  0  0  0  0  0  0  0  0  0  0
    3.2514    0.5819    0.4743 H   0  0  0  0  0  0  0  0  0  0  0  0
    1.3611    2.2304    0.5855 H   0  0  0  0  0  0  0  0  0  0  0  0
    1.4198    1.4194   -0.9737 H   0  0  0  0  0  0  0  0  0  0  0  0
   -0.3675    0.6209    1.3539 H   0  0  0  0  0  0  0  0  0  0  0  0
   -1.5992    2.4249    0.2862 H   0  0  0  0  0  0  0  0  0  0  0  0
   -1.0595    1.9116   -1.3055 H   0  0  0  0  0  0  0  0  0  0  0  0
   -3.2666    0.7244    0.3399 H   0  0  0  0  0  0  0  0  0  0  0  0
   -3.0030    0.6112   -1.3853 H   0  0  0  0  0  0  0  0  0  0  0  0
   -2.2549   -1.6039   -0.9288 H   0  0  0  0  0  0  0  0  0  0  0  0
   -2.0796   -1.2429    0.7821 H   0  0  0  0  0  0  0  0  0  0  0  0
   -0.1432   -0.5121   -1.4391 H   0  0  0  0  0  0  0  0  0  0  0  0
    0.4720   -2.6209   -0.2799 H   0  0  0  0  0  0  0  0  0  0  0  0
    0.3601   -1.7986    1.2704 H   0  0  0  0  0  0  0  0  0  0  0  0
  1  2  1  0
  1  9  1  0
  1 10  1  0
  1 11  1  0
  2  3  1  0
  2 12  1  0
  2 13  1  0
  3  4  1  0
  3 14  1  0
  3 15  1  0
  4  5  1  0
  4  8  1  0
  4 16  1  0
  5  6  1  0
  5 17  1  0
  5 18  1  0
  6  7  1  0
  6 19  1  0
  6 20  1  0
  7  8  1  0
  7 21  1  0
  7 22  1  0
  8  9  1  0
  8 23  1  0
  9 24  1  0
  9 25  1  0
M  END
>  <reaction>  (1) 
rxn_595

>  <mol_properties>  (1) 
{"8": {"label": "donator", "atom_type": "Cs"}, "24": {"label": "d_hydrogen", "atom_type": "H0"}}

>  <type>  (1) 
r1h

$$$$

     RDKit          3D

  8  7  0  0  0  0  0  0  0  0999 V2000
    1.4038   -0.4003    0.0140 C   0  0  0  0  0  0  0  0  0  0  0  0
    0.2804    0.0563    0.4920 C   0  0  0  0  0  3  0  0  0  0  0  0
   -1.0935    0.3323    0.0625 C   0  0  0  0  0  0  0  0  0  0  0  0
    1.4898   -0.7154   -1.0285 H   0  0  0  0  0  0  0  0  0  0  0  0
    2.2990   -0.4891    0.6210 H   0  0  0  0  0  0  0  0  0  0  0  0
   -1.3399    1.3883    0.1900 H   0  0  0  0  0  0  0  0  0  0  0  0
   -1.2285    0.0762   -0.9967 H   0  0  0  0  0  0  0  0  0  0  0  0
   -1.8111   -0.2482    0.6457 H   0  0  0  0  0  0  0  0  0  0  0  0
  1  2  2  3
  1  4  1  0
  1  5  1  0
  2  3  1  0
  3  6  1  0
  3  7  1  0
  3  8  1  0
M  RAD  1   2   2
M  END
>  <reaction>  (2) 
rxn_595

>  <mol_properties>  (2) 
{"1": {"label": "acceptor", "atom_type": "Cd"}}

>  <type>  (2) 
r2

$$$$

     RDKit          3D

  9  8  0  0  0  0  0  0  0  0999 V2000
    1.1303   -0.2933   -0.7510 C   0  0  0  0  0  0  0  0  0  0  0  0
    0.2866    0.4560   -0.0588 C   0  0  0  0  0  0  0  0  0  0  0  0
   -0.9719   -0.0331    0.5823 C   0  0  0  0  0  0  0  0  0  0  0  0
    2.0274    0.1230   -1.1916 H   0  0  0  0  0  0  0  0  0  0  0  0
    0.9532   -1.3530   -0.9023 H   0  0  0  0  0  0  0  0  0  0  0  0
    0.5065    1.5132    0.0659 H   0  0  0  0  0  0  0  0  0  0  0  0
   -0.9526    0.1426    1.6610 H   0  0  0  0  0  0  0  0  0  0  0  0
   -1.1182   -1.1002    0.4106 H   0  0  0  0  0  0  0  0  0  0  0  0
   -1.8412    0.5010    0.1901 H   0  0  0  0  0  0  0  0  0  0  0  0
  1  2  2  3
  1  4  1  0
  1  5  1  0
  2  3  1  0
  2  6  1  0
  3  7  1  0
  3  8  1  0
  3  9  1  0
M  END
>  <reaction>  (3) 
rxn_595

>  <mol_properties>  (3) 
{"1": {"label": "acceptor", "atom_type": "Cd"}, "6": {"label": "a_hydrogen", "atom_type": "H0"}}

>  <type>  (3) 
r2h

$$$$

     RDKit          3D

 33 33  0  0  0  0  0  0  0  0999 V2000
    1.3927   -0.2685   -0.9217 C   0  0  0  0  0  0  0  0  0  0  0  0
    0.4051   -0.2276    0.2467 C   0  0  0  0  0  0  0  0  0  0  0  0
    2.4351    0.8274   -0.7929 C   0  0  0  0  0  0  0  0  0  0  0  0
    0.4637   -0.2914   -2.1293 C   0  0  0  0  0  0  0  0  0  0  0  0
    1.1036   -0.4147    1.5808 C   0  0  0  0  0  0  0  0  0  0  0  0
    3.1572    0.6886    0.5515 C   0  0  0  0  0  0  0  0  0  0  0  0
    2.1903    0.6534    1.7387 C   0  0  0  0  0  0  0  0  0  0  0  0
   -0.6367   -1.2829   -1.7003 C   0  0  0  0  0  0  0  0  0  0  0  0
   -3.3049    1.0549   -0.4603 C   0  0  0  0  0  0  0  0  0  0  0  0
   -0.6790   -1.2047   -0.1686 C   0  0  0  0  0  0  0  0  0  0  0  0
   -2.9465    0.0157    0.5329 C   0  0  0  0  0  3  0  0  0  0  0  0
   -3.4938   -0.3066    1.6835 C   0  0  0  0  0  0  0  0  0  0  0  0
    1.9114   -1.2372   -0.8788 H   0  0  0  0  0  0  0  0  0  0  0  0
   -0.0341    0.7827    0.2470 H   0  0  0  0  0  0  0  0  0  0  0  0
    0.9585   -0.5856   -3.0559 H   0  0  0  0  0  0  0  0  0  0  0  0
    0.0427    0.7074   -2.2840 H   0  0  0  0  0  0  0  0  0  0  0  0
    3.1554    0.7868   -1.6143 H   0  0  0  0  0  0  0  0  0  0  0  0
    1.9408    1.8044   -0.8498 H   0  0  0  0  0  0  0  0  0  0  0  0
    3.7410   -0.2385    0.5406 H   0  0  0  0  0  0  0  0  0  0  0  0
    3.8721    1.5041    0.6822 H   0  0  0  0  0  0  0  0  0  0  0  0
    2.7479    0.4920    2.6641 H   0  0  0  0  0  0  0  0  0  0  0  0
    1.7069    1.6321    1.8329 H   0  0  0  0  0  0  0  0  0  0  0  0
    0.3902   -0.3545    2.4067 H   0  0  0  0  0  0  0  0  0  0  0  0
    1.5536   -1.4137    1.6170 H   0  0  0  0  0  0  0  0  0  0  0  0
   -1.6022   -1.0515   -2.1559 H   0  0  0  0  0  0  0  0  0  0  0  0
   -0.3770   -2.2946   -2.0203 H   0  0  0  0  0  0  0  0  0  0  0  0
   -4.1547    1.6567   -0.1225 H   0  0  0  0  0  0  0  0  0  0  0  0
   -3.5652    0.6024   -1.4202 H   0  0  0  0  0  0  0  0  0  0  0  0
   -2.4603    1.7248   -0.6414 H   0  0  0  0  0  0  0  0  0  0  0  0
   -0.6493   -2.1681    0.3409 H   0  0  0  0  0  0  0  0  0  0  0  0
   -1.7996   -0.7016    0.1861 H   0  0  0  0  0  0  0  0  0  0  0  0
   -3.0929   -1.1042    2.2999 H   0  0  0  0  0  0  0  0  0  0  0  0
   -4.3724    0.2125    2.0648 H   0  0  0  0  0  0  0  0  0  0  0  0
  1  3  1  0
  1  4  1  0
  1  2  1  0
  1 13  1  0
  2  5  1  0
  2 10  1  0
  2 14  1  0
  3  6  1  0
  3 17  1  0
  3 18  1  0
  4  8  1  0
  4 15  1  0
  4 16  1  0
  5  7  1  0
  5 23  1  0
  5 24  1  0
  6  7  1  0
  6 19  1  0
  6 20  1  0
  7 21  1  0
  7 22  1  0
  8 10  1  0
  8 25  1  0
  8 26  1  0
  9 11  1  0
  9 27  1  0
  9 28  1  0
  9 29  1  0
 10 30  1  0
 10 31  1  0
 11 12  2  3
 12 32  1  0
 12 33  1  0
M  RAD  1  11   2
M  END
>  <reaction>  (4) 
rxn_595

>  <mol_properties>  (4) 
{"1": {"label": "*0", "atom_type": "Cs"}, "8": {"label": "*4", "atom_type": "Cs"}, "9": {"label": "*1", "atom_type": "Cs"}, "10": {"label": "*3", "atom_type": "Cd"}, "30": {"label": "*2", "atom_type": "H0"}}

>  <type>  (4) 
ts

$$$$
