
     RDKit          3D

 12 11  0  0  0  0  0  0  0  0999 V2000
    1.3372   -0.1398    0.4136 C   0  0  0  0  0  0  0  0  0  0  0  0
   -0.0787    0.3743    0.2016 C   0  0  0  0  0  0  0  0  0  0  0  0
   -1.0057   -0.7011   -0.3445 C   0  0  0  0  0  0  0  0  0  0  0  0
   -0.0866    1.5266   -0.6273 O   0  0  0  0  0  0  0  0  0  0  0  0
    1.7593   -0.4986   -0.5303 H   0  0  0  0  0  0  0  0  0  0  0  0
    1.3510   -0.9703    1.1220 H   0  0  0  0  0  0  0  0  0  0  0  0
    1.9774    0.6555    0.7960 H   0  0  0  0  0  0  0  0  0  0  0  0
   -0.4728    0.7287    1.1572 H   0  0  0  0  0  0  0  0  0  0  0  0
   -1.0678   -1.5498    0.3393 H   0  0  0  0  0  0  0  0  0  0  0  0
   -2.0082   -0.2994   -0.4937 H   0  0  0  0  0  0  0  0  0  0  0  0
   -0.6364   -1.0726   -1.3055 H   0  0  0  0  0  0  0  0  0  0  0  0
    0.2522    1.2779   -1.4902 H   0  0  0  0  0  0  0  0  0  0  0  0
  1  2  1  0
  1  5  1  0
  1  6  1  0
  1  7  1  0
  2  3  1  0
  2  4  1  0
  2  8  1  0
  3  9  1  0
  3 10  1  0
  3 11  1  0
  4 12  1  0
M  END
>  <reaction>  (1) 
rxn_752

>  <mol_properties>  (1) 
{"1": {"label": "donator", "atom_type": "Cs"}, "7": {"label": "d_hydrogen", "atom_type": "H0"}}

>  <type>  (1) 
r1h

$$$$

     RDKit          3D

  4  3  0  0  0  0  0  0  0  0999 V2000
    0.0000    0.0000    0.0000 C   0  0  0  0  0  3  0  0  0  0  0  0
    1.0638   -0.1747    0.0540 H   0  0  0  0  0  0  0  0  0  0  0  0
   -0.6833   -0.8351   -0.0280 H   0  0  0  0  0  0  0  0  0  0  0  0
   -0.3805    1.0098   -0.0260 H   0  0  0  0  0  0  0  0  0  0  0  0
  1  2  1  0
  1  3  1  0
  1  4  1  0
M  RAD  1   1   2
M  END
>  <reaction>  (2) 
rxn_752

>  <mol_properties>  (2) 
{"0": {"label": "acceptor", "atom_type": "Cs"}}

>  <type>  (2) 
r2

$$$$

     RDKit          3D

  5  4  0  0  0  0  0  0  0  0999 V2000
    0.0000    0.0000    0.0000 C   0  0  0  0  0  0  0  0  0  0  0  0
   -0.6486   -0.7720   -0.4113 H   0  0  0  0  0  0  0  0  0  0  0  0
   -0.3482    0.9787   -0.3267 H   0  0  0  0  0  0  0  0  0  0  0  0
   -0.0223   -0.0487    1.0876 H   0  0  0  0  0  0  0  0  0  0  0  0
    1.0191   -0.1580   -0.3496 H   0  0  0  0  0  0  0  0  0  0  0  0
  1  2  1  0
  1  3  1  0
  1  4  1  0
  1  5  1  0
M  END
>  <reaction>  (3) 
rxn_752

>  <mol_properties>  (3) 
{"0": {"label": "a_hydrogen", "atom_type": "H0"}, "1": {"label": "acceptor", "atom_type": "Cs"}}

>  <type>  (3) 
r2h

$$$$

     RDKit          3D

 16 14  0  0  0  0  0  0  0  0999 V2000
    0.0552    0.3882   -1.6086 C   0  0  0  0  0  0  0  0  0  0  0  0
    0.2932    0.2407   -0.1239 C   0  0  0  0  0  0  0  0  0  0  0  0
    0.3537    1.5324    0.6451 C   0  0  0  0  0  0  0  0  0  0  0  0
    1.4282   -0.5182    0.1819 O   0  0  0  0  0  0  0  0  0  0  0  0
    0.8804    0.9289   -2.0816 H   0  0  0  0  0  0  0  0  0  0  0  0
   -0.8704    0.9351   -1.7950 H   0  0  0  0  0  0  0  0  0  0  0  0
   -0.0350   -0.5897   -2.0897 H   0  0  0  0  0  0  0  0  0  0  0  0
   -0.7142   -0.3804    0.3207 H   0  0  0  0  0  0  0  0  0  0  0  0
   -0.5673    2.1001    0.5063 H   0  0  0  0  0  0  0  0  0  0  0  0
    0.4834    1.3334    1.7093 H   0  0  0  0  0  0  0  0  0  0  0  0
    1.1943    2.1448    0.3056 H   0  0  0  0  0  0  0  0  0  0  0  0
    1.4195   -1.3178   -0.3473 H   0  0  0  0  0  0  0  0  0  0  0  0
   -1.8391   -1.1395    0.8508 C   0  0  0  0  0  3  0  0  0  0  0  0
   -2.0257   -1.9075    0.1062 H   0  0  0  0  0  0  0  0  0  0  0  0
   -2.6379   -0.4111    0.9476 H   0  0  0  0  0  0  0  0  0  0  0  0
   -1.4572   -1.5143    1.7949 H   0  0  0  0  0  0  0  0  0  0  0  0
  1  2  1  0
  1  5  1  0
  1  6  1  0
  1  7  1  0
  2  3  1  0
  2  4  1  0
  2  8  1  0
  3  9  1  0
  3 10  1  0
  3 11  1  0
  4 12  1  0
 13 14  1  0
 13 15  1  0
 13 16  1  0
M  RAD  1  13   2
M  END
>  <reaction>  (4) 
rxn_752

>  <mol_properties>  (4) 
{"1": {"label": "*1", "atom_type": "Cs"}, "3": {"label": "*0", "atom_type": "O2s"}, "7": {"label": "*2", "atom_type": "H0"}, "12": {"label": "*3", "atom_type": "Cs"}, "13": {"label": "*4", "atom_type": "H0"}}

>  <type>  (4) 
ts

$$$$
