
     RDKit          3D

  6  5  0  0  0  0  0  0  0  0999 V2000
   -0.5072   -0.0291   -0.0097 C   0  0  0  0  0  0  0  0  0  0  0  0
    1.1321   -0.1527   -0.7687 S   0  0  0  0  0  0  0  0  0  0  0  0
   -0.6174   -0.7330    0.8127 H   0  0  0  0  0  0  0  0  0  0  0  0
   -0.5863    0.9827    0.3845 H   0  0  0  0  0  0  0  0  0  0  0  0
   -1.2962   -0.1800   -0.7434 H   0  0  0  0  0  0  0  0  0  0  0  0
    1.0312   -1.4237   -1.1764 H   0  0  0  0  0  0  0  0  0  0  0  0
  1  2  1  0
  1  3  1  0
  1  4  1  0
  1  5  1  0
  2  6  1  0
M  END
>  <reaction>  (1) 
rxn_1805

>  <mol_properties>  (1) 
{"0": {"label": "donator", "atom_type": "Cs"}, "2": {"label": "d_hydrogen", "atom_type": "H0"}}

>  <type>  (1) 
r1h

$$$$

     RDKit          3D

 13 12  0  0  0  0  0  0  0  0999 V2000
   -1.3649   -0.5966   -0.3478 C   0  0  0  0  0  0  0  0  0  0  0  0
   -0.1601   -0.2776    0.4668 C   0  0  0  0  0  3  0  0  0  0  0  0
    1.1241   -0.9571    0.1414 C   0  0  0  0  0  0  0  0  0  0  0  0
   -0.1188    1.0130    1.2082 C   0  0  0  0  0  0  0  0  0  0  0  0
   -1.4264   -1.6632   -0.5772 H   0  0  0  0  0  0  0  0  0  0  0  0
   -2.2859   -0.3006    0.1602 H   0  0  0  0  0  0  0  0  0  0  0  0
   -1.3533   -0.0665   -1.3138 H   0  0  0  0  0  0  0  0  0  0  0  0
    1.6172   -0.4966   -0.7298 H   0  0  0  0  0  0  0  0  0  0  0  0
    0.9723   -2.0105   -0.1060 H   0  0  0  0  0  0  0  0  0  0  0  0
    1.8339   -0.8974    0.9700 H   0  0  0  0  0  0  0  0  0  0  0  0
   -1.0852    1.2507    1.6593 H   0  0  0  0  0  0  0  0  0  0  0  0
    0.6359    1.0009    1.9983 H   0  0  0  0  0  0  0  0  0  0  0  0
    0.1343    1.8546    0.5434 H   0  0  0  0  0  0  0  0  0  0  0  0
  1  2  1  0
  1  5  1  0
  1  6  1  0
  1  7  1  0
  2  3  1  0
  2  4  1  0
  3  8  1  0
  3  9  1  0
  3 10  1  0
  4 11  1  0
  4 12  1  0
  4 13  1  0
M  RAD  1   2   2
M  END
>  <reaction>  (2) 
rxn_1805

>  <mol_properties>  (2) 
{"1": {"label": "acceptor", "atom_type": "Cs"}}

>  <type>  (2) 
r2

$$$$

     RDKit          3D

 14 13  0  0  0  0  0  0  0  0999 V2000
   -0.7647   -1.2351   -0.0349 C   0  0  0  0  0  0  0  0  0  0  0  0
    0.0570   -0.0126    0.3624 C   0  0  0  0  0  0  0  0  0  0  0  0
    1.4161   -0.0194   -0.3307 C   0  0  0  0  0  0  0  0  0  0  0  0
   -0.7022    1.2765    0.0629 C   0  0  0  0  0  0  0  0  0  0  0  0
   -0.2387   -2.1618    0.2039 H   0  0  0  0  0  0  0  0  0  0  0  0
   -0.9625   -1.2315   -1.1108 H   0  0  0  0  0  0  0  0  0  0  0  0
   -1.7273   -1.2512    0.4806 H   0  0  0  0  0  0  0  0  0  0  0  0
    0.2295   -0.0590    1.4432 H   0  0  0  0  0  0  0  0  0  0  0  0
    1.2933    0.0260   -1.4168 H   0  0  0  0  0  0  0  0  0  0  0  0
    2.0207    0.8381   -0.0278 H   0  0  0  0  0  0  0  0  0  0  0  0
    1.9766   -0.9269   -0.0966 H   0  0  0  0  0  0  0  0  0  0  0  0
   -1.6638    1.3002    0.5800 H   0  0  0  0  0  0  0  0  0  0  0  0
   -0.8979    1.3663   -1.0096 H   0  0  0  0  0  0  0  0  0  0  0  0
   -0.1313    2.1546    0.3720 H   0  0  0  0  0  0  0  0  0  0  0  0
  1  2  1  0
  1  5  1  0
  1  6  1  0
  1  7  1  0
  2  3  1  0
  2  4  1  0
  2  8  1  0
  3  9  1  0
  3 10  1  0
  3 11  1  0
  4 12  1  0
  4 13  1  0
  4 14  1  0
M  END
>  <reaction>  (3) 
rxn_1805

>  <mol_properties>  (3) 
{"0": {"label": "a_hydrogen", "atom_type": "H0"}, "2": {"label": "acceptor", "atom_type": "Cs"}}

>  <type>  (3) 
r2h

$$$$

     RDKit          3D

 19 17  0  0  0  0  0  0  0  0999 V2000
   -0.1591   -0.9892   -0.8771 C   0  0  0  0  0  3  0  0  0  0  0  0
    1.5073   -1.4384   -1.2797 S   0  0  0  0  0  0  0  0  0  0  0  0
   -0.1586   -0.0364    0.1049 H   0  0  0  0  0  0  0  0  0  0  0  0
   -0.6163   -0.4926   -1.7293 H   0  0  0  0  0  0  0  0  0  0  0  0
   -0.7697   -1.8059   -0.5005 H   0  0  0  0  0  0  0  0  0  0  0  0
    1.8022   -2.0550   -0.1279 H   0  0  0  0  0  0  0  0  0  0  0  0
   -1.5225    1.0976    1.4910 C   0  0  0  0  0  0  0  0  0  0  0  0
   -0.0963    0.8980    1.0394 C   0  0  0  0  0  0  0  0  0  0  0  0
    0.5021    2.0815    0.3196 C   0  0  0  0  0  0  0  0  0  0  0  0
    0.8072    0.2967    2.0881 C   0  0  0  0  0  0  0  0  0  0  0  0
   -2.1596    1.4216    0.6650 H   0  0  0  0  0  0  0  0  0  0  0  0
   -1.9420    0.1774    1.9040 H   0  0  0  0  0  0  0  0  0  0  0  0
   -1.5814    1.8652    2.2722 H   0  0  0  0  0  0  0  0  0  0  0  0
    0.6545    2.9224    1.0071 H   0  0  0  0  0  0  0  0  0  0  0  0
   -0.1503    2.4285   -0.4848 H   0  0  0  0  0  0  0  0  0  0  0  0
    1.4717    1.8273   -0.1142 H   0  0  0  0  0  0  0  0  0  0  0  0
    0.3881   -0.6280    2.4922 H   0  0  0  0  0  0  0  0  0  0  0  0
    1.7946    0.0759    1.6767 H   0  0  0  0  0  0  0  0  0  0  0  0
    0.9472    0.9883    2.9279 H   0  0  0  0  0  0  0  0  0  0  0  0
  1  2  1  0
  1  4  1  0
  1  5  1  0
  2  6  1  0
  3  8  1  0
  7  8  1  0
  7 11  1  0
  7 12  1  0
  7 13  1  0
  8  9  1  0
  8 10  1  0
  9 14  1  0
  9 15  1  0
  9 16  1  0
 10 17  1  0
 10 18  1  0
 10 19  1  0
M  RAD  1   1   2
M  END
>  <reaction>  (4) 
rxn_1805

>  <mol_properties>  (4) 
{"0": {"label": "*3", "atom_type": "Cs"}, "1": {"label": "*4", "atom_type": "S2s"}, "2": {"label": "*2", "atom_type": "H0"}, "6": {"label": "*0", "atom_type": "Cs"}, "7": {"label": "*1", "atom_type": "Cs"}}

>  <type>  (4) 
ts

$$$$
