
     RDKit          3D

  6  5  0  0  0  0  0  0  0  0999 V2000
    0.6594    0.0438   -0.0050 C   0  0  0  0  0  0  0  0  0  0  0  0
   -0.6594   -0.0438    0.0050 C   0  0  0  0  0  0  0  0  0  0  0  0
    1.1706    0.8681   -0.4881 H   0  0  0  0  0  0  0  0  0  0  0  0
    1.2824   -0.7051    0.4696 H   0  0  0  0  0  0  0  0  0  0  0  0
   -1.2824    0.7051   -0.4696 H   0  0  0  0  0  0  0  0  0  0  0  0
   -1.1706   -0.8681    0.4881 H   0  0  0  0  0  0  0  0  0  0  0  0
  1  2  2  3
  1  3  1  0
  1  4  1  0
  2  5  1  0
  2  6  1  0
M  END
>  <reaction>  (1) 
rxn_170

>  <mol_properties>  (1) 
{"1": {"label": "donator", "atom_type": "Cd"}, "4": {"label": "d_hydrogen", "atom_type": "H0"}}

>  <type>  (1) 
r1h

$$$$

     RDKit          3D

  1  0  0  0  0  0  0  0  0  0999 V2000
    0.0000    0.0000    0.0000 Cl  0  0  0  0  0 15  0  0  0  0  0  0
M  END
>  <reaction>  (2) 
rxn_170

>  <mol_properties>  (2) 
{"0": {"label": "acceptor", "atom_type": "Cl1s"}}

>  <type>  (2) 
r2

$$$$

     RDKit          3D

  2  1  0  0  0  0  0  0  0  0999 V2000
    0.0000    0.0000    0.6391 Cl  0  0  0  0  0  0  0  0  0  0  0  0
    0.0000    0.0000   -0.6391 H   0  0  0  0  0  0  0  0  0  0  0  0
  1  2  1  0
M  END
>  <reaction>  (3) 
rxn_170

>  <mol_properties>  (3) 
{"0": {"label": "acceptor", "atom_type": "Cl1s"}, "1": {"label": "a_hydrogen", "atom_type": "H0"}}

>  <type>  (3) 
r2h

$$$$

     RDKit          3D

  7  5  0  0  0  0  0  0  0  0999 V2000
    0.0000    1.0852    0.8523 Cl  0  0  0  0  0  0  0  0  0  0  0  0
    0.0000   -1.3527   -1.8675 C   0  0  0  0  0  0  0  0  0  0  0  0
    0.0000   -1.4949   -0.5753 C   0  0  0  0  0  3  0  0  0  0  0  0
    0.0000   -0.3757   -2.3395 H   0  0  0  0  0  0  0  0  0  0  0  0
    0.0000   -2.2215   -2.5241 H   0  0  0  0  0  0  0  0  0  0  0  0
    0.0000   -0.1353    0.2184 H   0  0  0  0  0  0  0  0  0  0  0  0
   -0.0000   -2.3039    0.1401 H   0  0  0  0  0  0  0  0  0  0  0  0
  1  6  1  0
  2  3  2  3
  2  4  1  0
  2  5  1  0
  3  7  1  0
M  RAD  1   3   2
M  END
>  <reaction>  (4) 
rxn_170

>  <mol_properties>  (4) 
{"0": {"label": "*1", "atom_type": "Cl1s"}, "1": {"label": "*4", "atom_type": "Cd"}, "2": {"label": "*3", "atom_type": "Cd"}, "5": {"label": "*2", "atom_type": "H0"}}

>  <type>  (4) 
ts

$$$$
