
     RDKit          3D

  8  7  0  0  0  0  0  0  0  0999 V2000
    0.7610    0.0250    0.0051 C   0  0  0  0  0  0  0  0  0  0  0  0
   -0.7610   -0.0250   -0.0051 C   0  0  0  0  0  0  0  0  0  0  0  0
    1.1904   -0.9237   -0.3217 H   0  0  0  0  0  0  0  0  0  0  0  0
    1.1359    0.8041   -0.6609 H   0  0  0  0  0  0  0  0  0  0  0  0
    1.1435    0.2336    1.0058 H   0  0  0  0  0  0  0  0  0  0  0  0
   -1.1435   -0.2336   -1.0058 H   0  0  0  0  0  0  0  0  0  0  0  0
   -1.1904    0.9237    0.3216 H   0  0  0  0  0  0  0  0  0  0  0  0
   -1.1359   -0.8041    0.6609 H   0  0  0  0  0  0  0  0  0  0  0  0
  1  2  1  0
  1  3  1  0
  1  4  1  0
  1  5  1  0
  2  6  1  0
  2  7  1  0
  2  8  1  0
M  END
>  <reaction>  (1) 
rxn_898

>  <mol_properties>  (1) 
{"1": {"label": "donator", "atom_type": "Cs"}, "5": {"label": "d_hydrogen", "atom_type": "H0"}}

>  <type>  (1) 
r1h

$$$$

     RDKit          3D

  7  6  0  0  0  0  0  0  0  0999 V2000
    1.8092   -0.3013   -0.2242 S   0  0  0  0  0  0  0  0  0  0  0  0
    0.1552   -0.6967   -0.1137 C   0  0  0  0  0  0  0  0  0  0  0  0
   -0.8921    0.1788    0.1148 C   0  0  0  0  0  0  0  0  0  0  0  0
   -0.7548    1.8245    0.3328 S   0  0  0  0  0  1  0  0  0  0  0  0
    1.6168    1.0210   -0.0187 H   0  0  0  0  0  0  0  0  0  0  0  0
   -0.0550   -1.7522   -0.2412 H   0  0  0  0  0  0  0  0  0  0  0  0
   -1.8791   -0.2740    0.1502 H   0  0  0  0  0  0  0  0  0  0  0  0
  1  2  1  0
  1  5  1  0
  2  3  2  3
  2  6  1  0
  3  4  1  0
  3  7  1  0
M  RAD  1   4   2
M  END
>  <reaction>  (2) 
rxn_898

>  <mol_properties>  (2) 
{"1": {"label": "acceptor", "atom_type": "Cs"}}

>  <type>  (2) 
r2

$$$$

     RDKit          3D

  8  7  0  0  0  0  0  0  0  0999 V2000
    1.7301   -0.0562    0.5281 S   0  0  0  0  0  0  0  0  0  0  0  0
    0.1858    0.6127   -0.1669 C   0  0  0  0  0  0  0  0  0  0  0  0
   -0.9621   -0.2567    0.2171 C   0  0  0  0  0  0  0  0  0  0  0  0
   -1.8663   -1.1002   -0.8086 S   0  0  0  0  0  0  0  0  0  0  0  0
    1.7025   -1.2092   -0.1540 H   0  0  0  0  0  0  0  0  0  0  0  0
    0.2619    0.7246   -1.2458 H   0  0  0  0  0  0  0  0  0  0  0  0
    0.0809    1.5982    0.2929 H   0  0  0  0  0  0  0  0  0  0  0  0
   -1.1456   -0.3126    1.2907 H   0  0  0  0  0  0  0  0  0  0  0  0
  1  2  1  0
  1  5  1  0
  2  3  1  0
  2  6  1  0
  2  7  1  0
  3  4  2  0
  3  8  1  0
M  END
>  <reaction>  (3) 
rxn_898

>  <mol_properties>  (3) 
{"1": {"label": "acceptor", "atom_type": "Cs"}, "7": {"label": "a_hydrogen", "atom_type": "H0"}}

>  <type>  (3) 
r2h

$$$$

     RDKit          3D

 15 13  0  0  0  0  0  0  0  0999 V2000
   -1.2879    1.5618   -0.9482 S   0  0  0  0  0  0  0  0  0  0  0  0
   -0.7371    0.5195    0.3918 C   0  0  0  0  0  0  0  0  0  0  0  0
    0.6775    0.4756    0.7474 C   0  0  0  0  0  0  0  0  0  0  0  0
    1.9448    0.9521   -0.1419 S   0  0  0  0  0  0  0  0  0  0  0  0
   -0.0688    1.6787   -1.5060 H   0  0  0  0  0  0  0  0  0  0  0  0
   -1.3788    0.6542    1.2619 H   0  0  0  0  0  0  0  0  0  0  0  0
    0.8597   -0.0061    1.7087 H   0  0  0  0  0  0  0  0  0  0  0  0
   -0.3437   -2.0839   -1.6626 C   0  0  0  0  0  0  0  0  0  0  0  0
   -1.3174   -2.0099   -0.5354 C   0  0  0  0  0  3  0  0  0  0  0  0
   -0.4648   -1.2374   -2.3411 H   0  0  0  0  0  0  0  0  0  0  0  0
    0.6867   -2.0938   -1.3041 H   0  0  0  0  0  0  0  0  0  0  0  0
   -0.4950   -2.9973   -2.2500 H   0  0  0  0  0  0  0  0  0  0  0  0
   -0.9836   -0.6446    0.0758 H   0  0  0  0  0  0  0  0  0  0  0  0
   -1.1586   -2.6639    0.3171 H   0  0  0  0  0  0  0  0  0  0  0  0
   -2.3599   -1.8356   -0.7836 H   0  0  0  0  0  0  0  0  0  0  0  0
  1  2  1  0
  1  5  1  0
  2  3  1  0
  2  6  1  0
  2 13  1  0
  3  4  2  0
  3  7  1  0
  8  9  1  0
  8 10  1  0
  8 11  1  0
  8 12  1  0
  9 14  1  0
  9 15  1  0
M  RAD  1   9   2
M  END
>  <reaction>  (4) 
rxn_898

>  <mol_properties>  (4) 
{"1": {"label": "*1", "atom_type": "Cs"}, "2": {"label": "*0", "atom_type": "CS"}, "7": {"label": "*4", "atom_type": "Cs"}, "8": {"label": "*3", "atom_type": "Cs"}, "12": {"label": "*2", "atom_type": "H0"}}

>  <type>  (4) 
ts

$$$$
