
     RDKit          3D

 10  9  0  0  0  0  0  0  0  0999 V2000
    2.2738    0.0217   -0.0992 C   0  0  0  0  0  0  0  0  0  0  0  0
    1.1083    0.2960   -0.0695 C   0  0  0  0  0  0  0  0  0  0  0  0
   -0.3173    0.6046   -0.0227 C   0  0  0  0  0  0  0  0  0  0  0  0
   -1.1561   -0.5495    0.5292 C   0  0  0  0  0  0  0  0  0  0  0  0
    3.3097   -0.2166   -0.1277 H   0  0  0  0  0  0  0  0  0  0  0  0
   -0.6542    0.8617   -1.0302 H   0  0  0  0  0  0  0  0  0  0  0  0
   -0.4633    1.4978    0.5900 H   0  0  0  0  0  0  0  0  0  0  0  0
   -0.8485   -0.7997    1.5447 H   0  0  0  0  0  0  0  0  0  0  0  0
   -2.2115   -0.2752    0.5459 H   0  0  0  0  0  0  0  0  0  0  0  0
   -1.0409   -1.4407   -0.0879 H   0  0  0  0  0  0  0  0  0  0  0  0
  1  2  3  0
  1  5  1  0
  2  3  1  0
  3  4  1  0
  3  6  1  0
  3  7  1  0
  4  8  1  0
  4  9  1  0
  4 10  1  0
M  END
>  <reaction>  (1) 
rxn_1297

>  <mol_properties>  (1) 
{"2": {"label": "donator", "atom_type": "Cs"}, "5": {"label": "d_hydrogen", "atom_type": "H0"}}

>  <type>  (1) 
r1h

$$$$

     RDKit          3D

  6  5  0  0  0  0  0  0  0  0999 V2000
   -0.5036    0.1196    0.0353 C   0  0  0  0  0  0  0  0  0  0  0  0
    0.9526    0.1121    0.2227 C   0  0  0  0  0  3  0  0  0  0  0  0
    2.2066   -0.6670   -0.2771 S   0  0  0  0  0  0  0  0  0  0  0  0
   -0.8527   -0.6450   -0.6654 H   0  0  0  0  0  0  0  0  0  0  0  0
   -0.8134    1.1060   -0.3189 H   0  0  0  0  0  0  0  0  0  0  0  0
   -0.9894   -0.0257    1.0035 H   0  0  0  0  0  0  0  0  0  0  0  0
  1  2  1  0
  1  4  1  0
  1  5  1  0
  1  6  1  0
  2  3  2  0
M  RAD  1   2   2
M  END
>  <reaction>  (2) 
rxn_1297

>  <mol_properties>  (2) 
{"1": {"label": "acceptor", "atom_type": "CS"}}

>  <type>  (2) 
r2

$$$$

     RDKit          3D

  7  6  0  0  0  0  0  0  0  0999 V2000
   -0.6782    0.0507    0.0301 C   0  0  0  0  0  0  0  0  0  0  0  0
    0.8092    0.0996    0.0213 C   0  0  0  0  0  0  0  0  0  0  0  0
    1.7473    0.7521    1.1507 S   0  0  0  0  0  0  0  0  0  0  0  0
   -1.0667    0.5456   -0.8653 H   0  0  0  0  0  0  0  0  0  0  0  0
   -1.0112   -0.9904   -0.0239 H   0  0  0  0  0  0  0  0  0  0  0  0
   -1.0920    0.5225    0.9188 H   0  0  0  0  0  0  0  0  0  0  0  0
    1.2740   -0.3620   -0.8520 H   0  0  0  0  0  0  0  0  0  0  0  0
  1  2  1  0
  1  4  1  0
  1  5  1  0
  1  6  1  0
  2  3  2  0
  2  7  1  0
M  END
>  <reaction>  (3) 
rxn_1297

>  <mol_properties>  (3) 
{"0": {"label": "a_hydrogen", "atom_type": "H0"}, "2": {"label": "acceptor", "atom_type": "CS"}}

>  <type>  (3) 
r2h

$$$$

     RDKit          3D

 16 14  0  0  0  0  0  0  0  0999 V2000
   -1.0047    0.6319   -3.0345 C   0  0  0  0  0  0  0  0  0  0  0  0
   -1.2020    0.6334   -1.8472 C   0  0  0  0  0  0  0  0  0  0  0  0
   -1.3618    0.6206   -0.4307 C   0  0  0  0  0  0  0  0  0  0  0  0
   -1.3253    1.9524    0.2855 C   0  0  0  0  0  0  0  0  0  0  0  0
   -0.8580    0.6393   -4.0876 H   0  0  0  0  0  0  0  0  0  0  0  0
   -0.2834   -0.0233    0.0533 H   0  0  0  0  0  0  0  0  0  0  0  0
   -2.1630   -0.0398   -0.0996 H   0  0  0  0  0  0  0  0  0  0  0  0
   -2.2195    2.5423    0.0689 H   0  0  0  0  0  0  0  0  0  0  0  0
   -1.2691    1.7986    1.3640 H   0  0  0  0  0  0  0  0  0  0  0  0
   -0.4561    2.5341   -0.0232 H   0  0  0  0  0  0  0  0  0  0  0  0
    1.5106   -1.3079   -0.6053 C   0  0  0  0  0  0  0  0  0  0  0  0
    0.8726   -0.5723    0.5071 C   0  0  0  0  0  3  0  0  0  0  0  0
    1.3266   -0.2782    1.9952 S   0  0  0  0  0  0  0  0  0  0  0  0
    2.4827   -1.7204   -0.3342 H   0  0  0  0  0  0  0  0  0  0  0  0
    1.6101   -0.6350   -1.4619 H   0  0  0  0  0  0  0  0  0  0  0  0
    0.8423   -2.1097   -0.9323 H   0  0  0  0  0  0  0  0  0  0  0  0
  1  2  3  0
  1  5  1  0
  2  3  1  0
  3  4  1  0
  3  6  1  0
  3  7  1  0
  4  8  1  0
  4  9  1  0
  4 10  1  0
 11 12  1  0
 11 14  1  0
 11 15  1  0
 11 16  1  0
 12 13  2  0
M  RAD  1  12   2
M  END
>  <reaction>  (4) 
rxn_1297

>  <mol_properties>  (4) 
{"1": {"label": "*0", "atom_type": "Ct"}, "2": {"label": "*1", "atom_type": "Cs"}, "5": {"label": "*2", "atom_type": "H0"}, "11": {"label": "*3", "atom_type": "CS"}, "12": {"label": "*4", "atom_type": "S2d"}}

>  <type>  (4) 
ts

$$$$
