
     RDKit          3D

 11 10  0  0  0  0  0  0  0  0999 V2000
   -1.2710    0.1907   -0.2084 C   0  0  0  0  0  0  0  0  0  0  0  0
    0.0202   -0.6130   -0.2928 C   0  0  0  0  0  0  0  0  0  0  0  0
    0.1086   -1.6953    0.7756 C   0  0  0  0  0  0  0  0  0  0  0  0
   -1.3607    0.6851    0.7620 H   0  0  0  0  0  0  0  0  0  0  0  0
   -2.1429   -0.4567   -0.3299 H   0  0  0  0  0  0  0  0  0  0  0  0
   -1.3158    0.9602   -0.9809 H   0  0  0  0  0  0  0  0  0  0  0  0
    0.8757    0.0616   -0.1992 H   0  0  0  0  0  0  0  0  0  0  0  0
    0.0997   -1.0712   -1.2825 H   0  0  0  0  0  0  0  0  0  0  0  0
   -0.7198   -2.4022    0.6850 H   0  0  0  0  0  0  0  0  0  0  0  0
    1.0395   -2.2596    0.6989 H   0  0  0  0  0  0  0  0  0  0  0  0
    0.0624   -1.2603    1.7770 H   0  0  0  0  0  0  0  0  0  0  0  0
  1  2  1  0
  1  4  1  0
  1  5  1  0
  1  6  1  0
  2  3  1  0
  2  7  1  0
  2  8  1  0
  3  9  1  0
  3 10  1  0
  3 11  1  0
M  END
>  <reaction>  (1) 
rxn_52

>  <mol_properties>  (1) 
{"0": {"label": "donator", "atom_type": "Cs"}, "3": {"label": "d_hydrogen", "atom_type": "H0"}}

>  <type>  (1) 
r1h

$$$$

     RDKit          3D

  2  1  0  0  0  0  0  0  0  0999 V2000
    0.0000    0.0000    0.6715 S   0  0  0  0  0  1  0  0  0  0  0  0
    0.0000    0.0000   -0.6715 H   0  0  0  0  0  0  0  0  0  0  0  0
  1  2  1  0
M  RAD  1   1   2
M  END
>  <reaction>  (2) 
rxn_52

>  <mol_properties>  (2) 
{"0": {"label": "acceptor", "atom_type": "S2s"}}

>  <type>  (2) 
r2

$$$$

     RDKit          3D

  3  2  0  0  0  0  0  0  0  0999 V2000
   -0.0007    0.6157    0.0000 S   0  0  0  0  0  0  0  0  0  0  0  0
   -0.9686   -0.3090    0.0000 H   0  0  0  0  0  0  0  0  0  0  0  0
    0.9693   -0.3067    0.0000 H   0  0  0  0  0  0  0  0  0  0  0  0
  1  2  1  0
  1  3  1  0
M  END
>  <reaction>  (3) 
rxn_52

>  <mol_properties>  (3) 
{"0": {"label": "a_hydrogen", "atom_type": "H0"}, "1": {"label": "acceptor", "atom_type": "S2s"}}

>  <type>  (3) 
r2h

$$$$

     RDKit          3D

 13 11  0  0  0  0  0  0  0  0999 V2000
    1.0952   -0.1348    0.8883 C   0  0  0  0  0  3  0  0  0  0  0  0
    1.1047   -1.5317    0.3606 C   0  0  0  0  0  0  0  0  0  0  0  0
    0.9416   -1.6135   -1.1518 C   0  0  0  0  0  0  0  0  0  0  0  0
   -0.3437    0.3692    0.6423 H   0  0  0  0  0  0  0  0  0  0  0  0
    1.6455    0.6179    0.3297 H   0  0  0  0  0  0  0  0  0  0  0  0
    1.1132    0.0025    1.9652 H   0  0  0  0  0  0  0  0  0  0  0  0
    0.3230   -2.1149    0.8555 H   0  0  0  0  0  0  0  0  0  0  0  0
    2.0542   -2.0015    0.6535 H   0  0  0  0  0  0  0  0  0  0  0  0
    1.7281   -1.0513   -1.6603 H   0  0  0  0  0  0  0  0  0  0  0  0
    0.9912   -2.6468   -1.4962 H   0  0  0  0  0  0  0  0  0  0  0  0
   -0.0220   -1.2015   -1.4564 H   0  0  0  0  0  0  0  0  0  0  0  0
   -1.7089    0.8178    0.3394 S   0  0  0  0  0  0  0  0  0  0  0  0
   -1.2975    1.4077   -0.7904 H   0  0  0  0  0  0  0  0  0  0  0  0
  1  2  1  0
  1  5  1  0
  1  6  1  0
  2  3  1  0
  2  7  1  0
  2  8  1  0
  3  9  1  0
  3 10  1  0
  3 11  1  0
  4 12  1  0
 12 13  1  0
M  RAD  1   1   2
M  END
>  <reaction>  (4) 
rxn_52

>  <mol_properties>  (4) 
{"0": {"label": "*3", "atom_type": "Cs"}, "1": {"label": "*4", "atom_type": "Cs"}, "3": {"label": "*2", "atom_type": "H0"}, "11": {"label": "*1", "atom_type": "S2s"}, "12": {"label": "*0", "atom_type": "H0"}}

>  <type>  (4) 
ts

$$$$
