
     RDKit          3D

 15 15  0  0  0  0  0  0  0  0999 V2000
    2.2031   -0.2111   -0.1693 C   0  0  0  0  0  0  0  0  0  0  0  0
    0.7140   -0.0314   -0.0623 C   0  0  0  0  0  0  0  0  0  0  0  0
   -0.0114    0.5491   -1.0982 C   0  0  0  0  0  0  0  0  0  0  0  0
   -1.3882    0.6886   -1.0150 C   0  0  0  0  0  0  0  0  0  0  0  0
   -2.0661    0.2493    0.1118 C   0  0  0  0  0  0  0  0  0  0  0  0
   -1.3551   -0.3278    1.1528 C   0  0  0  0  0  0  0  0  0  0  0  0
    0.0216   -0.4648    1.0642 C   0  0  0  0  0  0  0  0  0  0  0  0
    2.6776   -0.1836    0.8122 H   0  0  0  0  0  0  0  0  0  0  0  0
    2.4446   -1.1749   -0.6249 H   0  0  0  0  0  0  0  0  0  0  0  0
    2.6532    0.5664   -0.7875 H   0  0  0  0  0  0  0  0  0  0  0  0
    0.5104    0.8989   -1.9819 H   0  0  0  0  0  0  0  0  0  0  0  0
   -1.9328    1.1452   -1.8322 H   0  0  0  0  0  0  0  0  0  0  0  0
   -3.1409    0.3597    0.1800 H   0  0  0  0  0  0  0  0  0  0  0  0
   -1.8736   -0.6702    2.0398 H   0  0  0  0  0  0  0  0  0  0  0  0
    0.5695   -0.9141    1.8849 H   0  0  0  0  0  0  0  0  0  0  0  0
  1  2  1  0
  1  8  1  0
  1  9  1  0
  1 10  1  0
  2  3  2  0
  2  7  1  0
  3  4  1  0
  3 11  1  0
  4  5  2  0
  4 12  1  0
  5  6  1  0
  5 13  1  0
  6  7  2  0
  6 14  1  0
  7 15  1  0
M  END
>  <reaction>  (1) 
rxn_1434

>  <mol_properties>  (1) 
{"0": {"label": "donator", "atom_type": "Cs"}, "7": {"label": "d_hydrogen", "atom_type": "H0"}}

>  <type>  (1) 
r1h

$$$$

     RDKit          3D

  4  3  0  0  0  0  0  0  0  0999 V2000
    0.0000    0.0000    0.0000 C   0  0  0  0  0  3  0  0  0  0  0  0
    1.0638   -0.1747    0.0540 H   0  0  0  0  0  0  0  0  0  0  0  0
   -0.6833   -0.8351   -0.0280 H   0  0  0  0  0  0  0  0  0  0  0  0
   -0.3805    1.0098   -0.0260 H   0  0  0  0  0  0  0  0  0  0  0  0
  1  2  1  0
  1  3  1  0
  1  4  1  0
M  RAD  1   1   2
M  END
>  <reaction>  (2) 
rxn_1434

>  <mol_properties>  (2) 
{"0": {"label": "acceptor", "atom_type": "Cs"}}

>  <type>  (2) 
r2

$$$$

     RDKit          3D

  5  4  0  0  0  0  0  0  0  0999 V2000
    0.0000    0.0000    0.0000 C   0  0  0  0  0  0  0  0  0  0  0  0
   -0.6486   -0.7720   -0.4113 H   0  0  0  0  0  0  0  0  0  0  0  0
   -0.3482    0.9787   -0.3267 H   0  0  0  0  0  0  0  0  0  0  0  0
   -0.0223   -0.0487    1.0876 H   0  0  0  0  0  0  0  0  0  0  0  0
    1.0191   -0.1580   -0.3496 H   0  0  0  0  0  0  0  0  0  0  0  0
  1  2  1  0
  1  3  1  0
  1  4  1  0
  1  5  1  0
M  END
>  <reaction>  (3) 
rxn_1434

>  <mol_properties>  (3) 
{"0": {"label": "acceptor", "atom_type": "Cs"}, "4": {"label": "a_hydrogen", "atom_type": "H0"}}

>  <type>  (3) 
r2h

$$$$

     RDKit          3D

 19 18  0  0  0  0  0  0  0  0999 V2000
   -1.4980   -1.2766    2.9119 C   0  0  0  0  0  3  0  0  0  0  0  0
   -1.5180   -2.1645    2.2887 H   0  0  0  0  0  0  0  0  0  0  0  0
   -2.3120   -0.5824    2.7310 H   0  0  0  0  0  0  0  0  0  0  0  0
   -1.2814   -1.4599    3.9592 H   0  0  0  0  0  0  0  0  0  0  0  0
    0.6484    0.0477    1.9438 C   0  0  0  0  0  0  0  0  0  0  0  0
    0.4680    0.1339    0.4846 C   0  0  0  0  0  0  0  0  0  0  0  0
   -0.2253    1.2003   -0.0913 C   0  0  0  0  0  0  0  0  0  0  0  0
   -0.4427    1.2550   -1.4577 C   0  0  0  0  0  0  0  0  0  0  0  0
    0.0258    0.2411   -2.2809 C   0  0  0  0  0  0  0  0  0  0  0  0
    0.7143   -0.8268   -1.7234 C   0  0  0  0  0  0  0  0  0  0  0  0
    0.9307   -0.8797   -0.3569 C   0  0  0  0  0  0  0  0  0  0  0  0
   -0.3551   -0.5733    2.4212 H   0  0  0  0  0  0  0  0  0  0  0  0
    1.4944   -0.5587    2.2614 H   0  0  0  0  0  0  0  0  0  0  0  0
    0.6231    1.0044    2.4617 H   0  0  0  0  0  0  0  0  0  0  0  0
   -0.5935    1.9975    0.5444 H   0  0  0  0  0  0  0  0  0  0  0  0
   -0.9788    2.0943   -1.8834 H   0  0  0  0  0  0  0  0  0  0  0  0
   -0.1421    0.2842   -3.3494 H   0  0  0  0  0  0  0  0  0  0  0  0
    1.0865   -1.6218   -2.3577 H   0  0  0  0  0  0  0  0  0  0  0  0
    1.4710   -1.7170    0.0703 H   0  0  0  0  0  0  0  0  0  0  0  0
  1  2  1  0
  1  3  1  0
  1  4  1  0
  5  6  1  0
  5 12  1  0
  5 13  1  0
  5 14  1  0
  6  7  2  0
  6 11  1  0
  7  8  1  0
  7 15  1  0
  8  9  2  0
  8 16  1  0
  9 10  1  0
  9 17  1  0
 10 11  2  0
 10 18  1  0
 11 19  1  0
M  RAD  1   1   2
M  END
>  <reaction>  (4) 
rxn_1434

>  <mol_properties>  (4) 
{"0": {"label": "*3", "atom_type": "Cs"}, "1": {"label": "*4", "atom_type": "H0"}, "4": {"label": "*1", "atom_type": "Cs"}, "5": {"label": "*0", "atom_type": "Cd"}, "11": {"label": "*2", "atom_type": "H0"}}

>  <type>  (4) 
ts

$$$$
