
     RDKit          3D

 10  9  0  0  0  0  0  0  0  0999 V2000
   -1.1508    0.0666    0.2839 C   0  0  0  0  0  0  0  0  0  0  0  0
    0.1022   -0.3749   -0.4771 C   0  0  0  0  0  0  0  0  0  0  0  0
    1.3428    0.1620    0.1542 C   0  0  0  0  0  0  0  0  0  0  0  0
    2.5613   -0.6971    0.7526 S   0  0  0  0  0  0  0  0  0  0  0  0
   -1.2137    1.1546    0.3481 H   0  0  0  0  0  0  0  0  0  0  0  0
   -2.0472   -0.2935   -0.2212 H   0  0  0  0  0  0  0  0  0  0  0  0
   -1.1467   -0.3334    1.2987 H   0  0  0  0  0  0  0  0  0  0  0  0
    0.1602   -1.4616   -0.5369 H   0  0  0  0  0  0  0  0  0  0  0  0
    0.0536    0.0174   -1.4997 H   0  0  0  0  0  0  0  0  0  0  0  0
    1.3824    1.2528    0.2110 H   0  0  0  0  0  0  0  0  0  0  0  0
  1  2  1  0
  1  5  1  0
  1  6  1  0
  1  7  1  0
  2  3  1  0
  2  8  1  0
  2  9  1  0
  3  4  2  0
  3 10  1  0
M  END
>  <reaction>  (1) 
rxn_2026

>  <mol_properties>  (1) 
{"1": {"label": "donator", "atom_type": "Cs"}, "7": {"label": "d_hydrogen", "atom_type": "H0"}}

>  <type>  (1) 
r1h

$$$$

     RDKit          3D

 12 11  0  0  0  0  0  0  0  0999 V2000
   -0.9951    0.1196   -0.8321 C   0  0  0  0  0  0  0  0  0  0  0  0
   -0.3760    0.2571    0.5231 C   0  0  0  0  0  3  0  0  0  0  0  0
    0.9330   -0.1537    0.7810 C   0  0  0  0  0  0  0  0  0  0  0  0
    1.5987   -0.1880    1.9734 C   0  0  0  0  0  0  0  0  0  0  0  0
   -1.4483    0.9449    1.7152 S   0  0  0  0  0  0  0  0  0  0  0  0
   -1.9164   -0.4696   -0.7936 H   0  0  0  0  0  0  0  0  0  0  0  0
   -1.2565    1.0958   -1.2506 H   0  0  0  0  0  0  0  0  0  0  0  0
   -0.3088   -0.3780   -1.5170 H   0  0  0  0  0  0  0  0  0  0  0  0
    1.4783   -0.4898   -0.0971 H   0  0  0  0  0  0  0  0  0  0  0  0
    2.6278   -0.5153    2.0142 H   0  0  0  0  0  0  0  0  0  0  0  0
    1.1316    0.0690    2.9151 H   0  0  0  0  0  0  0  0  0  0  0  0
   -0.5306    1.3052    2.6211 H   0  0  0  0  0  0  0  0  0  0  0  0
  1  2  1  0
  1  6  1  0
  1  7  1  0
  1  8  1  0
  2  3  1  0
  2  5  1  0
  3  4  2  3
  3  9  1  0
  4 10  1  0
  4 11  1  0
  5 12  1  0
M  RAD  1   2   2
M  END
>  <reaction>  (2) 
rxn_2026

>  <mol_properties>  (2) 
{"1": {"label": "acceptor", "atom_type": "Cs"}}

>  <type>  (2) 
r2

$$$$

     RDKit          3D

 13 12  0  0  0  0  0  0  0  0999 V2000
   -1.1828    0.8269   -0.1645 C   0  0  0  0  0  0  0  0  0  0  0  0
   -0.4827   -0.4584   -0.5736 C   0  0  0  0  0  0  0  0  0  0  0  0
   -0.9759   -1.7030    0.1030 C   0  0  0  0  0  0  0  0  0  0  0  0
   -2.0084   -1.7831    0.9287 C   0  0  0  0  0  0  0  0  0  0  0  0
   -0.4908   -0.7025   -2.3913 S   0  0  0  0  0  0  0  0  0  0  0  0
   -1.0941    0.9860    0.9125 H   0  0  0  0  0  0  0  0  0  0  0  0
   -0.7405    1.6784   -0.6793 H   0  0  0  0  0  0  0  0  0  0  0  0
   -2.2437    0.7943   -0.4195 H   0  0  0  0  0  0  0  0  0  0  0  0
    0.5870   -0.3637   -0.3637 H   0  0  0  0  0  0  0  0  0  0  0  0
   -0.4209   -2.6026   -0.1443 H   0  0  0  0  0  0  0  0  0  0  0  0
   -2.2982   -2.7315    1.3623 H   0  0  0  0  0  0  0  0  0  0  0  0
   -2.5999   -0.9190    1.2055 H   0  0  0  0  0  0  0  0  0  0  0  0
   -1.8040   -0.9489   -2.4971 H   0  0  0  0  0  0  0  0  0  0  0  0
  1  2  1  0
  1  6  1  0
  1  7  1  0
  1  8  1  0
  2  3  1  0
  2  5  1  0
  2  9  1  0
  3  4  2  3
  3 10  1  0
  4 11  1  0
  4 12  1  0
  5 13  1  0
M  END
>  <reaction>  (3) 
rxn_2026

>  <mol_properties>  (3) 
{"1": {"label": "acceptor", "atom_type": "Cs"}, "12": {"label": "a_hydrogen", "atom_type": "H0"}}

>  <type>  (3) 
r2h

$$$$

     RDKit          3D

 22 20  0  0  0  0  0  0  0  0999 V2000
   -0.5358   -0.4932    1.8083 C   0  0  0  0  0  0  0  0  0  0  0  0
   -0.4851   -0.9592    0.3770 C   0  0  0  0  0  3  0  0  0  0  0  0
    0.1341   -2.2472    0.0653 C   0  0  0  0  0  0  0  0  0  0  0  0
    0.8363   -2.9962    0.9170 C   0  0  0  0  0  0  0  0  0  0  0  0
   -1.9325   -0.6668   -0.6111 S   0  0  0  0  0  0  0  0  0  0  0  0
   -1.2267   -1.1086    2.3898 H   0  0  0  0  0  0  0  0  0  0  0  0
    0.4533   -0.5528    2.2654 H   0  0  0  0  0  0  0  0  0  0  0  0
   -0.8615    0.5456    1.8637 H   0  0  0  0  0  0  0  0  0  0  0  0
    0.0275   -2.5840   -0.9619 H   0  0  0  0  0  0  0  0  0  0  0  0
    1.2909   -3.9220    0.5908 H   0  0  0  0  0  0  0  0  0  0  0  0
    0.9715   -2.7224    1.9555 H   0  0  0  0  0  0  0  0  0  0  0  0
   -2.1162    0.6099   -0.2423 H   0  0  0  0  0  0  0  0  0  0  0  0
    1.9756    0.1152   -1.6787 C   0  0  0  0  0  0  0  0  0  0  0  0
    1.2448    0.8590   -0.5881 C   0  0  0  0  0  0  0  0  0  0  0  0
    0.3815    1.9438   -0.9376 C   0  0  0  0  0  0  0  0  0  0  0  0
   -0.1744    3.0955    0.0917 S   0  0  0  0  0  0  0  0  0  0  0  0
    2.8257    0.6950   -2.0456 H   0  0  0  0  0  0  0  0  0  0  0  0
    2.3563   -0.8379   -1.3091 H   0  0  0  0  0  0  0  0  0  0  0  0
    1.3138   -0.0859   -2.5234 H   0  0  0  0  0  0  0  0  0  0  0  0
    0.3895   -0.0421   -0.1593 H   0  0  0  0  0  0  0  0  0  0  0  0
    1.7998    1.0101    0.3367 H   0  0  0  0  0  0  0  0  0  0  0  0
    0.0329    1.9526   -1.9714 H   0  0  0  0  0  0  0  0  0  0  0  0
  1  2  1  0
  1  6  1  0
  1  7  1  0
  1  8  1  0
  2  3  1  0
  2  5  1  0
  3  4  2  3
  3  9  1  0
  4 10  1  0
  4 11  1  0
  5 12  1  0
 13 14  1  0
 13 17  1  0
 13 18  1  0
 13 19  1  0
 14 15  1  0
 14 20  1  0
 14 21  1  0
 15 16  2  0
 15 22  1  0
M  RAD  1   2   2
M  END
>  <reaction>  (4) 
rxn_2026

>  <mol_properties>  (4) 
{"1": {"label": "*3", "atom_type": "Cs"}, "4": {"label": "*4", "atom_type": "S2s"}, "13": {"label": "*1", "atom_type": "Cs"}, "14": {"label": "*0", "atom_type": "CS"}, "19": {"label": "*2", "atom_type": "H0"}}

>  <type>  (4) 
ts

$$$$
