
     RDKit          3D

 10  9  0  0  0  0  0  0  0  0999 V2000
    2.2097   -0.5315    0.2575 S   0  0  0  0  0  0  0  0  0  0  0  0
    0.5401   -0.7188   -0.4494 C   0  0  0  0  0  0  0  0  0  0  0  0
   -0.5263   -0.1678    0.4365 C   0  0  0  0  0  0  0  0  0  0  0  0
   -1.3394    0.8185    0.0912 C   0  0  0  0  0  0  0  0  0  0  0  0
    2.1701    0.8016    0.3806 H   0  0  0  0  0  0  0  0  0  0  0  0
    0.4238   -1.7978   -0.5701 H   0  0  0  0  0  0  0  0  0  0  0  0
    0.5053   -0.2663   -1.4400 H   0  0  0  0  0  0  0  0  0  0  0  0
   -0.6005   -0.6141    1.4236 H   0  0  0  0  0  0  0  0  0  0  0  0
   -2.0960    1.1907    0.7700 H   0  0  0  0  0  0  0  0  0  0  0  0
   -1.2784    1.2877   -0.8850 H   0  0  0  0  0  0  0  0  0  0  0  0
  1  2  1  0
  1  5  1  0
  2  3  1  0
  2  6  1  0
  2  7  1  0
  3  4  2  3
  3  8  1  0
  4  9  1  0
  4 10  1  0
M  END
>  <reaction>  (1) 
rxn_466

>  <mol_properties>  (1) 
{"1": {"label": "donator", "atom_type": "Cs"}, "5": {"label": "d_hydrogen", "atom_type": "H0"}}

>  <type>  (1) 
r1h

$$$$

     RDKit          3D

  5  4  0  0  0  0  0  0  0  0999 V2000
   -0.1322   -0.0293    0.0034 C   0  0  0  0  0  0  0  0  0  0  0  0
    1.6514    0.0533   -0.0278 S   0  0  0  0  0  1  0  0  0  0  0  0
   -0.5276   -0.5578   -0.8632 H   0  0  0  0  0  0  0  0  0  0  0  0
   -0.5002   -0.4706    0.9289 H   0  0  0  0  0  0  0  0  0  0  0  0
   -0.4913    1.0044   -0.0413 H   0  0  0  0  0  0  0  0  0  0  0  0
  1  2  1  0
  1  3  1  0
  1  4  1  0
  1  5  1  0
M  RAD  1   2   2
M  END
>  <reaction>  (2) 
rxn_466

>  <mol_properties>  (2) 
{"1": {"label": "acceptor", "atom_type": "S2s"}}

>  <type>  (2) 
r2

$$$$

     RDKit          3D

  6  5  0  0  0  0  0  0  0  0999 V2000
   -0.5072   -0.0291   -0.0097 C   0  0  0  0  0  0  0  0  0  0  0  0
    1.1321   -0.1527   -0.7687 S   0  0  0  0  0  0  0  0  0  0  0  0
   -0.6174   -0.7330    0.8127 H   0  0  0  0  0  0  0  0  0  0  0  0
   -0.5863    0.9827    0.3845 H   0  0  0  0  0  0  0  0  0  0  0  0
   -1.2962   -0.1800   -0.7434 H   0  0  0  0  0  0  0  0  0  0  0  0
    1.0312   -1.4237   -1.1764 H   0  0  0  0  0  0  0  0  0  0  0  0
  1  2  1  0
  1  3  1  0
  1  4  1  0
  1  5  1  0
  2  6  1  0
M  END
>  <reaction>  (3) 
rxn_466

>  <mol_properties>  (3) 
{"0": {"label": "a_hydrogen", "atom_type": "H0"}, "2": {"label": "acceptor", "atom_type": "S2s"}}

>  <type>  (3) 
r2h

$$$$

     RDKit          3D

 15 13  0  0  0  0  0  0  0  0999 V2000
    0.0352    0.7929   -1.5811 S   0  0  0  0  0  0  0  0  0  0  0  0
   -1.0319    0.4665   -0.2061 C   0  0  0  0  0  0  0  0  0  0  0  0
   -1.0578    1.5145    0.8048 C   0  0  0  0  0  0  0  0  0  0  0  0
   -2.1062    1.7594    1.5918 C   0  0  0  0  0  0  0  0  0  0  0  0
    0.0030   -0.4428   -2.0988 H   0  0  0  0  0  0  0  0  0  0  0  0
   -0.5234   -0.6323    0.3968 H   0  0  0  0  0  0  0  0  0  0  0  0
   -2.0039    0.0568   -0.4743 H   0  0  0  0  0  0  0  0  0  0  0  0
   -0.1426    2.0837    0.9388 H   0  0  0  0  0  0  0  0  0  0  0  0
   -2.0647    2.5200    2.3599 H   0  0  0  0  0  0  0  0  0  0  0  0
   -3.0317    1.2043    1.4922 H   0  0  0  0  0  0  0  0  0  0  0  0
    1.6033   -0.8258    1.5489 C   0  0  0  0  0  0  0  0  0  0  0  0
    0.1990   -1.8543    1.0737 S   0  0  0  0  0  1  0  0  0  0  0  0
    1.3514   -0.1653    2.3775 H   0  0  0  0  0  0  0  0  0  0  0  0
    2.4092   -1.4902    1.8607 H   0  0  0  0  0  0  0  0  0  0  0  0
    1.9532   -0.2410    0.6971 H   0  0  0  0  0  0  0  0  0  0  0  0
  1  2  1  0
  1  5  1  0
  2  3  1  0
  2  6  1  0
  2  7  1  0
  3  4  2  3
  3  8  1  0
  4  9  1  0
  4 10  1  0
 11 12  1  0
 11 13  1  0
 11 14  1  0
 11 15  1  0
M  RAD  1  12   2
M  END
>  <reaction>  (4) 
rxn_466

>  <mol_properties>  (4) 
{"0": {"label": "*0", "atom_type": "S2s"}, "1": {"label": "*1", "atom_type": "Cs"}, "5": {"label": "*2", "atom_type": "H0"}, "10": {"label": "*4", "atom_type": "Cs"}, "11": {"label": "*3", "atom_type": "S2s"}}

>  <type>  (4) 
ts

$$$$
