
     RDKit          3D

 14 13  0  0  0  0  0  0  0  0999 V2000
   -0.7647   -1.2352   -0.0349 C   0  0  0  0  0  0  0  0  0  0  0  0
    0.0570   -0.0126    0.3624 C   0  0  0  0  0  0  0  0  0  0  0  0
    1.4161   -0.0194   -0.3307 C   0  0  0  0  0  0  0  0  0  0  0  0
   -0.7022    1.2765    0.0629 C   0  0  0  0  0  0  0  0  0  0  0  0
   -0.2387   -2.1618    0.2040 H   0  0  0  0  0  0  0  0  0  0  0  0
   -0.9624   -1.2316   -1.1108 H   0  0  0  0  0  0  0  0  0  0  0  0
   -1.7273   -1.2511    0.4805 H   0  0  0  0  0  0  0  0  0  0  0  0
    0.2295   -0.0590    1.4432 H   0  0  0  0  0  0  0  0  0  0  0  0
    1.2933    0.0260   -1.4168 H   0  0  0  0  0  0  0  0  0  0  0  0
    2.0206    0.8381   -0.0278 H   0  0  0  0  0  0  0  0  0  0  0  0
    1.9767   -0.9269   -0.0966 H   0  0  0  0  0  0  0  0  0  0  0  0
   -1.6638    1.3002    0.5800 H   0  0  0  0  0  0  0  0  0  0  0  0
   -0.8979    1.3663   -1.0096 H   0  0  0  0  0  0  0  0  0  0  0  0
   -0.1312    2.1545    0.3720 H   0  0  0  0  0  0  0  0  0  0  0  0
  1  2  1  0
  1  5  1  0
  1  6  1  0
  1  7  1  0
  2  3  1  0
  2  4  1  0
  2  8  1  0
  3  9  1  0
  3 10  1  0
  3 11  1  0
  4 12  1  0
  4 13  1  0
  4 14  1  0
M  END
>  <reaction>  (1) 
rxn_337

>  <mol_properties>  (1) 
{"1": {"label": "donator", "atom_type": "Cs"}, "7": {"label": "d_hydrogen", "atom_type": "H0"}}

>  <type>  (1) 
r1h

$$$$

     RDKit          3D

  5  4  0  0  0  0  0  0  0  0999 V2000
    0.0397    0.7134    0.0000 C   0  0  0  0  0  3  0  0  0  0  0  0
    0.0458   -0.5870    0.0000 C   0  0  0  0  0  0  0  0  0  0  0  0
   -0.6871    1.5118    0.0000 H   0  0  0  0  0  0  0  0  0  0  0  0
   -0.8806   -1.1637    0.0000 H   0  0  0  0  0  0  0  0  0  0  0  0
    0.9690   -1.1600    0.0000 H   0  0  0  0  0  0  0  0  0  0  0  0
  1  2  2  3
  1  3  1  0
  2  4  1  0
  2  5  1  0
M  RAD  1   1   2
M  END
>  <reaction>  (2) 
rxn_337

>  <mol_properties>  (2) 
{"0": {"label": "acceptor", "atom_type": "Cd"}}

>  <type>  (2) 
r2

$$$$

     RDKit          3D

  6  5  0  0  0  0  0  0  0  0999 V2000
    0.6594    0.0438   -0.0050 C   0  0  0  0  0  0  0  0  0  0  0  0
   -0.6594   -0.0438    0.0050 C   0  0  0  0  0  0  0  0  0  0  0  0
    1.1706    0.8681   -0.4881 H   0  0  0  0  0  0  0  0  0  0  0  0
    1.2824   -0.7051    0.4696 H   0  0  0  0  0  0  0  0  0  0  0  0
   -1.2824    0.7051   -0.4696 H   0  0  0  0  0  0  0  0  0  0  0  0
   -1.1706   -0.8681    0.4881 H   0  0  0  0  0  0  0  0  0  0  0  0
  1  2  2  3
  1  3  1  0
  1  4  1  0
  2  5  1  0
  2  6  1  0
M  END
>  <reaction>  (3) 
rxn_337

>  <mol_properties>  (3) 
{"0": {"label": "acceptor", "atom_type": "Cd"}, "5": {"label": "a_hydrogen", "atom_type": "H0"}}

>  <type>  (3) 
r2h

$$$$

     RDKit          3D

 19 17  0  0  0  0  0  0  0  0999 V2000
    1.5238   -1.0464    0.6266 C   0  0  0  0  0  3  0  0  0  0  0  0
    2.3040   -0.2670    1.3377 C   0  0  0  0  0  0  0  0  0  0  0  0
    1.6647   -2.0935    0.3836 H   0  0  0  0  0  0  0  0  0  0  0  0
    3.2312   -0.6250    1.7813 H   0  0  0  0  0  0  0  0  0  0  0  0
    2.0570    0.7756    1.5157 H   0  0  0  0  0  0  0  0  0  0  0  0
   -0.6197    0.0631   -1.8385 C   0  0  0  0  0  0  0  0  0  0  0  0
   -0.7012    0.1575   -0.3301 C   0  0  0  0  0  0  0  0  0  0  0  0
   -0.5738    1.5736    0.1891 C   0  0  0  0  0  0  0  0  0  0  0  0
   -1.8765   -0.5928    0.2590 C   0  0  0  0  0  0  0  0  0  0  0  0
    0.2915    0.5322   -2.2149 H   0  0  0  0  0  0  0  0  0  0  0  0
   -1.4730    0.5686   -2.3046 H   0  0  0  0  0  0  0  0  0  0  0  0
   -0.6289   -0.9767   -2.1718 H   0  0  0  0  0  0  0  0  0  0  0  0
    0.3075   -0.4341    0.0893 H   0  0  0  0  0  0  0  0  0  0  0  0
   -1.4270    2.1819   -0.1319 H   0  0  0  0  0  0  0  0  0  0  0  0
   -0.5456    1.5937    1.2806 H   0  0  0  0  0  0  0  0  0  0  0  0
    0.3332    2.0524   -0.1862 H   0  0  0  0  0  0  0  0  0  0  0  0
   -1.8878   -1.6337   -0.0706 H   0  0  0  0  0  0  0  0  0  0  0  0
   -2.8226   -0.1357   -0.0521 H   0  0  0  0  0  0  0  0  0  0  0  0
   -1.8445   -0.5825    1.3503 H   0  0  0  0  0  0  0  0  0  0  0  0
  1  2  2  3
  1  3  1  0
  2  4  1  0
  2  5  1  0
  6  7  1  0
  6 10  1  0
  6 11  1  0
  6 12  1  0
  7  8  1  0
  7  9  1  0
  7 13  1  0
  8 14  1  0
  8 15  1  0
  8 16  1  0
  9 17  1  0
  9 18  1  0
  9 19  1  0
M  RAD  1   1   2
M  END
>  <reaction>  (4) 
rxn_337

>  <mol_properties>  (4) 
{"0": {"label": "*3", "atom_type": "Cd"}, "1": {"label": "*4", "atom_type": "Cd"}, "5": {"label": "*0", "atom_type": "Cs"}, "6": {"label": "*1", "atom_type": "Cs"}, "12": {"label": "*2", "atom_type": "H0"}}

>  <type>  (4) 
ts

$$$$
