
     RDKit          3D

 12 11  0  0  0  0  0  0  0  0999 V2000
   -1.4643   -0.2505   -0.5284 C   0  0  0  0  0  0  0  0  0  0  0  0
   -0.3946    0.4302    0.3143 C   0  0  0  0  0  0  0  0  0  0  0  0
   -0.5959    0.2382    1.8102 C   0  0  0  0  0  0  0  0  0  0  0  0
   -0.5633   -1.1190    2.2092 O   0  0  0  0  0  0  0  0  0  0  0  0
   -2.4511    0.1644   -0.3109 H   0  0  0  0  0  0  0  0  0  0  0  0
   -1.5019   -1.3198   -0.3181 H   0  0  0  0  0  0  0  0  0  0  0  0
   -1.2720   -0.1182   -1.5941 H   0  0  0  0  0  0  0  0  0  0  0  0
    0.5965    0.0515    0.0385 H   0  0  0  0  0  0  0  0  0  0  0  0
   -0.3776    1.5047    0.1078 H   0  0  0  0  0  0  0  0  0  0  0  0
   -1.5821    0.6048    2.1034 H   0  0  0  0  0  0  0  0  0  0  0  0
    0.1495    0.8220    2.3649 H   0  0  0  0  0  0  0  0  0  0  0  0
    0.3017   -1.4750    1.9997 H   0  0  0  0  0  0  0  0  0  0  0  0
  1  2  1  0
  1  5  1  0
  1  6  1  0
  1  7  1  0
  2  3  1  0
  2  8  1  0
  2  9  1  0
  3  4  1  0
  3 10  1  0
  3 11  1  0
  4 12  1  0
M  END
>  <reaction>  (1) 
rxn_781

>  <mol_properties>  (1) 
{"1": {"label": "donator", "atom_type": "Cs"}, "7": {"label": "d_hydrogen", "atom_type": "H0"}}

>  <type>  (1) 
r1h

$$$$

     RDKit          3D

  1  0  0  0  0  0  0  0  0  0999 V2000
    0.0000    0.0000    0.0000 O   0  0  0  0  0 15  0  0  0  0  0  0
M  END
>  <reaction>  (2) 
rxn_781

>  <mol_properties>  (2) 
{"0": {"label": "acceptor", "atom_type": "O2s"}}

>  <type>  (2) 
r2

$$$$

     RDKit          3D

  2  1  0  0  0  0  0  0  0  0999 V2000
    0.0000    0.0000    0.4855 O   0  0  0  0  0  1  0  0  0  0  0  0
    0.0000    0.0000   -0.4855 H   0  0  0  0  0  0  0  0  0  0  0  0
  1  2  1  0
M  RAD  1   1   2
M  END
>  <reaction>  (3) 
rxn_781

>  <mol_properties>  (3) 
{"0": {"label": "a_hydrogen", "atom_type": "H0"}, "1": {"label": "acceptor", "atom_type": "O2s"}}

>  <type>  (3) 
r2h

$$$$

     RDKit          3D

 13 11  0  0  0  0  0  0  0  0999 V2000
    0.6704   -0.4777   -1.5835 C   0  0  0  0  0  0  0  0  0  0  0  0
    0.7659   -0.4440   -0.0810 C   0  0  0  0  0  0  0  0  0  0  0  0
    0.6592    0.9147    0.5747 C   0  0  0  0  0  0  0  0  0  0  0  0
   -0.5254    1.5930    0.2370 O   0  0  0  0  0  0  0  0  0  0  0  0
    1.5583   -0.0075   -2.0185 H   0  0  0  0  0  0  0  0  0  0  0  0
   -0.2012    0.0757   -1.9316 H   0  0  0  0  0  0  0  0  0  0  0  0
    0.6165   -1.4996   -1.9587 H   0  0  0  0  0  0  0  0  0  0  0  0
   -0.2367   -1.0437    0.3415 H   0  0  0  0  0  0  0  0  0  0  0  0
    1.5873   -1.0388    0.3231 H   0  0  0  0  0  0  0  0  0  0  0  0
    1.4854    1.5454    0.2301 H   0  0  0  0  0  0  0  0  0  0  0  0
    0.7615    0.8084    1.6615 H   0  0  0  0  0  0  0  0  0  0  0  0
   -1.2630    1.0403    0.5137 H   0  0  0  0  0  0  0  0  0  0  0  0
   -1.4193   -1.3636    0.7808 O   0  0  0  0  0 15  0  0  0  0  0  0
  1  2  1  0
  1  5  1  0
  1  6  1  0
  1  7  1  0
  2  3  1  0
  2  8  1  0
  2  9  1  0
  3  4  1  0
  3 10  1  0
  3 11  1  0
  4 12  1  0
M  END
>  <reaction>  (4) 
rxn_781

>  <mol_properties>  (4) 
{"1": {"label": "*1", "atom_type": "Cs"}, "2": {"label": "*0", "atom_type": "Cs"}, "7": {"label": "*2", "atom_type": "H0"}, "12": {"label": "*3", "atom_type": "O2s"}}

>  <type>  (4) 
ts

$$$$
