
     RDKit          3D

  3  2  0  0  0  0  0  0  0  0999 V2000
    0.0002    0.4233    0.0000 N   0  0  0  0  0  2  0  0  0  0  0  0
   -0.8051   -0.2112    0.0000 H   0  0  0  0  0  0  0  0  0  0  0  0
    0.8049   -0.2121    0.0000 H   0  0  0  0  0  0  0  0  0  0  0  0
  1  2  1  0
  1  3  1  0
M  RAD  1   1   2
M  END
>  <reaction>  (1) 
rxn_624

>  <mol_properties>  (1) 
{"0": {"label": "donator", "atom_type": "N3s"}, "1": {"label": "d_hydrogen", "atom_type": "H0"}}

>  <type>  (1) 
r1h

$$$$

     RDKit          3D

  1  0  0  0  0  0  0  0  0  0999 V2000
    0.0000    0.0000    0.0000 H   0  0  0  0  0 15  0  0  0  0  0  0
M  END
>  <reaction>  (2) 
rxn_624

>  <mol_properties>  (2) 
{"0": {"label": "acceptor", "atom_type": "H0"}}

>  <type>  (2) 
r2

$$$$

     RDKit          3D

  2  1  0  0  0  0  0  0  0  0999 V2000
    0.0000    0.0000    0.3721 H   0  0  0  0  0  0  0  0  0  0  0  0
    0.0000    0.0000   -0.3721 H   0  0  0  0  0  0  0  0  0  0  0  0
  1  2  1  0
M  END
>  <reaction>  (3) 
rxn_624

>  <mol_properties>  (3) 
{"0": {"label": "acceptor", "atom_type": "H0"}, "1": {"label": "a_hydrogen", "atom_type": "H0"}}

>  <type>  (3) 
r2h

$$$$

     RDKit          3D

  4  2  0  0  0  0  0  0  0  0999 V2000
    0.0000    1.9275    0.4157 H   0  0  0  0  0 15  0  0  0  0  0  0
    0.0000   -0.2204    0.0223 N   0  0  0  0  0  2  0  0  0  0  0  0
    0.0000    0.8815    0.3778 H   0  0  0  0  0  0  0  0  0  0  0  0
    0.0000   -0.0994   -1.0023 H   0  0  0  0  0  0  0  0  0  0  0  0
  2  3  1  0
  2  4  1  0
M  RAD  1   2   2
M  END
>  <reaction>  (4) 
rxn_624

>  <mol_properties>  (4) 
{"0": {"label": "*1", "atom_type": "H0"}, "1": {"label": "*3", "atom_type": "N3s"}, "2": {"label": "*2", "atom_type": "H0"}, "3": {"label": "*4", "atom_type": "H0"}}

>  <type>  (4) 
ts

$$$$
