
     RDKit          3D

 25 26  0  0  0  0  0  0  0  0999 V2000
    2.0298   -1.1515    0.0571 C   0  0  0  0  0  0  0  0  0  0  0  0
    2.2278    0.2445    0.6528 C   0  0  0  0  0  0  0  0  0  0  0  0
    1.2292    1.2625    0.0947 C   0  0  0  0  0  0  0  0  0  0  0  0
   -0.1869    0.7454    0.2762 C   0  0  0  0  0  0  0  0  0  0  0  0
   -1.3415    1.5501   -0.3122 C   0  0  0  0  0  0  0  0  0  0  0  0
   -2.5060    0.5338   -0.4178 C   0  0  0  0  0  0  0  0  0  0  0  0
   -1.8709   -0.8658   -0.2234 C   0  0  0  0  0  0  0  0  0  0  0  0
   -0.3715   -0.6265   -0.3693 C   0  0  0  0  0  0  0  0  0  0  0  0
    0.5898   -1.6500    0.2086 C   0  0  0  0  0  0  0  0  0  0  0  0
    2.2820   -1.1226   -1.0088 H   0  0  0  0  0  0  0  0  0  0  0  0
    2.7243   -1.8549    0.5221 H   0  0  0  0  0  0  0  0  0  0  0  0
    2.1030    0.1885    1.7400 H   0  0  0  0  0  0  0  0  0  0  0  0
    3.2514    0.5819    0.4743 H   0  0  0  0  0  0  0  0  0  0  0  0
    1.3611    2.2304    0.5855 H   0  0  0  0  0  0  0  0  0  0  0  0
    1.4198    1.4194   -0.9737 H   0  0  0  0  0  0  0  0  0  0  0  0
   -0.3675    0.6209    1.3539 H   0  0  0  0  0  0  0  0  0  0  0  0
   -1.5992    2.4249    0.2862 H   0  0  0  0  0  0  0  0  0  0  0  0
   -1.0595    1.9116   -1.3055 H   0  0  0  0  0  0  0  0  0  0  0  0
   -3.2666    0.7244    0.3399 H   0  0  0  0  0  0  0  0  0  0  0  0
   -3.0030    0.6112   -1.3853 H   0  0  0  0  0  0  0  0  0  0  0  0
   -2.2549   -1.6039   -0.9288 H   0  0  0  0  0  0  0  0  0  0  0  0
   -2.0796   -1.2429    0.7821 H   0  0  0  0  0  0  0  0  0  0  0  0
   -0.1432   -0.5121   -1.4391 H   0  0  0  0  0  0  0  0  0  0  0  0
    0.4720   -2.6209   -0.2799 H   0  0  0  0  0  0  0  0  0  0  0  0
    0.3601   -1.7986    1.2704 H   0  0  0  0  0  0  0  0  0  0  0  0
  1  2  1  0
  1  9  1  0
  1 10  1  0
  1 11  1  0
  2  3  1  0
  2 12  1  0
  2 13  1  0
  3  4  1  0
  3 14  1  0
  3 15  1  0
  4  5  1  0
  4  8  1  0
  4 16  1  0
  5  6  1  0
  5 17  1  0
  5 18  1  0
  6  7  1  0
  6 19  1  0
  6 20  1  0
  7  8  1  0
  7 21  1  0
  7 22  1  0
  8  9  1  0
  8 23  1  0
  9 24  1  0
  9 25  1  0
M  END
>  <reaction>  (1) 
rxn_586

>  <mol_properties>  (1) 
{"8": {"label": "donator", "atom_type": "Cs"}, "23": {"label": "d_hydrogen", "atom_type": "H0"}}

>  <type>  (1) 
r1h

$$$$

     RDKit          3D

  6  5  0  0  0  0  0  0  0  0999 V2000
    1.4968   -0.0097    0.1113 C   0  0  0  0  0  0  0  0  0  0  0  0
    0.2829   -0.0018    0.0210 C   0  0  0  0  0  0  0  0  0  0  0  0
   -1.0795    0.0070   -0.0803 C   0  0  0  0  0  3  0  0  0  0  0  0
    2.5571   -0.0165    0.1902 H   0  0  0  0  0  0  0  0  0  0  0  0
   -1.6181    0.9389   -0.1832 H   0  0  0  0  0  0  0  0  0  0  0  0
   -1.6393   -0.9179   -0.0591 H   0  0  0  0  0  0  0  0  0  0  0  0
  1  2  3  0
  1  4  1  0
  2  3  1  0
  3  5  1  0
  3  6  1  0
M  RAD  1   3   2
M  END
>  <reaction>  (2) 
rxn_586

>  <mol_properties>  (2) 
{"0": {"label": "acceptor", "atom_type": "Cs"}}

>  <type>  (2) 
r2

$$$$

     RDKit          3D

  7  6  0  0  0  0  0  0  0  0999 V2000
    1.6964   -0.0938    0.0583 C   0  0  0  0  0  0  0  0  0  0  0  0
    0.5019   -0.0278    0.0173 C   0  0  0  0  0  0  0  0  0  0  0  0
   -0.9505    0.0525   -0.0327 C   0  0  0  0  0  0  0  0  0  0  0  0
    2.7574   -0.1524    0.0947 H   0  0  0  0  0  0  0  0  0  0  0  0
   -1.2692    0.9972   -0.4754 H   0  0  0  0  0  0  0  0  0  0  0  0
   -1.3749   -0.0147    0.9700 H   0  0  0  0  0  0  0  0  0  0  0  0
   -1.3610   -0.7611   -0.6323 H   0  0  0  0  0  0  0  0  0  0  0  0
  1  2  3  0
  1  4  1  0
  2  3  1  0
  3  5  1  0
  3  6  1  0
  3  7  1  0
M  END
>  <reaction>  (3) 
rxn_586

>  <mol_properties>  (3) 
{"0": {"label": "acceptor", "atom_type": "Cs"}, "3": {"label": "a_hydrogen", "atom_type": "H0"}}

>  <type>  (3) 
r2h

$$$$

     RDKit          3D

 31 31  0  0  0  0  0  0  0  0999 V2000
   -0.9774   -0.2859   -0.9118 C   0  0  0  0  0  0  0  0  0  0  0  0
   -0.0616   -0.5364    0.3046 C   0  0  0  0  0  0  0  0  0  0  0  0
   -2.2187    0.5293   -0.5403 C   0  0  0  0  0  0  0  0  0  0  0  0
   -0.0532    0.4773   -1.8639 C   0  0  0  0  0  0  0  0  0  0  0  0
   -0.7904   -0.9589    1.5779 C   0  0  0  0  0  0  0  0  0  0  0  0
   -2.9433   -0.0321    0.6780 C   0  0  0  0  0  0  0  0  0  0  0  0
   -2.0064   -0.0887    1.8803 C   0  0  0  0  0  0  0  0  0  0  0  0
    0.7268    1.4378   -0.9477 C   0  0  0  0  0  0  0  0  0  0  0  0
    3.2684   -0.1722    0.5809 C   0  0  0  0  0  0  0  0  0  0  0  0
    0.7611    0.7388    0.4021 C   0  0  0  0  0  3  0  0  0  0  0  0
    3.4403   -0.8390   -0.6639 C   0  0  0  0  0  0  0  0  0  0  0  0
    3.5131   -1.3838   -1.7345 C   0  0  0  0  0  0  0  0  0  0  0  0
   -1.3016   -1.2380   -1.3424 H   0  0  0  0  0  0  0  0  0  0  0  0
    0.6224   -1.3466    0.0205 H   0  0  0  0  0  0  0  0  0  0  0  0
   -0.5965    0.9979   -2.6547 H   0  0  0  0  0  0  0  0  0  0  0  0
    0.6420   -0.2191   -2.3378 H   0  0  0  0  0  0  0  0  0  0  0  0
   -2.8892    0.5740   -1.4024 H   0  0  0  0  0  0  0  0  0  0  0  0
   -1.9264    1.5628   -0.3230 H   0  0  0  0  0  0  0  0  0  0  0  0
   -3.8210    0.5766    0.9067 H   0  0  0  0  0  0  0  0  0  0  0  0
   -3.3084   -1.0416    0.4563 H   0  0  0  0  0  0  0  0  0  0  0  0
   -1.6853    0.9285    2.1306 H   0  0  0  0  0  0  0  0  0  0  0  0
   -2.5300   -0.4751    2.7575 H   0  0  0  0  0  0  0  0  0  0  0  0
   -0.0930   -0.9513    2.4203 H   0  0  0  0  0  0  0  0  0  0  0  0
   -1.1246   -1.9951    1.4623 H   0  0  0  0  0  0  0  0  0  0  0  0
    0.2205    2.4028   -0.8651 H   0  0  0  0  0  0  0  0  0  0  0  0
    1.7277    1.6430   -1.3359 H   0  0  0  0  0  0  0  0  0  0  0  0
    2.0317    0.3243    0.5761 H   0  0  0  0  0  0  0  0  0  0  0  0
    3.2754   -0.8266    1.4495 H   0  0  0  0  0  0  0  0  0  0  0  0
    3.8954    0.7060    0.7156 H   0  0  0  0  0  0  0  0  0  0  0  0
    0.5971    1.3640    1.2785 H   0  0  0  0  0  0  0  0  0  0  0  0
    3.6051   -1.8727   -2.6740 H   0  0  0  0  0  0  0  0  0  0  0  0
  1  3  1  0
  1  4  1  0
  1  2  1  0
  1 13  1  0
  2  5  1  0
  2 10  1  0
  2 14  1  0
  3  6  1  0
  3 17  1  0
  3 18  1  0
  4  8  1  0
  4 15  1  0
  4 16  1  0
  5  7  1  0
  5 23  1  0
  5 24  1  0
  6  7  1  0
  6 19  1  0
  6 20  1  0
  7 21  1  0
  7 22  1  0
  8 10  1  0
  8 25  1  0
  8 26  1  0
  9 11  1  0
  9 27  1  0
  9 28  1  0
  9 29  1  0
 10 30  1  0
 11 12  3  0
 12 31  1  0
M  RAD  1  10   2
M  END
>  <reaction>  (4) 
rxn_586

>  <mol_properties>  (4) 
{"1": {"label": "*4", "atom_type": "Cs"}, "8": {"label": "*1", "atom_type": "Cs"}, "9": {"label": "*3", "atom_type": "Cs"}, "10": {"label": "*0", "atom_type": "Ct"}, "26": {"label": "*2", "atom_type": "H0"}}

>  <type>  (4) 
ts

$$$$
