
     RDKit          3D

 13 12  0  0  0  0  0  0  0  0999 V2000
    3.0977   -0.3549   -0.5105 C   0  0  0  0  0  0  0  0  0  0  0  0
    2.0556    0.4221   -0.2627 C   0  0  0  0  0  0  0  0  0  0  0  0
    0.6313   -0.0354   -0.2366 C   0  0  0  0  0  0  0  0  0  0  0  0
   -0.2567    0.6038   -1.2694 C   0  0  0  0  0  0  0  0  0  0  0  0
    0.1459    1.3456   -2.2891 C   0  0  0  0  0  0  0  0  0  0  0  0
    4.1081    0.0344   -0.5074 H   0  0  0  0  0  0  0  0  0  0  0  0
    2.9777   -1.4116   -0.7243 H   0  0  0  0  0  0  0  0  0  0  0  0
    2.2171    1.4781   -0.0618 H   0  0  0  0  0  0  0  0  0  0  0  0
    0.5865   -1.1233   -0.3540 H   0  0  0  0  0  0  0  0  0  0  0  0
    0.2065    0.1743    0.7521 H   0  0  0  0  0  0  0  0  0  0  0  0
   -1.3190    0.4126   -1.1445 H   0  0  0  0  0  0  0  0  0  0  0  0
    1.1948    1.5564   -2.4628 H   0  0  0  0  0  0  0  0  0  0  0  0
   -0.5644    1.7621   -2.9918 H   0  0  0  0  0  0  0  0  0  0  0  0
  1  2  2  3
  1  6  1  0
  1  7  1  0
  2  3  1  0
  2  8  1  0
  3  4  1  0
  3  9  1  0
  3 10  1  0
  4  5  2  3
  4 11  1  0
  5 12  1  0
  5 13  1  0
M  END
>  <reaction>  (1) 
rxn_746

>  <mol_properties>  (1) 
{"2": {"label": "donator", "atom_type": "Cs"}, "8": {"label": "d_hydrogen", "atom_type": "H0"}}

>  <type>  (1) 
r1h

$$$$

     RDKit          3D

 24 25  0  0  0  0  0  0  0  0999 V2000
   -2.3462    0.0587    0.4026 C   0  0  0  0  0  3  0  0  0  0  0  0
   -1.9216   -0.8977   -0.6619 C   0  0  0  0  0  0  0  0  0  0  0  0
   -0.4224   -0.6048   -0.8347 C   0  0  0  0  0  0  0  0  0  0  0  0
    0.4246   -1.4411    0.1277 C   0  0  0  0  0  0  0  0  0  0  0  0
    1.8615   -0.9403    0.2199 C   0  0  0  0  0  0  0  0  0  0  0  0
    1.8962    0.5175    0.6671 C   0  0  0  0  0  0  0  0  0  0  0  0
    1.1011    1.4007   -0.2911 C   0  0  0  0  0  0  0  0  0  0  0  0
   -0.3231    0.9028   -0.5260 C   0  0  0  0  0  0  0  0  0  0  0  0
   -1.3110    1.1041    0.6384 C   0  0  0  0  0  0  0  0  0  0  0  0
   -3.2900    0.0057    0.9268 H   0  0  0  0  0  0  0  0  0  0  0  0
   -2.1170   -1.9442   -0.4050 H   0  0  0  0  0  0  0  0  0  0  0  0
   -2.4616   -0.7093   -1.6016 H   0  0  0  0  0  0  0  0  0  0  0  0
   -0.0868   -0.8050   -1.8562 H   0  0  0  0  0  0  0  0  0  0  0  0
   -0.0273   -1.4106    1.1258 H   0  0  0  0  0  0  0  0  0  0  0  0
    0.4005   -2.4873   -0.1884 H   0  0  0  0  0  0  0  0  0  0  0  0
    2.4341   -1.5641    0.9101 H   0  0  0  0  0  0  0  0  0  0  0  0
    2.3441   -1.0297   -0.7603 H   0  0  0  0  0  0  0  0  0  0  0  0
    1.4821    0.5910    1.6781 H   0  0  0  0  0  0  0  0  0  0  0  0
    2.9265    0.8752    0.7283 H   0  0  0  0  0  0  0  0  0  0  0  0
    1.0758    2.4318    0.0723 H   0  0  0  0  0  0  0  0  0  0  0  0
    1.6246    1.4246   -1.2529 H   0  0  0  0  0  0  0  0  0  0  0  0
   -0.7335    1.4393   -1.3877 H   0  0  0  0  0  0  0  0  0  0  0  0
   -0.8124    0.9625    1.6085 H   0  0  0  0  0  0  0  0  0  0  0  0
   -1.7184    2.1202    0.6602 H   0  0  0  0  0  0  0  0  0  0  0  0
  1  2  1  0
  1  9  1  0
  1 10  1  0
  2  3  1  0
  2 11  1  0
  2 12  1  0
  3  4  1  0
  3  8  1  0
  3 13  1  0
  4  5  1  0
  4 14  1  0
  4 15  1  0
  5  6  1  0
  5 16  1  0
  5 17  1  0
  6  7  1  0
  6 18  1  0
  6 19  1  0
  7  8  1  0
  7 20  1  0
  7 21  1  0
  8  9  1  0
  8 22  1  0
  9 23  1  0
  9 24  1  0
M  RAD  1   1   2
M  END
>  <reaction>  (2) 
rxn_746

>  <mol_properties>  (2) 
{"0": {"label": "acceptor", "atom_type": "Cs"}}

>  <type>  (2) 
r2

$$$$

     RDKit          3D

 25 26  0  0  0  0  0  0  0  0999 V2000
    2.0298   -1.1515    0.0571 C   0  0  0  0  0  0  0  0  0  0  0  0
    2.2278    0.2445    0.6528 C   0  0  0  0  0  0  0  0  0  0  0  0
    1.2292    1.2625    0.0947 C   0  0  0  0  0  0  0  0  0  0  0  0
   -0.1869    0.7454    0.2762 C   0  0  0  0  0  0  0  0  0  0  0  0
   -1.3415    1.5501   -0.3122 C   0  0  0  0  0  0  0  0  0  0  0  0
   -2.5060    0.5338   -0.4178 C   0  0  0  0  0  0  0  0  0  0  0  0
   -1.8709   -0.8658   -0.2234 C   0  0  0  0  0  0  0  0  0  0  0  0
   -0.3715   -0.6265   -0.3693 C   0  0  0  0  0  0  0  0  0  0  0  0
    0.5898   -1.6500    0.2086 C   0  0  0  0  0  0  0  0  0  0  0  0
    2.2820   -1.1226   -1.0088 H   0  0  0  0  0  0  0  0  0  0  0  0
    2.7243   -1.8549    0.5221 H   0  0  0  0  0  0  0  0  0  0  0  0
    2.1030    0.1885    1.7400 H   0  0  0  0  0  0  0  0  0  0  0  0
    3.2514    0.5819    0.4743 H   0  0  0  0  0  0  0  0  0  0  0  0
    1.3611    2.2304    0.5855 H   0  0  0  0  0  0  0  0  0  0  0  0
    1.4198    1.4194   -0.9737 H   0  0  0  0  0  0  0  0  0  0  0  0
   -0.3675    0.6209    1.3539 H   0  0  0  0  0  0  0  0  0  0  0  0
   -1.5992    2.4249    0.2862 H   0  0  0  0  0  0  0  0  0  0  0  0
   -1.0595    1.9116   -1.3055 H   0  0  0  0  0  0  0  0  0  0  0  0
   -3.2666    0.7244    0.3399 H   0  0  0  0  0  0  0  0  0  0  0  0
   -3.0030    0.6112   -1.3853 H   0  0  0  0  0  0  0  0  0  0  0  0
   -2.2549   -1.6039   -0.9288 H   0  0  0  0  0  0  0  0  0  0  0  0
   -2.0796   -1.2429    0.7821 H   0  0  0  0  0  0  0  0  0  0  0  0
   -0.1432   -0.5121   -1.4391 H   0  0  0  0  0  0  0  0  0  0  0  0
    0.4720   -2.6209   -0.2799 H   0  0  0  0  0  0  0  0  0  0  0  0
    0.3601   -1.7986    1.2704 H   0  0  0  0  0  0  0  0  0  0  0  0
  1  2  1  0
  1  9  1  0
  1 10  1  0
  1 11  1  0
  2  3  1  0
  2 12  1  0
  2 13  1  0
  3  4  1  0
  3 14  1  0
  3 15  1  0
  4  5  1  0
  4  8  1  0
  4 16  1  0
  5  6  1  0
  5 17  1  0
  5 18  1  0
  6  7  1  0
  6 19  1  0
  6 20  1  0
  7  8  1  0
  7 21  1  0
  7 22  1  0
  8  9  1  0
  8 23  1  0
  9 24  1  0
  9 25  1  0
M  END
>  <reaction>  (3) 
rxn_746

>  <mol_properties>  (3) 
{"0": {"label": "a_hydrogen", "atom_type": "H0"}, "1": {"label": "acceptor", "atom_type": "Cs"}}

>  <type>  (3) 
r2h

$$$$

     RDKit          3D

 37 37  0  0  0  0  0  0  0  0999 V2000
   -0.8181   -3.3630   -1.5159 C   0  0  0  0  0  0  0  0  0  0  0  0
   -0.5520   -2.5785   -0.4749 C   0  0  0  0  0  0  0  0  0  0  0  0
   -1.5491   -2.0814    0.4831 C   0  0  0  0  0  0  0  0  0  0  0  0
   -1.1920   -2.0022    1.9117 C   0  0  0  0  0  0  0  0  0  0  0  0
    0.0063   -2.2023    2.4560 C   0  0  0  0  0  0  0  0  0  0  0  0
   -0.0430   -3.6649   -2.2085 H   0  0  0  0  0  0  0  0  0  0  0  0
   -1.8210   -3.7293   -1.7066 H   0  0  0  0  0  0  0  0  0  0  0  0
    0.4701   -2.2373   -0.3318 H   0  0  0  0  0  0  0  0  0  0  0  0
   -1.7821   -0.8634    0.1478 H   0  0  0  0  0  0  0  0  0  0  0  0
   -2.5363   -2.5192    0.3271 H   0  0  0  0  0  0  0  0  0  0  0  0
   -2.0100   -1.7176    2.5683 H   0  0  0  0  0  0  0  0  0  0  0  0
    0.8659   -2.5073    1.8718 H   0  0  0  0  0  0  0  0  0  0  0  0
    0.1596   -2.0793    3.5202 H   0  0  0  0  0  0  0  0  0  0  0  0
   -1.9372    0.5255   -0.2175 C   0  0  0  0  0  3  0  0  0  0  0  0
   -1.1091    0.6645   -1.4843 C   0  0  0  0  0  0  0  0  0  0  0  0
    0.1184    1.4711   -1.0420 C   0  0  0  0  0  0  0  0  0  0  0  0
    1.4400    1.2382   -1.7520 C   0  0  0  0  0  0  0  0  0  0  0  0
    2.5324    2.0864   -1.0937 C   0  0  0  0  0  0  0  0  0  0  0  0
    2.6206    1.8601    0.4181 C   0  0  0  0  0  0  0  0  0  0  0  0
    1.2717    2.0488    1.1192 C   0  0  0  0  0  0  0  0  0  0  0  0
    0.2328    1.1676    0.4526 C   0  0  0  0  0  0  0  0  0  0  0  0
   -1.2183    1.2257    0.9149 C   0  0  0  0  0  0  0  0  0  0  0  0
   -3.0177    0.6167   -0.2866 H   0  0  0  0  0  0  0  0  0  0  0  0
   -0.8046   -0.3187   -1.8626 H   0  0  0  0  0  0  0  0  0  0  0  0
   -1.6616    1.1489   -2.2927 H   0  0  0  0  0  0  0  0  0  0  0  0
   -0.1282    2.5384   -1.1303 H   0  0  0  0  0  0  0  0  0  0  0  0
    1.7010    0.1753   -1.6839 H   0  0  0  0  0  0  0  0  0  0  0  0
    1.3651    1.4782   -2.8159 H   0  0  0  0  0  0  0  0  0  0  0  0
    3.5007    1.8802   -1.5554 H   0  0  0  0  0  0  0  0  0  0  0  0
    2.3161    3.1438   -1.2828 H   0  0  0  0  0  0  0  0  0  0  0  0
    2.9713    0.8390    0.6054 H   0  0  0  0  0  0  0  0  0  0  0  0
    3.3686    2.5295    0.8489 H   0  0  0  0  0  0  0  0  0  0  0  0
    1.3622    1.8127    2.1825 H   0  0  0  0  0  0  0  0  0  0  0  0
    0.9593    3.0974    1.0488 H   0  0  0  0  0  0  0  0  0  0  0  0
    0.5629    0.1239    0.5552 H   0  0  0  0  0  0  0  0  0  0  0  0
   -1.3820    0.7511    1.8853 H   0  0  0  0  0  0  0  0  0  0  0  0
   -1.5475    2.2697    1.0038 H   0  0  0  0  0  0  0  0  0  0  0  0
  1  2  2  3
  1  6  1  0
  1  7  1  0
  2  3  1  0
  2  8  1  0
  3  4  1  0
  3  9  1  0
  3 10  1  0
  4  5  2  3
  4 11  1  0
  5 12  1  0
  5 13  1  0
 14 15  1  0
 14 22  1  0
 14 23  1  0
 15 16  1  0
 15 24  1  0
 15 25  1  0
 16 17  1  0
 16 21  1  0
 16 26  1  0
 17 18  1  0
 17 27  1  0
 17 28  1  0
 18 19  1  0
 18 29  1  0
 18 30  1  0
 19 20  1  0
 19 31  1  0
 19 32  1  0
 20 21  1  0
 20 33  1  0
 20 34  1  0
 21 22  1  0
 21 35  1  0
 22 36  1  0
 22 37  1  0
M  RAD  1  14   2
M  END
>  <reaction>  (4) 
rxn_746

>  <mol_properties>  (4) 
{"1": {"label": "*0", "atom_type": "Cd"}, "2": {"label": "*1", "atom_type": "Cs"}, "8": {"label": "*2", "atom_type": "H0"}, "13": {"label": "*3", "atom_type": "Cs"}, "21": {"label": "*4", "atom_type": "Cs"}}

>  <type>  (4) 
ts

$$$$
