
     RDKit          3D

 25 26  0  0  0  0  0  0  0  0999 V2000
    2.0298   -1.1515    0.0571 C   0  0  0  0  0  0  0  0  0  0  0  0
    2.2278    0.2445    0.6528 C   0  0  0  0  0  0  0  0  0  0  0  0
    1.2292    1.2625    0.0947 C   0  0  0  0  0  0  0  0  0  0  0  0
   -0.1869    0.7454    0.2762 C   0  0  0  0  0  0  0  0  0  0  0  0
   -1.3415    1.5501   -0.3122 C   0  0  0  0  0  0  0  0  0  0  0  0
   -2.5060    0.5338   -0.4178 C   0  0  0  0  0  0  0  0  0  0  0  0
   -1.8709   -0.8658   -0.2234 C   0  0  0  0  0  0  0  0  0  0  0  0
   -0.3715   -0.6265   -0.3693 C   0  0  0  0  0  0  0  0  0  0  0  0
    0.5898   -1.6500    0.2086 C   0  0  0  0  0  0  0  0  0  0  0  0
    2.2820   -1.1226   -1.0088 H   0  0  0  0  0  0  0  0  0  0  0  0
    2.7243   -1.8549    0.5221 H   0  0  0  0  0  0  0  0  0  0  0  0
    2.1030    0.1885    1.7400 H   0  0  0  0  0  0  0  0  0  0  0  0
    3.2514    0.5819    0.4743 H   0  0  0  0  0  0  0  0  0  0  0  0
    1.3611    2.2304    0.5855 H   0  0  0  0  0  0  0  0  0  0  0  0
    1.4198    1.4194   -0.9737 H   0  0  0  0  0  0  0  0  0  0  0  0
   -0.3675    0.6209    1.3539 H   0  0  0  0  0  0  0  0  0  0  0  0
   -1.5992    2.4249    0.2862 H   0  0  0  0  0  0  0  0  0  0  0  0
   -1.0595    1.9116   -1.3055 H   0  0  0  0  0  0  0  0  0  0  0  0
   -3.2666    0.7244    0.3399 H   0  0  0  0  0  0  0  0  0  0  0  0
   -3.0030    0.6112   -1.3853 H   0  0  0  0  0  0  0  0  0  0  0  0
   -2.2549   -1.6039   -0.9288 H   0  0  0  0  0  0  0  0  0  0  0  0
   -2.0796   -1.2429    0.7821 H   0  0  0  0  0  0  0  0  0  0  0  0
   -0.1432   -0.5121   -1.4391 H   0  0  0  0  0  0  0  0  0  0  0  0
    0.4720   -2.6209   -0.2799 H   0  0  0  0  0  0  0  0  0  0  0  0
    0.3601   -1.7986    1.2704 H   0  0  0  0  0  0  0  0  0  0  0  0
  1  2  1  0
  1  9  1  0
  1 10  1  0
  1 11  1  0
  2  3  1  0
  2 12  1  0
  2 13  1  0
  3  4  1  0
  3 14  1  0
  3 15  1  0
  4  5  1  0
  4  8  1  0
  4 16  1  0
  5  6  1  0
  5 17  1  0
  5 18  1  0
  6  7  1  0
  6 19  1  0
  6 20  1  0
  7  8  1  0
  7 21  1  0
  7 22  1  0
  8  9  1  0
  8 23  1  0
  9 24  1  0
  9 25  1  0
M  END
>  <reaction>  (1) 
rxn_605

>  <mol_properties>  (1) 
{"5": {"label": "donator", "atom_type": "Cs"}, "18": {"label": "d_hydrogen", "atom_type": "H0"}}

>  <type>  (1) 
r1h

$$$$

     RDKit          3D

 14 13  0  0  0  0  0  0  0  0999 V2000
    1.0767   -1.6838    1.2931 C   0  0  0  0  0  0  0  0  0  0  0  0
    1.0020   -0.3665    0.9163 C   0  0  0  0  0  0  0  0  0  0  0  0
    1.3965    0.7260    1.6806 C   0  0  0  0  0  3  0  0  0  0  0  0
    1.2666    2.1197    1.1619 C   0  0  0  0  0  0  0  0  0  0  0  0
    1.9670    0.5479    3.0536 C   0  0  0  0  0  0  0  0  0  0  0  0
    0.7448   -2.4705    0.6300 H   0  0  0  0  0  0  0  0  0  0  0  0
    1.4663   -1.9826    2.2578 H   0  0  0  0  0  0  0  0  0  0  0  0
    0.5980   -0.1511   -0.0695 H   0  0  0  0  0  0  0  0  0  0  0  0
    0.6296    2.7241    1.8172 H   0  0  0  0  0  0  0  0  0  0  0  0
    2.2410    2.6200    1.1341 H   0  0  0  0  0  0  0  0  0  0  0  0
    0.8426    2.1448    0.1579 H   0  0  0  0  0  0  0  0  0  0  0  0
    2.8745   -0.0634    3.0328 H   0  0  0  0  0  0  0  0  0  0  0  0
    1.2599    0.0408    3.7173 H   0  0  0  0  0  0  0  0  0  0  0  0
    2.2205    1.5071    3.5054 H   0  0  0  0  0  0  0  0  0  0  0  0
  1  2  2  3
  1  6  1  0
  1  7  1  0
  2  3  1  0
  2  8  1  0
  3  4  1  0
  3  5  1  0
  4  9  1  0
  4 10  1  0
  4 11  1  0
  5 12  1  0
  5 13  1  0
  5 14  1  0
M  RAD  1   3   2
M  END
>  <reaction>  (2) 
rxn_605

>  <mol_properties>  (2) 
{"2": {"label": "acceptor", "atom_type": "Cs"}}

>  <type>  (2) 
r2

$$$$

     RDKit          3D

 15 14  0  0  0  0  0  0  0  0999 V2000
    2.1256    0.4849   -0.6284 C   0  0  0  0  0  0  0  0  0  0  0  0
    1.1128    0.2141    0.1794 C   0  0  0  0  0  0  0  0  0  0  0  0
   -0.3017   -0.0425   -0.2513 C   0  0  0  0  0  0  0  0  0  0  0  0
   -1.2427    1.0075    0.3423 C   0  0  0  0  0  0  0  0  0  0  0  0
   -0.7381   -1.4526    0.1504 C   0  0  0  0  0  0  0  0  0  0  0  0
    3.1243    0.6602   -0.2486 H   0  0  0  0  0  0  0  0  0  0  0  0
    1.9908    0.5411   -1.7036 H   0  0  0  0  0  0  0  0  0  0  0  0
    1.2888    0.1665    1.2533 H   0  0  0  0  0  0  0  0  0  0  0  0
   -0.3426    0.0343   -1.3424 H   0  0  0  0  0  0  0  0  0  0  0  0
   -0.9570    2.0133    0.0315 H   0  0  0  0  0  0  0  0  0  0  0  0
   -1.2189    0.9728    1.4350 H   0  0  0  0  0  0  0  0  0  0  0  0
   -2.2723    0.8287    0.0254 H   0  0  0  0  0  0  0  0  0  0  0  0
   -0.6964   -1.5744    1.2363 H   0  0  0  0  0  0  0  0  0  0  0  0
   -0.0911   -2.2079   -0.2978 H   0  0  0  0  0  0  0  0  0  0  0  0
   -1.7646   -1.6461   -0.1677 H   0  0  0  0  0  0  0  0  0  0  0  0
  1  2  2  3
  1  6  1  0
  1  7  1  0
  2  3  1  0
  2  8  1  0
  3  4  1  0
  3  5  1  0
  3  9  1  0
  4 10  1  0
  4 11  1  0
  4 12  1  0
  5 13  1  0
  5 14  1  0
  5 15  1  0
M  END
>  <reaction>  (3) 
rxn_605

>  <mol_properties>  (3) 
{"2": {"label": "acceptor", "atom_type": "Cs"}, "14": {"label": "a_hydrogen", "atom_type": "H0"}}

>  <type>  (3) 
r2h

$$$$

     RDKit          3D

 39 39  0  0  0  0  0  0  0  0999 V2000
   -1.8667    2.0577   -0.6320 C   0  0  0  0  0  0  0  0  0  0  0  0
   -0.6019    2.4710   -0.5283 C   0  0  0  0  0  0  0  0  0  0  0  0
    0.2307    2.4875    0.6826 C   0  0  0  0  0  0  0  0  0  0  0  0
   -0.4949    2.2976    1.9964 C   0  0  0  0  0  0  0  0  0  0  0  0
    1.2513    3.6089    0.7106 C   0  0  0  0  0  0  0  0  0  0  0  0
   -2.3760    2.0599   -1.5870 H   0  0  0  0  0  0  0  0  0  0  0  0
   -2.4358    1.7137    0.2230 H   0  0  0  0  0  0  0  0  0  0  0  0
   -0.1047    2.8125   -1.4338 H   0  0  0  0  0  0  0  0  0  0  0  0
    0.2171    2.2404    2.8218 H   0  0  0  0  0  0  0  0  0  0  0  0
   -1.1727    3.1345    2.1939 H   0  0  0  0  0  0  0  0  0  0  0  0
   -1.0874    1.3812    2.0053 H   0  0  0  0  0  0  0  0  0  0  0  0
    0.7699    4.5782    0.8752 H   0  0  0  0  0  0  0  0  0  0  0  0
    1.8015    3.6649   -0.2311 H   0  0  0  0  0  0  0  0  0  0  0  0
    1.9746    3.4553    1.5145 H   0  0  0  0  0  0  0  0  0  0  0  0
   -1.0631   -3.0143   -1.5767 C   0  0  0  0  0  0  0  0  0  0  0  0
   -1.7334   -2.9093   -0.2039 C   0  0  0  0  0  0  0  0  0  0  0  0
   -0.7437   -2.5359    0.9046 C   0  0  0  0  0  0  0  0  0  0  0  0
   -0.0070   -1.2695    0.5122 C   0  0  0  0  0  0  0  0  0  0  0  0
    1.0949   -0.7225    1.4124 C   0  0  0  0  0  0  0  0  0  0  0  0
    1.7807    0.2729    0.4985 C   0  0  0  0  0  3  0  0  0  0  0  0
    1.5729   -0.1724   -0.9414 C   0  0  0  0  0  0  0  0  0  0  0  0
    0.7150   -1.4390   -0.8258 C   0  0  0  0  0  0  0  0  0  0  0  0
   -0.2671   -1.7567   -1.9391 C   0  0  0  0  0  0  0  0  0  0  0  0
   -0.3818   -3.8725   -1.5747 H   0  0  0  0  0  0  0  0  0  0  0  0
   -1.8169   -3.2179   -2.3407 H   0  0  0  0  0  0  0  0  0  0  0  0
   -2.5141   -2.1417   -0.2477 H   0  0  0  0  0  0  0  0  0  0  0  0
   -2.2340   -3.8501    0.0361 H   0  0  0  0  0  0  0  0  0  0  0  0
   -1.2711   -2.4078    1.8537 H   0  0  0  0  0  0  0  0  0  0  0  0
   -0.0215   -3.3483    1.0480 H   0  0  0  0  0  0  0  0  0  0  0  0
   -0.7499   -0.4710    0.3779 H   0  0  0  0  0  0  0  0  0  0  0  0
    0.7258   -0.2746    2.3374 H   0  0  0  0  0  0  0  0  0  0  0  0
    1.7821   -1.5305    1.6978 H   0  0  0  0  0  0  0  0  0  0  0  0
    0.9743    1.4385    0.5872 H   0  0  0  0  0  0  0  0  0  0  0  0
    2.7590    0.6486    0.7867 H   0  0  0  0  0  0  0  0  0  0  0  0
    2.5143   -0.3515   -1.4658 H   0  0  0  0  0  0  0  0  0  0  0  0
    1.0362    0.5939   -1.5142 H   0  0  0  0  0  0  0  0  0  0  0  0
    1.3914   -2.2981   -0.7150 H   0  0  0  0  0  0  0  0  0  0  0  0
    0.2486   -1.8987   -2.8927 H   0  0  0  0  0  0  0  0  0  0  0  0
   -0.9475   -0.9065   -2.0655 H   0  0  0  0  0  0  0  0  0  0  0  0
  1  2  2  3
  1  6  1  0
  1  7  1  0
  2  3  1  0
  2  8  1  0
  3  4  1  0
  3  5  1  0
  3 33  1  0
  4  9  1  0
  4 10  1  0
  4 11  1  0
  5 12  1  0
  5 13  1  0
  5 14  1  0
 15 16  1  0
 15 23  1  0
 15 24  1  0
 15 25  1  0
 16 17  1  0
 16 26  1  0
 16 27  1  0
 17 18  1  0
 17 28  1  0
 17 29  1  0
 18 19  1  0
 18 22  1  0
 18 30  1  0
 19 20  1  0
 19 31  1  0
 19 32  1  0
 20 21  1  0
 20 34  1  0
 21 22  1  0
 21 35  1  0
 21 36  1  0
 22 23  1  0
 22 37  1  0
 23 38  1  0
 23 39  1  0
M  RAD  1  20   2
M  END
>  <reaction>  (4) 
rxn_605

>  <mol_properties>  (4) 
{"1": {"label": "*0", "atom_type": "Cd"}, "2": {"label": "*1", "atom_type": "Cs"}, "18": {"label": "*4", "atom_type": "Cs"}, "19": {"label": "*3", "atom_type": "Cs"}, "32": {"label": "*2", "atom_type": "H0"}}

>  <type>  (4) 
ts

$$$$
