
     RDKit          3D

  9  8  0  0  0  0  0  0  0  0999 V2000
    1.1303   -0.2933   -0.7510 C   0  0  0  0  0  0  0  0  0  0  0  0
    0.2866    0.4560   -0.0588 C   0  0  0  0  0  0  0  0  0  0  0  0
   -0.9719   -0.0331    0.5823 C   0  0  0  0  0  0  0  0  0  0  0  0
    2.0274    0.1230   -1.1916 H   0  0  0  0  0  0  0  0  0  0  0  0
    0.9532   -1.3530   -0.9023 H   0  0  0  0  0  0  0  0  0  0  0  0
    0.5065    1.5132    0.0659 H   0  0  0  0  0  0  0  0  0  0  0  0
   -0.9526    0.1426    1.6610 H   0  0  0  0  0  0  0  0  0  0  0  0
   -1.1182   -1.1002    0.4106 H   0  0  0  0  0  0  0  0  0  0  0  0
   -1.8412    0.5010    0.1901 H   0  0  0  0  0  0  0  0  0  0  0  0
  1  2  2  3
  1  4  1  0
  1  5  1  0
  2  3  1  0
  2  6  1  0
  3  7  1  0
  3  8  1  0
  3  9  1  0
M  END
>  <reaction>  (1) 
rxn_1030

>  <mol_properties>  (1) 
{"2": {"label": "donator", "atom_type": "Cs"}, "6": {"label": "d_hydrogen", "atom_type": "H0"}}

>  <type>  (1) 
r1h

$$$$

     RDKit          3D

  7  6  0  0  0  0  0  0  0  0999 V2000
   -2.0652    0.3855   -0.2963 S   0  0  0  0  0  0  0  0  0  0  0  0
   -0.7169   -0.5853    0.1792 C   0  0  0  0  0  3  0  0  0  0  0  0
    0.5987   -0.2168    0.0254 C   0  0  0  0  0  0  0  0  0  0  0  0
    1.7547    0.1211   -0.1163 C   0  0  0  0  0  0  0  0  0  0  0  0
   -1.3643    1.4227   -0.7731 H   0  0  0  0  0  0  0  0  0  0  0  0
   -0.9781   -1.5363    0.6220 H   0  0  0  0  0  0  0  0  0  0  0  0
    2.7711    0.4089   -0.2366 H   0  0  0  0  0  0  0  0  0  0  0  0
  1  2  1  0
  1  5  1  0
  2  3  1  0
  2  6  1  0
  3  4  3  0
  4  7  1  0
M  RAD  1   2   2
M  END
>  <reaction>  (2) 
rxn_1030

>  <mol_properties>  (2) 
{"1": {"label": "acceptor", "atom_type": "Cs"}}

>  <type>  (2) 
r2

$$$$

     RDKit          3D

  8  7  0  0  0  0  0  0  0  0999 V2000
   -0.7014    1.0753    1.5530 S   0  0  0  0  0  0  0  0  0  0  0  0
   -0.3105   -0.4583    0.6462 C   0  0  0  0  0  0  0  0  0  0  0  0
    0.0935   -0.2424   -0.7319 C   0  0  0  0  0  0  0  0  0  0  0  0
    0.4431   -0.0604   -1.8621 C   0  0  0  0  0  0  0  0  0  0  0  0
    0.4994    1.6466    1.3970 H   0  0  0  0  0  0  0  0  0  0  0  0
   -1.2277   -1.0477    0.6819 H   0  0  0  0  0  0  0  0  0  0  0  0
    0.4563   -1.0151    1.1841 H   0  0  0  0  0  0  0  0  0  0  0  0
    0.7474    0.1020   -2.8681 H   0  0  0  0  0  0  0  0  0  0  0  0
  1  2  1  0
  1  5  1  0
  2  3  1  0
  2  6  1  0
  2  7  1  0
  3  4  3  0
  4  8  1  0
M  END
>  <reaction>  (3) 
rxn_1030

>  <mol_properties>  (3) 
{"1": {"label": "acceptor", "atom_type": "Cs"}, "7": {"label": "a_hydrogen", "atom_type": "H0"}}

>  <type>  (3) 
r2h

$$$$

     RDKit          3D

 16 14  0  0  0  0  0  0  0  0999 V2000
    0.0755   -0.3982    1.7712 S   0  0  0  0  0  0  0  0  0  0  0  0
   -0.4026    0.8885    0.6369 C   0  0  0  0  0  3  0  0  0  0  0  0
   -1.6187    0.7212   -0.0826 C   0  0  0  0  0  0  0  0  0  0  0  0
   -2.5974    0.5570   -0.7608 C   0  0  0  0  0  0  0  0  0  0  0  0
   -0.0807   -1.4114    0.9074 H   0  0  0  0  0  0  0  0  0  0  0  0
   -0.2896    1.8575    1.1174 H   0  0  0  0  0  0  0  0  0  0  0  0
   -3.4803    0.4186   -1.3369 H   0  0  0  0  0  0  0  0  0  0  0  0
    1.0250   -1.5614   -2.0296 C   0  0  0  0  0  0  0  0  0  0  0  0
    1.7430   -0.6405   -1.3705 C   0  0  0  0  0  0  0  0  0  0  0  0
    1.4261    0.7704   -1.3357 C   0  0  0  0  0  0  0  0  0  0  0  0
    1.2828   -2.6117   -1.9918 H   0  0  0  0  0  0  0  0  0  0  0  0
    0.1680   -1.2801   -2.6314 H   0  0  0  0  0  0  0  0  0  0  0  0
    2.5861   -0.9697   -0.7706 H   0  0  0  0  0  0  0  0  0  0  0  0
    0.5609    0.9044   -0.3149 H   0  0  0  0  0  0  0  0  0  0  0  0
    0.8036    1.1419   -2.1467 H   0  0  0  0  0  0  0  0  0  0  0  0
    2.2300    1.4448   -1.0551 H   0  0  0  0  0  0  0  0  0  0  0  0
  1  2  1  0
  1  5  1  0
  2  3  1  0
  2  6  1  0
  3  4  3  0
  4  7  1  0
  8  9  2  3
  8 11  1  0
  8 12  1  0
  9 10  1  0
  9 13  1  0
 10 14  1  0
 10 15  1  0
 10 16  1  0
M  RAD  1   2   2
M  END
>  <reaction>  (4) 
rxn_1030

>  <mol_properties>  (4) 
{"0": {"label": "*4", "atom_type": "S2s"}, "1": {"label": "*3", "atom_type": "Cs"}, "8": {"label": "*0", "atom_type": "Cd"}, "9": {"label": "*1", "atom_type": "Cs"}, "13": {"label": "*2", "atom_type": "H0"}}

>  <type>  (4) 
ts

$$$$
