
     RDKit          3D

  8  7  0  0  0  0  0  0  0  0999 V2000
   -1.0119   -0.1138    0.0343 C   0  0  0  0  0  0  0  0  0  0  0  0
    0.1635    0.6127    0.4537 N   0  0  0  0  0  0  0  0  0  0  0  0
    1.2806    0.2308    0.0237 C   0  0  0  0  0  0  0  0  0  0  0  0
   -1.5282   -0.4917    0.9187 H   0  0  0  0  0  0  0  0  0  0  0  0
   -1.6952    0.5767   -0.4637 H   0  0  0  0  0  0  0  0  0  0  0  0
   -0.7939   -0.9530   -0.6406 H   0  0  0  0  0  0  0  0  0  0  0  0
    2.1799    0.7636    0.3269 H   0  0  0  0  0  0  0  0  0  0  0  0
    1.4052   -0.6254   -0.6530 H   0  0  0  0  0  0  0  0  0  0  0  0
  1  2  1  0
  1  4  1  0
  1  5  1  0
  1  6  1  0
  2  3  2  3
  3  7  1  0
  3  8  1  0
M  END
>  <reaction>  (1) 
rxn_705

>  <mol_properties>  (1) 
{"0": {"label": "donator", "atom_type": "Cs"}, "3": {"label": "d_hydrogen", "atom_type": "H0"}}

>  <type>  (1) 
r1h

$$$$

     RDKit          3D

  3  2  0  0  0  0  0  0  0  0999 V2000
    0.0002    0.4233    0.0000 N   0  0  0  0  0  2  0  0  0  0  0  0
   -0.8051   -0.2112    0.0000 H   0  0  0  0  0  0  0  0  0  0  0  0
    0.8049   -0.2121    0.0000 H   0  0  0  0  0  0  0  0  0  0  0  0
  1  2  1  0
  1  3  1  0
M  RAD  1   1   2
M  END
>  <reaction>  (2) 
rxn_705

>  <mol_properties>  (2) 
{"0": {"label": "acceptor", "atom_type": "N3s"}}

>  <type>  (2) 
r2

$$$$

     RDKit          3D

  4  3  0  0  0  0  0  0  0  0999 V2000
    0.0006   -0.0009    0.2762 N   0  0  0  0  0  0  0  0  0  0  0  0
   -0.4188    0.8439   -0.0883 H   0  0  0  0  0  0  0  0  0  0  0  0
   -0.5215   -0.7840   -0.0936 H   0  0  0  0  0  0  0  0  0  0  0  0
    0.9397   -0.0590   -0.0943 H   0  0  0  0  0  0  0  0  0  0  0  0
  1  2  1  0
  1  3  1  0
  1  4  1  0
M  END
>  <reaction>  (3) 
rxn_705

>  <mol_properties>  (3) 
{"0": {"label": "acceptor", "atom_type": "N3s"}, "3": {"label": "a_hydrogen", "atom_type": "H0"}}

>  <type>  (3) 
r2h

$$$$

     RDKit          3D

 11  9  0  0  0  0  0  0  0  0999 V2000
   -1.5276    0.6516    1.5518 N   0  0  0  0  0  2  0  0  0  0  0  0
   -1.6590   -0.3587    1.4589 H   0  0  0  0  0  0  0  0  0  0  0  0
   -1.1367    0.7636    2.4900 H   0  0  0  0  0  0  0  0  0  0  0  0
    0.6982    0.6094    0.2186 C   0  0  0  0  0  0  0  0  0  0  0  0
    0.6532   -0.6560   -0.4125 N   0  0  0  0  0  0  0  0  0  0  0  0
    0.4310   -0.6990   -1.6554 C   0  0  0  0  0  0  0  0  0  0  0  0
   -0.3918    0.7449    0.8195 H   0  0  0  0  0  0  0  0  0  0  0  0
    1.4551    0.6508    0.9990 H   0  0  0  0  0  0  0  0  0  0  0  0
    0.7247    1.4816   -0.4468 H   0  0  0  0  0  0  0  0  0  0  0  0
    0.3587   -1.6648   -2.1498 H   0  0  0  0  0  0  0  0  0  0  0  0
    0.3105    0.1992   -2.2737 H   0  0  0  0  0  0  0  0  0  0  0  0
  1  2  1  0
  1  3  1  0
  4  5  1  0
  4  7  1  0
  4  8  1  0
  4  9  1  0
  5  6  2  3
  6 10  1  0
  6 11  1  0
M  RAD  1   1   2
M  END
>  <reaction>  (4) 
rxn_705

>  <mol_properties>  (4) 
{"0": {"label": "*3", "atom_type": "N3s"}, "1": {"label": "*4", "atom_type": "H0"}, "3": {"label": "*1", "atom_type": "Cs"}, "4": {"label": "*0", "atom_type": "N3d"}, "6": {"label": "*2", "atom_type": "H0"}}

>  <type>  (4) 
ts

$$$$
