
     RDKit          3D

 12 11  0  0  0  0  0  0  0  0999 V2000
    2.1696    0.6854    1.1310 C   0  0  0  0  0  0  0  0  0  0  0  0
    1.2518    0.4145    0.4134 C   0  0  0  0  0  0  0  0  0  0  0  0
    0.1391    0.0443   -0.4683 C   0  0  0  0  0  0  0  0  0  0  0  0
   -0.2054   -1.4492   -0.3339 C   0  0  0  0  0  0  0  0  0  0  0  0
   -1.0375    0.8853   -0.2222 C   0  0  0  0  0  0  0  0  0  0  0  0
   -2.0160    1.5463   -0.0311 C   0  0  0  0  0  0  0  0  0  0  0  0
    2.9819    0.9356    1.7702 H   0  0  0  0  0  0  0  0  0  0  0  0
    0.4629    0.2285   -1.4981 H   0  0  0  0  0  0  0  0  0  0  0  0
   -0.5327   -1.6703    0.6812 H   0  0  0  0  0  0  0  0  0  0  0  0
    0.6727   -2.0535   -0.5593 H   0  0  0  0  0  0  0  0  0  0  0  0
   -1.0064   -1.7081   -1.0256 H   0  0  0  0  0  0  0  0  0  0  0  0
   -2.8802    2.1413    0.1426 H   0  0  0  0  0  0  0  0  0  0  0  0
  1  2  3  0
  1  7  1  0
  2  3  1  0
  3  4  1  0
  3  5  1  0
  3  8  1  0
  4  9  1  0
  4 10  1  0
  4 11  1  0
  5  6  3  0
  6 12  1  0
M  END
>  <reaction>  (1) 
rxn_1403

>  <mol_properties>  (1) 
{"2": {"label": "donator", "atom_type": "Cs"}, "7": {"label": "d_hydrogen", "atom_type": "H0"}}

>  <type>  (1) 
r1h

$$$$

     RDKit          3D

 14 14  0  0  0  0  0  0  0  0999 V2000
    2.3111    0.1295    0.0255 C   0  0  0  0  0  0  0  0  0  0  0  0
    0.9132    0.0511    0.0101 C   0  0  0  0  0  0  0  0  0  0  0  0
    0.2446   -1.1981    0.0389 C   0  0  0  0  0  3  0  0  0  0  0  0
   -1.1306   -1.2689    0.0235 C   0  0  0  0  0  0  0  0  0  0  0  0
   -1.8967   -0.1062   -0.0209 C   0  0  0  0  0  0  0  0  0  0  0  0
   -1.2644    1.1347   -0.0499 C   0  0  0  0  0  0  0  0  0  0  0  0
    0.1101    1.2180   -0.0350 C   0  0  0  0  0  0  0  0  0  0  0  0
    2.9188   -0.7647    0.0599 H   0  0  0  0  0  0  0  0  0  0  0  0
    2.8158    1.0859    0.0034 H   0  0  0  0  0  0  0  0  0  0  0  0
    0.8353   -2.1058    0.0735 H   0  0  0  0  0  0  0  0  0  0  0  0
   -1.6191   -2.2351    0.0461 H   0  0  0  0  0  0  0  0  0  0  0  0
   -2.9772   -0.1668   -0.0328 H   0  0  0  0  0  0  0  0  0  0  0  0
   -1.8572    2.0404   -0.0845 H   0  0  0  0  0  0  0  0  0  0  0  0
    0.5964    2.1860   -0.0577 H   0  0  0  0  0  0  0  0  0  0  0  0
  1  2  2  3
  1  8  1  0
  1  9  1  0
  2  3  1  0
  2  7  1  0
  3  4  1  0
  3 10  1  0
  4  5  2  0
  4 11  1  0
  5  6  1  0
  5 12  1  0
  6  7  2  0
  6 13  1  0
  7 14  1  0
M  RAD  1   3   2
M  END
>  <reaction>  (2) 
rxn_1403

>  <mol_properties>  (2) 
{"0": {"label": "acceptor", "atom_type": "Cs"}}

>  <type>  (2) 
r2

$$$$

     RDKit          3D

 15 15  0  0  0  0  0  0  0  0999 V2000
    2.2031   -0.2111   -0.1693 C   0  0  0  0  0  0  0  0  0  0  0  0
    0.7140   -0.0314   -0.0623 C   0  0  0  0  0  0  0  0  0  0  0  0
   -0.0114    0.5491   -1.0982 C   0  0  0  0  0  0  0  0  0  0  0  0
   -1.3882    0.6886   -1.0150 C   0  0  0  0  0  0  0  0  0  0  0  0
   -2.0661    0.2493    0.1118 C   0  0  0  0  0  0  0  0  0  0  0  0
   -1.3551   -0.3278    1.1528 C   0  0  0  0  0  0  0  0  0  0  0  0
    0.0216   -0.4648    1.0642 C   0  0  0  0  0  0  0  0  0  0  0  0
    2.6776   -0.1836    0.8122 H   0  0  0  0  0  0  0  0  0  0  0  0
    2.4446   -1.1749   -0.6249 H   0  0  0  0  0  0  0  0  0  0  0  0
    2.6532    0.5664   -0.7875 H   0  0  0  0  0  0  0  0  0  0  0  0
    0.5104    0.8989   -1.9819 H   0  0  0  0  0  0  0  0  0  0  0  0
   -1.9328    1.1452   -1.8322 H   0  0  0  0  0  0  0  0  0  0  0  0
   -3.1409    0.3597    0.1800 H   0  0  0  0  0  0  0  0  0  0  0  0
   -1.8736   -0.6702    2.0398 H   0  0  0  0  0  0  0  0  0  0  0  0
    0.5695   -0.9141    1.8849 H   0  0  0  0  0  0  0  0  0  0  0  0
  1  2  1  0
  1  8  1  0
  1  9  1  0
  1 10  1  0
  2  3  2  0
  2  7  1  0
  3  4  1  0
  3 11  1  0
  4  5  2  0
  4 12  1  0
  5  6  1  0
  5 13  1  0
  6  7  2  0
  6 14  1  0
  7 15  1  0
M  END
>  <reaction>  (3) 
rxn_1403

>  <mol_properties>  (3) 
{"0": {"label": "a_hydrogen", "atom_type": "H0"}, "1": {"label": "acceptor", "atom_type": "Cs"}}

>  <type>  (3) 
r2h

$$$$

     RDKit          3D

 26 25  0  0  0  0  0  0  0  0999 V2000
   -0.9958    3.3455   -0.9846 C   0  0  0  0  0  0  0  0  0  0  0  0
   -1.0773    2.1764   -1.2420 C   0  0  0  0  0  0  0  0  0  0  0  0
   -1.1135    0.7595   -1.4934 C   0  0  0  0  0  0  0  0  0  0  0  0
   -1.9196   -0.0486   -0.4850 C   0  0  0  0  0  0  0  0  0  0  0  0
   -1.3097    0.3912   -2.8710 C   0  0  0  0  0  0  0  0  0  0  0  0
   -1.4354    0.0348   -4.0097 C   0  0  0  0  0  0  0  0  0  0  0  0
   -0.9453    4.3861   -0.7718 H   0  0  0  0  0  0  0  0  0  0  0  0
    0.1140    0.3853   -1.2345 H   0  0  0  0  0  0  0  0  0  0  0  0
   -2.9828    0.1824   -0.5695 H   0  0  0  0  0  0  0  0  0  0  0  0
   -1.5887    0.1837    0.5273 H   0  0  0  0  0  0  0  0  0  0  0  0
   -1.7787   -1.1143   -0.6647 H   0  0  0  0  0  0  0  0  0  0  0  0
   -1.5599   -0.2657   -5.0220 H   0  0  0  0  0  0  0  0  0  0  0  0
    1.3998    0.0243   -0.8335 C   0  0  0  0  0  0  0  0  0  0  0  0
    1.2879   -0.2500    0.5865 C   0  0  0  0  0  0  0  0  0  0  0  0
    1.0737   -1.5520    1.0571 C   0  0  0  0  0  3  0  0  0  0  0  0
    0.8897   -1.7988    2.4049 C   0  0  0  0  0  0  0  0  0  0  0  0
    0.9090   -0.7512    3.3167 C   0  0  0  0  0  0  0  0  0  0  0  0
    1.1191    0.5460    2.8670 C   0  0  0  0  0  0  0  0  0  0  0  0
    1.3060    0.7951    1.5198 C   0  0  0  0  0  0  0  0  0  0  0  0
    1.5955   -0.8194   -1.4886 H   0  0  0  0  0  0  0  0  0  0  0  0
    1.9067    0.9410   -1.1208 H   0  0  0  0  0  0  0  0  0  0  0  0
    1.0526   -2.3726    0.3493 H   0  0  0  0  0  0  0  0  0  0  0  0
    0.7295   -2.8129    2.7491 H   0  0  0  0  0  0  0  0  0  0  0  0
    0.7633   -0.9449    4.3717 H   0  0  0  0  0  0  0  0  0  0  0  0
    1.1360    1.3671    3.5726 H   0  0  0  0  0  0  0  0  0  0  0  0
    1.4584    1.8097    1.1711 H   0  0  0  0  0  0  0  0  0  0  0  0
  1  2  3  0
  1  7  1  0
  2  3  1  0
  3  4  1  0
  3  5  1  0
  3  8  1  0
  4  9  1  0
  4 10  1  0
  4 11  1  0
  5  6  3  0
  6 12  1  0
 13 14  2  3
 13 20  1  0
 13 21  1  0
 14 15  1  0
 14 19  1  0
 15 16  1  0
 15 22  1  0
 16 17  2  0
 16 23  1  0
 17 18  1  0
 17 24  1  0
 18 19  2  0
 18 25  1  0
 19 26  1  0
M  RAD  1  15   2
M  END
>  <reaction>  (4) 
rxn_1403

>  <mol_properties>  (4) 
{"1": {"label": "*0", "atom_type": "Ct"}, "2": {"label": "*1", "atom_type": "Cs"}, "7": {"label": "*2", "atom_type": "H0"}, "12": {"label": "*3", "atom_type": "Cd"}, "13": {"label": "*4", "atom_type": "Cd"}}

>  <type>  (4) 
ts

$$$$
