
     RDKit          3D

 13 12  0  0  0  0  0  0  0  0999 V2000
    3.0977   -0.3549   -0.5105 C   0  0  0  0  0  0  0  0  0  0  0  0
    2.0556    0.4221   -0.2627 C   0  0  0  0  0  0  0  0  0  0  0  0
    0.6313   -0.0354   -0.2366 C   0  0  0  0  0  0  0  0  0  0  0  0
   -0.2567    0.6038   -1.2694 C   0  0  0  0  0  0  0  0  0  0  0  0
    0.1459    1.3456   -2.2891 C   0  0  0  0  0  0  0  0  0  0  0  0
    4.1081    0.0344   -0.5074 H   0  0  0  0  0  0  0  0  0  0  0  0
    2.9777   -1.4116   -0.7243 H   0  0  0  0  0  0  0  0  0  0  0  0
    2.2171    1.4781   -0.0618 H   0  0  0  0  0  0  0  0  0  0  0  0
    0.5865   -1.1233   -0.3540 H   0  0  0  0  0  0  0  0  0  0  0  0
    0.2065    0.1743    0.7521 H   0  0  0  0  0  0  0  0  0  0  0  0
   -1.3190    0.4126   -1.1445 H   0  0  0  0  0  0  0  0  0  0  0  0
    1.1948    1.5564   -2.4628 H   0  0  0  0  0  0  0  0  0  0  0  0
   -0.5644    1.7621   -2.9918 H   0  0  0  0  0  0  0  0  0  0  0  0
  1  2  2  3
  1  6  1  0
  1  7  1  0
  2  3  1  0
  2  8  1  0
  3  4  1  0
  3  9  1  0
  3 10  1  0
  4  5  2  3
  4 11  1  0
  5 12  1  0
  5 13  1  0
M  END
>  <reaction>  (1) 
rxn_1138

>  <mol_properties>  (1) 
{"2": {"label": "donator", "atom_type": "Cs"}, "8": {"label": "d_hydrogen", "atom_type": "H0"}}

>  <type>  (1) 
r1h

$$$$

     RDKit          3D

 11 10  0  0  0  0  0  0  0  0999 V2000
   -0.9580    1.1013   -2.2955 C   0  0  0  0  0  0  0  0  0  0  0  0
   -0.5129    0.5941   -1.2929 C   0  0  0  0  0  0  0  0  0  0  0  0
   -0.0301   -0.0160   -0.1357 C   0  0  0  0  0  3  0  0  0  0  0  0
   -0.6593   -1.2845    0.3661 C   0  0  0  0  0  0  0  0  0  0  0  0
    1.0691    0.5292    0.5269 C   0  0  0  0  0  0  0  0  0  0  0  0
    2.0168    0.9794    1.1266 C   0  0  0  0  0  0  0  0  0  0  0  0
   -1.3415    1.5561   -3.1769 H   0  0  0  0  0  0  0  0  0  0  0  0
   -1.7166   -1.3186    0.1054 H   0  0  0  0  0  0  0  0  0  0  0  0
   -0.1742   -2.1550   -0.0865 H   0  0  0  0  0  0  0  0  0  0  0  0
   -0.5505   -1.3663    1.4470 H   0  0  0  0  0  0  0  0  0  0  0  0
    2.8514    1.3842    1.6465 H   0  0  0  0  0  0  0  0  0  0  0  0
  1  2  3  0
  1  7  1  0
  2  3  1  0
  3  4  1  0
  3  5  1  0
  4  8  1  0
  4  9  1  0
  4 10  1  0
  5  6  3  0
  6 11  1  0
M  RAD  1   3   2
M  END
>  <reaction>  (2) 
rxn_1138

>  <mol_properties>  (2) 
{"2": {"label": "acceptor", "atom_type": "Cs"}}

>  <type>  (2) 
r2

$$$$

     RDKit          3D

 12 11  0  0  0  0  0  0  0  0999 V2000
    2.1696    0.6854    1.1310 C   0  0  0  0  0  0  0  0  0  0  0  0
    1.2518    0.4145    0.4134 C   0  0  0  0  0  0  0  0  0  0  0  0
    0.1391    0.0443   -0.4683 C   0  0  0  0  0  0  0  0  0  0  0  0
   -0.2054   -1.4492   -0.3339 C   0  0  0  0  0  0  0  0  0  0  0  0
   -1.0375    0.8853   -0.2222 C   0  0  0  0  0  0  0  0  0  0  0  0
   -2.0160    1.5463   -0.0311 C   0  0  0  0  0  0  0  0  0  0  0  0
    2.9819    0.9356    1.7702 H   0  0  0  0  0  0  0  0  0  0  0  0
    0.4629    0.2285   -1.4981 H   0  0  0  0  0  0  0  0  0  0  0  0
   -0.5327   -1.6703    0.6812 H   0  0  0  0  0  0  0  0  0  0  0  0
    0.6727   -2.0535   -0.5593 H   0  0  0  0  0  0  0  0  0  0  0  0
   -1.0064   -1.7081   -1.0256 H   0  0  0  0  0  0  0  0  0  0  0  0
   -2.8802    2.1413    0.1426 H   0  0  0  0  0  0  0  0  0  0  0  0
  1  2  3  0
  1  7  1  0
  2  3  1  0
  3  4  1  0
  3  5  1  0
  3  8  1  0
  4  9  1  0
  4 10  1  0
  4 11  1  0
  5  6  3  0
  6 12  1  0
M  END
>  <reaction>  (3) 
rxn_1138

>  <mol_properties>  (3) 
{"2": {"label": "acceptor", "atom_type": "Cs"}, "11": {"label": "a_hydrogen", "atom_type": "H0"}}

>  <type>  (3) 
r2h

$$$$

     RDKit          3D

 24 22  0  0  0  0  0  0  0  0999 V2000
   -2.6052    1.2954   -1.3279 C   0  0  0  0  0  0  0  0  0  0  0  0
   -1.4908    1.3194   -0.8804 C   0  0  0  0  0  0  0  0  0  0  0  0
   -0.1610    1.2713   -0.3550 C   0  0  0  0  0  3  0  0  0  0  0  0
    0.9621    1.1848   -1.3731 C   0  0  0  0  0  0  0  0  0  0  0  0
    0.0914    2.0860    0.7945 C   0  0  0  0  0  0  0  0  0  0  0  0
    0.3413    2.7155    1.7864 C   0  0  0  0  0  0  0  0  0  0  0  0
   -3.5914    1.2960   -1.7253 H   0  0  0  0  0  0  0  0  0  0  0  0
    0.7341    0.4131   -2.1084 H   0  0  0  0  0  0  0  0  0  0  0  0
    1.0885    2.1360   -1.8937 H   0  0  0  0  0  0  0  0  0  0  0  0
    1.8971    0.9357   -0.8702 H   0  0  0  0  0  0  0  0  0  0  0  0
    0.5530    3.2937    2.6533 H   0  0  0  0  0  0  0  0  0  0  0  0
   -1.0383   -2.4664   -1.2623 C   0  0  0  0  0  0  0  0  0  0  0  0
    0.0434   -2.0500   -0.6044 C   0  0  0  0  0  0  0  0  0  0  0  0
   -0.0035   -1.2494    0.6164 C   0  0  0  0  0  0  0  0  0  0  0  0
    1.1375   -1.1756    1.5308 C   0  0  0  0  0  0  0  0  0  0  0  0
    2.3759   -1.6207    1.3118 C   0  0  0  0  0  0  0  0  0  0  0  0
   -0.9569   -3.0259   -2.1848 H   0  0  0  0  0  0  0  0  0  0  0  0
   -2.0367   -2.2575   -0.8950 H   0  0  0  0  0  0  0  0  0  0  0  0
    1.0213   -2.2690   -1.0209 H   0  0  0  0  0  0  0  0  0  0  0  0
   -0.0991   -0.0017    0.1751 H   0  0  0  0  0  0  0  0  0  0  0  0
   -0.9707   -1.2686    1.1184 H   0  0  0  0  0  0  0  0  0  0  0  0
    0.9381   -0.6559    2.4626 H   0  0  0  0  0  0  0  0  0  0  0  0
    2.6568   -2.1510    0.4104 H   0  0  0  0  0  0  0  0  0  0  0  0
    3.1528   -1.4750    2.0506 H   0  0  0  0  0  0  0  0  0  0  0  0
  1  2  3  0
  1  7  1  0
  2  3  1  0
  3  4  1  0
  3  5  1  0
  4  8  1  0
  4  9  1  0
  4 10  1  0
  5  6  3  0
  6 11  1  0
 12 13  2  3
 12 17  1  0
 12 18  1  0
 13 14  1  0
 13 19  1  0
 14 15  1  0
 14 20  1  0
 14 21  1  0
 15 16  2  3
 15 22  1  0
 16 23  1  0
 16 24  1  0
M  RAD  1   3   2
M  END
>  <reaction>  (4) 
rxn_1138

>  <mol_properties>  (4) 
{"1": {"label": "*4", "atom_type": "Ct"}, "2": {"label": "*3", "atom_type": "Cs"}, "12": {"label": "*0", "atom_type": "Cd"}, "13": {"label": "*1", "atom_type": "Cs"}, "19": {"label": "*2", "atom_type": "H0"}}

>  <type>  (4) 
ts

$$$$
