
     RDKit          3D

  9  8  0  0  0  0  0  0  0  0999 V2000
    1.1303   -0.2933   -0.7510 C   0  0  0  0  0  0  0  0  0  0  0  0
    0.2866    0.4560   -0.0588 C   0  0  0  0  0  0  0  0  0  0  0  0
   -0.9719   -0.0331    0.5823 C   0  0  0  0  0  0  0  0  0  0  0  0
    2.0274    0.1230   -1.1916 H   0  0  0  0  0  0  0  0  0  0  0  0
    0.9532   -1.3530   -0.9023 H   0  0  0  0  0  0  0  0  0  0  0  0
    0.5065    1.5132    0.0659 H   0  0  0  0  0  0  0  0  0  0  0  0
   -0.9526    0.1426    1.6610 H   0  0  0  0  0  0  0  0  0  0  0  0
   -1.1182   -1.1002    0.4106 H   0  0  0  0  0  0  0  0  0  0  0  0
   -1.8412    0.5010    0.1901 H   0  0  0  0  0  0  0  0  0  0  0  0
  1  2  2  3
  1  4  1  0
  1  5  1  0
  2  3  1  0
  2  6  1  0
  3  7  1  0
  3  8  1  0
  3  9  1  0
M  END
>  <reaction>  (1) 
rxn_740

>  <mol_properties>  (1) 
{"2": {"label": "donator", "atom_type": "Cs"}, "6": {"label": "d_hydrogen", "atom_type": "H0"}}

>  <type>  (1) 
r1h

$$$$

     RDKit          3D

 24 25  0  0  0  0  0  0  0  0999 V2000
   -2.3462    0.0587    0.4026 C   0  0  0  0  0  3  0  0  0  0  0  0
   -1.9216   -0.8977   -0.6619 C   0  0  0  0  0  0  0  0  0  0  0  0
   -0.4224   -0.6048   -0.8347 C   0  0  0  0  0  0  0  0  0  0  0  0
    0.4246   -1.4411    0.1277 C   0  0  0  0  0  0  0  0  0  0  0  0
    1.8615   -0.9403    0.2199 C   0  0  0  0  0  0  0  0  0  0  0  0
    1.8962    0.5175    0.6671 C   0  0  0  0  0  0  0  0  0  0  0  0
    1.1011    1.4007   -0.2911 C   0  0  0  0  0  0  0  0  0  0  0  0
   -0.3231    0.9028   -0.5260 C   0  0  0  0  0  0  0  0  0  0  0  0
   -1.3110    1.1041    0.6384 C   0  0  0  0  0  0  0  0  0  0  0  0
   -3.2900    0.0057    0.9268 H   0  0  0  0  0  0  0  0  0  0  0  0
   -2.1170   -1.9442   -0.4050 H   0  0  0  0  0  0  0  0  0  0  0  0
   -2.4616   -0.7093   -1.6016 H   0  0  0  0  0  0  0  0  0  0  0  0
   -0.0868   -0.8050   -1.8562 H   0  0  0  0  0  0  0  0  0  0  0  0
   -0.0273   -1.4106    1.1258 H   0  0  0  0  0  0  0  0  0  0  0  0
    0.4005   -2.4873   -0.1884 H   0  0  0  0  0  0  0  0  0  0  0  0
    2.4341   -1.5641    0.9101 H   0  0  0  0  0  0  0  0  0  0  0  0
    2.3441   -1.0297   -0.7603 H   0  0  0  0  0  0  0  0  0  0  0  0
    1.4821    0.5910    1.6781 H   0  0  0  0  0  0  0  0  0  0  0  0
    2.9265    0.8752    0.7283 H   0  0  0  0  0  0  0  0  0  0  0  0
    1.0758    2.4318    0.0723 H   0  0  0  0  0  0  0  0  0  0  0  0
    1.6246    1.4246   -1.2529 H   0  0  0  0  0  0  0  0  0  0  0  0
   -0.7335    1.4393   -1.3877 H   0  0  0  0  0  0  0  0  0  0  0  0
   -0.8124    0.9625    1.6085 H   0  0  0  0  0  0  0  0  0  0  0  0
   -1.7184    2.1202    0.6602 H   0  0  0  0  0  0  0  0  0  0  0  0
  1  2  1  0
  1  9  1  0
  1 10  1  0
  2  3  1  0
  2 11  1  0
  2 12  1  0
  3  4  1  0
  3  8  1  0
  3 13  1  0
  4  5  1  0
  4 14  1  0
  4 15  1  0
  5  6  1  0
  5 16  1  0
  5 17  1  0
  6  7  1  0
  6 18  1  0
  6 19  1  0
  7  8  1  0
  7 20  1  0
  7 21  1  0
  8  9  1  0
  8 22  1  0
  9 23  1  0
  9 24  1  0
M  RAD  1   1   2
M  END
>  <reaction>  (2) 
rxn_740

>  <mol_properties>  (2) 
{"0": {"label": "acceptor", "atom_type": "Cs"}}

>  <type>  (2) 
r2

$$$$

     RDKit          3D

 25 26  0  0  0  0  0  0  0  0999 V2000
    2.0298   -1.1515    0.0571 C   0  0  0  0  0  0  0  0  0  0  0  0
    2.2278    0.2445    0.6528 C   0  0  0  0  0  0  0  0  0  0  0  0
    1.2292    1.2625    0.0947 C   0  0  0  0  0  0  0  0  0  0  0  0
   -0.1869    0.7454    0.2762 C   0  0  0  0  0  0  0  0  0  0  0  0
   -1.3415    1.5501   -0.3122 C   0  0  0  0  0  0  0  0  0  0  0  0
   -2.5060    0.5338   -0.4178 C   0  0  0  0  0  0  0  0  0  0  0  0
   -1.8709   -0.8658   -0.2234 C   0  0  0  0  0  0  0  0  0  0  0  0
   -0.3715   -0.6265   -0.3693 C   0  0  0  0  0  0  0  0  0  0  0  0
    0.5898   -1.6500    0.2086 C   0  0  0  0  0  0  0  0  0  0  0  0
    2.2820   -1.1226   -1.0088 H   0  0  0  0  0  0  0  0  0  0  0  0
    2.7243   -1.8549    0.5221 H   0  0  0  0  0  0  0  0  0  0  0  0
    2.1030    0.1885    1.7400 H   0  0  0  0  0  0  0  0  0  0  0  0
    3.2514    0.5819    0.4743 H   0  0  0  0  0  0  0  0  0  0  0  0
    1.3611    2.2304    0.5855 H   0  0  0  0  0  0  0  0  0  0  0  0
    1.4198    1.4194   -0.9737 H   0  0  0  0  0  0  0  0  0  0  0  0
   -0.3675    0.6209    1.3539 H   0  0  0  0  0  0  0  0  0  0  0  0
   -1.5992    2.4249    0.2862 H   0  0  0  0  0  0  0  0  0  0  0  0
   -1.0595    1.9116   -1.3055 H   0  0  0  0  0  0  0  0  0  0  0  0
   -3.2666    0.7244    0.3399 H   0  0  0  0  0  0  0  0  0  0  0  0
   -3.0030    0.6112   -1.3853 H   0  0  0  0  0  0  0  0  0  0  0  0
   -2.2549   -1.6039   -0.9288 H   0  0  0  0  0  0  0  0  0  0  0  0
   -2.0796   -1.2429    0.7821 H   0  0  0  0  0  0  0  0  0  0  0  0
   -0.1432   -0.5121   -1.4391 H   0  0  0  0  0  0  0  0  0  0  0  0
    0.4720   -2.6209   -0.2799 H   0  0  0  0  0  0  0  0  0  0  0  0
    0.3601   -1.7986    1.2704 H   0  0  0  0  0  0  0  0  0  0  0  0
  1  2  1  0
  1  9  1  0
  1 10  1  0
  1 11  1  0
  2  3  1  0
  2 12  1  0
  2 13  1  0
  3  4  1  0
  3 14  1  0
  3 15  1  0
  4  5  1  0
  4  8  1  0
  4 16  1  0
  5  6  1  0
  5 17  1  0
  5 18  1  0
  6  7  1  0
  6 19  1  0
  6 20  1  0
  7  8  1  0
  7 21  1  0
  7 22  1  0
  8  9  1  0
  8 23  1  0
  9 24  1  0
  9 25  1  0
M  END
>  <reaction>  (3) 
rxn_740

>  <mol_properties>  (3) 
{"0": {"label": "a_hydrogen", "atom_type": "H0"}, "1": {"label": "acceptor", "atom_type": "Cs"}}

>  <type>  (3) 
r2h

$$$$

     RDKit          3D

 33 33  0  0  0  0  0  0  0  0999 V2000
    1.6014   -0.8909   -2.5072 C   0  0  0  0  0  0  0  0  0  0  0  0
    2.5957   -0.4963   -1.7046 C   0  0  0  0  0  0  0  0  0  0  0  0
    2.7900    0.8582   -1.2085 C   0  0  0  0  0  0  0  0  0  0  0  0
    1.4937   -1.9244   -2.8092 H   0  0  0  0  0  0  0  0  0  0  0  0
    0.8741   -0.1846   -2.8934 H   0  0  0  0  0  0  0  0  0  0  0  0
    3.2995   -1.2462   -1.3528 H   0  0  0  0  0  0  0  0  0  0  0  0
    2.2360    0.9503   -0.0242 H   0  0  0  0  0  0  0  0  0  0  0  0
    2.2594    1.6306   -1.7633 H   0  0  0  0  0  0  0  0  0  0  0  0
    3.8207    1.1349   -0.9992 H   0  0  0  0  0  0  0  0  0  0  0  0
    1.5218    1.0367    1.1589 C   0  0  0  0  0  3  0  0  0  0  0  0
    1.1020   -0.4002    1.4338 C   0  0  0  0  0  0  0  0  0  0  0  0
   -0.4170   -0.3967    1.2254 C   0  0  0  0  0  0  0  0  0  0  0  0
   -1.0860   -1.6689    0.7366 C   0  0  0  0  0  0  0  0  0  0  0  0
   -2.5807   -1.4124    0.5220 C   0  0  0  0  0  0  0  0  0  0  0  0
   -2.8444   -0.2131   -0.3927 C   0  0  0  0  0  0  0  0  0  0  0  0
   -2.1225    1.0534    0.0787 C   0  0  0  0  0  0  0  0  0  0  0  0
   -0.6444    0.7559    0.2459 C   0  0  0  0  0  0  0  0  0  0  0  0
    0.2883    1.8358    0.7828 C   0  0  0  0  0  0  0  0  0  0  0  0
    2.2405    1.4980    1.8315 H   0  0  0  0  0  0  0  0  0  0  0  0
    1.5753   -1.0849    0.7187 H   0  0  0  0  0  0  0  0  0  0  0  0
    1.3898   -0.7392    2.4310 H   0  0  0  0  0  0  0  0  0  0  0  0
   -0.8899   -0.1069    2.1744 H   0  0  0  0  0  0  0  0  0  0  0  0
   -0.6194   -1.9752   -0.2070 H   0  0  0  0  0  0  0  0  0  0  0  0
   -0.9418   -2.4887    1.4455 H   0  0  0  0  0  0  0  0  0  0  0  0
   -3.0620   -2.3028    0.1110 H   0  0  0  0  0  0  0  0  0  0  0  0
   -3.0485   -1.2266    1.4954 H   0  0  0  0  0  0  0  0  0  0  0  0
   -2.4999   -0.4554   -1.4042 H   0  0  0  0  0  0  0  0  0  0  0  0
   -3.9193   -0.0319   -0.4646 H   0  0  0  0  0  0  0  0  0  0  0  0
   -2.2835    1.8668   -0.6337 H   0  0  0  0  0  0  0  0  0  0  0  0
   -2.5380    1.3829    1.0384 H   0  0  0  0  0  0  0  0  0  0  0  0
   -0.2493    0.4331   -0.7269 H   0  0  0  0  0  0  0  0  0  0  0  0
    0.4994    2.6299    0.0620 H   0  0  0  0  0  0  0  0  0  0  0  0
   -0.1546    2.3117    1.6672 H   0  0  0  0  0  0  0  0  0  0  0  0
  1  2  2  3
  1  4  1  0
  1  5  1  0
  2  3  1  0
  2  6  1  0
  3  7  1  0
  3  8  1  0
  3  9  1  0
 10 11  1  0
 10 18  1  0
 10 19  1  0
 11 12  1  0
 11 20  1  0
 11 21  1  0
 12 13  1  0
 12 17  1  0
 12 22  1  0
 13 14  1  0
 13 23  1  0
 13 24  1  0
 14 15  1  0
 14 25  1  0
 14 26  1  0
 15 16  1  0
 15 27  1  0
 15 28  1  0
 16 17  1  0
 16 29  1  0
 16 30  1  0
 17 18  1  0
 17 31  1  0
 18 32  1  0
 18 33  1  0
M  RAD  1  10   2
M  END
>  <reaction>  (4) 
rxn_740

>  <mol_properties>  (4) 
{"1": {"label": "*0", "atom_type": "Cd"}, "2": {"label": "*1", "atom_type": "Cs"}, "6": {"label": "*2", "atom_type": "H0"}, "9": {"label": "*3", "atom_type": "Cs"}, "17": {"label": "*4", "atom_type": "Cs"}}

>  <type>  (4) 
ts

$$$$
