
     RDKit          3D

 10  9  0  0  0  0  0  0  0  0999 V2000
   -1.3430   -0.0068    0.1802 C   0  0  0  0  0  0  0  0  0  0  0  0
    0.0800   -0.1753   -0.3125 C   0  0  0  0  0  0  0  0  0  0  0  0
    0.4144    0.6817   -1.3880 O   0  0  0  0  0  0  0  0  0  0  0  0
    0.4868    2.0101   -0.8782 O   0  0  0  0  0  0  0  0  0  0  0  0
   -2.0531   -0.1437   -0.6372 H   0  0  0  0  0  0  0  0  0  0  0  0
   -1.5603   -0.7484    0.9509 H   0  0  0  0  0  0  0  0  0  0  0  0
   -1.4899    0.9815    0.6164 H   0  0  0  0  0  0  0  0  0  0  0  0
    0.2328   -1.1698   -0.7380 H   0  0  0  0  0  0  0  0  0  0  0  0
    0.8000   -0.0345    0.4993 H   0  0  0  0  0  0  0  0  0  0  0  0
   -0.2791    2.4184   -1.2952 H   0  0  0  0  0  0  0  0  0  0  0  0
  1  2  1  0
  1  5  1  0
  1  6  1  0
  1  7  1  0
  2  3  1  0
  2  8  1  0
  2  9  1  0
  3  4  1  0
  4 10  1  0
M  END
>  <reaction>  (1) 
rxn_460

>  <mol_properties>  (1) 
{"3": {"label": "donator", "atom_type": "O2s"}, "9": {"label": "d_hydrogen", "atom_type": "H0"}}

>  <type>  (1) 
r1h

$$$$

     RDKit          3D

  6  5  0  0  0  0  0  0  0  0999 V2000
   -0.7133   -0.0465   -0.1138 C   0  0  0  0  0  0  0  0  0  0  0  0
    0.6837    0.0990    0.1040 C   0  0  0  0  0  0  0  0  0  0  0  0
    1.4284   -0.8504    0.3164 O   0  0  0  0  0  1  0  0  0  0  0  0
   -1.3425    0.8143   -0.2988 H   0  0  0  0  0  0  0  0  0  0  0  0
   -1.1519   -1.0358   -0.0939 H   0  0  0  0  0  0  0  0  0  0  0  0
    1.0889    1.1261    0.0750 H   0  0  0  0  0  0  0  0  0  0  0  0
  1  2  2  3
  1  4  1  0
  1  5  1  0
  2  3  1  0
  2  6  1  0
M  RAD  1   3   2
M  END
>  <reaction>  (2) 
rxn_460

>  <mol_properties>  (2) 
{"0": {"label": "acceptor", "atom_type": "Cs"}}

>  <type>  (2) 
r2

$$$$

     RDKit          3D

  7  6  0  0  0  0  0  0  0  0999 V2000
   -0.6468   -0.0443   -0.0231 C   0  0  0  0  0  0  0  0  0  0  0  0
    0.8470    0.0371    0.0688 C   0  0  0  0  0  0  0  0  0  0  0  0
    1.4866   -0.2280    1.0479 O   0  0  0  0  0  0  0  0  0  0  0  0
   -1.0466    0.9363   -0.2943 H   0  0  0  0  0  0  0  0  0  0  0  0
   -0.9229   -0.7318   -0.8269 H   0  0  0  0  0  0  0  0  0  0  0  0
   -1.0759   -0.3772    0.9198 H   0  0  0  0  0  0  0  0  0  0  0  0
    1.3584    0.3712   -0.8589 H   0  0  0  0  0  0  0  0  0  0  0  0
  1  2  1  0
  1  4  1  0
  1  5  1  0
  1  6  1  0
  2  3  2  0
  2  7  1  0
M  END
>  <reaction>  (3) 
rxn_460

>  <mol_properties>  (3) 
{"0": {"label": "a_hydrogen", "atom_type": "H0"}, "1": {"label": "acceptor", "atom_type": "Cs"}}

>  <type>  (3) 
r2h

$$$$

     RDKit          3D

 16 14  0  0  0  0  0  0  0  0999 V2000
    0.9835   -1.7447   -0.1966 C   0  0  0  0  0  0  0  0  0  0  0  0
    0.3757   -1.9296    1.1768 C   0  0  0  0  0  0  0  0  0  0  0  0
    0.1006   -0.6952    1.8420 O   0  0  0  0  0  0  0  0  0  0  0  0
   -1.0243   -0.1210    1.3196 O   0  0  0  0  0  0  0  0  0  0  0  0
    1.8974   -1.1514   -0.1391 H   0  0  0  0  0  0  0  0  0  0  0  0
    1.2390   -2.7213   -0.6113 H   0  0  0  0  0  0  0  0  0  0  0  0
    0.2917   -1.2618   -0.8864 H   0  0  0  0  0  0  0  0  0  0  0  0
    1.0741   -2.4221    1.8557 H   0  0  0  0  0  0  0  0  0  0  0  0
   -0.5470   -2.5119    1.1360 H   0  0  0  0  0  0  0  0  0  0  0  0
   -0.6871    0.6426    0.5426 H   0  0  0  0  0  0  0  0  0  0  0  0
   -0.2500    1.5895   -0.3820 C   0  0  0  0  0  0  0  0  0  0  0  0
   -1.0537    1.2812   -1.5612 C   0  0  0  0  0  0  0  0  0  0  0  0
   -0.6923    0.5383   -2.4456 O   0  0  0  0  0  1  0  0  0  0  0  0
   -0.4913    2.5002    0.1582 H   0  0  0  0  0  0  0  0  0  0  0  0
    0.8014    1.3227   -0.4352 H   0  0  0  0  0  0  0  0  0  0  0  0
   -2.0538    1.7532   -1.6019 H   0  0  0  0  0  0  0  0  0  0  0  0
  1  2  1  0
  1  5  1  0
  1  6  1  0
  1  7  1  0
  2  3  1  0
  2  8  1  0
  2  9  1  0
  3  4  1  0
  4 10  1  0
 11 12  2  3
 11 14  1  0
 11 15  1  0
 12 13  1  0
 12 16  1  0
M  RAD  1  13   2
M  END
>  <reaction>  (4) 
rxn_460

>  <mol_properties>  (4) 
{"2": {"label": "*0", "atom_type": "O2s"}, "3": {"label": "*1", "atom_type": "O2s"}, "9": {"label": "*2", "atom_type": "H0"}, "10": {"label": "*3", "atom_type": "Cd"}, "11": {"label": "*4", "atom_type": "Cd"}}

>  <type>  (4) 
ts

$$$$
