
     RDKit          3D

 18 18  0  0  0  0  0  0  0  0999 V2000
   -2.4852    0.3210   -0.3966 C   0  0  0  0  0  0  0  0  0  0  0  0
   -1.5917   -0.2708    0.6941 C   0  0  0  0  0  0  0  0  0  0  0  0
   -0.1292   -0.1692    0.3493 C   0  0  0  0  0  0  0  0  0  0  0  0
    0.6099    0.9558    0.7015 C   0  0  0  0  0  0  0  0  0  0  0  0
    1.9447    1.0728    0.3458 C   0  0  0  0  0  0  0  0  0  0  0  0
    2.5646    0.0613   -0.3720 C   0  0  0  0  0  0  0  0  0  0  0  0
    1.8399   -1.0657   -0.7287 C   0  0  0  0  0  0  0  0  0  0  0  0
    0.5055   -1.1769   -0.3700 C   0  0  0  0  0  0  0  0  0  0  0  0
   -2.3325   -0.1971   -1.3452 H   0  0  0  0  0  0  0  0  0  0  0  0
   -2.2554    1.3763   -0.5546 H   0  0  0  0  0  0  0  0  0  0  0  0
   -3.5397    0.2376   -0.1280 H   0  0  0  0  0  0  0  0  0  0  0  0
   -1.7801    0.2462    1.6380 H   0  0  0  0  0  0  0  0  0  0  0  0
   -1.8568   -1.3190    0.8516 H   0  0  0  0  0  0  0  0  0  0  0  0
    0.1327    1.7497    1.2656 H   0  0  0  0  0  0  0  0  0  0  0  0
    2.5033    1.9550    0.6330 H   0  0  0  0  0  0  0  0  0  0  0  0
    3.6077    0.1491   -0.6484 H   0  0  0  0  0  0  0  0  0  0  0  0
    2.3163   -1.8632   -1.2854 H   0  0  0  0  0  0  0  0  0  0  0  0
   -0.0540   -2.0629   -0.6500 H   0  0  0  0  0  0  0  0  0  0  0  0
  1  2  1  0
  1  9  1  0
  1 10  1  0
  1 11  1  0
  2  3  1  0
  2 12  1  0
  2 13  1  0
  3  4  2  0
  3  8  1  0
  4  5  1  0
  4 14  1  0
  5  6  2  0
  5 15  1  0
  6  7  1  0
  6 16  1  0
  7  8  2  0
  7 17  1  0
  8 18  1  0
M  END
>  <reaction>  (1) 
rxn_1512

>  <mol_properties>  (1) 
{"1": {"label": "donator", "atom_type": "Cs"}, "11": {"label": "d_hydrogen", "atom_type": "H0"}}

>  <type>  (1) 
r1h

$$$$

     RDKit          3D

 10  9  0  0  0  0  0  0  0  0999 V2000
   -1.2648    0.1959    0.8197 C   0  0  0  0  0  0  0  0  0  0  0  0
   -0.2805    0.0995   -0.3030 C   0  0  0  0  0  3  0  0  0  0  0  0
   -0.0444    1.1347   -1.1797 C   0  0  0  0  0  0  0  0  0  0  0  0
    0.1640    2.0467   -1.9525 C   0  0  0  0  0  0  0  0  0  0  0  0
    0.5686   -1.4168   -0.4488 S   0  0  0  0  0  0  0  0  0  0  0  0
   -2.0466   -0.5638    0.7258 H   0  0  0  0  0  0  0  0  0  0  0  0
   -0.7765    0.0454    1.7871 H   0  0  0  0  0  0  0  0  0  0  0  0
   -1.7371    1.1762    0.8222 H   0  0  0  0  0  0  0  0  0  0  0  0
    0.3433    2.8484   -2.6273 H   0  0  0  0  0  0  0  0  0  0  0  0
    1.3075   -1.0953   -1.5176 H   0  0  0  0  0  0  0  0  0  0  0  0
  1  2  1  0
  1  6  1  0
  1  7  1  0
  1  8  1  0
  2  3  1  0
  2  5  1  0
  3  4  3  0
  4  9  1  0
  5 10  1  0
M  RAD  1   2   2
M  END
>  <reaction>  (2) 
rxn_1512

>  <mol_properties>  (2) 
{"1": {"label": "acceptor", "atom_type": "Cs"}}

>  <type>  (2) 
r2

$$$$

     RDKit          3D

 11 10  0  0  0  0  0  0  0  0999 V2000
   -1.2582   -0.5130    0.2160 C   0  0  0  0  0  0  0  0  0  0  0  0
   -0.1109    0.0509   -0.6210 C   0  0  0  0  0  0  0  0  0  0  0  0
    1.1862   -0.2025   -0.0072 C   0  0  0  0  0  0  0  0  0  0  0  0
    2.2351   -0.4206    0.5274 C   0  0  0  0  0  0  0  0  0  0  0  0
   -0.3298    1.8272   -1.0120 S   0  0  0  0  0  0  0  0  0  0  0  0
   -1.2875   -0.0327    1.1945 H   0  0  0  0  0  0  0  0  0  0  0  0
   -2.2088   -0.3391   -0.2866 H   0  0  0  0  0  0  0  0  0  0  0  0
   -1.1220   -1.5854    0.3655 H   0  0  0  0  0  0  0  0  0  0  0  0
   -0.1222   -0.4181   -1.6078 H   0  0  0  0  0  0  0  0  0  0  0  0
    3.1729   -0.6098    0.9920 H   0  0  0  0  0  0  0  0  0  0  0  0
   -0.1942    2.2663    0.2466 H   0  0  0  0  0  0  0  0  0  0  0  0
  1  2  1  0
  1  6  1  0
  1  7  1  0
  1  8  1  0
  2  3  1  0
  2  5  1  0
  2  9  1  0
  3  4  3  0
  4 10  1  0
  5 11  1  0
M  END
>  <reaction>  (3) 
rxn_1512

>  <mol_properties>  (3) 
{"1": {"label": "acceptor", "atom_type": "Cs"}, "10": {"label": "a_hydrogen", "atom_type": "H0"}}

>  <type>  (3) 
r2h

$$$$

     RDKit          3D

 28 27  0  0  0  0  0  0  0  0999 V2000
   -1.3564   -1.2465    0.5112 C   0  0  0  0  0  0  0  0  0  0  0  0
   -0.0163   -1.8465    0.8843 C   0  0  0  0  0  0  0  0  0  0  0  0
    0.2319   -3.1733    0.4204 C   0  0  0  0  0  0  0  0  0  0  0  0
    0.4894   -4.2654   -0.0109 C   0  0  0  0  0  0  0  0  0  0  0  0
    0.3699   -1.5582    2.6171 S   0  0  0  0  0  0  0  0  0  0  0  0
   -2.1762   -1.7728    1.0051 H   0  0  0  0  0  0  0  0  0  0  0  0
   -1.3916   -0.1927    0.7915 H   0  0  0  0  0  0  0  0  0  0  0  0
   -1.5013   -1.3162   -0.5671 H   0  0  0  0  0  0  0  0  0  0  0  0
    0.7012   -5.2387   -0.3830 H   0  0  0  0  0  0  0  0  0  0  0  0
    1.4888   -2.2927    2.6514 H   0  0  0  0  0  0  0  0  0  0  0  0
    1.8784   -0.9972   -1.7888 C   0  0  0  0  0  0  0  0  0  0  0  0
    1.6392   -0.2434   -0.5087 C   0  0  0  0  0  0  0  0  0  0  0  0
    0.8992    1.0212   -0.5202 C   0  0  0  0  0  0  0  0  0  0  0  0
    0.1151    1.4225   -1.6065 C   0  0  0  0  0  3  0  0  0  0  0  0
   -0.6336    2.5865   -1.5520 C   0  0  0  0  0  0  0  0  0  0  0  0
   -0.6218    3.3766   -0.4122 C   0  0  0  0  0  0  0  0  0  0  0  0
    0.1550    2.9947    0.6743 C   0  0  0  0  0  0  0  0  0  0  0  0
    0.9053    1.8352    0.6201 C   0  0  0  0  0  0  0  0  0  0  0  0
    2.4685   -0.4070   -2.4970 H   0  0  0  0  0  0  0  0  0  0  0  0
    0.9413   -1.2648   -2.2818 H   0  0  0  0  0  0  0  0  0  0  0  0
    2.4145   -1.9248   -1.5898 H   0  0  0  0  0  0  0  0  0  0  0  0
    0.8429   -1.0760    0.2072 H   0  0  0  0  0  0  0  0  0  0  0  0
    2.4923   -0.2315    0.1688 H   0  0  0  0  0  0  0  0  0  0  0  0
    0.0919    0.8204   -2.5058 H   0  0  0  0  0  0  0  0  0  0  0  0
   -1.2307    2.8792   -2.4068 H   0  0  0  0  0  0  0  0  0  0  0  0
   -1.2091    4.2850   -0.3713 H   0  0  0  0  0  0  0  0  0  0  0  0
    0.1749    3.6060    1.5680 H   0  0  0  0  0  0  0  0  0  0  0  0
    1.5004    1.5361    1.4751 H   0  0  0  0  0  0  0  0  0  0  0  0
  1  2  1  0
  1  6  1  0
  1  7  1  0
  1  8  1  0
  2  3  1  0
  2  5  1  0
  2 22  1  0
  3  4  3  0
  4  9  1  0
  5 10  1  0
 11 12  1  0
 11 19  1  0
 11 20  1  0
 11 21  1  0
 12 13  2  3
 12 23  1  0
 13 14  1  0
 13 18  1  0
 14 15  1  0
 14 24  1  0
 15 16  2  0
 15 25  1  0
 16 17  1  0
 16 26  1  0
 17 18  2  0
 17 27  1  0
 18 28  1  0
M  RAD  1  14   2
M  END
>  <reaction>  (4) 
rxn_1512

>  <mol_properties>  (4) 
{"1": {"label": "*1", "atom_type": "Cs"}, "4": {"label": "*0", "atom_type": "S2s"}, "11": {"label": "*3", "atom_type": "Cd"}, "12": {"label": "*4", "atom_type": "Cd"}, "21": {"label": "*2", "atom_type": "H0"}}

>  <type>  (4) 
ts

$$$$
