
     RDKit          3D

 15 15  0  0  0  0  0  0  0  0999 V2000
    2.2031   -0.2111   -0.1693 C   0  0  0  0  0  0  0  0  0  0  0  0
    0.7140   -0.0314   -0.0623 C   0  0  0  0  0  0  0  0  0  0  0  0
   -0.0114    0.5491   -1.0982 C   0  0  0  0  0  0  0  0  0  0  0  0
   -1.3882    0.6886   -1.0150 C   0  0  0  0  0  0  0  0  0  0  0  0
   -2.0661    0.2493    0.1118 C   0  0  0  0  0  0  0  0  0  0  0  0
   -1.3551   -0.3278    1.1528 C   0  0  0  0  0  0  0  0  0  0  0  0
    0.0216   -0.4648    1.0642 C   0  0  0  0  0  0  0  0  0  0  0  0
    2.6776   -0.1836    0.8122 H   0  0  0  0  0  0  0  0  0  0  0  0
    2.4446   -1.1749   -0.6249 H   0  0  0  0  0  0  0  0  0  0  0  0
    2.6532    0.5664   -0.7875 H   0  0  0  0  0  0  0  0  0  0  0  0
    0.5104    0.8989   -1.9819 H   0  0  0  0  0  0  0  0  0  0  0  0
   -1.9328    1.1452   -1.8322 H   0  0  0  0  0  0  0  0  0  0  0  0
   -3.1409    0.3597    0.1800 H   0  0  0  0  0  0  0  0  0  0  0  0
   -1.8736   -0.6702    2.0398 H   0  0  0  0  0  0  0  0  0  0  0  0
    0.5695   -0.9141    1.8849 H   0  0  0  0  0  0  0  0  0  0  0  0
  1  2  1  0
  1  8  1  0
  1  9  1  0
  1 10  1  0
  2  3  2  0
  2  7  1  0
  3  4  1  0
  3 11  1  0
  4  5  2  0
  4 12  1  0
  5  6  1  0
  5 13  1  0
  6  7  2  0
  6 14  1  0
  7 15  1  0
M  END
>  <reaction>  (1) 
rxn_1476

>  <mol_properties>  (1) 
{"0": {"label": "donator", "atom_type": "Cs"}, "7": {"label": "d_hydrogen", "atom_type": "H0"}}

>  <type>  (1) 
r1h

$$$$

     RDKit          3D

  5  4  0  0  0  0  0  0  0  0999 V2000
    2.6313   -0.6921   -0.0583 S   0  0  0  0  0  0  0  0  0  0  0  0
    1.1354   -0.3285    0.0803 C   0  0  0  0  0  3  0  0  0  0  0  0
   -0.1320    0.0261    0.1834 C   0  0  0  0  0  0  0  0  0  0  0  0
   -1.3118    0.3357    0.2856 C   0  0  0  0  0  0  0  0  0  0  0  0
   -2.3230    0.6587    0.3557 H   0  0  0  0  0  0  0  0  0  0  0  0
  1  2  2  0
  2  3  1  0
  3  4  3  0
  4  5  1  0
M  RAD  1   2   2
M  END
>  <reaction>  (2) 
rxn_1476

>  <mol_properties>  (2) 
{"1": {"label": "acceptor", "atom_type": "CS"}}

>  <type>  (2) 
r2

$$$$

     RDKit          3D

  6  5  0  0  0  0  0  0  0  0999 V2000
   -1.9761    1.0978   -0.6585 S   0  0  0  0  0  0  0  0  0  0  0  0
   -1.0502    0.0275    0.1158 C   0  0  0  0  0  0  0  0  0  0  0  0
    0.3587   -0.0566   -0.0000 C   0  0  0  0  0  0  0  0  0  0  0  0
    1.5530   -0.1477   -0.0815 C   0  0  0  0  0  0  0  0  0  0  0  0
   -1.4972   -0.7045    0.7881 H   0  0  0  0  0  0  0  0  0  0  0  0
    2.6118   -0.2165   -0.1639 H   0  0  0  0  0  0  0  0  0  0  0  0
  1  2  2  0
  2  3  1  0
  2  5  1  0
  3  4  3  0
  4  6  1  0
M  END
>  <reaction>  (3) 
rxn_1476

>  <mol_properties>  (3) 
{"1": {"label": "acceptor", "atom_type": "CS"}, "5": {"label": "a_hydrogen", "atom_type": "H0"}}

>  <type>  (3) 
r2h

$$$$

     RDKit          3D

 20 19  0  0  0  0  0  0  0  0999 V2000
   -1.0784   -0.9912    3.3234 S   0  0  0  0  0  0  0  0  0  0  0  0
   -0.8426   -0.6865    1.7784 C   0  0  0  0  0  0  0  0  0  0  0  0
   -1.4773   -1.1399    0.6233 C   0  0  0  0  0  0  0  0  0  0  0  0
   -1.9323   -1.4481   -0.4484 C   0  0  0  0  0  0  0  0  0  0  0  0
   -2.3430   -1.7281   -1.3893 H   0  0  0  0  0  0  0  0  0  0  0  0
    1.0967    0.9999    0.9443 C   0  0  0  0  0  0  0  0  0  0  0  0
    0.9473    0.9744   -0.5034 C   0  0  0  0  0  0  0  0  0  0  0  0
    0.0707    1.8526   -1.1515 C   0  0  0  0  0  3  0  0  0  0  0  0
   -0.1311    1.7768   -2.5173 C   0  0  0  0  0  0  0  0  0  0  0  0
    0.5352    0.8193   -3.2705 C   0  0  0  0  0  0  0  0  0  0  0  0
    1.4103   -0.0582   -2.6440 C   0  0  0  0  0  0  0  0  0  0  0  0
    1.6126    0.0169   -1.2782 C   0  0  0  0  0  0  0  0  0  0  0  0
    0.1289    0.1544    1.4177 H   0  0  0  0  0  0  0  0  0  0  0  0
    1.9907    0.5342    1.3504 H   0  0  0  0  0  0  0  0  0  0  0  0
    0.8232    1.9242    1.4463 H   0  0  0  0  0  0  0  0  0  0  0  0
   -0.4567    2.5987   -0.5684 H   0  0  0  0  0  0  0  0  0  0  0  0
   -0.8113    2.4679   -2.9995 H   0  0  0  0  0  0  0  0  0  0  0  0
    0.3785    0.7614   -4.3401 H   0  0  0  0  0  0  0  0  0  0  0  0
    1.9374   -0.8045   -3.2253 H   0  0  0  0  0  0  0  0  0  0  0  0
    2.2928   -0.6745   -0.7944 H   0  0  0  0  0  0  0  0  0  0  0  0
  1  2  2  0
  2  3  1  0
  2 13  1  0
  3  4  3  0
  4  5  1  0
  6  7  2  3
  6 14  1  0
  6 15  1  0
  7  8  1  0
  7 12  1  0
  8  9  1  0
  8 16  1  0
  9 10  2  0
  9 17  1  0
 10 11  1  0
 10 18  1  0
 11 12  2  0
 11 19  1  0
 12 20  1  0
M  RAD  1   8   2
M  END
>  <reaction>  (4) 
rxn_1476

>  <mol_properties>  (4) 
{"0": {"label": "*0", "atom_type": "S2d"}, "1": {"label": "*1", "atom_type": "CS"}, "5": {"label": "*3", "atom_type": "Cd"}, "6": {"label": "*4", "atom_type": "Cd"}, "12": {"label": "*2", "atom_type": "H0"}}

>  <type>  (4) 
ts

$$$$
