
     RDKit          3D

 19 20  0  0  0  0  0  0  0  0999 V2000
    1.1087   -0.4716   -0.9619 C   0  0  0  0  0  0  0  0  0  0  0  0
    0.9355    1.0407   -0.6470 C   0  0  0  0  0  0  0  0  0  0  0  0
   -0.0085    1.0377    0.5657 C   0  0  0  0  0  0  0  0  0  0  0  0
   -1.4093    0.6181    0.0927 C   0  0  0  0  0  0  0  0  0  0  0  0
   -1.2361   -0.8942   -0.2222 C   0  0  0  0  0  0  0  0  0  0  0  0
    0.2422   -1.1516    0.1099 C   0  0  0  0  0  0  0  0  0  0  0  0
    0.4537   -0.2211    1.3118 C   0  0  0  0  0  0  0  0  0  0  0  0
    2.1524   -0.7752   -0.8653 H   0  0  0  0  0  0  0  0  0  0  0  0
    0.7855   -0.7316   -1.9710 H   0  0  0  0  0  0  0  0  0  0  0  0
    1.8918    1.5001   -0.3916 H   0  0  0  0  0  0  0  0  0  0  0  0
    0.5184    1.6005   -1.4855 H   0  0  0  0  0  0  0  0  0  0  0  0
    0.0038    1.9661    1.1351 H   0  0  0  0  0  0  0  0  0  0  0  0
   -1.7351    1.1944   -0.7746 H   0  0  0  0  0  0  0  0  0  0  0  0
   -2.1465    0.7723    0.8824 H   0  0  0  0  0  0  0  0  0  0  0  0
   -1.4680   -1.1377   -1.2601 H   0  0  0  0  0  0  0  0  0  0  0  0
   -1.8859   -1.5030    0.4087 H   0  0  0  0  0  0  0  0  0  0  0  0
    0.4812   -2.2025    0.2673 H   0  0  0  0  0  0  0  0  0  0  0  0
    1.4942   -0.1701    1.6391 H   0  0  0  0  0  0  0  0  0  0  0  0
   -0.1779   -0.4714    2.1666 H   0  0  0  0  0  0  0  0  0  0  0  0
  1  2  1  0
  1  6  1  0
  1  8  1  0
  1  9  1  0
  2  3  1  0
  2 10  1  0
  2 11  1  0
  3  4  1  0
  3  7  1  0
  3 12  1  0
  4  5  1  0
  4 13  1  0
  4 14  1  0
  5  6  1  0
  5 15  1  0
  5 16  1  0
  6  7  1  0
  6 17  1  0
  7 18  1  0
  7 19  1  0
M  END
>  <reaction>  (1) 
rxn_554

>  <mol_properties>  (1) 
{"6": {"label": "donator", "atom_type": "Cs"}, "17": {"label": "d_hydrogen", "atom_type": "H0"}}

>  <type>  (1) 
r1h

$$$$

     RDKit          3D

  7  6  0  0  0  0  0  0  0  0999 V2000
    1.3002    0.7433    2.1279 C   0  0  0  0  0  0  0  0  0  0  0  0
    0.5758    0.3292    1.2319 C   0  0  0  0  0  0  0  0  0  0  0  0
   -0.2057   -0.1176    0.2652 C   0  0  0  0  0  3  0  0  0  0  0  0
   -0.9747   -0.5572   -0.6858 C   0  0  0  0  0  0  0  0  0  0  0  0
    1.9293    1.1030    2.9060 H   0  0  0  0  0  0  0  0  0  0  0  0
   -1.9977   -0.8727   -0.4932 H   0  0  0  0  0  0  0  0  0  0  0  0
   -0.6274   -0.6280   -1.7143 H   0  0  0  0  0  0  0  0  0  0  0  0
  1  2  3  0
  1  5  1  0
  2  3  1  0
  3  4  2  3
  4  6  1  0
  4  7  1  0
M  RAD  1   3   2
M  END
>  <reaction>  (2) 
rxn_554

>  <mol_properties>  (2) 
{"2": {"label": "acceptor", "atom_type": "Cd"}}

>  <type>  (2) 
r2

$$$$

     RDKit          3D

  8  7  0  0  0  0  0  0  0  0999 V2000
    1.9029    0.9046   -0.2050 C   0  0  0  0  0  0  0  0  0  0  0  0
    0.8517    0.4283    0.1217 C   0  0  0  0  0  0  0  0  0  0  0  0
   -0.3908   -0.1311    0.5404 C   0  0  0  0  0  0  0  0  0  0  0  0
   -1.2847   -0.6576   -0.2899 C   0  0  0  0  0  0  0  0  0  0  0  0
    2.8335    1.3255   -0.5014 H   0  0  0  0  0  0  0  0  0  0  0  0
   -0.5867   -0.1096    1.6074 H   0  0  0  0  0  0  0  0  0  0  0  0
   -2.2126   -1.0686    0.0850 H   0  0  0  0  0  0  0  0  0  0  0  0
   -1.1134   -0.6914   -1.3582 H   0  0  0  0  0  0  0  0  0  0  0  0
  1  2  3  0
  1  5  1  0
  2  3  1  0
  3  4  2  3
  3  6  1  0
  4  7  1  0
  4  8  1  0
M  END
>  <reaction>  (3) 
rxn_554

>  <mol_properties>  (3) 
{"2": {"label": "acceptor", "atom_type": "Cd"}, "7": {"label": "a_hydrogen", "atom_type": "H0"}}

>  <type>  (3) 
r2h

$$$$

     RDKit          3D

 26 26  0  0  0  0  0  0  0  0999 V2000
   -2.8864   -0.8060    2.1850 C   0  0  0  0  0  0  0  0  0  0  0  0
   -2.6018   -0.4330    1.0759 C   0  0  0  0  0  0  0  0  0  0  0  0
   -2.1528    0.0313   -0.1655 C   0  0  0  0  0  0  0  0  0  0  0  0
   -2.7402    0.0481   -1.3490 C   0  0  0  0  0  0  0  0  0  0  0  0
   -3.1631   -1.1416    3.1553 H   0  0  0  0  0  0  0  0  0  0  0  0
   -3.7453   -0.3325   -1.5004 H   0  0  0  0  0  0  0  0  0  0  0  0
   -2.2239    0.4501   -2.2137 H   0  0  0  0  0  0  0  0  0  0  0  0
    1.0328   -1.1187   -0.9811 C   0  0  0  0  0  0  0  0  0  0  0  0
    1.0453   -1.1225    0.5732 C   0  0  0  0  0  0  0  0  0  0  0  0
    1.1412    0.3708    0.9291 C   0  0  0  0  0  0  0  0  0  0  0  0
    2.5560    0.8668    0.5654 C   0  0  0  0  0  0  0  0  0  0  0  0
    2.5397    0.8728   -0.9911 C   0  0  0  0  0  0  0  0  0  0  0  0
    1.1178    0.3769   -1.3290 C   0  0  0  0  0  0  0  0  0  0  0  0
    0.3320    1.0051   -0.1899 C   0  0  0  0  0  3  0  0  0  0  0  0
    0.1082   -1.5519   -1.3636 H   0  0  0  0  0  0  0  0  0  0  0  0
    1.8640   -1.6790   -1.4111 H   0  0  0  0  0  0  0  0  0  0  0  0
    0.1259   -1.5534    0.9709 H   0  0  0  0  0  0  0  0  0  0  0  0
    1.8811   -1.6887    0.9862 H   0  0  0  0  0  0  0  0  0  0  0  0
    0.8338    0.6076    1.9456 H   0  0  0  0  0  0  0  0  0  0  0  0
    3.3284    0.2149    0.9767 H   0  0  0  0  0  0  0  0  0  0  0  0
    2.7283    1.8694    0.9592 H   0  0  0  0  0  0  0  0  0  0  0  0
    3.3041    0.2256   -1.4243 H   0  0  0  0  0  0  0  0  0  0  0  0
    2.7015    1.8787   -1.3808 H   0  0  0  0  0  0  0  0  0  0  0  0
    0.7951    0.6209   -2.3397 H   0  0  0  0  0  0  0  0  0  0  0  0
   -0.9244    0.5320   -0.1500 H   0  0  0  0  0  0  0  0  0  0  0  0
    0.2159    2.0885   -0.1852 H   0  0  0  0  0  0  0  0  0  0  0  0
  1  2  3  0
  1  5  1  0
  2  3  1  0
  3  4  2  3
  3 25  1  0
  4  6  1  0
  4  7  1  0
  8  9  1  0
  8 13  1  0
  8 15  1  0
  8 16  1  0
  9 10  1  0
  9 17  1  0
  9 18  1  0
 10 11  1  0
 10 14  1  0
 10 19  1  0
 11 12  1  0
 11 20  1  0
 11 21  1  0
 12 13  1  0
 12 22  1  0
 12 23  1  0
 13 14  1  0
 13 24  1  0
 14 26  1  0
M  RAD  1  14   2
M  END
>  <reaction>  (4) 
rxn_554

>  <mol_properties>  (4) 
{"1": {"label": "*0", "atom_type": "Ct"}, "2": {"label": "*1", "atom_type": "Cd"}, "9": {"label": "*4", "atom_type": "Cs"}, "13": {"label": "*3", "atom_type": "Cs"}, "24": {"label": "*2", "atom_type": "H0"}}

>  <type>  (4) 
ts

$$$$
