
     RDKit          3D

 18 18  0  0  0  0  0  0  0  0999 V2000
   -2.4852    0.3210   -0.3966 C   0  0  0  0  0  0  0  0  0  0  0  0
   -1.5917   -0.2708    0.6941 C   0  0  0  0  0  0  0  0  0  0  0  0
   -0.1292   -0.1692    0.3493 C   0  0  0  0  0  0  0  0  0  0  0  0
    0.6099    0.9558    0.7015 C   0  0  0  0  0  0  0  0  0  0  0  0
    1.9447    1.0728    0.3458 C   0  0  0  0  0  0  0  0  0  0  0  0
    2.5646    0.0613   -0.3720 C   0  0  0  0  0  0  0  0  0  0  0  0
    1.8399   -1.0657   -0.7287 C   0  0  0  0  0  0  0  0  0  0  0  0
    0.5055   -1.1769   -0.3700 C   0  0  0  0  0  0  0  0  0  0  0  0
   -2.3325   -0.1971   -1.3452 H   0  0  0  0  0  0  0  0  0  0  0  0
   -2.2554    1.3763   -0.5546 H   0  0  0  0  0  0  0  0  0  0  0  0
   -3.5397    0.2376   -0.1280 H   0  0  0  0  0  0  0  0  0  0  0  0
   -1.7801    0.2462    1.6380 H   0  0  0  0  0  0  0  0  0  0  0  0
   -1.8568   -1.3190    0.8516 H   0  0  0  0  0  0  0  0  0  0  0  0
    0.1327    1.7497    1.2656 H   0  0  0  0  0  0  0  0  0  0  0  0
    2.5033    1.9550    0.6330 H   0  0  0  0  0  0  0  0  0  0  0  0
    3.6077    0.1491   -0.6484 H   0  0  0  0  0  0  0  0  0  0  0  0
    2.3163   -1.8632   -1.2854 H   0  0  0  0  0  0  0  0  0  0  0  0
   -0.0540   -2.0629   -0.6500 H   0  0  0  0  0  0  0  0  0  0  0  0
  1  2  1  0
  1  9  1  0
  1 10  1  0
  1 11  1  0
  2  3  1  0
  2 12  1  0
  2 13  1  0
  3  4  2  0
  3  8  1  0
  4  5  1  0
  4 14  1  0
  5  6  2  0
  5 15  1  0
  6  7  1  0
  6 16  1  0
  7  8  2  0
  7 17  1  0
  8 18  1  0
M  END
>  <reaction>  (1) 
rxn_1500

>  <mol_properties>  (1) 
{"1": {"label": "donator", "atom_type": "Cs"}, "11": {"label": "d_hydrogen", "atom_type": "H0"}}

>  <type>  (1) 
r1h

$$$$

     RDKit          3D

  8  7  0  0  0  0  0  0  0  0999 V2000
   -1.0607    0.1793   -0.1423 C   0  0  0  0  0  0  0  0  0  0  0  0
    0.2796    0.0327    0.4820 C   0  0  0  0  0  3  0  0  0  0  0  0
    0.8817   -1.4663    1.0791 S   0  0  0  0  0  0  0  0  0  0  0  0
   -1.3043    1.2328   -0.2850 H   0  0  0  0  0  0  0  0  0  0  0  0
   -1.8444   -0.2641    0.4799 H   0  0  0  0  0  0  0  0  0  0  0  0
   -1.1164   -0.3100   -1.1237 H   0  0  0  0  0  0  0  0  0  0  0  0
    1.0449    0.7826    0.3391 H   0  0  0  0  0  0  0  0  0  0  0  0
   -0.2993   -2.0726    1.2718 H   0  0  0  0  0  0  0  0  0  0  0  0
  1  2  1  0
  1  4  1  0
  1  5  1  0
  1  6  1  0
  2  3  1  0
  2  7  1  0
  3  8  1  0
M  RAD  1   2   2
M  END
>  <reaction>  (2) 
rxn_1500

>  <mol_properties>  (2) 
{"1": {"label": "acceptor", "atom_type": "Cs"}}

>  <type>  (2) 
r2

$$$$

     RDKit          3D

  9  8  0  0  0  0  0  0  0  0999 V2000
   -0.8818   -0.3578    0.1297 C   0  0  0  0  0  0  0  0  0  0  0  0
    0.6153   -0.3021   -0.1188 C   0  0  0  0  0  0  0  0  0  0  0  0
    1.5354   -1.7170    0.5545 S   0  0  0  0  0  0  0  0  0  0  0  0
   -1.1018   -0.3317    1.1984 H   0  0  0  0  0  0  0  0  0  0  0  0
   -1.3114   -1.2723   -0.2799 H   0  0  0  0  0  0  0  0  0  0  0  0
   -1.3767    0.4976   -0.3363 H   0  0  0  0  0  0  0  0  0  0  0  0
    1.0467    0.6194    0.2718 H   0  0  0  0  0  0  0  0  0  0  0  0
    0.8295   -0.3275   -1.1882 H   0  0  0  0  0  0  0  0  0  0  0  0
    1.2306   -1.5077    1.8423 H   0  0  0  0  0  0  0  0  0  0  0  0
  1  2  1  0
  1  4  1  0
  1  5  1  0
  1  6  1  0
  2  3  1  0
  2  7  1  0
  2  8  1  0
  3  9  1  0
M  END
>  <reaction>  (3) 
rxn_1500

>  <mol_properties>  (3) 
{"1": {"label": "acceptor", "atom_type": "Cs"}, "8": {"label": "a_hydrogen", "atom_type": "H0"}}

>  <type>  (3) 
r2h

$$$$

     RDKit          3D

 26 25  0  0  0  0  0  0  0  0999 V2000
   -1.6659   -1.8855   -0.1970 C   0  0  0  0  0  0  0  0  0  0  0  0
   -0.3421   -2.4919    0.1812 C   0  0  0  0  0  3  0  0  0  0  0  0
    0.1171   -2.4649    1.8923 S   0  0  0  0  0  0  0  0  0  0  0  0
   -1.8159   -1.9469   -1.2770 H   0  0  0  0  0  0  0  0  0  0  0  0
   -1.7024   -0.8313    0.0872 H   0  0  0  0  0  0  0  0  0  0  0  0
   -2.4987   -2.3969    0.2937 H   0  0  0  0  0  0  0  0  0  0  0  0
   -0.1698   -3.4949   -0.2054 H   0  0  0  0  0  0  0  0  0  0  0  0
   -0.1409   -1.1652    2.1022 H   0  0  0  0  0  0  0  0  0  0  0  0
    1.1214   -1.1345   -2.5947 C   0  0  0  0  0  0  0  0  0  0  0  0
    1.3633   -0.8696   -1.1295 C   0  0  0  0  0  0  0  0  0  0  0  0
    0.9976    0.4379   -0.5604 C   0  0  0  0  0  0  0  0  0  0  0  0
    0.0699    1.2892   -1.1673 C   0  0  0  0  0  0  0  0  0  0  0  0
   -0.3096    2.4780   -0.5646 C   0  0  0  0  0  0  0  0  0  0  0  0
    0.2246    2.8468    0.6606 C   0  0  0  0  0  0  0  0  0  0  0  0
    1.1513    2.0154    1.2758 C   0  0  0  0  0  0  0  0  0  0  0  0
    1.5321    0.8302    0.6730 C   0  0  0  0  0  0  0  0  0  0  0  0
    1.6691   -0.4305   -3.2284 H   0  0  0  0  0  0  0  0  0  0  0  0
    0.0634   -1.0531   -2.8534 H   0  0  0  0  0  0  0  0  0  0  0  0
    1.4444   -2.1424   -2.8576 H   0  0  0  0  0  0  0  0  0  0  0  0
    0.5868   -1.7183   -0.4915 H   0  0  0  0  0  0  0  0  0  0  0  0
    2.3397   -1.2098   -0.7854 H   0  0  0  0  0  0  0  0  0  0  0  0
   -0.3602    1.0229   -2.1244 H   0  0  0  0  0  0  0  0  0  0  0  0
   -1.0277    3.1219   -1.0574 H   0  0  0  0  0  0  0  0  0  0  0  0
   -0.0727    3.7760    1.1295 H   0  0  0  0  0  0  0  0  0  0  0  0
    1.5828    2.2959    2.2288 H   0  0  0  0  0  0  0  0  0  0  0  0
    2.2548    0.1855    1.1600 H   0  0  0  0  0  0  0  0  0  0  0  0
  1  2  1  0
  1  4  1  0
  1  5  1  0
  1  6  1  0
  2  3  1  0
  2  7  1  0
  3  8  1  0
  9 10  1  0
  9 17  1  0
  9 18  1  0
  9 19  1  0
 10 11  1  0
 10 20  1  0
 10 21  1  0
 11 12  2  0
 11 16  1  0
 12 13  1  0
 12 22  1  0
 13 14  2  0
 13 23  1  0
 14 15  1  0
 14 24  1  0
 15 16  2  0
 15 25  1  0
 16 26  1  0
M  RAD  1   2   2
M  END
>  <reaction>  (4) 
rxn_1500

>  <mol_properties>  (4) 
{"1": {"label": "*3", "atom_type": "Cs"}, "2": {"label": "*4", "atom_type": "S2s"}, "9": {"label": "*1", "atom_type": "Cs"}, "10": {"label": "*0", "atom_type": "Cd"}, "19": {"label": "*2", "atom_type": "H0"}}

>  <type>  (4) 
ts

$$$$
