
     RDKit          3D

 17 16  0  0  0  0  0  0  0  0999 V2000
   -2.7534   -0.0962    0.1351 C   0  0  0  0  0  0  0  0  0  0  0  0
   -1.4053    0.2837   -0.4617 C   0  0  0  0  0  0  0  0  0  0  0  0
   -1.2205    1.7929   -0.5721 C   0  0  0  0  0  0  0  0  0  0  0  0
    0.1161    2.2072   -1.1428 C   0  0  0  0  0  0  0  0  0  0  0  0
    0.1852    1.7518   -2.5049 O   0  0  0  0  0  0  0  0  0  0  0  0
    1.3192    1.9949   -3.1521 C   0  0  0  0  0  0  0  0  0  0  0  0
    2.2779    2.5538   -2.7058 O   0  0  0  0  0  0  0  0  0  0  0  0
   -3.5738    0.2829   -0.4785 H   0  0  0  0  0  0  0  0  0  0  0  0
   -2.8713    0.3192    1.1388 H   0  0  0  0  0  0  0  0  0  0  0  0
   -2.8644   -1.1790    0.2071 H   0  0  0  0  0  0  0  0  0  0  0  0
   -0.6001   -0.1308    0.1531 H   0  0  0  0  0  0  0  0  0  0  0  0
   -1.3009   -0.1651   -1.4520 H   0  0  0  0  0  0  0  0  0  0  0  0
   -2.0193    2.2235   -1.1832 H   0  0  0  0  0  0  0  0  0  0  0  0
   -1.3072    2.2473    0.4198 H   0  0  0  0  0  0  0  0  0  0  0  0
    0.2416    3.2911   -1.1318 H   0  0  0  0  0  0  0  0  0  0  0  0
    0.9461    1.7681   -0.5846 H   0  0  0  0  0  0  0  0  0  0  0  0
    1.2465    1.6012   -4.1751 H   0  0  0  0  0  0  0  0  0  0  0  0
  1  2  1  0
  1  8  1  0
  1  9  1  0
  1 10  1  0
  2  3  1  0
  2 11  1  0
  2 12  1  0
  3  4  1  0
  3 13  1  0
  3 14  1  0
  4  5  1  0
  4 15  1  0
  4 16  1  0
  5  6  1  0
  6  7  2  0
  6 17  1  0
M  END
>  <reaction>  (1) 
rxn_147

>  <mol_properties>  (1) 
{"0": {"label": "donator", "atom_type": "Cs"}, "7": {"label": "d_hydrogen", "atom_type": "H0"}}

>  <type>  (1) 
r1h

$$$$

     RDKit          3D

  1  0  0  0  0  0  0  0  0  0999 V2000
    0.0000    0.0000    0.0000 Cl  0  0  0  0  0 15  0  0  0  0  0  0
M  END
>  <reaction>  (2) 
rxn_147

>  <mol_properties>  (2) 
{"0": {"label": "acceptor", "atom_type": "Cl1s"}}

>  <type>  (2) 
r2

$$$$

     RDKit          3D

  2  1  0  0  0  0  0  0  0  0999 V2000
    0.0000    0.0000    0.6391 Cl  0  0  0  0  0  0  0  0  0  0  0  0
    0.0000    0.0000   -0.6391 H   0  0  0  0  0  0  0  0  0  0  0  0
  1  2  1  0
M  END
>  <reaction>  (3) 
rxn_147

>  <mol_properties>  (3) 
{"0": {"label": "acceptor", "atom_type": "Cl1s"}, "1": {"label": "a_hydrogen", "atom_type": "H0"}}

>  <type>  (3) 
r2h

$$$$

     RDKit          3D

 18 16  0  0  0  0  0  0  0  0999 V2000
   -0.7975    1.4545    2.9262 Cl  0  0  0  0  0 15  0  0  0  0  0  0
    1.3420    1.9197    1.0820 C   0  0  0  0  0  0  0  0  0  0  0  0
    1.2434    0.7842    0.1178 C   0  0  0  0  0  0  0  0  0  0  0  0
   -0.0347    0.7966   -0.7140 C   0  0  0  0  0  0  0  0  0  0  0  0
   -0.0870   -0.3048   -1.7475 C   0  0  0  0  0  0  0  0  0  0  0  0
   -0.0882   -1.5640   -1.0586 O   0  0  0  0  0  0  0  0  0  0  0  0
   -0.1057   -2.6532   -1.8220 C   0  0  0  0  0  0  0  0  0  0  0  0
   -0.1150   -2.6697   -3.0173 O   0  0  0  0  0  0  0  0  0  0  0  0
    0.3012    1.7201    2.0022 H   0  0  0  0  0  0  0  0  0  0  0  0
    1.0676    2.9080    0.7193 H   0  0  0  0  0  0  0  0  0  0  0  0
    2.1829    1.9154    1.7698 H   0  0  0  0  0  0  0  0  0  0  0  0
    2.1152    0.8416   -0.5512 H   0  0  0  0  0  0  0  0  0  0  0  0
    1.3365   -0.1644    0.6506 H   0  0  0  0  0  0  0  0  0  0  0  0
   -0.9017    0.7180   -0.0539 H   0  0  0  0  0  0  0  0  0  0  0  0
   -0.1219    1.7500   -1.2432 H   0  0  0  0  0  0  0  0  0  0  0  0
   -0.9891   -0.2354   -2.3571 H   0  0  0  0  0  0  0  0  0  0  0  0
    0.7740   -0.2718   -2.4194 H   0  0  0  0  0  0  0  0  0  0  0  0
   -0.1103   -3.5459   -1.1826 H   0  0  0  0  0  0  0  0  0  0  0  0
  2  3  1  0
  2  9  1  0
  2 10  1  0
  2 11  1  0
  3  4  1  0
  3 12  1  0
  3 13  1  0
  4  5  1  0
  4 14  1  0
  4 15  1  0
  5  6  1  0
  5 16  1  0
  5 17  1  0
  6  7  1  0
  7  8  2  0
  7 18  1  0
M  END
>  <reaction>  (4) 
rxn_147

>  <mol_properties>  (4) 
{"0": {"label": "*3", "atom_type": "Cl1s"}, "1": {"label": "*1", "atom_type": "Cs"}, "2": {"label": "*0", "atom_type": "Cs"}, "8": {"label": "*2", "atom_type": "H0"}}

>  <type>  (4) 
ts

$$$$
