
     RDKit          3D

 12 12  0  0  0  0  0  0  0  0999 V2000
   -1.2385    0.6248   -0.0199 C   0  0  0  0  0  0  0  0  0  0  0  0
   -0.0779    1.3848   -0.0298 C   0  0  0  0  0  0  0  0  0  0  0  0
    1.1605    0.7600   -0.0100 C   0  0  0  0  0  0  0  0  0  0  0  0
    1.2385   -0.6248    0.0199 C   0  0  0  0  0  0  0  0  0  0  0  0
    0.0779   -1.3848    0.0298 C   0  0  0  0  0  0  0  0  0  0  0  0
   -1.1606   -0.7600    0.0100 C   0  0  0  0  0  0  0  0  0  0  0  0
   -2.2052    1.1125   -0.0354 H   0  0  0  0  0  0  0  0  0  0  0  0
   -0.1387    2.4657   -0.0531 H   0  0  0  0  0  0  0  0  0  0  0  0
    2.0664    1.3532   -0.0177 H   0  0  0  0  0  0  0  0  0  0  0  0
    2.2052   -1.1125    0.0354 H   0  0  0  0  0  0  0  0  0  0  0  0
    0.1387   -2.4657    0.0531 H   0  0  0  0  0  0  0  0  0  0  0  0
   -2.0664   -1.3532    0.0177 H   0  0  0  0  0  0  0  0  0  0  0  0
  1  2  2  0
  1  6  1  0
  1  7  1  0
  2  3  1  0
  2  8  1  0
  3  4  2  0
  3  9  1  0
  4  5  1  0
  4 10  1  0
  5  6  2  0
  5 11  1  0
  6 12  1  0
M  END
>  <reaction>  (1) 
rxn_277

>  <mol_properties>  (1) 
{"2": {"label": "donator", "atom_type": "Cd"}, "8": {"label": "d_hydrogen", "atom_type": "H0"}}

>  <type>  (1) 
r1h

$$$$

     RDKit          3D

  2  1  0  0  0  0  0  0  0  0999 V2000
    0.0000    0.0000    0.4855 O   0  0  0  0  0  1  0  0  0  0  0  0
    0.0000    0.0000   -0.4855 H   0  0  0  0  0  0  0  0  0  0  0  0
  1  2  1  0
M  RAD  1   1   2
M  END
>  <reaction>  (2) 
rxn_277

>  <mol_properties>  (2) 
{"0": {"label": "acceptor", "atom_type": "O2s"}}

>  <type>  (2) 
r2

$$$$

     RDKit          3D

  3  2  0  0  0  0  0  0  0  0999 V2000
   -0.0003    0.3867    0.0000 O   0  0  0  0  0  0  0  0  0  0  0  0
   -0.7617   -0.1940    0.0000 H   0  0  0  0  0  0  0  0  0  0  0  0
    0.7620   -0.1927    0.0000 H   0  0  0  0  0  0  0  0  0  0  0  0
  1  2  1  0
  1  3  1  0
M  END
>  <reaction>  (3) 
rxn_277

>  <mol_properties>  (3) 
{"0": {"label": "a_hydrogen", "atom_type": "H0"}, "1": {"label": "acceptor", "atom_type": "O2s"}}

>  <type>  (3) 
r2h

$$$$

     RDKit          3D

 14 13  0  0  0  0  0  0  0  0999 V2000
    0.0486   -1.2125   -1.4003 C   0  0  0  0  0  0  0  0  0  0  0  0
    0.1771   -1.2645   -0.0172 C   0  0  0  0  0  0  0  0  0  0  0  0
    0.1798   -0.0757    0.6800 C   0  0  0  0  0  0  0  0  0  0  0  0
    0.0443    1.1541    0.0731 C   0  0  0  0  0  0  0  0  0  0  0  0
   -0.0834    1.1912   -1.3106 C   0  0  0  0  0  0  0  0  0  0  0  0
   -0.0813    0.0115   -2.0412 C   0  0  0  0  0  0  0  0  0  0  0  0
    0.0496   -2.1300   -1.9754 H   0  0  0  0  0  0  0  0  0  0  0  0
    0.2801   -2.2103    0.4985 H   0  0  0  0  0  0  0  0  0  0  0  0
    0.3331   -0.1128    1.9000 H   0  0  0  0  0  0  0  0  0  0  0  0
    0.0454    2.0646    0.6580 H   0  0  0  0  0  0  0  0  0  0  0  0
   -0.1851    2.1435   -1.8159 H   0  0  0  0  0  0  0  0  0  0  0  0
   -0.1826    0.0461   -3.1185 H   0  0  0  0  0  0  0  0  0  0  0  0
    0.1694   -0.1684    3.1492 O   0  0  0  0  0  1  0  0  0  0  0  0
   -0.7949   -0.2228    3.1872 H   0  0  0  0  0  0  0  0  0  0  0  0
  1  2  2  0
  1  6  1  0
  1  7  1  0
  2  3  1  0
  2  8  1  0
  3  4  2  0
  3  9  1  0
  4  5  1  0
  4 10  1  0
  5  6  2  0
  5 11  1  0
  6 12  1  0
 13 14  1  0
M  RAD  1  13   2
M  END
>  <reaction>  (4) 
rxn_277

>  <mol_properties>  (4) 
{"1": {"label": "*0", "atom_type": "Cd"}, "2": {"label": "*1", "atom_type": "Cd"}, "8": {"label": "*2", "atom_type": "H0"}, "12": {"label": "*3", "atom_type": "O2s"}, "13": {"label": "*4", "atom_type": "H0"}}

>  <type>  (4) 
ts

$$$$
