
     RDKit          3D

  7  6  0  0  0  0  0  0  0  0999 V2000
    1.6899   -0.1839   -0.0115 C   0  0  0  0  0  0  0  0  0  0  0  0
    0.5000   -0.0544   -0.0034 C   0  0  0  0  0  0  0  0  0  0  0  0
   -0.9469    0.1030    0.0064 C   0  0  0  0  0  0  0  0  0  0  0  0
    2.7470   -0.2989   -0.0186 H   0  0  0  0  0  0  0  0  0  0  0  0
   -1.4140   -0.5835   -0.7010 H   0  0  0  0  0  0  0  0  0  0  0  0
   -1.2257    1.1206   -0.2707 H   0  0  0  0  0  0  0  0  0  0  0  0
   -1.3502   -0.1030    0.9988 H   0  0  0  0  0  0  0  0  0  0  0  0
  1  2  3  0
  1  4  1  0
  2  3  1  0
  3  5  1  0
  3  6  1  0
  3  7  1  0
M  END
>  <reaction>  (1) 
rxn_3213

>  <mol_properties>  (1) 
{"2": {"label": "donator", "atom_type": "Cs"}, "4": {"label": "d_hydrogen", "atom_type": "H0"}}

>  <type>  (1) 
r1h

$$$$

     RDKit          3D

  7  6  0  0  0  0  0  0  0  0999 V2000
   -1.3059    0.5497   -0.1304 N   0  0  0  0  0  2  0  0  0  0  0  0
   -0.2700   -0.4288    0.0448 C   0  0  0  0  0  0  0  0  0  0  0  0
    1.1109    0.0669    0.0401 C   0  0  0  0  0  0  0  0  0  0  0  0
    2.1758    0.4925    0.0308 N   0  0  0  0  0  0  0  0  0  0  0  0
   -0.8815    1.4733   -0.2339 H   0  0  0  0  0  0  0  0  0  0  0  0
   -0.3767   -1.1909   -0.7373 H   0  0  0  0  0  0  0  0  0  0  0  0
   -0.4527   -0.9628    0.9858 H   0  0  0  0  0  0  0  0  0  0  0  0
  1  2  1  0
  1  5  1  0
  2  3  1  0
  2  6  1  0
  2  7  1  0
  3  4  3  0
M  RAD  1   1   2
M  END
>  <reaction>  (2) 
rxn_3213

>  <mol_properties>  (2) 
{"0": {"label": "acceptor", "atom_type": "N3s"}}

>  <type>  (2) 
r2

$$$$

     RDKit          3D

  8  7  0  0  0  0  0  0  0  0999 V2000
   -1.0805    0.5317    0.0204 N   0  0  0  0  0  0  0  0  0  0  0  0
   -0.1080   -0.5393    0.0956 C   0  0  0  0  0  0  0  0  0  0  0  0
    1.2945   -0.1247   -0.1005 C   0  0  0  0  0  0  0  0  0  0  0  0
    2.3714    0.2386   -0.2580 N   0  0  0  0  0  0  0  0  0  0  0  0
   -1.0516    0.9857   -0.8822 H   0  0  0  0  0  0  0  0  0  0  0  0
   -0.9009    1.2352    0.7235 H   0  0  0  0  0  0  0  0  0  0  0  0
   -0.3427   -1.2965   -0.6542 H   0  0  0  0  0  0  0  0  0  0  0  0
   -0.1810   -1.0288    1.0680 H   0  0  0  0  0  0  0  0  0  0  0  0
  1  2  1  0
  1  5  1  0
  1  6  1  0
  2  3  1  0
  2  7  1  0
  2  8  1  0
  3  4  3  0
M  END
>  <reaction>  (3) 
rxn_3213

>  <mol_properties>  (3) 
{"0": {"label": "acceptor", "atom_type": "N3s"}, "7": {"label": "a_hydrogen", "atom_type": "H0"}}

>  <type>  (3) 
r2h

$$$$

     RDKit          3D

 14 12  0  0  0  0  0  0  0  0999 V2000
    0.8568    1.2304    0.0944 N   0  0  0  0  0  2  0  0  0  0  0  0
    0.5007    1.1777    1.4987 C   0  0  0  0  0  0  0  0  0  0  0  0
   -0.8345    0.6357    1.7917 C   0  0  0  0  0  0  0  0  0  0  0  0
   -1.8798    0.2016    1.9792 N   0  0  0  0  0  0  0  0  0  0  0  0
    0.0618    1.5973   -0.4304 H   0  0  0  0  0  0  0  0  0  0  0  0
    0.5497    2.1919    1.9104 H   0  0  0  0  0  0  0  0  0  0  0  0
    1.2408    0.5841    2.0384 H   0  0  0  0  0  0  0  0  0  0  0  0
    0.0218   -1.0478   -3.2953 C   0  0  0  0  0  0  0  0  0  0  0  0
    0.2684   -1.1512   -2.1244 C   0  0  0  0  0  0  0  0  0  0  0  0
    0.5650   -1.2123   -0.7300 C   0  0  0  0  0  0  0  0  0  0  0  0
   -0.1982   -0.9749   -4.3333 H   0  0  0  0  0  0  0  0  0  0  0  0
    0.8273   -0.0302   -0.3561 H   0  0  0  0  0  0  0  0  0  0  0  0
    1.4840   -1.7472   -0.4950 H   0  0  0  0  0  0  0  0  0  0  0  0
   -0.2714   -1.5362   -0.1131 H   0  0  0  0  0  0  0  0  0  0  0  0
  1  2  1  0
  1  5  1  0
  2  3  1  0
  2  6  1  0
  2  7  1  0
  3  4  3  0
  8  9  3  0
  8 11  1  0
  9 10  1  0
 10 12  1  0
 10 13  1  0
 10 14  1  0
M  RAD  1   1   2
M  END
>  <reaction>  (4) 
rxn_3213

>  <mol_properties>  (4) 
{"0": {"label": "*3", "atom_type": "N3s"}, "1": {"label": "*4", "atom_type": "Cs"}, "8": {"label": "*0", "atom_type": "Ct"}, "9": {"label": "*1", "atom_type": "Cs"}, "11": {"label": "*2", "atom_type": "H0"}}

>  <type>  (4) 
ts

$$$$
