
     RDKit          3D

 12 11  0  0  0  0  0  0  0  0999 V2000
    1.2394   -0.3763   -0.3020 C   0  0  0  0  0  0  0  0  0  0  0  0
    0.1007    0.3023    0.4464 C   0  0  0  0  0  0  0  0  0  0  0  0
   -0.1187    2.0399   -0.0725 S   0  0  0  0  0  0  0  0  0  0  0  0
   -1.1974   -0.4877    0.3552 C   0  0  0  0  0  0  0  0  0  0  0  0
    2.1681    0.1849   -0.2048 H   0  0  0  0  0  0  0  0  0  0  0  0
    1.0031   -0.4606   -1.3656 H   0  0  0  0  0  0  0  0  0  0  0  0
    1.3994   -1.3856    0.0860 H   0  0  0  0  0  0  0  0  0  0  0  0
    0.3796    0.4050    1.4981 H   0  0  0  0  0  0  0  0  0  0  0  0
   -0.4500    1.7779   -1.3452 H   0  0  0  0  0  0  0  0  0  0  0  0
   -1.0545   -1.4978    0.7479 H   0  0  0  0  0  0  0  0  0  0  0  0
   -1.5206   -0.5759   -0.6849 H   0  0  0  0  0  0  0  0  0  0  0  0
   -1.9957   -0.0054    0.9183 H   0  0  0  0  0  0  0  0  0  0  0  0
  1  2  1  0
  1  5  1  0
  1  6  1  0
  1  7  1  0
  2  4  1  0
  2  3  1  0
  2  8  1  0
  3  9  1  0
  4 10  1  0
  4 11  1  0
  4 12  1  0
M  END
>  <reaction>  (1) 
rxn_1942

>  <mol_properties>  (1) 
{"1": {"label": "donator", "atom_type": "Cs"}, "7": {"label": "d_hydrogen", "atom_type": "H0"}}

>  <type>  (1) 
r1h

$$$$

     RDKit          3D

 10  9  0  0  0  0  0  0  0  0999 V2000
   -1.2648    0.1959    0.8197 C   0  0  0  0  0  0  0  0  0  0  0  0
   -0.2805    0.0995   -0.3030 C   0  0  0  0  0  3  0  0  0  0  0  0
   -0.0444    1.1347   -1.1797 C   0  0  0  0  0  0  0  0  0  0  0  0
    0.1640    2.0467   -1.9525 C   0  0  0  0  0  0  0  0  0  0  0  0
    0.5686   -1.4168   -0.4488 S   0  0  0  0  0  0  0  0  0  0  0  0
   -2.0466   -0.5638    0.7258 H   0  0  0  0  0  0  0  0  0  0  0  0
   -0.7765    0.0454    1.7871 H   0  0  0  0  0  0  0  0  0  0  0  0
   -1.7371    1.1762    0.8222 H   0  0  0  0  0  0  0  0  0  0  0  0
    0.3433    2.8484   -2.6273 H   0  0  0  0  0  0  0  0  0  0  0  0
    1.3075   -1.0953   -1.5176 H   0  0  0  0  0  0  0  0  0  0  0  0
  1  2  1  0
  1  6  1  0
  1  7  1  0
  1  8  1  0
  2  3  1  0
  2  5  1  0
  3  4  3  0
  4  9  1  0
  5 10  1  0
M  RAD  1   2   2
M  END
>  <reaction>  (2) 
rxn_1942

>  <mol_properties>  (2) 
{"1": {"label": "acceptor", "atom_type": "Cs"}}

>  <type>  (2) 
r2

$$$$

     RDKit          3D

 11 10  0  0  0  0  0  0  0  0999 V2000
   -1.2582   -0.5130    0.2160 C   0  0  0  0  0  0  0  0  0  0  0  0
   -0.1109    0.0509   -0.6210 C   0  0  0  0  0  0  0  0  0  0  0  0
    1.1862   -0.2025   -0.0072 C   0  0  0  0  0  0  0  0  0  0  0  0
    2.2351   -0.4206    0.5274 C   0  0  0  0  0  0  0  0  0  0  0  0
   -0.3298    1.8272   -1.0120 S   0  0  0  0  0  0  0  0  0  0  0  0
   -1.2875   -0.0327    1.1945 H   0  0  0  0  0  0  0  0  0  0  0  0
   -2.2088   -0.3391   -0.2866 H   0  0  0  0  0  0  0  0  0  0  0  0
   -1.1220   -1.5854    0.3655 H   0  0  0  0  0  0  0  0  0  0  0  0
   -0.1222   -0.4181   -1.6078 H   0  0  0  0  0  0  0  0  0  0  0  0
    3.1729   -0.6098    0.9920 H   0  0  0  0  0  0  0  0  0  0  0  0
   -0.1942    2.2663    0.2466 H   0  0  0  0  0  0  0  0  0  0  0  0
  1  2  1  0
  1  6  1  0
  1  7  1  0
  1  8  1  0
  2  3  1  0
  2  5  1  0
  2  9  1  0
  3  4  3  0
  4 10  1  0
  5 11  1  0
M  END
>  <reaction>  (3) 
rxn_1942

>  <mol_properties>  (3) 
{"1": {"label": "acceptor", "atom_type": "Cs"}, "10": {"label": "a_hydrogen", "atom_type": "H0"}}

>  <type>  (3) 
r2h

$$$$

     RDKit          3D

 22 20  0  0  0  0  0  0  0  0999 V2000
   -0.8734   -0.2685    2.0883 C   0  0  0  0  0  0  0  0  0  0  0  0
   -1.0089   -0.3460    0.5804 C   0  0  0  0  0  0  0  0  0  0  0  0
   -2.1436    0.3147    0.0164 C   0  0  0  0  0  0  0  0  0  0  0  0
   -3.0499    0.9194   -0.4915 C   0  0  0  0  0  0  0  0  0  0  0  0
   -0.7449   -2.0308   -0.0087 S   0  0  0  0  0  0  0  0  0  0  0  0
   -1.6541   -0.8447    2.5897 H   0  0  0  0  0  0  0  0  0  0  0  0
    0.1015   -0.6489    2.3974 H   0  0  0  0  0  0  0  0  0  0  0  0
   -0.9544    0.7704    2.4087 H   0  0  0  0  0  0  0  0  0  0  0  0
   -3.8687    1.4395   -0.9270 H   0  0  0  0  0  0  0  0  0  0  0  0
   -1.0874   -1.8050   -1.2831 H   0  0  0  0  0  0  0  0  0  0  0  0
    0.9778    0.8757   -1.8110 C   0  0  0  0  0  0  0  0  0  0  0  0
    1.1149    1.0353   -0.3193 C   0  0  0  0  0  3  0  0  0  0  0  0
    2.5433    0.2774    0.4265 S   0  0  0  0  0  0  0  0  0  0  0  0
    0.8840    2.4299    0.2048 C   0  0  0  0  0  0  0  0  0  0  0  0
    1.0610   -0.1707   -2.1092 H   0  0  0  0  0  0  0  0  0  0  0  0
    1.7522    1.4401   -2.3404 H   0  0  0  0  0  0  0  0  0  0  0  0
    0.0019    1.2468   -2.1342 H   0  0  0  0  0  0  0  0  0  0  0  0
    0.0353    0.3258    0.1493 H   0  0  0  0  0  0  0  0  0  0  0  0
    2.4158   -0.9186   -0.1653 H   0  0  0  0  0  0  0  0  0  0  0  0
   -0.1077    2.7734   -0.0972 H   0  0  0  0  0  0  0  0  0  0  0  0
    1.6200    3.1346   -0.1968 H   0  0  0  0  0  0  0  0  0  0  0  0
    0.9412    2.4652    1.2937 H   0  0  0  0  0  0  0  0  0  0  0  0
  1  2  1  0
  1  6  1  0
  1  7  1  0
  1  8  1  0
  2  3  1  0
  2  5  1  0
  2 18  1  0
  3  4  3  0
  4  9  1  0
  5 10  1  0
 11 12  1  0
 11 15  1  0
 11 16  1  0
 11 17  1  0
 12 14  1  0
 12 13  1  0
 13 19  1  0
 14 20  1  0
 14 21  1  0
 14 22  1  0
M  RAD  1  12   2
M  END
>  <reaction>  (4) 
rxn_1942

>  <mol_properties>  (4) 
{"1": {"label": "*1", "atom_type": "Cs"}, "4": {"label": "*0", "atom_type": "S2s"}, "11": {"label": "*3", "atom_type": "Cs"}, "12": {"label": "*4", "atom_type": "S2s"}, "17": {"label": "*2", "atom_type": "H0"}}

>  <type>  (4) 
ts

$$$$
