
     RDKit          3D

 15 14  0  0  0  0  0  0  0  0999 V2000
    2.1256    0.4849   -0.6284 C   0  0  0  0  0  0  0  0  0  0  0  0
    1.1128    0.2141    0.1794 C   0  0  0  0  0  0  0  0  0  0  0  0
   -0.3017   -0.0425   -0.2513 C   0  0  0  0  0  0  0  0  0  0  0  0
   -1.2427    1.0075    0.3423 C   0  0  0  0  0  0  0  0  0  0  0  0
   -0.7381   -1.4526    0.1504 C   0  0  0  0  0  0  0  0  0  0  0  0
    3.1243    0.6602   -0.2486 H   0  0  0  0  0  0  0  0  0  0  0  0
    1.9908    0.5411   -1.7036 H   0  0  0  0  0  0  0  0  0  0  0  0
    1.2888    0.1665    1.2533 H   0  0  0  0  0  0  0  0  0  0  0  0
   -0.3426    0.0343   -1.3424 H   0  0  0  0  0  0  0  0  0  0  0  0
   -0.9570    2.0133    0.0315 H   0  0  0  0  0  0  0  0  0  0  0  0
   -1.2189    0.9728    1.4350 H   0  0  0  0  0  0  0  0  0  0  0  0
   -2.2723    0.8287    0.0254 H   0  0  0  0  0  0  0  0  0  0  0  0
   -0.6964   -1.5744    1.2363 H   0  0  0  0  0  0  0  0  0  0  0  0
   -0.0911   -2.2079   -0.2978 H   0  0  0  0  0  0  0  0  0  0  0  0
   -1.7646   -1.6461   -0.1677 H   0  0  0  0  0  0  0  0  0  0  0  0
  1  2  2  3
  1  6  1  0
  1  7  1  0
  2  3  1  0
  2  8  1  0
  3  4  1  0
  3  5  1  0
  3  9  1  0
  4 10  1  0
  4 11  1  0
  4 12  1  0
  5 13  1  0
  5 14  1  0
  5 15  1  0
M  END
>  <reaction>  (1) 
rxn_1121

>  <mol_properties>  (1) 
{"2": {"label": "donator", "atom_type": "Cs"}, "8": {"label": "d_hydrogen", "atom_type": "H0"}}

>  <type>  (1) 
r1h

$$$$

     RDKit          3D

  6  5  0  0  0  0  0  0  0  0999 V2000
   -0.5122    0.0769    0.0313 C   0  0  0  0  0  0  0  0  0  0  0  0
    0.8184   -0.5422    0.0757 C   0  0  0  0  0  3  0  0  0  0  0  0
    2.3075   -0.1691   -0.1943 S   0  0  0  0  0  0  0  0  0  0  0  0
   -1.1500   -0.4948   -0.6475 H   0  0  0  0  0  0  0  0  0  0  0  0
   -0.4906    1.1243   -0.2849 H   0  0  0  0  0  0  0  0  0  0  0  0
   -0.9730    0.0050    1.0197 H   0  0  0  0  0  0  0  0  0  0  0  0
  1  2  1  0
  1  4  1  0
  1  5  1  0
  1  6  1  0
  2  3  2  0
M  RAD  1   2   2
M  END
>  <reaction>  (2) 
rxn_1121

>  <mol_properties>  (2) 
{"1": {"label": "acceptor", "atom_type": "CS"}}

>  <type>  (2) 
r2

$$$$

     RDKit          3D

  7  6  0  0  0  0  0  0  0  0999 V2000
   -0.6782    0.0507    0.0301 C   0  0  0  0  0  0  0  0  0  0  0  0
    0.8092    0.0996    0.0213 C   0  0  0  0  0  0  0  0  0  0  0  0
    1.7473    0.7521    1.1507 S   0  0  0  0  0  0  0  0  0  0  0  0
   -1.0667    0.5456   -0.8653 H   0  0  0  0  0  0  0  0  0  0  0  0
   -1.0112   -0.9904   -0.0239 H   0  0  0  0  0  0  0  0  0  0  0  0
   -1.0920    0.5225    0.9188 H   0  0  0  0  0  0  0  0  0  0  0  0
    1.2740   -0.3620   -0.8520 H   0  0  0  0  0  0  0  0  0  0  0  0
  1  2  1  0
  1  4  1  0
  1  5  1  0
  1  6  1  0
  2  3  2  0
  2  7  1  0
M  END
>  <reaction>  (3) 
rxn_1121

>  <mol_properties>  (3) 
{"0": {"label": "a_hydrogen", "atom_type": "H0"}, "2": {"label": "acceptor", "atom_type": "CS"}}

>  <type>  (3) 
r2h

$$$$

     RDKit          3D

 21 19  0  0  0  0  0  0  0  0999 V2000
    0.2971   -2.6795   -1.0621 C   0  0  0  0  0  0  0  0  0  0  0  0
   -0.5518   -2.0573   -0.2428 C   0  0  0  0  0  0  0  0  0  0  0  0
   -0.2202   -1.0557    0.7784 C   0  0  0  0  0  0  0  0  0  0  0  0
    1.2435   -0.8426    1.0837 C   0  0  0  0  0  0  0  0  0  0  0  0
   -1.1090   -1.0766    2.0044 C   0  0  0  0  0  0  0  0  0  0  0  0
   -0.0597   -3.3826   -1.8036 H   0  0  0  0  0  0  0  0  0  0  0  0
    1.3678   -2.5234   -1.0122 H   0  0  0  0  0  0  0  0  0  0  0  0
   -1.6124   -2.2795   -0.3426 H   0  0  0  0  0  0  0  0  0  0  0  0
   -0.5661    0.0798    0.2334 H   0  0  0  0  0  0  0  0  0  0  0  0
    1.8206   -0.6331    0.1811 H   0  0  0  0  0  0  0  0  0  0  0  0
    1.6775   -1.7271    1.5611 H   0  0  0  0  0  0  0  0  0  0  0  0
    1.3691    0.0035    1.7612 H   0  0  0  0  0  0  0  0  0  0  0  0
   -0.8495   -1.9133    2.6612 H   0  0  0  0  0  0  0  0  0  0  0  0
   -2.1612   -1.1803    1.7320 H   0  0  0  0  0  0  0  0  0  0  0  0
   -0.9960   -0.1540    2.5776 H   0  0  0  0  0  0  0  0  0  0  0  0
   -1.0433    1.1504   -1.7816 C   0  0  0  0  0  0  0  0  0  0  0  0
   -0.7485    1.3440   -0.3458 C   0  0  0  0  0  3  0  0  0  0  0  0
   -0.4575    2.6380    0.5197 S   0  0  0  0  0  0  0  0  0  0  0  0
   -0.2925    0.4789   -2.2086 H   0  0  0  0  0  0  0  0  0  0  0  0
   -1.0689    2.0875   -2.3393 H   0  0  0  0  0  0  0  0  0  0  0  0
   -2.0006    0.6311   -1.8841 H   0  0  0  0  0  0  0  0  0  0  0  0
  1  2  2  3
  1  6  1  0
  1  7  1  0
  2  3  1  0
  2  8  1  0
  3  4  1  0
  3  5  1  0
  3  9  1  0
  4 10  1  0
  4 11  1  0
  4 12  1  0
  5 13  1  0
  5 14  1  0
  5 15  1  0
 16 17  1  0
 16 19  1  0
 16 20  1  0
 16 21  1  0
 17 18  2  0
M  RAD  1  17   2
M  END
>  <reaction>  (4) 
rxn_1121

>  <mol_properties>  (4) 
{"1": {"label": "*0", "atom_type": "Cd"}, "2": {"label": "*1", "atom_type": "Cs"}, "8": {"label": "*2", "atom_type": "H0"}, "16": {"label": "*3", "atom_type": "CS"}, "17": {"label": "*4", "atom_type": "S2d"}}

>  <type>  (4) 
ts

$$$$
