
     RDKit          3D

 12 11  0  0  0  0  0  0  0  0999 V2000
    1.2394   -0.3763   -0.3020 C   0  0  0  0  0  0  0  0  0  0  0  0
    0.1007    0.3023    0.4464 C   0  0  0  0  0  0  0  0  0  0  0  0
   -0.1187    2.0399   -0.0725 S   0  0  0  0  0  0  0  0  0  0  0  0
   -1.1974   -0.4877    0.3552 C   0  0  0  0  0  0  0  0  0  0  0  0
    2.1681    0.1849   -0.2048 H   0  0  0  0  0  0  0  0  0  0  0  0
    1.0031   -0.4606   -1.3656 H   0  0  0  0  0  0  0  0  0  0  0  0
    1.3994   -1.3856    0.0860 H   0  0  0  0  0  0  0  0  0  0  0  0
    0.3796    0.4050    1.4981 H   0  0  0  0  0  0  0  0  0  0  0  0
   -0.4500    1.7779   -1.3452 H   0  0  0  0  0  0  0  0  0  0  0  0
   -1.0545   -1.4978    0.7479 H   0  0  0  0  0  0  0  0  0  0  0  0
   -1.5206   -0.5759   -0.6849 H   0  0  0  0  0  0  0  0  0  0  0  0
   -1.9957   -0.0054    0.9183 H   0  0  0  0  0  0  0  0  0  0  0  0
  1  2  1  0
  1  5  1  0
  1  6  1  0
  1  7  1  0
  2  4  1  0
  2  3  1  0
  2  8  1  0
  3  9  1  0
  4 10  1  0
  4 11  1  0
  4 12  1  0
M  END
>  <reaction>  (1) 
rxn_1946

>  <mol_properties>  (1) 
{"1": {"label": "donator", "atom_type": "Cs"}, "7": {"label": "d_hydrogen", "atom_type": "H0"}}

>  <type>  (1) 
r1h

$$$$

     RDKit          3D

  6  5  0  0  0  0  0  0  0  0999 V2000
   -0.5118    0.0769    0.0368 C   0  0  0  0  0  0  0  0  0  0  0  0
    0.8160   -0.5497    0.0389 C   0  0  0  0  0  3  0  0  0  0  0  0
    2.3066   -0.1661   -0.2071 S   0  0  0  0  0  0  0  0  0  0  0  0
   -1.1526   -0.4457   -0.6778 H   0  0  0  0  0  0  0  0  0  0  0  0
   -0.4858    1.1429   -0.2095 H   0  0  0  0  0  0  0  0  0  0  0  0
   -0.9724   -0.0582    1.0186 H   0  0  0  0  0  0  0  0  0  0  0  0
  1  2  1  0
  1  4  1  0
  1  5  1  0
  1  6  1  0
  2  3  2  0
M  RAD  1   2   2
M  END
>  <reaction>  (2) 
rxn_1946

>  <mol_properties>  (2) 
{"1": {"label": "acceptor", "atom_type": "CS"}}

>  <type>  (2) 
r2

$$$$

     RDKit          3D

  7  6  0  0  0  0  0  0  0  0999 V2000
   -0.6782    0.0507    0.0301 C   0  0  0  0  0  0  0  0  0  0  0  0
    0.8092    0.0996    0.0213 C   0  0  0  0  0  0  0  0  0  0  0  0
    1.7473    0.7521    1.1507 S   0  0  0  0  0  0  0  0  0  0  0  0
   -1.0667    0.5456   -0.8653 H   0  0  0  0  0  0  0  0  0  0  0  0
   -1.0112   -0.9904   -0.0239 H   0  0  0  0  0  0  0  0  0  0  0  0
   -1.0920    0.5225    0.9188 H   0  0  0  0  0  0  0  0  0  0  0  0
    1.2740   -0.3620   -0.8520 H   0  0  0  0  0  0  0  0  0  0  0  0
  1  2  1  0
  1  4  1  0
  1  5  1  0
  1  6  1  0
  2  3  2  0
  2  7  1  0
M  END
>  <reaction>  (3) 
rxn_1946

>  <mol_properties>  (3) 
{"0": {"label": "a_hydrogen", "atom_type": "H0"}, "2": {"label": "acceptor", "atom_type": "CS"}}

>  <type>  (3) 
r2h

$$$$

     RDKit          3D

 18 16  0  0  0  0  0  0  0  0999 V2000
    1.1110    0.6651   -2.0376 C   0  0  0  0  0  0  0  0  0  0  0  0
    0.6457    1.1093   -0.6748 C   0  0  0  0  0  0  0  0  0  0  0  0
    1.6659    0.5864    0.7002 S   0  0  0  0  0  0  0  0  0  0  0  0
    0.3046    2.5755   -0.5589 C   0  0  0  0  0  0  0  0  0  0  0  0
    1.2232   -0.4192   -2.0881 H   0  0  0  0  0  0  0  0  0  0  0  0
    2.0725    1.1213   -2.2941 H   0  0  0  0  0  0  0  0  0  0  0  0
    0.3788    0.9572   -2.7939 H   0  0  0  0  0  0  0  0  0  0  0  0
   -0.5269    0.4713   -0.5224 H   0  0  0  0  0  0  0  0  0  0  0  0
    1.8105   -0.6906    0.3204 H   0  0  0  0  0  0  0  0  0  0  0  0
   -0.4580    2.8349   -1.2965 H   0  0  0  0  0  0  0  0  0  0  0  0
    1.1795    3.2057   -0.7489 H   0  0  0  0  0  0  0  0  0  0  0  0
   -0.0798    2.8235    0.4322 H   0  0  0  0  0  0  0  0  0  0  0  0
   -2.2804    0.1940    0.9660 C   0  0  0  0  0  0  0  0  0  0  0  0
   -1.6873   -0.1990   -0.3324 C   0  0  0  0  0  3  0  0  0  0  0  0
   -2.1462   -1.2704   -1.4109 S   0  0  0  0  0  0  0  0  0  0  0  0
   -1.5192    0.0998    1.7460 H   0  0  0  0  0  0  0  0  0  0  0  0
   -3.1602   -0.3959    1.2251 H   0  0  0  0  0  0  0  0  0  0  0  0
   -2.5486    1.2542    0.9268 H   0  0  0  0  0  0  0  0  0  0  0  0
  1  2  1  0
  1  5  1  0
  1  6  1  0
  1  7  1  0
  2  4  1  0
  2  3  1  0
  2  8  1  0
  3  9  1  0
  4 10  1  0
  4 11  1  0
  4 12  1  0
 13 14  1  0
 13 16  1  0
 13 17  1  0
 13 18  1  0
 14 15  2  0
M  RAD  1  14   2
M  END
>  <reaction>  (4) 
rxn_1946

>  <mol_properties>  (4) 
{"1": {"label": "*1", "atom_type": "Cs"}, "2": {"label": "*0", "atom_type": "S2s"}, "7": {"label": "*2", "atom_type": "H0"}, "13": {"label": "*3", "atom_type": "CS"}, "14": {"label": "*4", "atom_type": "S2d"}}

>  <type>  (4) 
ts

$$$$
