
     RDKit          3D

 19 20  0  0  0  0  0  0  0  0999 V2000
    1.1087   -0.4716   -0.9619 C   0  0  0  0  0  0  0  0  0  0  0  0
    0.9355    1.0407   -0.6470 C   0  0  0  0  0  0  0  0  0  0  0  0
   -0.0085    1.0377    0.5657 C   0  0  0  0  0  0  0  0  0  0  0  0
   -1.4093    0.6181    0.0927 C   0  0  0  0  0  0  0  0  0  0  0  0
   -1.2361   -0.8942   -0.2222 C   0  0  0  0  0  0  0  0  0  0  0  0
    0.2422   -1.1516    0.1099 C   0  0  0  0  0  0  0  0  0  0  0  0
    0.4537   -0.2211    1.3118 C   0  0  0  0  0  0  0  0  0  0  0  0
    2.1524   -0.7752   -0.8653 H   0  0  0  0  0  0  0  0  0  0  0  0
    0.7855   -0.7316   -1.9710 H   0  0  0  0  0  0  0  0  0  0  0  0
    1.8918    1.5001   -0.3916 H   0  0  0  0  0  0  0  0  0  0  0  0
    0.5184    1.6005   -1.4855 H   0  0  0  0  0  0  0  0  0  0  0  0
    0.0038    1.9661    1.1351 H   0  0  0  0  0  0  0  0  0  0  0  0
   -1.7351    1.1944   -0.7746 H   0  0  0  0  0  0  0  0  0  0  0  0
   -2.1465    0.7723    0.8824 H   0  0  0  0  0  0  0  0  0  0  0  0
   -1.4680   -1.1377   -1.2601 H   0  0  0  0  0  0  0  0  0  0  0  0
   -1.8859   -1.5030    0.4087 H   0  0  0  0  0  0  0  0  0  0  0  0
    0.4812   -2.2025    0.2673 H   0  0  0  0  0  0  0  0  0  0  0  0
    1.4942   -0.1701    1.6391 H   0  0  0  0  0  0  0  0  0  0  0  0
   -0.1779   -0.4714    2.1666 H   0  0  0  0  0  0  0  0  0  0  0  0
  1  2  1  0
  1  6  1  0
  1  8  1  0
  1  9  1  0
  2  3  1  0
  2 10  1  0
  2 11  1  0
  3  4  1  0
  3  7  1  0
  3 12  1  0
  4  5  1  0
  4 13  1  0
  4 14  1  0
  5  6  1  0
  5 15  1  0
  5 16  1  0
  6  7  1  0
  6 17  1  0
  7 18  1  0
  7 19  1  0
M  END
>  <reaction>  (1) 
rxn_547

>  <mol_properties>  (1) 
{"6": {"label": "donator", "atom_type": "Cs"}, "17": {"label": "d_hydrogen", "atom_type": "H0"}}

>  <type>  (1) 
r1h

$$$$

     RDKit          3D

 14 14  0  0  0  0  0  0  0  0999 V2000
    2.3111    0.1295    0.0255 C   0  0  0  0  0  0  0  0  0  0  0  0
    0.9132    0.0511    0.0101 C   0  0  0  0  0  0  0  0  0  0  0  0
    0.2446   -1.1981    0.0389 C   0  0  0  0  0  3  0  0  0  0  0  0
   -1.1306   -1.2689    0.0235 C   0  0  0  0  0  0  0  0  0  0  0  0
   -1.8967   -0.1062   -0.0209 C   0  0  0  0  0  0  0  0  0  0  0  0
   -1.2644    1.1347   -0.0499 C   0  0  0  0  0  0  0  0  0  0  0  0
    0.1101    1.2180   -0.0350 C   0  0  0  0  0  0  0  0  0  0  0  0
    2.9188   -0.7647    0.0599 H   0  0  0  0  0  0  0  0  0  0  0  0
    2.8158    1.0859    0.0034 H   0  0  0  0  0  0  0  0  0  0  0  0
    0.8353   -2.1058    0.0735 H   0  0  0  0  0  0  0  0  0  0  0  0
   -1.6191   -2.2351    0.0461 H   0  0  0  0  0  0  0  0  0  0  0  0
   -2.9772   -0.1668   -0.0328 H   0  0  0  0  0  0  0  0  0  0  0  0
   -1.8572    2.0404   -0.0845 H   0  0  0  0  0  0  0  0  0  0  0  0
    0.5964    2.1860   -0.0577 H   0  0  0  0  0  0  0  0  0  0  0  0
  1  2  2  3
  1  8  1  0
  1  9  1  0
  2  3  1  0
  2  7  1  0
  3  4  1  0
  3 10  1  0
  4  5  2  0
  4 11  1  0
  5  6  1  0
  5 12  1  0
  6  7  2  0
  6 13  1  0
  7 14  1  0
M  RAD  1   3   2
M  END
>  <reaction>  (2) 
rxn_547

>  <mol_properties>  (2) 
{"0": {"label": "acceptor", "atom_type": "Cs"}}

>  <type>  (2) 
r2

$$$$

     RDKit          3D

 15 15  0  0  0  0  0  0  0  0999 V2000
    2.2031   -0.2111   -0.1693 C   0  0  0  0  0  0  0  0  0  0  0  0
    0.7140   -0.0314   -0.0623 C   0  0  0  0  0  0  0  0  0  0  0  0
   -0.0114    0.5491   -1.0982 C   0  0  0  0  0  0  0  0  0  0  0  0
   -1.3882    0.6886   -1.0150 C   0  0  0  0  0  0  0  0  0  0  0  0
   -2.0661    0.2493    0.1118 C   0  0  0  0  0  0  0  0  0  0  0  0
   -1.3551   -0.3278    1.1528 C   0  0  0  0  0  0  0  0  0  0  0  0
    0.0216   -0.4648    1.0642 C   0  0  0  0  0  0  0  0  0  0  0  0
    2.6776   -0.1836    0.8122 H   0  0  0  0  0  0  0  0  0  0  0  0
    2.4446   -1.1749   -0.6249 H   0  0  0  0  0  0  0  0  0  0  0  0
    2.6532    0.5664   -0.7875 H   0  0  0  0  0  0  0  0  0  0  0  0
    0.5104    0.8989   -1.9819 H   0  0  0  0  0  0  0  0  0  0  0  0
   -1.9328    1.1452   -1.8322 H   0  0  0  0  0  0  0  0  0  0  0  0
   -3.1409    0.3597    0.1800 H   0  0  0  0  0  0  0  0  0  0  0  0
   -1.8736   -0.6702    2.0398 H   0  0  0  0  0  0  0  0  0  0  0  0
    0.5695   -0.9141    1.8849 H   0  0  0  0  0  0  0  0  0  0  0  0
  1  2  1  0
  1  8  1  0
  1  9  1  0
  1 10  1  0
  2  3  2  0
  2  7  1  0
  3  4  1  0
  3 11  1  0
  4  5  2  0
  4 12  1  0
  5  6  1  0
  5 13  1  0
  6  7  2  0
  6 14  1  0
  7 15  1  0
M  END
>  <reaction>  (3) 
rxn_547

>  <mol_properties>  (3) 
{"0": {"label": "acceptor", "atom_type": "Cs"}, "14": {"label": "a_hydrogen", "atom_type": "H0"}}

>  <type>  (3) 
r2h

$$$$

     RDKit          3D

 33 34  0  0  0  0  0  0  0  0999 V2000
   -1.4336    1.1417    1.1435 C   0  0  0  0  0  0  0  0  0  0  0  0
   -1.8697    0.4448   -0.0748 C   0  0  0  0  0  0  0  0  0  0  0  0
   -2.2810   -0.8890   -0.0368 C   0  0  0  0  0  0  0  0  0  0  0  0
   -2.5954   -1.5730   -1.1990 C   0  0  0  0  0  0  0  0  0  0  0  0
   -2.5087   -0.9376   -2.4294 C   0  0  0  0  0  0  0  0  0  0  0  0
   -2.1122    0.3916   -2.4833 C   0  0  0  0  0  0  0  0  0  0  0  0
   -1.7975    1.0733   -1.3207 C   0  0  0  0  0  0  0  0  0  0  0  0
   -1.7688    0.6869    2.0735 H   0  0  0  0  0  0  0  0  0  0  0  0
   -1.6029    2.2168    1.1377 H   0  0  0  0  0  0  0  0  0  0  0  0
   -2.3491   -1.3947    0.9197 H   0  0  0  0  0  0  0  0  0  0  0  0
   -2.9103   -2.6078   -1.1448 H   0  0  0  0  0  0  0  0  0  0  0  0
   -2.7525   -1.4721   -3.3385 H   0  0  0  0  0  0  0  0  0  0  0  0
   -2.0465    0.8985   -3.4381 H   0  0  0  0  0  0  0  0  0  0  0  0
   -1.4797    2.1085   -1.3724 H   0  0  0  0  0  0  0  0  0  0  0  0
    1.4198   -0.6812   -0.2929 C   0  0  0  0  0  0  0  0  0  0  0  0
    1.2455   -1.2921    1.1240 C   0  0  0  0  0  0  0  0  0  0  0  0
    1.7433   -0.1732    2.0529 C   0  0  0  0  0  0  0  0  0  0  0  0
    3.2712   -0.0368    1.8724 C   0  0  0  0  0  0  0  0  0  0  0  0
    3.4056    0.6191    0.4666 C   0  0  0  0  0  0  0  0  0  0  0  0
    1.9399    0.7381   -0.0024 C   0  0  0  0  0  0  0  0  0  0  0  0
    1.2657    1.0660    1.3186 C   0  0  0  0  0  3  0  0  0  0  0  0
    0.4711   -0.6526   -0.8277 H   0  0  0  0  0  0  0  0  0  0  0  0
    2.1256   -1.2436   -0.9059 H   0  0  0  0  0  0  0  0  0  0  0  0
    0.1955   -1.5157    1.3194 H   0  0  0  0  0  0  0  0  0  0  0  0
    1.8102   -2.2153    1.2607 H   0  0  0  0  0  0  0  0  0  0  0  0
    1.4294   -0.2788    3.0901 H   0  0  0  0  0  0  0  0  0  0  0  0
    3.7714   -1.0050    1.9348 H   0  0  0  0  0  0  0  0  0  0  0  0
    3.6973    0.6030    2.6464 H   0  0  0  0  0  0  0  0  0  0  0  0
    4.0034    0.0208   -0.2233 H   0  0  0  0  0  0  0  0  0  0  0  0
    3.8709    1.6035    0.5373 H   0  0  0  0  0  0  0  0  0  0  0  0
    1.7910    1.4441   -0.8174 H   0  0  0  0  0  0  0  0  0  0  0  0
   -0.1505    1.0684    1.2087 H   0  0  0  0  0  0  0  0  0  0  0  0
    1.4723    2.0375    1.7669 H   0  0  0  0  0  0  0  0  0  0  0  0
  1  2  1  0
  1  8  1  0
  1  9  1  0
  1 32  1  0
  2  3  2  0
  2  7  1  0
  3  4  1  0
  3 10  1  0
  4  5  2  0
  4 11  1  0
  5  6  1  0
  5 12  1  0
  6  7  2  0
  6 13  1  0
  7 14  1  0
 15 16  1  0
 15 20  1  0
 15 22  1  0
 15 23  1  0
 16 17  1  0
 16 24  1  0
 16 25  1  0
 17 18  1  0
 17 21  1  0
 17 26  1  0
 18 19  1  0
 18 27  1  0
 18 28  1  0
 19 20  1  0
 19 29  1  0
 19 30  1  0
 20 21  1  0
 20 31  1  0
 21 33  1  0
M  RAD  1  21   2
M  END
>  <reaction>  (4) 
rxn_547

>  <mol_properties>  (4) 
{"0": {"label": "*1", "atom_type": "Cs"}, "1": {"label": "*0", "atom_type": "Cd"}, "16": {"label": "*4", "atom_type": "Cs"}, "20": {"label": "*3", "atom_type": "Cs"}, "31": {"label": "*2", "atom_type": "H0"}}

>  <type>  (4) 
ts

$$$$
