
     RDKit          3D

 18 18  0  0  0  0  0  0  0  0999 V2000
   -2.4852    0.3210   -0.3966 C   0  0  0  0  0  0  0  0  0  0  0  0
   -1.5917   -0.2708    0.6941 C   0  0  0  0  0  0  0  0  0  0  0  0
   -0.1292   -0.1692    0.3493 C   0  0  0  0  0  0  0  0  0  0  0  0
    0.6099    0.9558    0.7015 C   0  0  0  0  0  0  0  0  0  0  0  0
    1.9447    1.0728    0.3458 C   0  0  0  0  0  0  0  0  0  0  0  0
    2.5646    0.0613   -0.3720 C   0  0  0  0  0  0  0  0  0  0  0  0
    1.8399   -1.0657   -0.7287 C   0  0  0  0  0  0  0  0  0  0  0  0
    0.5055   -1.1769   -0.3700 C   0  0  0  0  0  0  0  0  0  0  0  0
   -2.3325   -0.1971   -1.3452 H   0  0  0  0  0  0  0  0  0  0  0  0
   -2.2554    1.3763   -0.5546 H   0  0  0  0  0  0  0  0  0  0  0  0
   -3.5397    0.2376   -0.1280 H   0  0  0  0  0  0  0  0  0  0  0  0
   -1.7801    0.2462    1.6380 H   0  0  0  0  0  0  0  0  0  0  0  0
   -1.8568   -1.3190    0.8516 H   0  0  0  0  0  0  0  0  0  0  0  0
    0.1327    1.7497    1.2656 H   0  0  0  0  0  0  0  0  0  0  0  0
    2.5033    1.9550    0.6330 H   0  0  0  0  0  0  0  0  0  0  0  0
    3.6077    0.1491   -0.6484 H   0  0  0  0  0  0  0  0  0  0  0  0
    2.3163   -1.8632   -1.2854 H   0  0  0  0  0  0  0  0  0  0  0  0
   -0.0540   -2.0629   -0.6500 H   0  0  0  0  0  0  0  0  0  0  0  0
  1  2  1  0
  1  9  1  0
  1 10  1  0
  1 11  1  0
  2  3  1  0
  2 12  1  0
  2 13  1  0
  3  4  2  0
  3  8  1  0
  4  5  1  0
  4 14  1  0
  5  6  2  0
  5 15  1  0
  6  7  1  0
  6 16  1  0
  7  8  2  0
  7 17  1  0
  8 18  1  0
M  END
>  <reaction>  (1) 
rxn_1479

>  <mol_properties>  (1) 
{"1": {"label": "donator", "atom_type": "Cs"}, "11": {"label": "d_hydrogen", "atom_type": "H0"}}

>  <type>  (1) 
r1h

$$$$

     RDKit          3D

  7  6  0  0  0  0  0  0  0  0999 V2000
   -0.6201    0.0189   -0.0017 C   0  0  0  0  0  0  0  0  0  0  0  0
    0.8589   -0.0553    0.0500 C   0  0  0  0  0  3  0  0  0  0  0  0
   -1.0738   -0.9730   -0.0559 H   0  0  0  0  0  0  0  0  0  0  0  0
   -0.9680    0.5706   -0.8872 H   0  0  0  0  0  0  0  0  0  0  0  0
   -1.0303    0.5369    0.8678 H   0  0  0  0  0  0  0  0  0  0  0  0
    1.3939   -0.8386   -0.4695 H   0  0  0  0  0  0  0  0  0  0  0  0
    1.4394    0.7404    0.4965 H   0  0  0  0  0  0  0  0  0  0  0  0
  1  2  1  0
  1  3  1  0
  1  4  1  0
  1  5  1  0
  2  6  1  0
  2  7  1  0
M  RAD  1   2   2
M  END
>  <reaction>  (2) 
rxn_1479

>  <mol_properties>  (2) 
{"1": {"label": "acceptor", "atom_type": "Cs"}}

>  <type>  (2) 
r2

$$$$

     RDKit          3D

  8  7  0  0  0  0  0  0  0  0999 V2000
    0.7610    0.0250    0.0051 C   0  0  0  0  0  0  0  0  0  0  0  0
   -0.7610   -0.0250   -0.0051 C   0  0  0  0  0  0  0  0  0  0  0  0
    1.1904   -0.9237   -0.3217 H   0  0  0  0  0  0  0  0  0  0  0  0
    1.1359    0.8041   -0.6609 H   0  0  0  0  0  0  0  0  0  0  0  0
    1.1435    0.2336    1.0058 H   0  0  0  0  0  0  0  0  0  0  0  0
   -1.1435   -0.2336   -1.0058 H   0  0  0  0  0  0  0  0  0  0  0  0
   -1.1904    0.9237    0.3216 H   0  0  0  0  0  0  0  0  0  0  0  0
   -1.1359   -0.8041    0.6609 H   0  0  0  0  0  0  0  0  0  0  0  0
  1  2  1  0
  1  3  1  0
  1  4  1  0
  1  5  1  0
  2  6  1  0
  2  7  1  0
  2  8  1  0
M  END
>  <reaction>  (3) 
rxn_1479

>  <mol_properties>  (3) 
{"1": {"label": "acceptor", "atom_type": "Cs"}, "7": {"label": "a_hydrogen", "atom_type": "H0"}}

>  <type>  (3) 
r2h

$$$$

     RDKit          3D

 25 24  0  0  0  0  0  0  0  0999 V2000
   -1.4556   -2.2513    1.0653 C   0  0  0  0  0  0  0  0  0  0  0  0
   -0.7915   -2.9825   -0.0641 C   0  0  0  0  0  3  0  0  0  0  0  0
   -1.8968   -2.9442    1.7903 H   0  0  0  0  0  0  0  0  0  0  0  0
   -2.2577   -1.6054    0.7024 H   0  0  0  0  0  0  0  0  0  0  0  0
   -0.7431   -1.6219    1.6019 H   0  0  0  0  0  0  0  0  0  0  0  0
   -1.4513   -3.5166   -0.7442 H   0  0  0  0  0  0  0  0  0  0  0  0
    0.0966   -3.5539    0.1954 H   0  0  0  0  0  0  0  0  0  0  0  0
   -1.0061   -0.6587   -2.5272 C   0  0  0  0  0  0  0  0  0  0  0  0
    0.1176   -0.9203   -1.5530 C   0  0  0  0  0  0  0  0  0  0  0  0
    0.4302    0.1020   -0.5322 C   0  0  0  0  0  0  0  0  0  0  0  0
   -0.4651    1.1140   -0.1822 C   0  0  0  0  0  0  0  0  0  0  0  0
   -0.1682    2.0099    0.8333 C   0  0  0  0  0  0  0  0  0  0  0  0
    1.0284    1.9152    1.5260 C   0  0  0  0  0  0  0  0  0  0  0  0
    1.9318    0.9161    1.1880 C   0  0  0  0  0  0  0  0  0  0  0  0
    1.6352    0.0248    0.1732 C   0  0  0  0  0  0  0  0  0  0  0  0
   -0.8368    0.2537   -3.1060 H   0  0  0  0  0  0  0  0  0  0  0  0
   -1.9653   -0.5528   -2.0155 H   0  0  0  0  0  0  0  0  0  0  0  0
   -1.1013   -1.4887   -3.2281 H   0  0  0  0  0  0  0  0  0  0  0  0
   -0.2590   -1.9469   -0.8857 H   0  0  0  0  0  0  0  0  0  0  0  0
    1.0190   -1.2930   -2.0401 H   0  0  0  0  0  0  0  0  0  0  0  0
   -1.4060    1.2078   -0.7092 H   0  0  0  0  0  0  0  0  0  0  0  0
   -0.8785    2.7882    1.0843 H   0  0  0  0  0  0  0  0  0  0  0  0
    1.2585    2.6151    2.3191 H   0  0  0  0  0  0  0  0  0  0  0  0
    2.8729    0.8341    1.7179 H   0  0  0  0  0  0  0  0  0  0  0  0
    2.3456   -0.7535   -0.0831 H   0  0  0  0  0  0  0  0  0  0  0  0
  1  2  1  0
  1  3  1  0
  1  4  1  0
  1  5  1  0
  2  6  1  0
  2  7  1  0
  8  9  1  0
  8 16  1  0
  8 17  1  0
  8 18  1  0
  9 10  1  0
  9 19  1  0
  9 20  1  0
 10 11  2  0
 10 15  1  0
 11 12  1  0
 11 21  1  0
 12 13  2  0
 12 22  1  0
 13 14  1  0
 13 23  1  0
 14 15  2  0
 14 24  1  0
 15 25  1  0
M  RAD  1   2   2
M  END
>  <reaction>  (4) 
rxn_1479

>  <mol_properties>  (4) 
{"0": {"label": "*4", "atom_type": "Cs"}, "1": {"label": "*3", "atom_type": "Cs"}, "8": {"label": "*1", "atom_type": "Cs"}, "9": {"label": "*0", "atom_type": "Cd"}, "18": {"label": "*2", "atom_type": "H0"}}

>  <type>  (4) 
ts

$$$$
