
     RDKit          3D

 10  9  0  0  0  0  0  0  0  0999 V2000
    1.8334    0.0847   -0.1062 C   0  0  0  0  0  0  0  0  0  0  0  0
    0.5993   -0.4071   -0.0750 C   0  0  0  0  0  0  0  0  0  0  0  0
   -0.5993    0.4071    0.0750 C   0  0  0  0  0  0  0  0  0  0  0  0
   -1.8334   -0.0847    0.1062 C   0  0  0  0  0  0  0  0  0  0  0  0
    2.0179    1.1498   -0.0189 H   0  0  0  0  0  0  0  0  0  0  0  0
    2.6972   -0.5572   -0.2194 H   0  0  0  0  0  0  0  0  0  0  0  0
    0.4465   -1.4793   -0.1649 H   0  0  0  0  0  0  0  0  0  0  0  0
   -0.4465    1.4793    0.1649 H   0  0  0  0  0  0  0  0  0  0  0  0
   -2.0179   -1.1498    0.0189 H   0  0  0  0  0  0  0  0  0  0  0  0
   -2.6972    0.5572    0.2194 H   0  0  0  0  0  0  0  0  0  0  0  0
  1  2  2  3
  1  5  1  0
  1  6  1  0
  2  3  1  0
  2  7  1  0
  3  4  2  3
  3  8  1  0
  4  9  1  0
  4 10  1  0
M  END
>  <reaction>  (1) 
rxn_1652

>  <mol_properties>  (1) 
{"2": {"label": "donator", "atom_type": "Cd"}, "7": {"label": "d_hydrogen", "atom_type": "H0"}}

>  <type>  (1) 
r1h

$$$$

     RDKit          3D

 11 10  0  0  0  0  0  0  0  0999 V2000
    2.0591    0.2533   -0.1061 C   0  0  0  0  0  0  0  0  0  0  0  0
    0.8045   -0.3111   -0.1535 C   0  0  0  0  0  0  0  0  0  0  0  0
   -0.3816    0.3942   -0.1885 C   0  0  0  0  0  3  0  0  0  0  0  0
   -1.7316   -0.2294   -0.2396 C   0  0  0  0  0  0  0  0  0  0  0  0
    2.9505   -0.3576   -0.0805 H   0  0  0  0  0  0  0  0  0  0  0  0
    2.1872    1.3290   -0.0933 H   0  0  0  0  0  0  0  0  0  0  0  0
    0.7385   -1.3970   -0.1643 H   0  0  0  0  0  0  0  0  0  0  0  0
   -0.3340    1.4795   -0.1783 H   0  0  0  0  0  0  0  0  0  0  0  0
   -1.6704   -1.3186   -0.2461 H   0  0  0  0  0  0  0  0  0  0  0  0
   -2.3404    0.0713    0.6191 H   0  0  0  0  0  0  0  0  0  0  0  0
   -2.2805    0.0851   -1.1331 H   0  0  0  0  0  0  0  0  0  0  0  0
  1  2  2  3
  1  5  1  0
  1  6  1  0
  2  3  1  0
  2  7  1  0
  3  4  1  0
  3  8  1  0
  4  9  1  0
  4 10  1  0
  4 11  1  0
M  RAD  1   3   2
M  END
>  <reaction>  (2) 
rxn_1652

>  <mol_properties>  (2) 
{"2": {"label": "acceptor", "atom_type": "Cs"}}

>  <type>  (2) 
r2

$$$$

     RDKit          3D

 12 11  0  0  0  0  0  0  0  0999 V2000
    1.9877    0.1011    0.4814 C   0  0  0  0  0  0  0  0  0  0  0  0
    0.8179    0.5502    0.0525 C   0  0  0  0  0  0  0  0  0  0  0  0
   -0.2939   -0.2692   -0.5320 C   0  0  0  0  0  0  0  0  0  0  0  0
   -0.0292   -1.7631   -0.6328 C   0  0  0  0  0  0  0  0  0  0  0  0
    2.2522   -0.9490    0.4436 H   0  0  0  0  0  0  0  0  0  0  0  0
    2.7295    0.7757    0.8896 H   0  0  0  0  0  0  0  0  0  0  0  0
    0.6162    1.6164    0.1190 H   0  0  0  0  0  0  0  0  0  0  0  0
   -0.5268    0.1319   -1.5245 H   0  0  0  0  0  0  0  0  0  0  0  0
   -1.1959   -0.0938    0.0644 H   0  0  0  0  0  0  0  0  0  0  0  0
    0.1590   -2.1992    0.3502 H   0  0  0  0  0  0  0  0  0  0  0  0
    0.8382   -1.9701   -1.2626 H   0  0  0  0  0  0  0  0  0  0  0  0
   -0.8879   -2.2759   -1.0672 H   0  0  0  0  0  0  0  0  0  0  0  0
  1  2  2  3
  1  5  1  0
  1  6  1  0
  2  3  1  0
  2  7  1  0
  3  4  1  0
  3  8  1  0
  3  9  1  0
  4 10  1  0
  4 11  1  0
  4 12  1  0
M  END
>  <reaction>  (3) 
rxn_1652

>  <mol_properties>  (3) 
{"2": {"label": "acceptor", "atom_type": "Cs"}, "11": {"label": "a_hydrogen", "atom_type": "H0"}}

>  <type>  (3) 
r2h

$$$$

     RDKit          3D

 21 19  0  0  0  0  0  0  0  0999 V2000
   -0.0093    1.4961   -2.4229 C   0  0  0  0  0  0  0  0  0  0  0  0
   -0.7236    1.4265   -1.3026 C   0  0  0  0  0  0  0  0  0  0  0  0
   -0.1897    1.4351    0.0717 C   0  0  0  0  0  0  0  0  0  0  0  0
    1.2833    1.7118    0.2598 C   0  0  0  0  0  0  0  0  0  0  0  0
   -0.4871    1.4590   -3.3934 H   0  0  0  0  0  0  0  0  0  0  0  0
    1.0689    1.6040   -2.4123 H   0  0  0  0  0  0  0  0  0  0  0  0
   -1.8025    1.3249   -1.3825 H   0  0  0  0  0  0  0  0  0  0  0  0
   -0.8171    2.0307    0.7385 H   0  0  0  0  0  0  0  0  0  0  0  0
    1.5522    2.7049   -0.1099 H   0  0  0  0  0  0  0  0  0  0  0  0
    1.5497    1.6576    1.3155 H   0  0  0  0  0  0  0  0  0  0  0  0
    1.8943    0.9797   -0.2723 H   0  0  0  0  0  0  0  0  0  0  0  0
    0.6049   -2.0562   -0.6889 C   0  0  0  0  0  0  0  0  0  0  0  0
    0.1353   -2.1096    0.5539 C   0  0  0  0  0  0  0  0  0  0  0  0
   -0.4611   -0.9955    1.2522 C   0  0  0  0  0  3  0  0  0  0  0  0
   -1.0312   -0.9150    2.4369 C   0  0  0  0  0  0  0  0  0  0  0  0
    0.5559   -1.1445   -1.2731 H   0  0  0  0  0  0  0  0  0  0  0  0
    1.0417   -2.9279   -1.1586 H   0  0  0  0  0  0  0  0  0  0  0  0
    0.1928   -3.0455    1.1106 H   0  0  0  0  0  0  0  0  0  0  0  0
   -0.3776    0.2980    0.5343 H   0  0  0  0  0  0  0  0  0  0  0  0
   -1.1359   -1.7887    3.0786 H   0  0  0  0  0  0  0  0  0  0  0  0
   -1.4221    0.0213    2.8198 H   0  0  0  0  0  0  0  0  0  0  0  0
  1  2  2  3
  1  5  1  0
  1  6  1  0
  2  3  1  0
  2  7  1  0
  3  4  1  0
  3  8  1  0
  3 19  1  0
  4  9  1  0
  4 10  1  0
  4 11  1  0
 12 13  2  3
 12 16  1  0
 12 17  1  0
 13 14  1  0
 13 18  1  0
 14 15  2  3
 15 20  1  0
 15 21  1  0
M  RAD  1  14   2
M  END
>  <reaction>  (4) 
rxn_1652

>  <mol_properties>  (4) 
{"1": {"label": "*0", "atom_type": "Cd"}, "2": {"label": "*1", "atom_type": "Cs"}, "12": {"label": "*4", "atom_type": "Cd"}, "13": {"label": "*3", "atom_type": "Cd"}, "18": {"label": "*2", "atom_type": "H0"}}

>  <type>  (4) 
ts

$$$$
