
     RDKit          3D

  7  6  0  0  0  0  0  0  0  0999 V2000
   -0.6782    0.0507    0.0301 C   0  0  0  0  0  0  0  0  0  0  0  0
    0.8092    0.0996    0.0213 C   0  0  0  0  0  0  0  0  0  0  0  0
    1.7473    0.7521    1.1507 S   0  0  0  0  0  0  0  0  0  0  0  0
   -1.0667    0.5456   -0.8653 H   0  0  0  0  0  0  0  0  0  0  0  0
   -1.0112   -0.9904   -0.0239 H   0  0  0  0  0  0  0  0  0  0  0  0
   -1.0920    0.5225    0.9188 H   0  0  0  0  0  0  0  0  0  0  0  0
    1.2740   -0.3620   -0.8520 H   0  0  0  0  0  0  0  0  0  0  0  0
  1  2  1  0
  1  4  1  0
  1  5  1  0
  1  6  1  0
  2  3  2  0
  2  7  1  0
M  END
>  <reaction>  (1) 
rxn_1950

>  <mol_properties>  (1) 
{"0": {"label": "donator", "atom_type": "Cs"}, "3": {"label": "d_hydrogen", "atom_type": "H0"}}

>  <type>  (1) 
r1h

$$$$

     RDKit          3D

  1  0  0  0  0  0  0  0  0  0999 V2000
    0.0000    0.0000    0.0000 H   0  0  0  0  0 15  0  0  0  0  0  0
M  END
>  <reaction>  (2) 
rxn_1950

>  <mol_properties>  (2) 
{"0": {"label": "acceptor", "atom_type": "H0"}}

>  <type>  (2) 
r2

$$$$

     RDKit          3D

  2  1  0  0  0  0  0  0  0  0999 V2000
    0.0000    0.0000    0.3721 H   0  0  0  0  0  0  0  0  0  0  0  0
    0.0000    0.0000   -0.3721 H   0  0  0  0  0  0  0  0  0  0  0  0
  1  2  1  0
M  END
>  <reaction>  (3) 
rxn_1950

>  <mol_properties>  (3) 
{"0": {"label": "acceptor", "atom_type": "H0"}, "1": {"label": "a_hydrogen", "atom_type": "H0"}}

>  <type>  (3) 
r2h

$$$$

     RDKit          3D

  8  6  0  0  0  0  0  0  0  0999 V2000
   -1.8708    0.9430    2.6964 H   0  0  0  0  0 15  0  0  0  0  0  0
    0.0907    0.8503    1.4575 C   0  0  0  0  0  0  0  0  0  0  0  0
    0.0776   -0.3184    0.5750 C   0  0  0  0  0  0  0  0  0  0  0  0
   -0.2534   -0.2958   -1.0046 S   0  0  0  0  0  0  0  0  0  0  0  0
   -0.9414    0.8338    2.0817 H   0  0  0  0  0  0  0  0  0  0  0  0
    0.8464    0.8037    2.2416 H   0  0  0  0  0  0  0  0  0  0  0  0
    0.0799    1.8029    0.9338 H   0  0  0  0  0  0  0  0  0  0  0  0
    0.2861   -1.2714    1.0626 H   0  0  0  0  0  0  0  0  0  0  0  0
  2  3  1  0
  2  5  1  0
  2  6  1  0
  2  7  1  0
  3  4  2  0
  3  8  1  0
M  END
>  <reaction>  (4) 
rxn_1950

>  <mol_properties>  (4) 
{"0": {"label": "*1", "atom_type": "H0"}, "1": {"label": "*3", "atom_type": "Cs"}, "2": {"label": "*4", "atom_type": "CS"}, "4": {"label": "*2", "atom_type": "H0"}}

>  <type>  (4) 
ts

$$$$
