
     RDKit          3D

  9  8  0  0  0  0  0  0  0  0999 V2000
    1.1303   -0.2933   -0.7510 C   0  0  0  0  0  0  0  0  0  0  0  0
    0.2866    0.4560   -0.0588 C   0  0  0  0  0  0  0  0  0  0  0  0
   -0.9719   -0.0331    0.5823 C   0  0  0  0  0  0  0  0  0  0  0  0
    2.0274    0.1230   -1.1916 H   0  0  0  0  0  0  0  0  0  0  0  0
    0.9532   -1.3530   -0.9023 H   0  0  0  0  0  0  0  0  0  0  0  0
    0.5065    1.5132    0.0659 H   0  0  0  0  0  0  0  0  0  0  0  0
   -0.9526    0.1426    1.6610 H   0  0  0  0  0  0  0  0  0  0  0  0
   -1.1182   -1.1002    0.4106 H   0  0  0  0  0  0  0  0  0  0  0  0
   -1.8412    0.5010    0.1901 H   0  0  0  0  0  0  0  0  0  0  0  0
  1  2  2  3
  1  4  1  0
  1  5  1  0
  2  3  1  0
  2  6  1  0
  3  7  1  0
  3  8  1  0
  3  9  1  0
M  END
>  <reaction>  (1) 
rxn_100

>  <mol_properties>  (1) 
{"2": {"label": "donator", "atom_type": "Cs"}, "6": {"label": "d_hydrogen", "atom_type": "H0"}}

>  <type>  (1) 
r1h

$$$$

     RDKit          3D

  3  2  0  0  0  0  0  0  0  0999 V2000
    0.0002    0.4233    0.0000 N   0  0  0  0  0  2  0  0  0  0  0  0
   -0.8051   -0.2112    0.0000 H   0  0  0  0  0  0  0  0  0  0  0  0
    0.8049   -0.2121    0.0000 H   0  0  0  0  0  0  0  0  0  0  0  0
  1  2  1  0
  1  3  1  0
M  RAD  1   1   2
M  END
>  <reaction>  (2) 
rxn_100

>  <mol_properties>  (2) 
{"0": {"label": "acceptor", "atom_type": "N3s"}}

>  <type>  (2) 
r2

$$$$

     RDKit          3D

  4  3  0  0  0  0  0  0  0  0999 V2000
    0.0006   -0.0009    0.2762 N   0  0  0  0  0  0  0  0  0  0  0  0
   -0.4188    0.8439   -0.0883 H   0  0  0  0  0  0  0  0  0  0  0  0
   -0.5215   -0.7840   -0.0936 H   0  0  0  0  0  0  0  0  0  0  0  0
    0.9397   -0.0590   -0.0943 H   0  0  0  0  0  0  0  0  0  0  0  0
  1  2  1  0
  1  3  1  0
  1  4  1  0
M  END
>  <reaction>  (3) 
rxn_100

>  <mol_properties>  (3) 
{"0": {"label": "acceptor", "atom_type": "N3s"}, "3": {"label": "a_hydrogen", "atom_type": "H0"}}

>  <type>  (3) 
r2h

$$$$

     RDKit          3D

 12 10  0  0  0  0  0  0  0  0999 V2000
   -1.2226    0.3286    1.9730 N   0  0  0  0  0  2  0  0  0  0  0  0
   -1.5873    1.2840    1.9709 H   0  0  0  0  0  0  0  0  0  0  0  0
   -1.8273   -0.1692    1.3151 H   0  0  0  0  0  0  0  0  0  0  0  0
    0.4035   -0.9039   -1.6505 C   0  0  0  0  0  0  0  0  0  0  0  0
    0.9011   -0.5844   -0.4583 C   0  0  0  0  0  0  0  0  0  0  0  0
    0.6809    0.6959    0.2254 C   0  0  0  0  0  0  0  0  0  0  0  0
    0.5785   -1.8752   -2.0949 H   0  0  0  0  0  0  0  0  0  0  0  0
   -0.1870   -0.1974   -2.2240 H   0  0  0  0  0  0  0  0  0  0  0  0
    1.4860   -1.3244    0.0803 H   0  0  0  0  0  0  0  0  0  0  0  0
   -0.1429    0.4925    1.1359 H   0  0  0  0  0  0  0  0  0  0  0  0
    0.2579    1.4731   -0.4089 H   0  0  0  0  0  0  0  0  0  0  0  0
    1.5378    1.0589    0.7916 H   0  0  0  0  0  0  0  0  0  0  0  0
  1  2  1  0
  1  3  1  0
  4  5  2  3
  4  7  1  0
  4  8  1  0
  5  6  1  0
  5  9  1  0
  6 10  1  0
  6 11  1  0
  6 12  1  0
M  RAD  1   1   2
M  END
>  <reaction>  (4) 
rxn_100

>  <mol_properties>  (4) 
{"0": {"label": "*3", "atom_type": "N3s"}, "1": {"label": "*4", "atom_type": "H0"}, "4": {"label": "*0", "atom_type": "Cd"}, "5": {"label": "*1", "atom_type": "Cs"}, "9": {"label": "*2", "atom_type": "H0"}}

>  <type>  (4) 
ts

$$$$
