
     RDKit          3D

  6  5  0  0  0  0  0  0  0  0999 V2000
    0.6594    0.0438   -0.0050 C   0  0  0  0  0  0  0  0  0  0  0  0
   -0.6594   -0.0438    0.0050 C   0  0  0  0  0  0  0  0  0  0  0  0
    1.1706    0.8681   -0.4881 H   0  0  0  0  0  0  0  0  0  0  0  0
    1.2824   -0.7051    0.4696 H   0  0  0  0  0  0  0  0  0  0  0  0
   -1.2824    0.7051   -0.4696 H   0  0  0  0  0  0  0  0  0  0  0  0
   -1.1706   -0.8681    0.4881 H   0  0  0  0  0  0  0  0  0  0  0  0
  1  2  2  3
  1  3  1  0
  1  4  1  0
  2  5  1  0
  2  6  1  0
M  END
>  <reaction>  (1) 
rxn_1593

>  <mol_properties>  (1) 
{"1": {"label": "donator", "atom_type": "Cd"}, "4": {"label": "d_hydrogen", "atom_type": "H0"}}

>  <type>  (1) 
r1h

$$$$

     RDKit          3D

  7  6  0  0  0  0  0  0  0  0999 V2000
   -1.3496    0.0255    0.0758 C   0  0  0  0  0  0  0  0  0  0  0  0
   -0.0636   -0.0704   -0.0033 C   0  0  0  0  0  0  0  0  0  0  0  0
    1.2597   -0.1602   -0.0839 C   0  0  0  0  0  0  0  0  0  0  0  0
    2.2616    1.2090   -0.0064 S   0  0  0  0  0  1  0  0  0  0  0  0
   -1.8547   -0.0180    1.0345 H   0  0  0  0  0  0  0  0  0  0  0  0
   -1.9552    0.1601   -0.8138 H   0  0  0  0  0  0  0  0  0  0  0  0
    1.7017   -1.1460   -0.2029 H   0  0  0  0  0  0  0  0  0  0  0  0
  1  2  2  0
  1  5  1  0
  1  6  1  0
  2  3  2  0
  3  4  1  0
  3  7  1  0
M  RAD  1   4   2
M  END
>  <reaction>  (2) 
rxn_1593

>  <mol_properties>  (2) 
{"1": {"label": "acceptor", "atom_type": "Cd"}}

>  <type>  (2) 
r2

$$$$

     RDKit          3D

  8  7  0  0  0  0  0  0  0  0999 V2000
   -1.1617    0.0338    0.5053 C   0  0  0  0  0  0  0  0  0  0  0  0
   -0.1023    0.4503   -0.1863 C   0  0  0  0  0  0  0  0  0  0  0  0
    1.0978   -0.3557   -0.3104 C   0  0  0  0  0  0  0  0  0  0  0  0
    2.4251    0.0667   -1.1256 S   0  0  0  0  0  0  0  0  0  0  0  0
   -1.1653   -0.9292    1.0039 H   0  0  0  0  0  0  0  0  0  0  0  0
   -2.0546    0.6389    0.5948 H   0  0  0  0  0  0  0  0  0  0  0  0
   -0.0991    1.4132   -0.6847 H   0  0  0  0  0  0  0  0  0  0  0  0
    1.0601   -1.3180    0.2032 H   0  0  0  0  0  0  0  0  0  0  0  0
  1  2  2  3
  1  5  1  0
  1  6  1  0
  2  3  1  0
  2  7  1  0
  3  4  2  0
  3  8  1  0
M  END
>  <reaction>  (3) 
rxn_1593

>  <mol_properties>  (3) 
{"1": {"label": "acceptor", "atom_type": "Cd"}, "7": {"label": "a_hydrogen", "atom_type": "H0"}}

>  <type>  (3) 
r2h

$$$$

     RDKit          3D

 13 11  0  0  0  0  0  0  0  0999 V2000
   -1.7028    0.5410    1.7229 C   0  0  0  0  0  0  0  0  0  0  0  0
   -0.7653    0.3648    0.8036 C   0  0  0  0  0  0  0  0  0  0  0  0
    0.4919    1.0671    0.7449 C   0  0  0  0  0  0  0  0  0  0  0  0
    1.6548    0.8776   -0.3591 S   0  0  0  0  0  1  0  0  0  0  0  0
   -1.5800    1.2596    2.5303 H   0  0  0  0  0  0  0  0  0  0  0  0
   -2.6281   -0.0237    1.7064 H   0  0  0  0  0  0  0  0  0  0  0  0
    0.6346    1.7954    1.5495 H   0  0  0  0  0  0  0  0  0  0  0  0
   -0.5907   -1.7680   -1.9943 C   0  0  0  0  0  0  0  0  0  0  0  0
   -1.4049   -1.4666   -1.0103 C   0  0  0  0  0  0  0  0  0  0  0  0
    0.3713   -1.2784   -2.0990 H   0  0  0  0  0  0  0  0  0  0  0  0
   -0.8545   -2.5180   -2.7357 H   0  0  0  0  0  0  0  0  0  0  0  0
   -1.0331   -0.5507   -0.1419 H   0  0  0  0  0  0  0  0  0  0  0  0
   -2.3835   -1.8843   -0.8032 H   0  0  0  0  0  0  0  0  0  0  0  0
  1  2  2  0
  1  5  1  0
  1  6  1  0
  2  3  2  0
  3  4  1  0
  3  7  1  0
  8  9  2  3
  8 10  1  0
  8 11  1  0
  9 12  1  0
  9 13  1  0
M  RAD  1   4   2
M  END
>  <reaction>  (4) 
rxn_1593

>  <mol_properties>  (4) 
{"1": {"label": "*3", "atom_type": "Cdd"}, "2": {"label": "*4", "atom_type": "Cd"}, "7": {"label": "*0", "atom_type": "Cd"}, "8": {"label": "*1", "atom_type": "Cd"}, "11": {"label": "*2", "atom_type": "H0"}}

>  <type>  (4) 
ts

$$$$
