
     RDKit          3D

 25 26  0  0  0  0  0  0  0  0999 V2000
    2.0298   -1.1515    0.0571 C   0  0  0  0  0  0  0  0  0  0  0  0
    2.2278    0.2445    0.6528 C   0  0  0  0  0  0  0  0  0  0  0  0
    1.2292    1.2625    0.0947 C   0  0  0  0  0  0  0  0  0  0  0  0
   -0.1869    0.7454    0.2762 C   0  0  0  0  0  0  0  0  0  0  0  0
   -1.3415    1.5501   -0.3122 C   0  0  0  0  0  0  0  0  0  0  0  0
   -2.5060    0.5338   -0.4178 C   0  0  0  0  0  0  0  0  0  0  0  0
   -1.8709   -0.8658   -0.2234 C   0  0  0  0  0  0  0  0  0  0  0  0
   -0.3715   -0.6265   -0.3693 C   0  0  0  0  0  0  0  0  0  0  0  0
    0.5898   -1.6500    0.2086 C   0  0  0  0  0  0  0  0  0  0  0  0
    2.2820   -1.1226   -1.0088 H   0  0  0  0  0  0  0  0  0  0  0  0
    2.7243   -1.8549    0.5221 H   0  0  0  0  0  0  0  0  0  0  0  0
    2.1030    0.1885    1.7400 H   0  0  0  0  0  0  0  0  0  0  0  0
    3.2514    0.5819    0.4743 H   0  0  0  0  0  0  0  0  0  0  0  0
    1.3611    2.2304    0.5855 H   0  0  0  0  0  0  0  0  0  0  0  0
    1.4198    1.4194   -0.9737 H   0  0  0  0  0  0  0  0  0  0  0  0
   -0.3675    0.6209    1.3539 H   0  0  0  0  0  0  0  0  0  0  0  0
   -1.5992    2.4249    0.2862 H   0  0  0  0  0  0  0  0  0  0  0  0
   -1.0595    1.9116   -1.3055 H   0  0  0  0  0  0  0  0  0  0  0  0
   -3.2666    0.7244    0.3399 H   0  0  0  0  0  0  0  0  0  0  0  0
   -3.0030    0.6112   -1.3853 H   0  0  0  0  0  0  0  0  0  0  0  0
   -2.2549   -1.6039   -0.9288 H   0  0  0  0  0  0  0  0  0  0  0  0
   -2.0796   -1.2429    0.7821 H   0  0  0  0  0  0  0  0  0  0  0  0
   -0.1432   -0.5121   -1.4391 H   0  0  0  0  0  0  0  0  0  0  0  0
    0.4720   -2.6209   -0.2799 H   0  0  0  0  0  0  0  0  0  0  0  0
    0.3601   -1.7986    1.2704 H   0  0  0  0  0  0  0  0  0  0  0  0
  1  2  1  0
  1  9  1  0
  1 10  1  0
  1 11  1  0
  2  3  1  0
  2 12  1  0
  2 13  1  0
  3  4  1  0
  3 14  1  0
  3 15  1  0
  4  5  1  0
  4  8  1  0
  4 16  1  0
  5  6  1  0
  5 17  1  0
  5 18  1  0
  6  7  1  0
  6 19  1  0
  6 20  1  0
  7  8  1  0
  7 21  1  0
  7 22  1  0
  8  9  1  0
  8 23  1  0
  9 24  1  0
  9 25  1  0
M  END
>  <reaction>  (1) 
rxn_601

>  <mol_properties>  (1) 
{"5": {"label": "donator", "atom_type": "Cs"}, "18": {"label": "d_hydrogen", "atom_type": "H0"}}

>  <type>  (1) 
r1h

$$$$

     RDKit          3D

 10  9  0  0  0  0  0  0  0  0999 V2000
    1.2930    0.1441    0.3288 C   0  0  0  0  0  0  0  0  0  0  0  0
   -0.0374   -0.1647    0.9100 C   0  0  0  0  0  3  0  0  0  0  0  0
   -1.2664    0.4569    0.3567 C   0  0  0  0  0  0  0  0  0  0  0  0
    1.4384    1.2242    0.2174 H   0  0  0  0  0  0  0  0  0  0  0  0
    2.1077   -0.2477    0.9385 H   0  0  0  0  0  0  0  0  0  0  0  0
    1.4057   -0.2836   -0.6789 H   0  0  0  0  0  0  0  0  0  0  0  0
   -0.1309   -0.9912    1.6030 H   0  0  0  0  0  0  0  0  0  0  0  0
   -1.5005    0.0716   -0.6471 H   0  0  0  0  0  0  0  0  0  0  0  0
   -2.1382    0.2713    0.9849 H   0  0  0  0  0  0  0  0  0  0  0  0
   -1.1497    1.5406    0.2456 H   0  0  0  0  0  0  0  0  0  0  0  0
  1  2  1  0
  1  4  1  0
  1  5  1  0
  1  6  1  0
  2  3  1  0
  2  7  1  0
  3  8  1  0
  3  9  1  0
  3 10  1  0
M  RAD  1   2   2
M  END
>  <reaction>  (2) 
rxn_601

>  <mol_properties>  (2) 
{"1": {"label": "acceptor", "atom_type": "Cs"}}

>  <type>  (2) 
r2

$$$$

     RDKit          3D

 11 10  0  0  0  0  0  0  0  0999 V2000
   -1.2710    0.1907   -0.2084 C   0  0  0  0  0  0  0  0  0  0  0  0
    0.0202   -0.6130   -0.2928 C   0  0  0  0  0  0  0  0  0  0  0  0
    0.1086   -1.6953    0.7756 C   0  0  0  0  0  0  0  0  0  0  0  0
   -1.3607    0.6851    0.7620 H   0  0  0  0  0  0  0  0  0  0  0  0
   -2.1429   -0.4567   -0.3299 H   0  0  0  0  0  0  0  0  0  0  0  0
   -1.3158    0.9602   -0.9809 H   0  0  0  0  0  0  0  0  0  0  0  0
    0.8757    0.0616   -0.1992 H   0  0  0  0  0  0  0  0  0  0  0  0
    0.0997   -1.0712   -1.2825 H   0  0  0  0  0  0  0  0  0  0  0  0
   -0.7198   -2.4022    0.6850 H   0  0  0  0  0  0  0  0  0  0  0  0
    1.0395   -2.2596    0.6989 H   0  0  0  0  0  0  0  0  0  0  0  0
    0.0624   -1.2603    1.7770 H   0  0  0  0  0  0  0  0  0  0  0  0
  1  2  1  0
  1  4  1  0
  1  5  1  0
  1  6  1  0
  2  3  1  0
  2  7  1  0
  2  8  1  0
  3  9  1  0
  3 10  1  0
  3 11  1  0
M  END
>  <reaction>  (3) 
rxn_601

>  <mol_properties>  (3) 
{"1": {"label": "acceptor", "atom_type": "Cs"}, "10": {"label": "a_hydrogen", "atom_type": "H0"}}

>  <type>  (3) 
r2h

$$$$

     RDKit          3D

 35 35  0  0  0  0  0  0  0  0999 V2000
    1.0505    3.9740    1.0313 C   0  0  0  0  0  0  0  0  0  0  0  0
    0.0416    3.2357    0.1917 C   0  0  0  0  0  3  0  0  0  0  0  0
   -1.1538    2.6925    0.9296 C   0  0  0  0  0  0  0  0  0  0  0  0
    1.4009    3.3502    1.8584 H   0  0  0  0  0  0  0  0  0  0  0  0
    1.9211    4.2699    0.4433 H   0  0  0  0  0  0  0  0  0  0  0  0
    0.6222    4.8828    1.4699 H   0  0  0  0  0  0  0  0  0  0  0  0
   -0.2267    3.7670   -0.7224 H   0  0  0  0  0  0  0  0  0  0  0  0
   -1.7642    3.4984    1.3538 H   0  0  0  0  0  0  0  0  0  0  0  0
   -1.7974    2.1024    0.2742 H   0  0  0  0  0  0  0  0  0  0  0  0
   -0.8427    2.0517    1.7593 H   0  0  0  0  0  0  0  0  0  0  0  0
   -1.2081   -3.0632   -0.6862 C   0  0  0  0  0  0  0  0  0  0  0  0
   -1.0861   -2.8410    0.8236 C   0  0  0  0  0  0  0  0  0  0  0  0
    0.1724   -2.0523    1.1979 C   0  0  0  0  0  0  0  0  0  0  0  0
    0.2135   -0.7558    0.4099 C   0  0  0  0  0  0  0  0  0  0  0  0
    1.4279    0.1578    0.5436 C   0  0  0  0  0  0  0  0  0  0  0  0
    1.3292    1.0544   -0.6861 C   0  0  0  0  0  0  0  0  0  0  0  0
    0.4101    0.3686   -1.6982 C   0  0  0  0  0  0  0  0  0  0  0  0
    0.1529   -1.0142   -1.0953 C   0  0  0  0  0  0  0  0  0  0  0  0
   -1.1152   -1.7560   -1.4789 C   0  0  0  0  0  0  0  0  0  0  0  0
   -0.4029   -3.7303   -1.0137 H   0  0  0  0  0  0  0  0  0  0  0  0
   -2.1466   -3.5755   -0.9103 H   0  0  0  0  0  0  0  0  0  0  0  0
   -1.9643   -2.2871    1.1737 H   0  0  0  0  0  0  0  0  0  0  0  0
   -1.0982   -3.8027    1.3414 H   0  0  0  0  0  0  0  0  0  0  0  0
    0.1918   -1.8602    2.2740 H   0  0  0  0  0  0  0  0  0  0  0  0
    1.0645   -2.6453    0.9643 H   0  0  0  0  0  0  0  0  0  0  0  0
   -0.6786   -0.1706    0.6730 H   0  0  0  0  0  0  0  0  0  0  0  0
    1.4392    0.7229    1.4798 H   0  0  0  0  0  0  0  0  0  0  0  0
    2.3471   -0.4399    0.5215 H   0  0  0  0  0  0  0  0  0  0  0  0
    0.7036    2.1615   -0.2901 H   0  0  0  0  0  0  0  0  0  0  0  0
    2.2719    1.4372   -1.0714 H   0  0  0  0  0  0  0  0  0  0  0  0
    0.8421    0.3193   -2.6991 H   0  0  0  0  0  0  0  0  0  0  0  0
   -0.5380    0.9135   -1.7908 H   0  0  0  0  0  0  0  0  0  0  0  0
    1.0096   -1.6566   -1.3440 H   0  0  0  0  0  0  0  0  0  0  0  0
   -1.1426   -1.9619   -2.5522 H   0  0  0  0  0  0  0  0  0  0  0  0
   -1.9826   -1.1237   -1.2541 H   0  0  0  0  0  0  0  0  0  0  0  0
  1  2  1  0
  1  4  1  0
  1  5  1  0
  1  6  1  0
  2  3  1  0
  2  7  1  0
  3  8  1  0
  3  9  1  0
  3 10  1  0
 11 12  1  0
 11 19  1  0
 11 20  1  0
 11 21  1  0
 12 13  1  0
 12 22  1  0
 12 23  1  0
 13 14  1  0
 13 24  1  0
 13 25  1  0
 14 15  1  0
 14 18  1  0
 14 26  1  0
 15 16  1  0
 15 27  1  0
 15 28  1  0
 16 17  1  0
 16 29  1  0
 16 30  1  0
 17 18  1  0
 17 31  1  0
 17 32  1  0
 18 19  1  0
 18 33  1  0
 19 34  1  0
 19 35  1  0
M  RAD  1   2   2
M  END
>  <reaction>  (4) 
rxn_601

>  <mol_properties>  (4) 
{"0": {"label": "*4", "atom_type": "Cs"}, "1": {"label": "*3", "atom_type": "Cs"}, "14": {"label": "*0", "atom_type": "Cs"}, "15": {"label": "*1", "atom_type": "Cs"}, "28": {"label": "*2", "atom_type": "H0"}}

>  <type>  (4) 
ts

$$$$
