
     RDKit          3D

 16 15  0  0  0  0  0  0  0  0999 V2000
    1.7961   -0.3807    1.6176 C   0  0  0  0  0  0  0  0  0  0  0  0
    0.8562   -0.8708    0.8256 C   0  0  0  0  0  0  0  0  0  0  0  0
    0.0895   -0.0826   -0.2048 C   0  0  0  0  0  0  0  0  0  0  0  0
   -1.4061   -0.1111    0.0982 C   0  0  0  0  0  0  0  0  0  0  0  0
    0.4476   -0.5902   -1.5797 C   0  0  0  0  0  0  0  0  0  0  0  0
   -0.3793   -1.1113   -2.4728 C   0  0  0  0  0  0  0  0  0  0  0  0
    2.3110   -1.0032    2.3386 H   0  0  0  0  0  0  0  0  0  0  0  0
    2.0846    0.6643    1.5737 H   0  0  0  0  0  0  0  0  0  0  0  0
    0.5921   -1.9241    0.8925 H   0  0  0  0  0  0  0  0  0  0  0  0
    0.4358    0.9557   -0.1462 H   0  0  0  0  0  0  0  0  0  0  0  0
   -1.5968    0.3080    1.0865 H   0  0  0  0  0  0  0  0  0  0  0  0
   -1.9674    0.4693   -0.6359 H   0  0  0  0  0  0  0  0  0  0  0  0
   -1.7902   -1.1338    0.0883 H   0  0  0  0  0  0  0  0  0  0  0  0
    1.5049   -0.5197   -1.8214 H   0  0  0  0  0  0  0  0  0  0  0  0
   -1.4421   -1.2131   -2.2889 H   0  0  0  0  0  0  0  0  0  0  0  0
   -0.0162   -1.4558   -3.4328 H   0  0  0  0  0  0  0  0  0  0  0  0
  1  2  2  3
  1  7  1  0
  1  8  1  0
  2  3  1  0
  2  9  1  0
  3  4  1  0
  3  5  1  0
  3 10  1  0
  4 11  1  0
  4 12  1  0
  4 13  1  0
  5  6  2  3
  5 14  1  0
  6 15  1  0
  6 16  1  0
M  END
>  <reaction>  (1) 
rxn_1184

>  <mol_properties>  (1) 
{"2": {"label": "donator", "atom_type": "Cs"}, "9": {"label": "d_hydrogen", "atom_type": "H0"}}

>  <type>  (1) 
r1h

$$$$

     RDKit          3D

 17 17  0  0  0  0  0  0  0  0999 V2000
    2.7069    0.2860   -0.1817 C   0  0  0  0  0  0  0  0  0  0  0  0
    1.6304   -0.7245    0.0085 C   0  0  0  0  0  0  0  0  0  0  0  0
    1.4786   -1.8800   -0.7837 C   0  0  0  0  0  0  0  0  0  0  0  0
    0.4231   -2.7891   -0.5312 C   0  0  0  0  0  3  0  0  0  0  0  0
    0.2582   -3.9235   -1.2940 C   0  0  0  0  0  0  0  0  0  0  0  0
    1.1348   -4.2030   -2.3401 C   0  0  0  0  0  0  0  0  0  0  0  0
    2.1804   -3.3260   -2.6093 C   0  0  0  0  0  0  0  0  0  0  0  0
    2.3549   -2.1866   -1.8513 C   0  0  0  0  0  0  0  0  0  0  0  0
    2.6698    0.7343   -1.1808 H   0  0  0  0  0  0  0  0  0  0  0  0
    3.7029   -0.1584   -0.0766 H   0  0  0  0  0  0  0  0  0  0  0  0
    2.6250    1.0917    0.5463 H   0  0  0  0  0  0  0  0  0  0  0  0
    0.9136   -0.5677    0.8059 H   0  0  0  0  0  0  0  0  0  0  0  0
   -0.2629   -2.5783    0.2811 H   0  0  0  0  0  0  0  0  0  0  0  0
   -0.5582   -4.6017   -1.0785 H   0  0  0  0  0  0  0  0  0  0  0  0
    1.0033   -5.0952   -2.9384 H   0  0  0  0  0  0  0  0  0  0  0  0
    2.8650   -3.5382   -3.4214 H   0  0  0  0  0  0  0  0  0  0  0  0
    3.1750   -1.5169   -2.0772 H   0  0  0  0  0  0  0  0  0  0  0  0
  1  2  1  0
  1  9  1  0
  1 10  1  0
  1 11  1  0
  2  3  2  3
  2 12  1  0
  3  4  1  0
  3  8  1  0
  4  5  1  0
  4 13  1  0
  5  6  2  0
  5 14  1  0
  6  7  1  0
  6 15  1  0
  7  8  2  0
  7 16  1  0
  8 17  1  0
M  RAD  1   4   2
M  END
>  <reaction>  (2) 
rxn_1184

>  <mol_properties>  (2) 
{"1": {"label": "acceptor", "atom_type": "Cs"}}

>  <type>  (2) 
r2

$$$$

     RDKit          3D

 18 18  0  0  0  0  0  0  0  0999 V2000
   -2.4852    0.3210   -0.3966 C   0  0  0  0  0  0  0  0  0  0  0  0
   -1.5917   -0.2708    0.6941 C   0  0  0  0  0  0  0  0  0  0  0  0
   -0.1292   -0.1692    0.3493 C   0  0  0  0  0  0  0  0  0  0  0  0
    0.6099    0.9558    0.7015 C   0  0  0  0  0  0  0  0  0  0  0  0
    1.9447    1.0728    0.3458 C   0  0  0  0  0  0  0  0  0  0  0  0
    2.5646    0.0613   -0.3720 C   0  0  0  0  0  0  0  0  0  0  0  0
    1.8399   -1.0657   -0.7287 C   0  0  0  0  0  0  0  0  0  0  0  0
    0.5055   -1.1769   -0.3700 C   0  0  0  0  0  0  0  0  0  0  0  0
   -2.3325   -0.1971   -1.3452 H   0  0  0  0  0  0  0  0  0  0  0  0
   -2.2554    1.3763   -0.5546 H   0  0  0  0  0  0  0  0  0  0  0  0
   -3.5397    0.2376   -0.1280 H   0  0  0  0  0  0  0  0  0  0  0  0
   -1.7801    0.2462    1.6380 H   0  0  0  0  0  0  0  0  0  0  0  0
   -1.8568   -1.3190    0.8516 H   0  0  0  0  0  0  0  0  0  0  0  0
    0.1327    1.7497    1.2656 H   0  0  0  0  0  0  0  0  0  0  0  0
    2.5033    1.9550    0.6330 H   0  0  0  0  0  0  0  0  0  0  0  0
    3.6077    0.1491   -0.6484 H   0  0  0  0  0  0  0  0  0  0  0  0
    2.3163   -1.8632   -1.2854 H   0  0  0  0  0  0  0  0  0  0  0  0
   -0.0540   -2.0629   -0.6500 H   0  0  0  0  0  0  0  0  0  0  0  0
  1  2  1  0
  1  9  1  0
  1 10  1  0
  1 11  1  0
  2  3  1  0
  2 12  1  0
  2 13  1  0
  3  4  2  0
  3  8  1  0
  4  5  1  0
  4 14  1  0
  5  6  2  0
  5 15  1  0
  6  7  1  0
  6 16  1  0
  7  8  2  0
  7 17  1  0
  8 18  1  0
M  END
>  <reaction>  (3) 
rxn_1184

>  <mol_properties>  (3) 
{"0": {"label": "a_hydrogen", "atom_type": "H0"}, "2": {"label": "acceptor", "atom_type": "Cs"}}

>  <type>  (3) 
r2h

$$$$

     RDKit          3D

 33 32  0  0  0  0  0  0  0  0999 V2000
   -0.7643   -2.7029   -0.4465 C   0  0  0  0  0  0  0  0  0  0  0  0
   -1.2265   -2.0815    0.6373 C   0  0  0  0  0  0  0  0  0  0  0  0
   -0.4676   -1.1981    1.5423 C   0  0  0  0  0  0  0  0  0  0  0  0
    1.0388   -1.2410    1.4320 C   0  0  0  0  0  0  0  0  0  0  0  0
   -1.0375   -1.1088    2.9015 C   0  0  0  0  0  0  0  0  0  0  0  0
   -0.3757   -0.8837    4.0336 C   0  0  0  0  0  0  0  0  0  0  0  0
   -1.4208   -3.3078   -1.0585 H   0  0  0  0  0  0  0  0  0  0  0  0
    0.2711   -2.6390   -0.7562 H   0  0  0  0  0  0  0  0  0  0  0  0
   -2.2802   -2.1955    0.8810 H   0  0  0  0  0  0  0  0  0  0  0  0
   -0.7217   -0.0298    1.0532 H   0  0  0  0  0  0  0  0  0  0  0  0
    1.3593   -1.1180    0.3976 H   0  0  0  0  0  0  0  0  0  0  0  0
    1.4940   -0.4320    2.0042 H   0  0  0  0  0  0  0  0  0  0  0  0
    1.4307   -2.1905    1.8061 H   0  0  0  0  0  0  0  0  0  0  0  0
   -2.1191   -1.2127    2.9524 H   0  0  0  0  0  0  0  0  0  0  0  0
    0.7019   -0.7816    4.0657 H   0  0  0  0  0  0  0  0  0  0  0  0
   -0.9012   -0.8087    4.9767 H   0  0  0  0  0  0  0  0  0  0  0  0
   -2.3978    1.0661    0.0389 C   0  0  0  0  0  0  0  0  0  0  0  0
   -0.9523    1.2242    0.4162 C   0  0  0  0  0  0  0  0  0  0  0  0
    0.0880    1.2837   -0.6001 C   0  0  0  0  0  0  0  0  0  0  0  0
    1.3291    1.8627   -0.2976 C   0  0  0  0  0  3  0  0  0  0  0  0
    2.3612    1.8667   -1.2154 C   0  0  0  0  0  0  0  0  0  0  0  0
    2.1860    1.2897   -2.4673 C   0  0  0  0  0  0  0  0  0  0  0  0
    0.9637    0.7161   -2.7870 C   0  0  0  0  0  0  0  0  0  0  0  0
   -0.0723    0.7119   -1.8691 C   0  0  0  0  0  0  0  0  0  0  0  0
   -2.5637    0.1647   -0.5549 H   0  0  0  0  0  0  0  0  0  0  0  0
   -2.7536    1.9190   -0.5472 H   0  0  0  0  0  0  0  0  0  0  0  0
   -3.0183    0.9904    0.9328 H   0  0  0  0  0  0  0  0  0  0  0  0
   -0.7736    1.8744    1.2703 H   0  0  0  0  0  0  0  0  0  0  0  0
    1.4750    2.3101    0.6792 H   0  0  0  0  0  0  0  0  0  0  0  0
    3.3091    2.3222   -0.9566 H   0  0  0  0  0  0  0  0  0  0  0  0
    2.9940    1.2912   -3.1875 H   0  0  0  0  0  0  0  0  0  0  0  0
    0.8162    0.2663   -3.7611 H   0  0  0  0  0  0  0  0  0  0  0  0
   -1.0140    0.2505   -2.1354 H   0  0  0  0  0  0  0  0  0  0  0  0
  1  2  2  3
  1  7  1  0
  1  8  1  0
  2  3  1  0
  2  9  1  0
  3  4  1  0
  3  5  1  0
  3 10  1  0
  4 11  1  0
  4 12  1  0
  4 13  1  0
  5  6  2  3
  5 14  1  0
  6 15  1  0
  6 16  1  0
 17 18  1  0
 17 25  1  0
 17 26  1  0
 17 27  1  0
 18 19  2  3
 18 28  1  0
 19 20  1  0
 19 24  1  0
 20 21  1  0
 20 29  1  0
 21 22  2  0
 21 30  1  0
 22 23  1  0
 22 31  1  0
 23 24  2  0
 23 32  1  0
 24 33  1  0
M  RAD  1  20   2
M  END
>  <reaction>  (4) 
rxn_1184

>  <mol_properties>  (4) 
{"1": {"label": "*0", "atom_type": "Cd"}, "2": {"label": "*1", "atom_type": "Cs"}, "9": {"label": "*2", "atom_type": "H0"}, "17": {"label": "*3", "atom_type": "Cd"}, "18": {"label": "*4", "atom_type": "Cd"}}

>  <type>  (4) 
ts

$$$$
