
     RDKit          3D

 11 10  0  0  0  0  0  0  0  0999 V2000
   -1.2710    0.1907   -0.2084 C   0  0  0  0  0  0  0  0  0  0  0  0
    0.0202   -0.6130   -0.2928 C   0  0  0  0  0  0  0  0  0  0  0  0
    0.1086   -1.6953    0.7756 C   0  0  0  0  0  0  0  0  0  0  0  0
   -1.3607    0.6851    0.7620 H   0  0  0  0  0  0  0  0  0  0  0  0
   -2.1429   -0.4567   -0.3299 H   0  0  0  0  0  0  0  0  0  0  0  0
   -1.3158    0.9602   -0.9809 H   0  0  0  0  0  0  0  0  0  0  0  0
    0.8757    0.0616   -0.1992 H   0  0  0  0  0  0  0  0  0  0  0  0
    0.0997   -1.0712   -1.2825 H   0  0  0  0  0  0  0  0  0  0  0  0
   -0.7198   -2.4022    0.6850 H   0  0  0  0  0  0  0  0  0  0  0  0
    1.0395   -2.2596    0.6989 H   0  0  0  0  0  0  0  0  0  0  0  0
    0.0624   -1.2603    1.7770 H   0  0  0  0  0  0  0  0  0  0  0  0
  1  2  1  0
  1  4  1  0
  1  5  1  0
  1  6  1  0
  2  3  1  0
  2  7  1  0
  2  8  1  0
  3  9  1  0
  3 10  1  0
  3 11  1  0
M  END
>  <reaction>  (1) 
rxn_924

>  <mol_properties>  (1) 
{"2": {"label": "donator", "atom_type": "Cs"}, "3": {"label": "d_hydrogen", "atom_type": "H0"}}

>  <type>  (1) 
r1h

$$$$

     RDKit          3D

 17 17  0  0  0  0  0  0  0  0999 V2000
    2.7069    0.2860   -0.1817 C   0  0  0  0  0  0  0  0  0  0  0  0
    1.6304   -0.7245    0.0085 C   0  0  0  0  0  0  0  0  0  0  0  0
    1.4786   -1.8800   -0.7837 C   0  0  0  0  0  0  0  0  0  0  0  0
    0.4231   -2.7891   -0.5312 C   0  0  0  0  0  3  0  0  0  0  0  0
    0.2582   -3.9235   -1.2940 C   0  0  0  0  0  0  0  0  0  0  0  0
    1.1348   -4.2030   -2.3401 C   0  0  0  0  0  0  0  0  0  0  0  0
    2.1804   -3.3260   -2.6093 C   0  0  0  0  0  0  0  0  0  0  0  0
    2.3549   -2.1866   -1.8513 C   0  0  0  0  0  0  0  0  0  0  0  0
    2.6698    0.7343   -1.1808 H   0  0  0  0  0  0  0  0  0  0  0  0
    3.7029   -0.1584   -0.0766 H   0  0  0  0  0  0  0  0  0  0  0  0
    2.6250    1.0917    0.5463 H   0  0  0  0  0  0  0  0  0  0  0  0
    0.9136   -0.5677    0.8059 H   0  0  0  0  0  0  0  0  0  0  0  0
   -0.2629   -2.5783    0.2811 H   0  0  0  0  0  0  0  0  0  0  0  0
   -0.5582   -4.6017   -1.0785 H   0  0  0  0  0  0  0  0  0  0  0  0
    1.0033   -5.0952   -2.9384 H   0  0  0  0  0  0  0  0  0  0  0  0
    2.8650   -3.5382   -3.4214 H   0  0  0  0  0  0  0  0  0  0  0  0
    3.1750   -1.5169   -2.0772 H   0  0  0  0  0  0  0  0  0  0  0  0
  1  2  1  0
  1  9  1  0
  1 10  1  0
  1 11  1  0
  2  3  2  3
  2 12  1  0
  3  4  1  0
  3  8  1  0
  4  5  1  0
  4 13  1  0
  5  6  2  0
  5 14  1  0
  6  7  1  0
  6 15  1  0
  7  8  2  0
  7 16  1  0
  8 17  1  0
M  RAD  1   4   2
M  END
>  <reaction>  (2) 
rxn_924

>  <mol_properties>  (2) 
{"0": {"label": "acceptor", "atom_type": "Cs"}}

>  <type>  (2) 
r2

$$$$

     RDKit          3D

 18 18  0  0  0  0  0  0  0  0999 V2000
   -2.4852    0.3210   -0.3966 C   0  0  0  0  0  0  0  0  0  0  0  0
   -1.5917   -0.2708    0.6941 C   0  0  0  0  0  0  0  0  0  0  0  0
   -0.1292   -0.1692    0.3493 C   0  0  0  0  0  0  0  0  0  0  0  0
    0.6099    0.9558    0.7015 C   0  0  0  0  0  0  0  0  0  0  0  0
    1.9447    1.0728    0.3458 C   0  0  0  0  0  0  0  0  0  0  0  0
    2.5646    0.0613   -0.3720 C   0  0  0  0  0  0  0  0  0  0  0  0
    1.8399   -1.0657   -0.7287 C   0  0  0  0  0  0  0  0  0  0  0  0
    0.5055   -1.1769   -0.3700 C   0  0  0  0  0  0  0  0  0  0  0  0
   -2.3325   -0.1971   -1.3452 H   0  0  0  0  0  0  0  0  0  0  0  0
   -2.2554    1.3763   -0.5546 H   0  0  0  0  0  0  0  0  0  0  0  0
   -3.5397    0.2376   -0.1280 H   0  0  0  0  0  0  0  0  0  0  0  0
   -1.7801    0.2462    1.6380 H   0  0  0  0  0  0  0  0  0  0  0  0
   -1.8568   -1.3190    0.8516 H   0  0  0  0  0  0  0  0  0  0  0  0
    0.1327    1.7497    1.2656 H   0  0  0  0  0  0  0  0  0  0  0  0
    2.5033    1.9550    0.6330 H   0  0  0  0  0  0  0  0  0  0  0  0
    3.6077    0.1491   -0.6484 H   0  0  0  0  0  0  0  0  0  0  0  0
    2.3163   -1.8632   -1.2854 H   0  0  0  0  0  0  0  0  0  0  0  0
   -0.0540   -2.0629   -0.6500 H   0  0  0  0  0  0  0  0  0  0  0  0
  1  2  1  0
  1  9  1  0
  1 10  1  0
  1 11  1  0
  2  3  1  0
  2 12  1  0
  2 13  1  0
  3  4  2  0
  3  8  1  0
  4  5  1  0
  4 14  1  0
  5  6  2  0
  5 15  1  0
  6  7  1  0
  6 16  1  0
  7  8  2  0
  7 17  1  0
  8 18  1  0
M  END
>  <reaction>  (3) 
rxn_924

>  <mol_properties>  (3) 
{"0": {"label": "acceptor", "atom_type": "Cs"}, "8": {"label": "a_hydrogen", "atom_type": "H0"}}

>  <type>  (3) 
r2h

$$$$

     RDKit          3D

 28 27  0  0  0  0  0  0  0  0999 V2000
   -0.0619   -1.4358    0.4462 C   0  0  0  0  0  0  0  0  0  0  0  0
   -0.0891   -2.5787   -0.5400 C   0  0  0  0  0  0  0  0  0  0  0  0
    1.9259    0.5049   -1.3872 C   0  0  0  0  0  0  0  0  0  0  0  0
    2.4081    0.7887    1.1047 C   0  0  0  0  0  0  0  0  0  0  0  0
   -1.0623   -0.3589    0.3228 C   0  0  0  0  0  0  0  0  0  0  0  0
    2.2445   -0.1376   -0.0670 C   0  0  0  0  0  3  0  0  0  0  0  0
   -1.2991    0.4948    1.4059 C   0  0  0  0  0  0  0  0  0  0  0  0
   -1.7481   -0.1029   -0.8670 C   0  0  0  0  0  0  0  0  0  0  0  0
   -2.1766    1.5587    1.3048 C   0  0  0  0  0  0  0  0  0  0  0  0
   -2.8470    1.8008    0.1130 C   0  0  0  0  0  0  0  0  0  0  0  0
   -2.6290    0.9623   -0.9691 C   0  0  0  0  0  0  0  0  0  0  0  0
    1.0806   -0.8554    0.2375 H   0  0  0  0  0  0  0  0  0  0  0  0
    0.0500   -1.7693    1.4781 H   0  0  0  0  0  0  0  0  0  0  0  0
    0.0809   -2.2336   -1.5623 H   0  0  0  0  0  0  0  0  0  0  0  0
   -1.0476   -3.1057   -0.5245 H   0  0  0  0  0  0  0  0  0  0  0  0
    0.6950   -3.3000   -0.3068 H   0  0  0  0  0  0  0  0  0  0  0  0
    1.0279    1.1235   -1.3099 H   0  0  0  0  0  0  0  0  0  0  0  0
    1.7570   -0.2395   -2.1674 H   0  0  0  0  0  0  0  0  0  0  0  0
    2.7433    1.1547   -1.7223 H   0  0  0  0  0  0  0  0  0  0  0  0
    2.5368    0.2384    2.0386 H   0  0  0  0  0  0  0  0  0  0  0  0
    3.2827    1.4384    0.9808 H   0  0  0  0  0  0  0  0  0  0  0  0
    1.5338    1.4367    1.2090 H   0  0  0  0  0  0  0  0  0  0  0  0
    2.9961   -0.9250   -0.1224 H   0  0  0  0  0  0  0  0  0  0  0  0
   -0.7800    0.3135    2.3406 H   0  0  0  0  0  0  0  0  0  0  0  0
   -2.3420    2.2021    2.1603 H   0  0  0  0  0  0  0  0  0  0  0  0
   -3.5357    2.6319    0.0316 H   0  0  0  0  0  0  0  0  0  0  0  0
   -3.1500    1.1371   -1.9025 H   0  0  0  0  0  0  0  0  0  0  0  0
   -1.5945   -0.7439   -1.7256 H   0  0  0  0  0  0  0  0  0  0  0  0
  1  2  1  0
  1  5  1  0
  1 12  1  0
  1 13  1  0
  2 14  1  0
  2 15  1  0
  2 16  1  0
  3  6  1  0
  3 17  1  0
  3 18  1  0
  3 19  1  0
  4  6  1  0
  4 20  1  0
  4 21  1  0
  4 22  1  0
  5  7  2  0
  5  8  1  0
  6 23  1  0
  7  9  1  0
  7 24  1  0
  8 11  2  0
  8 28  1  0
  9 10  2  0
  9 25  1  0
 10 11  1  0
 10 26  1  0
 11 27  1  0
M  RAD  1   6   2
M  END
>  <reaction>  (4) 
rxn_924

>  <mol_properties>  (4) 
{"0": {"label": "*1", "atom_type": "Cs"}, "2": {"label": "*4", "atom_type": "Cs"}, "4": {"label": "*0", "atom_type": "Cd"}, "5": {"label": "*3", "atom_type": "Cs"}, "11": {"label": "*2", "atom_type": "H0"}}

>  <type>  (4) 
ts

$$$$
