
     RDKit          3D

  7  7  0  0  0  0  0  0  0  0999 V2000
    0.0194   -0.9489   -0.0769 O   0  0  0  0  0  0  0  0  0  0  0  0
    1.0462   -0.0829    0.0216 C   0  0  0  0  0  0  0  0  0  0  0  0
    0.6724    1.1224    0.2360 N   0  0  0  0  0  0  0  0  0  0  0  0
   -0.7174    1.0852    0.2894 N   0  0  0  0  0  0  0  0  0  0  0  0
   -1.0417   -0.1388    0.1018 C   0  0  0  0  0  0  0  0  0  0  0  0
    2.0476   -0.4640   -0.0840 H   0  0  0  0  0  0  0  0  0  0  0  0
   -2.0264   -0.5731    0.0725 H   0  0  0  0  0  0  0  0  0  0  0  0
  1  2  1  0
  1  5  1  0
  2  3  2  0
  2  6  1  0
  3  4  1  0
  4  5  2  0
  5  7  1  0
M  END
>  <reaction>  (1) 
rxn_3174

>  <mol_properties>  (1) 
{"1": {"label": "donator", "atom_type": "Cd"}, "5": {"label": "d_hydrogen", "atom_type": "H0"}}

>  <type>  (1) 
r1h

$$$$

     RDKit          3D

  6  6  0  0  0  0  0  0  0  0999 V2000
    1.9594    0.0134   -0.3734 N   0  0  0  0  0  2  0  0  0  0  0  0
    0.7437    0.0051   -0.0788 C   0  0  0  0  0  0  0  0  0  0  0  0
   -0.0745    1.0868    0.0233 O   0  0  0  0  0  0  0  0  0  0  0  0
   -1.3223    0.5972    0.3682 N   0  0  0  0  0  0  0  0  0  0  0  0
   -1.2899   -0.6150    0.4676 N   0  0  0  0  0  0  0  0  0  0  0  0
   -0.0165   -1.0874    0.2015 O   0  0  0  0  0  0  0  0  0  0  0  0
  1  2  2  0
  2  3  1  0
  2  6  1  0
  3  4  1  0
  4  5  2  0
  5  6  1  0
M  RAD  1   1   2
M  END
>  <reaction>  (2) 
rxn_3174

>  <mol_properties>  (2) 
{"0": {"label": "acceptor", "atom_type": "N3d"}}

>  <type>  (2) 
r2

$$$$

     RDKit          3D

  7  7  0  0  0  0  0  0  0  0999 V2000
    1.6064   -0.4313    0.1905 N   0  0  0  0  0  0  0  0  0  0  0  0
    0.3982   -0.1725    0.0701 C   0  0  0  0  0  0  0  0  0  0  0  0
   -0.6051   -1.0481    0.3497 O   0  0  0  0  0  0  0  0  0  0  0  0
   -1.7906   -0.4044    0.0958 N   0  0  0  0  0  0  0  0  0  0  0  0
   -1.5819    0.7348   -0.2956 N   0  0  0  0  0  0  0  0  0  0  0  0
   -0.2229    0.9708   -0.3436 O   0  0  0  0  0  0  0  0  0  0  0  0
    2.1958    0.3506   -0.0669 H   0  0  0  0  0  0  0  0  0  0  0  0
  1  2  2  3
  1  7  1  0
  2  3  1  0
  2  6  1  0
  3  4  1  0
  4  5  2  0
  5  6  1  0
M  END
>  <reaction>  (3) 
rxn_3174

>  <mol_properties>  (3) 
{"0": {"label": "acceptor", "atom_type": "N3d"}, "6": {"label": "a_hydrogen", "atom_type": "H0"}}

>  <type>  (3) 
r2h

$$$$

     RDKit          3D

 13 13  0  0  0  0  0  0  0  0999 V2000
    0.8430   -0.5675    1.3494 N   0  0  0  0  0  0  0  0  0  0  0  0
    0.2631   -1.4486    0.6761 C   0  0  0  0  0  0  0  0  0  0  0  0
    0.3526   -2.7758    0.9374 O   0  0  0  0  0  0  0  0  0  0  0  0
   -0.4119   -3.4225   -0.0104 N   0  0  0  0  0  0  0  0  0  0  0  0
   -0.9170   -2.6134   -0.7702 N   0  0  0  0  0  0  0  0  0  0  0  0
   -0.5423   -1.3313   -0.4098 O   0  0  0  0  0  0  0  0  0  0  0  0
    0.8958    2.0936   -0.7901 O   0  0  0  0  0  0  0  0  0  0  0  0
    0.1279    1.6259    0.2064 C   0  0  0  0  0  3  0  0  0  0  0  0
   -0.9572    2.2576    0.3941 N   0  0  0  0  0  0  0  0  0  0  0  0
   -0.9398    3.2878   -0.5627 N   0  0  0  0  0  0  0  0  0  0  0  0
    0.1513    3.1407   -1.2161 C   0  0  0  0  0  0  0  0  0  0  0  0
    0.6083    0.4711    0.9606 H   0  0  0  0  0  0  0  0  0  0  0  0
    0.5263    3.7354   -2.0317 H   0  0  0  0  0  0  0  0  0  0  0  0
  1  2  2  3
  1 12  1  0
  2  3  1  0
  2  6  1  0
  3  4  1  0
  4  5  2  0
  5  6  1  0
  7 11  1  0
  7  8  1  0
  8  9  2  0
  9 10  1  0
 10 11  2  0
 11 13  1  0
M  RAD  1   8   2
M  END
>  <reaction>  (4) 
rxn_3174

>  <mol_properties>  (4) 
{"0": {"label": "*1", "atom_type": "N3d"}, "1": {"label": "*0", "atom_type": "Cd"}, "6": {"label": "*4", "atom_type": "O2s"}, "7": {"label": "*3", "atom_type": "Cd"}, "11": {"label": "*2", "atom_type": "H0"}}

>  <type>  (4) 
ts

$$$$
