
     RDKit          3D

 18 18  0  0  0  0  0  0  0  0999 V2000
   -2.4852    0.3210   -0.3966 C   0  0  0  0  0  0  0  0  0  0  0  0
   -1.5917   -0.2708    0.6941 C   0  0  0  0  0  0  0  0  0  0  0  0
   -0.1292   -0.1692    0.3493 C   0  0  0  0  0  0  0  0  0  0  0  0
    0.6099    0.9558    0.7015 C   0  0  0  0  0  0  0  0  0  0  0  0
    1.9447    1.0728    0.3458 C   0  0  0  0  0  0  0  0  0  0  0  0
    2.5646    0.0613   -0.3720 C   0  0  0  0  0  0  0  0  0  0  0  0
    1.8399   -1.0657   -0.7287 C   0  0  0  0  0  0  0  0  0  0  0  0
    0.5055   -1.1769   -0.3700 C   0  0  0  0  0  0  0  0  0  0  0  0
   -2.3325   -0.1971   -1.3452 H   0  0  0  0  0  0  0  0  0  0  0  0
   -2.2554    1.3763   -0.5546 H   0  0  0  0  0  0  0  0  0  0  0  0
   -3.5397    0.2376   -0.1280 H   0  0  0  0  0  0  0  0  0  0  0  0
   -1.7801    0.2462    1.6380 H   0  0  0  0  0  0  0  0  0  0  0  0
   -1.8568   -1.3190    0.8516 H   0  0  0  0  0  0  0  0  0  0  0  0
    0.1327    1.7497    1.2656 H   0  0  0  0  0  0  0  0  0  0  0  0
    2.5033    1.9550    0.6330 H   0  0  0  0  0  0  0  0  0  0  0  0
    3.6077    0.1491   -0.6484 H   0  0  0  0  0  0  0  0  0  0  0  0
    2.3163   -1.8632   -1.2854 H   0  0  0  0  0  0  0  0  0  0  0  0
   -0.0540   -2.0629   -0.6500 H   0  0  0  0  0  0  0  0  0  0  0  0
  1  2  1  0
  1  9  1  0
  1 10  1  0
  1 11  1  0
  2  3  1  0
  2 12  1  0
  2 13  1  0
  3  4  2  0
  3  8  1  0
  4  5  1  0
  4 14  1  0
  5  6  2  0
  5 15  1  0
  6  7  1  0
  6 16  1  0
  7  8  2  0
  7 17  1  0
  8 18  1  0
M  END
>  <reaction>  (1) 
rxn_1494

>  <mol_properties>  (1) 
{"2": {"label": "donator", "atom_type": "Cs"}, "17": {"label": "d_hydrogen", "atom_type": "H0"}}

>  <type>  (1) 
r1h

$$$$

     RDKit          3D

  5  4  0  0  0  0  0  0  0  0999 V2000
    0.0397    0.7134    0.0000 C   0  0  0  0  0  3  0  0  0  0  0  0
    0.0458   -0.5870    0.0000 C   0  0  0  0  0  0  0  0  0  0  0  0
   -0.6871    1.5118    0.0000 H   0  0  0  0  0  0  0  0  0  0  0  0
   -0.8806   -1.1637    0.0000 H   0  0  0  0  0  0  0  0  0  0  0  0
    0.9690   -1.1600    0.0000 H   0  0  0  0  0  0  0  0  0  0  0  0
  1  2  2  3
  1  3  1  0
  2  4  1  0
  2  5  1  0
M  RAD  1   1   2
M  END
>  <reaction>  (2) 
rxn_1494

>  <mol_properties>  (2) 
{"0": {"label": "acceptor", "atom_type": "Cd"}}

>  <type>  (2) 
r2

$$$$

     RDKit          3D

  6  5  0  0  0  0  0  0  0  0999 V2000
    0.6594    0.0438   -0.0050 C   0  0  0  0  0  0  0  0  0  0  0  0
   -0.6594   -0.0438    0.0050 C   0  0  0  0  0  0  0  0  0  0  0  0
    1.1706    0.8681   -0.4881 H   0  0  0  0  0  0  0  0  0  0  0  0
    1.2824   -0.7051    0.4696 H   0  0  0  0  0  0  0  0  0  0  0  0
   -1.2824    0.7051   -0.4696 H   0  0  0  0  0  0  0  0  0  0  0  0
   -1.1706   -0.8681    0.4881 H   0  0  0  0  0  0  0  0  0  0  0  0
  1  2  2  3
  1  3  1  0
  1  4  1  0
  2  5  1  0
  2  6  1  0
M  END
>  <reaction>  (3) 
rxn_1494

>  <mol_properties>  (3) 
{"0": {"label": "acceptor", "atom_type": "Cd"}, "2": {"label": "a_hydrogen", "atom_type": "H0"}}

>  <type>  (3) 
r2h

$$$$

     RDKit          3D

 23 22  0  0  0  0  0  0  0  0999 V2000
   -0.4208    2.1572   -1.3841 C   0  0  0  0  0  0  0  0  0  0  0  0
    0.6070    0.3453    0.1286 C   0  0  0  0  0  0  0  0  0  0  0  0
   -0.3540    1.4655   -0.0403 C   0  0  0  0  0  0  0  0  0  0  0  0
    0.9868   -0.0478    1.4143 C   0  0  0  0  0  0  0  0  0  0  0  0
    1.1027   -0.3850   -0.9512 C   0  0  0  0  0  0  0  0  0  0  0  0
    1.8267   -1.1285    1.6151 C   0  0  0  0  0  0  0  0  0  0  0  0
    2.3105   -1.8465    0.5298 C   0  0  0  0  0  0  0  0  0  0  0  0
    1.9460   -1.4677   -0.7525 C   0  0  0  0  0  0  0  0  0  0  0  0
   -2.7298    0.1796    0.2643 C   0  0  0  0  0  3  0  0  0  0  0  0
   -2.5232   -1.1096    0.3669 C   0  0  0  0  0  0  0  0  0  0  0  0
   -0.7464    1.4751   -2.1714 H   0  0  0  0  0  0  0  0  0  0  0  0
   -1.1346    2.9809   -1.3514 H   0  0  0  0  0  0  0  0  0  0  0  0
    0.5520    2.5640   -1.6727 H   0  0  0  0  0  0  0  0  0  0  0  0
   -0.2753    2.1756    0.7842 H   0  0  0  0  0  0  0  0  0  0  0  0
    0.6084    0.5046    2.2670 H   0  0  0  0  0  0  0  0  0  0  0  0
    2.1069   -1.4123    2.6220 H   0  0  0  0  0  0  0  0  0  0  0  0
    2.9690   -2.6919    0.6837 H   0  0  0  0  0  0  0  0  0  0  0  0
    2.3201   -2.0183   -1.6067 H   0  0  0  0  0  0  0  0  0  0  0  0
    0.8294   -0.1078   -1.9611 H   0  0  0  0  0  0  0  0  0  0  0  0
   -1.4642    0.9694    0.1365 H   0  0  0  0  0  0  0  0  0  0  0  0
   -3.6561    0.7411    0.2544 H   0  0  0  0  0  0  0  0  0  0  0  0
   -1.5180   -1.5234    0.3614 H   0  0  0  0  0  0  0  0  0  0  0  0
   -3.3430   -1.8194    0.4631 H   0  0  0  0  0  0  0  0  0  0  0  0
  1  3  1  0
  1 11  1  0
  1 12  1  0
  1 13  1  0
  2  3  1  0
  2  4  2  0
  2  5  1  0
  3 14  1  0
  3 20  1  0
  4  6  1  0
  4 15  1  0
  5  8  2  0
  5 19  1  0
  6  7  2  0
  6 16  1  0
  7  8  1  0
  7 17  1  0
  8 18  1  0
  9 10  2  3
  9 21  1  0
 10 22  1  0
 10 23  1  0
M  RAD  1   9   2
M  END
>  <reaction>  (4) 
rxn_1494

>  <mol_properties>  (4) 
{"1": {"label": "*0", "atom_type": "Cd"}, "2": {"label": "*1", "atom_type": "Cs"}, "8": {"label": "*3", "atom_type": "Cd"}, "9": {"label": "*4", "atom_type": "Cd"}, "19": {"label": "*2", "atom_type": "H0"}}

>  <type>  (4) 
ts

$$$$
