
     RDKit          3D

 16 15  0  0  0  0  0  0  0  0999 V2000
    1.7961   -0.3807    1.6176 C   0  0  0  0  0  0  0  0  0  0  0  0
    0.8562   -0.8708    0.8256 C   0  0  0  0  0  0  0  0  0  0  0  0
    0.0895   -0.0826   -0.2048 C   0  0  0  0  0  0  0  0  0  0  0  0
   -1.4061   -0.1111    0.0982 C   0  0  0  0  0  0  0  0  0  0  0  0
    0.4476   -0.5902   -1.5797 C   0  0  0  0  0  0  0  0  0  0  0  0
   -0.3793   -1.1113   -2.4728 C   0  0  0  0  0  0  0  0  0  0  0  0
    2.3110   -1.0032    2.3386 H   0  0  0  0  0  0  0  0  0  0  0  0
    2.0846    0.6643    1.5737 H   0  0  0  0  0  0  0  0  0  0  0  0
    0.5921   -1.9241    0.8925 H   0  0  0  0  0  0  0  0  0  0  0  0
    0.4358    0.9557   -0.1462 H   0  0  0  0  0  0  0  0  0  0  0  0
   -1.5968    0.3080    1.0865 H   0  0  0  0  0  0  0  0  0  0  0  0
   -1.9674    0.4693   -0.6359 H   0  0  0  0  0  0  0  0  0  0  0  0
   -1.7902   -1.1338    0.0883 H   0  0  0  0  0  0  0  0  0  0  0  0
    1.5049   -0.5197   -1.8214 H   0  0  0  0  0  0  0  0  0  0  0  0
   -1.4421   -1.2131   -2.2889 H   0  0  0  0  0  0  0  0  0  0  0  0
   -0.0162   -1.4558   -3.4328 H   0  0  0  0  0  0  0  0  0  0  0  0
  1  2  2  3
  1  7  1  0
  1  8  1  0
  2  3  1  0
  2  9  1  0
  3  4  1  0
  3  5  1  0
  3 10  1  0
  4 11  1  0
  4 12  1  0
  4 13  1  0
  5  6  2  3
  5 14  1  0
  6 15  1  0
  6 16  1  0
M  END
>  <reaction>  (1) 
rxn_1192

>  <mol_properties>  (1) 
{"2": {"label": "donator", "atom_type": "Cs"}, "9": {"label": "d_hydrogen", "atom_type": "H0"}}

>  <type>  (1) 
r1h

$$$$

     RDKit          3D

  8  7  0  0  0  0  0  0  0  0999 V2000
   -1.0607    0.1793   -0.1423 C   0  0  0  0  0  0  0  0  0  0  0  0
    0.2796    0.0327    0.4820 C   0  0  0  0  0  3  0  0  0  0  0  0
    0.8817   -1.4663    1.0791 S   0  0  0  0  0  0  0  0  0  0  0  0
   -1.3043    1.2328   -0.2850 H   0  0  0  0  0  0  0  0  0  0  0  0
   -1.8444   -0.2641    0.4799 H   0  0  0  0  0  0  0  0  0  0  0  0
   -1.1164   -0.3100   -1.1237 H   0  0  0  0  0  0  0  0  0  0  0  0
    1.0449    0.7826    0.3391 H   0  0  0  0  0  0  0  0  0  0  0  0
   -0.2993   -2.0726    1.2718 H   0  0  0  0  0  0  0  0  0  0  0  0
  1  2  1  0
  1  4  1  0
  1  5  1  0
  1  6  1  0
  2  3  1  0
  2  7  1  0
  3  8  1  0
M  RAD  1   2   2
M  END
>  <reaction>  (2) 
rxn_1192

>  <mol_properties>  (2) 
{"1": {"label": "acceptor", "atom_type": "Cs"}}

>  <type>  (2) 
r2

$$$$

     RDKit          3D

  9  8  0  0  0  0  0  0  0  0999 V2000
   -0.8818   -0.3578    0.1297 C   0  0  0  0  0  0  0  0  0  0  0  0
    0.6153   -0.3021   -0.1188 C   0  0  0  0  0  0  0  0  0  0  0  0
    1.5354   -1.7170    0.5545 S   0  0  0  0  0  0  0  0  0  0  0  0
   -1.1018   -0.3317    1.1984 H   0  0  0  0  0  0  0  0  0  0  0  0
   -1.3114   -1.2723   -0.2799 H   0  0  0  0  0  0  0  0  0  0  0  0
   -1.3767    0.4976   -0.3363 H   0  0  0  0  0  0  0  0  0  0  0  0
    1.0467    0.6194    0.2718 H   0  0  0  0  0  0  0  0  0  0  0  0
    0.8295   -0.3275   -1.1882 H   0  0  0  0  0  0  0  0  0  0  0  0
    1.2306   -1.5077    1.8423 H   0  0  0  0  0  0  0  0  0  0  0  0
  1  2  1  0
  1  4  1  0
  1  5  1  0
  1  6  1  0
  2  3  1  0
  2  7  1  0
  2  8  1  0
  3  9  1  0
M  END
>  <reaction>  (3) 
rxn_1192

>  <mol_properties>  (3) 
{"1": {"label": "acceptor", "atom_type": "Cs"}, "8": {"label": "a_hydrogen", "atom_type": "H0"}}

>  <type>  (3) 
r2h

$$$$

     RDKit          3D

 24 22  0  0  0  0  0  0  0  0999 V2000
   -1.6038    1.5771   -0.9990 C   0  0  0  0  0  0  0  0  0  0  0  0
   -0.2355    1.5964   -0.3834 C   0  0  0  0  0  3  0  0  0  0  0  0
    1.1731    1.6407   -1.4358 S   0  0  0  0  0  0  0  0  0  0  0  0
   -2.3639    1.4741   -0.2217 H   0  0  0  0  0  0  0  0  0  0  0  0
   -1.7061    0.7343   -1.6876 H   0  0  0  0  0  0  0  0  0  0  0  0
   -1.8095    2.4929   -1.5605 H   0  0  0  0  0  0  0  0  0  0  0  0
   -0.0959    2.2888    0.4432 H   0  0  0  0  0  0  0  0  0  0  0  0
    0.7870    0.6542   -2.2590 H   0  0  0  0  0  0  0  0  0  0  0  0
    0.5913   -2.3130   -1.1008 C   0  0  0  0  0  0  0  0  0  0  0  0
   -0.3543   -1.7251   -0.3710 C   0  0  0  0  0  0  0  0  0  0  0  0
   -0.1566   -0.8573    0.8104 C   0  0  0  0  0  0  0  0  0  0  0  0
    1.2244   -0.8584    1.4262 C   0  0  0  0  0  0  0  0  0  0  0  0
   -1.3037   -0.8785    1.7460 C   0  0  0  0  0  0  0  0  0  0  0  0
   -1.2643   -0.7283    3.0666 C   0  0  0  0  0  0  0  0  0  0  0  0
    0.3320   -2.9074   -1.9675 H   0  0  0  0  0  0  0  0  0  0  0  0
    1.6433   -2.2391   -0.8553 H   0  0  0  0  0  0  0  0  0  0  0  0
   -1.3901   -1.8561   -0.6766 H   0  0  0  0  0  0  0  0  0  0  0  0
   -0.2152    0.2961    0.2988 H   0  0  0  0  0  0  0  0  0  0  0  0
    1.9837   -0.6494    0.6724 H   0  0  0  0  0  0  0  0  0  0  0  0
    1.3086   -0.0848    2.1901 H   0  0  0  0  0  0  0  0  0  0  0  0
    1.4503   -1.8231    1.8883 H   0  0  0  0  0  0  0  0  0  0  0  0
   -2.2758   -1.0068    1.2746 H   0  0  0  0  0  0  0  0  0  0  0  0
   -0.3353   -0.6097    3.6102 H   0  0  0  0  0  0  0  0  0  0  0  0
   -2.1745   -0.7340    3.6520 H   0  0  0  0  0  0  0  0  0  0  0  0
  1  2  1  0
  1  4  1  0
  1  5  1  0
  1  6  1  0
  2  3  1  0
  2  7  1  0
  3  8  1  0
  9 10  2  3
  9 15  1  0
  9 16  1  0
 10 11  1  0
 10 17  1  0
 11 12  1  0
 11 13  1  0
 11 18  1  0
 12 19  1  0
 12 20  1  0
 12 21  1  0
 13 14  2  3
 13 22  1  0
 14 23  1  0
 14 24  1  0
M  RAD  1   2   2
M  END
>  <reaction>  (4) 
rxn_1192

>  <mol_properties>  (4) 
{"1": {"label": "*3", "atom_type": "Cs"}, "2": {"label": "*4", "atom_type": "S2s"}, "9": {"label": "*0", "atom_type": "Cd"}, "10": {"label": "*1", "atom_type": "Cs"}, "17": {"label": "*2", "atom_type": "H0"}}

>  <type>  (4) 
ts

$$$$
