
     RDKit          3D

  9  8  0  0  0  0  0  0  0  0999 V2000
    1.1303   -0.2933   -0.7510 C   0  0  0  0  0  0  0  0  0  0  0  0
    0.2866    0.4560   -0.0588 C   0  0  0  0  0  0  0  0  0  0  0  0
   -0.9719   -0.0331    0.5823 C   0  0  0  0  0  0  0  0  0  0  0  0
    2.0274    0.1230   -1.1916 H   0  0  0  0  0  0  0  0  0  0  0  0
    0.9532   -1.3530   -0.9023 H   0  0  0  0  0  0  0  0  0  0  0  0
    0.5065    1.5132    0.0659 H   0  0  0  0  0  0  0  0  0  0  0  0
   -0.9526    0.1426    1.6610 H   0  0  0  0  0  0  0  0  0  0  0  0
   -1.1182   -1.1002    0.4106 H   0  0  0  0  0  0  0  0  0  0  0  0
   -1.8412    0.5010    0.1901 H   0  0  0  0  0  0  0  0  0  0  0  0
  1  2  2  3
  1  4  1  0
  1  5  1  0
  2  3  1  0
  2  6  1  0
  3  7  1  0
  3  8  1  0
  3  9  1  0
M  END
>  <reaction>  (1) 
rxn_999

>  <mol_properties>  (1) 
{"2": {"label": "donator", "atom_type": "Cs"}, "6": {"label": "d_hydrogen", "atom_type": "H0"}}

>  <type>  (1) 
r1h

$$$$

     RDKit          3D

 13 12  0  0  0  0  0  0  0  0999 V2000
   -1.3649   -0.5967   -0.3477 C   0  0  0  0  0  0  0  0  0  0  0  0
   -0.1601   -0.2776    0.4669 C   0  0  0  0  0  3  0  0  0  0  0  0
    1.1241   -0.9571    0.1414 C   0  0  0  0  0  0  0  0  0  0  0  0
   -0.1188    1.0130    1.2082 C   0  0  0  0  0  0  0  0  0  0  0  0
   -1.4265   -1.6632   -0.5770 H   0  0  0  0  0  0  0  0  0  0  0  0
   -2.2859   -0.3004    0.1602 H   0  0  0  0  0  0  0  0  0  0  0  0
   -1.3532   -0.0668   -1.3139 H   0  0  0  0  0  0  0  0  0  0  0  0
    1.6174   -0.4963   -0.7297 H   0  0  0  0  0  0  0  0  0  0  0  0
    0.9723   -2.0104   -0.1064 H   0  0  0  0  0  0  0  0  0  0  0  0
    1.8338   -0.8977    0.9701 H   0  0  0  0  0  0  0  0  0  0  0  0
   -1.0851    1.2507    1.6593 H   0  0  0  0  0  0  0  0  0  0  0  0
    0.6358    1.0009    1.9983 H   0  0  0  0  0  0  0  0  0  0  0  0
    0.1343    1.8546    0.5434 H   0  0  0  0  0  0  0  0  0  0  0  0
  1  2  1  0
  1  5  1  0
  1  6  1  0
  1  7  1  0
  2  3  1  0
  2  4  1  0
  3  8  1  0
  3  9  1  0
  3 10  1  0
  4 11  1  0
  4 12  1  0
  4 13  1  0
M  RAD  1   2   2
M  END
>  <reaction>  (2) 
rxn_999

>  <mol_properties>  (2) 
{"1": {"label": "acceptor", "atom_type": "Cs"}}

>  <type>  (2) 
r2

$$$$

     RDKit          3D

 14 13  0  0  0  0  0  0  0  0999 V2000
   -0.7647   -1.2352   -0.0349 C   0  0  0  0  0  0  0  0  0  0  0  0
    0.0570   -0.0126    0.3624 C   0  0  0  0  0  0  0  0  0  0  0  0
    1.4162   -0.0194   -0.3307 C   0  0  0  0  0  0  0  0  0  0  0  0
   -0.7022    1.2765    0.0630 C   0  0  0  0  0  0  0  0  0  0  0  0
   -0.2387   -2.1619    0.2038 H   0  0  0  0  0  0  0  0  0  0  0  0
   -0.9625   -1.2315   -1.1108 H   0  0  0  0  0  0  0  0  0  0  0  0
   -1.7273   -1.2512    0.4806 H   0  0  0  0  0  0  0  0  0  0  0  0
    0.2294   -0.0590    1.4432 H   0  0  0  0  0  0  0  0  0  0  0  0
    1.2933    0.0259   -1.4168 H   0  0  0  0  0  0  0  0  0  0  0  0
    2.0206    0.8382   -0.0278 H   0  0  0  0  0  0  0  0  0  0  0  0
    1.9768   -0.9268   -0.0965 H   0  0  0  0  0  0  0  0  0  0  0  0
   -1.6639    1.3000    0.5798 H   0  0  0  0  0  0  0  0  0  0  0  0
   -0.8976    1.3665   -1.0096 H   0  0  0  0  0  0  0  0  0  0  0  0
   -0.1314    2.1545    0.3723 H   0  0  0  0  0  0  0  0  0  0  0  0
  1  2  1  0
  1  5  1  0
  1  6  1  0
  1  7  1  0
  2  3  1  0
  2  4  1  0
  2  8  1  0
  3  9  1  0
  3 10  1  0
  3 11  1  0
  4 12  1  0
  4 13  1  0
  4 14  1  0
M  END
>  <reaction>  (3) 
rxn_999

>  <mol_properties>  (3) 
{"0": {"label": "a_hydrogen", "atom_type": "H0"}, "2": {"label": "acceptor", "atom_type": "Cs"}}

>  <type>  (3) 
r2h

$$$$

     RDKit          3D

 22 20  0  0  0  0  0  0  0  0999 V2000
    0.9799   -1.1606   -2.4311 C   0  0  0  0  0  0  0  0  0  0  0  0
    1.5318   -0.8529   -1.2534 C   0  0  0  0  0  0  0  0  0  0  0  0
    1.4718    0.4531   -0.6129 C   0  0  0  0  0  0  0  0  0  0  0  0
    1.0250   -2.1646   -2.8322 H   0  0  0  0  0  0  0  0  0  0  0  0
    0.4774   -0.4095   -3.0313 H   0  0  0  0  0  0  0  0  0  0  0  0
    2.0231   -1.6441   -0.6930 H   0  0  0  0  0  0  0  0  0  0  0  0
    0.4228    0.4455    0.1843 H   0  0  0  0  0  0  0  0  0  0  0  0
    1.2422    1.2844   -1.2774 H   0  0  0  0  0  0  0  0  0  0  0  0
    2.2862    0.6803    0.0710 H   0  0  0  0  0  0  0  0  0  0  0  0
   -0.6314    1.5382    1.8910 C   0  0  0  0  0  0  0  0  0  0  0  0
   -0.7318    0.3857    0.9272 C   0  0  0  0  0  3  0  0  0  0  0  0
   -0.6368   -0.9811    1.5509 C   0  0  0  0  0  0  0  0  0  0  0  0
   -1.8042    0.5210   -0.1214 C   0  0  0  0  0  0  0  0  0  0  0  0
    0.2438    1.4417    2.5371 H   0  0  0  0  0  0  0  0  0  0  0  0
   -0.5634    2.4925    1.3640 H   0  0  0  0  0  0  0  0  0  0  0  0
   -1.5152    1.5839    2.5397 H   0  0  0  0  0  0  0  0  0  0  0  0
   -1.5343   -1.2073    2.1398 H   0  0  0  0  0  0  0  0  0  0  0  0
    0.2234   -1.0550    2.2199 H   0  0  0  0  0  0  0  0  0  0  0  0
   -0.5421   -1.7545    0.7850 H   0  0  0  0  0  0  0  0  0  0  0  0
   -1.7524    1.4912   -0.6204 H   0  0  0  0  0  0  0  0  0  0  0  0
   -1.7096   -0.2591   -0.8800 H   0  0  0  0  0  0  0  0  0  0  0  0
   -2.8027    0.4320    0.3248 H   0  0  0  0  0  0  0  0  0  0  0  0
  1  2  2  3
  1  4  1  0
  1  5  1  0
  2  3  1  0
  2  6  1  0
  3  7  1  0
  3  8  1  0
  3  9  1  0
 10 11  1  0
 10 14  1  0
 10 15  1  0
 10 16  1  0
 11 12  1  0
 11 13  1  0
 12 17  1  0
 12 18  1  0
 12 19  1  0
 13 20  1  0
 13 21  1  0
 13 22  1  0
M  RAD  1  11   2
M  END
>  <reaction>  (4) 
rxn_999

>  <mol_properties>  (4) 
{"1": {"label": "*0", "atom_type": "Cd"}, "2": {"label": "*1", "atom_type": "Cs"}, "6": {"label": "*2", "atom_type": "H0"}, "9": {"label": "*4", "atom_type": "Cs"}, "10": {"label": "*3", "atom_type": "Cs"}}

>  <type>  (4) 
ts

$$$$
