
     RDKit          3D

 19 20  0  0  0  0  0  0  0  0999 V2000
    1.1087   -0.4716   -0.9619 C   0  0  0  0  0  0  0  0  0  0  0  0
    0.9355    1.0407   -0.6470 C   0  0  0  0  0  0  0  0  0  0  0  0
   -0.0085    1.0377    0.5657 C   0  0  0  0  0  0  0  0  0  0  0  0
   -1.4093    0.6181    0.0927 C   0  0  0  0  0  0  0  0  0  0  0  0
   -1.2361   -0.8942   -0.2222 C   0  0  0  0  0  0  0  0  0  0  0  0
    0.2422   -1.1516    0.1099 C   0  0  0  0  0  0  0  0  0  0  0  0
    0.4537   -0.2211    1.3118 C   0  0  0  0  0  0  0  0  0  0  0  0
    2.1524   -0.7752   -0.8653 H   0  0  0  0  0  0  0  0  0  0  0  0
    0.7855   -0.7316   -1.9710 H   0  0  0  0  0  0  0  0  0  0  0  0
    1.8918    1.5001   -0.3916 H   0  0  0  0  0  0  0  0  0  0  0  0
    0.5184    1.6005   -1.4855 H   0  0  0  0  0  0  0  0  0  0  0  0
    0.0038    1.9661    1.1351 H   0  0  0  0  0  0  0  0  0  0  0  0
   -1.7351    1.1944   -0.7746 H   0  0  0  0  0  0  0  0  0  0  0  0
   -2.1465    0.7723    0.8824 H   0  0  0  0  0  0  0  0  0  0  0  0
   -1.4680   -1.1377   -1.2601 H   0  0  0  0  0  0  0  0  0  0  0  0
   -1.8859   -1.5030    0.4087 H   0  0  0  0  0  0  0  0  0  0  0  0
    0.4812   -2.2025    0.2673 H   0  0  0  0  0  0  0  0  0  0  0  0
    1.4942   -0.1701    1.6391 H   0  0  0  0  0  0  0  0  0  0  0  0
   -0.1779   -0.4714    2.1666 H   0  0  0  0  0  0  0  0  0  0  0  0
  1  2  1  0
  1  6  1  0
  1  8  1  0
  1  9  1  0
  2  3  1  0
  2 10  1  0
  2 11  1  0
  3  4  1  0
  3  7  1  0
  3 12  1  0
  4  5  1  0
  4 13  1  0
  4 14  1  0
  5  6  1  0
  5 15  1  0
  5 16  1  0
  6  7  1  0
  6 17  1  0
  7 18  1  0
  7 19  1  0
M  END
>  <reaction>  (1) 
rxn_553

>  <mol_properties>  (1) 
{"6": {"label": "donator", "atom_type": "Cs"}, "17": {"label": "d_hydrogen", "atom_type": "H0"}}

>  <type>  (1) 
r1h

$$$$

     RDKit          3D

 11 11  0  0  0  0  0  0  0  0999 V2000
    0.1524   -1.5397    0.0698 C   0  0  0  0  0  3  0  0  0  0  0  0
   -1.1218   -1.0406    0.0516 C   0  0  0  0  0  0  0  0  0  0  0  0
   -1.2464    0.3470   -0.0114 C   0  0  0  0  0  0  0  0  0  0  0  0
   -0.1137    1.1487   -0.0521 C   0  0  0  0  0  0  0  0  0  0  0  0
    1.1542    0.5837   -0.0308 C   0  0  0  0  0  0  0  0  0  0  0  0
    1.3041   -0.8014    0.0319 C   0  0  0  0  0  0  0  0  0  0  0  0
   -1.9955   -1.6793    0.0840 H   0  0  0  0  0  0  0  0  0  0  0  0
   -2.2319    0.7966   -0.0284 H   0  0  0  0  0  0  0  0  0  0  0  0
   -0.2203    2.2248   -0.1009 H   0  0  0  0  0  0  0  0  0  0  0  0
    2.0325    1.2173   -0.0630 H   0  0  0  0  0  0  0  0  0  0  0  0
    2.2862   -1.2570    0.0492 H   0  0  0  0  0  0  0  0  0  0  0  0
  1  2  2  0
  1  6  1  0
  2  3  1  0
  2  7  1  0
  3  4  2  0
  3  8  1  0
  4  5  1  0
  4  9  1  0
  5  6  2  0
  5 10  1  0
  6 11  1  0
M  RAD  1   1   2
M  END
>  <reaction>  (2) 
rxn_553

>  <mol_properties>  (2) 
{"0": {"label": "acceptor", "atom_type": "Cd"}}

>  <type>  (2) 
r2

$$$$

     RDKit          3D

 12 12  0  0  0  0  0  0  0  0999 V2000
   -1.2385    0.6248   -0.0199 C   0  0  0  0  0  0  0  0  0  0  0  0
   -0.0779    1.3848   -0.0298 C   0  0  0  0  0  0  0  0  0  0  0  0
    1.1605    0.7600   -0.0100 C   0  0  0  0  0  0  0  0  0  0  0  0
    1.2385   -0.6248    0.0199 C   0  0  0  0  0  0  0  0  0  0  0  0
    0.0779   -1.3848    0.0298 C   0  0  0  0  0  0  0  0  0  0  0  0
   -1.1606   -0.7600    0.0100 C   0  0  0  0  0  0  0  0  0  0  0  0
   -2.2052    1.1125   -0.0354 H   0  0  0  0  0  0  0  0  0  0  0  0
   -0.1387    2.4657   -0.0531 H   0  0  0  0  0  0  0  0  0  0  0  0
    2.0664    1.3532   -0.0177 H   0  0  0  0  0  0  0  0  0  0  0  0
    2.2052   -1.1125    0.0354 H   0  0  0  0  0  0  0  0  0  0  0  0
    0.1387   -2.4657    0.0531 H   0  0  0  0  0  0  0  0  0  0  0  0
   -2.0664   -1.3532    0.0177 H   0  0  0  0  0  0  0  0  0  0  0  0
  1  2  2  0
  1  6  1  0
  1  7  1  0
  2  3  1  0
  2  8  1  0
  3  4  2  0
  3  9  1  0
  4  5  1  0
  4 10  1  0
  5  6  2  0
  5 11  1  0
  6 12  1  0
M  END
>  <reaction>  (3) 
rxn_553

>  <mol_properties>  (3) 
{"0": {"label": "acceptor", "atom_type": "Cd"}, "11": {"label": "a_hydrogen", "atom_type": "H0"}}

>  <type>  (3) 
r2h

$$$$

     RDKit          3D

 30 31  0  0  0  0  0  0  0  0999 V2000
   -1.3982    0.1700    0.1190 C   0  0  0  0  0  3  0  0  0  0  0  0
   -2.0633    0.1347   -1.0874 C   0  0  0  0  0  0  0  0  0  0  0  0
   -3.3325   -0.4322   -1.1324 C   0  0  0  0  0  0  0  0  0  0  0  0
   -3.9026   -0.9494    0.0228 C   0  0  0  0  0  0  0  0  0  0  0  0
   -3.2118   -0.9049    1.2260 C   0  0  0  0  0  0  0  0  0  0  0  0
   -1.9423   -0.3395    1.2780 C   0  0  0  0  0  0  0  0  0  0  0  0
   -1.6089    0.5393   -1.9846 H   0  0  0  0  0  0  0  0  0  0  0  0
   -3.8758   -0.4707   -2.0689 H   0  0  0  0  0  0  0  0  0  0  0  0
   -4.8906   -1.3907   -0.0151 H   0  0  0  0  0  0  0  0  0  0  0  0
   -3.6612   -1.3112    2.1242 H   0  0  0  0  0  0  0  0  0  0  0  0
   -1.3941   -0.3020    2.2125 H   0  0  0  0  0  0  0  0  0  0  0  0
    1.7387   -0.7911   -1.0263 C   0  0  0  0  0  0  0  0  0  0  0  0
    1.8163   -1.0952    0.4955 C   0  0  0  0  0  0  0  0  0  0  0  0
    1.9458    0.3013    1.1260 C   0  0  0  0  0  0  0  0  0  0  0  0
    3.3506    0.8498    0.8070 C   0  0  0  0  0  0  0  0  0  0  0  0
    3.2729    1.1543   -0.7167 C   0  0  0  0  0  0  0  0  0  0  0  0
    1.8332    0.7427   -1.0825 C   0  0  0  0  0  0  0  0  0  0  0  0
    1.0916    1.1431    0.1866 C   0  0  0  0  0  0  0  0  0  0  0  0
    0.7908   -1.1353   -1.4418 H   0  0  0  0  0  0  0  0  0  0  0  0
    2.5406   -1.2661   -1.5930 H   0  0  0  0  0  0  0  0  0  0  0  0
    0.9071   -1.5909    0.8379 H   0  0  0  0  0  0  0  0  0  0  0  0
    2.6605   -1.7354    0.7554 H   0  0  0  0  0  0  0  0  0  0  0  0
    1.6879    0.3388    2.1832 H   0  0  0  0  0  0  0  0  0  0  0  0
    4.1313    0.1281    1.0537 H   0  0  0  0  0  0  0  0  0  0  0  0
    3.5505    1.7574    1.3783 H   0  0  0  0  0  0  0  0  0  0  0  0
    4.0114    0.5978   -1.2964 H   0  0  0  0  0  0  0  0  0  0  0  0
    3.4337    2.2154   -0.9130 H   0  0  0  0  0  0  0  0  0  0  0  0
    1.4738    1.1776   -2.0138 H   0  0  0  0  0  0  0  0  0  0  0  0
   -0.1141    0.7160    0.1627 H   0  0  0  0  0  0  0  0  0  0  0  0
    1.0280    2.2100    0.4030 H   0  0  0  0  0  0  0  0  0  0  0  0
  1  2  2  0
  1  6  1  0
  2  3  1  0
  2  7  1  0
  3  4  2  0
  3  8  1  0
  4  5  1  0
  4  9  1  0
  5  6  2  0
  5 10  1  0
  6 11  1  0
 12 13  1  0
 12 17  1  0
 12 19  1  0
 12 20  1  0
 13 14  1  0
 13 21  1  0
 13 22  1  0
 14 15  1  0
 14 18  1  0
 14 23  1  0
 15 16  1  0
 15 24  1  0
 15 25  1  0
 16 17  1  0
 16 26  1  0
 16 27  1  0
 17 18  1  0
 17 28  1  0
 18 29  1  0
 18 30  1  0
M  RAD  1   1   2
M  END
>  <reaction>  (4) 
rxn_553

>  <mol_properties>  (4) 
{"0": {"label": "*3", "atom_type": "Cd"}, "1": {"label": "*4", "atom_type": "Cd"}, "13": {"label": "*0", "atom_type": "Cs"}, "17": {"label": "*1", "atom_type": "Cs"}, "28": {"label": "*2", "atom_type": "H0"}}

>  <type>  (4) 
ts

$$$$
