
     RDKit          3D

 25 26  0  0  0  0  0  0  0  0999 V2000
    2.0298   -1.1515    0.0571 C   0  0  0  0  0  0  0  0  0  0  0  0
    2.2278    0.2445    0.6528 C   0  0  0  0  0  0  0  0  0  0  0  0
    1.2292    1.2625    0.0947 C   0  0  0  0  0  0  0  0  0  0  0  0
   -0.1869    0.7454    0.2762 C   0  0  0  0  0  0  0  0  0  0  0  0
   -1.3415    1.5501   -0.3122 C   0  0  0  0  0  0  0  0  0  0  0  0
   -2.5060    0.5338   -0.4178 C   0  0  0  0  0  0  0  0  0  0  0  0
   -1.8709   -0.8658   -0.2234 C   0  0  0  0  0  0  0  0  0  0  0  0
   -0.3715   -0.6265   -0.3693 C   0  0  0  0  0  0  0  0  0  0  0  0
    0.5898   -1.6500    0.2086 C   0  0  0  0  0  0  0  0  0  0  0  0
    2.2820   -1.1226   -1.0088 H   0  0  0  0  0  0  0  0  0  0  0  0
    2.7243   -1.8549    0.5221 H   0  0  0  0  0  0  0  0  0  0  0  0
    2.1030    0.1885    1.7400 H   0  0  0  0  0  0  0  0  0  0  0  0
    3.2514    0.5819    0.4743 H   0  0  0  0  0  0  0  0  0  0  0  0
    1.3611    2.2304    0.5855 H   0  0  0  0  0  0  0  0  0  0  0  0
    1.4198    1.4194   -0.9737 H   0  0  0  0  0  0  0  0  0  0  0  0
   -0.3675    0.6209    1.3539 H   0  0  0  0  0  0  0  0  0  0  0  0
   -1.5992    2.4249    0.2862 H   0  0  0  0  0  0  0  0  0  0  0  0
   -1.0595    1.9116   -1.3055 H   0  0  0  0  0  0  0  0  0  0  0  0
   -3.2666    0.7244    0.3399 H   0  0  0  0  0  0  0  0  0  0  0  0
   -3.0030    0.6112   -1.3853 H   0  0  0  0  0  0  0  0  0  0  0  0
   -2.2549   -1.6039   -0.9288 H   0  0  0  0  0  0  0  0  0  0  0  0
   -2.0796   -1.2429    0.7821 H   0  0  0  0  0  0  0  0  0  0  0  0
   -0.1432   -0.5121   -1.4391 H   0  0  0  0  0  0  0  0  0  0  0  0
    0.4720   -2.6209   -0.2799 H   0  0  0  0  0  0  0  0  0  0  0  0
    0.3601   -1.7986    1.2704 H   0  0  0  0  0  0  0  0  0  0  0  0
  1  2  1  0
  1  9  1  0
  1 10  1  0
  1 11  1  0
  2  3  1  0
  2 12  1  0
  2 13  1  0
  3  4  1  0
  3 14  1  0
  3 15  1  0
  4  5  1  0
  4  8  1  0
  4 16  1  0
  5  6  1  0
  5 17  1  0
  5 18  1  0
  6  7  1  0
  6 19  1  0
  6 20  1  0
  7  8  1  0
  7 21  1  0
  7 22  1  0
  8  9  1  0
  8 23  1  0
  9 24  1  0
  9 25  1  0
M  END
>  <reaction>  (1) 
rxn_615

>  <mol_properties>  (1) 
{"5": {"label": "donator", "atom_type": "Cs"}, "18": {"label": "d_hydrogen", "atom_type": "H0"}}

>  <type>  (1) 
r1h

$$$$

     RDKit          3D

 20 20  0  0  0  0  0  0  0  0999 V2000
   -2.4774    0.8083    0.1488 C   0  0  0  0  0  0  0  0  0  0  0  0
   -1.4172   -0.1696   -0.2476 C   0  0  0  0  0  3  0  0  0  0  0  0
   -0.2904    0.2932   -1.1156 C   0  0  0  0  0  0  0  0  0  0  0  0
   -1.4797   -1.5204    0.1947 C   0  0  0  0  0  0  0  0  0  0  0  0
   -0.4907   -2.4664   -0.1650 C   0  0  0  0  0  0  0  0  0  0  0  0
   -0.5559   -3.7750    0.2665 C   0  0  0  0  0  0  0  0  0  0  0  0
   -1.6038   -4.2041    1.0733 C   0  0  0  0  0  0  0  0  0  0  0  0
   -2.5899   -3.2959    1.4424 C   0  0  0  0  0  0  0  0  0  0  0  0
   -2.5339   -1.9852    1.0162 C   0  0  0  0  0  0  0  0  0  0  0  0
   -3.4697    0.4933   -0.1924 H   0  0  0  0  0  0  0  0  0  0  0  0
   -2.5434    0.9184    1.2368 H   0  0  0  0  0  0  0  0  0  0  0  0
   -2.2829    1.7944   -0.2706 H   0  0  0  0  0  0  0  0  0  0  0  0
   -0.2452   -0.2661   -2.0565 H   0  0  0  0  0  0  0  0  0  0  0  0
   -0.3905    1.3487   -1.3647 H   0  0  0  0  0  0  0  0  0  0  0  0
    0.6811    0.1589   -0.6274 H   0  0  0  0  0  0  0  0  0  0  0  0
    0.3373   -2.1635   -0.7918 H   0  0  0  0  0  0  0  0  0  0  0  0
    0.2187   -4.4725   -0.0281 H   0  0  0  0  0  0  0  0  0  0  0  0
   -1.6513   -5.2316    1.4097 H   0  0  0  0  0  0  0  0  0  0  0  0
   -3.4116   -3.6175    2.0706 H   0  0  0  0  0  0  0  0  0  0  0  0
   -3.3164   -1.3029    1.3205 H   0  0  0  0  0  0  0  0  0  0  0  0
  1  2  1  0
  1 10  1  0
  1 11  1  0
  1 12  1  0
  2  3  1  0
  2  4  1  0
  3 13  1  0
  3 14  1  0
  3 15  1  0
  4  5  2  0
  4  9  1  0
  5  6  1  0
  5 16  1  0
  6  7  2  0
  6 17  1  0
  7  8  1  0
  7 18  1  0
  8  9  2  0
  8 19  1  0
  9 20  1  0
M  RAD  1   2   2
M  END
>  <reaction>  (2) 
rxn_615

>  <mol_properties>  (2) 
{"1": {"label": "acceptor", "atom_type": "Cs"}}

>  <type>  (2) 
r2

$$$$

     RDKit          3D

 21 21  0  0  0  0  0  0  0  0999 V2000
   -1.3695    1.3367   -1.0719 C   0  0  0  0  0  0  0  0  0  0  0  0
   -1.4091   -0.0981   -0.5428 C   0  0  0  0  0  0  0  0  0  0  0  0
   -0.1819   -0.3999    0.3191 C   0  0  0  0  0  0  0  0  0  0  0  0
   -1.5636   -1.1028   -1.6652 C   0  0  0  0  0  0  0  0  0  0  0  0
   -0.5920   -1.2314   -2.6553 C   0  0  0  0  0  0  0  0  0  0  0  0
   -0.7353   -2.1509   -3.6809 C   0  0  0  0  0  0  0  0  0  0  0  0
   -1.8582   -2.9642   -3.7377 C   0  0  0  0  0  0  0  0  0  0  0  0
   -2.8325   -2.8475   -2.7602 C   0  0  0  0  0  0  0  0  0  0  0  0
   -2.6828   -1.9241   -1.7351 C   0  0  0  0  0  0  0  0  0  0  0  0
   -0.4920    1.4974   -1.7025 H   0  0  0  0  0  0  0  0  0  0  0  0
   -2.2553    1.5607   -1.6679 H   0  0  0  0  0  0  0  0  0  0  0  0
   -1.3211    2.0496   -0.2461 H   0  0  0  0  0  0  0  0  0  0  0  0
   -2.2930   -0.1918    0.0948 H   0  0  0  0  0  0  0  0  0  0  0  0
   -0.1215    0.2955    1.1588 H   0  0  0  0  0  0  0  0  0  0  0  0
   -0.2200   -1.4155    0.7159 H   0  0  0  0  0  0  0  0  0  0  0  0
    0.7383   -0.3016   -0.2615 H   0  0  0  0  0  0  0  0  0  0  0  0
    0.2915   -0.6040   -2.6263 H   0  0  0  0  0  0  0  0  0  0  0  0
    0.0326   -2.2338   -4.4401 H   0  0  0  0  0  0  0  0  0  0  0  0
   -1.9712   -3.6833   -4.5391 H   0  0  0  0  0  0  0  0  0  0  0  0
   -3.7135   -3.4765   -2.7932 H   0  0  0  0  0  0  0  0  0  0  0  0
   -3.4509   -1.8400   -0.9743 H   0  0  0  0  0  0  0  0  0  0  0  0
  1  2  1  0
  1 10  1  0
  1 11  1  0
  1 12  1  0
  2  3  1  0
  2  4  1  0
  2 13  1  0
  3 14  1  0
  3 15  1  0
  3 16  1  0
  4  5  2  0
  4  9  1  0
  5  6  1  0
  5 17  1  0
  6  7  2  0
  6 18  1  0
  7  8  1  0
  7 19  1  0
  8  9  2  0
  8 20  1  0
  9 21  1  0
M  END
>  <reaction>  (3) 
rxn_615

>  <mol_properties>  (3) 
{"1": {"label": "acceptor", "atom_type": "Cs"}, "20": {"label": "a_hydrogen", "atom_type": "H0"}}

>  <type>  (3) 
r2h

$$$$

     RDKit          3D

 45 46  0  0  0  0  0  0  0  0999 V2000
    2.1777    2.4078    1.6320 C   0  0  0  0  0  0  0  0  0  0  0  0
    1.3020    2.0939    0.4352 C   0  0  0  0  0  0  0  0  0  0  0  0
    1.4869    3.0886   -0.6941 C   0  0  0  0  0  0  0  0  0  0  0  0
   -0.0966    1.6834    0.7312 C   0  0  0  0  0  0  0  0  0  0  0  0
   -1.0809    1.6811   -0.2643 C   0  0  0  0  0  0  0  0  0  0  0  0
   -2.3433    1.1620   -0.0341 C   0  0  0  0  0  0  0  0  0  0  0  0
   -2.6709    0.6329    1.2049 C   0  0  0  0  0  0  0  0  0  0  0  0
   -1.7212    0.6523    2.2147 C   0  0  0  0  0  0  0  0  0  0  0  0
   -0.4591    1.1727    1.9827 C   0  0  0  0  0  0  0  0  0  0  0  0
    2.2670    1.5618    2.3145 H   0  0  0  0  0  0  0  0  0  0  0  0
    3.1860    2.6594    1.3002 H   0  0  0  0  0  0  0  0  0  0  0  0
    1.7900    3.2586    2.2019 H   0  0  0  0  0  0  0  0  0  0  0  0
    1.0173    4.0494   -0.4593 H   0  0  0  0  0  0  0  0  0  0  0  0
    2.5498    3.2678   -0.8635 H   0  0  0  0  0  0  0  0  0  0  0  0
    1.0684    2.7359   -1.6369 H   0  0  0  0  0  0  0  0  0  0  0  0
   -0.8578    2.0766   -1.2456 H   0  0  0  0  0  0  0  0  0  0  0  0
   -3.0756    1.1675   -0.8323 H   0  0  0  0  0  0  0  0  0  0  0  0
   -3.6553    0.2199    1.3837 H   0  0  0  0  0  0  0  0  0  0  0  0
   -1.9625    0.2560    3.1933 H   0  0  0  0  0  0  0  0  0  0  0  0
    0.2592    1.1645    2.7908 H   0  0  0  0  0  0  0  0  0  0  0  0
   -1.2257   -3.2741   -1.6773 C   0  0  0  0  0  0  0  0  0  0  0  0
   -1.3669   -3.2729   -0.1526 C   0  0  0  0  0  0  0  0  0  0  0  0
   -0.0366   -2.9994    0.5555 C   0  0  0  0  0  0  0  0  0  0  0  0
    0.5513   -1.7079    0.0206 C   0  0  0  0  0  0  0  0  0  0  0  0
    1.9097   -1.2329    0.5251 C   0  0  0  0  0  0  0  0  0  0  0  0
    2.3257   -0.2152   -0.5236 C   0  0  0  0  0  3  0  0  0  0  0  0
    1.5352   -0.4854   -1.7985 C   0  0  0  0  0  0  0  0  0  0  0  0
    0.7517   -1.7667   -1.4931 C   0  0  0  0  0  0  0  0  0  0  0  0
   -0.5696   -1.9949   -2.2060 C   0  0  0  0  0  0  0  0  0  0  0  0
   -0.6147   -4.1327   -1.9778 H   0  0  0  0  0  0  0  0  0  0  0  0
   -2.2060   -3.4136   -2.1392 H   0  0  0  0  0  0  0  0  0  0  0  0
   -2.0793   -2.4930    0.1386 H   0  0  0  0  0  0  0  0  0  0  0  0
   -1.7871   -4.2247    0.1806 H   0  0  0  0  0  0  0  0  0  0  0  0
   -0.1908   -2.9403    1.6362 H   0  0  0  0  0  0  0  0  0  0  0  0
    0.6611   -3.8262    0.3746 H   0  0  0  0  0  0  0  0  0  0  0  0
   -0.1740   -0.9109    0.2188 H   0  0  0  0  0  0  0  0  0  0  0  0
    1.8676   -0.8128    1.5338 H   0  0  0  0  0  0  0  0  0  0  0  0
    2.6176   -2.0713    0.5571 H   0  0  0  0  0  0  0  0  0  0  0  0
    1.8234    1.0067   -0.0325 H   0  0  0  0  0  0  0  0  0  0  0  0
    3.3869   -0.0000   -0.6213 H   0  0  0  0  0  0  0  0  0  0  0  0
    2.1739   -0.5779   -2.6792 H   0  0  0  0  0  0  0  0  0  0  0  0
    0.8335    0.3320   -2.0042 H   0  0  0  0  0  0  0  0  0  0  0  0
    1.4072   -2.6240   -1.7022 H   0  0  0  0  0  0  0  0  0  0  0  0
   -0.4304   -2.0611   -3.2885 H   0  0  0  0  0  0  0  0  0  0  0  0
   -1.2255   -1.1369   -2.0165 H   0  0  0  0  0  0  0  0  0  0  0  0
  1  2  1  0
  1 10  1  0
  1 11  1  0
  1 12  1  0
  2  3  1  0
  2  4  1  0
  2 39  1  0
  3 13  1  0
  3 14  1  0
  3 15  1  0
  4  5  2  0
  4  9  1  0
  5  6  1  0
  5 16  1  0
  6  7  2  0
  6 17  1  0
  7  8  1  0
  7 18  1  0
  8  9  2  0
  8 19  1  0
  9 20  1  0
 21 22  1  0
 21 29  1  0
 21 30  1  0
 21 31  1  0
 22 23  1  0
 22 32  1  0
 22 33  1  0
 23 24  1  0
 23 34  1  0
 23 35  1  0
 24 25  1  0
 24 28  1  0
 24 36  1  0
 25 26  1  0
 25 37  1  0
 25 38  1  0
 26 27  1  0
 26 40  1  0
 27 28  1  0
 27 41  1  0
 27 42  1  0
 28 29  1  0
 28 43  1  0
 29 44  1  0
 29 45  1  0
M  RAD  1  26   2
M  END
>  <reaction>  (4) 
rxn_615

>  <mol_properties>  (4) 
{"1": {"label": "*1", "atom_type": "Cs"}, "3": {"label": "*0", "atom_type": "Cd"}, "24": {"label": "*4", "atom_type": "Cs"}, "25": {"label": "*3", "atom_type": "Cs"}, "38": {"label": "*2", "atom_type": "H0"}}

>  <type>  (4) 
ts

$$$$
