
     RDKit          3D

 22 23  0  0  0  0  0  0  0  0999 V2000
   -2.1093   -0.3263    0.3079 C   0  0  0  0  0  0  0  0  0  0  0  0
   -1.3270    0.9803    0.4115 C   0  0  0  0  0  0  0  0  0  0  0  0
   -0.1818    0.8289   -0.6044 C   0  0  0  0  0  0  0  0  0  0  0  0
    1.1682    1.3904   -0.1341 C   0  0  0  0  0  0  0  0  0  0  0  0
    1.8508    0.2041    0.5479 C   0  0  0  0  0  0  0  0  0  0  0  0
    1.4982   -0.9663   -0.3710 C   0  0  0  0  0  0  0  0  0  0  0  0
    0.0340   -0.7124   -0.7594 C   0  0  0  0  0  0  0  0  0  0  0  0
   -0.9986   -1.3650    0.1756 C   0  0  0  0  0  0  0  0  0  0  0  0
   -2.7686   -0.5042    1.1589 H   0  0  0  0  0  0  0  0  0  0  0  0
   -2.7285   -0.3223   -0.5943 H   0  0  0  0  0  0  0  0  0  0  0  0
   -1.9339    1.8682    0.2289 H   0  0  0  0  0  0  0  0  0  0  0  0
   -0.9144    1.0729    1.4218 H   0  0  0  0  0  0  0  0  0  0  0  0
   -0.4804    1.2763   -1.5535 H   0  0  0  0  0  0  0  0  0  0  0  0
    1.7667    1.7058   -0.9931 H   0  0  0  0  0  0  0  0  0  0  0  0
    1.0540    2.2578    0.5189 H   0  0  0  0  0  0  0  0  0  0  0  0
    1.4197    0.0438    1.5410 H   0  0  0  0  0  0  0  0  0  0  0  0
    2.9248    0.3413    0.6788 H   0  0  0  0  0  0  0  0  0  0  0  0
    2.1362   -0.9329   -1.2584 H   0  0  0  0  0  0  0  0  0  0  0  0
    1.6421   -1.9421    0.0966 H   0  0  0  0  0  0  0  0  0  0  0  0
   -0.1575   -1.0299   -1.7854 H   0  0  0  0  0  0  0  0  0  0  0  0
   -1.3459   -2.3310   -0.1933 H   0  0  0  0  0  0  0  0  0  0  0  0
   -0.5489   -1.5373    1.1593 H   0  0  0  0  0  0  0  0  0  0  0  0
  1  2  1  0
  1  8  1  0
  1  9  1  0
  1 10  1  0
  2  3  1  0
  2 11  1  0
  2 12  1  0
  3  4  1  0
  3  7  1  0
  3 13  1  0
  4  5  1  0
  4 14  1  0
  4 15  1  0
  5  6  1  0
  5 16  1  0
  5 17  1  0
  6  7  1  0
  6 18  1  0
  6 19  1  0
  7  8  1  0
  7 20  1  0
  8 21  1  0
  8 22  1  0
M  END
>  <reaction>  (1) 
rxn_572

>  <mol_properties>  (1) 
{"2": {"label": "donator", "atom_type": "Cs"}, "12": {"label": "d_hydrogen", "atom_type": "H0"}}

>  <type>  (1) 
r1h

$$$$

     RDKit          3D

  5  4  0  0  0  0  0  0  0  0999 V2000
    0.0397    0.7134    0.0000 C   0  0  0  0  0  3  0  0  0  0  0  0
    0.0458   -0.5870    0.0000 C   0  0  0  0  0  0  0  0  0  0  0  0
   -0.6871    1.5118    0.0000 H   0  0  0  0  0  0  0  0  0  0  0  0
   -0.8806   -1.1637    0.0000 H   0  0  0  0  0  0  0  0  0  0  0  0
    0.9690   -1.1600    0.0000 H   0  0  0  0  0  0  0  0  0  0  0  0
  1  2  2  3
  1  3  1  0
  2  4  1  0
  2  5  1  0
M  RAD  1   1   2
M  END
>  <reaction>  (2) 
rxn_572

>  <mol_properties>  (2) 
{"0": {"label": "acceptor", "atom_type": "Cd"}}

>  <type>  (2) 
r2

$$$$

     RDKit          3D

  6  5  0  0  0  0  0  0  0  0999 V2000
    0.6594    0.0438   -0.0050 C   0  0  0  0  0  0  0  0  0  0  0  0
   -0.6594   -0.0438    0.0050 C   0  0  0  0  0  0  0  0  0  0  0  0
    1.1706    0.8681   -0.4881 H   0  0  0  0  0  0  0  0  0  0  0  0
    1.2824   -0.7051    0.4696 H   0  0  0  0  0  0  0  0  0  0  0  0
   -1.2824    0.7051   -0.4696 H   0  0  0  0  0  0  0  0  0  0  0  0
   -1.1706   -0.8681    0.4881 H   0  0  0  0  0  0  0  0  0  0  0  0
  1  2  2  3
  1  3  1  0
  1  4  1  0
  2  5  1  0
  2  6  1  0
M  END
>  <reaction>  (3) 
rxn_572

>  <mol_properties>  (3) 
{"0": {"label": "acceptor", "atom_type": "Cd"}, "5": {"label": "a_hydrogen", "atom_type": "H0"}}

>  <type>  (3) 
r2h

$$$$

     RDKit          3D

 27 27  0  0  0  0  0  0  0  0999 V2000
   -2.3684   -0.9688    1.1162 C   0  0  0  0  0  3  0  0  0  0  0  0
   -3.1141   -1.1672    0.0549 C   0  0  0  0  0  0  0  0  0  0  0  0
   -2.6403   -1.0901    2.1586 H   0  0  0  0  0  0  0  0  0  0  0  0
   -4.1500   -1.4930    0.1254 H   0  0  0  0  0  0  0  0  0  0  0  0
   -2.7253   -1.0133   -0.9480 H   0  0  0  0  0  0  0  0  0  0  0  0
    0.6729   -1.3635   -1.5036 C   0  0  0  0  0  0  0  0  0  0  0  0
    0.8559   -1.4284    0.0128 C   0  0  0  0  0  0  0  0  0  0  0  0
    0.1377   -0.1876    0.5331 C   0  0  0  0  0  0  0  0  0  0  0  0
    0.7716    0.5679    1.6936 C   0  0  0  0  0  0  0  0  0  0  0  0
    1.5536    1.6924    1.0060 C   0  0  0  0  0  0  0  0  0  0  0  0
    0.6210    2.1214   -0.1296 C   0  0  0  0  0  0  0  0  0  0  0  0
    0.0229    0.8043   -0.6478 C   0  0  0  0  0  0  0  0  0  0  0  0
    0.7933    0.1313   -1.7950 C   0  0  0  0  0  0  0  0  0  0  0  0
    1.3944   -1.9710   -2.0514 H   0  0  0  0  0  0  0  0  0  0  0  0
   -0.3272   -1.7174   -1.7708 H   0  0  0  0  0  0  0  0  0  0  0  0
    0.4750   -2.3503    0.4564 H   0  0  0  0  0  0  0  0  0  0  0  0
    1.9226   -1.3671    0.2591 H   0  0  0  0  0  0  0  0  0  0  0  0
   -1.0021   -0.5401    0.8610 H   0  0  0  0  0  0  0  0  0  0  0  0
   -0.0034    1.0025    2.3330 H   0  0  0  0  0  0  0  0  0  0  0  0
    1.3934   -0.0719    2.3220 H   0  0  0  0  0  0  0  0  0  0  0  0
    2.4863    1.2949    0.5945 H   0  0  0  0  0  0  0  0  0  0  0  0
    1.8164    2.5092    1.6794 H   0  0  0  0  0  0  0  0  0  0  0  0
   -0.1698    2.7599    0.2724 H   0  0  0  0  0  0  0  0  0  0  0  0
    1.1292    2.6858   -0.9135 H   0  0  0  0  0  0  0  0  0  0  0  0
   -1.0200    0.9408   -0.9435 H   0  0  0  0  0  0  0  0  0  0  0  0
    0.4176    0.4159   -2.7788 H   0  0  0  0  0  0  0  0  0  0  0  0
    1.8478    0.4245   -1.7511 H   0  0  0  0  0  0  0  0  0  0  0  0
  1  2  2  3
  1  3  1  0
  2  4  1  0
  2  5  1  0
  6  7  1  0
  6 13  1  0
  6 14  1  0
  6 15  1  0
  7  8  1  0
  7 16  1  0
  7 17  1  0
  8  9  1  0
  8 12  1  0
  8 18  1  0
  9 10  1  0
  9 19  1  0
  9 20  1  0
 10 11  1  0
 10 21  1  0
 10 22  1  0
 11 12  1  0
 11 23  1  0
 11 24  1  0
 12 13  1  0
 12 25  1  0
 13 26  1  0
 13 27  1  0
M  RAD  1   1   2
M  END
>  <reaction>  (4) 
rxn_572

>  <mol_properties>  (4) 
{"0": {"label": "*3", "atom_type": "Cd"}, "1": {"label": "*4", "atom_type": "Cd"}, "7": {"label": "*1", "atom_type": "Cs"}, "11": {"label": "*0", "atom_type": "Cs"}, "17": {"label": "*2", "atom_type": "H0"}}

>  <type>  (4) 
ts

$$$$
