
     RDKit          3D

  4  3  0  0  0  0  0  0  0  0999 V2000
    0.5949   -0.3853    0.2659 O   0  0  0  0  0  0  0  0  0  0  0  0
   -0.5918    0.4028    0.2462 O   0  0  0  0  0  0  0  0  0  0  0  0
    1.1865    0.1539   -0.2689 H   0  0  0  0  0  0  0  0  0  0  0  0
   -1.1896   -0.1714   -0.2432 H   0  0  0  0  0  0  0  0  0  0  0  0
  1  2  1  0
  1  3  1  0
  2  4  1  0
M  END
>  <reaction>  (1) 
rxn_780

>  <mol_properties>  (1) 
{"1": {"label": "donator", "atom_type": "O2s"}, "3": {"label": "d_hydrogen", "atom_type": "H0"}}

>  <type>  (1) 
r1h

$$$$

     RDKit          3D

  8  7  0  0  0  0  0  0  0  0999 V2000
   -0.9179    0.2391    0.1982 C   0  0  0  0  0  0  0  0  0  0  0  0
    0.4678   -0.2407    0.0057 C   0  0  0  0  0  3  0  0  0  0  0  0
    0.5690   -1.5483   -0.3772 O   0  0  0  0  0  0  0  0  0  0  0  0
   -1.4185   -0.2635    1.0380 H   0  0  0  0  0  0  0  0  0  0  0  0
   -0.9217    1.3106    0.3990 H   0  0  0  0  0  0  0  0  0  0  0  0
   -1.5211    0.0525   -0.6941 H   0  0  0  0  0  0  0  0  0  0  0  0
    1.2867    0.1607    0.5960 H   0  0  0  0  0  0  0  0  0  0  0  0
    1.4925   -1.7959   -0.4346 H   0  0  0  0  0  0  0  0  0  0  0  0
  1  2  1  0
  1  4  1  0
  1  5  1  0
  1  6  1  0
  2  3  1  0
  2  7  1  0
  3  8  1  0
M  RAD  1   2   2
M  END
>  <reaction>  (2) 
rxn_780

>  <mol_properties>  (2) 
{"1": {"label": "acceptor", "atom_type": "Cs"}}

>  <type>  (2) 
r2

$$$$

     RDKit          3D

  9  8  0  0  0  0  0  0  0  0999 V2000
   -0.9895    0.3048    0.1041 C   0  0  0  0  0  0  0  0  0  0  0  0
    0.3761   -0.3562    0.0721 C   0  0  0  0  0  0  0  0  0  0  0  0
    0.3441   -1.6564   -0.4834 O   0  0  0  0  0  0  0  0  0  0  0  0
   -1.6997   -0.3114    0.6572 H   0  0  0  0  0  0  0  0  0  0  0  0
   -0.9320    1.2848    0.5822 H   0  0  0  0  0  0  0  0  0  0  0  0
   -1.3774    0.4507   -0.9077 H   0  0  0  0  0  0  0  0  0  0  0  0
    0.7581   -0.4813    1.0862 H   0  0  0  0  0  0  0  0  0  0  0  0
    1.0900    0.2787   -0.4681 H   0  0  0  0  0  0  0  0  0  0  0  0
    0.0089   -1.5959   -1.3792 H   0  0  0  0  0  0  0  0  0  0  0  0
  1  2  1  0
  1  4  1  0
  1  5  1  0
  1  6  1  0
  2  3  1  0
  2  7  1  0
  2  8  1  0
  3  9  1  0
M  END
>  <reaction>  (3) 
rxn_780

>  <mol_properties>  (3) 
{"0": {"label": "a_hydrogen", "atom_type": "H0"}, "2": {"label": "acceptor", "atom_type": "Cs"}}

>  <type>  (3) 
r2h

$$$$

     RDKit          3D

 12 10  0  0  0  0  0  0  0  0999 V2000
   -1.0071   -1.5724   -0.8568 O   0  0  0  0  0  0  0  0  0  0  0  0
    0.2589   -1.6517   -0.2926 O   0  0  0  0  0  0  0  0  0  0  0  0
   -0.8223   -1.3626   -1.7800 H   0  0  0  0  0  0  0  0  0  0  0  0
    0.4276   -0.5216    0.1660 H   0  0  0  0  0  0  0  0  0  0  0  0
    1.5869    1.4412    0.3197 C   0  0  0  0  0  0  0  0  0  0  0  0
    0.2887    0.7262    0.5270 C   0  0  0  0  0  3  0  0  0  0  0  0
   -0.7084    1.2209   -0.2812 O   0  0  0  0  0  0  0  0  0  0  0  0
    1.5005    2.4905    0.6159 H   0  0  0  0  0  0  0  0  0  0  0  0
    2.3716    0.9779    0.9176 H   0  0  0  0  0  0  0  0  0  0  0  0
    1.8788    1.4070   -0.7306 H   0  0  0  0  0  0  0  0  0  0  0  0
   -0.0148    0.6052    1.5729 H   0  0  0  0  0  0  0  0  0  0  0  0
   -1.4967    0.6819   -0.1630 H   0  0  0  0  0  0  0  0  0  0  0  0
  1  2  1  0
  1  3  1  0
  2  4  1  0
  5  6  1  0
  5  8  1  0
  5  9  1  0
  5 10  1  0
  6  7  1  0
  6 11  1  0
  7 12  1  0
M  RAD  1   6   2
M  END
>  <reaction>  (4) 
rxn_780

>  <mol_properties>  (4) 
{"0": {"label": "*0", "atom_type": "O2s"}, "1": {"label": "*1", "atom_type": "O2s"}, "3": {"label": "*2", "atom_type": "H0"}, "5": {"label": "*3", "atom_type": "Cs"}, "6": {"label": "*4", "atom_type": "O2s"}}

>  <type>  (4) 
ts

$$$$
