
     RDKit          3D

  7  6  0  0  0  0  0  0  0  0999 V2000
    1.6219    0.7652   -0.5471 O   0  0  0  0  0  0  0  0  0  0  0  0
    0.9106   -0.0935   -0.1371 C   0  0  0  0  0  0  0  0  0  0  0  0
   -0.6028    0.1107    0.0882 C   0  0  0  0  0  0  0  0  0  0  0  0
   -1.2787   -0.7730   -0.6547 F   0  0  0  0  0  0  0  0  0  0  0  0
   -0.8896   -0.1272    1.3730 F   0  0  0  0  0  0  0  0  0  0  0  0
   -1.0037    1.3281   -0.2226 F   0  0  0  0  0  0  0  0  0  0  0  0
    1.2559   -1.1113    0.1207 H   0  0  0  0  0  0  0  0  0  0  0  0
  1  2  2  0
  2  3  1  0
  2  7  1  0
  3  4  1  0
  3  5  1  0
  3  6  1  0
M  END
>  <reaction>  (1) 
rxn_3247

>  <mol_properties>  (1) 
{"1": {"label": "donator", "atom_type": "CO"}, "6": {"label": "d_hydrogen", "atom_type": "H0"}}

>  <type>  (1) 
r1h

$$$$

     RDKit          3D

  7  6  0  0  0  0  0  0  0  0999 V2000
   -1.3059    0.5497   -0.1304 N   0  0  0  0  0  2  0  0  0  0  0  0
   -0.2700   -0.4288    0.0448 C   0  0  0  0  0  0  0  0  0  0  0  0
    1.1109    0.0669    0.0401 C   0  0  0  0  0  0  0  0  0  0  0  0
    2.1758    0.4925    0.0308 N   0  0  0  0  0  0  0  0  0  0  0  0
   -0.8815    1.4733   -0.2339 H   0  0  0  0  0  0  0  0  0  0  0  0
   -0.3767   -1.1909   -0.7373 H   0  0  0  0  0  0  0  0  0  0  0  0
   -0.4527   -0.9628    0.9858 H   0  0  0  0  0  0  0  0  0  0  0  0
  1  2  1  0
  1  5  1  0
  2  3  1  0
  2  6  1  0
  2  7  1  0
  3  4  3  0
M  RAD  1   1   2
M  END
>  <reaction>  (2) 
rxn_3247

>  <mol_properties>  (2) 
{"0": {"label": "acceptor", "atom_type": "N3s"}}

>  <type>  (2) 
r2

$$$$

     RDKit          3D

  8  7  0  0  0  0  0  0  0  0999 V2000
   -1.0805    0.5317    0.0204 N   0  0  0  0  0  0  0  0  0  0  0  0
   -0.1080   -0.5393    0.0956 C   0  0  0  0  0  0  0  0  0  0  0  0
    1.2945   -0.1247   -0.1005 C   0  0  0  0  0  0  0  0  0  0  0  0
    2.3714    0.2386   -0.2580 N   0  0  0  0  0  0  0  0  0  0  0  0
   -1.0516    0.9857   -0.8822 H   0  0  0  0  0  0  0  0  0  0  0  0
   -0.9009    1.2352    0.7235 H   0  0  0  0  0  0  0  0  0  0  0  0
   -0.3427   -1.2965   -0.6542 H   0  0  0  0  0  0  0  0  0  0  0  0
   -0.1810   -1.0288    1.0680 H   0  0  0  0  0  0  0  0  0  0  0  0
  1  2  1  0
  1  5  1  0
  1  6  1  0
  2  3  1  0
  2  7  1  0
  2  8  1  0
  3  4  3  0
M  END
>  <reaction>  (3) 
rxn_3247

>  <mol_properties>  (3) 
{"0": {"label": "acceptor", "atom_type": "N3s"}, "7": {"label": "a_hydrogen", "atom_type": "H0"}}

>  <type>  (3) 
r2h

$$$$

     RDKit          3D

 14 12  0  0  0  0  0  0  0  0999 V2000
   -0.8331   -1.9505    0.7794 N   0  0  0  0  0  2  0  0  0  0  0  0
    0.4189   -1.9306    1.5128 C   0  0  0  0  0  0  0  0  0  0  0  0
    1.6271   -2.0588    0.6873 C   0  0  0  0  0  0  0  0  0  0  0  0
    2.5408   -2.1594    0.0012 N   0  0  0  0  0  0  0  0  0  0  0  0
   -0.7808   -2.6827    0.0691 H   0  0  0  0  0  0  0  0  0  0  0  0
    0.4085   -2.7585    2.2310 H   0  0  0  0  0  0  0  0  0  0  0  0
    0.4873   -1.0106    2.0954 H   0  0  0  0  0  0  0  0  0  0  0  0
   -0.9187   -0.1188   -2.0575 O   0  0  0  0  0  0  0  0  0  0  0  0
   -0.7162    0.0496   -0.9104 C   0  0  0  0  0  0  0  0  0  0  0  0
   -0.2750    1.4076   -0.2962 C   0  0  0  0  0  0  0  0  0  0  0  0
   -1.2261    1.8249    0.5393 F   0  0  0  0  0  0  0  0  0  0  0  0
    0.8454    1.2193    0.4041 F   0  0  0  0  0  0  0  0  0  0  0  0
   -0.0620    2.3360   -1.2086 F   0  0  0  0  0  0  0  0  0  0  0  0
   -0.8517   -0.8613   -0.0286 H   0  0  0  0  0  0  0  0  0  0  0  0
  1  2  1  0
  1  5  1  0
  2  3  1  0
  2  6  1  0
  2  7  1  0
  3  4  3  0
  8  9  2  0
  9 10  1  0
  9 14  1  0
 10 11  1  0
 10 12  1  0
 10 13  1  0
M  RAD  1   1   2
M  END
>  <reaction>  (4) 
rxn_3247

>  <mol_properties>  (4) 
{"0": {"label": "*3", "atom_type": "N3s"}, "1": {"label": "*4", "atom_type": "Cs"}, "8": {"label": "*1", "atom_type": "CO"}, "9": {"label": "*0", "atom_type": "Cs"}, "13": {"label": "*2", "atom_type": "H0"}}

>  <type>  (4) 
ts

$$$$
