
     RDKit          3D

 14 13  0  0  0  0  0  0  0  0999 V2000
   -0.7647   -1.2352   -0.0349 C   0  0  0  0  0  0  0  0  0  0  0  0
    0.0570   -0.0126    0.3624 C   0  0  0  0  0  0  0  0  0  0  0  0
    1.4161   -0.0194   -0.3308 C   0  0  0  0  0  0  0  0  0  0  0  0
   -0.7022    1.2765    0.0629 C   0  0  0  0  0  0  0  0  0  0  0  0
   -0.2387   -2.1618    0.2040 H   0  0  0  0  0  0  0  0  0  0  0  0
   -0.9625   -1.2316   -1.1108 H   0  0  0  0  0  0  0  0  0  0  0  0
   -1.7273   -1.2512    0.4806 H   0  0  0  0  0  0  0  0  0  0  0  0
    0.2295   -0.0590    1.4432 H   0  0  0  0  0  0  0  0  0  0  0  0
    1.2933    0.0260   -1.4168 H   0  0  0  0  0  0  0  0  0  0  0  0
    2.0206    0.8381   -0.0279 H   0  0  0  0  0  0  0  0  0  0  0  0
    1.9767   -0.9268   -0.0966 H   0  0  0  0  0  0  0  0  0  0  0  0
   -1.6639    1.3001    0.5798 H   0  0  0  0  0  0  0  0  0  0  0  0
   -0.8977    1.3664   -1.0096 H   0  0  0  0  0  0  0  0  0  0  0  0
   -0.1313    2.1545    0.3722 H   0  0  0  0  0  0  0  0  0  0  0  0
  1  2  1  0
  1  5  1  0
  1  6  1  0
  1  7  1  0
  2  3  1  0
  2  4  1  0
  2  8  1  0
  3  9  1  0
  3 10  1  0
  3 11  1  0
  4 12  1  0
  4 13  1  0
  4 14  1  0
M  END
>  <reaction>  (1) 
rxn_964

>  <mol_properties>  (1) 
{"1": {"label": "donator", "atom_type": "Cs"}, "7": {"label": "d_hydrogen", "atom_type": "H0"}}

>  <type>  (1) 
r1h

$$$$

     RDKit          3D

  8  7  0  0  0  0  0  0  0  0999 V2000
   -2.2129    0.4855    0.7390 C   0  0  0  0  0  0  0  0  0  0  0  0
   -1.2226    0.0526    0.1974 C   0  0  0  0  0  0  0  0  0  0  0  0
   -0.1006   -0.4575   -0.4419 C   0  0  0  0  0  3  0  0  0  0  0  0
    1.1960   -0.1737   -0.0342 C   0  0  0  0  0  0  0  0  0  0  0  0
    2.3329    0.0603    0.3036 C   0  0  0  0  0  0  0  0  0  0  0  0
   -3.0803    0.8696    1.2198 H   0  0  0  0  0  0  0  0  0  0  0  0
   -0.2433   -1.1067   -1.2980 H   0  0  0  0  0  0  0  0  0  0  0  0
    3.3308    0.2700    0.6058 H   0  0  0  0  0  0  0  0  0  0  0  0
  1  2  3  0
  1  6  1  0
  2  3  1  0
  3  4  1  0
  3  7  1  0
  4  5  3  0
  5  8  1  0
M  RAD  1   3   2
M  END
>  <reaction>  (2) 
rxn_964

>  <mol_properties>  (2) 
{"2": {"label": "acceptor", "atom_type": "Cs"}}

>  <type>  (2) 
r2

$$$$

     RDKit          3D

  9  8  0  0  0  0  0  0  0  0999 V2000
   -2.1022   -0.6873    0.3932 C   0  0  0  0  0  0  0  0  0  0  0  0
   -1.2072   -0.1086   -0.1482 C   0  0  0  0  0  0  0  0  0  0  0  0
   -0.1242    0.6105   -0.8193 C   0  0  0  0  0  0  0  0  0  0  0  0
    1.2067    0.1106   -0.4741 C   0  0  0  0  0  0  0  0  0  0  0  0
    2.3005   -0.2875   -0.2012 C   0  0  0  0  0  0  0  0  0  0  0  0
   -2.8942   -1.2059    0.8778 H   0  0  0  0  0  0  0  0  0  0  0  0
   -0.1862    1.6723   -0.5649 H   0  0  0  0  0  0  0  0  0  0  0  0
   -0.2641    0.5418   -1.9017 H   0  0  0  0  0  0  0  0  0  0  0  0
    3.2709   -0.6459    0.0455 H   0  0  0  0  0  0  0  0  0  0  0  0
  1  2  3  0
  1  6  1  0
  2  3  1  0
  3  4  1  0
  3  7  1  0
  3  8  1  0
  4  5  3  0
  5  9  1  0
M  END
>  <reaction>  (3) 
rxn_964

>  <mol_properties>  (3) 
{"2": {"label": "acceptor", "atom_type": "Cs"}, "8": {"label": "a_hydrogen", "atom_type": "H0"}}

>  <type>  (3) 
r2h

$$$$

     RDKit          3D

 22 20  0  0  0  0  0  0  0  0999 V2000
    1.6166   -1.8179   -1.6718 C   0  0  0  0  0  0  0  0  0  0  0  0
    1.4453   -1.0745   -0.7456 C   0  0  0  0  0  0  0  0  0  0  0  0
    1.1819   -0.1474    0.3198 C   0  0  0  0  0  0  0  0  0  0  0  0
    0.9144   -0.7053    1.6163 C   0  0  0  0  0  0  0  0  0  0  0  0
    0.6337   -1.1344    2.7012 C   0  0  0  0  0  0  0  0  0  0  0  0
    1.7887   -2.4883   -2.4789 H   0  0  0  0  0  0  0  0  0  0  0  0
    1.8963    0.6753    0.3517 H   0  0  0  0  0  0  0  0  0  0  0  0
    0.4083   -1.5283    3.6627 H   0  0  0  0  0  0  0  0  0  0  0  0
   -0.8535    1.6200   -1.7358 C   0  0  0  0  0  0  0  0  0  0  0  0
   -1.1447    1.0238   -0.3862 C   0  0  0  0  0  3  0  0  0  0  0  0
   -1.4063    2.0044    0.7236 C   0  0  0  0  0  0  0  0  0  0  0  0
   -2.0283   -0.1928   -0.3946 C   0  0  0  0  0  0  0  0  0  0  0  0
   -0.1062    2.4135   -1.6704 H   0  0  0  0  0  0  0  0  0  0  0  0
   -1.7620    2.0587   -2.1673 H   0  0  0  0  0  0  0  0  0  0  0  0
   -0.4906    0.8612   -2.4318 H   0  0  0  0  0  0  0  0  0  0  0  0
    0.0820    0.4613   -0.0226 H   0  0  0  0  0  0  0  0  0  0  0  0
   -2.3811    2.4893    0.5874 H   0  0  0  0  0  0  0  0  0  0  0  0
   -1.4182    1.5062    1.6950 H   0  0  0  0  0  0  0  0  0  0  0  0
   -0.6500    2.7916    0.7491 H   0  0  0  0  0  0  0  0  0  0  0  0
   -1.6757   -0.9313   -1.1172 H   0  0  0  0  0  0  0  0  0  0  0  0
   -3.0556    0.0788   -0.6680 H   0  0  0  0  0  0  0  0  0  0  0  0
   -2.0593   -0.6646    0.5894 H   0  0  0  0  0  0  0  0  0  0  0  0
  1  2  3  0
  1  6  1  0
  2  3  1  0
  3  4  1  0
  3  7  1  0
  3 16  1  0
  4  5  3  0
  5  8  1  0
  9 10  1  0
  9 13  1  0
  9 14  1  0
  9 15  1  0
 10 11  1  0
 10 12  1  0
 11 17  1  0
 11 18  1  0
 11 19  1  0
 12 20  1  0
 12 21  1  0
 12 22  1  0
M  RAD  1  10   2
M  END
>  <reaction>  (4) 
rxn_964

>  <mol_properties>  (4) 
{"1": {"label": "*0", "atom_type": "Ct"}, "2": {"label": "*1", "atom_type": "Cs"}, "8": {"label": "*4", "atom_type": "Cs"}, "9": {"label": "*3", "atom_type": "Cs"}, "15": {"label": "*2", "atom_type": "H0"}}

>  <type>  (4) 
ts

$$$$
