
     RDKit          3D

 15 15  0  0  0  0  0  0  0  0999 V2000
    2.2031   -0.2111   -0.1693 C   0  0  0  0  0  0  0  0  0  0  0  0
    0.7140   -0.0314   -0.0623 C   0  0  0  0  0  0  0  0  0  0  0  0
   -0.0114    0.5491   -1.0982 C   0  0  0  0  0  0  0  0  0  0  0  0
   -1.3882    0.6886   -1.0150 C   0  0  0  0  0  0  0  0  0  0  0  0
   -2.0661    0.2493    0.1118 C   0  0  0  0  0  0  0  0  0  0  0  0
   -1.3551   -0.3278    1.1528 C   0  0  0  0  0  0  0  0  0  0  0  0
    0.0216   -0.4648    1.0642 C   0  0  0  0  0  0  0  0  0  0  0  0
    2.6776   -0.1836    0.8122 H   0  0  0  0  0  0  0  0  0  0  0  0
    2.4446   -1.1749   -0.6249 H   0  0  0  0  0  0  0  0  0  0  0  0
    2.6532    0.5664   -0.7875 H   0  0  0  0  0  0  0  0  0  0  0  0
    0.5104    0.8989   -1.9819 H   0  0  0  0  0  0  0  0  0  0  0  0
   -1.9328    1.1452   -1.8322 H   0  0  0  0  0  0  0  0  0  0  0  0
   -3.1409    0.3597    0.1800 H   0  0  0  0  0  0  0  0  0  0  0  0
   -1.8736   -0.6702    2.0398 H   0  0  0  0  0  0  0  0  0  0  0  0
    0.5695   -0.9141    1.8849 H   0  0  0  0  0  0  0  0  0  0  0  0
  1  2  1  0
  1  8  1  0
  1  9  1  0
  1 10  1  0
  2  3  2  0
  2  7  1  0
  3  4  1  0
  3 11  1  0
  4  5  2  0
  4 12  1  0
  5  6  1  0
  5 13  1  0
  6  7  2  0
  6 14  1  0
  7 15  1  0
M  END
>  <reaction>  (1) 
rxn_1458

>  <mol_properties>  (1) 
{"0": {"label": "donator", "atom_type": "Cs"}, "7": {"label": "d_hydrogen", "atom_type": "H0"}}

>  <type>  (1) 
r1h

$$$$

     RDKit          3D

  6  5  0  0  0  0  0  0  0  0999 V2000
   -0.7309   -0.0987    0.0327 C   0  0  0  0  0  0  0  0  0  0  0  0
    0.6208    0.0065   -0.0096 C   0  0  0  0  0  0  0  0  0  0  0  0
    1.6572   -1.2972    0.2837 S   0  0  0  0  0  1  0  0  0  0  0  0
   -1.3651    0.7588   -0.1608 H   0  0  0  0  0  0  0  0  0  0  0  0
   -1.2044   -1.0453    0.2616 H   0  0  0  0  0  0  0  0  0  0  0  0
    1.0609    0.9725   -0.2426 H   0  0  0  0  0  0  0  0  0  0  0  0
  1  2  2  3
  1  4  1  0
  1  5  1  0
  2  3  1  0
  2  6  1  0
M  RAD  1   3   2
M  END
>  <reaction>  (2) 
rxn_1458

>  <mol_properties>  (2) 
{"0": {"label": "acceptor", "atom_type": "Cs"}}

>  <type>  (2) 
r2

$$$$

     RDKit          3D

  7  6  0  0  0  0  0  0  0  0999 V2000
   -0.6782    0.0507    0.0301 C   0  0  0  0  0  0  0  0  0  0  0  0
    0.8092    0.0996    0.0213 C   0  0  0  0  0  0  0  0  0  0  0  0
    1.7473    0.7521    1.1507 S   0  0  0  0  0  0  0  0  0  0  0  0
   -1.0667    0.5456   -0.8653 H   0  0  0  0  0  0  0  0  0  0  0  0
   -1.0112   -0.9904   -0.0239 H   0  0  0  0  0  0  0  0  0  0  0  0
   -1.0920    0.5225    0.9188 H   0  0  0  0  0  0  0  0  0  0  0  0
    1.2740   -0.3620   -0.8520 H   0  0  0  0  0  0  0  0  0  0  0  0
  1  2  1  0
  1  4  1  0
  1  5  1  0
  1  6  1  0
  2  3  2  0
  2  7  1  0
M  END
>  <reaction>  (3) 
rxn_1458

>  <mol_properties>  (3) 
{"0": {"label": "acceptor", "atom_type": "Cs"}, "6": {"label": "a_hydrogen", "atom_type": "H0"}}

>  <type>  (3) 
r2h

$$$$

     RDKit          3D

 21 20  0  0  0  0  0  0  0  0999 V2000
   -1.1692   -0.2448    1.7323 C   0  0  0  0  0  0  0  0  0  0  0  0
   -0.5042   -1.2822    2.4683 C   0  0  0  0  0  0  0  0  0  0  0  0
    0.2581   -2.5656    1.8081 S   0  0  0  0  0  0  0  0  0  0  0  0
   -1.8450    0.3936    2.2968 H   0  0  0  0  0  0  0  0  0  0  0  0
   -1.5279   -0.5205    0.7434 H   0  0  0  0  0  0  0  0  0  0  0  0
   -0.4591   -1.1465    3.5491 H   0  0  0  0  0  0  0  0  0  0  0  0
    0.8099    1.2927    0.7628 C   0  0  0  0  0  0  0  0  0  0  0  0
    0.5359    1.2867   -0.6617 C   0  0  0  0  0  0  0  0  0  0  0  0
   -0.0713    2.3823   -1.2867 C   0  0  0  0  0  3  0  0  0  0  0  0
   -0.3694    2.3507   -2.6367 C   0  0  0  0  0  0  0  0  0  0  0  0
   -0.0770    1.2208   -3.3892 C   0  0  0  0  0  0  0  0  0  0  0  0
    0.5151    0.1214   -2.7808 C   0  0  0  0  0  0  0  0  0  0  0  0
    0.8172    0.1511   -1.4322 C   0  0  0  0  0  0  0  0  0  0  0  0
   -0.2303    0.5703    1.3615 H   0  0  0  0  0  0  0  0  0  0  0  0
    1.6057    0.6416    1.1145 H   0  0  0  0  0  0  0  0  0  0  0  0
    0.7482    2.2472    1.2768 H   0  0  0  0  0  0  0  0  0  0  0  0
   -0.3006    3.2662   -0.7028 H   0  0  0  0  0  0  0  0  0  0  0  0
   -0.8315    3.2098   -3.1065 H   0  0  0  0  0  0  0  0  0  0  0  0
   -0.3115    1.1964   -4.4457 H   0  0  0  0  0  0  0  0  0  0  0  0
    0.7395   -0.7639   -3.3620 H   0  0  0  0  0  0  0  0  0  0  0  0
    1.2624   -0.7140   -0.9545 H   0  0  0  0  0  0  0  0  0  0  0  0
  1  2  1  0
  1  4  1  0
  1  5  1  0
  1 14  1  0
  2  3  2  0
  2  6  1  0
  7  8  2  3
  7 15  1  0
  7 16  1  0
  8  9  1  0
  8 13  1  0
  9 10  1  0
  9 17  1  0
 10 11  2  0
 10 18  1  0
 11 12  1  0
 11 19  1  0
 12 13  2  0
 12 20  1  0
 13 21  1  0
M  RAD  1   9   2
M  END
>  <reaction>  (4) 
rxn_1458

>  <mol_properties>  (4) 
{"0": {"label": "*1", "atom_type": "Cs"}, "1": {"label": "*0", "atom_type": "CS"}, "6": {"label": "*3", "atom_type": "Cd"}, "7": {"label": "*4", "atom_type": "Cd"}, "13": {"label": "*2", "atom_type": "H0"}}

>  <type>  (4) 
ts

$$$$
