
     RDKit          3D

 14 13  0  0  0  0  0  0  0  0999 V2000
   -0.7647   -1.2352   -0.0349 C   0  0  0  0  0  0  0  0  0  0  0  0
    0.0570   -0.0126    0.3624 C   0  0  0  0  0  0  0  0  0  0  0  0
    1.4161   -0.0194   -0.3307 C   0  0  0  0  0  0  0  0  0  0  0  0
   -0.7023    1.2765    0.0630 C   0  0  0  0  0  0  0  0  0  0  0  0
   -0.2387   -2.1618    0.2041 H   0  0  0  0  0  0  0  0  0  0  0  0
   -0.9624   -1.2316   -1.1108 H   0  0  0  0  0  0  0  0  0  0  0  0
   -1.7273   -1.2512    0.4805 H   0  0  0  0  0  0  0  0  0  0  0  0
    0.2295   -0.0590    1.4432 H   0  0  0  0  0  0  0  0  0  0  0  0
    1.2933    0.0260   -1.4168 H   0  0  0  0  0  0  0  0  0  0  0  0
    2.0207    0.8381   -0.0278 H   0  0  0  0  0  0  0  0  0  0  0  0
    1.9766   -0.9269   -0.0966 H   0  0  0  0  0  0  0  0  0  0  0  0
   -1.6638    1.3002    0.5800 H   0  0  0  0  0  0  0  0  0  0  0  0
   -0.8979    1.3663   -1.0096 H   0  0  0  0  0  0  0  0  0  0  0  0
   -0.1313    2.1545    0.3721 H   0  0  0  0  0  0  0  0  0  0  0  0
  1  2  1  0
  1  5  1  0
  1  6  1  0
  1  7  1  0
  2  3  1  0
  2  4  1  0
  2  8  1  0
  3  9  1  0
  3 10  1  0
  3 11  1  0
  4 12  1  0
  4 13  1  0
  4 14  1  0
M  END
>  <reaction>  (1) 
rxn_298

>  <mol_properties>  (1) 
{"1": {"label": "donator", "atom_type": "Cs"}, "7": {"label": "d_hydrogen", "atom_type": "H0"}}

>  <type>  (1) 
r1h

$$$$

     RDKit          3D

  3  2  0  0  0  0  0  0  0  0999 V2000
    0.9943   -0.1797    0.0000 O   0  0  0  0  0  1  0  0  0  0  0  0
   -0.1595    0.4394    0.0000 O   0  0  0  0  0  0  0  0  0  0  0  0
   -0.8348   -0.2597    0.0000 H   0  0  0  0  0  0  0  0  0  0  0  0
  1  2  1  0
  2  3  1  0
M  RAD  1   1   2
M  END
>  <reaction>  (2) 
rxn_298

>  <mol_properties>  (2) 
{"0": {"label": "acceptor", "atom_type": "O2s"}}

>  <type>  (2) 
r2

$$$$

     RDKit          3D

  4  3  0  0  0  0  0  0  0  0999 V2000
    0.5949   -0.3853    0.2659 O   0  0  0  0  0  0  0  0  0  0  0  0
   -0.5918    0.4028    0.2462 O   0  0  0  0  0  0  0  0  0  0  0  0
    1.1865    0.1539   -0.2689 H   0  0  0  0  0  0  0  0  0  0  0  0
   -1.1896   -0.1714   -0.2432 H   0  0  0  0  0  0  0  0  0  0  0  0
  1  2  1  0
  1  3  1  0
  2  4  1  0
M  END
>  <reaction>  (3) 
rxn_298

>  <mol_properties>  (3) 
{"0": {"label": "acceptor", "atom_type": "O2s"}, "3": {"label": "a_hydrogen", "atom_type": "H0"}}

>  <type>  (3) 
r2h

$$$$

     RDKit          3D

 17 15  0  0  0  0  0  0  0  0999 V2000
    1.5276   -0.6106    0.3918 O   0  0  0  0  0  0  0  0  0  0  0  0
    1.3194   -0.5610    1.7621 O   0  0  0  0  0  0  0  0  0  0  0  0
    1.0257   -1.4555    1.9709 H   0  0  0  0  0  0  0  0  0  0  0  0
   -0.5920    0.1549   -1.9924 C   0  0  0  0  0  0  0  0  0  0  0  0
   -0.6488    0.2997   -0.4924 C   0  0  0  0  0  3  0  0  0  0  0  0
   -0.6230    1.7190    0.0151 C   0  0  0  0  0  0  0  0  0  0  0  0
   -1.6513   -0.5919    0.1952 C   0  0  0  0  0  0  0  0  0  0  0  0
    0.2404    0.7195   -2.4152 H   0  0  0  0  0  0  0  0  0  0  0  0
   -1.5155    0.5377   -2.4436 H   0  0  0  0  0  0  0  0  0  0  0  0
   -0.4873   -0.8899   -2.2896 H   0  0  0  0  0  0  0  0  0  0  0  0
    0.4999   -0.1730   -0.0836 H   0  0  0  0  0  0  0  0  0  0  0  0
   -1.5698    2.2216   -0.2172 H   0  0  0  0  0  0  0  0  0  0  0  0
   -0.4864    1.7461    1.0973 H   0  0  0  0  0  0  0  0  0  0  0  0
    0.1822    2.2915   -0.4471 H   0  0  0  0  0  0  0  0  0  0  0  0
   -1.5484   -1.6304   -0.1251 H   0  0  0  0  0  0  0  0  0  0  0  0
   -2.6725   -0.2707   -0.0426 H   0  0  0  0  0  0  0  0  0  0  0  0
   -1.5392   -0.5461    1.2803 H   0  0  0  0  0  0  0  0  0  0  0  0
  1  2  1  0
  1 11  1  0
  2  3  1  0
  4  5  1  0
  4  8  1  0
  4  9  1  0
  4 10  1  0
  5  6  1  0
  5  7  1  0
  6 12  1  0
  6 13  1  0
  6 14  1  0
  7 15  1  0
  7 16  1  0
  7 17  1  0
M  RAD  1   5   2
M  END
>  <reaction>  (4) 
rxn_298

>  <mol_properties>  (4) 
{"0": {"label": "*1", "atom_type": "O2s"}, "1": {"label": "*0", "atom_type": "O2s"}, "3": {"label": "*4", "atom_type": "Cs"}, "4": {"label": "*3", "atom_type": "Cs"}, "10": {"label": "*2", "atom_type": "H0"}}

>  <type>  (4) 
ts

$$$$
