
     RDKit          3D

 15 14  0  0  0  0  0  0  0  0999 V2000
    2.1256    0.4849   -0.6284 C   0  0  0  0  0  0  0  0  0  0  0  0
    1.1128    0.2141    0.1794 C   0  0  0  0  0  0  0  0  0  0  0  0
   -0.3017   -0.0425   -0.2513 C   0  0  0  0  0  0  0  0  0  0  0  0
   -1.2427    1.0075    0.3423 C   0  0  0  0  0  0  0  0  0  0  0  0
   -0.7381   -1.4526    0.1504 C   0  0  0  0  0  0  0  0  0  0  0  0
    3.1243    0.6602   -0.2486 H   0  0  0  0  0  0  0  0  0  0  0  0
    1.9908    0.5411   -1.7036 H   0  0  0  0  0  0  0  0  0  0  0  0
    1.2888    0.1665    1.2533 H   0  0  0  0  0  0  0  0  0  0  0  0
   -0.3426    0.0343   -1.3424 H   0  0  0  0  0  0  0  0  0  0  0  0
   -0.9570    2.0133    0.0315 H   0  0  0  0  0  0  0  0  0  0  0  0
   -1.2189    0.9728    1.4350 H   0  0  0  0  0  0  0  0  0  0  0  0
   -2.2723    0.8287    0.0254 H   0  0  0  0  0  0  0  0  0  0  0  0
   -0.6964   -1.5744    1.2363 H   0  0  0  0  0  0  0  0  0  0  0  0
   -0.0911   -2.2079   -0.2978 H   0  0  0  0  0  0  0  0  0  0  0  0
   -1.7646   -1.6461   -0.1677 H   0  0  0  0  0  0  0  0  0  0  0  0
  1  2  2  3
  1  6  1  0
  1  7  1  0
  2  3  1  0
  2  8  1  0
  3  4  1  0
  3  5  1  0
  3  9  1  0
  4 10  1  0
  4 11  1  0
  4 12  1  0
  5 13  1  0
  5 14  1  0
  5 15  1  0
M  END
>  <reaction>  (1) 
rxn_1106

>  <mol_properties>  (1) 
{"2": {"label": "donator", "atom_type": "Cs"}, "8": {"label": "d_hydrogen", "atom_type": "H0"}}

>  <type>  (1) 
r1h

$$$$

     RDKit          3D

  6  5  0  0  0  0  0  0  0  0999 V2000
   -0.7309   -0.0987    0.0327 C   0  0  0  0  0  0  0  0  0  0  0  0
    0.6208    0.0065   -0.0096 C   0  0  0  0  0  0  0  0  0  0  0  0
    1.6572   -1.2972    0.2837 S   0  0  0  0  0  1  0  0  0  0  0  0
   -1.3651    0.7588   -0.1608 H   0  0  0  0  0  0  0  0  0  0  0  0
   -1.2044   -1.0453    0.2616 H   0  0  0  0  0  0  0  0  0  0  0  0
    1.0609    0.9725   -0.2426 H   0  0  0  0  0  0  0  0  0  0  0  0
  1  2  2  3
  1  4  1  0
  1  5  1  0
  2  3  1  0
  2  6  1  0
M  RAD  1   3   2
M  END
>  <reaction>  (2) 
rxn_1106

>  <mol_properties>  (2) 
{"0": {"label": "acceptor", "atom_type": "Cs"}}

>  <type>  (2) 
r2

$$$$

     RDKit          3D

  7  6  0  0  0  0  0  0  0  0999 V2000
   -0.6782    0.0507    0.0301 C   0  0  0  0  0  0  0  0  0  0  0  0
    0.8092    0.0996    0.0213 C   0  0  0  0  0  0  0  0  0  0  0  0
    1.7473    0.7521    1.1507 S   0  0  0  0  0  0  0  0  0  0  0  0
   -1.0667    0.5456   -0.8653 H   0  0  0  0  0  0  0  0  0  0  0  0
   -1.0112   -0.9904   -0.0239 H   0  0  0  0  0  0  0  0  0  0  0  0
   -1.0920    0.5225    0.9188 H   0  0  0  0  0  0  0  0  0  0  0  0
    1.2740   -0.3620   -0.8520 H   0  0  0  0  0  0  0  0  0  0  0  0
  1  2  1  0
  1  4  1  0
  1  5  1  0
  1  6  1  0
  2  3  2  0
  2  7  1  0
M  END
>  <reaction>  (3) 
rxn_1106

>  <mol_properties>  (3) 
{"0": {"label": "acceptor", "atom_type": "Cs"}, "6": {"label": "a_hydrogen", "atom_type": "H0"}}

>  <type>  (3) 
r2h

$$$$

     RDKit          3D

 21 19  0  0  0  0  0  0  0  0999 V2000
   -0.7336    1.4649    0.0821 C   0  0  0  0  0  0  0  0  0  0  0  0
   -0.1615    1.1205   -1.1746 C   0  0  0  0  0  0  0  0  0  0  0  0
    1.4214    1.3003   -1.5800 S   0  0  0  0  0  0  0  0  0  0  0  0
   -1.8113    1.6106    0.1094 H   0  0  0  0  0  0  0  0  0  0  0  0
   -0.1601    2.1452    0.7056 H   0  0  0  0  0  0  0  0  0  0  0  0
   -0.8348    0.6599   -1.8962 H   0  0  0  0  0  0  0  0  0  0  0  0
    0.1527   -2.2624   -0.3273 C   0  0  0  0  0  0  0  0  0  0  0  0
   -0.6911   -1.7825    0.5905 C   0  0  0  0  0  0  0  0  0  0  0  0
   -0.3890   -0.7433    1.5682 C   0  0  0  0  0  3  0  0  0  0  0  0
    1.0573   -0.4926    1.9153 C   0  0  0  0  0  0  0  0  0  0  0  0
   -1.3570   -0.6108    2.7180 C   0  0  0  0  0  0  0  0  0  0  0  0
   -0.1752   -2.9959   -1.0520 H   0  0  0  0  0  0  0  0  0  0  0  0
    1.1875   -1.9500   -0.3826 H   0  0  0  0  0  0  0  0  0  0  0  0
   -1.7211   -2.1300    0.5753 H   0  0  0  0  0  0  0  0  0  0  0  0
   -0.6459    0.3481    0.8047 H   0  0  0  0  0  0  0  0  0  0  0  0
    1.6586   -0.2843    1.0297 H   0  0  0  0  0  0  0  0  0  0  0  0
    1.4833   -1.3652    2.4194 H   0  0  0  0  0  0  0  0  0  0  0  0
    1.1473    0.3639    2.5845 H   0  0  0  0  0  0  0  0  0  0  0  0
   -1.1670   -1.3864    3.4670 H   0  0  0  0  0  0  0  0  0  0  0  0
   -2.3913   -0.7141    2.3860 H   0  0  0  0  0  0  0  0  0  0  0  0
   -1.2484    0.3558    3.2131 H   0  0  0  0  0  0  0  0  0  0  0  0
  1  2  1  0
  1  4  1  0
  1  5  1  0
  1 15  1  0
  2  3  2  0
  2  6  1  0
  7  8  2  3
  7 12  1  0
  7 13  1  0
  8  9  1  0
  8 14  1  0
  9 10  1  0
  9 11  1  0
 10 16  1  0
 10 17  1  0
 10 18  1  0
 11 19  1  0
 11 20  1  0
 11 21  1  0
M  RAD  1   9   2
M  END
>  <reaction>  (4) 
rxn_1106

>  <mol_properties>  (4) 
{"0": {"label": "*1", "atom_type": "Cs"}, "1": {"label": "*0", "atom_type": "CS"}, "7": {"label": "*4", "atom_type": "Cd"}, "8": {"label": "*3", "atom_type": "Cs"}, "14": {"label": "*2", "atom_type": "H0"}}

>  <type>  (4) 
ts

$$$$
