
     RDKit          3D

  5  4  0  0  0  0  0  0  0  0999 V2000
    0.0000    0.0000    0.0000 C   0  0  0  0  0  0  0  0  0  0  0  0
   -0.6486   -0.7720   -0.4113 H   0  0  0  0  0  0  0  0  0  0  0  0
   -0.3482    0.9787   -0.3267 H   0  0  0  0  0  0  0  0  0  0  0  0
   -0.0223   -0.0487    1.0876 H   0  0  0  0  0  0  0  0  0  0  0  0
    1.0191   -0.1580   -0.3496 H   0  0  0  0  0  0  0  0  0  0  0  0
  1  2  1  0
  1  3  1  0
  1  4  1  0
  1  5  1  0
M  END
>  <reaction>  (1) 
rxn_842

>  <mol_properties>  (1) 
{"0": {"label": "donator", "atom_type": "Cs"}, "1": {"label": "d_hydrogen", "atom_type": "H0"}}

>  <type>  (1) 
r1h

$$$$

     RDKit          3D

  5  4  0  0  0  0  0  0  0  0999 V2000
    0.0397    0.7134    0.0000 C   0  0  0  0  0  3  0  0  0  0  0  0
    0.0458   -0.5870    0.0000 C   0  0  0  0  0  0  0  0  0  0  0  0
   -0.6871    1.5118    0.0000 H   0  0  0  0  0  0  0  0  0  0  0  0
   -0.8806   -1.1637    0.0000 H   0  0  0  0  0  0  0  0  0  0  0  0
    0.9690   -1.1600    0.0000 H   0  0  0  0  0  0  0  0  0  0  0  0
  1  2  2  3
  1  3  1  0
  2  4  1  0
  2  5  1  0
M  RAD  1   1   2
M  END
>  <reaction>  (2) 
rxn_842

>  <mol_properties>  (2) 
{"0": {"label": "acceptor", "atom_type": "Cd"}}

>  <type>  (2) 
r2

$$$$

     RDKit          3D

  6  5  0  0  0  0  0  0  0  0999 V2000
    0.6594    0.0438   -0.0050 C   0  0  0  0  0  0  0  0  0  0  0  0
   -0.6594   -0.0438    0.0050 C   0  0  0  0  0  0  0  0  0  0  0  0
    1.1706    0.8681   -0.4881 H   0  0  0  0  0  0  0  0  0  0  0  0
    1.2824   -0.7051    0.4696 H   0  0  0  0  0  0  0  0  0  0  0  0
   -1.2824    0.7051   -0.4696 H   0  0  0  0  0  0  0  0  0  0  0  0
   -1.1706   -0.8681    0.4881 H   0  0  0  0  0  0  0  0  0  0  0  0
  1  2  2  3
  1  3  1  0
  1  4  1  0
  2  5  1  0
  2  6  1  0
M  END
>  <reaction>  (3) 
rxn_842

>  <mol_properties>  (3) 
{"0": {"label": "acceptor", "atom_type": "Cd"}, "5": {"label": "a_hydrogen", "atom_type": "H0"}}

>  <type>  (3) 
r2h

$$$$

     RDKit          3D

 10  8  0  0  0  0  0  0  0  0999 V2000
    0.0000    0.5768    0.6490 C   0  0  0  0  0  3  0  0  0  0  0  0
    0.0000    1.5310   -0.2526 C   0  0  0  0  0  0  0  0  0  0  0  0
   -0.0000    0.6855    1.7275 H   0  0  0  0  0  0  0  0  0  0  0  0
    0.0000    2.5830    0.0219 H   0  0  0  0  0  0  0  0  0  0  0  0
    0.0000    1.3076   -1.3151 H   0  0  0  0  0  0  0  0  0  0  0  0
    0.0000   -1.9099   -0.3124 C   0  0  0  0  0  0  0  0  0  0  0  0
    0.0000   -0.7069    0.2003 H   0  0  0  0  0  0  0  0  0  0  0  0
    0.9073   -2.3830    0.0527 H   0  0  0  0  0  0  0  0  0  0  0  0
   -0.9073   -2.3830    0.0527 H   0  0  0  0  0  0  0  0  0  0  0  0
    0.0000   -1.7617   -1.3889 H   0  0  0  0  0  0  0  0  0  0  0  0
  1  2  2  3
  1  3  1  0
  2  4  1  0
  2  5  1  0
  6  7  1  0
  6  8  1  0
  6  9  1  0
  6 10  1  0
M  RAD  1   1   2
M  END
>  <reaction>  (4) 
rxn_842

>  <mol_properties>  (4) 
{"0": {"label": "*3", "atom_type": "Cd"}, "1": {"label": "*4", "atom_type": "Cd"}, "5": {"label": "*1", "atom_type": "Cs"}, "6": {"label": "*2", "atom_type": "H0"}, "7": {"label": "*0", "atom_type": "H0"}}

>  <type>  (4) 
ts

$$$$
