
     RDKit          3D

 15 14  0  0  0  0  0  0  0  0999 V2000
    2.1787    0.5096   -0.5764 C   0  0  0  0  0  0  0  0  0  0  0  0
    1.1279    0.2043    0.1695 C   0  0  0  0  0  0  0  0  0  0  0  0
   -0.2775   -0.0485   -0.3027 C   0  0  0  0  0  0  0  0  0  0  0  0
   -0.7353   -1.4386    0.1499 C   0  0  0  0  0  0  0  0  0  0  0  0
   -0.4688    0.1290   -1.8029 C   0  0  0  0  0  0  0  0  0  0  0  0
    3.1538    0.6614   -0.1309 H   0  0  0  0  0  0  0  0  0  0  0  0
    2.1121    0.6215   -1.6520 H   0  0  0  0  0  0  0  0  0  0  0  0
    1.2677    0.1056    1.2440 H   0  0  0  0  0  0  0  0  0  0  0  0
   -0.9149    0.6839    0.2083 H   0  0  0  0  0  0  0  0  0  0  0  0
   -0.6261   -1.5617    1.2291 H   0  0  0  0  0  0  0  0  0  0  0  0
   -0.1399   -2.2137   -0.3385 H   0  0  0  0  0  0  0  0  0  0  0  0
   -1.7840   -1.6037   -0.1046 H   0  0  0  0  0  0  0  0  0  0  0  0
    0.1345   -0.5907   -2.3620 H   0  0  0  0  0  0  0  0  0  0  0  0
   -0.1879    1.1320   -2.1284 H   0  0  0  0  0  0  0  0  0  0  0  0
   -1.5136   -0.0324   -2.0734 H   0  0  0  0  0  0  0  0  0  0  0  0
  1  2  2  3
  1  6  1  0
  1  7  1  0
  2  3  1  0
  2  8  1  0
  3  4  1  0
  3  5  1  0
  3  9  1  0
  4 10  1  0
  4 11  1  0
  4 12  1  0
  5 13  1  0
  5 14  1  0
  5 15  1  0
M  END
>  <reaction>  (1) 
rxn_1099

>  <mol_properties>  (1) 
{"2": {"label": "donator", "atom_type": "Cs"}, "8": {"label": "d_hydrogen", "atom_type": "H0"}}

>  <type>  (1) 
r1h

$$$$

     RDKit          3D

  8  7  0  0  0  0  0  0  0  0999 V2000
    1.4097   -0.3618   -0.1144 C   0  0  0  0  0  0  0  0  0  0  0  0
    0.1804   -0.1811   -0.5085 C   0  0  0  0  0  3  0  0  0  0  0  0
   -1.1132    0.2655    0.0162 C   0  0  0  0  0  0  0  0  0  0  0  0
    2.1849   -0.7256   -0.7809 H   0  0  0  0  0  0  0  0  0  0  0  0
    1.7118   -0.1519    0.9143 H   0  0  0  0  0  0  0  0  0  0  0  0
   -1.8662   -0.5198   -0.0756 H   0  0  0  0  0  0  0  0  0  0  0  0
   -1.0300    0.5356    1.0772 H   0  0  0  0  0  0  0  0  0  0  0  0
   -1.4772    1.1391   -0.5284 H   0  0  0  0  0  0  0  0  0  0  0  0
  1  2  2  3
  1  4  1  0
  1  5  1  0
  2  3  1  0
  3  6  1  0
  3  7  1  0
  3  8  1  0
M  RAD  1   2   2
M  END
>  <reaction>  (2) 
rxn_1099

>  <mol_properties>  (2) 
{"1": {"label": "acceptor", "atom_type": "Cd"}}

>  <type>  (2) 
r2

$$$$

     RDKit          3D

  9  8  0  0  0  0  0  0  0  0999 V2000
    1.1303   -0.2933   -0.7510 C   0  0  0  0  0  0  0  0  0  0  0  0
    0.2866    0.4560   -0.0588 C   0  0  0  0  0  0  0  0  0  0  0  0
   -0.9719   -0.0331    0.5823 C   0  0  0  0  0  0  0  0  0  0  0  0
    2.0274    0.1230   -1.1916 H   0  0  0  0  0  0  0  0  0  0  0  0
    0.9532   -1.3530   -0.9023 H   0  0  0  0  0  0  0  0  0  0  0  0
    0.5065    1.5132    0.0659 H   0  0  0  0  0  0  0  0  0  0  0  0
   -0.9526    0.1426    1.6610 H   0  0  0  0  0  0  0  0  0  0  0  0
   -1.1182   -1.1002    0.4106 H   0  0  0  0  0  0  0  0  0  0  0  0
   -1.8412    0.5010    0.1901 H   0  0  0  0  0  0  0  0  0  0  0  0
  1  2  2  3
  1  4  1  0
  1  5  1  0
  2  3  1  0
  2  6  1  0
  3  7  1  0
  3  8  1  0
  3  9  1  0
M  END
>  <reaction>  (3) 
rxn_1099

>  <mol_properties>  (3) 
{"1": {"label": "acceptor", "atom_type": "Cd"}, "8": {"label": "a_hydrogen", "atom_type": "H0"}}

>  <type>  (3) 
r2h

$$$$

     RDKit          3D

 23 21  0  0  0  0  0  0  0  0999 V2000
    2.2392   -0.8595    0.6897 C   0  0  0  0  0  0  0  0  0  0  0  0
    1.4021    0.0264    1.1734 C   0  0  0  0  0  3  0  0  0  0  0  0
    1.4538    0.9562    2.3204 C   0  0  0  0  0  0  0  0  0  0  0  0
    1.9930   -1.4474   -0.1891 H   0  0  0  0  0  0  0  0  0  0  0  0
    3.2120   -1.0385    1.1476 H   0  0  0  0  0  0  0  0  0  0  0  0
    0.6409    0.7552    3.0219 H   0  0  0  0  0  0  0  0  0  0  0  0
    2.4030    0.8674    2.8603 H   0  0  0  0  0  0  0  0  0  0  0  0
    1.3460    1.9911    1.9871 H   0  0  0  0  0  0  0  0  0  0  0  0
   -0.6098   -1.2022   -2.4131 C   0  0  0  0  0  0  0  0  0  0  0  0
   -0.8751   -1.0687   -1.1167 C   0  0  0  0  0  0  0  0  0  0  0  0
   -0.8652    0.1856   -0.3316 C   0  0  0  0  0  0  0  0  0  0  0  0
   -1.9977    0.2669    0.6779 C   0  0  0  0  0  0  0  0  0  0  0  0
   -0.6703    1.4620   -1.1216 C   0  0  0  0  0  0  0  0  0  0  0  0
   -0.6228   -2.1754   -2.8870 H   0  0  0  0  0  0  0  0  0  0  0  0
   -0.3783   -0.3539   -3.0457 H   0  0  0  0  0  0  0  0  0  0  0  0
   -1.1051   -1.9642   -0.5433 H   0  0  0  0  0  0  0  0  0  0  0  0
    0.1461    0.0952    0.3660 H   0  0  0  0  0  0  0  0  0  0  0  0
   -2.0575   -0.6429    1.2787 H   0  0  0  0  0  0  0  0  0  0  0  0
   -2.9606    0.4013    0.1758 H   0  0  0  0  0  0  0  0  0  0  0  0
   -1.8539    1.1114    1.3553 H   0  0  0  0  0  0  0  0  0  0  0  0
   -1.5059    1.6332   -1.8073 H   0  0  0  0  0  0  0  0  0  0  0  0
    0.2491    1.4324   -1.7084 H   0  0  0  0  0  0  0  0  0  0  0  0
   -0.6088    2.3196   -0.4490 H   0  0  0  0  0  0  0  0  0  0  0  0
  1  2  2  3
  1  4  1  0
  1  5  1  0
  2  3  1  0
  3  6  1  0
  3  7  1  0
  3  8  1  0
  9 10  2  3
  9 14  1  0
  9 15  1  0
 10 11  1  0
 10 16  1  0
 11 12  1  0
 11 13  1  0
 11 17  1  0
 12 18  1  0
 12 19  1  0
 12 20  1  0
 13 21  1  0
 13 22  1  0
 13 23  1  0
M  RAD  1   2   2
M  END
>  <reaction>  (4) 
rxn_1099

>  <mol_properties>  (4) 
{"0": {"label": "*4", "atom_type": "Cd"}, "1": {"label": "*3", "atom_type": "Cd"}, "9": {"label": "*0", "atom_type": "Cd"}, "10": {"label": "*1", "atom_type": "Cs"}, "16": {"label": "*2", "atom_type": "H0"}}

>  <type>  (4) 
ts

$$$$
