
     RDKit          3D

 13 12  0  0  0  0  0  0  0  0999 V2000
    3.0977   -0.3549   -0.5105 C   0  0  0  0  0  0  0  0  0  0  0  0
    2.0556    0.4221   -0.2627 C   0  0  0  0  0  0  0  0  0  0  0  0
    0.6313   -0.0354   -0.2366 C   0  0  0  0  0  0  0  0  0  0  0  0
   -0.2567    0.6038   -1.2694 C   0  0  0  0  0  0  0  0  0  0  0  0
    0.1459    1.3456   -2.2891 C   0  0  0  0  0  0  0  0  0  0  0  0
    4.1081    0.0344   -0.5074 H   0  0  0  0  0  0  0  0  0  0  0  0
    2.9777   -1.4116   -0.7243 H   0  0  0  0  0  0  0  0  0  0  0  0
    2.2171    1.4781   -0.0618 H   0  0  0  0  0  0  0  0  0  0  0  0
    0.5865   -1.1233   -0.3540 H   0  0  0  0  0  0  0  0  0  0  0  0
    0.2065    0.1743    0.7521 H   0  0  0  0  0  0  0  0  0  0  0  0
   -1.3190    0.4126   -1.1445 H   0  0  0  0  0  0  0  0  0  0  0  0
    1.1948    1.5564   -2.4628 H   0  0  0  0  0  0  0  0  0  0  0  0
   -0.5644    1.7621   -2.9918 H   0  0  0  0  0  0  0  0  0  0  0  0
  1  2  2  3
  1  6  1  0
  1  7  1  0
  2  3  1  0
  2  8  1  0
  3  4  1  0
  3  9  1  0
  3 10  1  0
  4  5  2  3
  4 11  1  0
  5 12  1  0
  5 13  1  0
M  END
>  <reaction>  (1) 
rxn_1135

>  <mol_properties>  (1) 
{"2": {"label": "donator", "atom_type": "Cs"}, "8": {"label": "d_hydrogen", "atom_type": "H0"}}

>  <type>  (1) 
r1h

$$$$

     RDKit          3D

  9  8  0  0  0  0  0  0  0  0999 V2000
    2.3038   -0.0269    0.1590 C   0  0  0  0  0  0  0  0  0  0  0  0
    1.1426    0.1377   -0.1648 C   0  0  0  0  0  0  0  0  0  0  0  0
   -0.1694    0.3175   -0.5203 C   0  0  0  0  0  3  0  0  0  0  0  0
   -1.3163   -0.1910    0.2856 C   0  0  0  0  0  0  0  0  0  0  0  0
    3.3199   -0.1683    0.4378 H   0  0  0  0  0  0  0  0  0  0  0  0
   -0.3786    0.8584   -1.4360 H   0  0  0  0  0  0  0  0  0  0  0  0
   -1.9694    0.6309    0.5951 H   0  0  0  0  0  0  0  0  0  0  0  0
   -1.9325   -0.8770   -0.3039 H   0  0  0  0  0  0  0  0  0  0  0  0
   -0.9753   -0.7144    1.1774 H   0  0  0  0  0  0  0  0  0  0  0  0
  1  2  3  0
  1  5  1  0
  2  3  1  0
  3  4  1  0
  3  6  1  0
  4  7  1  0
  4  8  1  0
  4  9  1  0
M  RAD  1   3   2
M  END
>  <reaction>  (2) 
rxn_1135

>  <mol_properties>  (2) 
{"2": {"label": "acceptor", "atom_type": "Cs"}}

>  <type>  (2) 
r2

$$$$

     RDKit          3D

 10  9  0  0  0  0  0  0  0  0999 V2000
    2.2738    0.0217   -0.0992 C   0  0  0  0  0  0  0  0  0  0  0  0
    1.1083    0.2960   -0.0695 C   0  0  0  0  0  0  0  0  0  0  0  0
   -0.3173    0.6046   -0.0227 C   0  0  0  0  0  0  0  0  0  0  0  0
   -1.1561   -0.5495    0.5292 C   0  0  0  0  0  0  0  0  0  0  0  0
    3.3097   -0.2166   -0.1277 H   0  0  0  0  0  0  0  0  0  0  0  0
   -0.6542    0.8617   -1.0302 H   0  0  0  0  0  0  0  0  0  0  0  0
   -0.4633    1.4978    0.5900 H   0  0  0  0  0  0  0  0  0  0  0  0
   -0.8485   -0.7997    1.5447 H   0  0  0  0  0  0  0  0  0  0  0  0
   -2.2115   -0.2752    0.5459 H   0  0  0  0  0  0  0  0  0  0  0  0
   -1.0409   -1.4407   -0.0879 H   0  0  0  0  0  0  0  0  0  0  0  0
  1  2  3  0
  1  5  1  0
  2  3  1  0
  3  4  1  0
  3  6  1  0
  3  7  1  0
  4  8  1  0
  4  9  1  0
  4 10  1  0
M  END
>  <reaction>  (3) 
rxn_1135

>  <mol_properties>  (3) 
{"2": {"label": "acceptor", "atom_type": "Cs"}, "9": {"label": "a_hydrogen", "atom_type": "H0"}}

>  <type>  (3) 
r2h

$$$$

     RDKit          3D

 22 20  0  0  0  0  0  0  0  0999 V2000
   -1.0054    3.0453    1.0131 C   0  0  0  0  0  0  0  0  0  0  0  0
   -0.6700    2.3076    0.1219 C   0  0  0  0  0  0  0  0  0  0  0  0
   -0.2645    1.3824   -0.8711 C   0  0  0  0  0  3  0  0  0  0  0  0
    1.1887    1.3583   -1.2721 C   0  0  0  0  0  0  0  0  0  0  0  0
   -1.3029    3.7158    1.7828 H   0  0  0  0  0  0  0  0  0  0  0  0
   -0.9752    1.2597   -1.6859 H   0  0  0  0  0  0  0  0  0  0  0  0
    1.3848    0.5075   -1.9261 H   0  0  0  0  0  0  0  0  0  0  0  0
    1.4674    2.2699   -1.8072 H   0  0  0  0  0  0  0  0  0  0  0  0
    1.8277    1.2748   -0.3916 H   0  0  0  0  0  0  0  0  0  0  0  0
   -0.5812   -2.6816   -1.5270 C   0  0  0  0  0  0  0  0  0  0  0  0
    0.1503   -1.9596   -0.6812 C   0  0  0  0  0  0  0  0  0  0  0  0
   -0.4021   -1.0434    0.3207 C   0  0  0  0  0  0  0  0  0  0  0  0
    0.3212   -0.7845    1.5745 C   0  0  0  0  0  0  0  0  0  0  0  0
    1.5324   -1.2251    1.9089 C   0  0  0  0  0  0  0  0  0  0  0  0
   -0.1205   -3.3126   -2.2759 H   0  0  0  0  0  0  0  0  0  0  0  0
   -1.6651   -2.6701   -1.4902 H   0  0  0  0  0  0  0  0  0  0  0  0
    1.2324   -2.0034   -0.7615 H   0  0  0  0  0  0  0  0  0  0  0  0
   -0.3985    0.1247   -0.2484 H   0  0  0  0  0  0  0  0  0  0  0  0
   -1.4779   -1.1522    0.4629 H   0  0  0  0  0  0  0  0  0  0  0  0
   -0.1966   -0.1261    2.2658 H   0  0  0  0  0  0  0  0  0  0  0  0
    2.1044   -1.8937    1.2773 H   0  0  0  0  0  0  0  0  0  0  0  0
    1.9849   -0.9379    2.8489 H   0  0  0  0  0  0  0  0  0  0  0  0
  1  2  3  0
  1  5  1  0
  2  3  1  0
  3  4  1  0
  3  6  1  0
  4  7  1  0
  4  8  1  0
  4  9  1  0
 10 11  2  3
 10 15  1  0
 10 16  1  0
 11 12  1  0
 11 17  1  0
 12 13  1  0
 12 18  1  0
 12 19  1  0
 13 14  2  3
 13 20  1  0
 14 21  1  0
 14 22  1  0
M  RAD  1   3   2
M  END
>  <reaction>  (4) 
rxn_1135

>  <mol_properties>  (4) 
{"1": {"label": "*4", "atom_type": "Ct"}, "2": {"label": "*3", "atom_type": "Cs"}, "10": {"label": "*0", "atom_type": "Cd"}, "11": {"label": "*1", "atom_type": "Cs"}, "17": {"label": "*2", "atom_type": "H0"}}

>  <type>  (4) 
ts

$$$$
