
     RDKit          3D

 10  9  0  0  0  0  0  0  0  0999 V2000
    2.2738    0.0217   -0.0992 C   0  0  0  0  0  0  0  0  0  0  0  0
    1.1083    0.2960   -0.0695 C   0  0  0  0  0  0  0  0  0  0  0  0
   -0.3173    0.6046   -0.0227 C   0  0  0  0  0  0  0  0  0  0  0  0
   -1.1561   -0.5495    0.5292 C   0  0  0  0  0  0  0  0  0  0  0  0
    3.3097   -0.2166   -0.1277 H   0  0  0  0  0  0  0  0  0  0  0  0
   -0.6542    0.8617   -1.0302 H   0  0  0  0  0  0  0  0  0  0  0  0
   -0.4633    1.4978    0.5900 H   0  0  0  0  0  0  0  0  0  0  0  0
   -0.8485   -0.7997    1.5447 H   0  0  0  0  0  0  0  0  0  0  0  0
   -2.2115   -0.2752    0.5459 H   0  0  0  0  0  0  0  0  0  0  0  0
   -1.0409   -1.4407   -0.0879 H   0  0  0  0  0  0  0  0  0  0  0  0
  1  2  3  0
  1  5  1  0
  2  3  1  0
  3  4  1  0
  3  6  1  0
  3  7  1  0
  4  8  1  0
  4  9  1  0
  4 10  1  0
M  END
>  <reaction>  (1) 
rxn_1264

>  <mol_properties>  (1) 
{"2": {"label": "donator", "atom_type": "Cs"}, "5": {"label": "d_hydrogen", "atom_type": "H0"}}

>  <type>  (1) 
r1h

$$$$

     RDKit          3D

 14 13  0  0  0  0  0  0  0  0999 V2000
    1.0767   -1.6838    1.2931 C   0  0  0  0  0  0  0  0  0  0  0  0
    1.0020   -0.3665    0.9163 C   0  0  0  0  0  0  0  0  0  0  0  0
    1.3965    0.7260    1.6806 C   0  0  0  0  0  3  0  0  0  0  0  0
    1.2666    2.1197    1.1619 C   0  0  0  0  0  0  0  0  0  0  0  0
    1.9670    0.5479    3.0536 C   0  0  0  0  0  0  0  0  0  0  0  0
    0.7448   -2.4705    0.6300 H   0  0  0  0  0  0  0  0  0  0  0  0
    1.4663   -1.9826    2.2578 H   0  0  0  0  0  0  0  0  0  0  0  0
    0.5980   -0.1511   -0.0695 H   0  0  0  0  0  0  0  0  0  0  0  0
    0.6296    2.7241    1.8172 H   0  0  0  0  0  0  0  0  0  0  0  0
    2.2410    2.6200    1.1341 H   0  0  0  0  0  0  0  0  0  0  0  0
    0.8426    2.1448    0.1579 H   0  0  0  0  0  0  0  0  0  0  0  0
    2.8745   -0.0634    3.0328 H   0  0  0  0  0  0  0  0  0  0  0  0
    1.2599    0.0408    3.7173 H   0  0  0  0  0  0  0  0  0  0  0  0
    2.2205    1.5071    3.5054 H   0  0  0  0  0  0  0  0  0  0  0  0
  1  2  2  3
  1  6  1  0
  1  7  1  0
  2  3  1  0
  2  8  1  0
  3  4  1  0
  3  5  1  0
  4  9  1  0
  4 10  1  0
  4 11  1  0
  5 12  1  0
  5 13  1  0
  5 14  1  0
M  RAD  1   3   2
M  END
>  <reaction>  (2) 
rxn_1264

>  <mol_properties>  (2) 
{"2": {"label": "acceptor", "atom_type": "Cs"}}

>  <type>  (2) 
r2

$$$$

     RDKit          3D

 15 14  0  0  0  0  0  0  0  0999 V2000
    2.1256    0.4849   -0.6284 C   0  0  0  0  0  0  0  0  0  0  0  0
    1.1128    0.2141    0.1794 C   0  0  0  0  0  0  0  0  0  0  0  0
   -0.3017   -0.0425   -0.2513 C   0  0  0  0  0  0  0  0  0  0  0  0
   -1.2427    1.0075    0.3423 C   0  0  0  0  0  0  0  0  0  0  0  0
   -0.7381   -1.4526    0.1504 C   0  0  0  0  0  0  0  0  0  0  0  0
    3.1243    0.6602   -0.2486 H   0  0  0  0  0  0  0  0  0  0  0  0
    1.9908    0.5411   -1.7036 H   0  0  0  0  0  0  0  0  0  0  0  0
    1.2888    0.1665    1.2533 H   0  0  0  0  0  0  0  0  0  0  0  0
   -0.3426    0.0343   -1.3424 H   0  0  0  0  0  0  0  0  0  0  0  0
   -0.9570    2.0133    0.0315 H   0  0  0  0  0  0  0  0  0  0  0  0
   -1.2189    0.9728    1.4350 H   0  0  0  0  0  0  0  0  0  0  0  0
   -2.2723    0.8287    0.0254 H   0  0  0  0  0  0  0  0  0  0  0  0
   -0.6964   -1.5744    1.2363 H   0  0  0  0  0  0  0  0  0  0  0  0
   -0.0911   -2.2079   -0.2978 H   0  0  0  0  0  0  0  0  0  0  0  0
   -1.7646   -1.6461   -0.1677 H   0  0  0  0  0  0  0  0  0  0  0  0
  1  2  2  3
  1  6  1  0
  1  7  1  0
  2  3  1  0
  2  8  1  0
  3  4  1  0
  3  5  1  0
  3  9  1  0
  4 10  1  0
  4 11  1  0
  4 12  1  0
  5 13  1  0
  5 14  1  0
  5 15  1  0
M  END
>  <reaction>  (3) 
rxn_1264

>  <mol_properties>  (3) 
{"0": {"label": "a_hydrogen", "atom_type": "H0"}, "3": {"label": "acceptor", "atom_type": "Cs"}}

>  <type>  (3) 
r2h

$$$$

     RDKit          3D

 24 22  0  0  0  0  0  0  0  0999 V2000
   -0.3383    1.2092   -3.0417 C   0  0  0  0  0  0  0  0  0  0  0  0
   -0.7881    0.9801   -1.9478 C   0  0  0  0  0  0  0  0  0  0  0  0
   -1.2491    0.7011   -0.6352 C   0  0  0  0  0  3  0  0  0  0  0  0
   -1.5644    1.8687    0.2686 C   0  0  0  0  0  0  0  0  0  0  0  0
    0.0364    1.4149   -4.0152 H   0  0  0  0  0  0  0  0  0  0  0  0
   -0.1817    0.1012    0.0128 H   0  0  0  0  0  0  0  0  0  0  0  0
   -1.9654   -0.1176   -0.5873 H   0  0  0  0  0  0  0  0  0  0  0  0
   -2.4751    2.3833   -0.0485 H   0  0  0  0  0  0  0  0  0  0  0  0
   -1.7111    1.5223    1.2931 H   0  0  0  0  0  0  0  0  0  0  0  0
   -0.7504    2.5947    0.2605 H   0  0  0  0  0  0  0  0  0  0  0  0
    0.0417   -1.7981    2.5040 C   0  0  0  0  0  0  0  0  0  0  0  0
    0.4594   -0.6534    1.9612 C   0  0  0  0  0  0  0  0  0  0  0  0
    0.8706   -0.4376    0.5698 C   0  0  0  0  0  0  0  0  0  0  0  0
    1.0765   -1.6597   -0.2929 C   0  0  0  0  0  0  0  0  0  0  0  0
    1.9098    0.6439    0.3699 C   0  0  0  0  0  0  0  0  0  0  0  0
   -0.2702   -1.8413    3.5394 H   0  0  0  0  0  0  0  0  0  0  0  0
    0.0084   -2.7250    1.9447 H   0  0  0  0  0  0  0  0  0  0  0  0
    0.4771    0.2342    2.5899 H   0  0  0  0  0  0  0  0  0  0  0  0
    1.2492   -1.3646   -1.3291 H   0  0  0  0  0  0  0  0  0  0  0  0
    1.9430   -2.2359    0.0467 H   0  0  0  0  0  0  0  0  0  0  0  0
    0.2074   -2.3193   -0.2753 H   0  0  0  0  0  0  0  0  0  0  0  0
    2.9061    0.2821    0.6441 H   0  0  0  0  0  0  0  0  0  0  0  0
    1.6936    1.5211    0.9829 H   0  0  0  0  0  0  0  0  0  0  0  0
    1.9430    0.9580   -0.6754 H   0  0  0  0  0  0  0  0  0  0  0  0
  1  2  3  0
  1  5  1  0
  2  3  1  0
  3  4  1  0
  3  7  1  0
  4  8  1  0
  4  9  1  0
  4 10  1  0
  6 13  1  0
 11 12  2  3
 11 16  1  0
 11 17  1  0
 12 13  1  0
 12 18  1  0
 13 14  1  0
 13 15  1  0
 14 19  1  0
 14 20  1  0
 14 21  1  0
 15 22  1  0
 15 23  1  0
 15 24  1  0
M  RAD  1   3   2
M  END
>  <reaction>  (4) 
rxn_1264

>  <mol_properties>  (4) 
{"1": {"label": "*4", "atom_type": "Ct"}, "2": {"label": "*3", "atom_type": "Cs"}, "5": {"label": "*2", "atom_type": "H0"}, "11": {"label": "*0", "atom_type": "Cd"}, "12": {"label": "*1", "atom_type": "Cs"}}

>  <type>  (4) 
ts

$$$$
