
     RDKit          3D

  9  8  0  0  0  0  0  0  0  0999 V2000
   -2.1022   -0.6873    0.3932 C   0  0  0  0  0  0  0  0  0  0  0  0
   -1.2072   -0.1086   -0.1482 C   0  0  0  0  0  0  0  0  0  0  0  0
   -0.1242    0.6105   -0.8193 C   0  0  0  0  0  0  0  0  0  0  0  0
    1.2067    0.1106   -0.4741 C   0  0  0  0  0  0  0  0  0  0  0  0
    2.3005   -0.2875   -0.2012 C   0  0  0  0  0  0  0  0  0  0  0  0
   -2.8942   -1.2059    0.8778 H   0  0  0  0  0  0  0  0  0  0  0  0
   -0.1862    1.6723   -0.5649 H   0  0  0  0  0  0  0  0  0  0  0  0
   -0.2641    0.5418   -1.9017 H   0  0  0  0  0  0  0  0  0  0  0  0
    3.2709   -0.6459    0.0455 H   0  0  0  0  0  0  0  0  0  0  0  0
  1  2  3  0
  1  6  1  0
  2  3  1  0
  3  4  1  0
  3  7  1  0
  3  8  1  0
  4  5  3  0
  5  9  1  0
M  END
>  <reaction>  (1) 
rxn_1387

>  <mol_properties>  (1) 
{"2": {"label": "donator", "atom_type": "Cs"}, "6": {"label": "d_hydrogen", "atom_type": "H0"}}

>  <type>  (1) 
r1h

$$$$

     RDKit          3D

  7  6  0  0  0  0  0  0  0  0999 V2000
   -0.6904   -0.9066   -0.0346 C   0  0  0  0  0  0  0  0  0  0  0  0
    0.1413    0.0254   -0.6161 C   0  0  0  0  0  0  0  0  0  0  0  0
    0.4603    0.1105   -1.9267 C   0  0  0  0  0  3  0  0  0  0  0  0
    0.8318    0.2180   -3.4201 S   0  0  0  0  0  0  0  0  0  0  0  0
   -0.8731   -0.8770    1.0287 H   0  0  0  0  0  0  0  0  0  0  0  0
   -1.1718   -1.6767   -0.6199 H   0  0  0  0  0  0  0  0  0  0  0  0
    0.6090    0.7866    0.0044 H   0  0  0  0  0  0  0  0  0  0  0  0
  1  2  2  3
  1  5  1  0
  1  6  1  0
  2  3  1  0
  2  7  1  0
  3  4  2  0
M  RAD  1   3   2
M  END
>  <reaction>  (2) 
rxn_1387

>  <mol_properties>  (2) 
{"2": {"label": "acceptor", "atom_type": "CS"}}

>  <type>  (2) 
r2

$$$$

     RDKit          3D

  8  7  0  0  0  0  0  0  0  0999 V2000
   -1.1617    0.0338    0.5053 C   0  0  0  0  0  0  0  0  0  0  0  0
   -0.1023    0.4503   -0.1863 C   0  0  0  0  0  0  0  0  0  0  0  0
    1.0978   -0.3557   -0.3104 C   0  0  0  0  0  0  0  0  0  0  0  0
    2.4251    0.0667   -1.1256 S   0  0  0  0  0  0  0  0  0  0  0  0
   -1.1653   -0.9292    1.0039 H   0  0  0  0  0  0  0  0  0  0  0  0
   -2.0546    0.6389    0.5948 H   0  0  0  0  0  0  0  0  0  0  0  0
   -0.0991    1.4132   -0.6847 H   0  0  0  0  0  0  0  0  0  0  0  0
    1.0601   -1.3180    0.2032 H   0  0  0  0  0  0  0  0  0  0  0  0
  1  2  2  3
  1  5  1  0
  1  6  1  0
  2  3  1  0
  2  7  1  0
  3  4  2  0
  3  8  1  0
M  END
>  <reaction>  (3) 
rxn_1387

>  <mol_properties>  (3) 
{"0": {"label": "a_hydrogen", "atom_type": "H0"}, "3": {"label": "acceptor", "atom_type": "CS"}}

>  <type>  (3) 
r2h

$$$$

     RDKit          3D

 16 14  0  0  0  0  0  0  0  0999 V2000
   -1.1843   -0.9573   -3.0369 C   0  0  0  0  0  0  0  0  0  0  0  0
   -1.0220   -1.0946   -1.8558 C   0  0  0  0  0  0  0  0  0  0  0  0
   -0.7664   -1.2011   -0.4471 C   0  0  0  0  0  0  0  0  0  0  0  0
   -1.8976   -1.1798    0.4287 C   0  0  0  0  0  0  0  0  0  0  0  0
   -2.8109   -1.1032    1.2039 C   0  0  0  0  0  0  0  0  0  0  0  0
   -1.3525   -0.8535   -4.0817 H   0  0  0  0  0  0  0  0  0  0  0  0
   -0.0941   -0.1096   -0.0985 H   0  0  0  0  0  0  0  0  0  0  0  0
   -0.0507   -1.9864   -0.2026 H   0  0  0  0  0  0  0  0  0  0  0  0
   -3.6275   -1.0473    1.8825 H   0  0  0  0  0  0  0  0  0  0  0  0
    2.0301    0.7695   -1.5388 C   0  0  0  0  0  0  0  0  0  0  0  0
    1.7319    1.3805   -0.3925 C   0  0  0  0  0  0  0  0  0  0  0  0
    0.5641    1.0353    0.3844 C   0  0  0  0  0  3  0  0  0  0  0  0
   -0.0792    1.7026    1.6652 S   0  0  0  0  0  0  0  0  0  0  0  0
    2.9031    1.0581   -2.1105 H   0  0  0  0  0  0  0  0  0  0  0  0
    1.4040   -0.0147   -1.9471 H   0  0  0  0  0  0  0  0  0  0  0  0
    2.3609    2.1803   -0.0113 H   0  0  0  0  0  0  0  0  0  0  0  0
  1  2  3  0
  1  6  1  0
  2  3  1  0
  3  4  1  0
  3  7  1  0
  3  8  1  0
  4  5  3  0
  5  9  1  0
 10 11  2  3
 10 14  1  0
 10 15  1  0
 11 12  1  0
 11 16  1  0
 12 13  2  0
M  RAD  1  12   2
M  END
>  <reaction>  (4) 
rxn_1387

>  <mol_properties>  (4) 
{"1": {"label": "*0", "atom_type": "Ct"}, "2": {"label": "*1", "atom_type": "Cs"}, "6": {"label": "*2", "atom_type": "H0"}, "11": {"label": "*3", "atom_type": "CS"}, "12": {"label": "*4", "atom_type": "S2d"}}

>  <type>  (4) 
ts

$$$$
