
     RDKit          3D

 15 15  0  0  0  0  0  0  0  0999 V2000
    2.2031   -0.2111   -0.1693 C   0  0  0  0  0  0  0  0  0  0  0  0
    0.7140   -0.0314   -0.0623 C   0  0  0  0  0  0  0  0  0  0  0  0
   -0.0114    0.5491   -1.0982 C   0  0  0  0  0  0  0  0  0  0  0  0
   -1.3882    0.6886   -1.0150 C   0  0  0  0  0  0  0  0  0  0  0  0
   -2.0661    0.2493    0.1118 C   0  0  0  0  0  0  0  0  0  0  0  0
   -1.3551   -0.3278    1.1528 C   0  0  0  0  0  0  0  0  0  0  0  0
    0.0216   -0.4648    1.0642 C   0  0  0  0  0  0  0  0  0  0  0  0
    2.6776   -0.1836    0.8122 H   0  0  0  0  0  0  0  0  0  0  0  0
    2.4446   -1.1749   -0.6249 H   0  0  0  0  0  0  0  0  0  0  0  0
    2.6532    0.5664   -0.7875 H   0  0  0  0  0  0  0  0  0  0  0  0
    0.5104    0.8989   -1.9819 H   0  0  0  0  0  0  0  0  0  0  0  0
   -1.9328    1.1452   -1.8322 H   0  0  0  0  0  0  0  0  0  0  0  0
   -3.1409    0.3597    0.1800 H   0  0  0  0  0  0  0  0  0  0  0  0
   -1.8736   -0.6702    2.0398 H   0  0  0  0  0  0  0  0  0  0  0  0
    0.5695   -0.9141    1.8849 H   0  0  0  0  0  0  0  0  0  0  0  0
  1  2  1  0
  1  8  1  0
  1  9  1  0
  1 10  1  0
  2  3  2  0
  2  7  1  0
  3  4  1  0
  3 11  1  0
  4  5  2  0
  4 12  1  0
  5  6  1  0
  5 13  1  0
  6  7  2  0
  6 14  1  0
  7 15  1  0
M  END
>  <reaction>  (1) 
rxn_1452

>  <mol_properties>  (1) 
{"0": {"label": "donator", "atom_type": "Cs"}, "7": {"label": "d_hydrogen", "atom_type": "H0"}}

>  <type>  (1) 
r1h

$$$$

     RDKit          3D

  9  8  0  0  0  0  0  0  0  0999 V2000
    1.8963   -0.1405   -0.2150 C   0  0  0  0  0  0  0  0  0  0  0  0
    0.6340    0.1486   -0.2254 C   0  0  0  0  0  3  0  0  0  0  0  0
   -0.6770    0.4501   -0.2373 C   0  0  0  0  0  0  0  0  0  0  0  0
   -1.6600   -0.2303    0.4662 C   0  0  0  0  0  0  0  0  0  0  0  0
    2.3274   -0.8354   -0.9313 H   0  0  0  0  0  0  0  0  0  0  0  0
    2.5751    0.2988    0.5117 H   0  0  0  0  0  0  0  0  0  0  0  0
   -0.9723    1.2966   -0.8520 H   0  0  0  0  0  0  0  0  0  0  0  0
   -2.6934    0.0777    0.4015 H   0  0  0  0  0  0  0  0  0  0  0  0
   -1.4140   -1.0782    1.0904 H   0  0  0  0  0  0  0  0  0  0  0  0
  1  2  2  3
  1  5  1  0
  1  6  1  0
  2  3  1  0
  3  4  2  3
  3  7  1  0
  4  8  1  0
  4  9  1  0
M  RAD  1   2   2
M  END
>  <reaction>  (2) 
rxn_1452

>  <mol_properties>  (2) 
{"1": {"label": "acceptor", "atom_type": "Cd"}}

>  <type>  (2) 
r2

$$$$

     RDKit          3D

 10  9  0  0  0  0  0  0  0  0999 V2000
    1.8334    0.0847   -0.1062 C   0  0  0  0  0  0  0  0  0  0  0  0
    0.5993   -0.4071   -0.0750 C   0  0  0  0  0  0  0  0  0  0  0  0
   -0.5993    0.4071    0.0750 C   0  0  0  0  0  0  0  0  0  0  0  0
   -1.8334   -0.0847    0.1062 C   0  0  0  0  0  0  0  0  0  0  0  0
    2.0179    1.1498   -0.0189 H   0  0  0  0  0  0  0  0  0  0  0  0
    2.6972   -0.5572   -0.2194 H   0  0  0  0  0  0  0  0  0  0  0  0
    0.4465   -1.4793   -0.1649 H   0  0  0  0  0  0  0  0  0  0  0  0
   -0.4465    1.4793    0.1649 H   0  0  0  0  0  0  0  0  0  0  0  0
   -2.0179   -1.1498    0.0189 H   0  0  0  0  0  0  0  0  0  0  0  0
   -2.6972    0.5572    0.2194 H   0  0  0  0  0  0  0  0  0  0  0  0
  1  2  2  3
  1  5  1  0
  1  6  1  0
  2  3  1  0
  2  7  1  0
  3  4  2  3
  3  8  1  0
  4  9  1  0
  4 10  1  0
M  END
>  <reaction>  (3) 
rxn_1452

>  <mol_properties>  (3) 
{"1": {"label": "acceptor", "atom_type": "Cd"}, "9": {"label": "a_hydrogen", "atom_type": "H0"}}

>  <type>  (3) 
r2h

$$$$

     RDKit          3D

 24 23  0  0  0  0  0  0  0  0999 V2000
   -1.7176   -1.3781    0.8159 C   0  0  0  0  0  0  0  0  0  0  0  0
   -1.0043   -0.9532    1.8383 C   0  0  0  0  0  3  0  0  0  0  0  0
   -1.1278   -1.1939    3.2565 C   0  0  0  0  0  0  0  0  0  0  0  0
   -0.3180   -0.6866    4.1807 C   0  0  0  0  0  0  0  0  0  0  0  0
   -1.4754   -1.0908   -0.2021 H   0  0  0  0  0  0  0  0  0  0  0  0
   -2.5765   -2.0334    0.9542 H   0  0  0  0  0  0  0  0  0  0  0  0
   -1.9511   -1.8401    3.5623 H   0  0  0  0  0  0  0  0  0  0  0  0
   -0.4585   -0.9015    5.2317 H   0  0  0  0  0  0  0  0  0  0  0  0
    0.5093   -0.0411    3.9104 H   0  0  0  0  0  0  0  0  0  0  0  0
    0.9942    0.6309    0.9492 C   0  0  0  0  0  0  0  0  0  0  0  0
    0.7912    0.6324   -0.5108 C   0  0  0  0  0  0  0  0  0  0  0  0
   -0.0519    1.5663   -1.1161 C   0  0  0  0  0  0  0  0  0  0  0  0
   -0.3000    1.5249   -2.4777 C   0  0  0  0  0  0  0  0  0  0  0  0
    0.2881    0.5455   -3.2654 C   0  0  0  0  0  0  0  0  0  0  0  0
    1.1283   -0.3897   -2.6782 C   0  0  0  0  0  0  0  0  0  0  0  0
    1.3754   -0.3470   -1.3165 C   0  0  0  0  0  0  0  0  0  0  0  0
    0.0930   -0.0927    1.4386 H   0  0  0  0  0  0  0  0  0  0  0  0
    1.9180    0.1578    1.2767 H   0  0  0  0  0  0  0  0  0  0  0  0
    0.8444    1.5970    1.4274 H   0  0  0  0  0  0  0  0  0  0  0  0
   -0.5194    2.3308   -0.5061 H   0  0  0  0  0  0  0  0  0  0  0  0
   -0.9554    2.2606   -2.9271 H   0  0  0  0  0  0  0  0  0  0  0  0
    0.0950    0.5130   -4.3300 H   0  0  0  0  0  0  0  0  0  0  0  0
    1.5937   -1.1565   -3.2850 H   0  0  0  0  0  0  0  0  0  0  0  0
    2.0283   -1.0844   -0.8638 H   0  0  0  0  0  0  0  0  0  0  0  0
  1  2  2  3
  1  5  1  0
  1  6  1  0
  2  3  1  0
  3  4  2  3
  3  7  1  0
  4  8  1  0
  4  9  1  0
 10 11  1  0
 10 17  1  0
 10 18  1  0
 10 19  1  0
 11 12  2  0
 11 16  1  0
 12 13  1  0
 12 20  1  0
 13 14  2  0
 13 21  1  0
 14 15  1  0
 14 22  1  0
 15 16  2  0
 15 23  1  0
 16 24  1  0
M  RAD  1   2   2
M  END
>  <reaction>  (4) 
rxn_1452

>  <mol_properties>  (4) 
{"1": {"label": "*3", "atom_type": "Cd"}, "2": {"label": "*4", "atom_type": "Cd"}, "9": {"label": "*1", "atom_type": "Cs"}, "10": {"label": "*0", "atom_type": "Cd"}, "16": {"label": "*2", "atom_type": "H0"}}

>  <type>  (4) 
ts

$$$$
