
     RDKit          3D

  7  6  0  0  0  0  0  0  0  0999 V2000
    1.1790    0.0623    0.2249 N   0  0  0  0  0  0  0  0  0  0  0  0
    0.0806   -0.7371    0.2750 N   0  0  0  0  0  0  0  0  0  0  0  0
    0.2345   -1.9592    0.5674 C   0  0  0  0  0  0  0  0  0  0  0  0
    1.0160    0.8617   -0.3633 H   0  0  0  0  0  0  0  0  0  0  0  0
    2.0560   -0.4061    0.0238 H   0  0  0  0  0  0  0  0  0  0  0  0
   -0.6510   -2.5755    0.6538 H   0  0  0  0  0  0  0  0  0  0  0  0
    1.2139   -2.4141    0.7430 H   0  0  0  0  0  0  0  0  0  0  0  0
  1  2  1  0
  1  4  1  0
  1  5  1  0
  2  3  2  3
  3  6  1  0
  3  7  1  0
M  END
>  <reaction>  (1) 
rxn_721

>  <mol_properties>  (1) 
{"0": {"label": "donator", "atom_type": "N3s"}, "3": {"label": "d_hydrogen", "atom_type": "H0"}}

>  <type>  (1) 
r1h

$$$$

     RDKit          3D

  4  3  0  0  0  0  0  0  0  0999 V2000
    0.0000    0.0000    0.0000 C   0  0  0  0  0  3  0  0  0  0  0  0
    1.0638   -0.1747    0.0540 H   0  0  0  0  0  0  0  0  0  0  0  0
   -0.6833   -0.8351   -0.0280 H   0  0  0  0  0  0  0  0  0  0  0  0
   -0.3805    1.0098   -0.0260 H   0  0  0  0  0  0  0  0  0  0  0  0
  1  2  1  0
  1  3  1  0
  1  4  1  0
M  RAD  1   1   2
M  END
>  <reaction>  (2) 
rxn_721

>  <mol_properties>  (2) 
{"0": {"label": "acceptor", "atom_type": "Cs"}}

>  <type>  (2) 
r2

$$$$

     RDKit          3D

  5  4  0  0  0  0  0  0  0  0999 V2000
    0.0000    0.0000    0.0000 C   0  0  0  0  0  0  0  0  0  0  0  0
   -0.6486   -0.7720   -0.4113 H   0  0  0  0  0  0  0  0  0  0  0  0
   -0.3482    0.9787   -0.3267 H   0  0  0  0  0  0  0  0  0  0  0  0
   -0.0223   -0.0487    1.0876 H   0  0  0  0  0  0  0  0  0  0  0  0
    1.0191   -0.1580   -0.3496 H   0  0  0  0  0  0  0  0  0  0  0  0
  1  2  1  0
  1  3  1  0
  1  4  1  0
  1  5  1  0
M  END
>  <reaction>  (3) 
rxn_721

>  <mol_properties>  (3) 
{"0": {"label": "acceptor", "atom_type": "Cs"}, "4": {"label": "a_hydrogen", "atom_type": "H0"}}

>  <type>  (3) 
r2h

$$$$

     RDKit          3D

 11  9  0  0  0  0  0  0  0  0999 V2000
   -0.8092    0.5062    2.2593 C   0  0  0  0  0  3  0  0  0  0  0  0
   -1.3660    1.3891    1.9614 H   0  0  0  0  0  0  0  0  0  0  0  0
   -0.1642    0.6565    3.1203 H   0  0  0  0  0  0  0  0  0  0  0  0
   -1.4100   -0.3972    2.3028 H   0  0  0  0  0  0  0  0  0  0  0  0
    0.6658    0.0608    0.2045 N   0  0  0  0  0  0  0  0  0  0  0  0
   -0.1685   -0.5392   -0.6722 N   0  0  0  0  0  0  0  0  0  0  0  0
   -0.0357   -0.3162   -1.9145 C   0  0  0  0  0  0  0  0  0  0  0  0
    0.0397    0.2197    1.2598 H   0  0  0  0  0  0  0  0  0  0  0  0
    0.9178    1.0081   -0.0953 H   0  0  0  0  0  0  0  0  0  0  0  0
   -0.6814   -0.8516   -2.5998 H   0  0  0  0  0  0  0  0  0  0  0  0
    0.7114    0.3717   -2.3202 H   0  0  0  0  0  0  0  0  0  0  0  0
  1  2  1  0
  1  3  1  0
  1  4  1  0
  5  6  1  0
  5  8  1  0
  5  9  1  0
  6  7  2  3
  7 10  1  0
  7 11  1  0
M  RAD  1   1   2
M  END
>  <reaction>  (4) 
rxn_721

>  <mol_properties>  (4) 
{"0": {"label": "*3", "atom_type": "Cs"}, "1": {"label": "*4", "atom_type": "H0"}, "4": {"label": "*1", "atom_type": "N3s"}, "5": {"label": "*0", "atom_type": "N3d"}, "7": {"label": "*2", "atom_type": "H0"}}

>  <type>  (4) 
ts

$$$$
