
     RDKit          3D

  6  5  0  0  0  0  0  0  0  0999 V2000
   -0.5072   -0.0291   -0.0097 C   0  0  0  0  0  0  0  0  0  0  0  0
    1.1321   -0.1527   -0.7687 S   0  0  0  0  0  0  0  0  0  0  0  0
   -0.6174   -0.7330    0.8127 H   0  0  0  0  0  0  0  0  0  0  0  0
   -0.5863    0.9827    0.3845 H   0  0  0  0  0  0  0  0  0  0  0  0
   -1.2962   -0.1800   -0.7434 H   0  0  0  0  0  0  0  0  0  0  0  0
    1.0312   -1.4237   -1.1764 H   0  0  0  0  0  0  0  0  0  0  0  0
  1  2  1  0
  1  3  1  0
  1  4  1  0
  1  5  1  0
  2  6  1  0
M  END
>  <reaction>  (1) 
rxn_1811

>  <mol_properties>  (1) 
{"0": {"label": "donator", "atom_type": "Cs"}, "2": {"label": "d_hydrogen", "atom_type": "H0"}}

>  <type>  (1) 
r1h

$$$$

     RDKit          3D

 14 13  0  0  0  0  0  0  0  0999 V2000
    1.0767   -1.6838    1.2931 C   0  0  0  0  0  0  0  0  0  0  0  0
    1.0020   -0.3665    0.9163 C   0  0  0  0  0  0  0  0  0  0  0  0
    1.3965    0.7260    1.6806 C   0  0  0  0  0  3  0  0  0  0  0  0
    1.2666    2.1197    1.1619 C   0  0  0  0  0  0  0  0  0  0  0  0
    1.9670    0.5479    3.0536 C   0  0  0  0  0  0  0  0  0  0  0  0
    0.7448   -2.4705    0.6300 H   0  0  0  0  0  0  0  0  0  0  0  0
    1.4663   -1.9826    2.2578 H   0  0  0  0  0  0  0  0  0  0  0  0
    0.5980   -0.1511   -0.0695 H   0  0  0  0  0  0  0  0  0  0  0  0
    0.6296    2.7241    1.8172 H   0  0  0  0  0  0  0  0  0  0  0  0
    2.2410    2.6200    1.1341 H   0  0  0  0  0  0  0  0  0  0  0  0
    0.8426    2.1448    0.1579 H   0  0  0  0  0  0  0  0  0  0  0  0
    2.8745   -0.0634    3.0328 H   0  0  0  0  0  0  0  0  0  0  0  0
    1.2599    0.0408    3.7173 H   0  0  0  0  0  0  0  0  0  0  0  0
    2.2205    1.5071    3.5054 H   0  0  0  0  0  0  0  0  0  0  0  0
  1  2  2  3
  1  6  1  0
  1  7  1  0
  2  3  1  0
  2  8  1  0
  3  4  1  0
  3  5  1  0
  4  9  1  0
  4 10  1  0
  4 11  1  0
  5 12  1  0
  5 13  1  0
  5 14  1  0
M  RAD  1   3   2
M  END
>  <reaction>  (2) 
rxn_1811

>  <mol_properties>  (2) 
{"2": {"label": "acceptor", "atom_type": "Cs"}}

>  <type>  (2) 
r2

$$$$

     RDKit          3D

 15 14  0  0  0  0  0  0  0  0999 V2000
    2.1256    0.4849   -0.6284 C   0  0  0  0  0  0  0  0  0  0  0  0
    1.1128    0.2141    0.1794 C   0  0  0  0  0  0  0  0  0  0  0  0
   -0.3017   -0.0425   -0.2513 C   0  0  0  0  0  0  0  0  0  0  0  0
   -1.2427    1.0075    0.3423 C   0  0  0  0  0  0  0  0  0  0  0  0
   -0.7381   -1.4526    0.1504 C   0  0  0  0  0  0  0  0  0  0  0  0
    3.1243    0.6601   -0.2485 H   0  0  0  0  0  0  0  0  0  0  0  0
    1.9909    0.5411   -1.7035 H   0  0  0  0  0  0  0  0  0  0  0  0
    1.2888    0.1665    1.2533 H   0  0  0  0  0  0  0  0  0  0  0  0
   -0.3426    0.0343   -1.3424 H   0  0  0  0  0  0  0  0  0  0  0  0
   -0.9571    2.0133    0.0314 H   0  0  0  0  0  0  0  0  0  0  0  0
   -1.2189    0.9729    1.4350 H   0  0  0  0  0  0  0  0  0  0  0  0
   -2.2723    0.8286    0.0255 H   0  0  0  0  0  0  0  0  0  0  0  0
   -0.6963   -1.5745    1.2363 H   0  0  0  0  0  0  0  0  0  0  0  0
   -0.0911   -2.2079   -0.2979 H   0  0  0  0  0  0  0  0  0  0  0  0
   -1.7647   -1.6460   -0.1676 H   0  0  0  0  0  0  0  0  0  0  0  0
  1  2  2  3
  1  6  1  0
  1  7  1  0
  2  3  1  0
  2  8  1  0
  3  4  1  0
  3  5  1  0
  3  9  1  0
  4 10  1  0
  4 11  1  0
  4 12  1  0
  5 13  1  0
  5 14  1  0
  5 15  1  0
M  END
>  <reaction>  (3) 
rxn_1811

>  <mol_properties>  (3) 
{"0": {"label": "a_hydrogen", "atom_type": "H0"}, "3": {"label": "acceptor", "atom_type": "Cs"}}

>  <type>  (3) 
r2h

$$$$

     RDKit          3D

 20 18  0  0  0  0  0  0  0  0999 V2000
   -0.1418   -0.9131   -1.3280 C   0  0  0  0  0  3  0  0  0  0  0  0
    0.6102   -2.3511   -0.6482 S   0  0  0  0  0  0  0  0  0  0  0  0
   -0.0535    0.1281   -0.3467 H   0  0  0  0  0  0  0  0  0  0  0  0
    0.4216   -0.5503   -2.1826 H   0  0  0  0  0  0  0  0  0  0  0  0
   -1.2105   -0.9822   -1.5111 H   0  0  0  0  0  0  0  0  0  0  0  0
   -0.2225   -2.4987    0.3916 H   0  0  0  0  0  0  0  0  0  0  0  0
   -0.1354   -0.2582    2.7336 C   0  0  0  0  0  0  0  0  0  0  0  0
   -0.6417    0.4212    1.7045 C   0  0  0  0  0  0  0  0  0  0  0  0
    0.1039    1.0022    0.5768 C   0  0  0  0  0  0  0  0  0  0  0  0
    1.6071    1.0649    0.7227 C   0  0  0  0  0  0  0  0  0  0  0  0
   -0.5167    2.2611    0.0044 C   0  0  0  0  0  0  0  0  0  0  0  0
   -0.7802   -0.6745    3.4970 H   0  0  0  0  0  0  0  0  0  0  0  0
    0.9298   -0.4116    2.8555 H   0  0  0  0  0  0  0  0  0  0  0  0
   -1.7223    0.5396    1.6529 H   0  0  0  0  0  0  0  0  0  0  0  0
    2.0618    1.4627   -0.1863 H   0  0  0  0  0  0  0  0  0  0  0  0
    1.8955    1.7137    1.5558 H   0  0  0  0  0  0  0  0  0  0  0  0
    2.0326    0.0756    0.9005 H   0  0  0  0  0  0  0  0  0  0  0  0
   -0.3711    3.1116    0.6781 H   0  0  0  0  0  0  0  0  0  0  0  0
   -1.5910    2.1405   -0.1503 H   0  0  0  0  0  0  0  0  0  0  0  0
   -0.0628    2.5177   -0.9552 H   0  0  0  0  0  0  0  0  0  0  0  0
  1  2  1  0
  1  4  1  0
  1  5  1  0
  2  6  1  0
  3  9  1  0
  7  8  2  3
  7 12  1  0
  7 13  1  0
  8  9  1  0
  8 14  1  0
  9 10  1  0
  9 11  1  0
 10 15  1  0
 10 16  1  0
 10 17  1  0
 11 18  1  0
 11 19  1  0
 11 20  1  0
M  RAD  1   1   2
M  END
>  <reaction>  (4) 
rxn_1811

>  <mol_properties>  (4) 
{"0": {"label": "*3", "atom_type": "Cs"}, "1": {"label": "*4", "atom_type": "S2s"}, "2": {"label": "*2", "atom_type": "H0"}, "7": {"label": "*0", "atom_type": "Cd"}, "8": {"label": "*1", "atom_type": "Cs"}}

>  <type>  (4) 
ts

$$$$
