
     RDKit          3D

 22 23  0  0  0  0  0  0  0  0999 V2000
   -2.1093   -0.3263    0.3079 C   0  0  0  0  0  0  0  0  0  0  0  0
   -1.3270    0.9803    0.4115 C   0  0  0  0  0  0  0  0  0  0  0  0
   -0.1818    0.8289   -0.6044 C   0  0  0  0  0  0  0  0  0  0  0  0
    1.1682    1.3904   -0.1341 C   0  0  0  0  0  0  0  0  0  0  0  0
    1.8508    0.2041    0.5479 C   0  0  0  0  0  0  0  0  0  0  0  0
    1.4982   -0.9663   -0.3710 C   0  0  0  0  0  0  0  0  0  0  0  0
    0.0340   -0.7124   -0.7594 C   0  0  0  0  0  0  0  0  0  0  0  0
   -0.9986   -1.3650    0.1756 C   0  0  0  0  0  0  0  0  0  0  0  0
   -2.7686   -0.5042    1.1589 H   0  0  0  0  0  0  0  0  0  0  0  0
   -2.7285   -0.3223   -0.5943 H   0  0  0  0  0  0  0  0  0  0  0  0
   -1.9339    1.8682    0.2289 H   0  0  0  0  0  0  0  0  0  0  0  0
   -0.9144    1.0729    1.4218 H   0  0  0  0  0  0  0  0  0  0  0  0
   -0.4804    1.2763   -1.5535 H   0  0  0  0  0  0  0  0  0  0  0  0
    1.7667    1.7058   -0.9931 H   0  0  0  0  0  0  0  0  0  0  0  0
    1.0540    2.2578    0.5189 H   0  0  0  0  0  0  0  0  0  0  0  0
    1.4197    0.0438    1.5410 H   0  0  0  0  0  0  0  0  0  0  0  0
    2.9248    0.3413    0.6788 H   0  0  0  0  0  0  0  0  0  0  0  0
    2.1362   -0.9329   -1.2584 H   0  0  0  0  0  0  0  0  0  0  0  0
    1.6421   -1.9421    0.0966 H   0  0  0  0  0  0  0  0  0  0  0  0
   -0.1575   -1.0299   -1.7854 H   0  0  0  0  0  0  0  0  0  0  0  0
   -1.3459   -2.3310   -0.1933 H   0  0  0  0  0  0  0  0  0  0  0  0
   -0.5489   -1.5373    1.1593 H   0  0  0  0  0  0  0  0  0  0  0  0
  1  2  1  0
  1  8  1  0
  1  9  1  0
  1 10  1  0
  2  3  1  0
  2 11  1  0
  2 12  1  0
  3  4  1  0
  3  7  1  0
  3 13  1  0
  4  5  1  0
  4 14  1  0
  4 15  1  0
  5  6  1  0
  5 16  1  0
  5 17  1  0
  6  7  1  0
  6 18  1  0
  6 19  1  0
  7  8  1  0
  7 20  1  0
  8 21  1  0
  8 22  1  0
M  END
>  <reaction>  (1) 
rxn_574

>  <mol_properties>  (1) 
{"2": {"label": "donator", "atom_type": "Cs"}, "12": {"label": "d_hydrogen", "atom_type": "H0"}}

>  <type>  (1) 
r1h

$$$$

     RDKit          3D

  9  8  0  0  0  0  0  0  0  0999 V2000
    1.8963   -0.1405   -0.2150 C   0  0  0  0  0  0  0  0  0  0  0  0
    0.6340    0.1486   -0.2254 C   0  0  0  0  0  3  0  0  0  0  0  0
   -0.6770    0.4501   -0.2373 C   0  0  0  0  0  0  0  0  0  0  0  0
   -1.6600   -0.2303    0.4662 C   0  0  0  0  0  0  0  0  0  0  0  0
    2.3274   -0.8354   -0.9313 H   0  0  0  0  0  0  0  0  0  0  0  0
    2.5751    0.2988    0.5117 H   0  0  0  0  0  0  0  0  0  0  0  0
   -0.9723    1.2966   -0.8520 H   0  0  0  0  0  0  0  0  0  0  0  0
   -2.6934    0.0777    0.4015 H   0  0  0  0  0  0  0  0  0  0  0  0
   -1.4140   -1.0782    1.0904 H   0  0  0  0  0  0  0  0  0  0  0  0
  1  2  2  3
  1  5  1  0
  1  6  1  0
  2  3  1  0
  3  4  2  3
  3  7  1  0
  4  8  1  0
  4  9  1  0
M  RAD  1   2   2
M  END
>  <reaction>  (2) 
rxn_574

>  <mol_properties>  (2) 
{"1": {"label": "acceptor", "atom_type": "Cd"}}

>  <type>  (2) 
r2

$$$$

     RDKit          3D

 10  9  0  0  0  0  0  0  0  0999 V2000
    1.8334    0.0847   -0.1062 C   0  0  0  0  0  0  0  0  0  0  0  0
    0.5993   -0.4071   -0.0750 C   0  0  0  0  0  0  0  0  0  0  0  0
   -0.5993    0.4071    0.0750 C   0  0  0  0  0  0  0  0  0  0  0  0
   -1.8334   -0.0847    0.1062 C   0  0  0  0  0  0  0  0  0  0  0  0
    2.0179    1.1498   -0.0189 H   0  0  0  0  0  0  0  0  0  0  0  0
    2.6972   -0.5572   -0.2194 H   0  0  0  0  0  0  0  0  0  0  0  0
    0.4465   -1.4793   -0.1649 H   0  0  0  0  0  0  0  0  0  0  0  0
   -0.4465    1.4793    0.1649 H   0  0  0  0  0  0  0  0  0  0  0  0
   -2.0179   -1.1498    0.0189 H   0  0  0  0  0  0  0  0  0  0  0  0
   -2.6972    0.5572    0.2194 H   0  0  0  0  0  0  0  0  0  0  0  0
  1  2  2  3
  1  5  1  0
  1  6  1  0
  2  3  1  0
  2  7  1  0
  3  4  2  3
  3  8  1  0
  4  9  1  0
  4 10  1  0
M  END
>  <reaction>  (3) 
rxn_574

>  <mol_properties>  (3) 
{"1": {"label": "acceptor", "atom_type": "Cd"}, "9": {"label": "a_hydrogen", "atom_type": "H0"}}

>  <type>  (3) 
r2h

$$$$

     RDKit          3D

 31 31  0  0  0  0  0  0  0  0999 V2000
   -1.9592   -2.4898    0.5269 C   0  0  0  0  0  0  0  0  0  0  0  0
   -1.8678   -1.1773    0.6310 C   0  0  0  0  0  3  0  0  0  0  0  0
   -2.9187   -0.2125    0.8702 C   0  0  0  0  0  0  0  0  0  0  0  0
   -2.7464    1.1050    0.9158 C   0  0  0  0  0  0  0  0  0  0  0  0
   -1.0923   -3.1124    0.3378 H   0  0  0  0  0  0  0  0  0  0  0  0
   -2.9150   -3.0033    0.6260 H   0  0  0  0  0  0  0  0  0  0  0  0
   -3.9183   -0.6229    1.0177 H   0  0  0  0  0  0  0  0  0  0  0  0
   -3.5768    1.7750    1.0956 H   0  0  0  0  0  0  0  0  0  0  0  0
   -1.7698    1.5513    0.7734 H   0  0  0  0  0  0  0  0  0  0  0  0
    1.3695   -1.3161   -1.7397 C   0  0  0  0  0  0  0  0  0  0  0  0
    1.4544   -1.3580   -0.2145 C   0  0  0  0  0  0  0  0  0  0  0  0
    0.6003   -0.1813    0.2408 C   0  0  0  0  0  0  0  0  0  0  0  0
    1.0733    0.6139    1.4488 C   0  0  0  0  0  0  0  0  0  0  0  0
    1.8246    1.7957    0.8248 C   0  0  0  0  0  0  0  0  0  0  0  0
    0.9689    2.1555   -0.3930 C   0  0  0  0  0  0  0  0  0  0  0  0
    0.5052    0.8001   -0.9495 C   0  0  0  0  0  0  0  0  0  0  0  0
    1.4029    0.1829   -2.0341 C   0  0  0  0  0  0  0  0  0  0  0  0
    2.1684   -1.8720   -2.2321 H   0  0  0  0  0  0  0  0  0  0  0  0
    0.4159   -1.7390   -2.0690 H   0  0  0  0  0  0  0  0  0  0  0  0
    1.1347   -2.3080    0.2177 H   0  0  0  0  0  0  0  0  0  0  0  0
    2.4928   -1.2004    0.1022 H   0  0  0  0  0  0  0  0  0  0  0  0
   -0.5499   -0.6306    0.4616 H   0  0  0  0  0  0  0  0  0  0  0  0
    0.2187    0.9828    2.0245 H   0  0  0  0  0  0  0  0  0  0  0  0
    1.6875    0.0197    2.1271 H   0  0  0  0  0  0  0  0  0  0  0  0
    2.8174    1.4703    0.4995 H   0  0  0  0  0  0  0  0  0  0  0  0
    1.9649    2.6297    1.5135 H   0  0  0  0  0  0  0  0  0  0  0  0
    0.1078    2.7474   -0.0701 H   0  0  0  0  0  0  0  0  0  0  0  0
    1.5060    2.7489   -1.1350 H   0  0  0  0  0  0  0  0  0  0  0  0
   -0.5199    0.8593   -1.3242 H   0  0  0  0  0  0  0  0  0  0  0  0
    1.0774    0.4362   -3.0438 H   0  0  0  0  0  0  0  0  0  0  0  0
    2.4277    0.5520   -1.9182 H   0  0  0  0  0  0  0  0  0  0  0  0
  1  2  2  3
  1  5  1  0
  1  6  1  0
  2  3  1  0
  3  4  2  3
  3  7  1  0
  4  8  1  0
  4  9  1  0
 10 11  1  0
 10 17  1  0
 10 18  1  0
 10 19  1  0
 11 12  1  0
 11 20  1  0
 11 21  1  0
 12 13  1  0
 12 16  1  0
 12 22  1  0
 13 14  1  0
 13 23  1  0
 13 24  1  0
 14 15  1  0
 14 25  1  0
 14 26  1  0
 15 16  1  0
 15 27  1  0
 15 28  1  0
 16 17  1  0
 16 29  1  0
 17 30  1  0
 17 31  1  0
M  RAD  1   2   2
M  END
>  <reaction>  (4) 
rxn_574

>  <mol_properties>  (4) 
{"1": {"label": "*3", "atom_type": "Cd"}, "2": {"label": "*4", "atom_type": "Cd"}, "11": {"label": "*1", "atom_type": "Cs"}, "15": {"label": "*0", "atom_type": "Cs"}, "21": {"label": "*2", "atom_type": "H0"}}

>  <type>  (4) 
ts

$$$$
