
     RDKit          3D

 13 12  0  0  0  0  0  0  0  0999 V2000
    2.2975   -0.6134    0.7685 C   0  0  0  0  0  0  0  0  0  0  0  0
    1.1676   -0.5248    0.3802 C   0  0  0  0  0  0  0  0  0  0  0  0
   -0.2109   -0.3926   -0.0948 C   0  0  0  0  0  0  0  0  0  0  0  0
   -0.2501    0.2584   -1.4808 C   0  0  0  0  0  0  0  0  0  0  0  0
   -1.0633    0.3831    0.9141 C   0  0  0  0  0  0  0  0  0  0  0  0
    3.2999   -0.6974    1.1133 H   0  0  0  0  0  0  0  0  0  0  0  0
   -0.6209   -1.4038   -0.1814 H   0  0  0  0  0  0  0  0  0  0  0  0
    0.3402   -0.3102   -2.1992 H   0  0  0  0  0  0  0  0  0  0  0  0
    0.1511    1.2724   -1.4369 H   0  0  0  0  0  0  0  0  0  0  0  0
   -1.2791    0.3109   -1.8407 H   0  0  0  0  0  0  0  0  0  0  0  0
   -0.6861    1.4008    1.0287 H   0  0  0  0  0  0  0  0  0  0  0  0
   -1.0492   -0.0971    1.8924 H   0  0  0  0  0  0  0  0  0  0  0  0
   -2.0971    0.4363    0.5680 H   0  0  0  0  0  0  0  0  0  0  0  0
  1  2  3  0
  1  6  1  0
  2  3  1  0
  3  4  1  0
  3  5  1  0
  3  7  1  0
  4  8  1  0
  4  9  1  0
  4 10  1  0
  5 11  1  0
  5 12  1  0
  5 13  1  0
M  END
>  <reaction>  (1) 
rxn_1317

>  <mol_properties>  (1) 
{"2": {"label": "donator", "atom_type": "Cs"}, "6": {"label": "d_hydrogen", "atom_type": "H0"}}

>  <type>  (1) 
r1h

$$$$

     RDKit          3D

 20 20  0  0  0  0  0  0  0  0999 V2000
   -2.4774    0.8083    0.1488 C   0  0  0  0  0  0  0  0  0  0  0  0
   -1.4172   -0.1696   -0.2476 C   0  0  0  0  0  3  0  0  0  0  0  0
   -0.2904    0.2932   -1.1156 C   0  0  0  0  0  0  0  0  0  0  0  0
   -1.4797   -1.5204    0.1947 C   0  0  0  0  0  0  0  0  0  0  0  0
   -0.4907   -2.4664   -0.1650 C   0  0  0  0  0  0  0  0  0  0  0  0
   -0.5559   -3.7750    0.2665 C   0  0  0  0  0  0  0  0  0  0  0  0
   -1.6038   -4.2041    1.0733 C   0  0  0  0  0  0  0  0  0  0  0  0
   -2.5899   -3.2959    1.4424 C   0  0  0  0  0  0  0  0  0  0  0  0
   -2.5339   -1.9852    1.0162 C   0  0  0  0  0  0  0  0  0  0  0  0
   -3.4697    0.4933   -0.1924 H   0  0  0  0  0  0  0  0  0  0  0  0
   -2.5434    0.9184    1.2368 H   0  0  0  0  0  0  0  0  0  0  0  0
   -2.2829    1.7944   -0.2706 H   0  0  0  0  0  0  0  0  0  0  0  0
   -0.2452   -0.2661   -2.0565 H   0  0  0  0  0  0  0  0  0  0  0  0
   -0.3905    1.3487   -1.3647 H   0  0  0  0  0  0  0  0  0  0  0  0
    0.6811    0.1589   -0.6274 H   0  0  0  0  0  0  0  0  0  0  0  0
    0.3373   -2.1635   -0.7918 H   0  0  0  0  0  0  0  0  0  0  0  0
    0.2187   -4.4725   -0.0281 H   0  0  0  0  0  0  0  0  0  0  0  0
   -1.6513   -5.2316    1.4097 H   0  0  0  0  0  0  0  0  0  0  0  0
   -3.4116   -3.6175    2.0706 H   0  0  0  0  0  0  0  0  0  0  0  0
   -3.3164   -1.3029    1.3205 H   0  0  0  0  0  0  0  0  0  0  0  0
  1  2  1  0
  1 10  1  0
  1 11  1  0
  1 12  1  0
  2  3  1  0
  2  4  1  0
  3 13  1  0
  3 14  1  0
  3 15  1  0
  4  5  2  0
  4  9  1  0
  5  6  1  0
  5 16  1  0
  6  7  2  0
  6 17  1  0
  7  8  1  0
  7 18  1  0
  8  9  2  0
  8 19  1  0
  9 20  1  0
M  RAD  1   2   2
M  END
>  <reaction>  (2) 
rxn_1317

>  <mol_properties>  (2) 
{"1": {"label": "acceptor", "atom_type": "Cs"}}

>  <type>  (2) 
r2

$$$$

     RDKit          3D

 21 21  0  0  0  0  0  0  0  0999 V2000
   -1.3695    1.3367   -1.0719 C   0  0  0  0  0  0  0  0  0  0  0  0
   -1.4091   -0.0981   -0.5428 C   0  0  0  0  0  0  0  0  0  0  0  0
   -0.1819   -0.3999    0.3191 C   0  0  0  0  0  0  0  0  0  0  0  0
   -1.5636   -1.1028   -1.6652 C   0  0  0  0  0  0  0  0  0  0  0  0
   -0.5920   -1.2314   -2.6553 C   0  0  0  0  0  0  0  0  0  0  0  0
   -0.7353   -2.1509   -3.6809 C   0  0  0  0  0  0  0  0  0  0  0  0
   -1.8582   -2.9642   -3.7377 C   0  0  0  0  0  0  0  0  0  0  0  0
   -2.8325   -2.8475   -2.7602 C   0  0  0  0  0  0  0  0  0  0  0  0
   -2.6828   -1.9241   -1.7351 C   0  0  0  0  0  0  0  0  0  0  0  0
   -0.4920    1.4974   -1.7025 H   0  0  0  0  0  0  0  0  0  0  0  0
   -2.2553    1.5607   -1.6679 H   0  0  0  0  0  0  0  0  0  0  0  0
   -1.3211    2.0496   -0.2461 H   0  0  0  0  0  0  0  0  0  0  0  0
   -2.2930   -0.1918    0.0948 H   0  0  0  0  0  0  0  0  0  0  0  0
   -0.1215    0.2955    1.1588 H   0  0  0  0  0  0  0  0  0  0  0  0
   -0.2200   -1.4155    0.7159 H   0  0  0  0  0  0  0  0  0  0  0  0
    0.7383   -0.3016   -0.2615 H   0  0  0  0  0  0  0  0  0  0  0  0
    0.2915   -0.6040   -2.6263 H   0  0  0  0  0  0  0  0  0  0  0  0
    0.0326   -2.2338   -4.4401 H   0  0  0  0  0  0  0  0  0  0  0  0
   -1.9712   -3.6833   -4.5391 H   0  0  0  0  0  0  0  0  0  0  0  0
   -3.7135   -3.4765   -2.7932 H   0  0  0  0  0  0  0  0  0  0  0  0
   -3.4509   -1.8400   -0.9743 H   0  0  0  0  0  0  0  0  0  0  0  0
  1  2  1  0
  1 10  1  0
  1 11  1  0
  1 12  1  0
  2  3  1  0
  2  4  1  0
  2 13  1  0
  3 14  1  0
  3 15  1  0
  3 16  1  0
  4  5  2  0
  4  9  1  0
  5  6  1  0
  5 17  1  0
  6  7  2  0
  6 18  1  0
  7  8  1  0
  7 19  1  0
  8  9  2  0
  8 20  1  0
  9 21  1  0
M  END
>  <reaction>  (3) 
rxn_1317

>  <mol_properties>  (3) 
{"0": {"label": "a_hydrogen", "atom_type": "H0"}, "2": {"label": "acceptor", "atom_type": "Cs"}}

>  <type>  (3) 
r2h

$$$$

     RDKit          3D

 33 32  0  0  0  0  0  0  0  0999 V2000
    2.2650    0.8156   -3.4867 C   0  0  0  0  0  0  0  0  0  0  0  0
    1.7119    1.0844   -2.4518 C   0  0  0  0  0  0  0  0  0  0  0  0
    1.0334    1.3436   -1.2225 C   0  0  0  0  0  3  0  0  0  0  0  0
   -0.1845    2.2365   -1.3336 C   0  0  0  0  0  0  0  0  0  0  0  0
    1.9231    1.6268   -0.0307 C   0  0  0  0  0  0  0  0  0  0  0  0
    2.7606    0.5957   -4.4011 H   0  0  0  0  0  0  0  0  0  0  0  0
    0.4987    0.1445   -0.8890 H   0  0  0  0  0  0  0  0  0  0  0  0
   -0.8404    1.9119   -2.1419 H   0  0  0  0  0  0  0  0  0  0  0  0
    0.1097    3.2715   -1.5335 H   0  0  0  0  0  0  0  0  0  0  0  0
   -0.7458    2.2208   -0.3975 H   0  0  0  0  0  0  0  0  0  0  0  0
    2.3475    2.6336   -0.0914 H   0  0  0  0  0  0  0  0  0  0  0  0
    2.7481    0.9165    0.0236 H   0  0  0  0  0  0  0  0  0  0  0  0
    1.3437    1.5571    0.8924 H   0  0  0  0  0  0  0  0  0  0  0  0
   -1.0201   -1.2715   -1.6480 C   0  0  0  0  0  0  0  0  0  0  0  0
    0.0004   -1.0471   -0.5531 C   0  0  0  0  0  0  0  0  0  0  0  0
    1.2204   -1.9263   -0.7059 C   0  0  0  0  0  0  0  0  0  0  0  0
   -0.5123   -0.8324    0.8212 C   0  0  0  0  0  0  0  0  0  0  0  0
    0.1995   -1.2604    1.9476 C   0  0  0  0  0  0  0  0  0  0  0  0
   -0.2535   -1.0002    3.2307 C   0  0  0  0  0  0  0  0  0  0  0  0
   -1.4319   -0.2999    3.4322 C   0  0  0  0  0  0  0  0  0  0  0  0
   -2.1552    0.1318    2.3296 C   0  0  0  0  0  0  0  0  0  0  0  0
   -1.7042   -0.1315    1.0488 C   0  0  0  0  0  0  0  0  0  0  0  0
   -1.8252   -0.5382   -1.6356 H   0  0  0  0  0  0  0  0  0  0  0  0
   -0.5368   -1.2112   -2.6248 H   0  0  0  0  0  0  0  0  0  0  0  0
   -1.4740   -2.2639   -1.5566 H   0  0  0  0  0  0  0  0  0  0  0  0
    1.0012   -2.9639   -0.4318 H   0  0  0  0  0  0  0  0  0  0  0  0
    1.5570   -1.9149   -1.7430 H   0  0  0  0  0  0  0  0  0  0  0  0
    2.0544   -1.5860   -0.0906 H   0  0  0  0  0  0  0  0  0  0  0  0
    1.1200   -1.8142    1.8258 H   0  0  0  0  0  0  0  0  0  0  0  0
    0.3207   -1.3511    4.0794 H   0  0  0  0  0  0  0  0  0  0  0  0
   -1.7852   -0.0955    4.4347 H   0  0  0  0  0  0  0  0  0  0  0  0
   -3.0798    0.6785    2.4679 H   0  0  0  0  0  0  0  0  0  0  0  0
   -2.2884    0.2241    0.2108 H   0  0  0  0  0  0  0  0  0  0  0  0
  1  2  3  0
  1  6  1  0
  2  3  1  0
  3  4  1  0
  3  5  1  0
  4  8  1  0
  4  9  1  0
  4 10  1  0
  5 11  1  0
  5 12  1  0
  5 13  1  0
  7 15  1  0
 14 15  1  0
 14 23  1  0
 14 24  1  0
 14 25  1  0
 15 16  1  0
 15 17  1  0
 16 26  1  0
 16 27  1  0
 16 28  1  0
 17 18  2  0
 17 22  1  0
 18 19  1  0
 18 29  1  0
 19 20  2  0
 19 30  1  0
 20 21  1  0
 20 31  1  0
 21 22  2  0
 21 32  1  0
 22 33  1  0
M  RAD  1   3   2
M  END
>  <reaction>  (4) 
rxn_1317

>  <mol_properties>  (4) 
{"1": {"label": "*4", "atom_type": "Ct"}, "2": {"label": "*3", "atom_type": "Cs"}, "6": {"label": "*2", "atom_type": "H0"}, "14": {"label": "*1", "atom_type": "Cs"}, "16": {"label": "*0", "atom_type": "Cd"}}

>  <type>  (4) 
ts

$$$$
