
     RDKit          3D

 12 11  0  0  0  0  0  0  0  0999 V2000
    2.1696    0.6854    1.1310 C   0  0  0  0  0  0  0  0  0  0  0  0
    1.2518    0.4145    0.4134 C   0  0  0  0  0  0  0  0  0  0  0  0
    0.1391    0.0443   -0.4683 C   0  0  0  0  0  0  0  0  0  0  0  0
   -0.2054   -1.4492   -0.3339 C   0  0  0  0  0  0  0  0  0  0  0  0
   -1.0375    0.8853   -0.2222 C   0  0  0  0  0  0  0  0  0  0  0  0
   -2.0160    1.5463   -0.0311 C   0  0  0  0  0  0  0  0  0  0  0  0
    2.9819    0.9356    1.7702 H   0  0  0  0  0  0  0  0  0  0  0  0
    0.4629    0.2285   -1.4981 H   0  0  0  0  0  0  0  0  0  0  0  0
   -0.5327   -1.6703    0.6812 H   0  0  0  0  0  0  0  0  0  0  0  0
    0.6727   -2.0535   -0.5593 H   0  0  0  0  0  0  0  0  0  0  0  0
   -1.0064   -1.7081   -1.0256 H   0  0  0  0  0  0  0  0  0  0  0  0
   -2.8802    2.1413    0.1426 H   0  0  0  0  0  0  0  0  0  0  0  0
  1  2  3  0
  1  7  1  0
  2  3  1  0
  3  4  1  0
  3  5  1  0
  3  8  1  0
  4  9  1  0
  4 10  1  0
  4 11  1  0
  5  6  3  0
  6 12  1  0
M  END
>  <reaction>  (1) 
rxn_1415

>  <mol_properties>  (1) 
{"2": {"label": "donator", "atom_type": "Cs"}, "7": {"label": "d_hydrogen", "atom_type": "H0"}}

>  <type>  (1) 
r1h

$$$$

     RDKit          3D

  9  8  0  0  0  0  0  0  0  0999 V2000
   -1.2704   -0.1236    0.1096 C   0  0  0  0  0  0  0  0  0  0  0  0
    0.0713   -0.5323    0.5887 C   0  0  0  0  0  0  0  0  0  0  0  0
    0.9521   -1.3639   -0.0464 C   0  0  0  0  0  0  0  0  0  0  0  0
    0.6900   -2.1109   -1.5335 S   0  0  0  0  0  1  0  0  0  0  0  0
   -1.3201    0.9657    0.0241 H   0  0  0  0  0  0  0  0  0  0  0  0
   -1.5103   -0.5706   -0.8526 H   0  0  0  0  0  0  0  0  0  0  0  0
   -2.0312   -0.4112    0.8411 H   0  0  0  0  0  0  0  0  0  0  0  0
    0.3863   -0.1265    1.5468 H   0  0  0  0  0  0  0  0  0  0  0  0
    1.8971   -1.5543    0.4552 H   0  0  0  0  0  0  0  0  0  0  0  0
  1  2  1  0
  1  5  1  0
  1  6  1  0
  1  7  1  0
  2  3  2  3
  2  8  1  0
  3  4  1  0
  3  9  1  0
M  RAD  1   4   2
M  END
>  <reaction>  (2) 
rxn_1415

>  <mol_properties>  (2) 
{"1": {"label": "acceptor", "atom_type": "Cs"}}

>  <type>  (2) 
r2

$$$$

     RDKit          3D

 10  9  0  0  0  0  0  0  0  0999 V2000
   -1.1508    0.0666    0.2839 C   0  0  0  0  0  0  0  0  0  0  0  0
    0.1022   -0.3749   -0.4771 C   0  0  0  0  0  0  0  0  0  0  0  0
    1.3428    0.1620    0.1542 C   0  0  0  0  0  0  0  0  0  0  0  0
    2.5613   -0.6971    0.7526 S   0  0  0  0  0  0  0  0  0  0  0  0
   -1.2137    1.1546    0.3481 H   0  0  0  0  0  0  0  0  0  0  0  0
   -2.0472   -0.2935   -0.2212 H   0  0  0  0  0  0  0  0  0  0  0  0
   -1.1467   -0.3334    1.2987 H   0  0  0  0  0  0  0  0  0  0  0  0
    0.1602   -1.4616   -0.5369 H   0  0  0  0  0  0  0  0  0  0  0  0
    0.0536    0.0174   -1.4997 H   0  0  0  0  0  0  0  0  0  0  0  0
    1.3824    1.2528    0.2110 H   0  0  0  0  0  0  0  0  0  0  0  0
  1  2  1  0
  1  5  1  0
  1  6  1  0
  1  7  1  0
  2  3  1  0
  2  8  1  0
  2  9  1  0
  3  4  2  0
  3 10  1  0
M  END
>  <reaction>  (3) 
rxn_1415

>  <mol_properties>  (3) 
{"0": {"label": "a_hydrogen", "atom_type": "H0"}, "2": {"label": "acceptor", "atom_type": "Cs"}}

>  <type>  (3) 
r2h

$$$$

     RDKit          3D

 21 19  0  0  0  0  0  0  0  0999 V2000
   -1.0360   -1.3996   -2.9886 C   0  0  0  0  0  0  0  0  0  0  0  0
   -1.0627   -0.9889   -1.8609 C   0  0  0  0  0  0  0  0  0  0  0  0
   -1.0206   -0.4718   -0.5269 C   0  0  0  0  0  3  0  0  0  0  0  0
   -1.2579    1.0197   -0.3692 C   0  0  0  0  0  0  0  0  0  0  0  0
   -1.5798   -1.3049    0.4940 C   0  0  0  0  0  0  0  0  0  0  0  0
   -1.9797   -1.9784    1.4034 C   0  0  0  0  0  0  0  0  0  0  0  0
   -1.0351   -1.7695   -3.9859 H   0  0  0  0  0  0  0  0  0  0  0  0
    0.3103   -0.5633   -0.2045 H   0  0  0  0  0  0  0  0  0  0  0  0
   -2.3202    1.2465   -0.4781 H   0  0  0  0  0  0  0  0  0  0  0  0
   -0.7044    1.5700   -1.1284 H   0  0  0  0  0  0  0  0  0  0  0  0
   -0.9315    1.3454    0.6187 H   0  0  0  0  0  0  0  0  0  0  0  0
   -2.3582   -2.5765    2.1973 H   0  0  0  0  0  0  0  0  0  0  0  0
    2.1192    0.5340   -0.8913 C   0  0  0  0  0  0  0  0  0  0  0  0
    1.6171   -0.5559    0.0137 C   0  0  0  0  0  0  0  0  0  0  0  0
    1.6659   -0.4309    1.4436 C   0  0  0  0  0  0  0  0  0  0  0  0
    1.8784    0.9499    2.2944 S   0  0  0  0  0  0  0  0  0  0  0  0
    1.8198    1.5156   -0.5261 H   0  0  0  0  0  0  0  0  0  0  0  0
    3.2110    0.5175   -0.9318 H   0  0  0  0  0  0  0  0  0  0  0  0
    1.7410    0.3920   -1.9049 H   0  0  0  0  0  0  0  0  0  0  0  0
    1.8002   -1.5701   -0.3430 H   0  0  0  0  0  0  0  0  0  0  0  0
    1.4917   -1.3574    1.9891 H   0  0  0  0  0  0  0  0  0  0  0  0
  1  2  3  0
  1  7  1  0
  2  3  1  0
  3  4  1  0
  3  5  1  0
  4  9  1  0
  4 10  1  0
  4 11  1  0
  5  6  3  0
  6 12  1  0
  8 14  1  0
 13 14  1  0
 13 17  1  0
 13 18  1  0
 13 19  1  0
 14 15  1  0
 14 20  1  0
 15 16  2  0
 15 21  1  0
M  RAD  1   3   2
M  END
>  <reaction>  (4) 
rxn_1415

>  <mol_properties>  (4) 
{"1": {"label": "*4", "atom_type": "Ct"}, "2": {"label": "*3", "atom_type": "Cs"}, "7": {"label": "*2", "atom_type": "H0"}, "13": {"label": "*1", "atom_type": "Cs"}, "14": {"label": "*0", "atom_type": "CS"}}

>  <type>  (4) 
ts

$$$$
