
     RDKit          3D

 12 11  0  0  0  0  0  0  0  0999 V2000
    1.2394   -0.3763   -0.3020 C   0  0  0  0  0  0  0  0  0  0  0  0
    0.1007    0.3024    0.4464 C   0  0  0  0  0  0  0  0  0  0  0  0
   -0.1187    2.0399   -0.0725 S   0  0  0  0  0  0  0  0  0  0  0  0
   -1.1974   -0.4877    0.3552 C   0  0  0  0  0  0  0  0  0  0  0  0
    2.1681    0.1850   -0.2048 H   0  0  0  0  0  0  0  0  0  0  0  0
    1.0030   -0.4604   -1.3656 H   0  0  0  0  0  0  0  0  0  0  0  0
    1.3993   -1.3856    0.0859 H   0  0  0  0  0  0  0  0  0  0  0  0
    0.3797    0.4050    1.4982 H   0  0  0  0  0  0  0  0  0  0  0  0
   -0.4500    1.7774   -1.3452 H   0  0  0  0  0  0  0  0  0  0  0  0
   -1.0545   -1.4977    0.7478 H   0  0  0  0  0  0  0  0  0  0  0  0
   -1.5206   -0.5758   -0.6849 H   0  0  0  0  0  0  0  0  0  0  0  0
   -1.9957   -0.0054    0.9183 H   0  0  0  0  0  0  0  0  0  0  0  0
  1  2  1  0
  1  5  1  0
  1  6  1  0
  1  7  1  0
  2  4  1  0
  2  3  1  0
  2  8  1  0
  3  9  1  0
  4 10  1  0
  4 11  1  0
  4 12  1  0
M  END
>  <reaction>  (1) 
rxn_1923

>  <mol_properties>  (1) 
{"1": {"label": "donator", "atom_type": "Cs"}, "7": {"label": "d_hydrogen", "atom_type": "H0"}}

>  <type>  (1) 
r1h

$$$$

     RDKit          3D

 17 17  0  0  0  0  0  0  0  0999 V2000
    2.7069    0.2860   -0.1817 C   0  0  0  0  0  0  0  0  0  0  0  0
    1.6304   -0.7245    0.0085 C   0  0  0  0  0  0  0  0  0  0  0  0
    1.4786   -1.8800   -0.7837 C   0  0  0  0  0  0  0  0  0  0  0  0
    0.4231   -2.7891   -0.5312 C   0  0  0  0  0  3  0  0  0  0  0  0
    0.2582   -3.9235   -1.2940 C   0  0  0  0  0  0  0  0  0  0  0  0
    1.1348   -4.2030   -2.3401 C   0  0  0  0  0  0  0  0  0  0  0  0
    2.1804   -3.3260   -2.6093 C   0  0  0  0  0  0  0  0  0  0  0  0
    2.3549   -2.1866   -1.8513 C   0  0  0  0  0  0  0  0  0  0  0  0
    2.6698    0.7343   -1.1808 H   0  0  0  0  0  0  0  0  0  0  0  0
    3.7029   -0.1584   -0.0766 H   0  0  0  0  0  0  0  0  0  0  0  0
    2.6250    1.0917    0.5463 H   0  0  0  0  0  0  0  0  0  0  0  0
    0.9136   -0.5677    0.8059 H   0  0  0  0  0  0  0  0  0  0  0  0
   -0.2629   -2.5783    0.2811 H   0  0  0  0  0  0  0  0  0  0  0  0
   -0.5582   -4.6017   -1.0785 H   0  0  0  0  0  0  0  0  0  0  0  0
    1.0033   -5.0952   -2.9384 H   0  0  0  0  0  0  0  0  0  0  0  0
    2.8650   -3.5382   -3.4214 H   0  0  0  0  0  0  0  0  0  0  0  0
    3.1750   -1.5169   -2.0772 H   0  0  0  0  0  0  0  0  0  0  0  0
  1  2  1  0
  1  9  1  0
  1 10  1  0
  1 11  1  0
  2  3  2  3
  2 12  1  0
  3  4  1  0
  3  8  1  0
  4  5  1  0
  4 13  1  0
  5  6  2  0
  5 14  1  0
  6  7  1  0
  6 15  1  0
  7  8  2  0
  7 16  1  0
  8 17  1  0
M  RAD  1   4   2
M  END
>  <reaction>  (2) 
rxn_1923

>  <mol_properties>  (2) 
{"1": {"label": "acceptor", "atom_type": "Cs"}}

>  <type>  (2) 
r2

$$$$

     RDKit          3D

 18 18  0  0  0  0  0  0  0  0999 V2000
   -2.4852    0.3210   -0.3966 C   0  0  0  0  0  0  0  0  0  0  0  0
   -1.5917   -0.2708    0.6941 C   0  0  0  0  0  0  0  0  0  0  0  0
   -0.1292   -0.1692    0.3493 C   0  0  0  0  0  0  0  0  0  0  0  0
    0.6099    0.9558    0.7015 C   0  0  0  0  0  0  0  0  0  0  0  0
    1.9447    1.0728    0.3458 C   0  0  0  0  0  0  0  0  0  0  0  0
    2.5646    0.0613   -0.3720 C   0  0  0  0  0  0  0  0  0  0  0  0
    1.8399   -1.0657   -0.7287 C   0  0  0  0  0  0  0  0  0  0  0  0
    0.5055   -1.1769   -0.3700 C   0  0  0  0  0  0  0  0  0  0  0  0
   -2.3325   -0.1971   -1.3452 H   0  0  0  0  0  0  0  0  0  0  0  0
   -2.2554    1.3763   -0.5546 H   0  0  0  0  0  0  0  0  0  0  0  0
   -3.5397    0.2376   -0.1280 H   0  0  0  0  0  0  0  0  0  0  0  0
   -1.7801    0.2462    1.6380 H   0  0  0  0  0  0  0  0  0  0  0  0
   -1.8568   -1.3190    0.8516 H   0  0  0  0  0  0  0  0  0  0  0  0
    0.1327    1.7497    1.2656 H   0  0  0  0  0  0  0  0  0  0  0  0
    2.5033    1.9550    0.6330 H   0  0  0  0  0  0  0  0  0  0  0  0
    3.6077    0.1491   -0.6484 H   0  0  0  0  0  0  0  0  0  0  0  0
    2.3163   -1.8632   -1.2854 H   0  0  0  0  0  0  0  0  0  0  0  0
   -0.0540   -2.0629   -0.6500 H   0  0  0  0  0  0  0  0  0  0  0  0
  1  2  1  0
  1  9  1  0
  1 10  1  0
  1 11  1  0
  2  3  1  0
  2 12  1  0
  2 13  1  0
  3  4  2  0
  3  8  1  0
  4  5  1  0
  4 14  1  0
  5  6  2  0
  5 15  1  0
  6  7  1  0
  6 16  1  0
  7  8  2  0
  7 17  1  0
  8 18  1  0
M  END
>  <reaction>  (3) 
rxn_1923

>  <mol_properties>  (3) 
{"0": {"label": "a_hydrogen", "atom_type": "H0"}, "2": {"label": "acceptor", "atom_type": "Cs"}}

>  <type>  (3) 
r2h

$$$$

     RDKit          3D

 29 28  0  0  0  0  0  0  0  0999 V2000
    0.6256    2.2847   -1.2619 C   0  0  0  0  0  0  0  0  0  0  0  0
    1.4022    1.5563   -0.1955 C   0  0  0  0  0  3  0  0  0  0  0  0
    2.3890    0.1819   -0.7640 S   0  0  0  0  0  0  0  0  0  0  0  0
    2.1799    2.4334    0.7528 C   0  0  0  0  0  0  0  0  0  0  0  0
   -0.0013    1.5990   -1.8345 H   0  0  0  0  0  0  0  0  0  0  0  0
    1.2956    2.7972   -1.9596 H   0  0  0  0  0  0  0  0  0  0  0  0
   -0.0250    3.0338   -0.8027 H   0  0  0  0  0  0  0  0  0  0  0  0
    0.4179    0.9871    0.5697 H   0  0  0  0  0  0  0  0  0  0  0  0
    1.4257   -0.4238   -1.4734 H   0  0  0  0  0  0  0  0  0  0  0  0
    1.5083    3.1577    1.2190 H   0  0  0  0  0  0  0  0  0  0  0  0
    2.9623    2.9951    0.2309 H   0  0  0  0  0  0  0  0  0  0  0  0
    2.6528    1.8487    1.5433 H   0  0  0  0  0  0  0  0  0  0  0  0
    0.2508   -0.2248    2.4248 C   0  0  0  0  0  0  0  0  0  0  0  0
   -0.5187    0.3729    1.2734 C   0  0  0  0  0  0  0  0  0  0  0  0
   -1.1536   -0.5170    0.2898 C   0  0  0  0  0  0  0  0  0  0  0  0
   -2.1638   -0.0254   -0.5457 C   0  0  0  0  0  0  0  0  0  0  0  0
   -2.7274   -0.8129   -1.5326 C   0  0  0  0  0  0  0  0  0  0  0  0
   -2.2965   -2.1208   -1.7140 C   0  0  0  0  0  0  0  0  0  0  0  0
   -1.3004   -2.6268   -0.8927 C   0  0  0  0  0  0  0  0  0  0  0  0
   -0.7347   -1.8369    0.0956 C   0  0  0  0  0  0  0  0  0  0  0  0
    1.1230   -0.7814    2.0735 H   0  0  0  0  0  0  0  0  0  0  0  0
   -0.3670   -0.9090    3.0142 H   0  0  0  0  0  0  0  0  0  0  0  0
    0.6110    0.5601    3.0907 H   0  0  0  0  0  0  0  0  0  0  0  0
   -1.1660    1.2005    1.5629 H   0  0  0  0  0  0  0  0  0  0  0  0
   -2.5061    0.9949   -0.4116 H   0  0  0  0  0  0  0  0  0  0  0  0
   -3.5094   -0.4074   -2.1627 H   0  0  0  0  0  0  0  0  0  0  0  0
   -2.7375   -2.7399   -2.4847 H   0  0  0  0  0  0  0  0  0  0  0  0
   -0.9602   -3.6471   -1.0210 H   0  0  0  0  0  0  0  0  0  0  0  0
    0.0445   -2.2505    0.7226 H   0  0  0  0  0  0  0  0  0  0  0  0
  1  2  1  0
  1  5  1  0
  1  6  1  0
  1  7  1  0
  2  4  1  0
  2  3  1  0
  3  9  1  0
  4 10  1  0
  4 11  1  0
  4 12  1  0
  8 14  1  0
 13 14  1  0
 13 21  1  0
 13 22  1  0
 13 23  1  0
 14 15  1  0
 14 24  1  0
 15 16  2  0
 15 20  1  0
 16 17  1  0
 16 25  1  0
 17 18  2  0
 17 26  1  0
 18 19  1  0
 18 27  1  0
 19 20  2  0
 19 28  1  0
 20 29  1  0
M  RAD  1   2   2
M  END
>  <reaction>  (4) 
rxn_1923

>  <mol_properties>  (4) 
{"1": {"label": "*3", "atom_type": "Cs"}, "2": {"label": "*4", "atom_type": "S2s"}, "7": {"label": "*2", "atom_type": "H0"}, "13": {"label": "*1", "atom_type": "Cs"}, "14": {"label": "*0", "atom_type": "Cd"}}

>  <type>  (4) 
ts

$$$$
