
     RDKit          3D

  5  4  0  0  0  0  0  0  0  0999 V2000
    0.0000    0.0000    0.0000 C   0  0  0  0  0  0  0  0  0  0  0  0
   -0.6486   -0.7720   -0.4113 H   0  0  0  0  0  0  0  0  0  0  0  0
   -0.3482    0.9787   -0.3267 H   0  0  0  0  0  0  0  0  0  0  0  0
   -0.0223   -0.0487    1.0876 H   0  0  0  0  0  0  0  0  0  0  0  0
    1.0191   -0.1580   -0.3496 H   0  0  0  0  0  0  0  0  0  0  0  0
  1  2  1  0
  1  3  1  0
  1  4  1  0
  1  5  1  0
M  END
>  <reaction>  (1) 
rxn_319

>  <mol_properties>  (1) 
{"0": {"label": "donator", "atom_type": "Cs"}, "1": {"label": "d_hydrogen", "atom_type": "H0"}}

>  <type>  (1) 
r1h

$$$$

     RDKit          3D

  6  5  0  0  0  0  0  0  0  0999 V2000
   -0.4436    0.0188   -0.1393 C   0  0  0  0  0  0  0  0  0  0  0  0
    1.0624   -0.0017   -0.1425 C   0  0  0  0  0  3  0  0  0  0  0  0
    1.7971   -0.0947    0.7691 O   0  0  0  0  0  0  0  0  0  0  0  0
   -0.8374   -0.0681    0.8758 H   0  0  0  0  0  0  0  0  0  0  0  0
   -0.7772    0.9478   -0.6020 H   0  0  0  0  0  0  0  0  0  0  0  0
   -0.8013   -0.8022   -0.7611 H   0  0  0  0  0  0  0  0  0  0  0  0
  1  2  1  0
  1  4  1  0
  1  5  1  0
  1  6  1  0
  2  3  2  0
M  RAD  1   2   2
M  END
>  <reaction>  (2) 
rxn_319

>  <mol_properties>  (2) 
{"1": {"label": "acceptor", "atom_type": "CO"}}

>  <type>  (2) 
r2

$$$$

     RDKit          3D

  7  6  0  0  0  0  0  0  0  0999 V2000
   -0.6468   -0.0443   -0.0231 C   0  0  0  0  0  0  0  0  0  0  0  0
    0.8470    0.0371    0.0688 C   0  0  0  0  0  0  0  0  0  0  0  0
    1.4866   -0.2280    1.0479 O   0  0  0  0  0  0  0  0  0  0  0  0
   -1.0466    0.9363   -0.2943 H   0  0  0  0  0  0  0  0  0  0  0  0
   -0.9229   -0.7318   -0.8269 H   0  0  0  0  0  0  0  0  0  0  0  0
   -1.0759   -0.3772    0.9198 H   0  0  0  0  0  0  0  0  0  0  0  0
    1.3584    0.3712   -0.8589 H   0  0  0  0  0  0  0  0  0  0  0  0
  1  2  1  0
  1  4  1  0
  1  5  1  0
  1  6  1  0
  2  3  2  0
  2  7  1  0
M  END
>  <reaction>  (3) 
rxn_319

>  <mol_properties>  (3) 
{"0": {"label": "a_hydrogen", "atom_type": "H0"}, "2": {"label": "acceptor", "atom_type": "CO"}}

>  <type>  (3) 
r2h

$$$$

     RDKit          3D

 11  9  0  0  0  0  0  0  0  0999 V2000
   -0.0149   -2.2425   -0.7530 C   0  0  0  0  0  3  0  0  0  0  0  0
   -0.3747   -0.8119   -0.5737 H   0  0  0  0  0  0  0  0  0  0  0  0
   -0.9895   -2.7187   -0.7354 H   0  0  0  0  0  0  0  0  0  0  0  0
    0.4898   -2.2754   -1.7134 H   0  0  0  0  0  0  0  0  0  0  0  0
    0.6179   -2.4704    0.0989 H   0  0  0  0  0  0  0  0  0  0  0  0
    0.4766    1.3383   -0.4025 C   0  0  0  0  0  0  0  0  0  0  0  0
   -0.7006    0.4072   -0.4196 C   0  0  0  0  0  0  0  0  0  0  0  0
   -1.8444    0.7099   -0.3063 O   0  0  0  0  0  0  0  0  0  0  0  0
    0.1615    2.3724   -0.2690 H   0  0  0  0  0  0  0  0  0  0  0  0
    1.1506    1.0378    0.4026 H   0  0  0  0  0  0  0  0  0  0  0  0
    1.0277    1.2251   -1.3386 H   0  0  0  0  0  0  0  0  0  0  0  0
  1  3  1  0
  1  4  1  0
  1  5  1  0
  2  7  1  0
  6  7  1  0
  6  9  1  0
  6 10  1  0
  6 11  1  0
  7  8  2  0
M  RAD  1   1   2
M  END
>  <reaction>  (4) 
rxn_319

>  <mol_properties>  (4) 
{"0": {"label": "*3", "atom_type": "Cs"}, "1": {"label": "*2", "atom_type": "H0"}, "2": {"label": "*4", "atom_type": "H0"}, "6": {"label": "*1", "atom_type": "CO"}, "7": {"label": "*0", "atom_type": "O2d"}}

>  <type>  (4) 
ts

$$$$
