
     RDKit          3D

 10  9  0  0  0  0  0  0  0  0999 V2000
    2.2738    0.0217   -0.0992 C   0  0  0  0  0  0  0  0  0  0  0  0
    1.1083    0.2960   -0.0695 C   0  0  0  0  0  0  0  0  0  0  0  0
   -0.3173    0.6046   -0.0227 C   0  0  0  0  0  0  0  0  0  0  0  0
   -1.1561   -0.5495    0.5292 C   0  0  0  0  0  0  0  0  0  0  0  0
    3.3097   -0.2166   -0.1277 H   0  0  0  0  0  0  0  0  0  0  0  0
   -0.6542    0.8617   -1.0302 H   0  0  0  0  0  0  0  0  0  0  0  0
   -0.4633    1.4978    0.5900 H   0  0  0  0  0  0  0  0  0  0  0  0
   -0.8485   -0.7997    1.5447 H   0  0  0  0  0  0  0  0  0  0  0  0
   -2.2115   -0.2752    0.5459 H   0  0  0  0  0  0  0  0  0  0  0  0
   -1.0409   -1.4407   -0.0879 H   0  0  0  0  0  0  0  0  0  0  0  0
  1  2  3  0
  1  5  1  0
  2  3  1  0
  3  4  1  0
  3  6  1  0
  3  7  1  0
  4  8  1  0
  4  9  1  0
  4 10  1  0
M  END
>  <reaction>  (1) 
rxn_1290

>  <mol_properties>  (1) 
{"2": {"label": "donator", "atom_type": "Cs"}, "5": {"label": "d_hydrogen", "atom_type": "H0"}}

>  <type>  (1) 
r1h

$$$$

     RDKit          3D

  7  6  0  0  0  0  0  0  0  0999 V2000
    1.8092   -0.3013   -0.2242 S   0  0  0  0  0  0  0  0  0  0  0  0
    0.1552   -0.6967   -0.1137 C   0  0  0  0  0  0  0  0  0  0  0  0
   -0.8921    0.1788    0.1148 C   0  0  0  0  0  0  0  0  0  0  0  0
   -0.7548    1.8245    0.3328 S   0  0  0  0  0  1  0  0  0  0  0  0
    1.6168    1.0210   -0.0187 H   0  0  0  0  0  0  0  0  0  0  0  0
   -0.0550   -1.7522   -0.2412 H   0  0  0  0  0  0  0  0  0  0  0  0
   -1.8791   -0.2740    0.1502 H   0  0  0  0  0  0  0  0  0  0  0  0
  1  2  1  0
  1  5  1  0
  2  3  2  3
  2  6  1  0
  3  4  1  0
  3  7  1  0
M  RAD  1   4   2
M  END
>  <reaction>  (2) 
rxn_1290

>  <mol_properties>  (2) 
{"1": {"label": "acceptor", "atom_type": "Cs"}}

>  <type>  (2) 
r2

$$$$

     RDKit          3D

  8  7  0  0  0  0  0  0  0  0999 V2000
    1.7301   -0.0562    0.5281 S   0  0  0  0  0  0  0  0  0  0  0  0
    0.1858    0.6127   -0.1669 C   0  0  0  0  0  0  0  0  0  0  0  0
   -0.9621   -0.2567    0.2171 C   0  0  0  0  0  0  0  0  0  0  0  0
   -1.8663   -1.1002   -0.8086 S   0  0  0  0  0  0  0  0  0  0  0  0
    1.7025   -1.2092   -0.1540 H   0  0  0  0  0  0  0  0  0  0  0  0
    0.2619    0.7246   -1.2458 H   0  0  0  0  0  0  0  0  0  0  0  0
    0.0809    1.5982    0.2929 H   0  0  0  0  0  0  0  0  0  0  0  0
   -1.1456   -0.3126    1.2907 H   0  0  0  0  0  0  0  0  0  0  0  0
  1  2  1  0
  1  5  1  0
  2  3  1  0
  2  6  1  0
  2  7  1  0
  3  4  2  0
  3  8  1  0
M  END
>  <reaction>  (3) 
rxn_1290

>  <mol_properties>  (3) 
{"0": {"label": "a_hydrogen", "atom_type": "H0"}, "2": {"label": "acceptor", "atom_type": "Cs"}}

>  <type>  (3) 
r2h

$$$$

     RDKit          3D

 17 15  0  0  0  0  0  0  0  0999 V2000
   -3.0355    0.3298   -1.1837 C   0  0  0  0  0  0  0  0  0  0  0  0
   -2.1875    0.9785   -0.6255 C   0  0  0  0  0  0  0  0  0  0  0  0
   -1.1395    1.6654    0.0256 C   0  0  0  0  0  3  0  0  0  0  0  0
   -0.1471    2.4378   -0.7992 C   0  0  0  0  0  0  0  0  0  0  0  0
   -3.8005   -0.2178   -1.6799 H   0  0  0  0  0  0  0  0  0  0  0  0
   -0.3135    0.5890    0.5120 H   0  0  0  0  0  0  0  0  0  0  0  0
   -1.4025    2.1035    0.9860 H   0  0  0  0  0  0  0  0  0  0  0  0
   -0.5934    3.3665   -1.1660 H   0  0  0  0  0  0  0  0  0  0  0  0
    0.7247    2.6957   -0.1966 H   0  0  0  0  0  0  0  0  0  0  0  0
    0.1794    1.8568   -1.6618 H   0  0  0  0  0  0  0  0  0  0  0  0
    1.7049    0.5805    1.9412 S   0  0  0  0  0  0  0  0  0  0  0  0
    0.4972   -0.2850    0.9729 C   0  0  0  0  0  0  0  0  0  0  0  0
    0.8749   -0.9927   -0.2358 C   0  0  0  0  0  0  0  0  0  0  0  0
    2.2415   -0.8194   -1.0967 S   0  0  0  0  0  0  0  0  0  0  0  0
    2.6215    0.6230    0.9552 H   0  0  0  0  0  0  0  0  0  0  0  0
   -0.1900   -0.8427    1.6073 H   0  0  0  0  0  0  0  0  0  0  0  0
    0.0912   -1.6502   -0.6106 H   0  0  0  0  0  0  0  0  0  0  0  0
  1  2  3  0
  1  5  1  0
  2  3  1  0
  3  4  1  0
  3  7  1  0
  4  8  1  0
  4  9  1  0
  4 10  1  0
  6 12  1  0
 11 12  1  0
 11 15  1  0
 12 13  1  0
 12 16  1  0
 13 14  2  0
 13 17  1  0
M  RAD  1   3   2
M  END
>  <reaction>  (4) 
rxn_1290

>  <mol_properties>  (4) 
{"1": {"label": "*4", "atom_type": "Ct"}, "2": {"label": "*3", "atom_type": "Cs"}, "5": {"label": "*2", "atom_type": "H0"}, "11": {"label": "*1", "atom_type": "Cs"}, "12": {"label": "*0", "atom_type": "CS"}}

>  <type>  (4) 
ts

$$$$
