
     RDKit          3D

 16 15  0  0  0  0  0  0  0  0999 V2000
    1.7961   -0.3807    1.6176 C   0  0  0  0  0  0  0  0  0  0  0  0
    0.8562   -0.8708    0.8256 C   0  0  0  0  0  0  0  0  0  0  0  0
    0.0895   -0.0826   -0.2048 C   0  0  0  0  0  0  0  0  0  0  0  0
   -1.4061   -0.1111    0.0982 C   0  0  0  0  0  0  0  0  0  0  0  0
    0.4476   -0.5902   -1.5797 C   0  0  0  0  0  0  0  0  0  0  0  0
   -0.3793   -1.1113   -2.4728 C   0  0  0  0  0  0  0  0  0  0  0  0
    2.3110   -1.0032    2.3386 H   0  0  0  0  0  0  0  0  0  0  0  0
    2.0846    0.6643    1.5737 H   0  0  0  0  0  0  0  0  0  0  0  0
    0.5921   -1.9241    0.8925 H   0  0  0  0  0  0  0  0  0  0  0  0
    0.4358    0.9557   -0.1462 H   0  0  0  0  0  0  0  0  0  0  0  0
   -1.5968    0.3080    1.0865 H   0  0  0  0  0  0  0  0  0  0  0  0
   -1.9674    0.4693   -0.6359 H   0  0  0  0  0  0  0  0  0  0  0  0
   -1.7902   -1.1338    0.0883 H   0  0  0  0  0  0  0  0  0  0  0  0
    1.5049   -0.5197   -1.8214 H   0  0  0  0  0  0  0  0  0  0  0  0
   -1.4421   -1.2131   -2.2889 H   0  0  0  0  0  0  0  0  0  0  0  0
   -0.0162   -1.4558   -3.4328 H   0  0  0  0  0  0  0  0  0  0  0  0
  1  2  2  3
  1  7  1  0
  1  8  1  0
  2  3  1  0
  2  9  1  0
  3  4  1  0
  3  5  1  0
  3 10  1  0
  4 11  1  0
  4 12  1  0
  4 13  1  0
  5  6  2  3
  5 14  1  0
  6 15  1  0
  6 16  1  0
M  END
>  <reaction>  (1) 
rxn_1209

>  <mol_properties>  (1) 
{"2": {"label": "donator", "atom_type": "Cs"}, "9": {"label": "d_hydrogen", "atom_type": "H0"}}

>  <type>  (1) 
r1h

$$$$

     RDKit          3D

  6  5  0  0  0  0  0  0  0  0999 V2000
   -0.5036    0.1196    0.0353 C   0  0  0  0  0  0  0  0  0  0  0  0
    0.9526    0.1121    0.2227 C   0  0  0  0  0  3  0  0  0  0  0  0
    2.2066   -0.6670   -0.2771 S   0  0  0  0  0  0  0  0  0  0  0  0
   -0.8527   -0.6450   -0.6654 H   0  0  0  0  0  0  0  0  0  0  0  0
   -0.8134    1.1060   -0.3189 H   0  0  0  0  0  0  0  0  0  0  0  0
   -0.9894   -0.0257    1.0035 H   0  0  0  0  0  0  0  0  0  0  0  0
  1  2  1  0
  1  4  1  0
  1  5  1  0
  1  6  1  0
  2  3  2  0
M  RAD  1   2   2
M  END
>  <reaction>  (2) 
rxn_1209

>  <mol_properties>  (2) 
{"1": {"label": "acceptor", "atom_type": "CS"}}

>  <type>  (2) 
r2

$$$$

     RDKit          3D

  7  6  0  0  0  0  0  0  0  0999 V2000
   -0.6782    0.0507    0.0301 C   0  0  0  0  0  0  0  0  0  0  0  0
    0.8092    0.0996    0.0213 C   0  0  0  0  0  0  0  0  0  0  0  0
    1.7473    0.7521    1.1507 S   0  0  0  0  0  0  0  0  0  0  0  0
   -1.0667    0.5456   -0.8653 H   0  0  0  0  0  0  0  0  0  0  0  0
   -1.0112   -0.9904   -0.0239 H   0  0  0  0  0  0  0  0  0  0  0  0
   -1.0920    0.5225    0.9188 H   0  0  0  0  0  0  0  0  0  0  0  0
    1.2740   -0.3620   -0.8520 H   0  0  0  0  0  0  0  0  0  0  0  0
  1  2  1  0
  1  4  1  0
  1  5  1  0
  1  6  1  0
  2  3  2  0
  2  7  1  0
M  END
>  <reaction>  (3) 
rxn_1209

>  <mol_properties>  (3) 
{"0": {"label": "a_hydrogen", "atom_type": "H0"}, "2": {"label": "acceptor", "atom_type": "CS"}}

>  <type>  (3) 
r2h

$$$$

     RDKit          3D

 22 20  0  0  0  0  0  0  0  0999 V2000
    0.6120   -2.6525   -1.1548 C   0  0  0  0  0  0  0  0  0  0  0  0
   -0.3800   -1.9626   -0.5990 C   0  0  0  0  0  0  0  0  0  0  0  0
   -0.2628   -0.9432    0.4644 C   0  0  0  0  0  0  0  0  0  0  0  0
    1.0832   -0.8204    1.1406 C   0  0  0  0  0  0  0  0  0  0  0  0
   -1.4563   -0.8561    1.3328 C   0  0  0  0  0  0  0  0  0  0  0  0
   -1.4897   -0.5180    2.6195 C   0  0  0  0  0  0  0  0  0  0  0  0
    0.4168   -3.3565   -1.9532 H   0  0  0  0  0  0  0  0  0  0  0  0
    1.6413   -2.5492   -0.8356 H   0  0  0  0  0  0  0  0  0  0  0  0
   -1.3890   -2.1252   -0.9711 H   0  0  0  0  0  0  0  0  0  0  0  0
   -0.3118    0.1426   -0.2086 H   0  0  0  0  0  0  0  0  0  0  0  0
    1.8754   -0.6965    0.4017 H   0  0  0  0  0  0  0  0  0  0  0  0
    1.1132    0.0521    1.7944 H   0  0  0  0  0  0  0  0  0  0  0  0
    1.3063   -1.7061    1.7414 H   0  0  0  0  0  0  0  0  0  0  0  0
   -2.4002   -1.0734    0.8373 H   0  0  0  0  0  0  0  0  0  0  0  0
   -0.5926   -0.3049    3.1874 H   0  0  0  0  0  0  0  0  0  0  0  0
   -2.4296   -0.4630    3.1533 H   0  0  0  0  0  0  0  0  0  0  0  0
   -1.3654    2.2619   -0.3732 C   0  0  0  0  0  0  0  0  0  0  0  0
   -0.2126    1.4617   -0.8326 C   0  0  0  0  0  3  0  0  0  0  0  0
    1.0465    1.7732   -1.7293 S   0  0  0  0  0  0  0  0  0  0  0  0
   -1.3385    3.2917   -0.7328 H   0  0  0  0  0  0  0  0  0  0  0  0
   -1.3937    2.2447    0.7200 H   0  0  0  0  0  0  0  0  0  0  0  0
   -2.2890    1.7781   -0.7039 H   0  0  0  0  0  0  0  0  0  0  0  0
  1  2  2  3
  1  7  1  0
  1  8  1  0
  2  3  1  0
  2  9  1  0
  3  4  1  0
  3  5  1  0
  3 10  1  0
  4 11  1  0
  4 12  1  0
  4 13  1  0
  5  6  2  3
  5 14  1  0
  6 15  1  0
  6 16  1  0
 17 18  1  0
 17 20  1  0
 17 21  1  0
 17 22  1  0
 18 19  2  0
M  RAD  1  18   2
M  END
>  <reaction>  (4) 
rxn_1209

>  <mol_properties>  (4) 
{"1": {"label": "*0", "atom_type": "Cd"}, "2": {"label": "*1", "atom_type": "Cs"}, "9": {"label": "*2", "atom_type": "H0"}, "17": {"label": "*3", "atom_type": "CS"}, "18": {"label": "*4", "atom_type": "S2d"}}

>  <type>  (4) 
ts

$$$$
