
     RDKit          3D

 18 18  0  0  0  0  0  0  0  0999 V2000
   -2.4852    0.3210   -0.3966 C   0  0  0  0  0  0  0  0  0  0  0  0
   -1.5917   -0.2708    0.6941 C   0  0  0  0  0  0  0  0  0  0  0  0
   -0.1292   -0.1692    0.3493 C   0  0  0  0  0  0  0  0  0  0  0  0
    0.6099    0.9558    0.7015 C   0  0  0  0  0  0  0  0  0  0  0  0
    1.9447    1.0728    0.3458 C   0  0  0  0  0  0  0  0  0  0  0  0
    2.5646    0.0613   -0.3720 C   0  0  0  0  0  0  0  0  0  0  0  0
    1.8399   -1.0657   -0.7287 C   0  0  0  0  0  0  0  0  0  0  0  0
    0.5055   -1.1769   -0.3700 C   0  0  0  0  0  0  0  0  0  0  0  0
   -2.3325   -0.1971   -1.3452 H   0  0  0  0  0  0  0  0  0  0  0  0
   -2.2554    1.3763   -0.5546 H   0  0  0  0  0  0  0  0  0  0  0  0
   -3.5397    0.2376   -0.1280 H   0  0  0  0  0  0  0  0  0  0  0  0
   -1.7801    0.2462    1.6380 H   0  0  0  0  0  0  0  0  0  0  0  0
   -1.8568   -1.3190    0.8516 H   0  0  0  0  0  0  0  0  0  0  0  0
    0.1327    1.7497    1.2656 H   0  0  0  0  0  0  0  0  0  0  0  0
    2.5033    1.9550    0.6330 H   0  0  0  0  0  0  0  0  0  0  0  0
    3.6077    0.1491   -0.6484 H   0  0  0  0  0  0  0  0  0  0  0  0
    2.3163   -1.8632   -1.2854 H   0  0  0  0  0  0  0  0  0  0  0  0
   -0.0540   -2.0629   -0.6500 H   0  0  0  0  0  0  0  0  0  0  0  0
  1  2  1  0
  1  9  1  0
  1 10  1  0
  1 11  1  0
  2  3  1  0
  2 12  1  0
  2 13  1  0
  3  4  2  0
  3  8  1  0
  4  5  1  0
  4 14  1  0
  5  6  2  0
  5 15  1  0
  6  7  1  0
  6 16  1  0
  7  8  2  0
  7 17  1  0
  8 18  1  0
M  END
>  <reaction>  (1) 
rxn_1508

>  <mol_properties>  (1) 
{"2": {"label": "donator", "atom_type": "Cs"}, "8": {"label": "d_hydrogen", "atom_type": "H0"}}

>  <type>  (1) 
r1h

$$$$

     RDKit          3D

 12 11  0  0  0  0  0  0  0  0999 V2000
   -0.9951    0.1196   -0.8321 C   0  0  0  0  0  0  0  0  0  0  0  0
   -0.3760    0.2571    0.5231 C   0  0  0  0  0  3  0  0  0  0  0  0
    0.9330   -0.1537    0.7810 C   0  0  0  0  0  0  0  0  0  0  0  0
    1.5987   -0.1880    1.9734 C   0  0  0  0  0  0  0  0  0  0  0  0
   -1.4483    0.9449    1.7152 S   0  0  0  0  0  0  0  0  0  0  0  0
   -1.9164   -0.4696   -0.7936 H   0  0  0  0  0  0  0  0  0  0  0  0
   -1.2565    1.0958   -1.2506 H   0  0  0  0  0  0  0  0  0  0  0  0
   -0.3088   -0.3780   -1.5170 H   0  0  0  0  0  0  0  0  0  0  0  0
    1.4783   -0.4898   -0.0971 H   0  0  0  0  0  0  0  0  0  0  0  0
    2.6278   -0.5153    2.0142 H   0  0  0  0  0  0  0  0  0  0  0  0
    1.1316    0.0690    2.9151 H   0  0  0  0  0  0  0  0  0  0  0  0
   -0.5306    1.3052    2.6211 H   0  0  0  0  0  0  0  0  0  0  0  0
  1  2  1  0
  1  6  1  0
  1  7  1  0
  1  8  1  0
  2  3  1  0
  2  5  1  0
  3  4  2  3
  3  9  1  0
  4 10  1  0
  4 11  1  0
  5 12  1  0
M  RAD  1   2   2
M  END
>  <reaction>  (2) 
rxn_1508

>  <mol_properties>  (2) 
{"1": {"label": "acceptor", "atom_type": "Cs"}}

>  <type>  (2) 
r2

$$$$

     RDKit          3D

 13 12  0  0  0  0  0  0  0  0999 V2000
   -1.1828    0.8269   -0.1645 C   0  0  0  0  0  0  0  0  0  0  0  0
   -0.4827   -0.4584   -0.5736 C   0  0  0  0  0  0  0  0  0  0  0  0
   -0.9759   -1.7030    0.1030 C   0  0  0  0  0  0  0  0  0  0  0  0
   -2.0084   -1.7831    0.9287 C   0  0  0  0  0  0  0  0  0  0  0  0
   -0.4908   -0.7025   -2.3913 S   0  0  0  0  0  0  0  0  0  0  0  0
   -1.0941    0.9860    0.9125 H   0  0  0  0  0  0  0  0  0  0  0  0
   -0.7405    1.6784   -0.6793 H   0  0  0  0  0  0  0  0  0  0  0  0
   -2.2437    0.7943   -0.4195 H   0  0  0  0  0  0  0  0  0  0  0  0
    0.5870   -0.3637   -0.3637 H   0  0  0  0  0  0  0  0  0  0  0  0
   -0.4209   -2.6026   -0.1443 H   0  0  0  0  0  0  0  0  0  0  0  0
   -2.2982   -2.7315    1.3623 H   0  0  0  0  0  0  0  0  0  0  0  0
   -2.5999   -0.9190    1.2055 H   0  0  0  0  0  0  0  0  0  0  0  0
   -1.8040   -0.9489   -2.4971 H   0  0  0  0  0  0  0  0  0  0  0  0
  1  2  1  0
  1  6  1  0
  1  7  1  0
  1  8  1  0
  2  3  1  0
  2  5  1  0
  2  9  1  0
  3  4  2  3
  3 10  1  0
  4 11  1  0
  4 12  1  0
  5 13  1  0
M  END
>  <reaction>  (3) 
rxn_1508

>  <mol_properties>  (3) 
{"1": {"label": "acceptor", "atom_type": "Cs"}, "5": {"label": "a_hydrogen", "atom_type": "H0"}}

>  <type>  (3) 
r2h

$$$$

     RDKit          3D

 30 29  0  0  0  0  0  0  0  0999 V2000
   -3.3713    0.7101    0.6926 S   0  0  0  0  0  0  0  0  0  0  0  0
   -1.9528   -0.2030    0.0798 C   0  0  0  0  0  0  0  0  0  0  0  0
   -1.5501   -1.4034    0.9069 C   0  0  0  0  0  0  0  0  0  0  0  0
    0.0903    1.8613    1.8529 C   0  0  0  0  0  0  0  0  0  0  0  0
    1.2728    0.4787    0.0282 C   0  0  0  0  0  0  0  0  0  0  0  0
    0.1953    1.3813    0.4317 C   0  0  0  0  0  0  0  0  0  0  0  0
   -1.9758   -0.4208   -1.3713 C   0  0  0  0  0  0  0  0  0  0  0  0
    2.0508   -0.2273    0.9520 C   0  0  0  0  0  3  0  0  0  0  0  0
    1.4948    0.2368   -1.3341 C   0  0  0  0  0  0  0  0  0  0  0  0
    3.0082   -1.1349    0.5304 C   0  0  0  0  0  0  0  0  0  0  0  0
    3.2107   -1.3659   -0.8223 C   0  0  0  0  0  0  0  0  0  0  0  0
    2.4483   -0.6722   -1.7533 C   0  0  0  0  0  0  0  0  0  0  0  0
   -2.6637    0.2672   -2.2822 C   0  0  0  0  0  0  0  0  0  0  0  0
   -0.9307    0.6094    0.2410 H   0  0  0  0  0  0  0  0  0  0  0  0
   -1.3755   -1.1234    1.9472 H   0  0  0  0  0  0  0  0  0  0  0  0
   -2.3255   -2.1731    0.8895 H   0  0  0  0  0  0  0  0  0  0  0  0
   -0.6236   -1.8297    0.5151 H   0  0  0  0  0  0  0  0  0  0  0  0
   -0.7820    2.5040    1.9729 H   0  0  0  0  0  0  0  0  0  0  0  0
   -0.0073    1.0310    2.5567 H   0  0  0  0  0  0  0  0  0  0  0  0
    0.9732    2.4366    2.1501 H   0  0  0  0  0  0  0  0  0  0  0  0
   -1.3040   -1.2053   -1.7094 H   0  0  0  0  0  0  0  0  0  0  0  0
   -0.0396    2.1385   -0.3148 H   0  0  0  0  0  0  0  0  0  0  0  0
    1.9098   -0.0624    2.0127 H   0  0  0  0  0  0  0  0  0  0  0  0
    3.6020   -1.6657    1.2643 H   0  0  0  0  0  0  0  0  0  0  0  0
    0.8997    0.7721   -2.0651 H   0  0  0  0  0  0  0  0  0  0  0  0
    3.9592   -2.0762   -1.1492 H   0  0  0  0  0  0  0  0  0  0  0  0
    2.6014   -0.8402   -2.8122 H   0  0  0  0  0  0  0  0  0  0  0  0
   -2.5663    0.0380   -3.3352 H   0  0  0  0  0  0  0  0  0  0  0  0
   -3.3430    1.0671   -2.0126 H   0  0  0  0  0  0  0  0  0  0  0  0
   -2.9052    0.8713    1.9379 H   0  0  0  0  0  0  0  0  0  0  0  0
  1  2  1  0
  1 30  1  0
  2  3  1  0
  2  7  1  0
  2 14  1  0
  3 15  1  0
  3 16  1  0
  3 17  1  0
  4  6  1  0
  4 18  1  0
  4 19  1  0
  4 20  1  0
  5  6  2  3
  5  8  1  0
  5  9  1  0
  6 22  1  0
  7 13  2  3
  7 21  1  0
  8 10  1  0
  8 23  1  0
  9 12  2  0
  9 25  1  0
 10 11  2  0
 10 24  1  0
 11 12  1  0
 11 26  1  0
 12 27  1  0
 13 28  1  0
 13 29  1  0
M  RAD  1   8   2
M  END
>  <reaction>  (4) 
rxn_1508

>  <mol_properties>  (4) 
{"0": {"label": "*0", "atom_type": "S2s"}, "1": {"label": "*1", "atom_type": "Cs"}, "4": {"label": "*4", "atom_type": "Cd"}, "5": {"label": "*3", "atom_type": "Cd"}, "13": {"label": "*2", "atom_type": "H0"}}

>  <type>  (4) 
ts

$$$$
