
     RDKit          3D

 22 23  0  0  0  0  0  0  0  0999 V2000
   -2.1093   -0.3263    0.3079 C   0  0  0  0  0  0  0  0  0  0  0  0
   -1.3270    0.9803    0.4115 C   0  0  0  0  0  0  0  0  0  0  0  0
   -0.1818    0.8289   -0.6044 C   0  0  0  0  0  0  0  0  0  0  0  0
    1.1682    1.3904   -0.1341 C   0  0  0  0  0  0  0  0  0  0  0  0
    1.8508    0.2041    0.5479 C   0  0  0  0  0  0  0  0  0  0  0  0
    1.4982   -0.9663   -0.3710 C   0  0  0  0  0  0  0  0  0  0  0  0
    0.0340   -0.7124   -0.7594 C   0  0  0  0  0  0  0  0  0  0  0  0
   -0.9986   -1.3650    0.1756 C   0  0  0  0  0  0  0  0  0  0  0  0
   -2.7686   -0.5042    1.1589 H   0  0  0  0  0  0  0  0  0  0  0  0
   -2.7285   -0.3223   -0.5943 H   0  0  0  0  0  0  0  0  0  0  0  0
   -1.9339    1.8682    0.2289 H   0  0  0  0  0  0  0  0  0  0  0  0
   -0.9144    1.0729    1.4218 H   0  0  0  0  0  0  0  0  0  0  0  0
   -0.4804    1.2763   -1.5535 H   0  0  0  0  0  0  0  0  0  0  0  0
    1.7667    1.7058   -0.9931 H   0  0  0  0  0  0  0  0  0  0  0  0
    1.0540    2.2578    0.5189 H   0  0  0  0  0  0  0  0  0  0  0  0
    1.4197    0.0438    1.5410 H   0  0  0  0  0  0  0  0  0  0  0  0
    2.9248    0.3413    0.6788 H   0  0  0  0  0  0  0  0  0  0  0  0
    2.1362   -0.9329   -1.2584 H   0  0  0  0  0  0  0  0  0  0  0  0
    1.6421   -1.9421    0.0966 H   0  0  0  0  0  0  0  0  0  0  0  0
   -0.1575   -1.0299   -1.7854 H   0  0  0  0  0  0  0  0  0  0  0  0
   -1.3459   -2.3310   -0.1933 H   0  0  0  0  0  0  0  0  0  0  0  0
   -0.5489   -1.5373    1.1593 H   0  0  0  0  0  0  0  0  0  0  0  0
  1  2  1  0
  1  8  1  0
  1  9  1  0
  1 10  1  0
  2  3  1  0
  2 11  1  0
  2 12  1  0
  3  4  1  0
  3  7  1  0
  3 13  1  0
  4  5  1  0
  4 14  1  0
  4 15  1  0
  5  6  1  0
  5 16  1  0
  5 17  1  0
  6  7  1  0
  6 18  1  0
  6 19  1  0
  7  8  1  0
  7 20  1  0
  8 21  1  0
  8 22  1  0
M  END
>  <reaction>  (1) 
rxn_570

>  <mol_properties>  (1) 
{"2": {"label": "donator", "atom_type": "Cs"}, "12": {"label": "d_hydrogen", "atom_type": "H0"}}

>  <type>  (1) 
r1h

$$$$

     RDKit          3D

 17 17  0  0  0  0  0  0  0  0999 V2000
    2.7069    0.2860   -0.1817 C   0  0  0  0  0  0  0  0  0  0  0  0
    1.6304   -0.7245    0.0085 C   0  0  0  0  0  0  0  0  0  0  0  0
    1.4786   -1.8800   -0.7837 C   0  0  0  0  0  0  0  0  0  0  0  0
    0.4231   -2.7891   -0.5312 C   0  0  0  0  0  3  0  0  0  0  0  0
    0.2582   -3.9235   -1.2940 C   0  0  0  0  0  0  0  0  0  0  0  0
    1.1348   -4.2030   -2.3401 C   0  0  0  0  0  0  0  0  0  0  0  0
    2.1804   -3.3260   -2.6093 C   0  0  0  0  0  0  0  0  0  0  0  0
    2.3549   -2.1866   -1.8513 C   0  0  0  0  0  0  0  0  0  0  0  0
    2.6698    0.7343   -1.1808 H   0  0  0  0  0  0  0  0  0  0  0  0
    3.7029   -0.1584   -0.0766 H   0  0  0  0  0  0  0  0  0  0  0  0
    2.6250    1.0917    0.5463 H   0  0  0  0  0  0  0  0  0  0  0  0
    0.9136   -0.5677    0.8059 H   0  0  0  0  0  0  0  0  0  0  0  0
   -0.2629   -2.5783    0.2811 H   0  0  0  0  0  0  0  0  0  0  0  0
   -0.5582   -4.6017   -1.0785 H   0  0  0  0  0  0  0  0  0  0  0  0
    1.0033   -5.0952   -2.9384 H   0  0  0  0  0  0  0  0  0  0  0  0
    2.8650   -3.5382   -3.4214 H   0  0  0  0  0  0  0  0  0  0  0  0
    3.1750   -1.5169   -2.0772 H   0  0  0  0  0  0  0  0  0  0  0  0
  1  2  1  0
  1  9  1  0
  1 10  1  0
  1 11  1  0
  2  3  2  3
  2 12  1  0
  3  4  1  0
  3  8  1  0
  4  5  1  0
  4 13  1  0
  5  6  2  0
  5 14  1  0
  6  7  1  0
  6 15  1  0
  7  8  2  0
  7 16  1  0
  8 17  1  0
M  RAD  1   4   2
M  END
>  <reaction>  (2) 
rxn_570

>  <mol_properties>  (2) 
{"1": {"label": "acceptor", "atom_type": "Cs"}}

>  <type>  (2) 
r2

$$$$

     RDKit          3D

 18 18  0  0  0  0  0  0  0  0999 V2000
   -2.4852    0.3210   -0.3966 C   0  0  0  0  0  0  0  0  0  0  0  0
   -1.5917   -0.2708    0.6941 C   0  0  0  0  0  0  0  0  0  0  0  0
   -0.1292   -0.1692    0.3493 C   0  0  0  0  0  0  0  0  0  0  0  0
    0.6099    0.9558    0.7015 C   0  0  0  0  0  0  0  0  0  0  0  0
    1.9447    1.0728    0.3458 C   0  0  0  0  0  0  0  0  0  0  0  0
    2.5646    0.0613   -0.3720 C   0  0  0  0  0  0  0  0  0  0  0  0
    1.8399   -1.0657   -0.7287 C   0  0  0  0  0  0  0  0  0  0  0  0
    0.5055   -1.1769   -0.3700 C   0  0  0  0  0  0  0  0  0  0  0  0
   -2.3325   -0.1971   -1.3452 H   0  0  0  0  0  0  0  0  0  0  0  0
   -2.2554    1.3763   -0.5546 H   0  0  0  0  0  0  0  0  0  0  0  0
   -3.5397    0.2376   -0.1280 H   0  0  0  0  0  0  0  0  0  0  0  0
   -1.7801    0.2462    1.6380 H   0  0  0  0  0  0  0  0  0  0  0  0
   -1.8568   -1.3190    0.8516 H   0  0  0  0  0  0  0  0  0  0  0  0
    0.1327    1.7497    1.2656 H   0  0  0  0  0  0  0  0  0  0  0  0
    2.5033    1.9550    0.6330 H   0  0  0  0  0  0  0  0  0  0  0  0
    3.6077    0.1491   -0.6484 H   0  0  0  0  0  0  0  0  0  0  0  0
    2.3163   -1.8632   -1.2854 H   0  0  0  0  0  0  0  0  0  0  0  0
   -0.0540   -2.0629   -0.6500 H   0  0  0  0  0  0  0  0  0  0  0  0
  1  2  1  0
  1  9  1  0
  1 10  1  0
  1 11  1  0
  2  3  1  0
  2 12  1  0
  2 13  1  0
  3  4  2  0
  3  8  1  0
  4  5  1  0
  4 14  1  0
  5  6  2  0
  5 15  1  0
  6  7  1  0
  6 16  1  0
  7  8  2  0
  7 17  1  0
  8 18  1  0
M  END
>  <reaction>  (3) 
rxn_570

>  <mol_properties>  (3) 
{"1": {"label": "acceptor", "atom_type": "Cs"}, "17": {"label": "a_hydrogen", "atom_type": "H0"}}

>  <type>  (3) 
r2h

$$$$

     RDKit          3D

 39 40  0  0  0  0  0  0  0  0999 V2000
   -0.5555   -1.3750    2.6738 C   0  0  0  0  0  0  0  0  0  0  0  0
   -0.9239   -0.3519    1.6270 C   0  0  0  0  0  0  0  0  0  0  0  0
   -1.6135   -0.7918    0.4010 C   0  0  0  0  0  0  0  0  0  0  0  0
   -2.2740    0.1477   -0.3981 C   0  0  0  0  0  0  0  0  0  0  0  0
   -2.8343   -0.2059   -1.6116 C   0  0  0  0  0  0  0  0  0  0  0  0
   -2.7531   -1.5167   -2.0630 C   0  0  0  0  0  0  0  0  0  0  0  0
   -2.1163   -2.4649   -1.2773 C   0  0  0  0  0  0  0  0  0  0  0  0
   -1.5554   -2.1087   -0.0610 C   0  0  0  0  0  0  0  0  0  0  0  0
    0.1479   -2.1147    2.2845 H   0  0  0  0  0  0  0  0  0  0  0  0
   -1.4325   -1.9150    3.0429 H   0  0  0  0  0  0  0  0  0  0  0  0
   -0.0753   -0.8913    3.5251 H   0  0  0  0  0  0  0  0  0  0  0  0
   -1.3706    0.5489    2.0481 H   0  0  0  0  0  0  0  0  0  0  0  0
   -2.3383    1.1750   -0.0566 H   0  0  0  0  0  0  0  0  0  0  0  0
   -3.3369    0.5437   -2.2104 H   0  0  0  0  0  0  0  0  0  0  0  0
   -3.1878   -1.7961   -3.0141 H   0  0  0  0  0  0  0  0  0  0  0  0
   -2.0538   -3.4924   -1.6141 H   0  0  0  0  0  0  0  0  0  0  0  0
   -1.0606   -2.8664    0.5332 H   0  0  0  0  0  0  0  0  0  0  0  0
    1.3844   -0.2544   -1.6388 C   0  0  0  0  0  0  0  0  0  0  0  0
    1.8366   -0.6877   -0.2415 C   0  0  0  0  0  0  0  0  0  0  0  0
    1.4369    0.4659    0.6593 C   0  0  0  0  0  3  0  0  0  0  0  0
    2.3451    0.8944    1.7930 C   0  0  0  0  0  0  0  0  0  0  0  0
    3.0589    2.1292    1.2250 C   0  0  0  0  0  0  0  0  0  0  0  0
    1.9600    2.8358    0.4254 C   0  0  0  0  0  0  0  0  0  0  0  0
    1.1626    1.6921   -0.2219 C   0  0  0  0  0  0  0  0  0  0  0  0
    1.6167    1.2563   -1.6242 C   0  0  0  0  0  0  0  0  0  0  0  0
    1.9226   -0.7647   -2.4385 H   0  0  0  0  0  0  0  0  0  0  0  0
    0.3196   -0.4674   -1.7653 H   0  0  0  0  0  0  0  0  0  0  0  0
    1.4012   -1.6412    0.0681 H   0  0  0  0  0  0  0  0  0  0  0  0
    2.9266   -0.8140   -0.2174 H   0  0  0  0  0  0  0  0  0  0  0  0
    0.2185    0.0921    1.1940 H   0  0  0  0  0  0  0  0  0  0  0  0
    1.7575    1.1859    2.6709 H   0  0  0  0  0  0  0  0  0  0  0  0
    3.0289    0.1043    2.1080 H   0  0  0  0  0  0  0  0  0  0  0  0
    3.8618    1.8098    0.5540 H   0  0  0  0  0  0  0  0  0  0  0  0
    3.5067    2.7617    1.9928 H   0  0  0  0  0  0  0  0  0  0  0  0
    1.3195    3.4002    1.1084 H   0  0  0  0  0  0  0  0  0  0  0  0
    2.3515    3.5406   -0.3102 H   0  0  0  0  0  0  0  0  0  0  0  0
    0.0950    1.9277   -0.2541 H   0  0  0  0  0  0  0  0  0  0  0  0
    1.0891    1.7831   -2.4205 H   0  0  0  0  0  0  0  0  0  0  0  0
    2.6856    1.4649   -1.7436 H   0  0  0  0  0  0  0  0  0  0  0  0
  1  2  1  0
  1  9  1  0
  1 10  1  0
  1 11  1  0
  2  3  1  0
  2 12  1  0
  2 30  1  0
  3  4  2  0
  3  8  1  0
  4  5  1  0
  4 13  1  0
  5  6  2  0
  5 14  1  0
  6  7  1  0
  6 15  1  0
  7  8  2  0
  7 16  1  0
  8 17  1  0
 18 25  1  0
 18 19  1  0
 18 26  1  0
 18 27  1  0
 19 20  1  0
 19 28  1  0
 19 29  1  0
 20 21  1  0
 20 24  1  0
 21 22  1  0
 21 31  1  0
 21 32  1  0
 22 23  1  0
 22 33  1  0
 22 34  1  0
 23 24  1  0
 23 35  1  0
 23 36  1  0
 24 25  1  0
 24 37  1  0
 25 38  1  0
 25 39  1  0
M  RAD  1  20   2
M  END
>  <reaction>  (4) 
rxn_570

>  <mol_properties>  (4) 
{"1": {"label": "*1", "atom_type": "Cs"}, "2": {"label": "*0", "atom_type": "Cd"}, "19": {"label": "*3", "atom_type": "Cs"}, "23": {"label": "*4", "atom_type": "Cs"}, "29": {"label": "*2", "atom_type": "H0"}}

>  <type>  (4) 
ts

$$$$
