
     RDKit          3D

 12 11  0  0  0  0  0  0  0  0999 V2000
    0.2765    1.4875   -0.3235 C   0  0  0  0  0  0  0  0  0  0  0  0
    0.0387    0.2116   -0.0470 C   0  0  0  0  0  0  0  0  0  0  0  0
    1.1382   -0.7557    0.2806 C   0  0  0  0  0  0  0  0  0  0  0  0
   -1.3481   -0.3618   -0.0405 C   0  0  0  0  0  0  0  0  0  0  0  0
    1.2833    1.8882   -0.3245 H   0  0  0  0  0  0  0  0  0  0  0  0
   -0.5275    2.1750   -0.5584 H   0  0  0  0  0  0  0  0  0  0  0  0
    0.9863   -1.1895    1.2731 H   0  0  0  0  0  0  0  0  0  0  0  0
    1.1431   -1.5878   -0.4293 H   0  0  0  0  0  0  0  0  0  0  0  0
    2.1177   -0.2788    0.2593 H   0  0  0  0  0  0  0  0  0  0  0  0
   -1.4296   -1.1802   -0.7616 H   0  0  0  0  0  0  0  0  0  0  0  0
   -1.5864   -0.7819    0.9408 H   0  0  0  0  0  0  0  0  0  0  0  0
   -2.0987    0.3891   -0.2854 H   0  0  0  0  0  0  0  0  0  0  0  0
  1  2  2  3
  1  5  1  0
  1  6  1  0
  2  3  1  0
  2  4  1  0
  3  7  1  0
  3  8  1  0
  3  9  1  0
  4 10  1  0
  4 11  1  0
  4 12  1  0
M  END
>  <reaction>  (1) 
rxn_31

>  <mol_properties>  (1) 
{"2": {"label": "donator", "atom_type": "Cs"}, "6": {"label": "d_hydrogen", "atom_type": "H0"}}

>  <type>  (1) 
r1h

$$$$

     RDKit          3D

  9  8  0  0  0  0  0  0  0  0999 V2000
   -1.1190   -0.1791    0.1439 C   0  0  0  0  0  0  0  0  0  0  0  0
    0.1303    0.5931   -0.0164 C   0  0  0  0  0  0  0  0  0  0  0  0
    0.3198    1.5563   -1.0510 C   0  0  0  0  0  0  0  0  0  0  0  0
   -0.5293    1.8274   -1.8924 O   0  0  0  0  0  1  0  0  0  0  0  0
   -0.9173   -1.2534    0.0852 H   0  0  0  0  0  0  0  0  0  0  0  0
   -1.8441    0.0914   -0.6212 H   0  0  0  0  0  0  0  0  0  0  0  0
   -1.5557   -0.0033    1.1322 H   0  0  0  0  0  0  0  0  0  0  0  0
    0.9483    0.4300    0.6772 H   0  0  0  0  0  0  0  0  0  0  0  0
    1.2979    2.0687   -1.0664 H   0  0  0  0  0  0  0  0  0  0  0  0
  1  2  1  0
  1  5  1  0
  1  6  1  0
  1  7  1  0
  2  3  2  3
  2  8  1  0
  3  4  1  0
  3  9  1  0
M  RAD  1   4   2
M  END
>  <reaction>  (2) 
rxn_31

>  <mol_properties>  (2) 
{"3": {"label": "acceptor", "atom_type": "O2s"}}

>  <type>  (2) 
r2

$$$$

     RDKit          3D

 10  9  0  0  0  0  0  0  0  0999 V2000
   -0.8856   -0.4848   -0.7236 C   0  0  0  0  0  0  0  0  0  0  0  0
   -0.2668    0.6546    0.0255 C   0  0  0  0  0  0  0  0  0  0  0  0
    0.1522    1.8066   -0.4848 C   0  0  0  0  0  0  0  0  0  0  0  0
    0.1133    2.2022   -1.7810 O   0  0  0  0  0  0  0  0  0  0  0  0
   -0.2947   -1.3968   -0.6100 H   0  0  0  0  0  0  0  0  0  0  0  0
   -1.8892   -0.7018   -0.3501 H   0  0  0  0  0  0  0  0  0  0  0  0
   -0.9796   -0.2992   -1.7965 H   0  0  0  0  0  0  0  0  0  0  0  0
   -0.1454    0.5334    1.0945 H   0  0  0  0  0  0  0  0  0  0  0  0
    0.5893    2.5767    0.1375 H   0  0  0  0  0  0  0  0  0  0  0  0
   -0.2763    1.5101   -2.3202 H   0  0  0  0  0  0  0  0  0  0  0  0
  1  2  1  0
  1  5  1  0
  1  6  1  0
  1  7  1  0
  2  3  2  3
  2  8  1  0
  3  4  1  0
  3  9  1  0
  4 10  1  0
M  END
>  <reaction>  (3) 
rxn_31

>  <mol_properties>  (3) 
{"0": {"label": "a_hydrogen", "atom_type": "H0"}, "4": {"label": "acceptor", "atom_type": "O2s"}}

>  <type>  (3) 
r2h

$$$$

     RDKit          3D

 21 19  0  0  0  0  0  0  0  0999 V2000
    1.3596    0.5097   -1.5904 C   0  0  0  0  0  0  0  0  0  0  0  0
    1.5987   -0.0570   -0.3860 C   0  0  0  0  0  0  0  0  0  0  0  0
    1.6802    0.7388    0.8060 C   0  0  0  0  0  3  0  0  0  0  0  0
    1.6670   -1.5496   -0.2295 C   0  0  0  0  0  0  0  0  0  0  0  0
    1.3090    1.5855   -1.7020 H   0  0  0  0  0  0  0  0  0  0  0  0
    1.2298   -0.0896   -2.4824 H   0  0  0  0  0  0  0  0  0  0  0  0
    0.3666    0.8569    1.1258 H   0  0  0  0  0  0  0  0  0  0  0  0
    2.1099    0.2732    1.6890 H   0  0  0  0  0  0  0  0  0  0  0  0
    1.9383    1.7872    0.6822 H   0  0  0  0  0  0  0  0  0  0  0  0
    2.6580   -1.8508    0.1178 H   0  0  0  0  0  0  0  0  0  0  0  0
    0.9464   -1.8852    0.5194 H   0  0  0  0  0  0  0  0  0  0  0  0
    1.4576   -2.0658   -1.1657 H   0  0  0  0  0  0  0  0  0  0  0  0
   -1.9129   -1.3548   -0.1946 C   0  0  0  0  0  0  0  0  0  0  0  0
   -1.8871    0.0576   -0.6615 C   0  0  0  0  0  0  0  0  0  0  0  0
   -1.3630    1.0914    0.0370 C   0  0  0  0  0  0  0  0  0  0  0  0
   -0.8205    0.9755    1.2252 O   0  0  0  0  0  0  0  0  0  0  0  0
   -2.9369   -1.7370   -0.1701 H   0  0  0  0  0  0  0  0  0  0  0  0
   -1.4866   -1.4426    0.8034 H   0  0  0  0  0  0  0  0  0  0  0  0
   -1.3512   -2.0008   -0.8757 H   0  0  0  0  0  0  0  0  0  0  0  0
   -2.3470    0.2885   -1.6162 H   0  0  0  0  0  0  0  0  0  0  0  0
   -1.3978    2.0933   -0.3982 H   0  0  0  0  0  0  0  0  0  0  0  0
  1  2  2  3
  1  5  1  0
  1  6  1  0
  2  3  1  0
  2  4  1  0
  3  8  1  0
  3  9  1  0
  4 10  1  0
  4 11  1  0
  4 12  1  0
  7 16  1  0
 13 14  1  0
 13 17  1  0
 13 18  1  0
 13 19  1  0
 14 15  2  3
 14 20  1  0
 15 16  1  0
 15 21  1  0
M  RAD  1   3   2
M  END
>  <reaction>  (4) 
rxn_31

>  <mol_properties>  (4) 
{"1": {"label": "*4", "atom_type": "Cd"}, "2": {"label": "*3", "atom_type": "Cs"}, "6": {"label": "*2", "atom_type": "H0"}, "14": {"label": "*0", "atom_type": "Cd"}, "15": {"label": "*1", "atom_type": "O2s"}}

>  <type>  (4) 
ts

$$$$
