
     RDKit          3D

  7  6  0  0  0  0  0  0  0  0999 V2000
    1.6219    0.7652   -0.5471 O   0  0  0  0  0  0  0  0  0  0  0  0
    0.9106   -0.0935   -0.1371 C   0  0  0  0  0  0  0  0  0  0  0  0
   -0.6028    0.1107    0.0882 C   0  0  0  0  0  0  0  0  0  0  0  0
   -1.2787   -0.7730   -0.6547 F   0  0  0  0  0  0  0  0  0  0  0  0
   -0.8896   -0.1272    1.3730 F   0  0  0  0  0  0  0  0  0  0  0  0
   -1.0037    1.3281   -0.2226 F   0  0  0  0  0  0  0  0  0  0  0  0
    1.2559   -1.1113    0.1207 H   0  0  0  0  0  0  0  0  0  0  0  0
  1  2  2  0
  2  3  1  0
  2  7  1  0
  3  4  1  0
  3  5  1  0
  3  6  1  0
M  END
>  <reaction>  (1) 
rxn_3199

>  <mol_properties>  (1) 
{"1": {"label": "donator", "atom_type": "CO"}, "6": {"label": "d_hydrogen", "atom_type": "H0"}}

>  <type>  (1) 
r1h

$$$$

     RDKit          3D

  6  6  0  0  0  0  0  0  0  0999 V2000
    1.9594    0.0134   -0.3734 N   0  0  0  0  0  2  0  0  0  0  0  0
    0.7437    0.0051   -0.0788 C   0  0  0  0  0  0  0  0  0  0  0  0
   -0.0745    1.0868    0.0233 O   0  0  0  0  0  0  0  0  0  0  0  0
   -1.3223    0.5972    0.3682 N   0  0  0  0  0  0  0  0  0  0  0  0
   -1.2899   -0.6150    0.4676 N   0  0  0  0  0  0  0  0  0  0  0  0
   -0.0165   -1.0874    0.2015 O   0  0  0  0  0  0  0  0  0  0  0  0
  1  2  2  0
  2  3  1  0
  2  6  1  0
  3  4  1  0
  4  5  2  0
  5  6  1  0
M  RAD  1   1   2
M  END
>  <reaction>  (2) 
rxn_3199

>  <mol_properties>  (2) 
{"0": {"label": "acceptor", "atom_type": "N3d"}}

>  <type>  (2) 
r2

$$$$

     RDKit          3D

  7  7  0  0  0  0  0  0  0  0999 V2000
    1.6064   -0.4313    0.1905 N   0  0  0  0  0  0  0  0  0  0  0  0
    0.3982   -0.1725    0.0701 C   0  0  0  0  0  0  0  0  0  0  0  0
   -0.6051   -1.0481    0.3497 O   0  0  0  0  0  0  0  0  0  0  0  0
   -1.7906   -0.4044    0.0958 N   0  0  0  0  0  0  0  0  0  0  0  0
   -1.5819    0.7348   -0.2956 N   0  0  0  0  0  0  0  0  0  0  0  0
   -0.2229    0.9708   -0.3436 O   0  0  0  0  0  0  0  0  0  0  0  0
    2.1958    0.3506   -0.0669 H   0  0  0  0  0  0  0  0  0  0  0  0
  1  2  2  3
  1  7  1  0
  2  3  1  0
  2  6  1  0
  3  4  1  0
  4  5  2  0
  5  6  1  0
M  END
>  <reaction>  (3) 
rxn_3199

>  <mol_properties>  (3) 
{"0": {"label": "acceptor", "atom_type": "N3d"}, "6": {"label": "a_hydrogen", "atom_type": "H0"}}

>  <type>  (3) 
r2h

$$$$

     RDKit          3D

 13 12  0  0  0  0  0  0  0  0999 V2000
   -1.0609   -1.2270    0.7131 N   0  0  0  0  0  2  0  0  0  0  0  0
   -0.0702   -1.8783    0.3194 C   0  0  0  0  0  0  0  0  0  0  0  0
    0.2604   -3.1315    0.7389 O   0  0  0  0  0  0  0  0  0  0  0  0
    1.4115   -3.4874    0.0693 N   0  0  0  0  0  0  0  0  0  0  0  0
    1.7672   -2.5892   -0.6742 N   0  0  0  0  0  0  0  0  0  0  0  0
    0.8884   -1.5254   -0.5852 O   0  0  0  0  0  0  0  0  0  0  0  0
   -1.2941    1.1818   -1.7256 O   0  0  0  0  0  0  0  0  0  0  0  0
   -0.9181    1.0435   -0.6204 C   0  0  0  0  0  0  0  0  0  0  0  0
   -0.1773    2.1379    0.1988 C   0  0  0  0  0  0  0  0  0  0  0  0
   -0.9121    2.4497    1.2624 F   0  0  0  0  0  0  0  0  0  0  0  0
    0.9871    1.6416    0.6146 F   0  0  0  0  0  0  0  0  0  0  0  0
    0.0466    3.2294   -0.5101 F   0  0  0  0  0  0  0  0  0  0  0  0
   -1.0577   -0.0066    0.0373 H   0  0  0  0  0  0  0  0  0  0  0  0
  1  2  2  0
  2  3  1  0
  2  6  1  0
  3  4  1  0
  4  5  2  0
  5  6  1  0
  7  8  2  0
  8  9  1  0
  8 13  1  0
  9 10  1  0
  9 11  1  0
  9 12  1  0
M  RAD  1   1   2
M  END
>  <reaction>  (4) 
rxn_3199

>  <mol_properties>  (4) 
{"0": {"label": "*3", "atom_type": "N3d"}, "1": {"label": "*4", "atom_type": "Cd"}, "7": {"label": "*1", "atom_type": "CO"}, "8": {"label": "*0", "atom_type": "Cs"}, "12": {"label": "*2", "atom_type": "H0"}}

>  <type>  (4) 
ts

$$$$
