
     RDKit          3D

 16 15  0  0  0  0  0  0  0  0999 V2000
    1.7961   -0.3807    1.6176 C   0  0  0  0  0  0  0  0  0  0  0  0
    0.8562   -0.8708    0.8256 C   0  0  0  0  0  0  0  0  0  0  0  0
    0.0895   -0.0826   -0.2048 C   0  0  0  0  0  0  0  0  0  0  0  0
   -1.4061   -0.1111    0.0982 C   0  0  0  0  0  0  0  0  0  0  0  0
    0.4476   -0.5902   -1.5797 C   0  0  0  0  0  0  0  0  0  0  0  0
   -0.3793   -1.1113   -2.4728 C   0  0  0  0  0  0  0  0  0  0  0  0
    2.3110   -1.0032    2.3386 H   0  0  0  0  0  0  0  0  0  0  0  0
    2.0846    0.6643    1.5737 H   0  0  0  0  0  0  0  0  0  0  0  0
    0.5921   -1.9241    0.8925 H   0  0  0  0  0  0  0  0  0  0  0  0
    0.4358    0.9557   -0.1462 H   0  0  0  0  0  0  0  0  0  0  0  0
   -1.5968    0.3080    1.0865 H   0  0  0  0  0  0  0  0  0  0  0  0
   -1.9674    0.4693   -0.6359 H   0  0  0  0  0  0  0  0  0  0  0  0
   -1.7902   -1.1338    0.0883 H   0  0  0  0  0  0  0  0  0  0  0  0
    1.5049   -0.5197   -1.8214 H   0  0  0  0  0  0  0  0  0  0  0  0
   -1.4421   -1.2131   -2.2889 H   0  0  0  0  0  0  0  0  0  0  0  0
   -0.0162   -1.4558   -3.4328 H   0  0  0  0  0  0  0  0  0  0  0  0
  1  2  2  3
  1  7  1  0
  1  8  1  0
  2  3  1  0
  2  9  1  0
  3  4  1  0
  3  5  1  0
  3 10  1  0
  4 11  1  0
  4 12  1  0
  4 13  1  0
  5  6  2  3
  5 14  1  0
  6 15  1  0
  6 16  1  0
M  END
>  <reaction>  (1) 
rxn_1188

>  <mol_properties>  (1) 
{"2": {"label": "donator", "atom_type": "Cs"}, "9": {"label": "d_hydrogen", "atom_type": "H0"}}

>  <type>  (1) 
r1h

$$$$

     RDKit          3D

  9  8  0  0  0  0  0  0  0  0999 V2000
    1.8963   -0.1405   -0.2150 C   0  0  0  0  0  0  0  0  0  0  0  0
    0.6340    0.1486   -0.2254 C   0  0  0  0  0  3  0  0  0  0  0  0
   -0.6770    0.4501   -0.2373 C   0  0  0  0  0  0  0  0  0  0  0  0
   -1.6600   -0.2303    0.4662 C   0  0  0  0  0  0  0  0  0  0  0  0
    2.3274   -0.8354   -0.9313 H   0  0  0  0  0  0  0  0  0  0  0  0
    2.5751    0.2988    0.5117 H   0  0  0  0  0  0  0  0  0  0  0  0
   -0.9723    1.2966   -0.8520 H   0  0  0  0  0  0  0  0  0  0  0  0
   -2.6934    0.0777    0.4015 H   0  0  0  0  0  0  0  0  0  0  0  0
   -1.4140   -1.0782    1.0904 H   0  0  0  0  0  0  0  0  0  0  0  0
  1  2  2  3
  1  5  1  0
  1  6  1  0
  2  3  1  0
  3  4  2  3
  3  7  1  0
  4  8  1  0
  4  9  1  0
M  RAD  1   2   2
M  END
>  <reaction>  (2) 
rxn_1188

>  <mol_properties>  (2) 
{"1": {"label": "acceptor", "atom_type": "Cd"}}

>  <type>  (2) 
r2

$$$$

     RDKit          3D

 10  9  0  0  0  0  0  0  0  0999 V2000
    1.8334    0.0847   -0.1062 C   0  0  0  0  0  0  0  0  0  0  0  0
    0.5993   -0.4071   -0.0750 C   0  0  0  0  0  0  0  0  0  0  0  0
   -0.5993    0.4071    0.0750 C   0  0  0  0  0  0  0  0  0  0  0  0
   -1.8334   -0.0847    0.1062 C   0  0  0  0  0  0  0  0  0  0  0  0
    2.0179    1.1498   -0.0189 H   0  0  0  0  0  0  0  0  0  0  0  0
    2.6972   -0.5572   -0.2194 H   0  0  0  0  0  0  0  0  0  0  0  0
    0.4465   -1.4793   -0.1649 H   0  0  0  0  0  0  0  0  0  0  0  0
   -0.4465    1.4793    0.1649 H   0  0  0  0  0  0  0  0  0  0  0  0
   -2.0179   -1.1498    0.0189 H   0  0  0  0  0  0  0  0  0  0  0  0
   -2.6972    0.5572    0.2194 H   0  0  0  0  0  0  0  0  0  0  0  0
  1  2  2  3
  1  5  1  0
  1  6  1  0
  2  3  1  0
  2  7  1  0
  3  4  2  3
  3  8  1  0
  4  9  1  0
  4 10  1  0
M  END
>  <reaction>  (3) 
rxn_1188

>  <mol_properties>  (3) 
{"1": {"label": "acceptor", "atom_type": "Cd"}, "9": {"label": "a_hydrogen", "atom_type": "H0"}}

>  <type>  (3) 
r2h

$$$$

     RDKit          3D

 25 23  0  0  0  0  0  0  0  0999 V2000
   -0.1163    2.6490    0.7803 C   0  0  0  0  0  0  0  0  0  0  0  0
   -0.2000    1.8599   -0.2681 C   0  0  0  0  0  3  0  0  0  0  0  0
   -0.2748    2.1060   -1.6862 C   0  0  0  0  0  0  0  0  0  0  0  0
   -0.3861    1.1593   -2.6132 C   0  0  0  0  0  0  0  0  0  0  0  0
   -0.0523    2.2488    1.7868 H   0  0  0  0  0  0  0  0  0  0  0  0
   -0.1064    3.7337    0.6760 H   0  0  0  0  0  0  0  0  0  0  0  0
   -0.2310    3.1530   -1.9891 H   0  0  0  0  0  0  0  0  0  0  0  0
   -0.4352    1.4114   -3.6644 H   0  0  0  0  0  0  0  0  0  0  0  0
   -0.4385    0.1102   -2.3458 H   0  0  0  0  0  0  0  0  0  0  0  0
   -0.6443   -2.5293   -1.0738 C   0  0  0  0  0  0  0  0  0  0  0  0
   -0.9064   -1.6287   -0.1348 C   0  0  0  0  0  0  0  0  0  0  0  0
    0.0808   -0.7625    0.5685 C   0  0  0  0  0  0  0  0  0  0  0  0
    1.5341   -0.9911    0.2136 C   0  0  0  0  0  0  0  0  0  0  0  0
   -0.2255   -0.6505    2.0214 C   0  0  0  0  0  0  0  0  0  0  0  0
    0.6503   -0.6310    3.0191 C   0  0  0  0  0  0  0  0  0  0  0  0
   -1.4413   -3.0986   -1.5344 H   0  0  0  0  0  0  0  0  0  0  0  0
    0.3640   -2.7404   -1.4088 H   0  0  0  0  0  0  0  0  0  0  0  0
   -1.9414   -1.4741    0.1602 H   0  0  0  0  0  0  0  0  0  0  0  0
   -0.1519    0.3508    0.1515 H   0  0  0  0  0  0  0  0  0  0  0  0
    1.6802   -0.9307   -0.8655 H   0  0  0  0  0  0  0  0  0  0  0  0
    2.1641   -0.2275    0.6701 H   0  0  0  0  0  0  0  0  0  0  0  0
    1.8777   -1.9715    0.5533 H   0  0  0  0  0  0  0  0  0  0  0  0
   -1.2827   -0.5595    2.2592 H   0  0  0  0  0  0  0  0  0  0  0  0
    1.7168   -0.7245    2.8563 H   0  0  0  0  0  0  0  0  0  0  0  0
    0.3198   -0.5298    4.0449 H   0  0  0  0  0  0  0  0  0  0  0  0
  1  2  2  3
  1  5  1  0
  1  6  1  0
  2  3  1  0
  3  4  2  3
  3  7  1  0
  4  8  1  0
  4  9  1  0
 10 11  2  3
 10 16  1  0
 10 17  1  0
 11 12  1  0
 11 18  1  0
 12 13  1  0
 12 14  1  0
 12 19  1  0
 13 20  1  0
 13 21  1  0
 13 22  1  0
 14 15  2  3
 14 23  1  0
 15 24  1  0
 15 25  1  0
M  RAD  1   2   2
M  END
>  <reaction>  (4) 
rxn_1188

>  <mol_properties>  (4) 
{"1": {"label": "*3", "atom_type": "Cd"}, "2": {"label": "*4", "atom_type": "Cd"}, "10": {"label": "*0", "atom_type": "Cd"}, "11": {"label": "*1", "atom_type": "Cs"}, "18": {"label": "*2", "atom_type": "H0"}}

>  <type>  (4) 
ts

$$$$
