
     RDKit          3D

 16 15  0  0  0  0  0  0  0  0999 V2000
    1.7961   -0.3807    1.6176 C   0  0  0  0  0  0  0  0  0  0  0  0
    0.8562   -0.8708    0.8256 C   0  0  0  0  0  0  0  0  0  0  0  0
    0.0895   -0.0826   -0.2048 C   0  0  0  0  0  0  0  0  0  0  0  0
   -1.4061   -0.1111    0.0982 C   0  0  0  0  0  0  0  0  0  0  0  0
    0.4476   -0.5902   -1.5797 C   0  0  0  0  0  0  0  0  0  0  0  0
   -0.3793   -1.1113   -2.4728 C   0  0  0  0  0  0  0  0  0  0  0  0
    2.3110   -1.0032    2.3386 H   0  0  0  0  0  0  0  0  0  0  0  0
    2.0846    0.6643    1.5737 H   0  0  0  0  0  0  0  0  0  0  0  0
    0.5921   -1.9241    0.8925 H   0  0  0  0  0  0  0  0  0  0  0  0
    0.4358    0.9557   -0.1462 H   0  0  0  0  0  0  0  0  0  0  0  0
   -1.5968    0.3080    1.0865 H   0  0  0  0  0  0  0  0  0  0  0  0
   -1.9674    0.4693   -0.6359 H   0  0  0  0  0  0  0  0  0  0  0  0
   -1.7902   -1.1338    0.0883 H   0  0  0  0  0  0  0  0  0  0  0  0
    1.5049   -0.5197   -1.8214 H   0  0  0  0  0  0  0  0  0  0  0  0
   -1.4421   -1.2131   -2.2889 H   0  0  0  0  0  0  0  0  0  0  0  0
   -0.0162   -1.4558   -3.4328 H   0  0  0  0  0  0  0  0  0  0  0  0
  1  2  2  3
  1  7  1  0
  1  8  1  0
  2  3  1  0
  2  9  1  0
  3  4  1  0
  3  5  1  0
  3 10  1  0
  4 11  1  0
  4 12  1  0
  4 13  1  0
  5  6  2  3
  5 14  1  0
  6 15  1  0
  6 16  1  0
M  END
>  <reaction>  (1) 
rxn_1182

>  <mol_properties>  (1) 
{"2": {"label": "donator", "atom_type": "Cs"}, "9": {"label": "d_hydrogen", "atom_type": "H0"}}

>  <type>  (1) 
r1h

$$$$

     RDKit          3D

 11 10  0  0  0  0  0  0  0  0999 V2000
   -0.9580    1.1013   -2.2955 C   0  0  0  0  0  0  0  0  0  0  0  0
   -0.5129    0.5941   -1.2929 C   0  0  0  0  0  0  0  0  0  0  0  0
   -0.0301   -0.0160   -0.1357 C   0  0  0  0  0  3  0  0  0  0  0  0
   -0.6593   -1.2845    0.3661 C   0  0  0  0  0  0  0  0  0  0  0  0
    1.0691    0.5292    0.5269 C   0  0  0  0  0  0  0  0  0  0  0  0
    2.0168    0.9794    1.1266 C   0  0  0  0  0  0  0  0  0  0  0  0
   -1.3415    1.5561   -3.1769 H   0  0  0  0  0  0  0  0  0  0  0  0
   -1.7166   -1.3186    0.1054 H   0  0  0  0  0  0  0  0  0  0  0  0
   -0.1742   -2.1550   -0.0865 H   0  0  0  0  0  0  0  0  0  0  0  0
   -0.5505   -1.3663    1.4470 H   0  0  0  0  0  0  0  0  0  0  0  0
    2.8514    1.3842    1.6465 H   0  0  0  0  0  0  0  0  0  0  0  0
  1  2  3  0
  1  7  1  0
  2  3  1  0
  3  4  1  0
  3  5  1  0
  4  8  1  0
  4  9  1  0
  4 10  1  0
  5  6  3  0
  6 11  1  0
M  RAD  1   3   2
M  END
>  <reaction>  (2) 
rxn_1182

>  <mol_properties>  (2) 
{"2": {"label": "acceptor", "atom_type": "Cs"}}

>  <type>  (2) 
r2

$$$$

     RDKit          3D

 12 11  0  0  0  0  0  0  0  0999 V2000
    2.1696    0.6854    1.1310 C   0  0  0  0  0  0  0  0  0  0  0  0
    1.2518    0.4145    0.4134 C   0  0  0  0  0  0  0  0  0  0  0  0
    0.1391    0.0443   -0.4683 C   0  0  0  0  0  0  0  0  0  0  0  0
   -0.2054   -1.4492   -0.3339 C   0  0  0  0  0  0  0  0  0  0  0  0
   -1.0375    0.8853   -0.2222 C   0  0  0  0  0  0  0  0  0  0  0  0
   -2.0160    1.5463   -0.0311 C   0  0  0  0  0  0  0  0  0  0  0  0
    2.9819    0.9356    1.7702 H   0  0  0  0  0  0  0  0  0  0  0  0
    0.4629    0.2285   -1.4981 H   0  0  0  0  0  0  0  0  0  0  0  0
   -0.5327   -1.6703    0.6812 H   0  0  0  0  0  0  0  0  0  0  0  0
    0.6727   -2.0535   -0.5593 H   0  0  0  0  0  0  0  0  0  0  0  0
   -1.0064   -1.7081   -1.0256 H   0  0  0  0  0  0  0  0  0  0  0  0
   -2.8802    2.1413    0.1426 H   0  0  0  0  0  0  0  0  0  0  0  0
  1  2  3  0
  1  7  1  0
  2  3  1  0
  3  4  1  0
  3  5  1  0
  3  8  1  0
  4  9  1  0
  4 10  1  0
  4 11  1  0
  5  6  3  0
  6 12  1  0
M  END
>  <reaction>  (3) 
rxn_1182

>  <mol_properties>  (3) 
{"2": {"label": "acceptor", "atom_type": "Cs"}, "11": {"label": "a_hydrogen", "atom_type": "H0"}}

>  <type>  (3) 
r2h

$$$$

     RDKit          3D

 27 25  0  0  0  0  0  0  0  0999 V2000
   -0.3142    2.9518    1.1331 C   0  0  0  0  0  0  0  0  0  0  0  0
    0.0472    2.1878    0.2791 C   0  0  0  0  0  0  0  0  0  0  0  0
    0.4258    1.2307   -0.7136 C   0  0  0  0  0  3  0  0  0  0  0  0
   -0.4994    1.1028   -1.9115 C   0  0  0  0  0  0  0  0  0  0  0  0
    1.8278    1.1286   -0.9842 C   0  0  0  0  0  0  0  0  0  0  0  0
    2.9969    0.9729   -1.2123 C   0  0  0  0  0  0  0  0  0  0  0  0
   -0.6246    3.6407    1.8811 H   0  0  0  0  0  0  0  0  0  0  0  0
   -1.5332    1.0352   -1.5725 H   0  0  0  0  0  0  0  0  0  0  0  0
   -0.4052    1.9683   -2.5701 H   0  0  0  0  0  0  0  0  0  0  0  0
   -0.2502    0.2044   -2.4770 H   0  0  0  0  0  0  0  0  0  0  0  0
    4.0342    0.8622   -1.4182 H   0  0  0  0  0  0  0  0  0  0  0  0
   -0.1083   -2.9740   -1.1789 C   0  0  0  0  0  0  0  0  0  0  0  0
    0.5260   -2.0735   -0.4301 C   0  0  0  0  0  0  0  0  0  0  0  0
   -0.0675   -1.1256    0.5298 C   0  0  0  0  0  0  0  0  0  0  0  0
    0.7508   -0.8972    1.7816 C   0  0  0  0  0  0  0  0  0  0  0  0
   -1.5287   -1.1030    0.6582 C   0  0  0  0  0  0  0  0  0  0  0  0
   -2.2143   -0.7606    1.7477 C   0  0  0  0  0  0  0  0  0  0  0  0
    0.4404   -3.5992   -1.8712 H   0  0  0  0  0  0  0  0  0  0  0  0
   -1.1773   -3.1357   -1.1183 H   0  0  0  0  0  0  0  0  0  0  0  0
    1.6048   -1.9890   -0.5311 H   0  0  0  0  0  0  0  0  0  0  0  0
    0.1636    0.0249   -0.0876 H   0  0  0  0  0  0  0  0  0  0  0  0
    1.8105   -0.8273    1.5332 H   0  0  0  0  0  0  0  0  0  0  0  0
    0.4631    0.0309    2.2775 H   0  0  0  0  0  0  0  0  0  0  0  0
    0.6182   -1.7211    2.4881 H   0  0  0  0  0  0  0  0  0  0  0  0
   -2.0854   -1.3413   -0.2430 H   0  0  0  0  0  0  0  0  0  0  0  0
   -1.7281   -0.5050    2.6807 H   0  0  0  0  0  0  0  0  0  0  0  0
   -3.2960   -0.7314    1.7360 H   0  0  0  0  0  0  0  0  0  0  0  0
  1  2  3  0
  1  7  1  0
  2  3  1  0
  3  4  1  0
  3  5  1  0
  4  8  1  0
  4  9  1  0
  4 10  1  0
  5  6  3  0
  6 11  1  0
 12 13  2  3
 12 18  1  0
 12 19  1  0
 13 14  1  0
 13 20  1  0
 14 15  1  0
 14 16  1  0
 14 21  1  0
 15 22  1  0
 15 23  1  0
 15 24  1  0
 16 17  2  3
 16 25  1  0
 17 26  1  0
 17 27  1  0
M  RAD  1   3   2
M  END
>  <reaction>  (4) 
rxn_1182

>  <mol_properties>  (4) 
{"1": {"label": "*4", "atom_type": "Ct"}, "2": {"label": "*3", "atom_type": "Cs"}, "12": {"label": "*0", "atom_type": "Cd"}, "13": {"label": "*1", "atom_type": "Cs"}, "20": {"label": "*2", "atom_type": "H0"}}

>  <type>  (4) 
ts

$$$$
