
     RDKit          3D

  7  6  0  0  0  0  0  0  0  0999 V2000
   -0.8134   -0.1164    0.3300 C   0  0  0  0  0  0  0  0  0  0  0  0
    0.2313    0.4515   -0.2553 C   0  0  0  0  0  0  0  0  0  0  0  0
    1.4449   -0.1043   -0.4662 O   0  0  0  0  0  0  0  0  0  0  0  0
   -1.7342    0.4365    0.4394 H   0  0  0  0  0  0  0  0  0  0  0  0
   -0.7819   -1.1311    0.7105 H   0  0  0  0  0  0  0  0  0  0  0  0
    0.2022    1.4650   -0.6362 H   0  0  0  0  0  0  0  0  0  0  0  0
    1.4512   -1.0012   -0.1223 H   0  0  0  0  0  0  0  0  0  0  0  0
  1  2  2  3
  1  4  1  0
  1  5  1  0
  2  3  1  0
  2  6  1  0
  3  7  1  0
M  END
>  <reaction>  (1) 
rxn_693

>  <mol_properties>  (1) 
{"2": {"label": "donator", "atom_type": "O2s"}, "6": {"label": "d_hydrogen", "atom_type": "H0"}}

>  <type>  (1) 
r1h

$$$$

     RDKit          3D

  4  3  0  0  0  0  0  0  0  0999 V2000
    0.0000    0.0000    0.0000 C   0  0  0  0  0  3  0  0  0  0  0  0
    1.0638   -0.1747    0.0540 H   0  0  0  0  0  0  0  0  0  0  0  0
   -0.6833   -0.8351   -0.0280 H   0  0  0  0  0  0  0  0  0  0  0  0
   -0.3805    1.0098   -0.0260 H   0  0  0  0  0  0  0  0  0  0  0  0
  1  2  1  0
  1  3  1  0
  1  4  1  0
M  RAD  1   1   2
M  END
>  <reaction>  (2) 
rxn_693

>  <mol_properties>  (2) 
{"0": {"label": "acceptor", "atom_type": "Cs"}}

>  <type>  (2) 
r2

$$$$

     RDKit          3D

  5  4  0  0  0  0  0  0  0  0999 V2000
    0.0000    0.0000    0.0000 C   0  0  0  0  0  0  0  0  0  0  0  0
   -0.6486   -0.7720   -0.4113 H   0  0  0  0  0  0  0  0  0  0  0  0
   -0.3482    0.9787   -0.3267 H   0  0  0  0  0  0  0  0  0  0  0  0
   -0.0223   -0.0487    1.0876 H   0  0  0  0  0  0  0  0  0  0  0  0
    1.0191   -0.1580   -0.3496 H   0  0  0  0  0  0  0  0  0  0  0  0
  1  2  1  0
  1  3  1  0
  1  4  1  0
  1  5  1  0
M  END
>  <reaction>  (3) 
rxn_693

>  <mol_properties>  (3) 
{"0": {"label": "a_hydrogen", "atom_type": "H0"}, "1": {"label": "acceptor", "atom_type": "Cs"}}

>  <type>  (3) 
r2h

$$$$

     RDKit          3D

 11  9  0  0  0  0  0  0  0  0999 V2000
   -0.0975   -1.1566   -1.1217 C   0  0  0  0  0  0  0  0  0  0  0  0
   -0.0140   -1.1318    0.2067 C   0  0  0  0  0  0  0  0  0  0  0  0
   -0.2386   -0.1183    1.0377 O   0  0  0  0  0  0  0  0  0  0  0  0
    0.1276   -2.0704   -1.6507 H   0  0  0  0  0  0  0  0  0  0  0  0
   -0.3516   -0.2776   -1.6990 H   0  0  0  0  0  0  0  0  0  0  0  0
    0.2885   -2.0220    0.7590 H   0  0  0  0  0  0  0  0  0  0  0  0
   -0.1480    0.9567    0.4498 H   0  0  0  0  0  0  0  0  0  0  0  0
    0.0819    2.0553   -0.1686 C   0  0  0  0  0  3  0  0  0  0  0  0
    0.9807    1.8562   -0.7446 H   0  0  0  0  0  0  0  0  0  0  0  0
   -0.8047    2.2282   -0.7712 H   0  0  0  0  0  0  0  0  0  0  0  0
    0.2169    2.7711    0.6370 H   0  0  0  0  0  0  0  0  0  0  0  0
  1  2  2  3
  1  4  1  0
  1  5  1  0
  2  3  1  0
  2  6  1  0
  3  7  1  0
  8  9  1  0
  8 10  1  0
  8 11  1  0
M  RAD  1   8   2
M  END
>  <reaction>  (4) 
rxn_693

>  <mol_properties>  (4) 
{"1": {"label": "*0", "atom_type": "Cd"}, "2": {"label": "*1", "atom_type": "O2s"}, "6": {"label": "*2", "atom_type": "H0"}, "7": {"label": "*3", "atom_type": "Cs"}, "8": {"label": "*4", "atom_type": "H0"}}

>  <type>  (4) 
ts

$$$$
