
     RDKit          3D

  7  6  0  0  0  0  0  0  0  0999 V2000
    1.3572   -0.1671    1.3611 O   0  0  0  0  0  0  0  0  0  0  0  0
    0.9236    0.0526    0.2798 C   0  0  0  0  0  0  0  0  0  0  0  0
   -0.5771   -0.0341   -0.0851 C   0  0  0  0  0  0  0  0  0  0  0  0
   -1.0319    1.5740   -0.6898 Cl  0  0  0  0  0  0  0  0  0  0  0  0
   -1.5652   -0.4943    1.2822 Cl  0  0  0  0  0  0  0  0  0  0  0  0
   -0.6988   -1.2311   -1.3932 Cl  0  0  0  0  0  0  0  0  0  0  0  0
    1.5409    0.3436   -0.5884 H   0  0  0  0  0  0  0  0  0  0  0  0
  1  2  2  0
  2  3  1  0
  2  7  1  0
  3  4  1  0
  3  5  1  0
  3  6  1  0
M  END
>  <reaction>  (1) 
rxn_3201

>  <mol_properties>  (1) 
{"1": {"label": "donator", "atom_type": "CO"}, "6": {"label": "d_hydrogen", "atom_type": "H0"}}

>  <type>  (1) 
r1h

$$$$

     RDKit          3D

  6  6  0  0  0  0  0  0  0  0999 V2000
    1.9594    0.0134   -0.3734 N   0  0  0  0  0  2  0  0  0  0  0  0
    0.7437    0.0051   -0.0788 C   0  0  0  0  0  0  0  0  0  0  0  0
   -0.0745    1.0868    0.0233 O   0  0  0  0  0  0  0  0  0  0  0  0
   -1.3223    0.5972    0.3682 N   0  0  0  0  0  0  0  0  0  0  0  0
   -1.2899   -0.6150    0.4676 N   0  0  0  0  0  0  0  0  0  0  0  0
   -0.0165   -1.0874    0.2015 O   0  0  0  0  0  0  0  0  0  0  0  0
  1  2  2  0
  2  3  1  0
  2  6  1  0
  3  4  1  0
  4  5  2  0
  5  6  1  0
M  RAD  1   1   2
M  END
>  <reaction>  (2) 
rxn_3201

>  <mol_properties>  (2) 
{"0": {"label": "acceptor", "atom_type": "N3d"}}

>  <type>  (2) 
r2

$$$$

     RDKit          3D

  7  7  0  0  0  0  0  0  0  0999 V2000
    1.6064   -0.4313    0.1905 N   0  0  0  0  0  0  0  0  0  0  0  0
    0.3982   -0.1725    0.0701 C   0  0  0  0  0  0  0  0  0  0  0  0
   -0.6051   -1.0481    0.3497 O   0  0  0  0  0  0  0  0  0  0  0  0
   -1.7906   -0.4044    0.0958 N   0  0  0  0  0  0  0  0  0  0  0  0
   -1.5819    0.7348   -0.2956 N   0  0  0  0  0  0  0  0  0  0  0  0
   -0.2229    0.9708   -0.3436 O   0  0  0  0  0  0  0  0  0  0  0  0
    2.1958    0.3506   -0.0669 H   0  0  0  0  0  0  0  0  0  0  0  0
  1  2  2  3
  1  7  1  0
  2  3  1  0
  2  6  1  0
  3  4  1  0
  4  5  2  0
  5  6  1  0
M  END
>  <reaction>  (3) 
rxn_3201

>  <mol_properties>  (3) 
{"0": {"label": "acceptor", "atom_type": "N3d"}, "6": {"label": "a_hydrogen", "atom_type": "H0"}}

>  <type>  (3) 
r2h

$$$$

     RDKit          3D

 13 12  0  0  0  0  0  0  0  0999 V2000
   -1.0476   -1.6405    0.6661 N   0  0  0  0  0  2  0  0  0  0  0  0
   -0.3211   -2.4938    0.1147 C   0  0  0  0  0  0  0  0  0  0  0  0
   -0.2595   -3.8098    0.4649 O   0  0  0  0  0  0  0  0  0  0  0  0
    0.6524   -4.4062   -0.3786 N   0  0  0  0  0  0  0  0  0  0  0  0
    1.1096   -3.5882   -1.1586 N   0  0  0  0  0  0  0  0  0  0  0  0
    0.5521   -2.3458   -0.9231 O   0  0  0  0  0  0  0  0  0  0  0  0
   -0.9796    0.7167   -1.7833 O   0  0  0  0  0  0  0  0  0  0  0  0
   -0.6106    0.5843   -0.6766 C   0  0  0  0  0  0  0  0  0  0  0  0
    0.2178    1.6172    0.1345 C   0  0  0  0  0  0  0  0  0  0  0  0
   -0.7382    1.9955    1.5734 Cl  0  0  0  0  0  0  0  0  0  0  0  0
    0.5507    3.0651   -0.8008 Cl  0  0  0  0  0  0  0  0  0  0  0  0
    1.7240    0.7965    0.5813 Cl  0  0  0  0  0  0  0  0  0  0  0  0
   -0.8502   -0.4324    0.0103 H   0  0  0  0  0  0  0  0  0  0  0  0
  1  2  2  0
  2  3  1  0
  2  6  1  0
  3  4  1  0
  4  5  2  0
  5  6  1  0
  7  8  2  0
  8  9  1  0
  8 13  1  0
  9 10  1  0
  9 11  1  0
  9 12  1  0
M  RAD  1   1   2
M  END
>  <reaction>  (4) 
rxn_3201

>  <mol_properties>  (4) 
{"0": {"label": "*3", "atom_type": "N3d"}, "1": {"label": "*4", "atom_type": "Cd"}, "6": {"label": "*0", "atom_type": "O2d"}, "7": {"label": "*1", "atom_type": "CO"}, "12": {"label": "*2", "atom_type": "H0"}}

>  <type>  (4) 
ts

$$$$
