
     RDKit          3D

  5  4  0  0  0  0  0  0  0  0999 V2000
   -0.3689   -0.0540    0.1184 C   0  0  0  0  0  0  0  0  0  0  0  0
    0.7862    0.4359    0.2394 N   0  0  0  0  0  0  0  0  0  0  0  0
   -0.6872   -0.7035   -0.7033 H   0  0  0  0  0  0  0  0  0  0  0  0
   -1.1194    0.1733    0.8758 H   0  0  0  0  0  0  0  0  0  0  0  0
    1.3892    0.1482   -0.5303 H   0  0  0  0  0  0  0  0  0  0  0  0
  1  2  2  3
  1  3  1  0
  1  4  1  0
  2  5  1  0
M  END
>  <reaction>  (1) 
rxn_672

>  <mol_properties>  (1) 
{"0": {"label": "donator", "atom_type": "Cd"}, "2": {"label": "d_hydrogen", "atom_type": "H0"}}

>  <type>  (1) 
r1h

$$$$

     RDKit          3D

  1  0  0  0  0  0  0  0  0  0999 V2000
    0.0000    0.0000    0.0000 H   0  0  0  0  0 15  0  0  0  0  0  0
M  END
>  <reaction>  (2) 
rxn_672

>  <mol_properties>  (2) 
{"0": {"label": "acceptor", "atom_type": "H0"}}

>  <type>  (2) 
r2

$$$$

     RDKit          3D

  2  1  0  0  0  0  0  0  0  0999 V2000
    0.0000    0.0000    0.3721 H   0  0  0  0  0  0  0  0  0  0  0  0
    0.0000    0.0000   -0.3721 H   0  0  0  0  0  0  0  0  0  0  0  0
  1  2  1  0
M  END
>  <reaction>  (3) 
rxn_672

>  <mol_properties>  (3) 
{"0": {"label": "acceptor", "atom_type": "H0"}, "1": {"label": "a_hydrogen", "atom_type": "H0"}}

>  <type>  (3) 
r2h

$$$$

     RDKit          3D

  6  4  0  0  0  0  0  0  0  0999 V2000
    0.0173    1.7837    1.8210 H   0  0  0  0  0 15  0  0  0  0  0  0
   -0.0005   -0.1261    0.5452 C   0  0  0  0  0  0  0  0  0  0  0  0
   -0.0139   -0.0733   -0.6946 N   0  0  0  0  0  0  0  0  0  0  0  0
    0.0096    0.9157    1.2824 H   0  0  0  0  0  0  0  0  0  0  0  0
    0.0036   -1.0663    1.1014 H   0  0  0  0  0  0  0  0  0  0  0  0
   -0.0160    0.8751   -1.0689 H   0  0  0  0  0  0  0  0  0  0  0  0
  2  3  2  3
  2  4  1  0
  2  5  1  0
  3  6  1  0
M  END
>  <reaction>  (4) 
rxn_672

>  <mol_properties>  (4) 
{"0": {"label": "*1", "atom_type": "H0"}, "1": {"label": "*3", "atom_type": "Cd"}, "2": {"label": "*4", "atom_type": "N3d"}, "3": {"label": "*2", "atom_type": "H0"}}

>  <type>  (4) 
ts

$$$$
