
     RDKit          3D

  9  8  0  0  0  0  0  0  0  0999 V2000
   -2.1022   -0.6873    0.3932 C   0  0  0  0  0  0  0  0  0  0  0  0
   -1.2072   -0.1086   -0.1482 C   0  0  0  0  0  0  0  0  0  0  0  0
   -0.1242    0.6105   -0.8193 C   0  0  0  0  0  0  0  0  0  0  0  0
    1.2067    0.1106   -0.4741 C   0  0  0  0  0  0  0  0  0  0  0  0
    2.3005   -0.2875   -0.2012 C   0  0  0  0  0  0  0  0  0  0  0  0
   -2.8942   -1.2059    0.8778 H   0  0  0  0  0  0  0  0  0  0  0  0
   -0.1862    1.6723   -0.5649 H   0  0  0  0  0  0  0  0  0  0  0  0
   -0.2641    0.5418   -1.9017 H   0  0  0  0  0  0  0  0  0  0  0  0
    3.2709   -0.6459    0.0455 H   0  0  0  0  0  0  0  0  0  0  0  0
  1  2  3  0
  1  6  1  0
  2  3  1  0
  3  4  1  0
  3  7  1  0
  3  8  1  0
  4  5  3  0
  5  9  1  0
M  END
>  <reaction>  (1) 
rxn_1381

>  <mol_properties>  (1) 
{"2": {"label": "donator", "atom_type": "Cs"}, "6": {"label": "d_hydrogen", "atom_type": "H0"}}

>  <type>  (1) 
r1h

$$$$

     RDKit          3D

 10  9  0  0  0  0  0  0  0  0999 V2000
   -1.2648    0.1959    0.8197 C   0  0  0  0  0  0  0  0  0  0  0  0
   -0.2805    0.0995   -0.3030 C   0  0  0  0  0  3  0  0  0  0  0  0
   -0.0444    1.1347   -1.1797 C   0  0  0  0  0  0  0  0  0  0  0  0
    0.1640    2.0467   -1.9525 C   0  0  0  0  0  0  0  0  0  0  0  0
    0.5686   -1.4168   -0.4488 S   0  0  0  0  0  0  0  0  0  0  0  0
   -2.0466   -0.5638    0.7258 H   0  0  0  0  0  0  0  0  0  0  0  0
   -0.7765    0.0454    1.7871 H   0  0  0  0  0  0  0  0  0  0  0  0
   -1.7371    1.1762    0.8222 H   0  0  0  0  0  0  0  0  0  0  0  0
    0.3433    2.8484   -2.6273 H   0  0  0  0  0  0  0  0  0  0  0  0
    1.3075   -1.0953   -1.5176 H   0  0  0  0  0  0  0  0  0  0  0  0
  1  2  1  0
  1  6  1  0
  1  7  1  0
  1  8  1  0
  2  3  1  0
  2  5  1  0
  3  4  3  0
  4  9  1  0
  5 10  1  0
M  RAD  1   2   2
M  END
>  <reaction>  (2) 
rxn_1381

>  <mol_properties>  (2) 
{"1": {"label": "acceptor", "atom_type": "Cs"}}

>  <type>  (2) 
r2

$$$$

     RDKit          3D

 11 10  0  0  0  0  0  0  0  0999 V2000
   -1.2582   -0.5130    0.2160 C   0  0  0  0  0  0  0  0  0  0  0  0
   -0.1109    0.0509   -0.6210 C   0  0  0  0  0  0  0  0  0  0  0  0
    1.1862   -0.2025   -0.0072 C   0  0  0  0  0  0  0  0  0  0  0  0
    2.2351   -0.4206    0.5274 C   0  0  0  0  0  0  0  0  0  0  0  0
   -0.3298    1.8272   -1.0120 S   0  0  0  0  0  0  0  0  0  0  0  0
   -1.2875   -0.0327    1.1945 H   0  0  0  0  0  0  0  0  0  0  0  0
   -2.2088   -0.3391   -0.2866 H   0  0  0  0  0  0  0  0  0  0  0  0
   -1.1220   -1.5854    0.3655 H   0  0  0  0  0  0  0  0  0  0  0  0
   -0.1222   -0.4181   -1.6078 H   0  0  0  0  0  0  0  0  0  0  0  0
    3.1729   -0.6098    0.9920 H   0  0  0  0  0  0  0  0  0  0  0  0
   -0.1942    2.2663    0.2466 H   0  0  0  0  0  0  0  0  0  0  0  0
  1  2  1  0
  1  6  1  0
  1  7  1  0
  1  8  1  0
  2  3  1  0
  2  5  1  0
  2  9  1  0
  3  4  3  0
  4 10  1  0
  5 11  1  0
M  END
>  <reaction>  (3) 
rxn_1381

>  <mol_properties>  (3) 
{"1": {"label": "acceptor", "atom_type": "Cs"}, "10": {"label": "a_hydrogen", "atom_type": "H0"}}

>  <type>  (3) 
r2h

$$$$

     RDKit          3D

 19 17  0  0  0  0  0  0  0  0999 V2000
    0.1498    0.7468    2.2881 C   0  0  0  0  0  0  0  0  0  0  0  0
    0.7074    0.4561    0.9109 C   0  0  0  0  0  0  0  0  0  0  0  0
    1.8957   -0.3303    0.8513 C   0  0  0  0  0  0  0  0  0  0  0  0
    2.8540   -1.0506    0.7726 C   0  0  0  0  0  0  0  0  0  0  0  0
    0.6612    1.8884   -0.1533 S   0  0  0  0  0  0  0  0  0  0  0  0
    0.7974    1.4344    2.8365 H   0  0  0  0  0  0  0  0  0  0  0  0
   -0.8448    1.1866    2.2056 H   0  0  0  0  0  0  0  0  0  0  0  0
    0.0745   -0.1795    2.8576 H   0  0  0  0  0  0  0  0  0  0  0  0
    3.7133   -1.6740    0.7092 H   0  0  0  0  0  0  0  0  0  0  0  0
    1.2149    1.2993   -1.2213 H   0  0  0  0  0  0  0  0  0  0  0  0
   -0.4299   -1.1933   -2.6857 C   0  0  0  0  0  0  0  0  0  0  0  0
   -0.8039   -1.1919   -1.5445 C   0  0  0  0  0  0  0  0  0  0  0  0
   -1.1744   -1.1536   -0.1653 C   0  0  0  0  0  3  0  0  0  0  0  0
   -2.4088   -0.5216    0.1792 C   0  0  0  0  0  0  0  0  0  0  0  0
   -3.4138    0.0466    0.5093 C   0  0  0  0  0  0  0  0  0  0  0  0
   -0.1236   -1.2112   -3.7038 H   0  0  0  0  0  0  0  0  0  0  0  0
   -0.2225   -0.3615    0.3815 H   0  0  0  0  0  0  0  0  0  0  0  0
   -0.9819   -2.0824    0.3701 H   0  0  0  0  0  0  0  0  0  0  0  0
   -4.3155    0.5383    0.7847 H   0  0  0  0  0  0  0  0  0  0  0  0
  1  2  1  0
  1  6  1  0
  1  7  1  0
  1  8  1  0
  2  3  1  0
  2  5  1  0
  2 17  1  0
  3  4  3  0
  4  9  1  0
  5 10  1  0
 11 12  3  0
 11 16  1  0
 12 13  1  0
 13 14  1  0
 13 18  1  0
 14 15  3  0
 15 19  1  0
M  RAD  1  13   2
M  END
>  <reaction>  (4) 
rxn_1381

>  <mol_properties>  (4) 
{"1": {"label": "*1", "atom_type": "Cs"}, "4": {"label": "*0", "atom_type": "S2s"}, "11": {"label": "*4", "atom_type": "Ct"}, "12": {"label": "*3", "atom_type": "Cs"}, "16": {"label": "*2", "atom_type": "H0"}}

>  <type>  (4) 
ts

$$$$
