
     RDKit          3D

  4  3  0  0  0  0  0  0  0  0999 V2000
   -0.5192    0.5067    0.5114 O   0  0  0  0  0  0  0  0  0  0  0  0
    0.5296    0.4929   -0.3599 N   0  0  0  0  0  0  0  0  0  0  0  0
    0.7996   -0.5796   -0.7553 O   0  0  0  0  0  0  0  0  0  0  0  0
   -0.8100   -0.4200    0.6039 H   0  0  0  0  0  0  0  0  0  0  0  0
  1  2  1  0
  1  4  1  0
  2  3  2  0
M  END
>  <reaction>  (1) 
rxn_80

>  <mol_properties>  (1) 
{"0": {"label": "donator", "atom_type": "O2s"}, "3": {"label": "d_hydrogen", "atom_type": "H0"}}

>  <type>  (1) 
r1h

$$$$

     RDKit          3D

  1  0  0  0  0  0  0  0  0  0999 V2000
    0.0000    0.0000    0.0000 H   0  0  0  0  0 15  0  0  0  0  0  0
M  END
>  <reaction>  (2) 
rxn_80

>  <mol_properties>  (2) 
{"0": {"label": "acceptor", "atom_type": "H0"}}

>  <type>  (2) 
r2

$$$$

     RDKit          3D

  2  1  0  0  0  0  0  0  0  0999 V2000
    0.0000    0.0000    0.3721 H   0  0  0  0  0  0  0  0  0  0  0  0
    0.0000    0.0000   -0.3721 H   0  0  0  0  0  0  0  0  0  0  0  0
  1  2  1  0
M  END
>  <reaction>  (3) 
rxn_80

>  <mol_properties>  (3) 
{"0": {"label": "a_hydrogen", "atom_type": "H0"}, "1": {"label": "acceptor", "atom_type": "H0"}}

>  <type>  (3) 
r2h

$$$$

     RDKit          3D

  5  3  0  0  0  0  0  0  0  0999 V2000
    0.0000    0.6992    0.8176 O   0  0  0  0  0  0  0  0  0  0  0  0
    0.0000   -0.4554    0.2212 N   0  0  0  0  0  0  0  0  0  0  0  0
    0.0000   -0.4593   -0.9590 O   0  0  0  0  0  0  0  0  0  0  0  0
   -0.0000    1.4525    0.0109 H   0  0  0  0  0  0  0  0  0  0  0  0
   -0.0000    2.0252   -0.9143 H   0  0  0  0  0 15  0  0  0  0  0  0
  1  2  1  0
  1  4  1  0
  2  3  2  0
M  END
>  <reaction>  (4) 
rxn_80

>  <mol_properties>  (4) 
{"0": {"label": "*3", "atom_type": "O2s"}, "1": {"label": "*4", "atom_type": "N3d"}, "3": {"label": "*2", "atom_type": "H0"}, "4": {"label": "*1", "atom_type": "H0"}}

>  <type>  (4) 
ts

$$$$
