
     RDKit          3D

 18 18  0  0  0  0  0  0  0  0999 V2000
   -2.4852    0.3210   -0.3966 C   0  0  0  0  0  0  0  0  0  0  0  0
   -1.5917   -0.2708    0.6941 C   0  0  0  0  0  0  0  0  0  0  0  0
   -0.1292   -0.1692    0.3493 C   0  0  0  0  0  0  0  0  0  0  0  0
    0.6099    0.9558    0.7015 C   0  0  0  0  0  0  0  0  0  0  0  0
    1.9447    1.0728    0.3458 C   0  0  0  0  0  0  0  0  0  0  0  0
    2.5646    0.0613   -0.3720 C   0  0  0  0  0  0  0  0  0  0  0  0
    1.8399   -1.0657   -0.7287 C   0  0  0  0  0  0  0  0  0  0  0  0
    0.5055   -1.1769   -0.3700 C   0  0  0  0  0  0  0  0  0  0  0  0
   -2.3325   -0.1971   -1.3452 H   0  0  0  0  0  0  0  0  0  0  0  0
   -2.2554    1.3763   -0.5546 H   0  0  0  0  0  0  0  0  0  0  0  0
   -3.5397    0.2376   -0.1280 H   0  0  0  0  0  0  0  0  0  0  0  0
   -1.7801    0.2462    1.6380 H   0  0  0  0  0  0  0  0  0  0  0  0
   -1.8568   -1.3190    0.8516 H   0  0  0  0  0  0  0  0  0  0  0  0
    0.1327    1.7497    1.2656 H   0  0  0  0  0  0  0  0  0  0  0  0
    2.5033    1.9550    0.6330 H   0  0  0  0  0  0  0  0  0  0  0  0
    3.6077    0.1491   -0.6484 H   0  0  0  0  0  0  0  0  0  0  0  0
    2.3163   -1.8632   -1.2854 H   0  0  0  0  0  0  0  0  0  0  0  0
   -0.0540   -2.0629   -0.6500 H   0  0  0  0  0  0  0  0  0  0  0  0
  1  2  1  0
  1  9  1  0
  1 10  1  0
  1 11  1  0
  2  3  1  0
  2 12  1  0
  2 13  1  0
  3  4  2  0
  3  8  1  0
  4  5  1  0
  4 14  1  0
  5  6  2  0
  5 15  1  0
  6  7  1  0
  6 16  1  0
  7  8  2  0
  7 17  1  0
  8 18  1  0
M  END
>  <reaction>  (1) 
rxn_1499

>  <mol_properties>  (1) 
{"2": {"label": "donator", "atom_type": "Cs"}, "11": {"label": "d_hydrogen", "atom_type": "H0"}}

>  <type>  (1) 
r1h

$$$$

     RDKit          3D

  5  4  0  0  0  0  0  0  0  0999 V2000
   -0.5642    0.0794    0.0348 C   0  0  0  0  0  3  0  0  0  0  0  0
    1.0624    0.5420    0.2853 S   0  0  0  0  0  0  0  0  0  0  0  0
   -1.3257    0.7631    0.3741 H   0  0  0  0  0  0  0  0  0  0  0  0
   -0.8236   -0.8519   -0.4401 H   0  0  0  0  0  0  0  0  0  0  0  0
    1.6511   -0.5325   -0.2540 H   0  0  0  0  0  0  0  0  0  0  0  0
  1  2  1  0
  1  3  1  0
  1  4  1  0
  2  5  1  0
M  RAD  1   1   2
M  END
>  <reaction>  (2) 
rxn_1499

>  <mol_properties>  (2) 
{"1": {"label": "acceptor", "atom_type": "Cs"}}

>  <type>  (2) 
r2

$$$$

     RDKit          3D

  6  5  0  0  0  0  0  0  0  0999 V2000
   -0.5072   -0.0291   -0.0097 C   0  0  0  0  0  0  0  0  0  0  0  0
    1.1321   -0.1527   -0.7687 S   0  0  0  0  0  0  0  0  0  0  0  0
   -0.6174   -0.7330    0.8127 H   0  0  0  0  0  0  0  0  0  0  0  0
   -0.5863    0.9827    0.3845 H   0  0  0  0  0  0  0  0  0  0  0  0
   -1.2962   -0.1800   -0.7434 H   0  0  0  0  0  0  0  0  0  0  0  0
    1.0312   -1.4237   -1.1764 H   0  0  0  0  0  0  0  0  0  0  0  0
  1  2  1  0
  1  3  1  0
  1  4  1  0
  1  5  1  0
  2  6  1  0
M  END
>  <reaction>  (3) 
rxn_1499

>  <mol_properties>  (3) 
{"1": {"label": "acceptor", "atom_type": "Cs"}, "4": {"label": "a_hydrogen", "atom_type": "H0"}}

>  <type>  (3) 
r2h

$$$$

     RDKit          3D

 23 22  0  0  0  0  0  0  0  0999 V2000
    2.3038    0.4928    1.8535 S   0  0  0  0  0  0  0  0  0  0  0  0
    1.1639   -2.0123   -0.9416 C   0  0  0  0  0  0  0  0  0  0  0  0
    2.5736    0.8612    0.1523 C   0  0  0  0  0  3  0  0  0  0  0  0
   -0.5158   -0.1280   -0.4465 C   0  0  0  0  0  0  0  0  0  0  0  0
    0.7010   -0.5904   -1.1383 C   0  0  0  0  0  0  0  0  0  0  0  0
   -1.1178    1.0739   -0.8353 C   0  0  0  0  0  0  0  0  0  0  0  0
   -1.0596   -0.8046    0.6484 C   0  0  0  0  0  0  0  0  0  0  0  0
   -2.2144    1.5790   -0.1607 C   0  0  0  0  0  0  0  0  0  0  0  0
   -2.7424    0.8936    0.9257 C   0  0  0  0  0  0  0  0  0  0  0  0
   -2.1607   -0.3004    1.3231 C   0  0  0  0  0  0  0  0  0  0  0  0
    1.4288   -2.2021    0.1013 H   0  0  0  0  0  0  0  0  0  0  0  0
    0.3917   -2.7329   -1.2266 H   0  0  0  0  0  0  0  0  0  0  0  0
    2.0490   -2.2120   -1.5464 H   0  0  0  0  0  0  0  0  0  0  0  0
    2.3691    1.8878   -0.1390 H   0  0  0  0  0  0  0  0  0  0  0  0
    3.5509    0.5091   -0.1653 H   0  0  0  0  0  0  0  0  0  0  0  0
    1.6432    0.1253   -0.5964 H   0  0  0  0  0  0  0  0  0  0  0  0
    0.7348   -0.2618   -2.1771 H   0  0  0  0  0  0  0  0  0  0  0  0
   -0.7130    1.6148   -1.6836 H   0  0  0  0  0  0  0  0  0  0  0  0
   -2.6628    2.5102   -0.4843 H   0  0  0  0  0  0  0  0  0  0  0  0
   -0.6178   -1.7356    0.9787 H   0  0  0  0  0  0  0  0  0  0  0  0
   -3.6021    1.2856    1.4538 H   0  0  0  0  0  0  0  0  0  0  0  0
   -2.5664   -0.8458    2.1663 H   0  0  0  0  0  0  0  0  0  0  0  0
    1.0627    0.9925    1.9379 H   0  0  0  0  0  0  0  0  0  0  0  0
  1  3  1  0
  1 23  1  0
  2  5  1  0
  2 11  1  0
  2 12  1  0
  2 13  1  0
  3 14  1  0
  3 15  1  0
  4  5  1  0
  4  6  2  0
  4  7  1  0
  5 16  1  0
  5 17  1  0
  6  8  1  0
  6 18  1  0
  7 10  2  0
  7 20  1  0
  8  9  2  0
  8 19  1  0
  9 10  1  0
  9 21  1  0
 10 22  1  0
M  RAD  1   3   2
M  END
>  <reaction>  (4) 
rxn_1499

>  <mol_properties>  (4) 
{"0": {"label": "*4", "atom_type": "S2s"}, "2": {"label": "*3", "atom_type": "Cs"}, "3": {"label": "*0", "atom_type": "Cd"}, "4": {"label": "*1", "atom_type": "Cs"}, "15": {"label": "*2", "atom_type": "H0"}}

>  <type>  (4) 
ts

$$$$
