
     RDKit          3D

 12 11  0  0  0  0  0  0  0  0999 V2000
    1.2394   -0.3763   -0.3020 C   0  0  0  0  0  0  0  0  0  0  0  0
    0.1007    0.3023    0.4464 C   0  0  0  0  0  0  0  0  0  0  0  0
   -0.1187    2.0399   -0.0725 S   0  0  0  0  0  0  0  0  0  0  0  0
   -1.1974   -0.4877    0.3552 C   0  0  0  0  0  0  0  0  0  0  0  0
    2.1681    0.1849   -0.2048 H   0  0  0  0  0  0  0  0  0  0  0  0
    1.0031   -0.4606   -1.3656 H   0  0  0  0  0  0  0  0  0  0  0  0
    1.3994   -1.3856    0.0860 H   0  0  0  0  0  0  0  0  0  0  0  0
    0.3796    0.4050    1.4981 H   0  0  0  0  0  0  0  0  0  0  0  0
   -0.4500    1.7779   -1.3452 H   0  0  0  0  0  0  0  0  0  0  0  0
   -1.0545   -1.4978    0.7479 H   0  0  0  0  0  0  0  0  0  0  0  0
   -1.5206   -0.5759   -0.6849 H   0  0  0  0  0  0  0  0  0  0  0  0
   -1.9957   -0.0054    0.9183 H   0  0  0  0  0  0  0  0  0  0  0  0
  1  2  1  0
  1  5  1  0
  1  6  1  0
  1  7  1  0
  2  4  1  0
  2  3  1  0
  2  8  1  0
  3  9  1  0
  4 10  1  0
  4 11  1  0
  4 12  1  0
M  END
>  <reaction>  (1) 
rxn_1935

>  <mol_properties>  (1) 
{"1": {"label": "donator", "atom_type": "Cs"}, "7": {"label": "d_hydrogen", "atom_type": "H0"}}

>  <type>  (1) 
r1h

$$$$

     RDKit          3D

  6  5  0  0  0  0  0  0  0  0999 V2000
    1.7035    0.4954    0.0162 S   0  0  0  0  0  0  0  0  0  0  0  0
    0.1927   -0.1841   -0.3584 C   0  0  0  0  0  3  0  0  0  0  0  0
   -1.0558    0.0577   -0.0460 C   0  0  0  0  0  0  0  0  0  0  0  0
    2.3611   -0.6557    0.2254 H   0  0  0  0  0  0  0  0  0  0  0  0
   -1.8677   -0.4245   -0.5802 H   0  0  0  0  0  0  0  0  0  0  0  0
   -1.3294    0.7333    0.7635 H   0  0  0  0  0  0  0  0  0  0  0  0
  1  2  1  0
  1  4  1  0
  2  3  2  3
  3  5  1  0
  3  6  1  0
M  RAD  1   2   2
M  END
>  <reaction>  (2) 
rxn_1935

>  <mol_properties>  (2) 
{"1": {"label": "acceptor", "atom_type": "Cd"}}

>  <type>  (2) 
r2

$$$$

     RDKit          3D

  7  6  0  0  0  0  0  0  0  0999 V2000
    1.2020   -0.5069    1.0970 S   0  0  0  0  0  0  0  0  0  0  0  0
    0.2449    0.0208   -0.2711 C   0  0  0  0  0  0  0  0  0  0  0  0
    0.6491    0.2538   -1.5108 C   0  0  0  0  0  0  0  0  0  0  0  0
    2.3807   -0.5751    0.4630 H   0  0  0  0  0  0  0  0  0  0  0  0
   -0.7959    0.1526    0.0036 H   0  0  0  0  0  0  0  0  0  0  0  0
    1.6808    0.1320   -1.8181 H   0  0  0  0  0  0  0  0  0  0  0  0
   -0.0586    0.5786   -2.2618 H   0  0  0  0  0  0  0  0  0  0  0  0
  1  2  1  0
  1  4  1  0
  2  3  2  3
  2  5  1  0
  3  6  1  0
  3  7  1  0
M  END
>  <reaction>  (3) 
rxn_1935

>  <mol_properties>  (3) 
{"1": {"label": "acceptor", "atom_type": "Cd"}, "6": {"label": "a_hydrogen", "atom_type": "H0"}}

>  <type>  (3) 
r2h

$$$$

     RDKit          3D

 18 16  0  0  0  0  0  0  0  0999 V2000
   -2.4753   -0.5962   -0.6091 S   0  0  0  0  0  0  0  0  0  0  0  0
   -1.2601   -0.3074    0.5798 C   0  0  0  0  0  3  0  0  0  0  0  0
   -1.1192   -0.5970    1.8551 C   0  0  0  0  0  0  0  0  0  0  0  0
   -3.4657   -1.0148    0.2022 H   0  0  0  0  0  0  0  0  0  0  0  0
   -0.2459   -0.2505    2.3981 H   0  0  0  0  0  0  0  0  0  0  0  0
   -1.8539   -1.1800    2.4061 H   0  0  0  0  0  0  0  0  0  0  0  0
    1.0588    0.7534   -1.7490 C   0  0  0  0  0  0  0  0  0  0  0  0
    0.7385    1.2527   -0.3577 C   0  0  0  0  0  0  0  0  0  0  0  0
    2.0899    1.1200    0.8192 S   0  0  0  0  0  0  0  0  0  0  0  0
    0.1523    2.6477   -0.3163 C   0  0  0  0  0  0  0  0  0  0  0  0
    1.3952   -0.2843   -1.7335 H   0  0  0  0  0  0  0  0  0  0  0  0
    1.8424    1.3608   -2.2092 H   0  0  0  0  0  0  0  0  0  0  0  0
    0.1669    0.8100   -2.3779 H   0  0  0  0  0  0  0  0  0  0  0  0
   -0.1570    0.5087    0.0586 H   0  0  0  0  0  0  0  0  0  0  0  0
    2.4278   -0.1458    0.5385 H   0  0  0  0  0  0  0  0  0  0  0  0
   -0.7549    2.6802   -0.9225 H   0  0  0  0  0  0  0  0  0  0  0  0
    0.8563    3.3821   -0.7173 H   0  0  0  0  0  0  0  0  0  0  0  0
   -0.1100    2.9397    0.7013 H   0  0  0  0  0  0  0  0  0  0  0  0
  1  2  1  0
  1  4  1  0
  2  3  2  3
  3  5  1  0
  3  6  1  0
  7  8  1  0
  7 11  1  0
  7 12  1  0
  7 13  1  0
  8 10  1  0
  8  9  1  0
  8 14  1  0
  9 15  1  0
 10 16  1  0
 10 17  1  0
 10 18  1  0
M  RAD  1   2   2
M  END
>  <reaction>  (4) 
rxn_1935

>  <mol_properties>  (4) 
{"0": {"label": "*4", "atom_type": "S2s"}, "1": {"label": "*3", "atom_type": "Cd"}, "7": {"label": "*1", "atom_type": "Cs"}, "8": {"label": "*0", "atom_type": "S2s"}, "13": {"label": "*2", "atom_type": "H0"}}

>  <type>  (4) 
ts

$$$$
