
     RDKit          3D

 21 21  0  0  0  0  0  0  0  0999 V2000
   -1.3695    1.3367   -1.0719 C   0  0  0  0  0  0  0  0  0  0  0  0
   -1.4091   -0.0981   -0.5428 C   0  0  0  0  0  0  0  0  0  0  0  0
   -0.1819   -0.3999    0.3191 C   0  0  0  0  0  0  0  0  0  0  0  0
   -1.5636   -1.1028   -1.6652 C   0  0  0  0  0  0  0  0  0  0  0  0
   -0.5920   -1.2314   -2.6553 C   0  0  0  0  0  0  0  0  0  0  0  0
   -0.7353   -2.1509   -3.6809 C   0  0  0  0  0  0  0  0  0  0  0  0
   -1.8582   -2.9642   -3.7377 C   0  0  0  0  0  0  0  0  0  0  0  0
   -2.8325   -2.8475   -2.7602 C   0  0  0  0  0  0  0  0  0  0  0  0
   -2.6828   -1.9241   -1.7351 C   0  0  0  0  0  0  0  0  0  0  0  0
   -0.4920    1.4974   -1.7025 H   0  0  0  0  0  0  0  0  0  0  0  0
   -2.2553    1.5607   -1.6679 H   0  0  0  0  0  0  0  0  0  0  0  0
   -1.3211    2.0496   -0.2461 H   0  0  0  0  0  0  0  0  0  0  0  0
   -2.2930   -0.1918    0.0948 H   0  0  0  0  0  0  0  0  0  0  0  0
   -0.1215    0.2955    1.1588 H   0  0  0  0  0  0  0  0  0  0  0  0
   -0.2200   -1.4155    0.7159 H   0  0  0  0  0  0  0  0  0  0  0  0
    0.7383   -0.3016   -0.2615 H   0  0  0  0  0  0  0  0  0  0  0  0
    0.2915   -0.6040   -2.6263 H   0  0  0  0  0  0  0  0  0  0  0  0
    0.0326   -2.2338   -4.4401 H   0  0  0  0  0  0  0  0  0  0  0  0
   -1.9712   -3.6833   -4.5391 H   0  0  0  0  0  0  0  0  0  0  0  0
   -3.7135   -3.4765   -2.7932 H   0  0  0  0  0  0  0  0  0  0  0  0
   -3.4509   -1.8400   -0.9743 H   0  0  0  0  0  0  0  0  0  0  0  0
  1  2  1  0
  1 10  1  0
  1 11  1  0
  1 12  1  0
  2  3  1  0
  2  4  1  0
  2 13  1  0
  3 14  1  0
  3 15  1  0
  3 16  1  0
  4  5  2  0
  4  9  1  0
  5  6  1  0
  5 17  1  0
  6  7  2  0
  6 18  1  0
  7  8  1  0
  7 19  1  0
  8  9  2  0
  8 20  1  0
  9 21  1  0
M  END
>  <reaction>  (1) 
rxn_1529

>  <mol_properties>  (1) 
{"1": {"label": "donator", "atom_type": "Cs"}, "12": {"label": "d_hydrogen", "atom_type": "H0"}}

>  <type>  (1) 
r1h

$$$$

     RDKit          3D

 12 11  0  0  0  0  0  0  0  0999 V2000
   -2.3791    0.4612   -0.5870 C   0  0  0  0  0  0  0  0  0  0  0  0
   -1.3422   -0.3138   -0.1893 C   0  0  0  0  0  0  0  0  0  0  0  0
   -1.4723   -1.6058    0.3589 C   0  0  0  0  0  3  0  0  0  0  0  0
   -0.3798   -2.3973    0.7671 C   0  0  0  0  0  0  0  0  0  0  0  0
   -0.4849   -3.6397    1.2956 C   0  0  0  0  0  0  0  0  0  0  0  0
   -2.2205    1.4472   -1.0017 H   0  0  0  0  0  0  0  0  0  0  0  0
   -3.4026    0.1153   -0.5011 H   0  0  0  0  0  0  0  0  0  0  0  0
   -0.3330    0.0765   -0.2952 H   0  0  0  0  0  0  0  0  0  0  0  0
   -2.4723   -2.0151    0.4735 H   0  0  0  0  0  0  0  0  0  0  0  0
    0.6117   -1.9687    0.6436 H   0  0  0  0  0  0  0  0  0  0  0  0
    0.3893   -4.2030    1.5920 H   0  0  0  0  0  0  0  0  0  0  0  0
   -1.4516   -4.1084    1.4378 H   0  0  0  0  0  0  0  0  0  0  0  0
  1  2  2  3
  1  6  1  0
  1  7  1  0
  2  3  1  0
  2  8  1  0
  3  4  1  0
  3  9  1  0
  4  5  2  3
  4 10  1  0
  5 11  1  0
  5 12  1  0
M  RAD  1   3   2
M  END
>  <reaction>  (2) 
rxn_1529

>  <mol_properties>  (2) 
{"2": {"label": "acceptor", "atom_type": "Cs"}}

>  <type>  (2) 
r2

$$$$

     RDKit          3D

 13 12  0  0  0  0  0  0  0  0999 V2000
    3.0977   -0.3549   -0.5105 C   0  0  0  0  0  0  0  0  0  0  0  0
    2.0556    0.4221   -0.2627 C   0  0  0  0  0  0  0  0  0  0  0  0
    0.6313   -0.0354   -0.2366 C   0  0  0  0  0  0  0  0  0  0  0  0
   -0.2567    0.6038   -1.2694 C   0  0  0  0  0  0  0  0  0  0  0  0
    0.1459    1.3456   -2.2891 C   0  0  0  0  0  0  0  0  0  0  0  0
    4.1081    0.0344   -0.5074 H   0  0  0  0  0  0  0  0  0  0  0  0
    2.9777   -1.4116   -0.7243 H   0  0  0  0  0  0  0  0  0  0  0  0
    2.2171    1.4781   -0.0618 H   0  0  0  0  0  0  0  0  0  0  0  0
    0.5865   -1.1233   -0.3540 H   0  0  0  0  0  0  0  0  0  0  0  0
    0.2065    0.1743    0.7521 H   0  0  0  0  0  0  0  0  0  0  0  0
   -1.3190    0.4126   -1.1445 H   0  0  0  0  0  0  0  0  0  0  0  0
    1.1948    1.5564   -2.4628 H   0  0  0  0  0  0  0  0  0  0  0  0
   -0.5644    1.7621   -2.9918 H   0  0  0  0  0  0  0  0  0  0  0  0
  1  2  2  3
  1  6  1  0
  1  7  1  0
  2  3  1  0
  2  8  1  0
  3  4  1  0
  3  9  1  0
  3 10  1  0
  4  5  2  3
  4 11  1  0
  5 12  1  0
  5 13  1  0
M  END
>  <reaction>  (3) 
rxn_1529

>  <mol_properties>  (3) 
{"2": {"label": "acceptor", "atom_type": "Cs"}, "12": {"label": "a_hydrogen", "atom_type": "H0"}}

>  <type>  (3) 
r2h

$$$$

     RDKit          3D

 33 32  0  0  0  0  0  0  0  0999 V2000
   -2.2031    1.7450    2.1889 C   0  0  0  0  0  0  0  0  0  0  0  0
   -1.9193    0.5715    1.6248 C   0  0  0  0  0  0  0  0  0  0  0  0
   -2.2580    0.2076    0.2445 C   0  0  0  0  0  0  0  0  0  0  0  0
   -2.3364   -1.2121   -0.1348 C   0  0  0  0  0  0  0  0  0  0  0  0
   -1.5365   -2.1823    0.3068 C   0  0  0  0  0  0  0  0  0  0  0  0
   -1.9133    1.9653    3.2080 H   0  0  0  0  0  0  0  0  0  0  0  0
   -2.7443    2.5162    1.6511 H   0  0  0  0  0  0  0  0  0  0  0  0
   -1.3744   -0.1676    2.2033 H   0  0  0  0  0  0  0  0  0  0  0  0
   -3.0600    0.8164   -0.1709 H   0  0  0  0  0  0  0  0  0  0  0  0
   -3.0762   -1.4592   -0.8904 H   0  0  0  0  0  0  0  0  0  0  0  0
   -1.6402   -3.1965   -0.0558 H   0  0  0  0  0  0  0  0  0  0  0  0
   -0.7474   -2.0003    1.0276 H   0  0  0  0  0  0  0  0  0  0  0  0
   -0.5086    0.6926   -2.5712 C   0  0  0  0  0  0  0  0  0  0  0  0
   -0.0998    1.0338   -1.1608 C   0  0  0  0  0  3  0  0  0  0  0  0
   -0.0773    2.5139   -0.8622 C   0  0  0  0  0  0  0  0  0  0  0  0
    0.9250    0.1890   -0.5241 C   0  0  0  0  0  0  0  0  0  0  0  0
    1.3594    0.4466    0.7842 C   0  0  0  0  0  0  0  0  0  0  0  0
    2.2541   -0.3925    1.4237 C   0  0  0  0  0  0  0  0  0  0  0  0
    2.7545   -1.5129    0.7758 C   0  0  0  0  0  0  0  0  0  0  0  0
    2.3479   -1.7790   -0.5228 C   0  0  0  0  0  0  0  0  0  0  0  0
    1.4453   -0.9459   -1.1598 C   0  0  0  0  0  0  0  0  0  0  0  0
    0.3112    0.8546   -3.2798 H   0  0  0  0  0  0  0  0  0  0  0  0
   -0.8258   -0.3482   -2.6589 H   0  0  0  0  0  0  0  0  0  0  0  0
   -1.3429    1.3220   -2.8841 H   0  0  0  0  0  0  0  0  0  0  0  0
   -1.2324    0.6291   -0.4464 H   0  0  0  0  0  0  0  0  0  0  0  0
    0.7917    2.9910   -1.3286 H   0  0  0  0  0  0  0  0  0  0  0  0
   -0.9735    2.9943   -1.2589 H   0  0  0  0  0  0  0  0  0  0  0  0
   -0.0397    2.7251    0.2057 H   0  0  0  0  0  0  0  0  0  0  0  0
    0.9754    1.3043    1.3190 H   0  0  0  0  0  0  0  0  0  0  0  0
    2.5635   -0.1693    2.4374 H   0  0  0  0  0  0  0  0  0  0  0  0
    3.4562   -2.1678    1.2763 H   0  0  0  0  0  0  0  0  0  0  0  0
    2.7337   -2.6460   -1.0447 H   0  0  0  0  0  0  0  0  0  0  0  0
    1.1419   -1.1842   -2.1698 H   0  0  0  0  0  0  0  0  0  0  0  0
  1  2  2  3
  1  6  1  0
  1  7  1  0
  2  3  1  0
  2  8  1  0
  3  4  1  0
  3  9  1  0
  3 25  1  0
  4  5  2  3
  4 10  1  0
  5 11  1  0
  5 12  1  0
 13 14  1  0
 13 22  1  0
 13 23  1  0
 13 24  1  0
 14 15  1  0
 14 16  1  0
 15 26  1  0
 15 27  1  0
 15 28  1  0
 16 17  2  0
 16 21  1  0
 17 18  1  0
 17 29  1  0
 18 19  2  0
 18 30  1  0
 19 20  1  0
 19 31  1  0
 20 21  2  0
 20 32  1  0
 21 33  1  0
M  RAD  1  14   2
M  END
>  <reaction>  (4) 
rxn_1529

>  <mol_properties>  (4) 
{"1": {"label": "*0", "atom_type": "Cd"}, "2": {"label": "*1", "atom_type": "Cs"}, "13": {"label": "*3", "atom_type": "Cs"}, "15": {"label": "*4", "atom_type": "Cd"}, "24": {"label": "*2", "atom_type": "H0"}}

>  <type>  (4) 
ts

$$$$
