
     RDKit          3D

 18 18  0  0  0  0  0  0  0  0999 V2000
   -2.4852    0.3210   -0.3966 C   0  0  0  0  0  0  0  0  0  0  0  0
   -1.5917   -0.2708    0.6941 C   0  0  0  0  0  0  0  0  0  0  0  0
   -0.1292   -0.1692    0.3493 C   0  0  0  0  0  0  0  0  0  0  0  0
    0.6099    0.9558    0.7015 C   0  0  0  0  0  0  0  0  0  0  0  0
    1.9447    1.0728    0.3458 C   0  0  0  0  0  0  0  0  0  0  0  0
    2.5646    0.0613   -0.3720 C   0  0  0  0  0  0  0  0  0  0  0  0
    1.8399   -1.0657   -0.7287 C   0  0  0  0  0  0  0  0  0  0  0  0
    0.5055   -1.1769   -0.3700 C   0  0  0  0  0  0  0  0  0  0  0  0
   -2.3325   -0.1971   -1.3452 H   0  0  0  0  0  0  0  0  0  0  0  0
   -2.2554    1.3763   -0.5546 H   0  0  0  0  0  0  0  0  0  0  0  0
   -3.5397    0.2376   -0.1280 H   0  0  0  0  0  0  0  0  0  0  0  0
   -1.7801    0.2462    1.6380 H   0  0  0  0  0  0  0  0  0  0  0  0
   -1.8568   -1.3190    0.8516 H   0  0  0  0  0  0  0  0  0  0  0  0
    0.1327    1.7497    1.2656 H   0  0  0  0  0  0  0  0  0  0  0  0
    2.5033    1.9550    0.6330 H   0  0  0  0  0  0  0  0  0  0  0  0
    3.6077    0.1491   -0.6484 H   0  0  0  0  0  0  0  0  0  0  0  0
    2.3163   -1.8632   -1.2854 H   0  0  0  0  0  0  0  0  0  0  0  0
   -0.0540   -2.0629   -0.6500 H   0  0  0  0  0  0  0  0  0  0  0  0
  1  2  1  0
  1  9  1  0
  1 10  1  0
  1 11  1  0
  2  3  1  0
  2 12  1  0
  2 13  1  0
  3  4  2  0
  3  8  1  0
  4  5  1  0
  4 14  1  0
  5  6  2  0
  5 15  1  0
  6  7  1  0
  6 16  1  0
  7  8  2  0
  7 17  1  0
  8 18  1  0
M  END
>  <reaction>  (1) 
rxn_1506

>  <mol_properties>  (1) 
{"1": {"label": "donator", "atom_type": "Cs"}, "11": {"label": "d_hydrogen", "atom_type": "H0"}}

>  <type>  (1) 
r1h

$$$$

     RDKit          3D

  7  6  0  0  0  0  0  0  0  0999 V2000
   -1.3496    0.0255    0.0758 C   0  0  0  0  0  0  0  0  0  0  0  0
   -0.0636   -0.0704   -0.0033 C   0  0  0  0  0  0  0  0  0  0  0  0
    1.2597   -0.1602   -0.0839 C   0  0  0  0  0  0  0  0  0  0  0  0
    2.2616    1.2090   -0.0064 S   0  0  0  0  0  1  0  0  0  0  0  0
   -1.8547   -0.0180    1.0345 H   0  0  0  0  0  0  0  0  0  0  0  0
   -1.9552    0.1601   -0.8138 H   0  0  0  0  0  0  0  0  0  0  0  0
    1.7017   -1.1460   -0.2029 H   0  0  0  0  0  0  0  0  0  0  0  0
  1  2  2  0
  1  5  1  0
  1  6  1  0
  2  3  2  0
  3  4  1  0
  3  7  1  0
M  RAD  1   4   2
M  END
>  <reaction>  (2) 
rxn_1506

>  <mol_properties>  (2) 
{"1": {"label": "acceptor", "atom_type": "Cd"}}

>  <type>  (2) 
r2

$$$$

     RDKit          3D

  8  7  0  0  0  0  0  0  0  0999 V2000
   -1.1617    0.0338    0.5053 C   0  0  0  0  0  0  0  0  0  0  0  0
   -0.1023    0.4503   -0.1863 C   0  0  0  0  0  0  0  0  0  0  0  0
    1.0978   -0.3557   -0.3104 C   0  0  0  0  0  0  0  0  0  0  0  0
    2.4251    0.0667   -1.1256 S   0  0  0  0  0  0  0  0  0  0  0  0
   -1.1653   -0.9292    1.0039 H   0  0  0  0  0  0  0  0  0  0  0  0
   -2.0546    0.6389    0.5948 H   0  0  0  0  0  0  0  0  0  0  0  0
   -0.0991    1.4132   -0.6847 H   0  0  0  0  0  0  0  0  0  0  0  0
    1.0601   -1.3180    0.2032 H   0  0  0  0  0  0  0  0  0  0  0  0
  1  2  2  3
  1  5  1  0
  1  6  1  0
  2  3  1  0
  2  7  1  0
  3  4  2  0
  3  8  1  0
M  END
>  <reaction>  (3) 
rxn_1506

>  <mol_properties>  (3) 
{"1": {"label": "acceptor", "atom_type": "Cd"}, "7": {"label": "a_hydrogen", "atom_type": "H0"}}

>  <type>  (3) 
r2h

$$$$

     RDKit          3D

 25 24  0  0  0  0  0  0  0  0999 V2000
   -1.2159   -1.0009    1.7763 C   0  0  0  0  0  0  0  0  0  0  0  0
   -0.7985   -1.6707    0.7254 C   0  0  0  0  0  0  0  0  0  0  0  0
   -0.8107   -2.9848    0.2075 C   0  0  0  0  0  0  0  0  0  0  0  0
    0.5308   -3.8855   -0.0536 S   0  0  0  0  0  1  0  0  0  0  0  0
   -1.6873   -1.4982    2.6180 H   0  0  0  0  0  0  0  0  0  0  0  0
   -1.0697    0.0718    1.8469 H   0  0  0  0  0  0  0  0  0  0  0  0
   -1.7838   -3.3632   -0.1087 H   0  0  0  0  0  0  0  0  0  0  0  0
    0.0502   -0.2351   -2.1671 C   0  0  0  0  0  0  0  0  0  0  0  0
    0.6737   -0.0926   -0.8064 C   0  0  0  0  0  0  0  0  0  0  0  0
    0.6602    1.1926   -0.0985 C   0  0  0  0  0  0  0  0  0  0  0  0
   -0.2081    2.2321   -0.4434 C   0  0  0  0  0  0  0  0  0  0  0  0
   -0.2272    3.4099    0.2846 C   0  0  0  0  0  0  0  0  0  0  0  0
    0.6144    3.5741    1.3751 C   0  0  0  0  0  0  0  0  0  0  0  0
    1.4823    2.5502    1.7311 C   0  0  0  0  0  0  0  0  0  0  0  0
    1.5045    1.3752    1.0031 C   0  0  0  0  0  0  0  0  0  0  0  0
    0.5894    0.3632   -2.9068 H   0  0  0  0  0  0  0  0  0  0  0  0
   -0.9934    0.0829   -2.1738 H   0  0  0  0  0  0  0  0  0  0  0  0
    0.0842   -1.2768   -2.4872 H   0  0  0  0  0  0  0  0  0  0  0  0
   -0.0788   -0.8821   -0.0646 H   0  0  0  0  0  0  0  0  0  0  0  0
    1.6116   -0.6341   -0.6961 H   0  0  0  0  0  0  0  0  0  0  0  0
   -0.8716    2.1229   -1.2914 H   0  0  0  0  0  0  0  0  0  0  0  0
   -0.9033    4.2056   -0.0017 H   0  0  0  0  0  0  0  0  0  0  0  0
    0.5967    4.4955    1.9427 H   0  0  0  0  0  0  0  0  0  0  0  0
    2.1446    2.6703    2.5791 H   0  0  0  0  0  0  0  0  0  0  0  0
    2.1782    0.5752    1.2873 H   0  0  0  0  0  0  0  0  0  0  0  0
  1  2  2  0
  1  5  1  0
  1  6  1  0
  2  3  2  0
  3  4  1  0
  3  7  1  0
  8  9  1  0
  8 16  1  0
  8 17  1  0
  8 18  1  0
  9 10  1  0
  9 19  1  0
  9 20  1  0
 10 11  2  0
 10 15  1  0
 11 12  1  0
 11 21  1  0
 12 13  2  0
 12 22  1  0
 13 14  1  0
 13 23  1  0
 14 15  2  0
 14 24  1  0
 15 25  1  0
M  RAD  1   4   2
M  END
>  <reaction>  (4) 
rxn_1506

>  <mol_properties>  (4) 
{"1": {"label": "*3", "atom_type": "Cdd"}, "2": {"label": "*4", "atom_type": "Cd"}, "8": {"label": "*1", "atom_type": "Cs"}, "9": {"label": "*0", "atom_type": "Cd"}, "18": {"label": "*2", "atom_type": "H0"}}

>  <type>  (4) 
ts

$$$$
