
     RDKit          3D

  3  2  0  0  0  0  0  0  0  0999 V2000
   -0.0007    0.6157    0.0000 S   0  0  0  0  0  0  0  0  0  0  0  0
   -0.9686   -0.3090    0.0000 H   0  0  0  0  0  0  0  0  0  0  0  0
    0.9693   -0.3067    0.0000 H   0  0  0  0  0  0  0  0  0  0  0  0
  1  2  1  0
  1  3  1  0
M  END
>  <reaction>  (1) 
rxn_474

>  <mol_properties>  (1) 
{"0": {"label": "donator", "atom_type": "S2s"}, "1": {"label": "d_hydrogen", "atom_type": "H0"}}

>  <type>  (1) 
r1h

$$$$

     RDKit          3D

  5  4  0  0  0  0  0  0  0  0999 V2000
   -0.0419    0.0056   -0.0340 C   0  0  0  0  0  0  0  0  0  0  0  0
    1.3118    0.0049   -0.1263 O   0  0  0  0  0  1  0  0  0  0  0  0
   -0.2615   -0.1535    1.0387 H   0  0  0  0  0  0  0  0  0  0  0  0
   -0.4946    0.9694   -0.3042 H   0  0  0  0  0  0  0  0  0  0  0  0
   -0.5138   -0.8264   -0.5743 H   0  0  0  0  0  0  0  0  0  0  0  0
  1  2  1  0
  1  3  1  0
  1  4  1  0
  1  5  1  0
M  RAD  1   2   2
M  END
>  <reaction>  (2) 
rxn_474

>  <mol_properties>  (2) 
{"1": {"label": "acceptor", "atom_type": "O2s"}}

>  <type>  (2) 
r2

$$$$

     RDKit          3D

  6  5  0  0  0  0  0  0  0  0999 V2000
   -0.3669    0.0060    0.0609 C   0  0  0  0  0  0  0  0  0  0  0  0
    0.9818   -0.0507    0.4695 O   0  0  0  0  0  0  0  0  0  0  0  0
   -0.6066    0.9462   -0.4488 H   0  0  0  0  0  0  0  0  0  0  0  0
   -0.5221   -0.8115   -0.6420 H   0  0  0  0  0  0  0  0  0  0  0  0
   -1.0602   -0.1268    0.8992 H   0  0  0  0  0  0  0  0  0  0  0  0
    1.1451    0.6595    1.0897 H   0  0  0  0  0  0  0  0  0  0  0  0
  1  2  1  0
  1  3  1  0
  1  4  1  0
  1  5  1  0
  2  6  1  0
M  END
>  <reaction>  (3) 
rxn_474

>  <mol_properties>  (3) 
{"0": {"label": "a_hydrogen", "atom_type": "H0"}, "2": {"label": "acceptor", "atom_type": "O2s"}}

>  <type>  (3) 
r2h

$$$$

     RDKit          3D

  8  6  0  0  0  0  0  0  0  0999 V2000
   -0.3906   -1.3341   -0.4942 S   0  0  0  0  0  1  0  0  0  0  0  0
   -0.5566    0.1146   -0.4836 H   0  0  0  0  0  0  0  0  0  0  0  0
    0.7467   -1.2580   -1.1974 H   0  0  0  0  0  0  0  0  0  0  0  0
    0.0523    1.6413    1.0733 C   0  0  0  0  0  0  0  0  0  0  0  0
   -0.2891    1.3978   -0.2452 O   0  0  0  0  0  0  0  0  0  0  0  0
    0.0559    2.7370    1.1640 H   0  0  0  0  0  0  0  0  0  0  0  0
    1.0598    1.2889    1.3170 H   0  0  0  0  0  0  0  0  0  0  0  0
   -0.6783    1.2440    1.7845 H   0  0  0  0  0  0  0  0  0  0  0  0
  1  3  1  0
  2  5  1  0
  4  5  1  0
  4  6  1  0
  4  7  1  0
  4  8  1  0
M  RAD  1   1   2
M  END
>  <reaction>  (4) 
rxn_474

>  <mol_properties>  (4) 
{"0": {"label": "*3", "atom_type": "S2s"}, "1": {"label": "*2", "atom_type": "H0"}, "2": {"label": "*4", "atom_type": "H0"}, "3": {"label": "*0", "atom_type": "Cs"}, "4": {"label": "*1", "atom_type": "O2s"}}

>  <type>  (4) 
ts

$$$$
