
     RDKit          3D

 15 15  0  0  0  0  0  0  0  0999 V2000
    2.2031   -0.2111   -0.1693 C   0  0  0  0  0  0  0  0  0  0  0  0
    0.7140   -0.0314   -0.0623 C   0  0  0  0  0  0  0  0  0  0  0  0
   -0.0114    0.5491   -1.0982 C   0  0  0  0  0  0  0  0  0  0  0  0
   -1.3882    0.6886   -1.0150 C   0  0  0  0  0  0  0  0  0  0  0  0
   -2.0661    0.2493    0.1118 C   0  0  0  0  0  0  0  0  0  0  0  0
   -1.3551   -0.3278    1.1528 C   0  0  0  0  0  0  0  0  0  0  0  0
    0.0216   -0.4648    1.0642 C   0  0  0  0  0  0  0  0  0  0  0  0
    2.6776   -0.1836    0.8122 H   0  0  0  0  0  0  0  0  0  0  0  0
    2.4446   -1.1749   -0.6249 H   0  0  0  0  0  0  0  0  0  0  0  0
    2.6532    0.5664   -0.7875 H   0  0  0  0  0  0  0  0  0  0  0  0
    0.5104    0.8989   -1.9819 H   0  0  0  0  0  0  0  0  0  0  0  0
   -1.9328    1.1452   -1.8322 H   0  0  0  0  0  0  0  0  0  0  0  0
   -3.1409    0.3597    0.1800 H   0  0  0  0  0  0  0  0  0  0  0  0
   -1.8736   -0.6702    2.0398 H   0  0  0  0  0  0  0  0  0  0  0  0
    0.5695   -0.9141    1.8849 H   0  0  0  0  0  0  0  0  0  0  0  0
  1  2  1  0
  1  8  1  0
  1  9  1  0
  1 10  1  0
  2  3  2  0
  2  7  1  0
  3  4  1  0
  3 11  1  0
  4  5  2  0
  4 12  1  0
  5  6  1  0
  5 13  1  0
  6  7  2  0
  6 14  1  0
  7 15  1  0
M  END
>  <reaction>  (1) 
rxn_1440

>  <mol_properties>  (1) 
{"0": {"label": "donator", "atom_type": "Cs"}, "7": {"label": "d_hydrogen", "atom_type": "H0"}}

>  <type>  (1) 
r1h

$$$$

     RDKit          3D

 14 13  0  0  0  0  0  0  0  0999 V2000
    1.0767   -1.6838    1.2931 C   0  0  0  0  0  0  0  0  0  0  0  0
    1.0020   -0.3665    0.9163 C   0  0  0  0  0  0  0  0  0  0  0  0
    1.3965    0.7260    1.6806 C   0  0  0  0  0  3  0  0  0  0  0  0
    1.2666    2.1197    1.1619 C   0  0  0  0  0  0  0  0  0  0  0  0
    1.9670    0.5479    3.0536 C   0  0  0  0  0  0  0  0  0  0  0  0
    0.7448   -2.4705    0.6300 H   0  0  0  0  0  0  0  0  0  0  0  0
    1.4663   -1.9826    2.2578 H   0  0  0  0  0  0  0  0  0  0  0  0
    0.5980   -0.1511   -0.0695 H   0  0  0  0  0  0  0  0  0  0  0  0
    0.6296    2.7241    1.8172 H   0  0  0  0  0  0  0  0  0  0  0  0
    2.2410    2.6200    1.1341 H   0  0  0  0  0  0  0  0  0  0  0  0
    0.8426    2.1448    0.1579 H   0  0  0  0  0  0  0  0  0  0  0  0
    2.8745   -0.0634    3.0328 H   0  0  0  0  0  0  0  0  0  0  0  0
    1.2599    0.0408    3.7173 H   0  0  0  0  0  0  0  0  0  0  0  0
    2.2205    1.5071    3.5054 H   0  0  0  0  0  0  0  0  0  0  0  0
  1  2  2  3
  1  6  1  0
  1  7  1  0
  2  3  1  0
  2  8  1  0
  3  4  1  0
  3  5  1  0
  4  9  1  0
  4 10  1  0
  4 11  1  0
  5 12  1  0
  5 13  1  0
  5 14  1  0
M  RAD  1   3   2
M  END
>  <reaction>  (2) 
rxn_1440

>  <mol_properties>  (2) 
{"2": {"label": "acceptor", "atom_type": "Cs"}}

>  <type>  (2) 
r2

$$$$

     RDKit          3D

 15 14  0  0  0  0  0  0  0  0999 V2000
    2.1256    0.4849   -0.6284 C   0  0  0  0  0  0  0  0  0  0  0  0
    1.1128    0.2141    0.1794 C   0  0  0  0  0  0  0  0  0  0  0  0
   -0.3017   -0.0425   -0.2513 C   0  0  0  0  0  0  0  0  0  0  0  0
   -1.2427    1.0075    0.3423 C   0  0  0  0  0  0  0  0  0  0  0  0
   -0.7381   -1.4526    0.1504 C   0  0  0  0  0  0  0  0  0  0  0  0
    3.1243    0.6602   -0.2486 H   0  0  0  0  0  0  0  0  0  0  0  0
    1.9908    0.5411   -1.7036 H   0  0  0  0  0  0  0  0  0  0  0  0
    1.2888    0.1665    1.2533 H   0  0  0  0  0  0  0  0  0  0  0  0
   -0.3426    0.0343   -1.3424 H   0  0  0  0  0  0  0  0  0  0  0  0
   -0.9570    2.0133    0.0315 H   0  0  0  0  0  0  0  0  0  0  0  0
   -1.2189    0.9728    1.4350 H   0  0  0  0  0  0  0  0  0  0  0  0
   -2.2723    0.8287    0.0254 H   0  0  0  0  0  0  0  0  0  0  0  0
   -0.6964   -1.5744    1.2363 H   0  0  0  0  0  0  0  0  0  0  0  0
   -0.0911   -2.2079   -0.2978 H   0  0  0  0  0  0  0  0  0  0  0  0
   -1.7646   -1.6461   -0.1677 H   0  0  0  0  0  0  0  0  0  0  0  0
  1  2  2  3
  1  6  1  0
  1  7  1  0
  2  3  1  0
  2  8  1  0
  3  4  1  0
  3  5  1  0
  3  9  1  0
  4 10  1  0
  4 11  1  0
  4 12  1  0
  5 13  1  0
  5 14  1  0
  5 15  1  0
M  END
>  <reaction>  (3) 
rxn_1440

>  <mol_properties>  (3) 
{"2": {"label": "acceptor", "atom_type": "Cs"}, "14": {"label": "a_hydrogen", "atom_type": "H0"}}

>  <type>  (3) 
r2h

$$$$

     RDKit          3D

 29 28  0  0  0  0  0  0  0  0999 V2000
   -2.7253    0.1094    1.2492 C   0  0  0  0  0  0  0  0  0  0  0  0
   -1.7357    0.0146    2.1379 C   0  0  0  0  0  0  0  0  0  0  0  0
   -0.5304   -0.8160    2.0261 C   0  0  0  0  0  0  0  0  0  0  0  0
   -0.5278   -1.8755    0.9502 C   0  0  0  0  0  0  0  0  0  0  0  0
    0.0507   -1.2687    3.3486 C   0  0  0  0  0  0  0  0  0  0  0  0
   -3.5562    0.7835    1.4125 H   0  0  0  0  0  0  0  0  0  0  0  0
   -2.7436   -0.4788    0.3401 H   0  0  0  0  0  0  0  0  0  0  0  0
   -1.7860    0.6387    3.0276 H   0  0  0  0  0  0  0  0  0  0  0  0
    0.4470   -2.3635    0.8971 H   0  0  0  0  0  0  0  0  0  0  0  0
   -1.2802   -2.6431    1.1581 H   0  0  0  0  0  0  0  0  0  0  0  0
   -0.7366   -1.4542   -0.0343 H   0  0  0  0  0  0  0  0  0  0  0  0
   -0.5610   -2.0598    3.7944 H   0  0  0  0  0  0  0  0  0  0  0  0
    0.1019   -0.4452    4.0638 H   0  0  0  0  0  0  0  0  0  0  0  0
    1.0591   -1.6661    3.2155 H   0  0  0  0  0  0  0  0  0  0  0  0
    1.2838    0.8931    0.9856 C   0  0  0  0  0  0  0  0  0  0  0  0
    1.0655    0.7423   -0.4438 C   0  0  0  0  0  0  0  0  0  0  0  0
    0.0131    1.4114   -1.0820 C   0  0  0  0  0  3  0  0  0  0  0  0
   -0.2530    1.2038   -2.4232 C   0  0  0  0  0  0  0  0  0  0  0  0
    0.5240    0.3232   -3.1643 C   0  0  0  0  0  0  0  0  0  0  0  0
    1.5737   -0.3454   -2.5482 C   0  0  0  0  0  0  0  0  0  0  0  0
    1.8397   -0.1406   -1.2067 C   0  0  0  0  0  0  0  0  0  0  0  0
    0.3624    0.0317    1.5796 H   0  0  0  0  0  0  0  0  0  0  0  0
    2.2350    0.5387    1.3727 H   0  0  0  0  0  0  0  0  0  0  0  0
    0.9508    1.8268    1.4304 H   0  0  0  0  0  0  0  0  0  0  0  0
   -0.6050    2.0901   -0.5062 H   0  0  0  0  0  0  0  0  0  0  0  0
   -1.0724    1.7314   -2.8956 H   0  0  0  0  0  0  0  0  0  0  0  0
    0.3155    0.1618   -4.2142 H   0  0  0  0  0  0  0  0  0  0  0  0
    2.1879   -1.0309   -3.1191 H   0  0  0  0  0  0  0  0  0  0  0  0
    2.6574   -0.6709   -0.7320 H   0  0  0  0  0  0  0  0  0  0  0  0
  1  2  2  3
  1  6  1  0
  1  7  1  0
  2  3  1  0
  2  8  1  0
  3  4  1  0
  3  5  1  0
  3 22  1  0
  4  9  1  0
  4 10  1  0
  4 11  1  0
  5 12  1  0
  5 13  1  0
  5 14  1  0
 15 16  2  3
 15 23  1  0
 15 24  1  0
 16 17  1  0
 16 21  1  0
 17 18  1  0
 17 25  1  0
 18 19  2  0
 18 26  1  0
 19 20  1  0
 19 27  1  0
 20 21  2  0
 20 28  1  0
 21 29  1  0
M  RAD  1  17   2
M  END
>  <reaction>  (4) 
rxn_1440

>  <mol_properties>  (4) 
{"1": {"label": "*0", "atom_type": "Cd"}, "2": {"label": "*1", "atom_type": "Cs"}, "14": {"label": "*3", "atom_type": "Cd"}, "15": {"label": "*4", "atom_type": "Cd"}, "21": {"label": "*2", "atom_type": "H0"}}

>  <type>  (4) 
ts

$$$$
