
     RDKit          3D

 15 15  0  0  0  0  0  0  0  0999 V2000
    2.2031   -0.2111   -0.1693 C   0  0  0  0  0  0  0  0  0  0  0  0
    0.7140   -0.0314   -0.0623 C   0  0  0  0  0  0  0  0  0  0  0  0
   -0.0114    0.5491   -1.0982 C   0  0  0  0  0  0  0  0  0  0  0  0
   -1.3882    0.6886   -1.0150 C   0  0  0  0  0  0  0  0  0  0  0  0
   -2.0661    0.2493    0.1118 C   0  0  0  0  0  0  0  0  0  0  0  0
   -1.3551   -0.3278    1.1528 C   0  0  0  0  0  0  0  0  0  0  0  0
    0.0216   -0.4648    1.0642 C   0  0  0  0  0  0  0  0  0  0  0  0
    2.6776   -0.1836    0.8122 H   0  0  0  0  0  0  0  0  0  0  0  0
    2.4446   -1.1749   -0.6249 H   0  0  0  0  0  0  0  0  0  0  0  0
    2.6532    0.5664   -0.7875 H   0  0  0  0  0  0  0  0  0  0  0  0
    0.5104    0.8989   -1.9819 H   0  0  0  0  0  0  0  0  0  0  0  0
   -1.9328    1.1452   -1.8322 H   0  0  0  0  0  0  0  0  0  0  0  0
   -3.1409    0.3597    0.1800 H   0  0  0  0  0  0  0  0  0  0  0  0
   -1.8736   -0.6702    2.0398 H   0  0  0  0  0  0  0  0  0  0  0  0
    0.5695   -0.9141    1.8849 H   0  0  0  0  0  0  0  0  0  0  0  0
  1  2  1  0
  1  8  1  0
  1  9  1  0
  1 10  1  0
  2  3  2  0
  2  7  1  0
  3  4  1  0
  3 11  1  0
  4  5  2  0
  4 12  1  0
  5  6  1  0
  5 13  1  0
  6  7  2  0
  6 14  1  0
  7 15  1  0
M  END
>  <reaction>  (1) 
rxn_1439

>  <mol_properties>  (1) 
{"0": {"label": "donator", "atom_type": "Cs"}, "7": {"label": "d_hydrogen", "atom_type": "H0"}}

>  <type>  (1) 
r1h

$$$$

     RDKit          3D

 11 10  0  0  0  0  0  0  0  0999 V2000
    2.0591    0.2533   -0.1061 C   0  0  0  0  0  0  0  0  0  0  0  0
    0.8045   -0.3111   -0.1535 C   0  0  0  0  0  0  0  0  0  0  0  0
   -0.3816    0.3942   -0.1885 C   0  0  0  0  0  3  0  0  0  0  0  0
   -1.7316   -0.2294   -0.2396 C   0  0  0  0  0  0  0  0  0  0  0  0
    2.9505   -0.3576   -0.0805 H   0  0  0  0  0  0  0  0  0  0  0  0
    2.1872    1.3290   -0.0933 H   0  0  0  0  0  0  0  0  0  0  0  0
    0.7385   -1.3970   -0.1643 H   0  0  0  0  0  0  0  0  0  0  0  0
   -0.3340    1.4795   -0.1783 H   0  0  0  0  0  0  0  0  0  0  0  0
   -1.6704   -1.3186   -0.2461 H   0  0  0  0  0  0  0  0  0  0  0  0
   -2.3404    0.0713    0.6191 H   0  0  0  0  0  0  0  0  0  0  0  0
   -2.2805    0.0851   -1.1331 H   0  0  0  0  0  0  0  0  0  0  0  0
  1  2  2  3
  1  5  1  0
  1  6  1  0
  2  3  1  0
  2  7  1  0
  3  4  1  0
  3  8  1  0
  4  9  1  0
  4 10  1  0
  4 11  1  0
M  RAD  1   3   2
M  END
>  <reaction>  (2) 
rxn_1439

>  <mol_properties>  (2) 
{"2": {"label": "acceptor", "atom_type": "Cs"}}

>  <type>  (2) 
r2

$$$$

     RDKit          3D

 12 11  0  0  0  0  0  0  0  0999 V2000
    1.9877    0.1011    0.4814 C   0  0  0  0  0  0  0  0  0  0  0  0
    0.8179    0.5502    0.0525 C   0  0  0  0  0  0  0  0  0  0  0  0
   -0.2939   -0.2692   -0.5320 C   0  0  0  0  0  0  0  0  0  0  0  0
   -0.0292   -1.7631   -0.6328 C   0  0  0  0  0  0  0  0  0  0  0  0
    2.2522   -0.9490    0.4436 H   0  0  0  0  0  0  0  0  0  0  0  0
    2.7295    0.7757    0.8896 H   0  0  0  0  0  0  0  0  0  0  0  0
    0.6162    1.6164    0.1190 H   0  0  0  0  0  0  0  0  0  0  0  0
   -0.5268    0.1319   -1.5245 H   0  0  0  0  0  0  0  0  0  0  0  0
   -1.1959   -0.0938    0.0644 H   0  0  0  0  0  0  0  0  0  0  0  0
    0.1590   -2.1992    0.3502 H   0  0  0  0  0  0  0  0  0  0  0  0
    0.8382   -1.9701   -1.2626 H   0  0  0  0  0  0  0  0  0  0  0  0
   -0.8879   -2.2759   -1.0672 H   0  0  0  0  0  0  0  0  0  0  0  0
  1  2  2  3
  1  5  1  0
  1  6  1  0
  2  3  1  0
  2  7  1  0
  3  4  1  0
  3  8  1  0
  3  9  1  0
  4 10  1  0
  4 11  1  0
  4 12  1  0
M  END
>  <reaction>  (3) 
rxn_1439

>  <mol_properties>  (3) 
{"2": {"label": "acceptor", "atom_type": "Cs"}, "11": {"label": "a_hydrogen", "atom_type": "H0"}}

>  <type>  (3) 
r2h

$$$$

     RDKit          3D

 26 25  0  0  0  0  0  0  0  0999 V2000
   -0.4442   -3.0329    0.7996 C   0  0  0  0  0  0  0  0  0  0  0  0
   -0.1307   -2.3782    1.9202 C   0  0  0  0  0  0  0  0  0  0  0  0
   -0.6320   -1.0652    2.3184 C   0  0  0  0  0  0  0  0  0  0  0  0
   -1.8456   -0.5057    1.6219 C   0  0  0  0  0  0  0  0  0  0  0  0
    0.0048   -3.9901    0.5687 H   0  0  0  0  0  0  0  0  0  0  0  0
   -1.1588   -2.6412    0.0859 H   0  0  0  0  0  0  0  0  0  0  0  0
    0.5975   -2.8273    2.5904 H   0  0  0  0  0  0  0  0  0  0  0  0
   -0.6362   -0.9193    3.3982 H   0  0  0  0  0  0  0  0  0  0  0  0
   -2.7221   -1.1387    1.7881 H   0  0  0  0  0  0  0  0  0  0  0  0
   -2.0748    0.4953    1.9889 H   0  0  0  0  0  0  0  0  0  0  0  0
   -1.6874   -0.4301    0.5442 H   0  0  0  0  0  0  0  0  0  0  0  0
    1.2627    0.6277    1.4080 C   0  0  0  0  0  0  0  0  0  0  0  0
    0.7864    0.8867    0.0572 C   0  0  0  0  0  0  0  0  0  0  0  0
    0.0166    2.0189   -0.2354 C   0  0  0  0  0  3  0  0  0  0  0  0
   -0.5058    2.2182   -1.5003 C   0  0  0  0  0  0  0  0  0  0  0  0
   -0.2770    1.2891   -2.5067 C   0  0  0  0  0  0  0  0  0  0  0  0
    0.4859    0.1614   -2.2344 C   0  0  0  0  0  0  0  0  0  0  0  0
    1.0112   -0.0380   -0.9703 C   0  0  0  0  0  0  0  0  0  0  0  0
    0.3308   -0.2287    1.9623 H   0  0  0  0  0  0  0  0  0  0  0  0
    2.1446   -0.0014    1.4946 H   0  0  0  0  0  0  0  0  0  0  0  0
    1.2627    1.4729    2.0907 H   0  0  0  0  0  0  0  0  0  0  0  0
   -0.1718    2.7458    0.5465 H   0  0  0  0  0  0  0  0  0  0  0  0
   -1.0960    3.1030   -1.7046 H   0  0  0  0  0  0  0  0  0  0  0  0
   -0.6869    1.4448   -3.4963 H   0  0  0  0  0  0  0  0  0  0  0  0
    0.6718   -0.5673   -3.0137 H   0  0  0  0  0  0  0  0  0  0  0  0
    1.5955   -0.9261   -0.7609 H   0  0  0  0  0  0  0  0  0  0  0  0
  1  2  2  3
  1  5  1  0
  1  6  1  0
  2  3  1  0
  2  7  1  0
  3  4  1  0
  3  8  1  0
  3 19  1  0
  4  9  1  0
  4 10  1  0
  4 11  1  0
 12 13  2  3
 12 20  1  0
 12 21  1  0
 13 14  1  0
 13 18  1  0
 14 15  1  0
 14 22  1  0
 15 16  2  0
 15 23  1  0
 16 17  1  0
 16 24  1  0
 17 18  2  0
 17 25  1  0
 18 26  1  0
M  RAD  1  14   2
M  END
>  <reaction>  (4) 
rxn_1439

>  <mol_properties>  (4) 
{"1": {"label": "*0", "atom_type": "Cd"}, "2": {"label": "*1", "atom_type": "Cs"}, "11": {"label": "*3", "atom_type": "Cd"}, "12": {"label": "*4", "atom_type": "Cd"}, "18": {"label": "*2", "atom_type": "H0"}}

>  <type>  (4) 
ts

$$$$
