
     RDKit          3D

  4  3  0  0  0  0  0  0  0  0999 V2000
    0.5949   -0.3853    0.2659 O   0  0  0  0  0  0  0  0  0  0  0  0
   -0.5918    0.4028    0.2462 O   0  0  0  0  0  0  0  0  0  0  0  0
    1.1865    0.1539   -0.2689 H   0  0  0  0  0  0  0  0  0  0  0  0
   -1.1896   -0.1714   -0.2432 H   0  0  0  0  0  0  0  0  0  0  0  0
  1  2  1  0
  1  3  1  0
  2  4  1  0
M  END
>  <reaction>  (1) 
rxn_36

>  <mol_properties>  (1) 
{"1": {"label": "donator", "atom_type": "O2s"}, "3": {"label": "d_hydrogen", "atom_type": "H0"}}

>  <type>  (1) 
r1h

$$$$

     RDKit          3D

 12 11  0  0  0  0  0  0  0  0999 V2000
    1.6532    0.0103    0.1268 C   0  0  0  0  0  0  0  0  0  0  0  0
    0.2727   -0.6269    0.3163 C   0  0  0  0  0  0  0  0  0  0  0  0
   -0.8222    0.3685    0.2672 C   0  0  0  0  0  0  0  0  0  0  0  0
   -1.7756    0.5408    1.3134 C   0  0  0  0  0  0  0  0  0  0  0  0
   -1.7776   -0.1152    2.3492 O   0  0  0  0  0  1  0  0  0  0  0  0
    1.8682    0.7166    0.9296 H   0  0  0  0  0  0  0  0  0  0  0  0
    2.4288   -0.7560    0.1330 H   0  0  0  0  0  0  0  0  0  0  0  0
    1.7158    0.5466   -0.8222 H   0  0  0  0  0  0  0  0  0  0  0  0
    0.2225   -1.1675    1.2616 H   0  0  0  0  0  0  0  0  0  0  0  0
    0.1115   -1.3589   -0.4847 H   0  0  0  0  0  0  0  0  0  0  0  0
   -0.9051    1.0131   -0.6029 H   0  0  0  0  0  0  0  0  0  0  0  0
   -2.5429    1.3183    1.1504 H   0  0  0  0  0  0  0  0  0  0  0  0
  1  2  1  0
  1  6  1  0
  1  7  1  0
  1  8  1  0
  2  3  1  0
  2  9  1  0
  2 10  1  0
  3  4  2  3
  3 11  1  0
  4  5  1  0
  4 12  1  0
M  RAD  1   5   2
M  END
>  <reaction>  (2) 
rxn_36

>  <mol_properties>  (2) 
{"4": {"label": "acceptor", "atom_type": "O2s"}}

>  <type>  (2) 
r2

$$$$

     RDKit          3D

 13 12  0  0  0  0  0  0  0  0999 V2000
   -1.6990    0.2388    0.2764 C   0  0  0  0  0  0  0  0  0  0  0  0
   -0.4332    0.4666   -0.5501 C   0  0  0  0  0  0  0  0  0  0  0  0
   -0.7217    0.6370   -2.0116 C   0  0  0  0  0  0  0  0  0  0  0  0
   -0.3468   -0.1693   -2.9981 C   0  0  0  0  0  0  0  0  0  0  0  0
    0.3888   -1.3044   -2.9055 O   0  0  0  0  0  0  0  0  0  0  0  0
   -2.2093   -0.6727   -0.0390 H   0  0  0  0  0  0  0  0  0  0  0  0
   -1.4670    0.1536    1.3394 H   0  0  0  0  0  0  0  0  0  0  0  0
   -2.3963    1.0693    0.1495 H   0  0  0  0  0  0  0  0  0  0  0  0
    0.0814    1.3581   -0.1792 H   0  0  0  0  0  0  0  0  0  0  0  0
    0.2612   -0.3616   -0.3726 H   0  0  0  0  0  0  0  0  0  0  0  0
   -1.3166    1.4973   -2.2952 H   0  0  0  0  0  0  0  0  0  0  0  0
   -0.6155    0.0294   -4.0276 H   0  0  0  0  0  0  0  0  0  0  0  0
    0.6222   -1.4647   -1.9880 H   0  0  0  0  0  0  0  0  0  0  0  0
  1  2  1  0
  1  6  1  0
  1  7  1  0
  1  8  1  0
  2  3  1  0
  2  9  1  0
  2 10  1  0
  3  4  2  3
  3 11  1  0
  4  5  1  0
  4 12  1  0
  5 13  1  0
M  END
>  <reaction>  (3) 
rxn_36

>  <mol_properties>  (3) 
{"0": {"label": "a_hydrogen", "atom_type": "H0"}, "5": {"label": "acceptor", "atom_type": "O2s"}}

>  <type>  (3) 
r2h

$$$$

     RDKit          3D

 16 14  0  0  0  0  0  0  0  0999 V2000
   -0.6913   -1.5312    0.4473 O   0  0  0  0  0  0  0  0  0  0  0  0
   -1.7866   -0.9527   -0.1134 O   0  0  0  0  0  1  0  0  0  0  0  0
   -0.9892   -1.7980    1.3283 H   0  0  0  0  0  0  0  0  0  0  0  0
   -1.5326    0.3179   -0.0191 H   0  0  0  0  0  0  0  0  0  0  0  0
    2.1478   -0.8193   -1.2143 C   0  0  0  0  0  0  0  0  0  0  0  0
    1.2288    0.3902   -1.0610 C   0  0  0  0  0  0  0  0  0  0  0  0
    1.0762    0.8294    0.3530 C   0  0  0  0  0  0  0  0  0  0  0  0
   -0.0729    1.2565    0.9433 C   0  0  0  0  0  0  0  0  0  0  0  0
   -1.2431    1.2990    0.3661 O   0  0  0  0  0  0  0  0  0  0  0  0
    1.7307   -1.6851   -0.7005 H   0  0  0  0  0  0  0  0  0  0  0  0
    2.2723   -1.0756   -2.2668 H   0  0  0  0  0  0  0  0  0  0  0  0
    3.1377   -0.6169   -0.7991 H   0  0  0  0  0  0  0  0  0  0  0  0
    0.2534    0.1860   -1.5025 H   0  0  0  0  0  0  0  0  0  0  0  0
    1.6513    1.2324   -1.6238 H   0  0  0  0  0  0  0  0  0  0  0  0
    1.9712    0.8528    0.9673 H   0  0  0  0  0  0  0  0  0  0  0  0
   -0.0428    1.6060    1.9759 H   0  0  0  0  0  0  0  0  0  0  0  0
  1  2  1  0
  1  3  1  0
  4  9  1  0
  5  6  1  0
  5 10  1  0
  5 11  1  0
  5 12  1  0
  6  7  1  0
  6 13  1  0
  6 14  1  0
  7  8  2  3
  7 15  1  0
  8  9  1  0
  8 16  1  0
M  RAD  1   2   2
M  END
>  <reaction>  (4) 
rxn_36

>  <mol_properties>  (4) 
{"0": {"label": "*4", "atom_type": "O2s"}, "1": {"label": "*3", "atom_type": "O2s"}, "3": {"label": "*2", "atom_type": "H0"}, "7": {"label": "*0", "atom_type": "Cd"}, "8": {"label": "*1", "atom_type": "O2s"}}

>  <type>  (4) 
ts

$$$$
