
     RDKit          3D

 15 15  0  0  0  0  0  0  0  0999 V2000
    2.2031   -0.2111   -0.1693 C   0  0  0  0  0  0  0  0  0  0  0  0
    0.7140   -0.0314   -0.0623 C   0  0  0  0  0  0  0  0  0  0  0  0
   -0.0114    0.5491   -1.0982 C   0  0  0  0  0  0  0  0  0  0  0  0
   -1.3882    0.6886   -1.0150 C   0  0  0  0  0  0  0  0  0  0  0  0
   -2.0661    0.2493    0.1118 C   0  0  0  0  0  0  0  0  0  0  0  0
   -1.3551   -0.3278    1.1528 C   0  0  0  0  0  0  0  0  0  0  0  0
    0.0216   -0.4648    1.0642 C   0  0  0  0  0  0  0  0  0  0  0  0
    2.6776   -0.1836    0.8122 H   0  0  0  0  0  0  0  0  0  0  0  0
    2.4446   -1.1749   -0.6249 H   0  0  0  0  0  0  0  0  0  0  0  0
    2.6532    0.5664   -0.7875 H   0  0  0  0  0  0  0  0  0  0  0  0
    0.5104    0.8989   -1.9819 H   0  0  0  0  0  0  0  0  0  0  0  0
   -1.9328    1.1452   -1.8322 H   0  0  0  0  0  0  0  0  0  0  0  0
   -3.1409    0.3597    0.1800 H   0  0  0  0  0  0  0  0  0  0  0  0
   -1.8736   -0.6702    2.0398 H   0  0  0  0  0  0  0  0  0  0  0  0
    0.5695   -0.9141    1.8849 H   0  0  0  0  0  0  0  0  0  0  0  0
  1  2  1  0
  1  8  1  0
  1  9  1  0
  1 10  1  0
  2  3  2  0
  2  7  1  0
  3  4  1  0
  3 11  1  0
  4  5  2  0
  4 12  1  0
  5  6  1  0
  5 13  1  0
  6  7  2  0
  6 14  1  0
  7 15  1  0
M  END
>  <reaction>  (1) 
rxn_1433

>  <mol_properties>  (1) 
{"6": {"label": "donator", "atom_type": "Cs"}, "14": {"label": "d_hydrogen", "atom_type": "H0"}}

>  <type>  (1) 
r1h

$$$$

     RDKit          3D

  1  0  0  0  0  0  0  0  0  0999 V2000
    0.0000    0.0000    0.0000 H   0  0  0  0  0 15  0  0  0  0  0  0
M  END
>  <reaction>  (2) 
rxn_1433

>  <mol_properties>  (2) 
{"0": {"label": "acceptor", "atom_type": "H0"}}

>  <type>  (2) 
r2

$$$$

     RDKit          3D

  2  1  0  0  0  0  0  0  0  0999 V2000
    0.0000    0.0000    0.3721 H   0  0  0  0  0  0  0  0  0  0  0  0
    0.0000    0.0000   -0.3721 H   0  0  0  0  0  0  0  0  0  0  0  0
  1  2  1  0
M  END
>  <reaction>  (3) 
rxn_1433

>  <mol_properties>  (3) 
{"0": {"label": "acceptor", "atom_type": "H0"}, "1": {"label": "a_hydrogen", "atom_type": "H0"}}

>  <type>  (3) 
r2h

$$$$

     RDKit          3D

 16 15  0  0  0  0  0  0  0  0999 V2000
    0.4806   -0.1148   -0.2683 C   0  0  0  0  0  0  0  0  0  0  0  0
   -0.3143   -1.1679    0.1853 C   0  0  0  0  0  0  0  0  0  0  0  0
   -0.1127    1.1363   -0.4396 C   0  0  0  0  0  0  0  0  0  0  0  0
   -1.6596   -0.9788    0.4524 C   0  0  0  0  0  0  0  0  0  0  0  0
   -2.2370    0.2701    0.2745 C   0  0  0  0  0  0  0  0  0  0  0  0
   -1.4579    1.3273   -0.1730 C   0  0  0  0  0  0  0  0  0  0  0  0
    1.9224   -0.3080   -0.5157 C   0  0  0  0  0  0  0  0  0  0  0  0
    0.1305   -2.1463    0.3261 H   0  0  0  0  0  0  0  0  0  0  0  0
   -2.2611   -1.8096    0.7997 H   0  0  0  0  0  0  0  0  0  0  0  0
   -3.2890    0.4184    0.4819 H   0  0  0  0  0  0  0  0  0  0  0  0
   -1.9012    2.3048   -0.3161 H   0  0  0  0  0  0  0  0  0  0  0  0
    0.4902    1.9664   -0.7893 H   0  0  0  0  0  0  0  0  0  0  0  0
    2.2106   -1.3315   -0.7462 H   0  0  0  0  0  0  0  0  0  0  0  0
    2.3620    0.3995   -1.2156 H   0  0  0  0  0  0  0  0  0  0  0  0
    3.0943    0.1104    1.4050 H   0  0  0  0  0 15  0  0  0  0  0  0
    2.5423   -0.0762    0.5388 H   0  0  0  0  0  0  0  0  0  0  0  0
  1  7  1  0
  1  2  2  0
  1  3  1  0
  2  4  1  0
  2  8  1  0
  3  6  2  0
  3 12  1  0
  4  5  2  0
  4  9  1  0
  5  6  1  0
  5 10  1  0
  6 11  1  0
  7 13  1  0
  7 14  1  0
  7 16  1  0
M  END
>  <reaction>  (4) 
rxn_1433

>  <mol_properties>  (4) 
{"0": {"label": "*4", "atom_type": "Cd"}, "6": {"label": "*3", "atom_type": "Cs"}, "14": {"label": "*1", "atom_type": "H0"}, "15": {"label": "*2", "atom_type": "H0"}}

>  <type>  (4) 
ts

$$$$
