
     RDKit          3D

  2  1  0  0  0  0  0  0  0  0999 V2000
    0.0000    0.0000    0.3721 H   0  0  0  0  0  0  0  0  0  0  0  0
    0.0000    0.0000   -0.3721 H   0  0  0  0  0  0  0  0  0  0  0  0
  1  2  1  0
M  END
>  <reaction>  (1) 
rxn_791

>  <mol_properties>  (1) 
{"0": {"label": "donator", "atom_type": "H0"}, "1": {"label": "d_hydrogen", "atom_type": "H0"}}

>  <type>  (1) 
r1h

$$$$

     RDKit          3D

 14 13  0  0  0  0  0  0  0  0999 V2000
    1.0767   -1.6838    1.2931 C   0  0  0  0  0  0  0  0  0  0  0  0
    1.0020   -0.3665    0.9163 C   0  0  0  0  0  0  0  0  0  0  0  0
    1.3965    0.7260    1.6806 C   0  0  0  0  0  3  0  0  0  0  0  0
    1.2666    2.1197    1.1619 C   0  0  0  0  0  0  0  0  0  0  0  0
    1.9670    0.5479    3.0536 C   0  0  0  0  0  0  0  0  0  0  0  0
    0.7448   -2.4705    0.6300 H   0  0  0  0  0  0  0  0  0  0  0  0
    1.4663   -1.9826    2.2578 H   0  0  0  0  0  0  0  0  0  0  0  0
    0.5980   -0.1511   -0.0695 H   0  0  0  0  0  0  0  0  0  0  0  0
    0.6296    2.7241    1.8172 H   0  0  0  0  0  0  0  0  0  0  0  0
    2.2410    2.6200    1.1341 H   0  0  0  0  0  0  0  0  0  0  0  0
    0.8426    2.1448    0.1579 H   0  0  0  0  0  0  0  0  0  0  0  0
    2.8745   -0.0634    3.0328 H   0  0  0  0  0  0  0  0  0  0  0  0
    1.2599    0.0408    3.7173 H   0  0  0  0  0  0  0  0  0  0  0  0
    2.2205    1.5071    3.5054 H   0  0  0  0  0  0  0  0  0  0  0  0
  1  2  2  3
  1  6  1  0
  1  7  1  0
  2  3  1  0
  2  8  1  0
  3  4  1  0
  3  5  1  0
  4  9  1  0
  4 10  1  0
  4 11  1  0
  5 12  1  0
  5 13  1  0
  5 14  1  0
M  RAD  1   3   2
M  END
>  <reaction>  (2) 
rxn_791

>  <mol_properties>  (2) 
{"2": {"label": "acceptor", "atom_type": "Cs"}}

>  <type>  (2) 
r2

$$$$

     RDKit          3D

 15 14  0  0  0  0  0  0  0  0999 V2000
    2.1256    0.4849   -0.6284 C   0  0  0  0  0  0  0  0  0  0  0  0
    1.1128    0.2141    0.1794 C   0  0  0  0  0  0  0  0  0  0  0  0
   -0.3017   -0.0425   -0.2513 C   0  0  0  0  0  0  0  0  0  0  0  0
   -1.2427    1.0075    0.3423 C   0  0  0  0  0  0  0  0  0  0  0  0
   -0.7381   -1.4526    0.1504 C   0  0  0  0  0  0  0  0  0  0  0  0
    3.1243    0.6602   -0.2486 H   0  0  0  0  0  0  0  0  0  0  0  0
    1.9908    0.5411   -1.7036 H   0  0  0  0  0  0  0  0  0  0  0  0
    1.2888    0.1665    1.2533 H   0  0  0  0  0  0  0  0  0  0  0  0
   -0.3426    0.0343   -1.3424 H   0  0  0  0  0  0  0  0  0  0  0  0
   -0.9570    2.0133    0.0315 H   0  0  0  0  0  0  0  0  0  0  0  0
   -1.2189    0.9728    1.4350 H   0  0  0  0  0  0  0  0  0  0  0  0
   -2.2723    0.8287    0.0254 H   0  0  0  0  0  0  0  0  0  0  0  0
   -0.6964   -1.5744    1.2363 H   0  0  0  0  0  0  0  0  0  0  0  0
   -0.0911   -2.2079   -0.2978 H   0  0  0  0  0  0  0  0  0  0  0  0
   -1.7646   -1.6461   -0.1677 H   0  0  0  0  0  0  0  0  0  0  0  0
  1  2  2  3
  1  6  1  0
  1  7  1  0
  2  3  1  0
  2  8  1  0
  3  4  1  0
  3  5  1  0
  3  9  1  0
  4 10  1  0
  4 11  1  0
  4 12  1  0
  5 13  1  0
  5 14  1  0
  5 15  1  0
M  END
>  <reaction>  (3) 
rxn_791

>  <mol_properties>  (3) 
{"0": {"label": "a_hydrogen", "atom_type": "H0"}, "3": {"label": "acceptor", "atom_type": "Cs"}}

>  <type>  (3) 
r2h

$$$$

     RDKit          3D

 16 14  0  0  0  0  0  0  0  0999 V2000
   -0.7153   -1.0273   -2.4775 H   0  0  0  0  0 15  0  0  0  0  0  0
   -0.4648   -0.6690   -1.4051 H   0  0  0  0  0  0  0  0  0  0  0  0
    0.5572    1.9543    0.0743 C   0  0  0  0  0  0  0  0  0  0  0  0
   -0.3807    1.0391   -0.1324 C   0  0  0  0  0  0  0  0  0  0  0  0
   -0.1743   -0.4280   -0.2739 C   0  0  0  0  0  0  0  0  0  0  0  0
   -1.1674   -1.2341    0.5498 C   0  0  0  0  0  0  0  0  0  0  0  0
    1.2531   -0.9114   -0.1193 C   0  0  0  0  0  0  0  0  0  0  0  0
    0.3024    3.0028    0.1609 H   0  0  0  0  0  0  0  0  0  0  0  0
    1.6052    1.6974    0.1698 H   0  0  0  0  0  0  0  0  0  0  0  0
   -1.4151    1.3643   -0.2141 H   0  0  0  0  0  0  0  0  0  0  0  0
   -1.1029   -2.2956    0.3050 H   0  0  0  0  0  0  0  0  0  0  0  0
   -0.9584   -1.1176    1.6168 H   0  0  0  0  0  0  0  0  0  0  0  0
   -2.1921   -0.9047    0.3698 H   0  0  0  0  0  0  0  0  0  0  0  0
    1.6131   -0.7333    0.8978 H   0  0  0  0  0  0  0  0  0  0  0  0
    1.9266   -0.4048   -0.8118 H   0  0  0  0  0  0  0  0  0  0  0  0
    1.3133   -1.9830   -0.3141 H   0  0  0  0  0  0  0  0  0  0  0  0
  2  5  1  0
  3  4  2  3
  3  8  1  0
  3  9  1  0
  4  5  1  0
  4 10  1  0
  5  6  1  0
  5  7  1  0
  6 11  1  0
  6 12  1  0
  6 13  1  0
  7 14  1  0
  7 15  1  0
  7 16  1  0
M  END
>  <reaction>  (4) 
rxn_791

>  <mol_properties>  (4) 
{"0": {"label": "*1", "atom_type": "H0"}, "1": {"label": "*2", "atom_type": "H0"}, "3": {"label": "*4", "atom_type": "Cd"}, "4": {"label": "*3", "atom_type": "Cs"}}

>  <type>  (4) 
ts

$$$$
