
     RDKit          3D

 15 15  0  0  0  0  0  0  0  0999 V2000
    2.2031   -0.2111   -0.1693 C   0  0  0  0  0  0  0  0  0  0  0  0
    0.7140   -0.0314   -0.0623 C   0  0  0  0  0  0  0  0  0  0  0  0
   -0.0114    0.5491   -1.0982 C   0  0  0  0  0  0  0  0  0  0  0  0
   -1.3882    0.6886   -1.0150 C   0  0  0  0  0  0  0  0  0  0  0  0
   -2.0661    0.2493    0.1118 C   0  0  0  0  0  0  0  0  0  0  0  0
   -1.3551   -0.3278    1.1528 C   0  0  0  0  0  0  0  0  0  0  0  0
    0.0216   -0.4648    1.0642 C   0  0  0  0  0  0  0  0  0  0  0  0
    2.6776   -0.1836    0.8122 H   0  0  0  0  0  0  0  0  0  0  0  0
    2.4446   -1.1749   -0.6249 H   0  0  0  0  0  0  0  0  0  0  0  0
    2.6532    0.5664   -0.7875 H   0  0  0  0  0  0  0  0  0  0  0  0
    0.5104    0.8989   -1.9819 H   0  0  0  0  0  0  0  0  0  0  0  0
   -1.9328    1.1452   -1.8322 H   0  0  0  0  0  0  0  0  0  0  0  0
   -3.1409    0.3597    0.1800 H   0  0  0  0  0  0  0  0  0  0  0  0
   -1.8736   -0.6702    2.0398 H   0  0  0  0  0  0  0  0  0  0  0  0
    0.5695   -0.9141    1.8849 H   0  0  0  0  0  0  0  0  0  0  0  0
  1  2  1  0
  1  8  1  0
  1  9  1  0
  1 10  1  0
  2  3  2  0
  2  7  1  0
  3  4  1  0
  3 11  1  0
  4  5  2  0
  4 12  1  0
  5  6  1  0
  5 13  1  0
  6  7  2  0
  6 14  1  0
  7 15  1  0
M  END
>  <reaction>  (1) 
rxn_1468

>  <mol_properties>  (1) 
{"0": {"label": "donator", "atom_type": "Cs"}, "7": {"label": "d_hydrogen", "atom_type": "H0"}}

>  <type>  (1) 
r1h

$$$$

     RDKit          3D

 10  9  0  0  0  0  0  0  0  0999 V2000
   -1.2648    0.1959    0.8197 C   0  0  0  0  0  0  0  0  0  0  0  0
   -0.2805    0.0995   -0.3030 C   0  0  0  0  0  3  0  0  0  0  0  0
   -0.0444    1.1347   -1.1797 C   0  0  0  0  0  0  0  0  0  0  0  0
    0.1640    2.0467   -1.9525 C   0  0  0  0  0  0  0  0  0  0  0  0
    0.5686   -1.4168   -0.4488 S   0  0  0  0  0  0  0  0  0  0  0  0
   -2.0466   -0.5638    0.7258 H   0  0  0  0  0  0  0  0  0  0  0  0
   -0.7765    0.0454    1.7871 H   0  0  0  0  0  0  0  0  0  0  0  0
   -1.7371    1.1762    0.8222 H   0  0  0  0  0  0  0  0  0  0  0  0
    0.3433    2.8484   -2.6273 H   0  0  0  0  0  0  0  0  0  0  0  0
    1.3075   -1.0953   -1.5176 H   0  0  0  0  0  0  0  0  0  0  0  0
  1  2  1  0
  1  6  1  0
  1  7  1  0
  1  8  1  0
  2  3  1  0
  2  5  1  0
  3  4  3  0
  4  9  1  0
  5 10  1  0
M  RAD  1   2   2
M  END
>  <reaction>  (2) 
rxn_1468

>  <mol_properties>  (2) 
{"1": {"label": "acceptor", "atom_type": "Cs"}}

>  <type>  (2) 
r2

$$$$

     RDKit          3D

 11 10  0  0  0  0  0  0  0  0999 V2000
   -1.2582   -0.5130    0.2160 C   0  0  0  0  0  0  0  0  0  0  0  0
   -0.1109    0.0509   -0.6210 C   0  0  0  0  0  0  0  0  0  0  0  0
    1.1862   -0.2025   -0.0072 C   0  0  0  0  0  0  0  0  0  0  0  0
    2.2351   -0.4206    0.5274 C   0  0  0  0  0  0  0  0  0  0  0  0
   -0.3298    1.8272   -1.0120 S   0  0  0  0  0  0  0  0  0  0  0  0
   -1.2875   -0.0327    1.1945 H   0  0  0  0  0  0  0  0  0  0  0  0
   -2.2088   -0.3391   -0.2866 H   0  0  0  0  0  0  0  0  0  0  0  0
   -1.1220   -1.5854    0.3655 H   0  0  0  0  0  0  0  0  0  0  0  0
   -0.1222   -0.4181   -1.6078 H   0  0  0  0  0  0  0  0  0  0  0  0
    3.1729   -0.6098    0.9920 H   0  0  0  0  0  0  0  0  0  0  0  0
   -0.1942    2.2663    0.2466 H   0  0  0  0  0  0  0  0  0  0  0  0
  1  2  1  0
  1  6  1  0
  1  7  1  0
  1  8  1  0
  2  3  1  0
  2  5  1  0
  2  9  1  0
  3  4  3  0
  4 10  1  0
  5 11  1  0
M  END
>  <reaction>  (3) 
rxn_1468

>  <mol_properties>  (3) 
{"1": {"label": "acceptor", "atom_type": "Cs"}, "10": {"label": "a_hydrogen", "atom_type": "H0"}}

>  <type>  (3) 
r2h

$$$$

     RDKit          3D

 25 24  0  0  0  0  0  0  0  0999 V2000
   -0.4426   -0.9950    3.2228 C   0  0  0  0  0  0  0  0  0  0  0  0
   -0.8073   -0.6424    1.7947 C   0  0  0  0  0  0  0  0  0  0  0  0
   -2.0564    0.0323    1.6196 C   0  0  0  0  0  0  0  0  0  0  0  0
   -3.0656    0.6628    1.4533 C   0  0  0  0  0  0  0  0  0  0  0  0
   -0.5225   -2.0190    0.6771 S   0  0  0  0  0  0  0  0  0  0  0  0
   -1.1129   -1.7563    3.6279 H   0  0  0  0  0  0  0  0  0  0  0  0
    0.5802   -1.3714    3.2690 H   0  0  0  0  0  0  0  0  0  0  0  0
   -0.5181   -0.1073    3.8511 H   0  0  0  0  0  0  0  0  0  0  0  0
   -3.9735    1.1980    1.3123 H   0  0  0  0  0  0  0  0  0  0  0  0
   -0.7964   -1.3533   -0.4540 H   0  0  0  0  0  0  0  0  0  0  0  0
    0.9445    1.2298    0.9634 C   0  0  0  0  0  0  0  0  0  0  0  0
    0.8759    1.0672   -0.4797 C   0  0  0  0  0  0  0  0  0  0  0  0
   -0.1946    1.6040   -1.2071 C   0  0  0  0  0  3  0  0  0  0  0  0
   -0.3146    1.3767   -2.5663 C   0  0  0  0  0  0  0  0  0  0  0  0
    0.6307    0.6091   -3.2341 C   0  0  0  0  0  0  0  0  0  0  0  0
    1.6987    0.0710   -2.5280 C   0  0  0  0  0  0  0  0  0  0  0  0
    1.8177    0.2924   -1.1682 C   0  0  0  0  0  0  0  0  0  0  0  0
    0.0862    0.2608    1.4338 H   0  0  0  0  0  0  0  0  0  0  0  0
    1.8882    0.9758    1.4378 H   0  0  0  0  0  0  0  0  0  0  0  0
    0.4652    2.1135    1.3759 H   0  0  0  0  0  0  0  0  0  0  0  0
   -0.9404    2.1942   -0.6879 H   0  0  0  0  0  0  0  0  0  0  0  0
   -1.1502    1.7998   -3.1099 H   0  0  0  0  0  0  0  0  0  0  0  0
    0.5366    0.4328   -4.2979 H   0  0  0  0  0  0  0  0  0  0  0  0
    2.4401   -0.5284   -3.0415 H   0  0  0  0  0  0  0  0  0  0  0  0
    2.6452   -0.1423   -0.6204 H   0  0  0  0  0  0  0  0  0  0  0  0
  1  2  1  0
  1  6  1  0
  1  7  1  0
  1  8  1  0
  2  3  1  0
  2  5  1  0
  2 18  1  0
  3  4  3  0
  4  9  1  0
  5 10  1  0
 11 12  2  3
 11 19  1  0
 11 20  1  0
 12 13  1  0
 12 17  1  0
 13 14  1  0
 13 21  1  0
 14 15  2  0
 14 22  1  0
 15 16  1  0
 15 23  1  0
 16 17  2  0
 16 24  1  0
 17 25  1  0
M  RAD  1  13   2
M  END
>  <reaction>  (4) 
rxn_1468

>  <mol_properties>  (4) 
{"1": {"label": "*1", "atom_type": "Cs"}, "4": {"label": "*0", "atom_type": "S2s"}, "10": {"label": "*3", "atom_type": "Cd"}, "11": {"label": "*4", "atom_type": "Cd"}, "17": {"label": "*2", "atom_type": "H0"}}

>  <type>  (4) 
ts

$$$$
