
     RDKit          3D

 12 11  0  0  0  0  0  0  0  0999 V2000
    1.2394   -0.3763   -0.3020 C   0  0  0  0  0  0  0  0  0  0  0  0
    0.1007    0.3024    0.4464 C   0  0  0  0  0  0  0  0  0  0  0  0
   -0.1187    2.0399   -0.0725 S   0  0  0  0  0  0  0  0  0  0  0  0
   -1.1974   -0.4877    0.3552 C   0  0  0  0  0  0  0  0  0  0  0  0
    2.1681    0.1850   -0.2048 H   0  0  0  0  0  0  0  0  0  0  0  0
    1.0030   -0.4604   -1.3656 H   0  0  0  0  0  0  0  0  0  0  0  0
    1.3993   -1.3856    0.0859 H   0  0  0  0  0  0  0  0  0  0  0  0
    0.3797    0.4050    1.4982 H   0  0  0  0  0  0  0  0  0  0  0  0
   -0.4500    1.7774   -1.3452 H   0  0  0  0  0  0  0  0  0  0  0  0
   -1.0545   -1.4977    0.7478 H   0  0  0  0  0  0  0  0  0  0  0  0
   -1.5206   -0.5758   -0.6849 H   0  0  0  0  0  0  0  0  0  0  0  0
   -1.9957   -0.0054    0.9183 H   0  0  0  0  0  0  0  0  0  0  0  0
  1  2  1  0
  1  5  1  0
  1  6  1  0
  1  7  1  0
  2  4  1  0
  2  3  1  0
  2  8  1  0
  3  9  1  0
  4 10  1  0
  4 11  1  0
  4 12  1  0
M  END
>  <reaction>  (1) 
rxn_1948

>  <mol_properties>  (1) 
{"1": {"label": "donator", "atom_type": "Cs"}, "7": {"label": "d_hydrogen", "atom_type": "H0"}}

>  <type>  (1) 
r1h

$$$$

     RDKit          3D

  7  6  0  0  0  0  0  0  0  0999 V2000
   -0.6904   -0.9066   -0.0346 C   0  0  0  0  0  0  0  0  0  0  0  0
    0.1413    0.0254   -0.6161 C   0  0  0  0  0  0  0  0  0  0  0  0
    0.4603    0.1105   -1.9267 C   0  0  0  0  0  3  0  0  0  0  0  0
    0.8318    0.2180   -3.4201 S   0  0  0  0  0  0  0  0  0  0  0  0
   -0.8731   -0.8770    1.0287 H   0  0  0  0  0  0  0  0  0  0  0  0
   -1.1718   -1.6767   -0.6199 H   0  0  0  0  0  0  0  0  0  0  0  0
    0.6090    0.7866    0.0044 H   0  0  0  0  0  0  0  0  0  0  0  0
  1  2  2  3
  1  5  1  0
  1  6  1  0
  2  3  1  0
  2  7  1  0
  3  4  2  0
M  RAD  1   3   2
M  END
>  <reaction>  (2) 
rxn_1948

>  <mol_properties>  (2) 
{"2": {"label": "acceptor", "atom_type": "CS"}}

>  <type>  (2) 
r2

$$$$

     RDKit          3D

  8  7  0  0  0  0  0  0  0  0999 V2000
   -1.1617    0.0338    0.5053 C   0  0  0  0  0  0  0  0  0  0  0  0
   -0.1023    0.4503   -0.1863 C   0  0  0  0  0  0  0  0  0  0  0  0
    1.0978   -0.3557   -0.3104 C   0  0  0  0  0  0  0  0  0  0  0  0
    2.4251    0.0667   -1.1256 S   0  0  0  0  0  0  0  0  0  0  0  0
   -1.1653   -0.9292    1.0039 H   0  0  0  0  0  0  0  0  0  0  0  0
   -2.0546    0.6389    0.5948 H   0  0  0  0  0  0  0  0  0  0  0  0
   -0.0991    1.4132   -0.6847 H   0  0  0  0  0  0  0  0  0  0  0  0
    1.0601   -1.3180    0.2032 H   0  0  0  0  0  0  0  0  0  0  0  0
  1  2  2  3
  1  5  1  0
  1  6  1  0
  2  3  1  0
  2  7  1  0
  3  4  2  0
  3  8  1  0
M  END
>  <reaction>  (3) 
rxn_1948

>  <mol_properties>  (3) 
{"0": {"label": "a_hydrogen", "atom_type": "H0"}, "3": {"label": "acceptor", "atom_type": "CS"}}

>  <type>  (3) 
r2h

$$$$

     RDKit          3D

 19 17  0  0  0  0  0  0  0  0999 V2000
    0.9875    0.0826   -1.5498 C   0  0  0  0  0  0  0  0  0  0  0  0
    1.0524    1.1199   -0.4541 C   0  0  0  0  0  0  0  0  0  0  0  0
    2.5161    0.8823    0.5515 S   0  0  0  0  0  0  0  0  0  0  0  0
    0.8089    2.5363   -0.9086 C   0  0  0  0  0  0  0  0  0  0  0  0
    1.1005   -0.9293   -1.1567 H   0  0  0  0  0  0  0  0  0  0  0  0
    1.7675    0.2462   -2.3001 H   0  0  0  0  0  0  0  0  0  0  0  0
    0.0206    0.1452   -2.0532 H   0  0  0  0  0  0  0  0  0  0  0  0
   -0.0214    0.8556    0.3104 H   0  0  0  0  0  0  0  0  0  0  0  0
    2.2912    1.8832    1.4135 H   0  0  0  0  0  0  0  0  0  0  0  0
   -0.1521    2.6024   -1.4231 H   0  0  0  0  0  0  0  0  0  0  0  0
    1.5946    2.8643   -1.5964 H   0  0  0  0  0  0  0  0  0  0  0  0
    0.7820    3.2297   -0.0666 H   0  0  0  0  0  0  0  0  0  0  0  0
   -0.2480   -1.3800    1.8348 C   0  0  0  0  0  0  0  0  0  0  0  0
   -1.3279   -0.6435    1.5736 C   0  0  0  0  0  0  0  0  0  0  0  0
   -1.2537    0.6115    0.8568 C   0  0  0  0  0  3  0  0  0  0  0  0
   -2.4341    1.6335    0.5255 S   0  0  0  0  0  0  0  0  0  0  0  0
   -0.3286   -2.3134    2.3778 H   0  0  0  0  0  0  0  0  0  0  0  0
    0.7418   -1.0611    1.5283 H   0  0  0  0  0  0  0  0  0  0  0  0
   -2.3121   -0.9651    1.9043 H   0  0  0  0  0  0  0  0  0  0  0  0
  1  2  1  0
  1  5  1  0
  1  6  1  0
  1  7  1  0
  2  4  1  0
  2  3  1  0
  2  8  1  0
  3  9  1  0
  4 10  1  0
  4 11  1  0
  4 12  1  0
 13 14  2  3
 13 17  1  0
 13 18  1  0
 14 15  1  0
 14 19  1  0
 15 16  2  0
M  RAD  1  15   2
M  END
>  <reaction>  (4) 
rxn_1948

>  <mol_properties>  (4) 
{"1": {"label": "*1", "atom_type": "Cs"}, "2": {"label": "*0", "atom_type": "S2s"}, "7": {"label": "*2", "atom_type": "H0"}, "14": {"label": "*3", "atom_type": "CS"}, "15": {"label": "*4", "atom_type": "S2d"}}

>  <type>  (4) 
ts

$$$$
