
     RDKit          3D

 15 14  0  0  0  0  0  0  0  0999 V2000
   -0.6986    1.3249   -0.1641 C   0  0  0  0  0  0  0  0  0  0  0  0
   -0.2590   -0.0344    0.3671 C   0  0  0  0  0  0  0  0  0  0  0  0
   -0.4734   -0.1429    1.8733 C   0  0  0  0  0  0  0  0  0  0  0  0
   -0.9841   -1.1722   -0.3462 C   0  0  0  0  0  0  0  0  0  0  0  0
   -0.7805   -1.1911   -1.7444 O   0  0  0  0  0  0  0  0  0  0  0  0
   -0.1246    2.1306    0.2976 H   0  0  0  0  0  0  0  0  0  0  0  0
   -1.7557    1.4964    0.0581 H   0  0  0  0  0  0  0  0  0  0  0  0
   -0.5709    1.3852   -1.2449 H   0  0  0  0  0  0  0  0  0  0  0  0
    0.8141   -0.1541    0.1667 H   0  0  0  0  0  0  0  0  0  0  0  0
   -1.5346   -0.0466    2.1192 H   0  0  0  0  0  0  0  0  0  0  0  0
    0.0611    0.6480    2.4019 H   0  0  0  0  0  0  0  0  0  0  0  0
   -0.1249   -1.1023    2.2618 H   0  0  0  0  0  0  0  0  0  0  0  0
   -0.6918   -2.1316    0.1011 H   0  0  0  0  0  0  0  0  0  0  0  0
   -2.0629   -1.0627   -0.2056 H   0  0  0  0  0  0  0  0  0  0  0  0
    0.1528   -1.3298   -1.9125 H   0  0  0  0  0  0  0  0  0  0  0  0
  1  2  1  0
  1  6  1  0
  1  7  1  0
  1  8  1  0
  2  3  1  0
  2  4  1  0
  2  9  1  0
  3 10  1  0
  3 11  1  0
  3 12  1  0
  4  5  1  0
  4 13  1  0
  4 14  1  0
  5 15  1  0
M  END
>  <reaction>  (1) 
rxn_776

>  <mol_properties>  (1) 
{"1": {"label": "donator", "atom_type": "Cs"}, "8": {"label": "d_hydrogen", "atom_type": "H0"}}

>  <type>  (1) 
r1h

$$$$

     RDKit          3D

  1  0  0  0  0  0  0  0  0  0999 V2000
    0.0000    0.0000    0.0000 O   0  0  0  0  0 15  0  0  0  0  0  0
M  END
>  <reaction>  (2) 
rxn_776

>  <mol_properties>  (2) 
{"0": {"label": "acceptor", "atom_type": "O2s"}}

>  <type>  (2) 
r2

$$$$

     RDKit          3D

  2  1  0  0  0  0  0  0  0  0999 V2000
    0.0000    0.0000    0.4855 O   0  0  0  0  0  1  0  0  0  0  0  0
    0.0000    0.0000   -0.4855 H   0  0  0  0  0  0  0  0  0  0  0  0
  1  2  1  0
M  RAD  1   1   2
M  END
>  <reaction>  (3) 
rxn_776

>  <mol_properties>  (3) 
{"0": {"label": "a_hydrogen", "atom_type": "H0"}, "1": {"label": "acceptor", "atom_type": "O2s"}}

>  <type>  (3) 
r2h

$$$$

     RDKit          3D

 16 14  0  0  0  0  0  0  0  0999 V2000
    0.0452    0.4900   -1.6343 C   0  0  0  0  0  0  0  0  0  0  0  0
   -0.0249    0.5417   -0.1248 C   0  0  0  0  0  0  0  0  0  0  0  0
    0.0413    1.9348    0.4581 C   0  0  0  0  0  0  0  0  0  0  0  0
   -1.1326   -0.3108    0.4740 C   0  0  0  0  0  0  0  0  0  0  0  0
   -1.0675   -1.6597    0.0882 O   0  0  0  0  0  0  0  0  0  0  0  0
    0.9475    0.9772   -2.0059 H   0  0  0  0  0  0  0  0  0  0  0  0
   -0.8180    1.0148   -2.0574 H   0  0  0  0  0  0  0  0  0  0  0  0
    0.0210   -0.5377   -1.9941 H   0  0  0  0  0  0  0  0  0  0  0  0
    0.9735   -0.0259    0.2543 H   0  0  0  0  0  0  0  0  0  0  0  0
   -0.8546    2.4979    0.1760 H   0  0  0  0  0  0  0  0  0  0  0  0
    0.9069    2.4798    0.0804 H   0  0  0  0  0  0  0  0  0  0  0  0
    0.0942    1.9146    1.5476 H   0  0  0  0  0  0  0  0  0  0  0  0
   -1.1175   -0.2082    1.5668 H   0  0  0  0  0  0  0  0  0  0  0  0
   -2.0993    0.0670    0.1241 H   0  0  0  0  0  0  0  0  0  0  0  0
   -0.2105   -1.9976    0.3673 H   0  0  0  0  0  0  0  0  0  0  0  0
    1.8933   -0.9365    0.6957 O   0  0  0  0  0 15  0  0  0  0  0  0
  1  2  1  0
  1  6  1  0
  1  7  1  0
  1  8  1  0
  2  3  1  0
  2  4  1  0
  2  9  1  0
  3 10  1  0
  3 11  1  0
  3 12  1  0
  4  5  1  0
  4 13  1  0
  4 14  1  0
  5 15  1  0
M  END
>  <reaction>  (4) 
rxn_776

>  <mol_properties>  (4) 
{"1": {"label": "*1", "atom_type": "Cs"}, "3": {"label": "*0", "atom_type": "Cs"}, "8": {"label": "*2", "atom_type": "H0"}, "15": {"label": "*3", "atom_type": "O2s"}}

>  <type>  (4) 
ts

$$$$
