
     RDKit          3D

 14 13  0  0  0  0  0  0  0  0999 V2000
   -0.7647   -1.2352   -0.0349 C   0  0  0  0  0  0  0  0  0  0  0  0
    0.0570   -0.0126    0.3624 C   0  0  0  0  0  0  0  0  0  0  0  0
    1.4161   -0.0194   -0.3308 C   0  0  0  0  0  0  0  0  0  0  0  0
   -0.7022    1.2765    0.0629 C   0  0  0  0  0  0  0  0  0  0  0  0
   -0.2387   -2.1618    0.2040 H   0  0  0  0  0  0  0  0  0  0  0  0
   -0.9625   -1.2316   -1.1108 H   0  0  0  0  0  0  0  0  0  0  0  0
   -1.7273   -1.2512    0.4806 H   0  0  0  0  0  0  0  0  0  0  0  0
    0.2295   -0.0590    1.4432 H   0  0  0  0  0  0  0  0  0  0  0  0
    1.2933    0.0260   -1.4168 H   0  0  0  0  0  0  0  0  0  0  0  0
    2.0206    0.8381   -0.0279 H   0  0  0  0  0  0  0  0  0  0  0  0
    1.9767   -0.9268   -0.0966 H   0  0  0  0  0  0  0  0  0  0  0  0
   -1.6639    1.3001    0.5798 H   0  0  0  0  0  0  0  0  0  0  0  0
   -0.8977    1.3664   -1.0096 H   0  0  0  0  0  0  0  0  0  0  0  0
   -0.1313    2.1545    0.3722 H   0  0  0  0  0  0  0  0  0  0  0  0
  1  2  1  0
  1  5  1  0
  1  6  1  0
  1  7  1  0
  2  3  1  0
  2  4  1  0
  2  8  1  0
  3  9  1  0
  3 10  1  0
  3 11  1  0
  4 12  1  0
  4 13  1  0
  4 14  1  0
M  END
>  <reaction>  (1) 
rxn_166

>  <mol_properties>  (1) 
{"0": {"label": "donator", "atom_type": "Cs"}, "4": {"label": "d_hydrogen", "atom_type": "H0"}}

>  <type>  (1) 
r1h

$$$$

     RDKit          3D

  1  0  0  0  0  0  0  0  0  0999 V2000
    0.0000    0.0000    0.0000 Cl  0  0  0  0  0 15  0  0  0  0  0  0
M  END
>  <reaction>  (2) 
rxn_166

>  <mol_properties>  (2) 
{"0": {"label": "acceptor", "atom_type": "Cl1s"}}

>  <type>  (2) 
r2

$$$$

     RDKit          3D

  2  1  0  0  0  0  0  0  0  0999 V2000
    0.0000    0.0000    0.6391 Cl  0  0  0  0  0  0  0  0  0  0  0  0
    0.0000    0.0000   -0.6391 H   0  0  0  0  0  0  0  0  0  0  0  0
  1  2  1  0
M  END
>  <reaction>  (3) 
rxn_166

>  <mol_properties>  (3) 
{"0": {"label": "acceptor", "atom_type": "Cl1s"}, "1": {"label": "a_hydrogen", "atom_type": "H0"}}

>  <type>  (3) 
r2h

$$$$

     RDKit          3D

 15 13  0  0  0  0  0  0  0  0999 V2000
   -1.6602    1.5139   -0.0641 Cl  0  0  0  0  0 15  0  0  0  0  0  0
    0.7647    0.2212    0.7684 C   0  0  0  0  0  0  0  0  0  0  0  0
    0.6689   -1.1651    0.2089 C   0  0  0  0  0  0  0  0  0  0  0  0
    0.6907   -1.1679   -1.3158 C   0  0  0  0  0  0  0  0  0  0  0  0
    1.8130   -2.0150    0.7843 C   0  0  0  0  0  0  0  0  0  0  0  0
   -0.4221    0.8843    0.3555 H   0  0  0  0  0  0  0  0  0  0  0  0
    1.5061    0.8837    0.3250 H   0  0  0  0  0  0  0  0  0  0  0  0
    0.6526    0.3333    1.8441 H   0  0  0  0  0  0  0  0  0  0  0  0
   -0.2741   -1.6038    0.5494 H   0  0  0  0  0  0  0  0  0  0  0  0
    1.6274   -0.7441   -1.6878 H   0  0  0  0  0  0  0  0  0  0  0  0
    0.6075   -2.1855   -1.7002 H   0  0  0  0  0  0  0  0  0  0  0  0
   -0.1336   -0.5810   -1.7224 H   0  0  0  0  0  0  0  0  0  0  0  0
    1.7826   -2.0446    1.8744 H   0  0  0  0  0  0  0  0  0  0  0  0
    2.7832   -1.6160    0.4794 H   0  0  0  0  0  0  0  0  0  0  0  0
    1.7377   -3.0388    0.4133 H   0  0  0  0  0  0  0  0  0  0  0  0
  2  3  1  0
  2  6  1  0
  2  7  1  0
  2  8  1  0
  3  4  1  0
  3  5  1  0
  3  9  1  0
  4 10  1  0
  4 11  1  0
  4 12  1  0
  5 13  1  0
  5 14  1  0
  5 15  1  0
M  END
>  <reaction>  (4) 
rxn_166

>  <mol_properties>  (4) 
{"0": {"label": "*3", "atom_type": "Cl1s"}, "1": {"label": "*1", "atom_type": "Cs"}, "2": {"label": "*0", "atom_type": "Cs"}, "5": {"label": "*2", "atom_type": "H0"}}

>  <type>  (4) 
ts

$$$$
