
     RDKit          3D

  5  4  0  0  0  0  0  0  0  0999 V2000
    0.0000    0.0000    0.0000 C   0  0  0  0  0  0  0  0  0  0  0  0
   -0.6486   -0.7720   -0.4113 H   0  0  0  0  0  0  0  0  0  0  0  0
   -0.3482    0.9787   -0.3267 H   0  0  0  0  0  0  0  0  0  0  0  0
   -0.0223   -0.0487    1.0876 H   0  0  0  0  0  0  0  0  0  0  0  0
    1.0191   -0.1580   -0.3496 H   0  0  0  0  0  0  0  0  0  0  0  0
  1  2  1  0
  1  3  1  0
  1  4  1  0
  1  5  1  0
M  END
>  <reaction>  (1) 
rxn_867

>  <mol_properties>  (1) 
{"0": {"label": "donator", "atom_type": "Cs"}, "1": {"label": "d_hydrogen", "atom_type": "H0"}}

>  <type>  (1) 
r1h

$$$$

     RDKit          3D

  5  4  0  0  0  0  0  0  0  0999 V2000
    2.6313   -0.6927   -0.0580 S   0  0  0  0  0  0  0  0  0  0  0  0
    1.1355   -0.3280    0.0800 C   0  0  0  0  0  3  0  0  0  0  0  0
   -0.1319    0.0264    0.1833 C   0  0  0  0  0  0  0  0  0  0  0  0
   -1.3116    0.3364    0.2853 C   0  0  0  0  0  0  0  0  0  0  0  0
   -2.3233    0.6579    0.3561 H   0  0  0  0  0  0  0  0  0  0  0  0
  1  2  2  0
  2  3  1  0
  3  4  3  0
  4  5  1  0
M  RAD  1   2   2
M  END
>  <reaction>  (2) 
rxn_867

>  <mol_properties>  (2) 
{"1": {"label": "acceptor", "atom_type": "CS"}}

>  <type>  (2) 
r2

$$$$

     RDKit          3D

  6  5  0  0  0  0  0  0  0  0999 V2000
   -1.9761    1.0978   -0.6585 S   0  0  0  0  0  0  0  0  0  0  0  0
   -1.0502    0.0275    0.1158 C   0  0  0  0  0  0  0  0  0  0  0  0
    0.3587   -0.0566   -0.0000 C   0  0  0  0  0  0  0  0  0  0  0  0
    1.5530   -0.1477   -0.0815 C   0  0  0  0  0  0  0  0  0  0  0  0
   -1.4972   -0.7045    0.7881 H   0  0  0  0  0  0  0  0  0  0  0  0
    2.6118   -0.2165   -0.1639 H   0  0  0  0  0  0  0  0  0  0  0  0
  1  2  2  0
  2  3  1  0
  2  5  1  0
  3  4  3  0
  4  6  1  0
M  END
>  <reaction>  (3) 
rxn_867

>  <mol_properties>  (3) 
{"1": {"label": "acceptor", "atom_type": "CS"}, "5": {"label": "a_hydrogen", "atom_type": "H0"}}

>  <type>  (3) 
r2h

$$$$

     RDKit          3D

 10  8  0  0  0  0  0  0  0  0999 V2000
   -1.3496    0.6098    0.5921 S   0  0  0  0  0  0  0  0  0  0  0  0
   -0.0090   -0.0506    0.0263 C   0  0  0  0  0  0  0  0  0  0  0  0
    1.3079    0.4265    0.0809 C   0  0  0  0  0  0  0  0  0  0  0  0
    2.4640    0.7588    0.0818 C   0  0  0  0  0  0  0  0  0  0  0  0
    3.4795    1.0767    0.0968 H   0  0  0  0  0  0  0  0  0  0  0  0
   -0.2137   -2.4424   -1.2386 C   0  0  0  0  0  3  0  0  0  0  0  0
   -0.0821   -1.1615   -0.5646 H   0  0  0  0  0  0  0  0  0  0  0  0
    0.4030   -3.1068   -0.6431 H   0  0  0  0  0  0  0  0  0  0  0  0
   -1.2833   -2.6042   -1.1604 H   0  0  0  0  0  0  0  0  0  0  0  0
    0.1556   -2.2419   -2.2385 H   0  0  0  0  0  0  0  0  0  0  0  0
  1  2  2  0
  2  3  1  0
  2  7  1  0
  3  4  3  0
  4  5  1  0
  6  8  1  0
  6  9  1  0
  6 10  1  0
M  RAD  1   6   2
M  END
>  <reaction>  (4) 
rxn_867

>  <mol_properties>  (4) 
{"0": {"label": "*0", "atom_type": "S2d"}, "1": {"label": "*1", "atom_type": "CS"}, "5": {"label": "*3", "atom_type": "Cs"}, "6": {"label": "*2", "atom_type": "H0"}, "7": {"label": "*4", "atom_type": "H0"}}

>  <type>  (4) 
ts

$$$$
