
     RDKit          3D

 22 23  0  0  0  0  0  0  0  0999 V2000
   -2.1093   -0.3263    0.3079 C   0  0  0  0  0  0  0  0  0  0  0  0
   -1.3270    0.9803    0.4115 C   0  0  0  0  0  0  0  0  0  0  0  0
   -0.1818    0.8289   -0.6044 C   0  0  0  0  0  0  0  0  0  0  0  0
    1.1682    1.3904   -0.1341 C   0  0  0  0  0  0  0  0  0  0  0  0
    1.8508    0.2041    0.5479 C   0  0  0  0  0  0  0  0  0  0  0  0
    1.4982   -0.9663   -0.3710 C   0  0  0  0  0  0  0  0  0  0  0  0
    0.0340   -0.7124   -0.7594 C   0  0  0  0  0  0  0  0  0  0  0  0
   -0.9986   -1.3650    0.1756 C   0  0  0  0  0  0  0  0  0  0  0  0
   -2.7686   -0.5042    1.1589 H   0  0  0  0  0  0  0  0  0  0  0  0
   -2.7285   -0.3223   -0.5943 H   0  0  0  0  0  0  0  0  0  0  0  0
   -1.9339    1.8682    0.2289 H   0  0  0  0  0  0  0  0  0  0  0  0
   -0.9144    1.0729    1.4218 H   0  0  0  0  0  0  0  0  0  0  0  0
   -0.4804    1.2763   -1.5535 H   0  0  0  0  0  0  0  0  0  0  0  0
    1.7667    1.7058   -0.9931 H   0  0  0  0  0  0  0  0  0  0  0  0
    1.0540    2.2578    0.5189 H   0  0  0  0  0  0  0  0  0  0  0  0
    1.4197    0.0438    1.5410 H   0  0  0  0  0  0  0  0  0  0  0  0
    2.9248    0.3413    0.6788 H   0  0  0  0  0  0  0  0  0  0  0  0
    2.1362   -0.9329   -1.2584 H   0  0  0  0  0  0  0  0  0  0  0  0
    1.6421   -1.9421    0.0966 H   0  0  0  0  0  0  0  0  0  0  0  0
   -0.1575   -1.0299   -1.7854 H   0  0  0  0  0  0  0  0  0  0  0  0
   -1.3459   -2.3310   -0.1933 H   0  0  0  0  0  0  0  0  0  0  0  0
   -0.5489   -1.5373    1.1593 H   0  0  0  0  0  0  0  0  0  0  0  0
  1  2  1  0
  1  8  1  0
  1  9  1  0
  1 10  1  0
  2  3  1  0
  2 11  1  0
  2 12  1  0
  3  4  1  0
  3  7  1  0
  3 13  1  0
  4  5  1  0
  4 14  1  0
  4 15  1  0
  5  6  1  0
  5 16  1  0
  5 17  1  0
  6  7  1  0
  6 18  1  0
  6 19  1  0
  7  8  1  0
  7 20  1  0
  8 21  1  0
  8 22  1  0
M  END
>  <reaction>  (1) 
rxn_569

>  <mol_properties>  (1) 
{"2": {"label": "donator", "atom_type": "Cs"}, "12": {"label": "d_hydrogen", "atom_type": "H0"}}

>  <type>  (1) 
r1h

$$$$

     RDKit          3D

 14 14  0  0  0  0  0  0  0  0999 V2000
    2.3111    0.1295    0.0255 C   0  0  0  0  0  0  0  0  0  0  0  0
    0.9132    0.0511    0.0101 C   0  0  0  0  0  0  0  0  0  0  0  0
    0.2446   -1.1981    0.0389 C   0  0  0  0  0  3  0  0  0  0  0  0
   -1.1306   -1.2689    0.0235 C   0  0  0  0  0  0  0  0  0  0  0  0
   -1.8967   -0.1062   -0.0209 C   0  0  0  0  0  0  0  0  0  0  0  0
   -1.2644    1.1347   -0.0499 C   0  0  0  0  0  0  0  0  0  0  0  0
    0.1101    1.2180   -0.0350 C   0  0  0  0  0  0  0  0  0  0  0  0
    2.9188   -0.7647    0.0599 H   0  0  0  0  0  0  0  0  0  0  0  0
    2.8158    1.0859    0.0034 H   0  0  0  0  0  0  0  0  0  0  0  0
    0.8353   -2.1058    0.0735 H   0  0  0  0  0  0  0  0  0  0  0  0
   -1.6191   -2.2351    0.0461 H   0  0  0  0  0  0  0  0  0  0  0  0
   -2.9772   -0.1668   -0.0328 H   0  0  0  0  0  0  0  0  0  0  0  0
   -1.8572    2.0404   -0.0845 H   0  0  0  0  0  0  0  0  0  0  0  0
    0.5964    2.1860   -0.0577 H   0  0  0  0  0  0  0  0  0  0  0  0
  1  2  2  3
  1  8  1  0
  1  9  1  0
  2  3  1  0
  2  7  1  0
  3  4  1  0
  3 10  1  0
  4  5  2  0
  4 11  1  0
  5  6  1  0
  5 12  1  0
  6  7  2  0
  6 13  1  0
  7 14  1  0
M  RAD  1   3   2
M  END
>  <reaction>  (2) 
rxn_569

>  <mol_properties>  (2) 
{"0": {"label": "acceptor", "atom_type": "Cs"}}

>  <type>  (2) 
r2

$$$$

     RDKit          3D

 15 15  0  0  0  0  0  0  0  0999 V2000
    2.2031   -0.2111   -0.1693 C   0  0  0  0  0  0  0  0  0  0  0  0
    0.7140   -0.0314   -0.0623 C   0  0  0  0  0  0  0  0  0  0  0  0
   -0.0114    0.5491   -1.0982 C   0  0  0  0  0  0  0  0  0  0  0  0
   -1.3882    0.6886   -1.0150 C   0  0  0  0  0  0  0  0  0  0  0  0
   -2.0661    0.2493    0.1118 C   0  0  0  0  0  0  0  0  0  0  0  0
   -1.3551   -0.3278    1.1528 C   0  0  0  0  0  0  0  0  0  0  0  0
    0.0216   -0.4648    1.0642 C   0  0  0  0  0  0  0  0  0  0  0  0
    2.6776   -0.1836    0.8122 H   0  0  0  0  0  0  0  0  0  0  0  0
    2.4446   -1.1749   -0.6249 H   0  0  0  0  0  0  0  0  0  0  0  0
    2.6532    0.5664   -0.7875 H   0  0  0  0  0  0  0  0  0  0  0  0
    0.5104    0.8989   -1.9819 H   0  0  0  0  0  0  0  0  0  0  0  0
   -1.9328    1.1452   -1.8322 H   0  0  0  0  0  0  0  0  0  0  0  0
   -3.1409    0.3597    0.1800 H   0  0  0  0  0  0  0  0  0  0  0  0
   -1.8736   -0.6702    2.0398 H   0  0  0  0  0  0  0  0  0  0  0  0
    0.5695   -0.9141    1.8849 H   0  0  0  0  0  0  0  0  0  0  0  0
  1  2  1  0
  1  8  1  0
  1  9  1  0
  1 10  1  0
  2  3  2  0
  2  7  1  0
  3  4  1  0
  3 11  1  0
  4  5  2  0
  4 12  1  0
  5  6  1  0
  5 13  1  0
  6  7  2  0
  6 14  1  0
  7 15  1  0
M  END
>  <reaction>  (3) 
rxn_569

>  <mol_properties>  (3) 
{"0": {"label": "acceptor", "atom_type": "Cs"}, "14": {"label": "a_hydrogen", "atom_type": "H0"}}

>  <type>  (3) 
r2h

$$$$

     RDKit          3D

 36 37  0  0  0  0  0  0  0  0999 V2000
   -1.7892    0.3633    0.9937 C   0  0  0  0  0  0  0  0  0  0  0  0
   -1.7177   -0.9217    0.2944 C   0  0  0  0  0  0  0  0  0  0  0  0
   -1.3447   -2.0887    0.9680 C   0  0  0  0  0  0  0  0  0  0  0  0
   -1.1617   -3.2798    0.2876 C   0  0  0  0  0  0  0  0  0  0  0  0
   -1.3494   -3.3375   -1.0866 C   0  0  0  0  0  0  0  0  0  0  0  0
   -1.7331   -2.1915   -1.7693 C   0  0  0  0  0  0  0  0  0  0  0  0
   -1.9146   -1.0009   -1.0877 C   0  0  0  0  0  0  0  0  0  0  0  0
   -1.9549    0.3030    2.0667 H   0  0  0  0  0  0  0  0  0  0  0  0
   -2.4092    1.1198    0.5179 H   0  0  0  0  0  0  0  0  0  0  0  0
   -1.1892   -2.0525    2.0403 H   0  0  0  0  0  0  0  0  0  0  0  0
   -0.8694   -4.1694    0.8317 H   0  0  0  0  0  0  0  0  0  0  0  0
   -1.2035   -4.2682   -1.6195 H   0  0  0  0  0  0  0  0  0  0  0  0
   -1.8899   -2.2264   -2.8404 H   0  0  0  0  0  0  0  0  0  0  0  0
   -2.2088   -0.1099   -1.6309 H   0  0  0  0  0  0  0  0  0  0  0  0
    1.8650   -0.5318   -0.3322 C   0  0  0  0  0  0  0  0  0  0  0  0
    1.5812    0.1189    1.0244 C   0  0  0  0  0  0  0  0  0  0  0  0
    0.6968    1.3089    0.6970 C   0  0  0  0  0  3  0  0  0  0  0  0
    0.8854    2.6157    1.4417 C   0  0  0  0  0  0  0  0  0  0  0  0
    1.7009    3.4675    0.4595 C   0  0  0  0  0  0  0  0  0  0  0  0
    1.1029    3.1048   -0.9033 C   0  0  0  0  0  0  0  0  0  0  0  0
    0.8207    1.5973   -0.8066 C   0  0  0  0  0  0  0  0  0  0  0  0
    1.9485    0.6658   -1.2783 C   0  0  0  0  0  0  0  0  0  0  0  0
    2.7685   -1.1427   -0.3313 H   0  0  0  0  0  0  0  0  0  0  0  0
    1.0285   -1.1753   -0.6171 H   0  0  0  0  0  0  0  0  0  0  0  0
    1.1220   -0.5681    1.7393 H   0  0  0  0  0  0  0  0  0  0  0  0
    2.5166    0.4710    1.4776 H   0  0  0  0  0  0  0  0  0  0  0  0
   -0.5746    0.8772    0.8997 H   0  0  0  0  0  0  0  0  0  0  0  0
   -0.0809    3.0977    1.6266 H   0  0  0  0  0  0  0  0  0  0  0  0
    1.3731    2.4834    2.4089 H   0  0  0  0  0  0  0  0  0  0  0  0
    2.7516    3.1649    0.4982 H   0  0  0  0  0  0  0  0  0  0  0  0
    1.6603    4.5357    0.6769 H   0  0  0  0  0  0  0  0  0  0  0  0
    0.1684    3.6536   -1.0476 H   0  0  0  0  0  0  0  0  0  0  0  0
    1.7590    3.3541   -1.7391 H   0  0  0  0  0  0  0  0  0  0  0  0
   -0.0990    1.3348   -1.3370 H   0  0  0  0  0  0  0  0  0  0  0  0
    1.8565    0.3933   -2.3305 H   0  0  0  0  0  0  0  0  0  0  0  0
    2.9141    1.1676   -1.1516 H   0  0  0  0  0  0  0  0  0  0  0  0
  1  2  1  0
  1  8  1  0
  1  9  1  0
  1 27  1  0
  2  3  2  0
  2  7  1  0
  3  4  1  0
  3 10  1  0
  4  5  2  0
  4 11  1  0
  5  6  1  0
  5 12  1  0
  6  7  2  0
  6 13  1  0
  7 14  1  0
 15 22  1  0
 15 16  1  0
 15 23  1  0
 15 24  1  0
 16 17  1  0
 16 25  1  0
 16 26  1  0
 17 18  1  0
 17 21  1  0
 18 19  1  0
 18 28  1  0
 18 29  1  0
 19 20  1  0
 19 30  1  0
 19 31  1  0
 20 21  1  0
 20 32  1  0
 20 33  1  0
 21 22  1  0
 21 34  1  0
 22 35  1  0
 22 36  1  0
M  RAD  1  17   2
M  END
>  <reaction>  (4) 
rxn_569

>  <mol_properties>  (4) 
{"0": {"label": "*1", "atom_type": "Cs"}, "1": {"label": "*0", "atom_type": "Cd"}, "16": {"label": "*3", "atom_type": "Cs"}, "20": {"label": "*4", "atom_type": "Cs"}, "26": {"label": "*2", "atom_type": "H0"}}

>  <type>  (4) 
ts

$$$$
