
     RDKit          3D

 13 12  0  0  0  0  0  0  0  0999 V2000
    1.3704   -0.2590    0.1754 C   0  0  0  0  0  0  0  0  0  0  0  0
   -0.0422   -0.1438   -0.4049 C   0  0  0  0  0  0  0  0  0  0  0  0
   -0.9751   -1.2363    0.0899 C   0  0  0  0  0  0  0  0  0  0  0  0
    0.0442   -0.0953   -1.9112 C   0  0  0  0  0  0  0  0  0  0  0  0
   -0.5415   -0.8204   -2.6654 O   0  0  0  0  0  0  0  0  0  0  0  0
    1.8120   -1.2260   -0.0751 H   0  0  0  0  0  0  0  0  0  0  0  0
    1.3417   -0.1734    1.2620 H   0  0  0  0  0  0  0  0  0  0  0  0
    2.0285    0.5246   -0.2058 H   0  0  0  0  0  0  0  0  0  0  0  0
   -0.4376    0.8392   -0.1146 H   0  0  0  0  0  0  0  0  0  0  0  0
   -1.0539   -1.2049    1.1776 H   0  0  0  0  0  0  0  0  0  0  0  0
   -0.6017   -2.2201   -0.1988 H   0  0  0  0  0  0  0  0  0  0  0  0
   -1.9726   -1.1270   -0.3349 H   0  0  0  0  0  0  0  0  0  0  0  0
    0.7246    0.6916   -2.3055 H   0  0  0  0  0  0  0  0  0  0  0  0
  1  2  1  0
  1  6  1  0
  1  7  1  0
  1  8  1  0
  2  3  1  0
  2  4  1  0
  2  9  1  0
  3 10  1  0
  3 11  1  0
  3 12  1  0
  4  5  2  0
  4 13  1  0
M  END
>  <reaction>  (1) 
rxn_30

>  <mol_properties>  (1) 
{"1": {"label": "donator", "atom_type": "Cs"}, "8": {"label": "d_hydrogen", "atom_type": "H0"}}

>  <type>  (1) 
r1h

$$$$

     RDKit          3D

  1  0  0  0  0  0  0  0  0  0999 V2000
    0.0000    0.0000    0.0000 H   0  0  0  0  0 15  0  0  0  0  0  0
M  END
>  <reaction>  (2) 
rxn_30

>  <mol_properties>  (2) 
{"0": {"label": "acceptor", "atom_type": "H0"}}

>  <type>  (2) 
r2

$$$$

     RDKit          3D

  2  1  0  0  0  0  0  0  0  0999 V2000
    0.0000    0.0000    0.3721 H   0  0  0  0  0  0  0  0  0  0  0  0
    0.0000    0.0000   -0.3721 H   0  0  0  0  0  0  0  0  0  0  0  0
  1  2  1  0
M  END
>  <reaction>  (3) 
rxn_30

>  <mol_properties>  (3) 
{"0": {"label": "a_hydrogen", "atom_type": "H0"}, "1": {"label": "acceptor", "atom_type": "H0"}}

>  <type>  (3) 
r2h

$$$$

     RDKit          3D

 14 12  0  0  0  0  0  0  0  0999 V2000
   -0.6237   -0.0333   -1.7087 C   0  0  0  0  0  0  0  0  0  0  0  0
   -0.5312    0.0058   -0.1942 C   0  0  0  0  0  0  0  0  0  0  0  0
   -0.5935    1.3863    0.4166 C   0  0  0  0  0  0  0  0  0  0  0  0
    0.5698   -0.8575    0.3413 C   0  0  0  0  0  0  0  0  0  0  0  0
    1.2664   -0.5791    1.2789 O   0  0  0  0  0  0  0  0  0  0  0  0
    0.2007    0.5269   -2.1572 H   0  0  0  0  0  0  0  0  0  0  0  0
   -1.5573    0.4174   -2.0469 H   0  0  0  0  0  0  0  0  0  0  0  0
   -0.5849   -1.0564   -2.0875 H   0  0  0  0  0  0  0  0  0  0  0  0
   -1.5076   -0.5821    0.1886 H   0  0  0  0  0  0  0  0  0  0  0  0
   -1.5079    1.8974    0.1124 H   0  0  0  0  0  0  0  0  0  0  0  0
    0.2583    1.9851    0.0857 H   0  0  0  0  0  0  0  0  0  0  0  0
   -0.5593    1.3369    1.5039 H   0  0  0  0  0  0  0  0  0  0  0  0
    0.6976   -1.8250   -0.1895 H   0  0  0  0  0  0  0  0  0  0  0  0
   -2.5211   -1.0179    0.4733 H   0  0  0  0  0 15  0  0  0  0  0  0
  1  2  1  0
  1  6  1  0
  1  7  1  0
  1  8  1  0
  2  3  1  0
  2  4  1  0
  2  9  1  0
  3 10  1  0
  3 11  1  0
  3 12  1  0
  4  5  2  0
  4 13  1  0
M  END
>  <reaction>  (4) 
rxn_30

>  <mol_properties>  (4) 
{"1": {"label": "*3", "atom_type": "Cs"}, "3": {"label": "*4", "atom_type": "CO"}, "8": {"label": "*2", "atom_type": "H0"}, "13": {"label": "*1", "atom_type": "H0"}}

>  <type>  (4) 
ts

$$$$
