
     RDKit          3D

  9  8  0  0  0  0  0  0  0  0999 V2000
   -2.1022   -0.6873    0.3932 C   0  0  0  0  0  0  0  0  0  0  0  0
   -1.2072   -0.1086   -0.1482 C   0  0  0  0  0  0  0  0  0  0  0  0
   -0.1242    0.6105   -0.8193 C   0  0  0  0  0  0  0  0  0  0  0  0
    1.2067    0.1106   -0.4741 C   0  0  0  0  0  0  0  0  0  0  0  0
    2.3005   -0.2875   -0.2012 C   0  0  0  0  0  0  0  0  0  0  0  0
   -2.8942   -1.2059    0.8778 H   0  0  0  0  0  0  0  0  0  0  0  0
   -0.1862    1.6723   -0.5649 H   0  0  0  0  0  0  0  0  0  0  0  0
   -0.2641    0.5418   -1.9017 H   0  0  0  0  0  0  0  0  0  0  0  0
    3.2709   -0.6459    0.0455 H   0  0  0  0  0  0  0  0  0  0  0  0
  1  2  3  0
  1  6  1  0
  2  3  1  0
  3  4  1  0
  3  7  1  0
  3  8  1  0
  4  5  3  0
  5  9  1  0
M  END
>  <reaction>  (1) 
rxn_1366

>  <mol_properties>  (1) 
{"2": {"label": "donator", "atom_type": "Cs"}, "6": {"label": "d_hydrogen", "atom_type": "H0"}}

>  <type>  (1) 
r1h

$$$$

     RDKit          3D

  7  6  0  0  0  0  0  0  0  0999 V2000
    1.3002    0.7433    2.1279 C   0  0  0  0  0  0  0  0  0  0  0  0
    0.5758    0.3292    1.2319 C   0  0  0  0  0  0  0  0  0  0  0  0
   -0.2057   -0.1176    0.2652 C   0  0  0  0  0  3  0  0  0  0  0  0
   -0.9747   -0.5572   -0.6858 C   0  0  0  0  0  0  0  0  0  0  0  0
    1.9293    1.1030    2.9060 H   0  0  0  0  0  0  0  0  0  0  0  0
   -1.9977   -0.8727   -0.4932 H   0  0  0  0  0  0  0  0  0  0  0  0
   -0.6274   -0.6280   -1.7143 H   0  0  0  0  0  0  0  0  0  0  0  0
  1  2  3  0
  1  5  1  0
  2  3  1  0
  3  4  2  3
  4  6  1  0
  4  7  1  0
M  RAD  1   3   2
M  END
>  <reaction>  (2) 
rxn_1366

>  <mol_properties>  (2) 
{"2": {"label": "acceptor", "atom_type": "Cd"}}

>  <type>  (2) 
r2

$$$$

     RDKit          3D

  8  7  0  0  0  0  0  0  0  0999 V2000
    1.9029    0.9046   -0.2050 C   0  0  0  0  0  0  0  0  0  0  0  0
    0.8517    0.4283    0.1217 C   0  0  0  0  0  0  0  0  0  0  0  0
   -0.3908   -0.1311    0.5404 C   0  0  0  0  0  0  0  0  0  0  0  0
   -1.2847   -0.6576   -0.2899 C   0  0  0  0  0  0  0  0  0  0  0  0
    2.8335    1.3255   -0.5014 H   0  0  0  0  0  0  0  0  0  0  0  0
   -0.5867   -0.1096    1.6074 H   0  0  0  0  0  0  0  0  0  0  0  0
   -2.2126   -1.0686    0.0850 H   0  0  0  0  0  0  0  0  0  0  0  0
   -1.1134   -0.6914   -1.3582 H   0  0  0  0  0  0  0  0  0  0  0  0
  1  2  3  0
  1  5  1  0
  2  3  1  0
  3  4  2  3
  3  6  1  0
  4  7  1  0
  4  8  1  0
M  END
>  <reaction>  (3) 
rxn_1366

>  <mol_properties>  (3) 
{"2": {"label": "acceptor", "atom_type": "Cd"}, "7": {"label": "a_hydrogen", "atom_type": "H0"}}

>  <type>  (3) 
r2h

$$$$

     RDKit          3D

 16 14  0  0  0  0  0  0  0  0999 V2000
    3.1302    1.1802   -0.7669 C   0  0  0  0  0  0  0  0  0  0  0  0
    2.2071    1.0621    0.0003 C   0  0  0  0  0  0  0  0  0  0  0  0
    1.1000    0.8241    0.7965 C   0  0  0  0  0  3  0  0  0  0  0  0
    0.5984    1.3047    1.9137 C   0  0  0  0  0  0  0  0  0  0  0  0
    3.9523    1.3049   -1.4301 H   0  0  0  0  0  0  0  0  0  0  0  0
    1.0895    2.1059    2.4587 H   0  0  0  0  0  0  0  0  0  0  0  0
   -0.3274    0.9120    2.3195 H   0  0  0  0  0  0  0  0  0  0  0  0
   -1.0930   -0.4513   -2.6280 C   0  0  0  0  0  0  0  0  0  0  0  0
   -0.8544   -0.7765   -1.4995 C   0  0  0  0  0  0  0  0  0  0  0  0
   -0.5175   -1.1245   -0.1447 C   0  0  0  0  0  0  0  0  0  0  0  0
   -1.6038   -1.1700    0.7981 C   0  0  0  0  0  0  0  0  0  0  0  0
   -2.4826   -1.1833    1.6139 C   0  0  0  0  0  0  0  0  0  0  0  0
   -1.3153   -0.1708   -3.6293 H   0  0  0  0  0  0  0  0  0  0  0  0
    0.2667   -0.2158    0.2614 H   0  0  0  0  0  0  0  0  0  0  0  0
    0.1229   -2.0053   -0.0858 H   0  0  0  0  0  0  0  0  0  0  0  0
   -3.2732   -1.2072    2.3249 H   0  0  0  0  0  0  0  0  0  0  0  0
  1  2  3  0
  1  5  1  0
  2  3  1  0
  3  4  2  3
  4  6  1  0
  4  7  1  0
  8  9  3  0
  8 13  1  0
  9 10  1  0
 10 11  1  0
 10 14  1  0
 10 15  1  0
 11 12  3  0
 12 16  1  0
M  RAD  1   3   2
M  END
>  <reaction>  (4) 
rxn_1366

>  <mol_properties>  (4) 
{"1": {"label": "*4", "atom_type": "Ct"}, "2": {"label": "*3", "atom_type": "Cd"}, "8": {"label": "*0", "atom_type": "Ct"}, "9": {"label": "*1", "atom_type": "Cs"}, "13": {"label": "*2", "atom_type": "H0"}}

>  <type>  (4) 
ts

$$$$
