
     RDKit          3D

 12 11  0  0  0  0  0  0  0  0999 V2000
    1.2394   -0.3763   -0.3020 C   0  0  0  0  0  0  0  0  0  0  0  0
    0.1007    0.3023    0.4464 C   0  0  0  0  0  0  0  0  0  0  0  0
   -0.1187    2.0399   -0.0725 S   0  0  0  0  0  0  0  0  0  0  0  0
   -1.1974   -0.4877    0.3552 C   0  0  0  0  0  0  0  0  0  0  0  0
    2.1681    0.1849   -0.2048 H   0  0  0  0  0  0  0  0  0  0  0  0
    1.0031   -0.4606   -1.3656 H   0  0  0  0  0  0  0  0  0  0  0  0
    1.3994   -1.3856    0.0860 H   0  0  0  0  0  0  0  0  0  0  0  0
    0.3796    0.4050    1.4981 H   0  0  0  0  0  0  0  0  0  0  0  0
   -0.4500    1.7779   -1.3452 H   0  0  0  0  0  0  0  0  0  0  0  0
   -1.0545   -1.4978    0.7479 H   0  0  0  0  0  0  0  0  0  0  0  0
   -1.5206   -0.5759   -0.6849 H   0  0  0  0  0  0  0  0  0  0  0  0
   -1.9957   -0.0054    0.9183 H   0  0  0  0  0  0  0  0  0  0  0  0
  1  2  1  0
  1  5  1  0
  1  6  1  0
  1  7  1  0
  2  4  1  0
  2  3  1  0
  2  8  1  0
  3  9  1  0
  4 10  1  0
  4 11  1  0
  4 12  1  0
M  END
>  <reaction>  (1) 
rxn_1999

>  <mol_properties>  (1) 
{"1": {"label": "donator", "atom_type": "Cs"}, "7": {"label": "d_hydrogen", "atom_type": "H0"}}

>  <type>  (1) 
r1h

$$$$

     RDKit          3D

  7  6  0  0  0  0  0  0  0  0999 V2000
    1.3002    0.7433    2.1279 C   0  0  0  0  0  0  0  0  0  0  0  0
    0.5758    0.3292    1.2319 C   0  0  0  0  0  0  0  0  0  0  0  0
   -0.2057   -0.1176    0.2652 C   0  0  0  0  0  3  0  0  0  0  0  0
   -0.9747   -0.5572   -0.6858 C   0  0  0  0  0  0  0  0  0  0  0  0
    1.9293    1.1030    2.9060 H   0  0  0  0  0  0  0  0  0  0  0  0
   -1.9977   -0.8727   -0.4932 H   0  0  0  0  0  0  0  0  0  0  0  0
   -0.6274   -0.6280   -1.7143 H   0  0  0  0  0  0  0  0  0  0  0  0
  1  2  3  0
  1  5  1  0
  2  3  1  0
  3  4  2  3
  4  6  1  0
  4  7  1  0
M  RAD  1   3   2
M  END
>  <reaction>  (2) 
rxn_1999

>  <mol_properties>  (2) 
{"2": {"label": "acceptor", "atom_type": "Cd"}}

>  <type>  (2) 
r2

$$$$

     RDKit          3D

  8  7  0  0  0  0  0  0  0  0999 V2000
    1.9029    0.9046   -0.2050 C   0  0  0  0  0  0  0  0  0  0  0  0
    0.8517    0.4283    0.1217 C   0  0  0  0  0  0  0  0  0  0  0  0
   -0.3908   -0.1311    0.5404 C   0  0  0  0  0  0  0  0  0  0  0  0
   -1.2847   -0.6576   -0.2899 C   0  0  0  0  0  0  0  0  0  0  0  0
    2.8335    1.3255   -0.5014 H   0  0  0  0  0  0  0  0  0  0  0  0
   -0.5867   -0.1096    1.6074 H   0  0  0  0  0  0  0  0  0  0  0  0
   -2.2126   -1.0686    0.0850 H   0  0  0  0  0  0  0  0  0  0  0  0
   -1.1134   -0.6914   -1.3582 H   0  0  0  0  0  0  0  0  0  0  0  0
  1  2  3  0
  1  5  1  0
  2  3  1  0
  3  4  2  3
  3  6  1  0
  4  7  1  0
  4  8  1  0
M  END
>  <reaction>  (3) 
rxn_1999

>  <mol_properties>  (3) 
{"2": {"label": "acceptor", "atom_type": "Cd"}, "7": {"label": "a_hydrogen", "atom_type": "H0"}}

>  <type>  (3) 
r2h

$$$$

     RDKit          3D

 19 17  0  0  0  0  0  0  0  0999 V2000
   -2.8619   -1.0748   -1.2507 C   0  0  0  0  0  0  0  0  0  0  0  0
   -2.1103   -0.8966   -0.3244 C   0  0  0  0  0  0  0  0  0  0  0  0
   -1.1674   -0.6051    0.6564 C   0  0  0  0  0  3  0  0  0  0  0  0
   -1.0189   -0.9587    1.9181 C   0  0  0  0  0  0  0  0  0  0  0  0
   -3.5434   -1.2531   -2.0473 H   0  0  0  0  0  0  0  0  0  0  0  0
   -1.7199   -1.6226    2.4163 H   0  0  0  0  0  0  0  0  0  0  0  0
   -0.1809   -0.5874    2.4987 H   0  0  0  0  0  0  0  0  0  0  0  0
    1.0982    0.5210   -1.5789 C   0  0  0  0  0  0  0  0  0  0  0  0
    0.7370    1.0652   -0.2172 C   0  0  0  0  0  0  0  0  0  0  0  0
    2.0663    1.0670    0.9855 S   0  0  0  0  0  0  0  0  0  0  0  0
    0.0433    2.4083   -0.2397 C   0  0  0  0  0  0  0  0  0  0  0  0
    1.5169   -0.4841   -1.5096 H   0  0  0  0  0  0  0  0  0  0  0  0
    1.8305    1.1644   -2.0745 H   0  0  0  0  0  0  0  0  0  0  0  0
    0.2032    0.4697   -2.2031 H   0  0  0  0  0  0  0  0  0  0  0  0
   -0.1461    0.2601    0.2171 H   0  0  0  0  0  0  0  0  0  0  0  0
    2.5168   -0.1696    0.7343 H   0  0  0  0  0  0  0  0  0  0  0  0
   -0.8616    2.3395   -0.8464 H   0  0  0  0  0  0  0  0  0  0  0  0
    0.6874    3.1775   -0.6757 H   0  0  0  0  0  0  0  0  0  0  0  0
   -0.2443    2.7272    0.7630 H   0  0  0  0  0  0  0  0  0  0  0  0
  1  2  3  0
  1  5  1  0
  2  3  1  0
  3  4  2  3
  4  6  1  0
  4  7  1  0
  8  9  1  0
  8 12  1  0
  8 13  1  0
  8 14  1  0
  9 11  1  0
  9 10  1  0
  9 15  1  0
 10 16  1  0
 11 17  1  0
 11 18  1  0
 11 19  1  0
M  RAD  1   3   2
M  END
>  <reaction>  (4) 
rxn_1999

>  <mol_properties>  (4) 
{"1": {"label": "*4", "atom_type": "Ct"}, "2": {"label": "*3", "atom_type": "Cd"}, "8": {"label": "*1", "atom_type": "Cs"}, "9": {"label": "*0", "atom_type": "S2s"}, "14": {"label": "*2", "atom_type": "H0"}}

>  <type>  (4) 
ts

$$$$
