
     RDKit          3D

  6  5  0  0  0  0  0  0  0  0999 V2000
   -0.5072   -0.0291   -0.0097 C   0  0  0  0  0  0  0  0  0  0  0  0
    1.1321   -0.1527   -0.7687 S   0  0  0  0  0  0  0  0  0  0  0  0
   -0.6174   -0.7330    0.8127 H   0  0  0  0  0  0  0  0  0  0  0  0
   -0.5863    0.9827    0.3845 H   0  0  0  0  0  0  0  0  0  0  0  0
   -1.2962   -0.1800   -0.7434 H   0  0  0  0  0  0  0  0  0  0  0  0
    1.0312   -1.4237   -1.1764 H   0  0  0  0  0  0  0  0  0  0  0  0
  1  2  1  0
  1  3  1  0
  1  4  1  0
  1  5  1  0
  2  6  1  0
M  END
>  <reaction>  (1) 
rxn_1859

>  <mol_properties>  (1) 
{"0": {"label": "donator", "atom_type": "Cs"}, "2": {"label": "d_hydrogen", "atom_type": "H0"}}

>  <type>  (1) 
r1h

$$$$

     RDKit          3D

  6  5  0  0  0  0  0  0  0  0999 V2000
   -0.5044    0.1172    0.0330 C   0  0  0  0  0  0  0  0  0  0  0  0
    0.9510    0.1169    0.2268 C   0  0  0  0  0  3  0  0  0  0  0  0
    2.2110   -0.6566   -0.2666 S   0  0  0  0  0  0  0  0  0  0  0  0
   -0.8466   -0.6499   -0.6685 H   0  0  0  0  0  0  0  0  0  0  0  0
   -0.8173    1.1017   -0.3238 H   0  0  0  0  0  0  0  0  0  0  0  0
   -0.9937   -0.0294    0.9991 H   0  0  0  0  0  0  0  0  0  0  0  0
  1  2  1  0
  1  4  1  0
  1  5  1  0
  1  6  1  0
  2  3  2  0
M  RAD  1   2   2
M  END
>  <reaction>  (2) 
rxn_1859

>  <mol_properties>  (2) 
{"1": {"label": "acceptor", "atom_type": "CS"}}

>  <type>  (2) 
r2

$$$$

     RDKit          3D

  7  6  0  0  0  0  0  0  0  0999 V2000
   -0.6782    0.0507    0.0301 C   0  0  0  0  0  0  0  0  0  0  0  0
    0.8092    0.0996    0.0213 C   0  0  0  0  0  0  0  0  0  0  0  0
    1.7473    0.7521    1.1507 S   0  0  0  0  0  0  0  0  0  0  0  0
   -1.0667    0.5456   -0.8653 H   0  0  0  0  0  0  0  0  0  0  0  0
   -1.0112   -0.9904   -0.0239 H   0  0  0  0  0  0  0  0  0  0  0  0
   -1.0920    0.5225    0.9188 H   0  0  0  0  0  0  0  0  0  0  0  0
    1.2740   -0.3620   -0.8520 H   0  0  0  0  0  0  0  0  0  0  0  0
  1  2  1  0
  1  4  1  0
  1  5  1  0
  1  6  1  0
  2  3  2  0
  2  7  1  0
M  END
>  <reaction>  (3) 
rxn_1859

>  <mol_properties>  (3) 
{"0": {"label": "a_hydrogen", "atom_type": "H0"}, "2": {"label": "acceptor", "atom_type": "CS"}}

>  <type>  (3) 
r2h

$$$$

     RDKit          3D

 12 10  0  0  0  0  0  0  0  0999 V2000
   -0.5076   -1.5847   -0.3439 C   0  0  0  0  0  3  0  0  0  0  0  0
    0.0845   -1.3563   -1.9879 S   0  0  0  0  0  0  0  0  0  0  0  0
   -0.4383   -0.3651    0.2904 H   0  0  0  0  0  0  0  0  0  0  0  0
   -1.5564   -1.8703   -0.3580 H   0  0  0  0  0  0  0  0  0  0  0  0
    0.0983   -2.2389    0.2786 H   0  0  0  0  0  0  0  0  0  0  0  0
    1.3308   -0.9842   -1.6648 H   0  0  0  0  0  0  0  0  0  0  0  0
   -1.3623    1.2065    1.7559 C   0  0  0  0  0  0  0  0  0  0  0  0
   -0.2552    0.8326    0.8454 C   0  0  0  0  0  0  0  0  0  0  0  0
    1.0602    1.6172    0.4306 S   0  0  0  0  0  0  0  0  0  0  0  0
   -1.2177    2.1844    2.2157 H   0  0  0  0  0  0  0  0  0  0  0  0
   -1.4623    0.4439    2.5337 H   0  0  0  0  0  0  0  0  0  0  0  0
   -2.3016    1.1990    1.1951 H   0  0  0  0  0  0  0  0  0  0  0  0
  1  2  1  0
  1  4  1  0
  1  5  1  0
  2  6  1  0
  3  8  1  0
  7  8  1  0
  7 10  1  0
  7 11  1  0
  7 12  1  0
  8  9  2  0
M  RAD  1   1   2
M  END
>  <reaction>  (4) 
rxn_1859

>  <mol_properties>  (4) 
{"0": {"label": "*3", "atom_type": "Cs"}, "1": {"label": "*4", "atom_type": "S2s"}, "2": {"label": "*2", "atom_type": "H0"}, "7": {"label": "*1", "atom_type": "CS"}, "8": {"label": "*0", "atom_type": "S2d"}}

>  <type>  (4) 
ts

$$$$
