
     RDKit          3D

 14 13  0  0  0  0  0  0  0  0999 V2000
   -0.7647   -1.2352   -0.0348 C   0  0  0  0  0  0  0  0  0  0  0  0
    0.0570   -0.0126    0.3624 C   0  0  0  0  0  0  0  0  0  0  0  0
    1.4161   -0.0194   -0.3307 C   0  0  0  0  0  0  0  0  0  0  0  0
   -0.7022    1.2765    0.0629 C   0  0  0  0  0  0  0  0  0  0  0  0
   -0.2387   -2.1618    0.2040 H   0  0  0  0  0  0  0  0  0  0  0  0
   -0.9625   -1.2315   -1.1108 H   0  0  0  0  0  0  0  0  0  0  0  0
   -1.7273   -1.2512    0.4807 H   0  0  0  0  0  0  0  0  0  0  0  0
    0.2295   -0.0589    1.4432 H   0  0  0  0  0  0  0  0  0  0  0  0
    1.2933    0.0260   -1.4168 H   0  0  0  0  0  0  0  0  0  0  0  0
    2.0206    0.8381   -0.0278 H   0  0  0  0  0  0  0  0  0  0  0  0
    1.9767   -0.9269   -0.0966 H   0  0  0  0  0  0  0  0  0  0  0  0
   -1.6639    1.3001    0.5798 H   0  0  0  0  0  0  0  0  0  0  0  0
   -0.8977    1.3664   -1.0097 H   0  0  0  0  0  0  0  0  0  0  0  0
   -0.1313    2.1545    0.3722 H   0  0  0  0  0  0  0  0  0  0  0  0
  1  2  1  0
  1  5  1  0
  1  6  1  0
  1  7  1  0
  2  3  1  0
  2  4  1  0
  2  8  1  0
  3  9  1  0
  3 10  1  0
  3 11  1  0
  4 12  1  0
  4 13  1  0
  4 14  1  0
M  END
>  <reaction>  (1) 
rxn_973

>  <mol_properties>  (1) 
{"1": {"label": "donator", "atom_type": "Cs"}, "7": {"label": "d_hydrogen", "atom_type": "H0"}}

>  <type>  (1) 
r1h

$$$$

     RDKit          3D

  5  4  0  0  0  0  0  0  0  0999 V2000
   -0.5642    0.0794    0.0348 C   0  0  0  0  0  3  0  0  0  0  0  0
    1.0624    0.5420    0.2853 S   0  0  0  0  0  0  0  0  0  0  0  0
   -1.3257    0.7631    0.3741 H   0  0  0  0  0  0  0  0  0  0  0  0
   -0.8236   -0.8519   -0.4401 H   0  0  0  0  0  0  0  0  0  0  0  0
    1.6511   -0.5325   -0.2540 H   0  0  0  0  0  0  0  0  0  0  0  0
  1  2  1  0
  1  3  1  0
  1  4  1  0
  2  5  1  0
M  RAD  1   1   2
M  END
>  <reaction>  (2) 
rxn_973

>  <mol_properties>  (2) 
{"0": {"label": "acceptor", "atom_type": "Cs"}}

>  <type>  (2) 
r2

$$$$

     RDKit          3D

  6  5  0  0  0  0  0  0  0  0999 V2000
   -0.5072   -0.0291   -0.0097 C   0  0  0  0  0  0  0  0  0  0  0  0
    1.1321   -0.1527   -0.7687 S   0  0  0  0  0  0  0  0  0  0  0  0
   -0.6174   -0.7330    0.8127 H   0  0  0  0  0  0  0  0  0  0  0  0
   -0.5863    0.9827    0.3845 H   0  0  0  0  0  0  0  0  0  0  0  0
   -1.2962   -0.1800   -0.7434 H   0  0  0  0  0  0  0  0  0  0  0  0
    1.0312   -1.4237   -1.1764 H   0  0  0  0  0  0  0  0  0  0  0  0
  1  2  1  0
  1  3  1  0
  1  4  1  0
  1  5  1  0
  2  6  1  0
M  END
>  <reaction>  (3) 
rxn_973

>  <mol_properties>  (3) 
{"0": {"label": "acceptor", "atom_type": "Cs"}, "5": {"label": "a_hydrogen", "atom_type": "H0"}}

>  <type>  (3) 
r2h

$$$$

     RDKit          3D

 19 17  0  0  0  0  0  0  0  0999 V2000
    1.2974   -0.7583   -0.0032 C   0  0  0  0  0  3  0  0  0  0  0  0
    1.3653   -0.5848    1.7592 S   0  0  0  0  0  0  0  0  0  0  0  0
    1.1484   -1.8045   -0.2586 H   0  0  0  0  0  0  0  0  0  0  0  0
    2.1393   -0.3211   -0.5340 H   0  0  0  0  0  0  0  0  0  0  0  0
    1.6017    0.7331    1.7931 H   0  0  0  0  0  0  0  0  0  0  0  0
   -0.8327    0.4738   -2.4045 C   0  0  0  0  0  0  0  0  0  0  0  0
   -0.9233    0.4690   -0.8979 C   0  0  0  0  0  0  0  0  0  0  0  0
   -0.8401    1.8380   -0.2681 C   0  0  0  0  0  0  0  0  0  0  0  0
   -2.0272   -0.3962   -0.3416 C   0  0  0  0  0  0  0  0  0  0  0  0
    0.0468    1.0225   -2.7489 H   0  0  0  0  0  0  0  0  0  0  0  0
   -1.7138    0.9536   -2.8476 H   0  0  0  0  0  0  0  0  0  0  0  0
   -0.7780   -0.5418   -2.8028 H   0  0  0  0  0  0  0  0  0  0  0  0
    0.1813   -0.1331   -0.4884 H   0  0  0  0  0  0  0  0  0  0  0  0
   -1.7164    2.4436   -0.5297 H   0  0  0  0  0  0  0  0  0  0  0  0
   -0.8028    1.7679    0.8213 H   0  0  0  0  0  0  0  0  0  0  0  0
    0.0456    2.3799   -0.6084 H   0  0  0  0  0  0  0  0  0  0  0  0
   -1.9949   -1.4024   -0.7652 H   0  0  0  0  0  0  0  0  0  0  0  0
   -3.0119    0.0279   -0.5727 H   0  0  0  0  0  0  0  0  0  0  0  0
   -1.9489   -0.4814    0.7445 H   0  0  0  0  0  0  0  0  0  0  0  0
  1  2  1  0
  1  3  1  0
  1  4  1  0
  2  5  1  0
  6  7  1  0
  6 10  1  0
  6 11  1  0
  6 12  1  0
  7  8  1  0
  7  9  1  0
  7 13  1  0
  8 14  1  0
  8 15  1  0
  8 16  1  0
  9 17  1  0
  9 18  1  0
  9 19  1  0
M  RAD  1   1   2
M  END
>  <reaction>  (4) 
rxn_973

>  <mol_properties>  (4) 
{"0": {"label": "*3", "atom_type": "Cs"}, "1": {"label": "*4", "atom_type": "S2s"}, "5": {"label": "*0", "atom_type": "Cs"}, "6": {"label": "*1", "atom_type": "Cs"}, "12": {"label": "*2", "atom_type": "H0"}}

>  <type>  (4) 
ts

$$$$
