
     RDKit          3D

 16 15  0  0  0  0  0  0  0  0999 V2000
    1.7961   -0.3807    1.6176 C   0  0  0  0  0  0  0  0  0  0  0  0
    0.8562   -0.8708    0.8256 C   0  0  0  0  0  0  0  0  0  0  0  0
    0.0895   -0.0826   -0.2048 C   0  0  0  0  0  0  0  0  0  0  0  0
   -1.4061   -0.1111    0.0982 C   0  0  0  0  0  0  0  0  0  0  0  0
    0.4476   -0.5902   -1.5797 C   0  0  0  0  0  0  0  0  0  0  0  0
   -0.3793   -1.1113   -2.4728 C   0  0  0  0  0  0  0  0  0  0  0  0
    2.3110   -1.0032    2.3386 H   0  0  0  0  0  0  0  0  0  0  0  0
    2.0846    0.6643    1.5737 H   0  0  0  0  0  0  0  0  0  0  0  0
    0.5921   -1.9241    0.8925 H   0  0  0  0  0  0  0  0  0  0  0  0
    0.4358    0.9557   -0.1462 H   0  0  0  0  0  0  0  0  0  0  0  0
   -1.5968    0.3080    1.0865 H   0  0  0  0  0  0  0  0  0  0  0  0
   -1.9674    0.4693   -0.6359 H   0  0  0  0  0  0  0  0  0  0  0  0
   -1.7902   -1.1338    0.0883 H   0  0  0  0  0  0  0  0  0  0  0  0
    1.5049   -0.5197   -1.8214 H   0  0  0  0  0  0  0  0  0  0  0  0
   -1.4421   -1.2131   -2.2889 H   0  0  0  0  0  0  0  0  0  0  0  0
   -0.0162   -1.4558   -3.4328 H   0  0  0  0  0  0  0  0  0  0  0  0
  1  2  2  3
  1  7  1  0
  1  8  1  0
  2  3  1  0
  2  9  1  0
  3  4  1  0
  3  5  1  0
  3 10  1  0
  4 11  1  0
  4 12  1  0
  4 13  1  0
  5  6  2  3
  5 14  1  0
  6 15  1  0
  6 16  1  0
M  END
>  <reaction>  (1) 
rxn_1205

>  <mol_properties>  (1) 
{"2": {"label": "donator", "atom_type": "Cs"}, "9": {"label": "d_hydrogen", "atom_type": "H0"}}

>  <type>  (1) 
r1h

$$$$

     RDKit          3D

 10  9  0  0  0  0  0  0  0  0999 V2000
   -1.2648    0.1959    0.8197 C   0  0  0  0  0  0  0  0  0  0  0  0
   -0.2805    0.0995   -0.3030 C   0  0  0  0  0  3  0  0  0  0  0  0
   -0.0444    1.1347   -1.1797 C   0  0  0  0  0  0  0  0  0  0  0  0
    0.1640    2.0467   -1.9525 C   0  0  0  0  0  0  0  0  0  0  0  0
    0.5686   -1.4168   -0.4488 S   0  0  0  0  0  0  0  0  0  0  0  0
   -2.0466   -0.5638    0.7258 H   0  0  0  0  0  0  0  0  0  0  0  0
   -0.7765    0.0454    1.7871 H   0  0  0  0  0  0  0  0  0  0  0  0
   -1.7371    1.1762    0.8222 H   0  0  0  0  0  0  0  0  0  0  0  0
    0.3433    2.8484   -2.6273 H   0  0  0  0  0  0  0  0  0  0  0  0
    1.3075   -1.0953   -1.5176 H   0  0  0  0  0  0  0  0  0  0  0  0
  1  2  1  0
  1  6  1  0
  1  7  1  0
  1  8  1  0
  2  3  1  0
  2  5  1  0
  3  4  3  0
  4  9  1  0
  5 10  1  0
M  RAD  1   2   2
M  END
>  <reaction>  (2) 
rxn_1205

>  <mol_properties>  (2) 
{"1": {"label": "acceptor", "atom_type": "Cs"}}

>  <type>  (2) 
r2

$$$$

     RDKit          3D

 11 10  0  0  0  0  0  0  0  0999 V2000
   -1.2582   -0.5130    0.2160 C   0  0  0  0  0  0  0  0  0  0  0  0
   -0.1109    0.0509   -0.6210 C   0  0  0  0  0  0  0  0  0  0  0  0
    1.1862   -0.2025   -0.0072 C   0  0  0  0  0  0  0  0  0  0  0  0
    2.2351   -0.4206    0.5274 C   0  0  0  0  0  0  0  0  0  0  0  0
   -0.3298    1.8272   -1.0120 S   0  0  0  0  0  0  0  0  0  0  0  0
   -1.2875   -0.0327    1.1945 H   0  0  0  0  0  0  0  0  0  0  0  0
   -2.2088   -0.3391   -0.2866 H   0  0  0  0  0  0  0  0  0  0  0  0
   -1.1220   -1.5854    0.3655 H   0  0  0  0  0  0  0  0  0  0  0  0
   -0.1222   -0.4181   -1.6078 H   0  0  0  0  0  0  0  0  0  0  0  0
    3.1729   -0.6098    0.9920 H   0  0  0  0  0  0  0  0  0  0  0  0
   -0.1942    2.2663    0.2466 H   0  0  0  0  0  0  0  0  0  0  0  0
  1  2  1  0
  1  6  1  0
  1  7  1  0
  1  8  1  0
  2  3  1  0
  2  5  1  0
  2  9  1  0
  3  4  3  0
  4 10  1  0
  5 11  1  0
M  END
>  <reaction>  (3) 
rxn_1205

>  <mol_properties>  (3) 
{"1": {"label": "acceptor", "atom_type": "Cs"}, "10": {"label": "a_hydrogen", "atom_type": "H0"}}

>  <type>  (3) 
r2h

$$$$

     RDKit          3D

 26 24  0  0  0  0  0  0  0  0999 V2000
   -0.0105    2.3020    0.7062 C   0  0  0  0  0  0  0  0  0  0  0  0
    0.0876    1.3338   -0.4506 C   0  0  0  0  0  3  0  0  0  0  0  0
    1.3557    1.1988   -1.0739 C   0  0  0  0  0  0  0  0  0  0  0  0
    2.4414    1.0378   -1.5662 C   0  0  0  0  0  0  0  0  0  0  0  0
   -1.2530    1.3608   -1.6317 S   0  0  0  0  0  0  0  0  0  0  0  0
   -0.0323    3.3344    0.3498 H   0  0  0  0  0  0  0  0  0  0  0  0
   -0.9205    2.1135    1.2789 H   0  0  0  0  0  0  0  0  0  0  0  0
    0.8478    2.1807    1.3675 H   0  0  0  0  0  0  0  0  0  0  0  0
    3.3973    0.9004   -2.0110 H   0  0  0  0  0  0  0  0  0  0  0  0
   -2.2310    1.3386   -0.7135 H   0  0  0  0  0  0  0  0  0  0  0  0
    1.1610   -2.6772   -0.4166 C   0  0  0  0  0  0  0  0  0  0  0  0
    0.0233   -2.0149   -0.2194 C   0  0  0  0  0  0  0  0  0  0  0  0
   -0.2441   -1.0267    0.8400 C   0  0  0  0  0  0  0  0  0  0  0  0
    0.7968   -0.8847    1.9255 C   0  0  0  0  0  0  0  0  0  0  0  0
   -1.6607   -0.9456    1.2366 C   0  0  0  0  0  0  0  0  0  0  0  0
   -2.1461   -0.5424    2.4108 C   0  0  0  0  0  0  0  0  0  0  0  0
    1.2652   -3.3611   -1.2486 H   0  0  0  0  0  0  0  0  0  0  0  0
    2.0172   -2.5684    0.2371 H   0  0  0  0  0  0  0  0  0  0  0  0
   -0.7941   -2.1731   -0.9178 H   0  0  0  0  0  0  0  0  0  0  0  0
   -0.0915    0.0834    0.1759 H   0  0  0  0  0  0  0  0  0  0  0  0
    1.7812   -0.7030    1.4922 H   0  0  0  0  0  0  0  0  0  0  0  0
    0.5697   -0.0458    2.5830 H   0  0  0  0  0  0  0  0  0  0  0  0
    0.8522   -1.7896    2.5364 H   0  0  0  0  0  0  0  0  0  0  0  0
   -2.3683   -1.2279    0.4609 H   0  0  0  0  0  0  0  0  0  0  0  0
   -1.5080   -0.2598    3.2388 H   0  0  0  0  0  0  0  0  0  0  0  0
   -3.2137   -0.5031    2.5834 H   0  0  0  0  0  0  0  0  0  0  0  0
  1  2  1  0
  1  6  1  0
  1  7  1  0
  1  8  1  0
  2  3  1  0
  2  5  1  0
  3  4  3  0
  4  9  1  0
  5 10  1  0
 11 12  2  3
 11 17  1  0
 11 18  1  0
 12 13  1  0
 12 19  1  0
 13 14  1  0
 13 15  1  0
 13 20  1  0
 14 21  1  0
 14 22  1  0
 14 23  1  0
 15 16  2  3
 15 24  1  0
 16 25  1  0
 16 26  1  0
M  RAD  1   2   2
M  END
>  <reaction>  (4) 
rxn_1205

>  <mol_properties>  (4) 
{"1": {"label": "*3", "atom_type": "Cs"}, "4": {"label": "*4", "atom_type": "S2s"}, "11": {"label": "*0", "atom_type": "Cd"}, "12": {"label": "*1", "atom_type": "Cs"}, "19": {"label": "*2", "atom_type": "H0"}}

>  <type>  (4) 
ts

$$$$
