
     RDKit          3D

  9  8  0  0  0  0  0  0  0  0999 V2000
   -0.9895    0.3048    0.1041 C   0  0  0  0  0  0  0  0  0  0  0  0
    0.3761   -0.3562    0.0721 C   0  0  0  0  0  0  0  0  0  0  0  0
    0.3441   -1.6564   -0.4834 O   0  0  0  0  0  0  0  0  0  0  0  0
   -1.6997   -0.3114    0.6572 H   0  0  0  0  0  0  0  0  0  0  0  0
   -0.9320    1.2848    0.5822 H   0  0  0  0  0  0  0  0  0  0  0  0
   -1.3774    0.4507   -0.9077 H   0  0  0  0  0  0  0  0  0  0  0  0
    0.7581   -0.4813    1.0862 H   0  0  0  0  0  0  0  0  0  0  0  0
    1.0900    0.2787   -0.4681 H   0  0  0  0  0  0  0  0  0  0  0  0
    0.0089   -1.5959   -1.3792 H   0  0  0  0  0  0  0  0  0  0  0  0
  1  2  1  0
  1  4  1  0
  1  5  1  0
  1  6  1  0
  2  3  1  0
  2  7  1  0
  2  8  1  0
  3  9  1  0
M  END
>  <reaction>  (1) 
rxn_223

>  <mol_properties>  (1) 
{"0": {"label": "donator", "atom_type": "Cs"}, "3": {"label": "d_hydrogen", "atom_type": "H0"}}

>  <type>  (1) 
r1h

$$$$

     RDKit          3D

  1  0  0  0  0  0  0  0  0  0999 V2000
    0.0000    0.0000    0.0000 O   0  0  0  0  0 15  0  0  0  0  0  0
M  END
>  <reaction>  (2) 
rxn_223

>  <mol_properties>  (2) 
{"0": {"label": "acceptor", "atom_type": "O2s"}}

>  <type>  (2) 
r2

$$$$

     RDKit          3D

  2  1  0  0  0  0  0  0  0  0999 V2000
    0.0000    0.0000    0.4855 O   0  0  0  0  0  1  0  0  0  0  0  0
    0.0000    0.0000   -0.4855 H   0  0  0  0  0  0  0  0  0  0  0  0
  1  2  1  0
M  RAD  1   1   2
M  END
>  <reaction>  (3) 
rxn_223

>  <mol_properties>  (3) 
{"0": {"label": "a_hydrogen", "atom_type": "H0"}, "1": {"label": "acceptor", "atom_type": "O2s"}}

>  <type>  (3) 
r2h

$$$$

     RDKit          3D

 10  8  0  0  0  0  0  0  0  0999 V2000
    0.5498    0.3452    0.8858 C   0  0  0  0  0  3  0  0  0  0  0  0
    0.4703   -1.0237    0.2741 C   0  0  0  0  0  0  0  0  0  0  0  0
    0.5280   -1.0222   -1.1316 O   0  0  0  0  0  0  0  0  0  0  0  0
   -0.4889    0.9955    0.4834 H   0  0  0  0  0  0  0  0  0  0  0  0
    0.4492    0.3599    1.9700 H   0  0  0  0  0  0  0  0  0  0  0  0
    1.3762    0.9647    0.5379 H   0  0  0  0  0  0  0  0  0  0  0  0
   -0.4754   -1.4989    0.5383 H   0  0  0  0  0  0  0  0  0  0  0  0
    1.2717   -1.6459    0.7038 H   0  0  0  0  0  0  0  0  0  0  0  0
    1.3586   -0.6345   -1.4118 H   0  0  0  0  0  0  0  0  0  0  0  0
   -1.5032    1.5749    0.1380 O   0  0  0  0  0  1  0  0  0  0  0  0
  1  2  1  0
  1  5  1  0
  1  6  1  0
  2  3  1  0
  2  7  1  0
  2  8  1  0
  3  9  1  0
  4 10  1  0
M  RAD  2   1   2  10   2
M  END
>  <reaction>  (4) 
rxn_223

>  <mol_properties>  (4) 
{"0": {"label": "*3", "atom_type": "Cs"}, "1": {"label": "*4", "atom_type": "Cs"}, "3": {"label": "*2", "atom_type": "H0"}, "9": {"label": "*1", "atom_type": "O2s"}}

>  <type>  (4) 
ts

$$$$
