
     RDKit          3D

  9  8  0  0  0  0  0  0  0  0999 V2000
   -0.8818   -0.3578    0.1297 C   0  0  0  0  0  0  0  0  0  0  0  0
    0.6153   -0.3021   -0.1188 C   0  0  0  0  0  0  0  0  0  0  0  0
    1.5354   -1.7170    0.5545 S   0  0  0  0  0  0  0  0  0  0  0  0
   -1.1018   -0.3317    1.1984 H   0  0  0  0  0  0  0  0  0  0  0  0
   -1.3114   -1.2723   -0.2799 H   0  0  0  0  0  0  0  0  0  0  0  0
   -1.3767    0.4976   -0.3363 H   0  0  0  0  0  0  0  0  0  0  0  0
    1.0467    0.6194    0.2718 H   0  0  0  0  0  0  0  0  0  0  0  0
    0.8295   -0.3275   -1.1882 H   0  0  0  0  0  0  0  0  0  0  0  0
    1.2306   -1.5077    1.8423 H   0  0  0  0  0  0  0  0  0  0  0  0
  1  2  1  0
  1  4  1  0
  1  5  1  0
  1  6  1  0
  2  3  1  0
  2  7  1  0
  2  8  1  0
  3  9  1  0
M  END
>  <reaction>  (1) 
rxn_1902

>  <mol_properties>  (1) 
{"1": {"label": "donator", "atom_type": "Cs"}, "6": {"label": "d_hydrogen", "atom_type": "H0"}}

>  <type>  (1) 
r1h

$$$$

     RDKit          3D

  6  5  0  0  0  0  0  0  0  0999 V2000
   -0.5044    0.1171    0.0332 C   0  0  0  0  0  0  0  0  0  0  0  0
    0.9512    0.1178    0.2257 C   0  0  0  0  0  3  0  0  0  0  0  0
    2.2111   -0.6562   -0.2671 S   0  0  0  0  0  0  0  0  0  0  0  0
   -0.8469   -0.6516   -0.6665 H   0  0  0  0  0  0  0  0  0  0  0  0
   -0.8181    1.1007   -0.3253 H   0  0  0  0  0  0  0  0  0  0  0  0
   -0.9929   -0.0278    1.0000 H   0  0  0  0  0  0  0  0  0  0  0  0
  1  2  1  0
  1  4  1  0
  1  5  1  0
  1  6  1  0
  2  3  2  0
M  RAD  1   2   2
M  END
>  <reaction>  (2) 
rxn_1902

>  <mol_properties>  (2) 
{"1": {"label": "acceptor", "atom_type": "CS"}}

>  <type>  (2) 
r2

$$$$

     RDKit          3D

  7  6  0  0  0  0  0  0  0  0999 V2000
   -0.6782    0.0507    0.0301 C   0  0  0  0  0  0  0  0  0  0  0  0
    0.8092    0.0996    0.0213 C   0  0  0  0  0  0  0  0  0  0  0  0
    1.7473    0.7521    1.1507 S   0  0  0  0  0  0  0  0  0  0  0  0
   -1.0667    0.5456   -0.8653 H   0  0  0  0  0  0  0  0  0  0  0  0
   -1.0112   -0.9904   -0.0239 H   0  0  0  0  0  0  0  0  0  0  0  0
   -1.0920    0.5225    0.9188 H   0  0  0  0  0  0  0  0  0  0  0  0
    1.2740   -0.3620   -0.8520 H   0  0  0  0  0  0  0  0  0  0  0  0
  1  2  1  0
  1  4  1  0
  1  5  1  0
  1  6  1  0
  2  3  2  0
  2  7  1  0
M  END
>  <reaction>  (3) 
rxn_1902

>  <mol_properties>  (3) 
{"0": {"label": "a_hydrogen", "atom_type": "H0"}, "2": {"label": "acceptor", "atom_type": "CS"}}

>  <type>  (3) 
r2h

$$$$

     RDKit          3D

 15 13  0  0  0  0  0  0  0  0999 V2000
   -1.8446    0.0374   -1.7656 C   0  0  0  0  0  0  0  0  0  0  0  0
   -0.7908    0.7257   -0.9414 C   0  0  0  0  0  3  0  0  0  0  0  0
    0.0471    2.1171   -1.6606 S   0  0  0  0  0  0  0  0  0  0  0  0
   -1.4188   -0.3518   -2.6931 H   0  0  0  0  0  0  0  0  0  0  0  0
   -2.6594    0.7189   -2.0256 H   0  0  0  0  0  0  0  0  0  0  0  0
   -2.2629   -0.8071   -1.2147 H   0  0  0  0  0  0  0  0  0  0  0  0
    0.1517   -0.2339   -0.7319 H   0  0  0  0  0  0  0  0  0  0  0  0
   -1.1102    1.0084    0.0610 H   0  0  0  0  0  0  0  0  0  0  0  0
    0.3654    1.5275   -2.8226 H   0  0  0  0  0  0  0  0  0  0  0  0
    2.1313   -0.7055    0.3604 C   0  0  0  0  0  0  0  0  0  0  0  0
    1.1416   -1.1323   -0.6544 C   0  0  0  0  0  0  0  0  0  0  0  0
    1.1348   -2.3668   -1.6533 S   0  0  0  0  0  0  0  0  0  0  0  0
    3.0007   -1.3619    0.4048 H   0  0  0  0  0  0  0  0  0  0  0  0
    1.6463   -0.6689    1.3404 H   0  0  0  0  0  0  0  0  0  0  0  0
    2.4454    0.3182    0.1353 H   0  0  0  0  0  0  0  0  0  0  0  0
  1  2  1  0
  1  4  1  0
  1  5  1  0
  1  6  1  0
  2  3  1  0
  2  8  1  0
  3  9  1  0
  7 11  1  0
 10 11  1  0
 10 13  1  0
 10 14  1  0
 10 15  1  0
 11 12  2  0
M  RAD  1   2   2
M  END
>  <reaction>  (4) 
rxn_1902

>  <mol_properties>  (4) 
{"1": {"label": "*3", "atom_type": "Cs"}, "2": {"label": "*4", "atom_type": "S2s"}, "6": {"label": "*2", "atom_type": "H0"}, "10": {"label": "*1", "atom_type": "CS"}, "11": {"label": "*0", "atom_type": "S2d"}}

>  <type>  (4) 
ts

$$$$
