
     RDKit          3D

  9  8  0  0  0  0  0  0  0  0999 V2000
    1.1303   -0.2933   -0.7510 C   0  0  0  0  0  0  0  0  0  0  0  0
    0.2866    0.4560   -0.0588 C   0  0  0  0  0  0  0  0  0  0  0  0
   -0.9719   -0.0331    0.5823 C   0  0  0  0  0  0  0  0  0  0  0  0
    2.0274    0.1230   -1.1916 H   0  0  0  0  0  0  0  0  0  0  0  0
    0.9532   -1.3530   -0.9023 H   0  0  0  0  0  0  0  0  0  0  0  0
    0.5065    1.5132    0.0659 H   0  0  0  0  0  0  0  0  0  0  0  0
   -0.9526    0.1426    1.6610 H   0  0  0  0  0  0  0  0  0  0  0  0
   -1.1182   -1.1002    0.4106 H   0  0  0  0  0  0  0  0  0  0  0  0
   -1.8412    0.5010    0.1901 H   0  0  0  0  0  0  0  0  0  0  0  0
  1  2  2  3
  1  4  1  0
  1  5  1  0
  2  3  1  0
  2  6  1  0
  3  7  1  0
  3  8  1  0
  3  9  1  0
M  END
>  <reaction>  (1) 
rxn_16

>  <mol_properties>  (1) 
{"2": {"label": "donator", "atom_type": "Cs"}, "6": {"label": "d_hydrogen", "atom_type": "H0"}}

>  <type>  (1) 
r1h

$$$$

     RDKit          3D

 14 13  0  0  0  0  0  0  0  0999 V2000
    0.2521    0.4906   -1.4015 C   0  0  0  0  0  3  0  0  0  0  0  0
   -0.0866    0.3929    0.0443 C   0  0  0  0  0  0  0  0  0  0  0  0
    0.6293   -0.7656    0.7333 C   0  0  0  0  0  0  0  0  0  0  0  0
    0.1728    1.7296    0.7547 C   0  0  0  0  0  0  0  0  0  0  0  0
    1.5347    2.0949    0.7702 O   0  0  0  0  0  0  0  0  0  0  0  0
    0.7767   -0.3051   -1.9138 H   0  0  0  0  0  0  0  0  0  0  0  0
   -0.1241    1.3153   -1.9956 H   0  0  0  0  0  0  0  0  0  0  0  0
   -1.1732    0.2277    0.1303 H   0  0  0  0  0  0  0  0  0  0  0  0
    1.7087   -0.6089    0.7251 H   0  0  0  0  0  0  0  0  0  0  0  0
    0.3122   -0.8555    1.7736 H   0  0  0  0  0  0  0  0  0  0  0  0
    0.4148   -1.7097    0.2299 H   0  0  0  0  0  0  0  0  0  0  0  0
   -0.4359    2.5125    0.2826 H   0  0  0  0  0  0  0  0  0  0  0  0
   -0.1321    1.6566    1.8001 H   0  0  0  0  0  0  0  0  0  0  0  0
    1.8520    2.0832   -0.1363 H   0  0  0  0  0  0  0  0  0  0  0  0
  1  2  1  0
  1  6  1  0
  1  7  1  0
  2  3  1  0
  2  4  1  0
  2  8  1  0
  3  9  1  0
  3 10  1  0
  3 11  1  0
  4  5  1  0
  4 12  1  0
  4 13  1  0
  5 14  1  0
M  RAD  1   1   2
M  END
>  <reaction>  (2) 
rxn_16

>  <mol_properties>  (2) 
{"0": {"label": "acceptor", "atom_type": "Cs"}}

>  <type>  (2) 
r2

$$$$

     RDKit          3D

 15 14  0  0  0  0  0  0  0  0999 V2000
   -0.6986    1.3248   -0.1642 C   0  0  0  0  0  0  0  0  0  0  0  0
   -0.2590   -0.0343    0.3671 C   0  0  0  0  0  0  0  0  0  0  0  0
   -0.4735   -0.1428    1.8733 C   0  0  0  0  0  0  0  0  0  0  0  0
   -0.9840   -1.1723   -0.3462 C   0  0  0  0  0  0  0  0  0  0  0  0
   -0.7804   -1.1913   -1.7444 O   0  0  0  0  0  0  0  0  0  0  0  0
   -0.1247    2.1306    0.2975 H   0  0  0  0  0  0  0  0  0  0  0  0
   -1.7558    1.4964    0.0579 H   0  0  0  0  0  0  0  0  0  0  0  0
   -0.5709    1.3851   -1.2450 H   0  0  0  0  0  0  0  0  0  0  0  0
    0.8141   -0.1541    0.1668 H   0  0  0  0  0  0  0  0  0  0  0  0
   -1.5347   -0.0466    2.1192 H   0  0  0  0  0  0  0  0  0  0  0  0
    0.0609    0.6482    2.4019 H   0  0  0  0  0  0  0  0  0  0  0  0
   -0.1250   -1.1021    2.2619 H   0  0  0  0  0  0  0  0  0  0  0  0
   -0.6916   -2.1316    0.1012 H   0  0  0  0  0  0  0  0  0  0  0  0
   -2.0628   -1.0629   -0.2056 H   0  0  0  0  0  0  0  0  0  0  0  0
    0.1530   -1.3299   -1.9124 H   0  0  0  0  0  0  0  0  0  0  0  0
  1  2  1  0
  1  6  1  0
  1  7  1  0
  1  8  1  0
  2  3  1  0
  2  4  1  0
  2  9  1  0
  3 10  1  0
  3 11  1  0
  3 12  1  0
  4  5  1  0
  4 13  1  0
  4 14  1  0
  5 15  1  0
M  END
>  <reaction>  (3) 
rxn_16

>  <mol_properties>  (3) 
{"0": {"label": "a_hydrogen", "atom_type": "H0"}, "1": {"label": "acceptor", "atom_type": "Cs"}}

>  <type>  (3) 
r2h

$$$$

     RDKit          3D

 23 21  0  0  0  0  0  0  0  0999 V2000
    1.5114    0.2901   -2.9361 C   0  0  0  0  0  0  0  0  0  0  0  0
    1.6648   -0.0375   -1.6529 C   0  0  0  0  0  0  0  0  0  0  0  0
    1.7793    0.9116   -0.5468 C   0  0  0  0  0  0  0  0  0  0  0  0
    1.4003   -0.4651   -3.7034 H   0  0  0  0  0  0  0  0  0  0  0  0
    1.5021    1.3262   -3.2568 H   0  0  0  0  0  0  0  0  0  0  0  0
    1.6681   -1.0919   -1.3878 H   0  0  0  0  0  0  0  0  0  0  0  0
    0.6270    1.0769    0.0110 H   0  0  0  0  0  0  0  0  0  0  0  0
    2.0379    1.9261   -0.8460 H   0  0  0  0  0  0  0  0  0  0  0  0
    2.3817    0.5689    0.2919 H   0  0  0  0  0  0  0  0  0  0  0  0
   -0.5686    1.3573    0.7281 C   0  0  0  0  0  3  0  0  0  0  0  0
   -1.4031    0.1055    0.7065 C   0  0  0  0  0  0  0  0  0  0  0  0
   -1.9193   -0.2166   -0.6936 C   0  0  0  0  0  0  0  0  0  0  0  0
   -0.6426   -1.0901    1.2800 C   0  0  0  0  0  0  0  0  0  0  0  0
   -0.1513   -0.8771    2.5872 O   0  0  0  0  0  0  0  0  0  0  0  0
   -0.1618    1.6298    1.6981 H   0  0  0  0  0  0  0  0  0  0  0  0
   -0.9809    2.2034    0.1825 H   0  0  0  0  0  0  0  0  0  0  0  0
   -2.2772    0.2691    1.3580 H   0  0  0  0  0  0  0  0  0  0  0  0
   -2.5411   -1.1144   -0.6903 H   0  0  0  0  0  0  0  0  0  0  0  0
   -2.5207    0.6067   -1.0823 H   0  0  0  0  0  0  0  0  0  0  0  0
   -1.0903   -0.3762   -1.3860 H   0  0  0  0  0  0  0  0  0  0  0  0
   -1.2843   -1.9799    1.2442 H   0  0  0  0  0  0  0  0  0  0  0  0
    0.2345   -1.2952    0.6628 H   0  0  0  0  0  0  0  0  0  0  0  0
   -0.8972   -0.7526    3.1762 H   0  0  0  0  0  0  0  0  0  0  0  0
  1  2  2  3
  1  4  1  0
  1  5  1  0
  2  3  1  0
  2  6  1  0
  3  7  1  0
  3  8  1  0
  3  9  1  0
 10 11  1  0
 10 15  1  0
 10 16  1  0
 11 12  1  0
 11 13  1  0
 11 17  1  0
 12 18  1  0
 12 19  1  0
 12 20  1  0
 13 14  1  0
 13 21  1  0
 13 22  1  0
 14 23  1  0
M  RAD  1  10   2
M  END
>  <reaction>  (4) 
rxn_16

>  <mol_properties>  (4) 
{"1": {"label": "*0", "atom_type": "Cd"}, "2": {"label": "*1", "atom_type": "Cs"}, "6": {"label": "*2", "atom_type": "H0"}, "9": {"label": "*3", "atom_type": "Cs"}, "10": {"label": "*4", "atom_type": "Cs"}}

>  <type>  (4) 
ts

$$$$
