
     RDKit          3D

  6  5  0  0  0  0  0  0  0  0999 V2000
   -0.5072   -0.0291   -0.0097 C   0  0  0  0  0  0  0  0  0  0  0  0
    1.1321   -0.1527   -0.7687 S   0  0  0  0  0  0  0  0  0  0  0  0
   -0.6174   -0.7330    0.8127 H   0  0  0  0  0  0  0  0  0  0  0  0
   -0.5863    0.9827    0.3845 H   0  0  0  0  0  0  0  0  0  0  0  0
   -1.2962   -0.1800   -0.7434 H   0  0  0  0  0  0  0  0  0  0  0  0
    1.0312   -1.4237   -1.1764 H   0  0  0  0  0  0  0  0  0  0  0  0
  1  2  1  0
  1  3  1  0
  1  4  1  0
  1  5  1  0
  2  6  1  0
M  END
>  <reaction>  (1) 
rxn_1827

>  <mol_properties>  (1) 
{"0": {"label": "donator", "atom_type": "Cs"}, "2": {"label": "d_hydrogen", "atom_type": "H0"}}

>  <type>  (1) 
r1h

$$$$

     RDKit          3D

 14 14  0  0  0  0  0  0  0  0999 V2000
    2.3111    0.1295    0.0255 C   0  0  0  0  0  0  0  0  0  0  0  0
    0.9132    0.0511    0.0101 C   0  0  0  0  0  0  0  0  0  0  0  0
    0.1101    1.2180   -0.0350 C   0  0  0  0  0  3  0  0  0  0  0  0
   -1.2644    1.1347   -0.0499 C   0  0  0  0  0  0  0  0  0  0  0  0
   -1.8967   -0.1062   -0.0209 C   0  0  0  0  0  0  0  0  0  0  0  0
   -1.1306   -1.2689    0.0235 C   0  0  0  0  0  0  0  0  0  0  0  0
    0.2446   -1.1981    0.0389 C   0  0  0  0  0  0  0  0  0  0  0  0
    2.9188   -0.7647    0.0599 H   0  0  0  0  0  0  0  0  0  0  0  0
    2.8158    1.0859    0.0034 H   0  0  0  0  0  0  0  0  0  0  0  0
    0.5964    2.1860   -0.0577 H   0  0  0  0  0  0  0  0  0  0  0  0
   -1.8572    2.0404   -0.0845 H   0  0  0  0  0  0  0  0  0  0  0  0
   -2.9772   -0.1668   -0.0328 H   0  0  0  0  0  0  0  0  0  0  0  0
   -1.6191   -2.2351    0.0461 H   0  0  0  0  0  0  0  0  0  0  0  0
    0.8353   -2.1058    0.0735 H   0  0  0  0  0  0  0  0  0  0  0  0
  1  2  2  3
  1  8  1  0
  1  9  1  0
  2  3  1  0
  2  7  1  0
  3  4  1  0
  3 10  1  0
  4  5  2  0
  4 11  1  0
  5  6  1  0
  5 12  1  0
  6  7  2  0
  6 13  1  0
  7 14  1  0
M  RAD  1   3   2
M  END
>  <reaction>  (2) 
rxn_1827

>  <mol_properties>  (2) 
{"0": {"label": "acceptor", "atom_type": "Cs"}}

>  <type>  (2) 
r2

$$$$

     RDKit          3D

 15 15  0  0  0  0  0  0  0  0999 V2000
    2.2033   -0.2106   -0.1691 C   0  0  0  0  0  0  0  0  0  0  0  0
    0.7079   -0.0769   -0.0833 C   0  0  0  0  0  0  0  0  0  0  0  0
    0.0133   -0.5320    1.0332 C   0  0  0  0  0  0  0  0  0  0  0  0
   -1.3681   -0.4375    1.1023 C   0  0  0  0  0  0  0  0  0  0  0  0
   -2.0817    0.1179    0.0512 C   0  0  0  0  0  0  0  0  0  0  0  0
   -1.4017    0.5784   -1.0658 C   0  0  0  0  0  0  0  0  0  0  0  0
   -0.0203    0.4813   -1.1294 C   0  0  0  0  0  0  0  0  0  0  0  0
    2.6627   -0.1689    0.8190 H   0  0  0  0  0  0  0  0  0  0  0  0
    2.4808   -1.1663   -0.6212 H   0  0  0  0  0  0  0  0  0  0  0  0
    2.6378    0.5807   -0.7809 H   0  0  0  0  0  0  0  0  0  0  0  0
    0.5630   -0.9645    1.8617 H   0  0  0  0  0  0  0  0  0  0  0  0
   -1.8884   -0.7961    1.9818 H   0  0  0  0  0  0  0  0  0  0  0  0
   -3.1603    0.1950    0.1041 H   0  0  0  0  0  0  0  0  0  0  0  0
   -1.9485    1.0183   -1.8907 H   0  0  0  0  0  0  0  0  0  0  0  0
    0.5030    0.8475   -2.0056 H   0  0  0  0  0  0  0  0  0  0  0  0
  1  2  1  0
  1  8  1  0
  1  9  1  0
  1 10  1  0
  2  3  2  0
  2  7  1  0
  3  4  1  0
  3 11  1  0
  4  5  2  0
  4 12  1  0
  5  6  1  0
  5 13  1  0
  6  7  2  0
  6 14  1  0
  7 15  1  0
M  END
>  <reaction>  (3) 
rxn_1827

>  <mol_properties>  (3) 
{"0": {"label": "a_hydrogen", "atom_type": "H0"}, "1": {"label": "acceptor", "atom_type": "Cs"}}

>  <type>  (3) 
r2h

$$$$

     RDKit          3D

 20 19  0  0  0  0  0  0  0  0999 V2000
   -0.3638   -2.5178    0.8623 C   0  0  0  0  0  3  0  0  0  0  0  0
   -1.6675   -2.0656   -0.2334 S   0  0  0  0  0  0  0  0  0  0  0  0
    0.0275   -1.3920    1.5547 H   0  0  0  0  0  0  0  0  0  0  0  0
   -0.7230   -3.2165    1.6129 H   0  0  0  0  0  0  0  0  0  0  0  0
    0.5531   -2.8466    0.3799 H   0  0  0  0  0  0  0  0  0  0  0  0
   -0.9646   -1.2065   -0.9855 H   0  0  0  0  0  0  0  0  0  0  0  0
    0.4221   -0.2348    2.0603 C   0  0  0  0  0  0  0  0  0  0  0  0
    0.3498    0.7028    0.9388 C   0  0  0  0  0  0  0  0  0  0  0  0
    1.4006    0.8023    0.0204 C   0  0  0  0  0  0  0  0  0  0  0  0
    1.3013    1.6197   -1.0922 C   0  0  0  0  0  0  0  0  0  0  0  0
    0.1478    2.3592   -1.3158 C   0  0  0  0  0  0  0  0  0  0  0  0
   -0.9034    2.2734   -0.4135 C   0  0  0  0  0  0  0  0  0  0  0  0
   -0.8055    1.4530    0.6969 C   0  0  0  0  0  0  0  0  0  0  0  0
   -0.2871   -0.0585    2.8653 H   0  0  0  0  0  0  0  0  0  0  0  0
    1.4234   -0.4554    2.4229 H   0  0  0  0  0  0  0  0  0  0  0  0
    2.3054    0.2288    0.1882 H   0  0  0  0  0  0  0  0  0  0  0  0
    2.1287    1.6830   -1.7882 H   0  0  0  0  0  0  0  0  0  0  0  0
    0.0705    3.0000   -2.1848 H   0  0  0  0  0  0  0  0  0  0  0  0
   -1.8068    2.8474   -0.5784 H   0  0  0  0  0  0  0  0  0  0  0  0
   -1.6356    1.3817    1.3895 H   0  0  0  0  0  0  0  0  0  0  0  0
  1  2  1  0
  1  4  1  0
  1  5  1  0
  2  6  1  0
  3  7  1  0
  7  8  1  0
  7 14  1  0
  7 15  1  0
  8  9  2  0
  8 13  1  0
  9 10  1  0
  9 16  1  0
 10 11  2  0
 10 17  1  0
 11 12  1  0
 11 18  1  0
 12 13  2  0
 12 19  1  0
 13 20  1  0
M  RAD  1   1   2
M  END
>  <reaction>  (4) 
rxn_1827

>  <mol_properties>  (4) 
{"0": {"label": "*3", "atom_type": "Cs"}, "1": {"label": "*4", "atom_type": "S2s"}, "2": {"label": "*2", "atom_type": "H0"}, "6": {"label": "*1", "atom_type": "Cs"}, "7": {"label": "*0", "atom_type": "Cd"}}

>  <type>  (4) 
ts

$$$$
