
     RDKit          3D

 15 15  0  0  0  0  0  0  0  0999 V2000
    2.2031   -0.2111   -0.1693 C   0  0  0  0  0  0  0  0  0  0  0  0
    0.7140   -0.0314   -0.0623 C   0  0  0  0  0  0  0  0  0  0  0  0
   -0.0114    0.5491   -1.0982 C   0  0  0  0  0  0  0  0  0  0  0  0
   -1.3882    0.6886   -1.0150 C   0  0  0  0  0  0  0  0  0  0  0  0
   -2.0661    0.2493    0.1118 C   0  0  0  0  0  0  0  0  0  0  0  0
   -1.3551   -0.3278    1.1528 C   0  0  0  0  0  0  0  0  0  0  0  0
    0.0216   -0.4648    1.0642 C   0  0  0  0  0  0  0  0  0  0  0  0
    2.6776   -0.1836    0.8122 H   0  0  0  0  0  0  0  0  0  0  0  0
    2.4446   -1.1749   -0.6249 H   0  0  0  0  0  0  0  0  0  0  0  0
    2.6532    0.5664   -0.7875 H   0  0  0  0  0  0  0  0  0  0  0  0
    0.5104    0.8989   -1.9819 H   0  0  0  0  0  0  0  0  0  0  0  0
   -1.9328    1.1452   -1.8322 H   0  0  0  0  0  0  0  0  0  0  0  0
   -3.1409    0.3597    0.1800 H   0  0  0  0  0  0  0  0  0  0  0  0
   -1.8736   -0.6702    2.0398 H   0  0  0  0  0  0  0  0  0  0  0  0
    0.5695   -0.9141    1.8849 H   0  0  0  0  0  0  0  0  0  0  0  0
  1  2  1  0
  1  8  1  0
  1  9  1  0
  1 10  1  0
  2  3  2  0
  2  7  1  0
  3  4  1  0
  3 11  1  0
  4  5  2  0
  4 12  1  0
  5  6  1  0
  5 13  1  0
  6  7  2  0
  6 14  1  0
  7 15  1  0
M  END
>  <reaction>  (1) 
rxn_1464

>  <mol_properties>  (1) 
{"0": {"label": "donator", "atom_type": "Cs"}, "7": {"label": "d_hydrogen", "atom_type": "H0"}}

>  <type>  (1) 
r1h

$$$$

     RDKit          3D

 12 11  0  0  0  0  0  0  0  0999 V2000
   -0.9951    0.1196   -0.8321 C   0  0  0  0  0  0  0  0  0  0  0  0
   -0.3760    0.2571    0.5231 C   0  0  0  0  0  3  0  0  0  0  0  0
    0.9330   -0.1537    0.7810 C   0  0  0  0  0  0  0  0  0  0  0  0
    1.5987   -0.1880    1.9734 C   0  0  0  0  0  0  0  0  0  0  0  0
   -1.4483    0.9449    1.7152 S   0  0  0  0  0  0  0  0  0  0  0  0
   -1.9164   -0.4696   -0.7936 H   0  0  0  0  0  0  0  0  0  0  0  0
   -1.2565    1.0958   -1.2506 H   0  0  0  0  0  0  0  0  0  0  0  0
   -0.3088   -0.3780   -1.5170 H   0  0  0  0  0  0  0  0  0  0  0  0
    1.4783   -0.4898   -0.0971 H   0  0  0  0  0  0  0  0  0  0  0  0
    2.6278   -0.5153    2.0142 H   0  0  0  0  0  0  0  0  0  0  0  0
    1.1316    0.0690    2.9151 H   0  0  0  0  0  0  0  0  0  0  0  0
   -0.5306    1.3052    2.6211 H   0  0  0  0  0  0  0  0  0  0  0  0
  1  2  1  0
  1  6  1  0
  1  7  1  0
  1  8  1  0
  2  3  1  0
  2  5  1  0
  3  4  2  3
  3  9  1  0
  4 10  1  0
  4 11  1  0
  5 12  1  0
M  RAD  1   2   2
M  END
>  <reaction>  (2) 
rxn_1464

>  <mol_properties>  (2) 
{"1": {"label": "acceptor", "atom_type": "Cs"}}

>  <type>  (2) 
r2

$$$$

     RDKit          3D

 13 12  0  0  0  0  0  0  0  0999 V2000
   -1.1828    0.8269   -0.1645 C   0  0  0  0  0  0  0  0  0  0  0  0
   -0.4827   -0.4584   -0.5736 C   0  0  0  0  0  0  0  0  0  0  0  0
   -0.9759   -1.7030    0.1030 C   0  0  0  0  0  0  0  0  0  0  0  0
   -2.0084   -1.7831    0.9287 C   0  0  0  0  0  0  0  0  0  0  0  0
   -0.4908   -0.7025   -2.3913 S   0  0  0  0  0  0  0  0  0  0  0  0
   -1.0941    0.9860    0.9125 H   0  0  0  0  0  0  0  0  0  0  0  0
   -0.7405    1.6784   -0.6793 H   0  0  0  0  0  0  0  0  0  0  0  0
   -2.2437    0.7943   -0.4195 H   0  0  0  0  0  0  0  0  0  0  0  0
    0.5870   -0.3637   -0.3637 H   0  0  0  0  0  0  0  0  0  0  0  0
   -0.4209   -2.6026   -0.1443 H   0  0  0  0  0  0  0  0  0  0  0  0
   -2.2982   -2.7315    1.3623 H   0  0  0  0  0  0  0  0  0  0  0  0
   -2.5999   -0.9190    1.2055 H   0  0  0  0  0  0  0  0  0  0  0  0
   -1.8040   -0.9489   -2.4971 H   0  0  0  0  0  0  0  0  0  0  0  0
  1  2  1  0
  1  6  1  0
  1  7  1  0
  1  8  1  0
  2  3  1  0
  2  5  1  0
  2  9  1  0
  3  4  2  3
  3 10  1  0
  4 11  1  0
  4 12  1  0
  5 13  1  0
M  END
>  <reaction>  (3) 
rxn_1464

>  <mol_properties>  (3) 
{"1": {"label": "acceptor", "atom_type": "Cs"}, "12": {"label": "a_hydrogen", "atom_type": "H0"}}

>  <type>  (3) 
r2h

$$$$

     RDKit          3D

 27 26  0  0  0  0  0  0  0  0999 V2000
   -0.7287   -1.8211    0.2883 C   0  0  0  0  0  0  0  0  0  0  0  0
   -0.5569   -1.0173    1.5526 C   0  0  0  0  0  0  0  0  0  0  0  0
   -1.6729   -0.1700    1.9868 C   0  0  0  0  0  0  0  0  0  0  0  0
   -2.7662    0.1035    1.2746 C   0  0  0  0  0  0  0  0  0  0  0  0
    0.2951   -1.8662    2.8948 S   0  0  0  0  0  0  0  0  0  0  0  0
   -1.5083   -2.5788    0.4116 H   0  0  0  0  0  0  0  0  0  0  0  0
   -1.0077   -1.1760   -0.5477 H   0  0  0  0  0  0  0  0  0  0  0  0
    0.2002   -2.3272    0.0291 H   0  0  0  0  0  0  0  0  0  0  0  0
   -1.5541    0.2848    2.9654 H   0  0  0  0  0  0  0  0  0  0  0  0
   -3.5274    0.7667    1.6646 H   0  0  0  0  0  0  0  0  0  0  0  0
   -2.9416   -0.3217    0.2944 H   0  0  0  0  0  0  0  0  0  0  0  0
   -0.7130   -2.6749    3.2593 H   0  0  0  0  0  0  0  0  0  0  0  0
    1.2864    0.7715    0.7272 C   0  0  0  0  0  0  0  0  0  0  0  0
    0.8928    0.9751   -0.6592 C   0  0  0  0  0  0  0  0  0  0  0  0
   -0.1627    1.8361   -0.9838 C   0  0  0  0  0  3  0  0  0  0  0  0
   -0.5961    1.9673   -2.2909 C   0  0  0  0  0  0  0  0  0  0  0  0
    0.0132    1.2426   -3.3065 C   0  0  0  0  0  0  0  0  0  0  0  0
    1.0637    0.3868   -3.0018 C   0  0  0  0  0  0  0  0  0  0  0  0
    1.4964    0.2527   -1.6953 C   0  0  0  0  0  0  0  0  0  0  0  0
    0.3897   -0.1437    1.2142 H   0  0  0  0  0  0  0  0  0  0  0  0
    2.2434    0.2853    0.8949 H   0  0  0  0  0  0  0  0  0  0  0  0
    1.0874    1.5909    1.4128 H   0  0  0  0  0  0  0  0  0  0  0  0
   -0.6483    2.3962   -0.1935 H   0  0  0  0  0  0  0  0  0  0  0  0
   -1.4139    2.6388   -2.5207 H   0  0  0  0  0  0  0  0  0  0  0  0
   -0.3257    1.3465   -4.3292 H   0  0  0  0  0  0  0  0  0  0  0  0
    1.5468   -0.1787   -3.7889 H   0  0  0  0  0  0  0  0  0  0  0  0
    2.3124   -0.4219   -1.4631 H   0  0  0  0  0  0  0  0  0  0  0  0
  1  2  1  0
  1  6  1  0
  1  7  1  0
  1  8  1  0
  2  3  1  0
  2  5  1  0
  2 20  1  0
  3  4  2  3
  3  9  1  0
  4 10  1  0
  4 11  1  0
  5 12  1  0
 13 14  2  3
 13 21  1  0
 13 22  1  0
 14 15  1  0
 14 19  1  0
 15 16  1  0
 15 23  1  0
 16 17  2  0
 16 24  1  0
 17 18  1  0
 17 25  1  0
 18 19  2  0
 18 26  1  0
 19 27  1  0
M  RAD  1  15   2
M  END
>  <reaction>  (4) 
rxn_1464

>  <mol_properties>  (4) 
{"1": {"label": "*1", "atom_type": "Cs"}, "4": {"label": "*0", "atom_type": "S2s"}, "12": {"label": "*3", "atom_type": "Cd"}, "13": {"label": "*4", "atom_type": "Cd"}, "19": {"label": "*2", "atom_type": "H0"}}

>  <type>  (4) 
ts

$$$$
