
     RDKit          3D

 25 26  0  0  0  0  0  0  0  0999 V2000
    2.0298   -1.1515    0.0571 C   0  0  0  0  0  0  0  0  0  0  0  0
    2.2278    0.2445    0.6528 C   0  0  0  0  0  0  0  0  0  0  0  0
    1.2292    1.2625    0.0947 C   0  0  0  0  0  0  0  0  0  0  0  0
   -0.1869    0.7454    0.2762 C   0  0  0  0  0  0  0  0  0  0  0  0
   -1.3415    1.5501   -0.3122 C   0  0  0  0  0  0  0  0  0  0  0  0
   -2.5060    0.5338   -0.4178 C   0  0  0  0  0  0  0  0  0  0  0  0
   -1.8709   -0.8658   -0.2234 C   0  0  0  0  0  0  0  0  0  0  0  0
   -0.3715   -0.6265   -0.3693 C   0  0  0  0  0  0  0  0  0  0  0  0
    0.5898   -1.6500    0.2086 C   0  0  0  0  0  0  0  0  0  0  0  0
    2.2820   -1.1226   -1.0088 H   0  0  0  0  0  0  0  0  0  0  0  0
    2.7243   -1.8549    0.5221 H   0  0  0  0  0  0  0  0  0  0  0  0
    2.1030    0.1885    1.7400 H   0  0  0  0  0  0  0  0  0  0  0  0
    3.2514    0.5819    0.4743 H   0  0  0  0  0  0  0  0  0  0  0  0
    1.3611    2.2304    0.5855 H   0  0  0  0  0  0  0  0  0  0  0  0
    1.4198    1.4194   -0.9737 H   0  0  0  0  0  0  0  0  0  0  0  0
   -0.3675    0.6209    1.3539 H   0  0  0  0  0  0  0  0  0  0  0  0
   -1.5992    2.4249    0.2862 H   0  0  0  0  0  0  0  0  0  0  0  0
   -1.0595    1.9116   -1.3055 H   0  0  0  0  0  0  0  0  0  0  0  0
   -3.2666    0.7244    0.3399 H   0  0  0  0  0  0  0  0  0  0  0  0
   -3.0030    0.6112   -1.3853 H   0  0  0  0  0  0  0  0  0  0  0  0
   -2.2549   -1.6039   -0.9288 H   0  0  0  0  0  0  0  0  0  0  0  0
   -2.0796   -1.2429    0.7821 H   0  0  0  0  0  0  0  0  0  0  0  0
   -0.1432   -0.5121   -1.4391 H   0  0  0  0  0  0  0  0  0  0  0  0
    0.4720   -2.6209   -0.2799 H   0  0  0  0  0  0  0  0  0  0  0  0
    0.3601   -1.7986    1.2704 H   0  0  0  0  0  0  0  0  0  0  0  0
  1  2  1  0
  1  9  1  0
  1 10  1  0
  1 11  1  0
  2  3  1  0
  2 12  1  0
  2 13  1  0
  3  4  1  0
  3 14  1  0
  3 15  1  0
  4  5  1  0
  4  8  1  0
  4 16  1  0
  5  6  1  0
  5 17  1  0
  5 18  1  0
  6  7  1  0
  6 19  1  0
  6 20  1  0
  7  8  1  0
  7 21  1  0
  7 22  1  0
  8  9  1  0
  8 23  1  0
  9 24  1  0
  9 25  1  0
M  END
>  <reaction>  (1) 
rxn_606

>  <mol_properties>  (1) 
{"5": {"label": "donator", "atom_type": "Cs"}, "18": {"label": "d_hydrogen", "atom_type": "H0"}}

>  <type>  (1) 
r1h

$$$$

     RDKit          3D

 12 11  0  0  0  0  0  0  0  0999 V2000
   -2.3791    0.4612   -0.5870 C   0  0  0  0  0  0  0  0  0  0  0  0
   -1.3422   -0.3138   -0.1893 C   0  0  0  0  0  0  0  0  0  0  0  0
   -1.4723   -1.6058    0.3589 C   0  0  0  0  0  3  0  0  0  0  0  0
   -0.3798   -2.3973    0.7671 C   0  0  0  0  0  0  0  0  0  0  0  0
   -0.4849   -3.6397    1.2956 C   0  0  0  0  0  0  0  0  0  0  0  0
   -2.2205    1.4472   -1.0017 H   0  0  0  0  0  0  0  0  0  0  0  0
   -3.4026    0.1153   -0.5011 H   0  0  0  0  0  0  0  0  0  0  0  0
   -0.3330    0.0765   -0.2952 H   0  0  0  0  0  0  0  0  0  0  0  0
   -2.4723   -2.0151    0.4735 H   0  0  0  0  0  0  0  0  0  0  0  0
    0.6117   -1.9687    0.6436 H   0  0  0  0  0  0  0  0  0  0  0  0
    0.3893   -4.2030    1.5920 H   0  0  0  0  0  0  0  0  0  0  0  0
   -1.4516   -4.1084    1.4378 H   0  0  0  0  0  0  0  0  0  0  0  0
  1  2  2  3
  1  6  1  0
  1  7  1  0
  2  3  1  0
  2  8  1  0
  3  4  1  0
  3  9  1  0
  4  5  2  3
  4 10  1  0
  5 11  1  0
  5 12  1  0
M  RAD  1   3   2
M  END
>  <reaction>  (2) 
rxn_606

>  <mol_properties>  (2) 
{"2": {"label": "acceptor", "atom_type": "Cs"}}

>  <type>  (2) 
r2

$$$$

     RDKit          3D

 13 12  0  0  0  0  0  0  0  0999 V2000
    3.0977   -0.3549   -0.5105 C   0  0  0  0  0  0  0  0  0  0  0  0
    2.0556    0.4221   -0.2627 C   0  0  0  0  0  0  0  0  0  0  0  0
    0.6313   -0.0354   -0.2366 C   0  0  0  0  0  0  0  0  0  0  0  0
   -0.2567    0.6038   -1.2694 C   0  0  0  0  0  0  0  0  0  0  0  0
    0.1459    1.3456   -2.2891 C   0  0  0  0  0  0  0  0  0  0  0  0
    4.1081    0.0344   -0.5074 H   0  0  0  0  0  0  0  0  0  0  0  0
    2.9777   -1.4116   -0.7243 H   0  0  0  0  0  0  0  0  0  0  0  0
    2.2171    1.4781   -0.0618 H   0  0  0  0  0  0  0  0  0  0  0  0
    0.5865   -1.1233   -0.3540 H   0  0  0  0  0  0  0  0  0  0  0  0
    0.2065    0.1743    0.7521 H   0  0  0  0  0  0  0  0  0  0  0  0
   -1.3190    0.4126   -1.1445 H   0  0  0  0  0  0  0  0  0  0  0  0
    1.1948    1.5564   -2.4628 H   0  0  0  0  0  0  0  0  0  0  0  0
   -0.5644    1.7621   -2.9918 H   0  0  0  0  0  0  0  0  0  0  0  0
  1  2  2  3
  1  6  1  0
  1  7  1  0
  2  3  1  0
  2  8  1  0
  3  4  1  0
  3  9  1  0
  3 10  1  0
  4  5  2  3
  4 11  1  0
  5 12  1  0
  5 13  1  0
M  END
>  <reaction>  (3) 
rxn_606

>  <mol_properties>  (3) 
{"2": {"label": "acceptor", "atom_type": "Cs"}, "12": {"label": "a_hydrogen", "atom_type": "H0"}}

>  <type>  (3) 
r2h

$$$$

     RDKit          3D

 37 37  0  0  0  0  0  0  0  0999 V2000
    0.7780    2.9173    2.7719 C   0  0  0  0  0  0  0  0  0  0  0  0
    0.0961    2.3064    1.8075 C   0  0  0  0  0  0  0  0  0  0  0  0
    0.2290    2.5984    0.3715 C   0  0  0  0  0  0  0  0  0  0  0  0
   -0.9653    2.5321   -0.4898 C   0  0  0  0  0  0  0  0  0  0  0  0
   -2.1487    1.9951   -0.1963 C   0  0  0  0  0  0  0  0  0  0  0  0
    0.6642    2.6343    3.8104 H   0  0  0  0  0  0  0  0  0  0  0  0
    1.4690    3.7241    2.5529 H   0  0  0  0  0  0  0  0  0  0  0  0
   -0.5805    1.5023    2.0825 H   0  0  0  0  0  0  0  0  0  0  0  0
    0.8250    3.4922    0.1828 H   0  0  0  0  0  0  0  0  0  0  0  0
   -0.8289    2.9444   -1.4859 H   0  0  0  0  0  0  0  0  0  0  0  0
   -2.9436    1.9732   -0.9303 H   0  0  0  0  0  0  0  0  0  0  0  0
   -2.3740    1.5753    0.7764 H   0  0  0  0  0  0  0  0  0  0  0  0
   -1.2419   -3.0659   -1.1179 C   0  0  0  0  0  0  0  0  0  0  0  0
   -1.2628   -2.9311    0.4072 C   0  0  0  0  0  0  0  0  0  0  0  0
    0.0579   -2.3919    0.9658 C   0  0  0  0  0  0  0  0  0  0  0  0
    0.4045   -1.0921    0.2654 C   0  0  0  0  0  0  0  0  0  0  0  0
    1.7153   -0.3833    0.5881 C   0  0  0  0  0  0  0  0  0  0  0  0
    1.8319    0.5962   -0.5582 C   0  0  0  0  0  3  0  0  0  0  0  0
    1.0631    0.0513   -1.7500 C   0  0  0  0  0  0  0  0  0  0  0  0
    0.4922   -1.2820   -1.2499 C   0  0  0  0  0  0  0  0  0  0  0  0
   -0.8304   -1.7665   -1.8168 C   0  0  0  0  0  0  0  0  0  0  0  0
   -0.5323   -3.8535   -1.3953 H   0  0  0  0  0  0  0  0  0  0  0  0
   -2.2221   -3.3918   -1.4731 H   0  0  0  0  0  0  0  0  0  0  0  0
   -2.0685   -2.2453    0.6920 H   0  0  0  0  0  0  0  0  0  0  0  0
   -1.5001   -3.8962    0.8605 H   0  0  0  0  0  0  0  0  0  0  0  0
   -0.0193   -2.2488    2.0468 H   0  0  0  0  0  0  0  0  0  0  0  0
    0.8589   -3.1213    0.7970 H   0  0  0  0  0  0  0  0  0  0  0  0
   -0.4106   -0.3788    0.4525 H   0  0  0  0  0  0  0  0  0  0  0  0
    1.7230    0.1046    1.5656 H   0  0  0  0  0  0  0  0  0  0  0  0
    2.5470   -1.1006    0.5768 H   0  0  0  0  0  0  0  0  0  0  0  0
    1.0124    1.6967   -0.0895 H   0  0  0  0  0  0  0  0  0  0  0  0
    2.7834    1.0921   -0.7283 H   0  0  0  0  0  0  0  0  0  0  0  0
    1.6926   -0.0659   -2.6351 H   0  0  0  0  0  0  0  0  0  0  0  0
    0.2464    0.7257   -2.0341 H   0  0  0  0  0  0  0  0  0  0  0  0
    1.2452   -2.0620   -1.4299 H   0  0  0  0  0  0  0  0  0  0  0  0
   -0.7639   -1.9237   -2.8967 H   0  0  0  0  0  0  0  0  0  0  0  0
   -1.5915   -0.9949   -1.6512 H   0  0  0  0  0  0  0  0  0  0  0  0
  1  2  2  3
  1  6  1  0
  1  7  1  0
  2  3  1  0
  2  8  1  0
  3  4  1  0
  3  9  1  0
  3 31  1  0
  4  5  2  3
  4 10  1  0
  5 11  1  0
  5 12  1  0
 13 14  1  0
 13 21  1  0
 13 22  1  0
 13 23  1  0
 14 15  1  0
 14 24  1  0
 14 25  1  0
 15 16  1  0
 15 26  1  0
 15 27  1  0
 16 17  1  0
 16 20  1  0
 16 28  1  0
 17 18  1  0
 17 29  1  0
 17 30  1  0
 18 19  1  0
 18 32  1  0
 19 20  1  0
 19 33  1  0
 19 34  1  0
 20 21  1  0
 20 35  1  0
 21 36  1  0
 21 37  1  0
M  RAD  1  18   2
M  END
>  <reaction>  (4) 
rxn_606

>  <mol_properties>  (4) 
{"1": {"label": "*0", "atom_type": "Cd"}, "2": {"label": "*1", "atom_type": "Cs"}, "16": {"label": "*4", "atom_type": "Cs"}, "17": {"label": "*3", "atom_type": "Cs"}, "30": {"label": "*2", "atom_type": "H0"}}

>  <type>  (4) 
ts

$$$$
