
     RDKit          3D

  7  7  0  0  0  0  0  0  0  0999 V2000
   -0.7268   -0.0467    0.0634 C   0  0  0  0  0  0  0  0  0  0  0  0
    0.7235    0.1046    0.0109 C   0  0  0  0  0  0  0  0  0  0  0  0
    0.0414   -0.7158   -0.9186 O   0  0  0  0  0  0  0  0  0  0  0  0
   -1.3615    0.7523   -0.3079 H   0  0  0  0  0  0  0  0  0  0  0  0
   -1.1708   -0.6854    0.8209 H   0  0  0  0  0  0  0  0  0  0  0  0
    1.1518    1.0144   -0.3988 H   0  0  0  0  0  0  0  0  0  0  0  0
    1.3425   -0.4233    0.7300 H   0  0  0  0  0  0  0  0  0  0  0  0
  1  2  1  0
  1  3  1  0
  1  4  1  0
  1  5  1  0
  2  3  1  0
  2  6  1  0
  2  7  1  0
M  END
>  <reaction>  (1) 
rxn_3220

>  <mol_properties>  (1) 
{"0": {"label": "donator", "atom_type": "Cs"}, "3": {"label": "d_hydrogen", "atom_type": "H0"}}

>  <type>  (1) 
r1h

$$$$

     RDKit          3D

  7  6  0  0  0  0  0  0  0  0999 V2000
   -1.3059    0.5497   -0.1304 N   0  0  0  0  0  2  0  0  0  0  0  0
   -0.2700   -0.4288    0.0448 C   0  0  0  0  0  0  0  0  0  0  0  0
    1.1109    0.0669    0.0401 C   0  0  0  0  0  0  0  0  0  0  0  0
    2.1758    0.4925    0.0308 N   0  0  0  0  0  0  0  0  0  0  0  0
   -0.8815    1.4733   -0.2339 H   0  0  0  0  0  0  0  0  0  0  0  0
   -0.3767   -1.1909   -0.7373 H   0  0  0  0  0  0  0  0  0  0  0  0
   -0.4527   -0.9628    0.9858 H   0  0  0  0  0  0  0  0  0  0  0  0
  1  2  1  0
  1  5  1  0
  2  3  1  0
  2  6  1  0
  2  7  1  0
  3  4  3  0
M  RAD  1   1   2
M  END
>  <reaction>  (2) 
rxn_3220

>  <mol_properties>  (2) 
{"0": {"label": "acceptor", "atom_type": "N3s"}}

>  <type>  (2) 
r2

$$$$

     RDKit          3D

  8  7  0  0  0  0  0  0  0  0999 V2000
   -1.0805    0.5317    0.0204 N   0  0  0  0  0  0  0  0  0  0  0  0
   -0.1080   -0.5393    0.0956 C   0  0  0  0  0  0  0  0  0  0  0  0
    1.2945   -0.1247   -0.1005 C   0  0  0  0  0  0  0  0  0  0  0  0
    2.3714    0.2386   -0.2580 N   0  0  0  0  0  0  0  0  0  0  0  0
   -1.0516    0.9857   -0.8822 H   0  0  0  0  0  0  0  0  0  0  0  0
   -0.9009    1.2352    0.7235 H   0  0  0  0  0  0  0  0  0  0  0  0
   -0.3427   -1.2965   -0.6542 H   0  0  0  0  0  0  0  0  0  0  0  0
   -0.1810   -1.0288    1.0680 H   0  0  0  0  0  0  0  0  0  0  0  0
  1  2  1  0
  1  5  1  0
  1  6  1  0
  2  3  1  0
  2  7  1  0
  2  8  1  0
  3  4  3  0
M  END
>  <reaction>  (3) 
rxn_3220

>  <mol_properties>  (3) 
{"0": {"label": "acceptor", "atom_type": "N3s"}, "7": {"label": "a_hydrogen", "atom_type": "H0"}}

>  <type>  (3) 
r2h

$$$$

     RDKit          3D

 14 13  0  0  0  0  0  0  0  0999 V2000
    0.4750   -0.2153    1.6908 N   0  0  0  0  0  0  0  0  0  0  0  0
    1.5904   -0.0288    0.7810 C   0  0  0  0  0  0  0  0  0  0  0  0
    1.5598   -0.8748   -0.4213 C   0  0  0  0  0  0  0  0  0  0  0  0
    1.4866   -1.5662   -1.3344 N   0  0  0  0  0  0  0  0  0  0  0  0
    0.2208   -1.2024    1.7045 H   0  0  0  0  0  0  0  0  0  0  0  0
    2.5248   -0.2352    1.3136 H   0  0  0  0  0  0  0  0  0  0  0  0
    1.6286    1.0152    0.4647 H   0  0  0  0  0  0  0  0  0  0  0  0
   -1.4344    0.8282    0.3096 C   0  0  0  0  0  3  0  0  0  0  0  0
   -1.6461    0.2625   -1.0111 C   0  0  0  0  0  0  0  0  0  0  0  0
   -0.8897    1.4646   -0.7893 O   0  0  0  0  0  0  0  0  0  0  0  0
   -0.5407    0.3029    1.0945 H   0  0  0  0  0  0  0  0  0  0  0  0
   -2.1819    1.3598    0.8955 H   0  0  0  0  0  0  0  0  0  0  0  0
   -1.0588   -0.5917   -1.3293 H   0  0  0  0  0  0  0  0  0  0  0  0
   -2.5905    0.4179   -1.5217 H   0  0  0  0  0  0  0  0  0  0  0  0
  1  2  1  0
  1  5  1  0
  1 11  1  0
  2  3  1  0
  2  6  1  0
  2  7  1  0
  3  4  3  0
  8  9  1  0
  8 10  1  0
  8 12  1  0
  9 10  1  0
  9 13  1  0
  9 14  1  0
M  RAD  1   8   2
M  END
>  <reaction>  (4) 
rxn_3220

>  <mol_properties>  (4) 
{"0": {"label": "*1", "atom_type": "N3s"}, "1": {"label": "*0", "atom_type": "Cs"}, "7": {"label": "*3", "atom_type": "Cs"}, "9": {"label": "*4", "atom_type": "O2s"}, "10": {"label": "*2", "atom_type": "H0"}}

>  <type>  (4) 
ts

$$$$
