
     RDKit          3D

  9  8  0  0  0  0  0  0  0  0999 V2000
    1.1303   -0.2933   -0.7510 C   0  0  0  0  0  0  0  0  0  0  0  0
    0.2866    0.4560   -0.0588 C   0  0  0  0  0  0  0  0  0  0  0  0
   -0.9719   -0.0331    0.5823 C   0  0  0  0  0  0  0  0  0  0  0  0
    2.0274    0.1230   -1.1916 H   0  0  0  0  0  0  0  0  0  0  0  0
    0.9532   -1.3530   -0.9023 H   0  0  0  0  0  0  0  0  0  0  0  0
    0.5065    1.5132    0.0659 H   0  0  0  0  0  0  0  0  0  0  0  0
   -0.9526    0.1426    1.6610 H   0  0  0  0  0  0  0  0  0  0  0  0
   -1.1182   -1.1002    0.4106 H   0  0  0  0  0  0  0  0  0  0  0  0
   -1.8412    0.5010    0.1901 H   0  0  0  0  0  0  0  0  0  0  0  0
  1  2  2  3
  1  4  1  0
  1  5  1  0
  2  3  1  0
  2  6  1  0
  3  7  1  0
  3  8  1  0
  3  9  1  0
M  END
>  <reaction>  (1) 
rxn_1621

>  <mol_properties>  (1) 
{"1": {"label": "donator", "atom_type": "Cd"}, "5": {"label": "d_hydrogen", "atom_type": "H0"}}

>  <type>  (1) 
r1h

$$$$

     RDKit          3D

  9  8  0  0  0  0  0  0  0  0999 V2000
    1.8963   -0.1405   -0.2150 C   0  0  0  0  0  0  0  0  0  0  0  0
    0.6340    0.1486   -0.2254 C   0  0  0  0  0  3  0  0  0  0  0  0
   -0.6770    0.4501   -0.2373 C   0  0  0  0  0  0  0  0  0  0  0  0
   -1.6600   -0.2303    0.4662 C   0  0  0  0  0  0  0  0  0  0  0  0
    2.3274   -0.8354   -0.9313 H   0  0  0  0  0  0  0  0  0  0  0  0
    2.5751    0.2988    0.5117 H   0  0  0  0  0  0  0  0  0  0  0  0
   -0.9723    1.2966   -0.8520 H   0  0  0  0  0  0  0  0  0  0  0  0
   -2.6934    0.0777    0.4015 H   0  0  0  0  0  0  0  0  0  0  0  0
   -1.4140   -1.0782    1.0904 H   0  0  0  0  0  0  0  0  0  0  0  0
  1  2  2  3
  1  5  1  0
  1  6  1  0
  2  3  1  0
  3  4  2  3
  3  7  1  0
  4  8  1  0
  4  9  1  0
M  RAD  1   2   2
M  END
>  <reaction>  (2) 
rxn_1621

>  <mol_properties>  (2) 
{"1": {"label": "acceptor", "atom_type": "Cd"}}

>  <type>  (2) 
r2

$$$$

     RDKit          3D

 10  9  0  0  0  0  0  0  0  0999 V2000
    1.8334    0.0847   -0.1062 C   0  0  0  0  0  0  0  0  0  0  0  0
    0.5993   -0.4071   -0.0750 C   0  0  0  0  0  0  0  0  0  0  0  0
   -0.5993    0.4071    0.0750 C   0  0  0  0  0  0  0  0  0  0  0  0
   -1.8334   -0.0847    0.1062 C   0  0  0  0  0  0  0  0  0  0  0  0
    2.0179    1.1498   -0.0189 H   0  0  0  0  0  0  0  0  0  0  0  0
    2.6972   -0.5572   -0.2194 H   0  0  0  0  0  0  0  0  0  0  0  0
    0.4465   -1.4793   -0.1649 H   0  0  0  0  0  0  0  0  0  0  0  0
   -0.4465    1.4793    0.1649 H   0  0  0  0  0  0  0  0  0  0  0  0
   -2.0179   -1.1498    0.0189 H   0  0  0  0  0  0  0  0  0  0  0  0
   -2.6972    0.5572    0.2194 H   0  0  0  0  0  0  0  0  0  0  0  0
  1  2  2  3
  1  5  1  0
  1  6  1  0
  2  3  1  0
  2  7  1  0
  3  4  2  3
  3  8  1  0
  4  9  1  0
  4 10  1  0
M  END
>  <reaction>  (3) 
rxn_1621

>  <mol_properties>  (3) 
{"1": {"label": "acceptor", "atom_type": "Cd"}, "9": {"label": "a_hydrogen", "atom_type": "H0"}}

>  <type>  (3) 
r2h

$$$$

     RDKit          3D

 18 16  0  0  0  0  0  0  0  0999 V2000
    1.5596   -1.7231    0.2518 C   0  0  0  0  0  0  0  0  0  0  0  0
    0.4412   -1.0549    0.4652 C   0  0  0  0  0  3  0  0  0  0  0  0
   -0.6436   -1.3459    1.3784 C   0  0  0  0  0  0  0  0  0  0  0  0
   -1.7644   -0.6357    1.4604 C   0  0  0  0  0  0  0  0  0  0  0  0
    2.2934   -1.3838   -0.4703 H   0  0  0  0  0  0  0  0  0  0  0  0
    1.7847   -2.6423    0.7890 H   0  0  0  0  0  0  0  0  0  0  0  0
   -0.5056   -2.2095    2.0286 H   0  0  0  0  0  0  0  0  0  0  0  0
   -2.5465   -0.8975    2.1608 H   0  0  0  0  0  0  0  0  0  0  0  0
   -1.9314    0.2239    0.8214 H   0  0  0  0  0  0  0  0  0  0  0  0
   -0.4510    1.0439   -2.1111 C   0  0  0  0  0  0  0  0  0  0  0  0
    0.1449    1.1844   -0.9469 C   0  0  0  0  0  0  0  0  0  0  0  0
    0.6832    2.3874   -0.2680 C   0  0  0  0  0  0  0  0  0  0  0  0
   -0.7927    0.0749   -2.4575 H   0  0  0  0  0  0  0  0  0  0  0  0
   -0.6211    1.8929   -2.7702 H   0  0  0  0  0  0  0  0  0  0  0  0
    0.2834    0.0756   -0.2479 H   0  0  0  0  0  0  0  0  0  0  0  0
    0.1973    2.5343    0.6996 H   0  0  0  0  0  0  0  0  0  0  0  0
    0.5308    3.2856   -0.8728 H   0  0  0  0  0  0  0  0  0  0  0  0
    1.7527    2.2768   -0.0747 H   0  0  0  0  0  0  0  0  0  0  0  0
  1  2  2  3
  1  5  1  0
  1  6  1  0
  2  3  1  0
  3  4  2  3
  3  7  1  0
  4  8  1  0
  4  9  1  0
 10 11  2  3
 10 13  1  0
 10 14  1  0
 11 12  1  0
 11 15  1  0
 12 16  1  0
 12 17  1  0
 12 18  1  0
M  RAD  1   2   2
M  END
>  <reaction>  (4) 
rxn_1621

>  <mol_properties>  (4) 
{"1": {"label": "*3", "atom_type": "Cd"}, "2": {"label": "*4", "atom_type": "Cd"}, "9": {"label": "*0", "atom_type": "Cd"}, "10": {"label": "*1", "atom_type": "Cd"}, "14": {"label": "*2", "atom_type": "H0"}}

>  <type>  (4) 
ts

$$$$
