
     RDKit          3D

 17 17  0  0  0  0  0  0  0  0999 V2000
    3.5625   -0.5497    0.1136 C   0  0  0  0  0  0  0  0  0  0  0  0
    2.4838    0.1716    0.1011 C   0  0  0  0  0  0  0  0  0  0  0  0
    1.3964    0.8925    0.0883 C   0  0  0  0  0  0  0  0  0  0  0  0
    0.0219    0.3691    0.0154 C   0  0  0  0  0  0  0  0  0  0  0  0
   -1.0480    1.2607    0.0100 C   0  0  0  0  0  0  0  0  0  0  0  0
   -2.3544    0.8021   -0.0577 C   0  0  0  0  0  0  0  0  0  0  0  0
   -2.6112   -0.5577   -0.1212 C   0  0  0  0  0  0  0  0  0  0  0  0
   -1.5513   -1.4554   -0.1165 C   0  0  0  0  0  0  0  0  0  0  0  0
   -0.2481   -0.9981   -0.0489 C   0  0  0  0  0  0  0  0  0  0  0  0
    3.9949   -0.8969    1.0456 H   0  0  0  0  0  0  0  0  0  0  0  0
    4.0653   -0.8236   -0.8075 H   0  0  0  0  0  0  0  0  0  0  0  0
    1.5047    1.9725    0.1352 H   0  0  0  0  0  0  0  0  0  0  0  0
   -0.8532    2.3258    0.0596 H   0  0  0  0  0  0  0  0  0  0  0  0
   -3.1731    1.5107   -0.0608 H   0  0  0  0  0  0  0  0  0  0  0  0
   -3.6304   -0.9185   -0.1742 H   0  0  0  0  0  0  0  0  0  0  0  0
   -1.7437   -2.5198   -0.1659 H   0  0  0  0  0  0  0  0  0  0  0  0
    0.5746   -1.7031   -0.0455 H   0  0  0  0  0  0  0  0  0  0  0  0
  1  2  2  0
  1 10  1  0
  1 11  1  0
  2  3  2  0
  3  4  1  0
  3 12  1  0
  4  5  2  0
  4  9  1  0
  5  6  1  0
  5 13  1  0
  6  7  2  0
  6 14  1  0
  7  8  1  0
  7 15  1  0
  8  9  2  0
  8 16  1  0
  9 17  1  0
M  END
>  <reaction>  (1) 
rxn_185

>  <mol_properties>  (1) 
{"4": {"label": "donator", "atom_type": "Cd"}, "12": {"label": "d_hydrogen", "atom_type": "H0"}}

>  <type>  (1) 
r1h

$$$$

     RDKit          3D

  1  0  0  0  0  0  0  0  0  0999 V2000
    0.0000    0.0000    0.0000 H   0  0  0  0  0 15  0  0  0  0  0  0
M  END
>  <reaction>  (2) 
rxn_185

>  <mol_properties>  (2) 
{"0": {"label": "acceptor", "atom_type": "H0"}}

>  <type>  (2) 
r2

$$$$

     RDKit          3D

  2  1  0  0  0  0  0  0  0  0999 V2000
    0.0000    0.0000    0.3721 H   0  0  0  0  0  0  0  0  0  0  0  0
    0.0000    0.0000   -0.3721 H   0  0  0  0  0  0  0  0  0  0  0  0
  1  2  1  0
M  END
>  <reaction>  (3) 
rxn_185

>  <mol_properties>  (3) 
{"0": {"label": "a_hydrogen", "atom_type": "H0"}, "1": {"label": "acceptor", "atom_type": "H0"}}

>  <type>  (3) 
r2h

$$$$

     RDKit          3D

 18 17  0  0  0  0  0  0  0  0999 V2000
   -0.1362   -1.5117   -3.3196 C   0  0  0  0  0  0  0  0  0  0  0  0
   -0.1368   -1.5193   -2.0221 C   0  0  0  0  0  0  0  0  0  0  0  0
   -0.1370   -1.5223   -0.7176 C   0  0  0  0  0  0  0  0  0  0  0  0
   -0.0289   -0.3241    0.1305 C   0  0  0  0  0  0  0  0  0  0  0  0
   -0.0379   -0.4255    1.5074 C   0  0  0  0  0  0  0  0  0  0  0  0
    0.0578    0.6354    2.3733 C   0  0  0  0  0  0  0  0  0  0  0  0
    0.1725    1.9087    1.8288 C   0  0  0  0  0  0  0  0  0  0  0  0
    0.1865    2.0649    0.4479 C   0  0  0  0  0  0  0  0  0  0  0  0
    0.0877    0.9691   -0.3911 C   0  0  0  0  0  0  0  0  0  0  0  0
   -1.0605   -1.4276   -3.8805 H   0  0  0  0  0  0  0  0  0  0  0  0
    0.7882   -1.5942   -3.8806 H   0  0  0  0  0  0  0  0  0  0  0  0
   -0.2229   -2.4755   -0.2057 H   0  0  0  0  0  0  0  0  0  0  0  0
   -0.1571   -1.7483    2.0953 H   0  0  0  0  0  0  0  0  0  0  0  0
    0.0442    0.4847    3.4458 H   0  0  0  0  0  0  0  0  0  0  0  0
    0.2504    2.7722    2.4775 H   0  0  0  0  0  0  0  0  0  0  0  0
    0.2758    3.0556    0.0206 H   0  0  0  0  0  0  0  0  0  0  0  0
    0.0998    1.1041   -1.4666 H   0  0  0  0  0  0  0  0  0  0  0  0
   -0.2276   -2.5306    2.4562 H   0  0  0  0  0 15  0  0  0  0  0  0
  1  2  2  0
  1 10  1  0
  1 11  1  0
  2  3  2  0
  3  4  1  0
  3 12  1  0
  4  5  2  0
  4  9  1  0
  5  6  1  0
  5 13  1  0
  6  7  2  0
  6 14  1  0
  7  8  1  0
  7 15  1  0
  8  9  2  0
  8 16  1  0
  9 17  1  0
M  END
>  <reaction>  (4) 
rxn_185

>  <mol_properties>  (4) 
{"3": {"label": "*4", "atom_type": "Cd"}, "4": {"label": "*3", "atom_type": "Cd"}, "12": {"label": "*2", "atom_type": "H0"}, "17": {"label": "*1", "atom_type": "H0"}}

>  <type>  (4) 
ts

$$$$
