
     RDKit          3D

 13 12  0  0  0  0  0  0  0  0999 V2000
    2.2975   -0.6134    0.7685 C   0  0  0  0  0  0  0  0  0  0  0  0
    1.1676   -0.5248    0.3802 C   0  0  0  0  0  0  0  0  0  0  0  0
   -0.2109   -0.3926   -0.0948 C   0  0  0  0  0  0  0  0  0  0  0  0
   -0.2501    0.2584   -1.4808 C   0  0  0  0  0  0  0  0  0  0  0  0
   -1.0633    0.3831    0.9141 C   0  0  0  0  0  0  0  0  0  0  0  0
    3.2999   -0.6974    1.1133 H   0  0  0  0  0  0  0  0  0  0  0  0
   -0.6209   -1.4038   -0.1814 H   0  0  0  0  0  0  0  0  0  0  0  0
    0.3402   -0.3102   -2.1992 H   0  0  0  0  0  0  0  0  0  0  0  0
    0.1511    1.2724   -1.4369 H   0  0  0  0  0  0  0  0  0  0  0  0
   -1.2791    0.3109   -1.8407 H   0  0  0  0  0  0  0  0  0  0  0  0
   -0.6861    1.4008    1.0287 H   0  0  0  0  0  0  0  0  0  0  0  0
   -1.0492   -0.0971    1.8924 H   0  0  0  0  0  0  0  0  0  0  0  0
   -2.0971    0.4363    0.5680 H   0  0  0  0  0  0  0  0  0  0  0  0
  1  2  3  0
  1  6  1  0
  2  3  1  0
  3  4  1  0
  3  5  1  0
  3  7  1  0
  4  8  1  0
  4  9  1  0
  4 10  1  0
  5 11  1  0
  5 12  1  0
  5 13  1  0
M  END
>  <reaction>  (1) 
rxn_1319

>  <mol_properties>  (1) 
{"2": {"label": "donator", "atom_type": "Cs"}, "6": {"label": "d_hydrogen", "atom_type": "H0"}}

>  <type>  (1) 
r1h

$$$$

     RDKit          3D

  8  7  0  0  0  0  0  0  0  0999 V2000
    1.4038   -0.4003    0.0140 C   0  0  0  0  0  0  0  0  0  0  0  0
    0.2804    0.0563    0.4920 C   0  0  0  0  0  3  0  0  0  0  0  0
   -1.0935    0.3323    0.0625 C   0  0  0  0  0  0  0  0  0  0  0  0
    1.4898   -0.7154   -1.0285 H   0  0  0  0  0  0  0  0  0  0  0  0
    2.2990   -0.4891    0.6210 H   0  0  0  0  0  0  0  0  0  0  0  0
   -1.3399    1.3883    0.1900 H   0  0  0  0  0  0  0  0  0  0  0  0
   -1.2285    0.0762   -0.9967 H   0  0  0  0  0  0  0  0  0  0  0  0
   -1.8111   -0.2482    0.6457 H   0  0  0  0  0  0  0  0  0  0  0  0
  1  2  2  3
  1  4  1  0
  1  5  1  0
  2  3  1  0
  3  6  1  0
  3  7  1  0
  3  8  1  0
M  RAD  1   2   2
M  END
>  <reaction>  (2) 
rxn_1319

>  <mol_properties>  (2) 
{"1": {"label": "acceptor", "atom_type": "Cd"}}

>  <type>  (2) 
r2

$$$$

     RDKit          3D

  9  8  0  0  0  0  0  0  0  0999 V2000
    1.1303   -0.2933   -0.7510 C   0  0  0  0  0  0  0  0  0  0  0  0
    0.2866    0.4560   -0.0588 C   0  0  0  0  0  0  0  0  0  0  0  0
   -0.9719   -0.0331    0.5823 C   0  0  0  0  0  0  0  0  0  0  0  0
    2.0274    0.1230   -1.1916 H   0  0  0  0  0  0  0  0  0  0  0  0
    0.9532   -1.3530   -0.9023 H   0  0  0  0  0  0  0  0  0  0  0  0
    0.5065    1.5132    0.0659 H   0  0  0  0  0  0  0  0  0  0  0  0
   -0.9526    0.1426    1.6610 H   0  0  0  0  0  0  0  0  0  0  0  0
   -1.1182   -1.1002    0.4106 H   0  0  0  0  0  0  0  0  0  0  0  0
   -1.8412    0.5010    0.1901 H   0  0  0  0  0  0  0  0  0  0  0  0
  1  2  2  3
  1  4  1  0
  1  5  1  0
  2  3  1  0
  2  6  1  0
  3  7  1  0
  3  8  1  0
  3  9  1  0
M  END
>  <reaction>  (3) 
rxn_1319

>  <mol_properties>  (3) 
{"0": {"label": "a_hydrogen", "atom_type": "H0"}, "2": {"label": "acceptor", "atom_type": "Cd"}}

>  <type>  (3) 
r2h

$$$$

     RDKit          3D

 21 19  0  0  0  0  0  0  0  0999 V2000
   -0.0383    0.7894   -2.7281 C   0  0  0  0  0  0  0  0  0  0  0  0
   -0.0350    0.8877   -1.5309 C   0  0  0  0  0  0  0  0  0  0  0  0
   -0.0300    0.9705   -0.0919 C   0  0  0  0  0  0  0  0  0  0  0  0
   -1.3185    1.5297    0.4900 C   0  0  0  0  0  0  0  0  0  0  0  0
    1.2302    1.6027    0.4770 C   0  0  0  0  0  0  0  0  0  0  0  0
   -0.0414    0.7111   -3.7884 H   0  0  0  0  0  0  0  0  0  0  0  0
    0.0057   -0.2094    0.2971 H   0  0  0  0  0  0  0  0  0  0  0  0
   -2.1855    0.9882    0.1117 H   0  0  0  0  0  0  0  0  0  0  0  0
   -1.4362    2.5856    0.2327 H   0  0  0  0  0  0  0  0  0  0  0  0
   -1.3046    1.4456    1.5787 H   0  0  0  0  0  0  0  0  0  0  0  0
    1.2847    2.6635    0.2188 H   0  0  0  0  0  0  0  0  0  0  0  0
    2.1229    1.1116    0.0897 H   0  0  0  0  0  0  0  0  0  0  0  0
    1.2323    1.5182    1.5657 H   0  0  0  0  0  0  0  0  0  0  0  0
    0.0673   -2.4553   -0.2171 C   0  0  0  0  0  0  0  0  0  0  0  0
    0.0479   -1.5979    0.7746 C   0  0  0  0  0  3  0  0  0  0  0  0
    0.0596   -1.7410    2.2457 C   0  0  0  0  0  0  0  0  0  0  0  0
    0.0989   -3.5304   -0.0412 H   0  0  0  0  0  0  0  0  0  0  0  0
    0.0524   -2.1233   -1.2501 H   0  0  0  0  0  0  0  0  0  0  0  0
   -0.8315   -1.2902    2.6887 H   0  0  0  0  0  0  0  0  0  0  0  0
    0.0912   -2.7959    2.5384 H   0  0  0  0  0  0  0  0  0  0  0  0
    0.9280   -1.2399    2.6796 H   0  0  0  0  0  0  0  0  0  0  0  0
  1  2  3  0
  1  6  1  0
  2  3  1  0
  3  4  1  0
  3  5  1  0
  3  7  1  0
  4  8  1  0
  4  9  1  0
  4 10  1  0
  5 11  1  0
  5 12  1  0
  5 13  1  0
 14 15  2  3
 14 17  1  0
 14 18  1  0
 15 16  1  0
 16 19  1  0
 16 20  1  0
 16 21  1  0
M  RAD  1  15   2
M  END
>  <reaction>  (4) 
rxn_1319

>  <mol_properties>  (4) 
{"1": {"label": "*0", "atom_type": "Ct"}, "2": {"label": "*1", "atom_type": "Cs"}, "6": {"label": "*2", "atom_type": "H0"}, "13": {"label": "*4", "atom_type": "Cd"}, "14": {"label": "*3", "atom_type": "Cd"}}

>  <type>  (4) 
ts

$$$$
