
     RDKit          3D

 15 14  0  0  0  0  0  0  0  0999 V2000
   -0.6986    1.3249   -0.1641 C   0  0  0  0  0  0  0  0  0  0  0  0
   -0.2590   -0.0344    0.3671 C   0  0  0  0  0  0  0  0  0  0  0  0
   -0.4734   -0.1429    1.8733 C   0  0  0  0  0  0  0  0  0  0  0  0
   -0.9841   -1.1722   -0.3462 C   0  0  0  0  0  0  0  0  0  0  0  0
   -0.7805   -1.1911   -1.7444 O   0  0  0  0  0  0  0  0  0  0  0  0
   -0.1246    2.1306    0.2976 H   0  0  0  0  0  0  0  0  0  0  0  0
   -1.7557    1.4964    0.0581 H   0  0  0  0  0  0  0  0  0  0  0  0
   -0.5709    1.3852   -1.2449 H   0  0  0  0  0  0  0  0  0  0  0  0
    0.8141   -0.1541    0.1667 H   0  0  0  0  0  0  0  0  0  0  0  0
   -1.5346   -0.0466    2.1192 H   0  0  0  0  0  0  0  0  0  0  0  0
    0.0611    0.6480    2.4019 H   0  0  0  0  0  0  0  0  0  0  0  0
   -0.1249   -1.1023    2.2618 H   0  0  0  0  0  0  0  0  0  0  0  0
   -0.6918   -2.1316    0.1011 H   0  0  0  0  0  0  0  0  0  0  0  0
   -2.0629   -1.0627   -0.2056 H   0  0  0  0  0  0  0  0  0  0  0  0
    0.1528   -1.3298   -1.9125 H   0  0  0  0  0  0  0  0  0  0  0  0
  1  2  1  0
  1  6  1  0
  1  7  1  0
  1  8  1  0
  2  3  1  0
  2  4  1  0
  2  9  1  0
  3 10  1  0
  3 11  1  0
  3 12  1  0
  4  5  1  0
  4 13  1  0
  4 14  1  0
  5 15  1  0
M  END
>  <reaction>  (1) 
rxn_424

>  <mol_properties>  (1) 
{"1": {"label": "donator", "atom_type": "Cs"}, "8": {"label": "d_hydrogen", "atom_type": "H0"}}

>  <type>  (1) 
r1h

$$$$

     RDKit          3D

  9  8  0  0  0  0  0  0  0  0999 V2000
   -1.1429   -0.0056    0.0357 C   0  0  0  0  0  0  0  0  0  0  0  0
    0.2348   -0.4846   -0.1988 C   0  0  0  0  0  0  0  0  0  0  0  0
    1.3889    0.3067    0.0768 C   0  0  0  0  0  0  0  0  0  0  0  0
    1.3416    1.4450    0.5289 O   0  0  0  0  0  1  0  0  0  0  0  0
   -1.7198   -0.0230   -0.8945 H   0  0  0  0  0  0  0  0  0  0  0  0
   -1.1399    1.0063    0.4362 H   0  0  0  0  0  0  0  0  0  0  0  0
   -1.6667   -0.6673    0.7330 H   0  0  0  0  0  0  0  0  0  0  0  0
    0.3900   -1.4812   -0.5984 H   0  0  0  0  0  0  0  0  0  0  0  0
    2.3646   -0.1624   -0.1407 H   0  0  0  0  0  0  0  0  0  0  0  0
  1  2  1  0
  1  5  1  0
  1  6  1  0
  1  7  1  0
  2  3  2  3
  2  8  1  0
  3  4  1  0
  3  9  1  0
M  RAD  1   4   2
M  END
>  <reaction>  (2) 
rxn_424

>  <mol_properties>  (2) 
{"1": {"label": "acceptor", "atom_type": "Cs"}}

>  <type>  (2) 
r2

$$$$

     RDKit          3D

 10  9  0  0  0  0  0  0  0  0999 V2000
   -1.1238    0.2714    0.2496 C   0  0  0  0  0  0  0  0  0  0  0  0
    0.0881   -0.5850   -0.0680 C   0  0  0  0  0  0  0  0  0  0  0  0
   -0.0512   -1.4242   -1.3070 C   0  0  0  0  0  0  0  0  0  0  0  0
   -1.0187   -1.4480   -2.0158 O   0  0  0  0  0  0  0  0  0  0  0  0
   -2.0096   -0.3470    0.3939 H   0  0  0  0  0  0  0  0  0  0  0  0
   -0.9564    0.8523    1.1567 H   0  0  0  0  0  0  0  0  0  0  0  0
   -1.3376    0.9606   -0.5673 H   0  0  0  0  0  0  0  0  0  0  0  0
    0.3267   -1.2715    0.7528 H   0  0  0  0  0  0  0  0  0  0  0  0
    0.9917    0.0222   -0.1983 H   0  0  0  0  0  0  0  0  0  0  0  0
    0.8330   -2.0534   -1.5447 H   0  0  0  0  0  0  0  0  0  0  0  0
  1  2  1  0
  1  5  1  0
  1  6  1  0
  1  7  1  0
  2  3  1  0
  2  8  1  0
  2  9  1  0
  3  4  2  0
  3 10  1  0
M  END
>  <reaction>  (3) 
rxn_424

>  <mol_properties>  (3) 
{"0": {"label": "a_hydrogen", "atom_type": "H0"}, "2": {"label": "acceptor", "atom_type": "Cs"}}

>  <type>  (3) 
r2h

$$$$

     RDKit          3D

 24 22  0  0  0  0  0  0  0  0999 V2000
   -0.5793    1.4505   -1.8058 C   0  0  0  0  0  0  0  0  0  0  0  0
   -0.8629    1.1733   -0.3572 C   0  0  0  0  0  3  0  0  0  0  0  0
   -1.1518    2.3762    0.4978 C   0  0  0  0  0  0  0  0  0  0  0  0
   -1.7680   -0.0105   -0.0894 C   0  0  0  0  0  0  0  0  0  0  0  0
   -1.3756   -1.1913   -0.7386 O   0  0  0  0  0  0  0  0  0  0  0  0
    0.2359    2.1673   -1.9230 H   0  0  0  0  0  0  0  0  0  0  0  0
   -1.4670    1.8823   -2.2848 H   0  0  0  0  0  0  0  0  0  0  0  0
   -0.3291    0.5335   -2.3376 H   0  0  0  0  0  0  0  0  0  0  0  0
    0.3488    0.7091    0.1622 H   0  0  0  0  0  0  0  0  0  0  0  0
   -2.1258    2.8081    0.2391 H   0  0  0  0  0  0  0  0  0  0  0  0
   -0.4015    3.1555    0.3529 H   0  0  0  0  0  0  0  0  0  0  0  0
   -1.1802    2.1175    1.5589 H   0  0  0  0  0  0  0  0  0  0  0  0
   -1.8560   -0.1631    0.9941 H   0  0  0  0  0  0  0  0  0  0  0  0
   -2.7736    0.2378   -0.4548 H   0  0  0  0  0  0  0  0  0  0  0  0
   -0.7239   -1.6404   -0.1819 H   0  0  0  0  0  0  0  0  0  0  0  0
    2.0671   -0.3907   -0.7184 C   0  0  0  0  0  0  0  0  0  0  0  0
    1.4751    0.1703    0.5528 C   0  0  0  0  0  0  0  0  0  0  0  0
    1.0040   -0.7719    1.5621 C   0  0  0  0  0  0  0  0  0  0  0  0
    0.5436   -1.8726    1.3137 O   0  0  0  0  0  0  0  0  0  0  0  0
    2.2164    0.3988   -1.4551 H   0  0  0  0  0  0  0  0  0  0  0  0
    1.4124   -1.1444   -1.1534 H   0  0  0  0  0  0  0  0  0  0  0  0
    3.0351   -0.8574   -0.5223 H   0  0  0  0  0  0  0  0  0  0  0  0
    2.0134    1.0149    0.9801 H   0  0  0  0  0  0  0  0  0  0  0  0
    1.0182   -0.4130    2.6091 H   0  0  0  0  0  0  0  0  0  0  0  0
  1  2  1  0
  1  6  1  0
  1  7  1  0
  1  8  1  0
  2  3  1  0
  2  4  1  0
  3 10  1  0
  3 11  1  0
  3 12  1  0
  4  5  1  0
  4 13  1  0
  4 14  1  0
  5 15  1  0
  9 17  1  0
 16 17  1  0
 16 20  1  0
 16 21  1  0
 16 22  1  0
 17 18  1  0
 17 23  1  0
 18 19  2  0
 18 24  1  0
M  RAD  1   2   2
M  END
>  <reaction>  (4) 
rxn_424

>  <mol_properties>  (4) 
{"1": {"label": "*3", "atom_type": "Cs"}, "3": {"label": "*4", "atom_type": "Cs"}, "8": {"label": "*2", "atom_type": "H0"}, "16": {"label": "*1", "atom_type": "Cs"}, "17": {"label": "*0", "atom_type": "CO"}}

>  <type>  (4) 
ts

$$$$
