
     RDKit          3D

  7  6  0  0  0  0  0  0  0  0999 V2000
    1.2985   -0.0065   -0.2721 C   0  0  0  0  0  0  0  0  0  0  0  0
    0.0000    0.0000   -0.2926 C   0  0  0  0  0  0  0  0  0  0  0  0
   -1.2985    0.0065   -0.3130 C   0  0  0  0  0  0  0  0  0  0  0  0
    1.8444   -0.7551    0.2895 H   0  0  0  0  0  0  0  0  0  0  0  0
    1.8693    0.7364   -0.8162 H   0  0  0  0  0  0  0  0  0  0  0  0
   -1.8658    0.5623    0.4239 H   0  0  0  0  0  0  0  0  0  0  0  0
   -1.8479   -0.5437   -1.0675 H   0  0  0  0  0  0  0  0  0  0  0  0
  1  2  2  0
  1  4  1  0
  1  5  1  0
  2  3  2  0
  3  6  1  0
  3  7  1  0
M  END
>  <reaction>  (1) 
rxn_1814

>  <mol_properties>  (1) 
{"0": {"label": "donator", "atom_type": "Cd"}, "3": {"label": "d_hydrogen", "atom_type": "H0"}}

>  <type>  (1) 
r1h

$$$$

     RDKit          3D

  7  6  0  0  0  0  0  0  0  0999 V2000
   -1.3496    0.0255    0.0758 C   0  0  0  0  0  0  0  0  0  0  0  0
   -0.0636   -0.0704   -0.0033 C   0  0  0  0  0  0  0  0  0  0  0  0
    1.2597   -0.1602   -0.0839 C   0  0  0  0  0  0  0  0  0  0  0  0
    2.2616    1.2090   -0.0064 S   0  0  0  0  0  1  0  0  0  0  0  0
   -1.8547   -0.0180    1.0345 H   0  0  0  0  0  0  0  0  0  0  0  0
   -1.9552    0.1601   -0.8138 H   0  0  0  0  0  0  0  0  0  0  0  0
    1.7017   -1.1460   -0.2029 H   0  0  0  0  0  0  0  0  0  0  0  0
  1  2  2  0
  1  5  1  0
  1  6  1  0
  2  3  2  0
  3  4  1  0
  3  7  1  0
M  RAD  1   4   2
M  END
>  <reaction>  (2) 
rxn_1814

>  <mol_properties>  (2) 
{"1": {"label": "acceptor", "atom_type": "Cd"}}

>  <type>  (2) 
r2

$$$$

     RDKit          3D

  8  7  0  0  0  0  0  0  0  0999 V2000
   -1.1617    0.0338    0.5053 C   0  0  0  0  0  0  0  0  0  0  0  0
   -0.1023    0.4503   -0.1863 C   0  0  0  0  0  0  0  0  0  0  0  0
    1.0978   -0.3557   -0.3104 C   0  0  0  0  0  0  0  0  0  0  0  0
    2.4251    0.0667   -1.1256 S   0  0  0  0  0  0  0  0  0  0  0  0
   -1.1653   -0.9292    1.0039 H   0  0  0  0  0  0  0  0  0  0  0  0
   -2.0546    0.6389    0.5948 H   0  0  0  0  0  0  0  0  0  0  0  0
   -0.0991    1.4132   -0.6847 H   0  0  0  0  0  0  0  0  0  0  0  0
    1.0601   -1.3180    0.2032 H   0  0  0  0  0  0  0  0  0  0  0  0
  1  2  2  3
  1  5  1  0
  1  6  1  0
  2  3  1  0
  2  7  1  0
  3  4  2  0
  3  8  1  0
M  END
>  <reaction>  (3) 
rxn_1814

>  <mol_properties>  (3) 
{"1": {"label": "acceptor", "atom_type": "Cd"}, "7": {"label": "a_hydrogen", "atom_type": "H0"}}

>  <type>  (3) 
r2h

$$$$

     RDKit          3D

 14 12  0  0  0  0  0  0  0  0999 V2000
   -1.2251   -1.6513   -0.5780 C   0  0  0  0  0  0  0  0  0  0  0  0
   -0.6117   -0.8246    0.2483 C   0  0  0  0  0  0  0  0  0  0  0  0
   -0.6035   -0.8138    1.6847 C   0  0  0  0  0  0  0  0  0  0  0  0
    0.1772    0.2382    2.6279 S   0  0  0  0  0  1  0  0  0  0  0  0
   -1.8361   -2.4750   -0.2131 H   0  0  0  0  0  0  0  0  0  0  0  0
   -1.1391   -1.5352   -1.6536 H   0  0  0  0  0  0  0  0  0  0  0  0
   -1.1961   -1.6126    2.1431 H   0  0  0  0  0  0  0  0  0  0  0  0
    0.7636    1.0292   -1.0975 C   0  0  0  0  0  0  0  0  0  0  0  0
    0.6731    0.9073   -2.3697 C   0  0  0  0  0  0  0  0  0  0  0  0
    0.5325    0.7180   -3.6577 C   0  0  0  0  0  0  0  0  0  0  0  0
    0.1478    0.1990   -0.4088 H   0  0  0  0  0  0  0  0  0  0  0  0
    1.3055    1.7595   -0.5153 H   0  0  0  0  0  0  0  0  0  0  0  0
   -0.2654    1.2012   -4.2084 H   0  0  0  0  0  0  0  0  0  0  0  0
    1.2264    0.0945   -4.2085 H   0  0  0  0  0  0  0  0  0  0  0  0
  1  2  2  0
  1  5  1  0
  1  6  1  0
  2  3  2  0
  3  4  1  0
  3  7  1  0
  8  9  2  0
  8 11  1  0
  8 12  1  0
  9 10  2  0
 10 13  1  0
 10 14  1  0
M  RAD  1   4   2
M  END
>  <reaction>  (4) 
rxn_1814

>  <mol_properties>  (4) 
{"1": {"label": "*3", "atom_type": "Cdd"}, "2": {"label": "*4", "atom_type": "Cd"}, "7": {"label": "*1", "atom_type": "Cd"}, "8": {"label": "*0", "atom_type": "Cdd"}, "10": {"label": "*2", "atom_type": "H0"}}

>  <type>  (4) 
ts

$$$$
