
     RDKit          3D

 18 18  0  0  0  0  0  0  0  0999 V2000
   -2.4852    0.3210   -0.3966 C   0  0  0  0  0  0  0  0  0  0  0  0
   -1.5917   -0.2708    0.6941 C   0  0  0  0  0  0  0  0  0  0  0  0
   -0.1292   -0.1692    0.3493 C   0  0  0  0  0  0  0  0  0  0  0  0
    0.6099    0.9558    0.7015 C   0  0  0  0  0  0  0  0  0  0  0  0
    1.9447    1.0728    0.3458 C   0  0  0  0  0  0  0  0  0  0  0  0
    2.5646    0.0613   -0.3720 C   0  0  0  0  0  0  0  0  0  0  0  0
    1.8399   -1.0657   -0.7287 C   0  0  0  0  0  0  0  0  0  0  0  0
    0.5055   -1.1769   -0.3700 C   0  0  0  0  0  0  0  0  0  0  0  0
   -2.3325   -0.1971   -1.3452 H   0  0  0  0  0  0  0  0  0  0  0  0
   -2.2554    1.3763   -0.5546 H   0  0  0  0  0  0  0  0  0  0  0  0
   -3.5397    0.2376   -0.1280 H   0  0  0  0  0  0  0  0  0  0  0  0
   -1.7801    0.2462    1.6380 H   0  0  0  0  0  0  0  0  0  0  0  0
   -1.8568   -1.3190    0.8516 H   0  0  0  0  0  0  0  0  0  0  0  0
    0.1327    1.7497    1.2656 H   0  0  0  0  0  0  0  0  0  0  0  0
    2.5033    1.9550    0.6330 H   0  0  0  0  0  0  0  0  0  0  0  0
    3.6077    0.1491   -0.6484 H   0  0  0  0  0  0  0  0  0  0  0  0
    2.3163   -1.8632   -1.2854 H   0  0  0  0  0  0  0  0  0  0  0  0
   -0.0540   -2.0629   -0.6500 H   0  0  0  0  0  0  0  0  0  0  0  0
  1  2  1  0
  1  9  1  0
  1 10  1  0
  1 11  1  0
  2  3  1  0
  2 12  1  0
  2 13  1  0
  3  4  2  0
  3  8  1  0
  4  5  1  0
  4 14  1  0
  5  6  2  0
  5 15  1  0
  6  7  1  0
  6 16  1  0
  7  8  2  0
  7 17  1  0
  8 18  1  0
M  END
>  <reaction>  (1) 
rxn_1486

>  <mol_properties>  (1) 
{"1": {"label": "donator", "atom_type": "Cs"}, "11": {"label": "d_hydrogen", "atom_type": "H0"}}

>  <type>  (1) 
r1h

$$$$

     RDKit          3D

 15 14  0  0  0  0  0  0  0  0999 V2000
    2.4381    0.5770   -0.2356 C   0  0  0  0  0  0  0  0  0  0  0  0
    1.4430   -0.3367   -0.1409 C   0  0  0  0  0  0  0  0  0  0  0  0
    0.0521   -0.0957   -0.0045 C   0  0  0  0  0  3  0  0  0  0  0  0
   -0.5167    1.2867    0.0548 C   0  0  0  0  0  0  0  0  0  0  0  0
   -0.8226   -1.2147    0.0778 C   0  0  0  0  0  0  0  0  0  0  0  0
   -2.1666   -1.1669    0.2092 C   0  0  0  0  0  0  0  0  0  0  0  0
    3.4666    0.2585   -0.3369 H   0  0  0  0  0  0  0  0  0  0  0  0
    2.2594    1.6438   -0.2152 H   0  0  0  0  0  0  0  0  0  0  0  0
    1.7306   -1.3845   -0.1719 H   0  0  0  0  0  0  0  0  0  0  0  0
   -1.2300    1.4469   -0.7583 H   0  0  0  0  0  0  0  0  0  0  0  0
    0.2481    2.0557   -0.0178 H   0  0  0  0  0  0  0  0  0  0  0  0
   -1.0592    1.4421    0.9914 H   0  0  0  0  0  0  0  0  0  0  0  0
   -0.3519   -2.1929    0.0292 H   0  0  0  0  0  0  0  0  0  0  0  0
   -2.7080   -0.2310    0.2646 H   0  0  0  0  0  0  0  0  0  0  0  0
   -2.7513   -2.0751    0.2638 H   0  0  0  0  0  0  0  0  0  0  0  0
  1  2  2  3
  1  7  1  0
  1  8  1  0
  2  3  1  0
  2  9  1  0
  3  4  1  0
  3  5  1  0
  4 10  1  0
  4 11  1  0
  4 12  1  0
  5  6  2  3
  5 13  1  0
  6 14  1  0
  6 15  1  0
M  RAD  1   3   2
M  END
>  <reaction>  (2) 
rxn_1486

>  <mol_properties>  (2) 
{"2": {"label": "acceptor", "atom_type": "Cs"}}

>  <type>  (2) 
r2

$$$$

     RDKit          3D

 16 15  0  0  0  0  0  0  0  0999 V2000
    1.7961   -0.3807    1.6176 C   0  0  0  0  0  0  0  0  0  0  0  0
    0.8562   -0.8708    0.8256 C   0  0  0  0  0  0  0  0  0  0  0  0
    0.0895   -0.0826   -0.2048 C   0  0  0  0  0  0  0  0  0  0  0  0
   -1.4061   -0.1111    0.0982 C   0  0  0  0  0  0  0  0  0  0  0  0
    0.4476   -0.5902   -1.5797 C   0  0  0  0  0  0  0  0  0  0  0  0
   -0.3793   -1.1113   -2.4728 C   0  0  0  0  0  0  0  0  0  0  0  0
    2.3110   -1.0032    2.3386 H   0  0  0  0  0  0  0  0  0  0  0  0
    2.0846    0.6643    1.5737 H   0  0  0  0  0  0  0  0  0  0  0  0
    0.5921   -1.9241    0.8925 H   0  0  0  0  0  0  0  0  0  0  0  0
    0.4358    0.9557   -0.1462 H   0  0  0  0  0  0  0  0  0  0  0  0
   -1.5968    0.3080    1.0865 H   0  0  0  0  0  0  0  0  0  0  0  0
   -1.9674    0.4693   -0.6359 H   0  0  0  0  0  0  0  0  0  0  0  0
   -1.7902   -1.1338    0.0883 H   0  0  0  0  0  0  0  0  0  0  0  0
    1.5049   -0.5197   -1.8214 H   0  0  0  0  0  0  0  0  0  0  0  0
   -1.4421   -1.2131   -2.2889 H   0  0  0  0  0  0  0  0  0  0  0  0
   -0.0162   -1.4558   -3.4328 H   0  0  0  0  0  0  0  0  0  0  0  0
  1  2  2  3
  1  7  1  0
  1  8  1  0
  2  3  1  0
  2  9  1  0
  3  4  1  0
  3  5  1  0
  3 10  1  0
  4 11  1  0
  4 12  1  0
  4 13  1  0
  5  6  2  3
  5 14  1  0
  6 15  1  0
  6 16  1  0
M  END
>  <reaction>  (3) 
rxn_1486

>  <mol_properties>  (3) 
{"2": {"label": "acceptor", "atom_type": "Cs"}, "15": {"label": "a_hydrogen", "atom_type": "H0"}}

>  <type>  (3) 
r2h

$$$$

     RDKit          3D

 33 32  0  0  0  0  0  0  0  0999 V2000
   -2.9302   -1.0239   -1.0242 C   0  0  0  0  0  0  0  0  0  0  0  0
   -2.0120   -0.7612   -0.0956 C   0  0  0  0  0  0  0  0  0  0  0  0
   -0.9075   -1.6400    0.3313 C   0  0  0  0  0  0  0  0  0  0  0  0
   -0.9005   -3.0521   -0.2039 C   0  0  0  0  0  0  0  0  0  0  0  0
   -0.5179   -1.4538    1.7423 C   0  0  0  0  0  0  0  0  0  0  0  0
   -0.0072   -2.3751    2.5563 C   0  0  0  0  0  0  0  0  0  0  0  0
   -3.6840   -0.2904   -1.2792 H   0  0  0  0  0  0  0  0  0  0  0  0
   -2.9752   -1.9720   -1.5458 H   0  0  0  0  0  0  0  0  0  0  0  0
   -2.0363    0.2105    0.3913 H   0  0  0  0  0  0  0  0  0  0  0  0
    0.0521   -3.5409    0.0039 H   0  0  0  0  0  0  0  0  0  0  0  0
   -1.0433   -3.0601   -1.2848 H   0  0  0  0  0  0  0  0  0  0  0  0
   -1.6956   -3.6507    0.2488 H   0  0  0  0  0  0  0  0  0  0  0  0
   -0.6391   -0.4416    2.1198 H   0  0  0  0  0  0  0  0  0  0  0  0
    0.1350   -3.4050    2.2529 H   0  0  0  0  0  0  0  0  0  0  0  0
    0.2718   -2.1229    3.5711 H   0  0  0  0  0  0  0  0  0  0  0  0
    0.7668   -0.7758   -2.4306 C   0  0  0  0  0  0  0  0  0  0  0  0
    1.1447   -0.4806   -1.0071 C   0  0  0  0  0  0  0  0  0  0  0  0
    1.0676    0.8741   -0.4775 C   0  0  0  0  0  0  0  0  0  0  0  0
    0.3105    1.8759   -1.0966 C   0  0  0  0  0  3  0  0  0  0  0  0
    0.1888    3.1309   -0.5242 C   0  0  0  0  0  0  0  0  0  0  0  0
    0.8119    3.4176    0.6816 C   0  0  0  0  0  0  0  0  0  0  0  0
    1.5640    2.4337    1.3116 C   0  0  0  0  0  0  0  0  0  0  0  0
    1.6884    1.1812    0.7414 C   0  0  0  0  0  0  0  0  0  0  0  0
    1.3716   -0.1961   -3.1357 H   0  0  0  0  0  0  0  0  0  0  0  0
   -0.2825   -0.5377   -2.6222 H   0  0  0  0  0  0  0  0  0  0  0  0
    0.9117   -1.8325   -2.6549 H   0  0  0  0  0  0  0  0  0  0  0  0
    0.0954   -1.0963   -0.2775 H   0  0  0  0  0  0  0  0  0  0  0  0
    1.9764   -1.0629   -0.6160 H   0  0  0  0  0  0  0  0  0  0  0  0
   -0.1879    1.6701   -2.0351 H   0  0  0  0  0  0  0  0  0  0  0  0
   -0.3986    3.8917   -1.0235 H   0  0  0  0  0  0  0  0  0  0  0  0
    0.7149    4.3995    1.1266 H   0  0  0  0  0  0  0  0  0  0  0  0
    2.0559    2.6471    2.2525 H   0  0  0  0  0  0  0  0  0  0  0  0
    2.2697    0.4151    1.2417 H   0  0  0  0  0  0  0  0  0  0  0  0
  1  2  2  3
  1  7  1  0
  1  8  1  0
  2  3  1  0
  2  9  1  0
  3  4  1  0
  3  5  1  0
  3 27  1  0
  4 10  1  0
  4 11  1  0
  4 12  1  0
  5  6  2  3
  5 13  1  0
  6 14  1  0
  6 15  1  0
 16 17  1  0
 16 24  1  0
 16 25  1  0
 16 26  1  0
 17 18  2  3
 17 28  1  0
 18 19  1  0
 18 23  1  0
 19 20  1  0
 19 29  1  0
 20 21  2  0
 20 30  1  0
 21 22  1  0
 21 31  1  0
 22 23  2  0
 22 32  1  0
 23 33  1  0
M  RAD  1  19   2
M  END
>  <reaction>  (4) 
rxn_1486

>  <mol_properties>  (4) 
{"1": {"label": "*0", "atom_type": "Cd"}, "2": {"label": "*1", "atom_type": "Cs"}, "16": {"label": "*3", "atom_type": "Cd"}, "17": {"label": "*4", "atom_type": "Cd"}, "26": {"label": "*2", "atom_type": "H0"}}

>  <type>  (4) 
ts

$$$$
