
     RDKit          3D

 16 15  0  0  0  0  0  0  0  0999 V2000
    1.7961   -0.3807    1.6176 C   0  0  0  0  0  0  0  0  0  0  0  0
    0.8562   -0.8708    0.8256 C   0  0  0  0  0  0  0  0  0  0  0  0
    0.0895   -0.0826   -0.2048 C   0  0  0  0  0  0  0  0  0  0  0  0
   -1.4061   -0.1111    0.0982 C   0  0  0  0  0  0  0  0  0  0  0  0
    0.4476   -0.5902   -1.5797 C   0  0  0  0  0  0  0  0  0  0  0  0
   -0.3793   -1.1113   -2.4728 C   0  0  0  0  0  0  0  0  0  0  0  0
    2.3110   -1.0032    2.3386 H   0  0  0  0  0  0  0  0  0  0  0  0
    2.0846    0.6643    1.5737 H   0  0  0  0  0  0  0  0  0  0  0  0
    0.5921   -1.9241    0.8925 H   0  0  0  0  0  0  0  0  0  0  0  0
    0.4358    0.9557   -0.1462 H   0  0  0  0  0  0  0  0  0  0  0  0
   -1.5968    0.3080    1.0865 H   0  0  0  0  0  0  0  0  0  0  0  0
   -1.9674    0.4693   -0.6359 H   0  0  0  0  0  0  0  0  0  0  0  0
   -1.7902   -1.1338    0.0883 H   0  0  0  0  0  0  0  0  0  0  0  0
    1.5049   -0.5197   -1.8214 H   0  0  0  0  0  0  0  0  0  0  0  0
   -1.4421   -1.2131   -2.2889 H   0  0  0  0  0  0  0  0  0  0  0  0
   -0.0162   -1.4558   -3.4328 H   0  0  0  0  0  0  0  0  0  0  0  0
  1  2  2  3
  1  7  1  0
  1  8  1  0
  2  3  1  0
  2  9  1  0
  3  4  1  0
  3  5  1  0
  3 10  1  0
  4 11  1  0
  4 12  1  0
  4 13  1  0
  5  6  2  3
  5 14  1  0
  6 15  1  0
  6 16  1  0
M  END
>  <reaction>  (1) 
rxn_1185

>  <mol_properties>  (1) 
{"2": {"label": "donator", "atom_type": "Cs"}, "9": {"label": "d_hydrogen", "atom_type": "H0"}}

>  <type>  (1) 
r1h

$$$$

     RDKit          3D

 20 20  0  0  0  0  0  0  0  0999 V2000
   -2.4774    0.8083    0.1488 C   0  0  0  0  0  0  0  0  0  0  0  0
   -1.4172   -0.1696   -0.2476 C   0  0  0  0  0  3  0  0  0  0  0  0
   -0.2904    0.2932   -1.1156 C   0  0  0  0  0  0  0  0  0  0  0  0
   -1.4797   -1.5204    0.1947 C   0  0  0  0  0  0  0  0  0  0  0  0
   -0.4907   -2.4664   -0.1650 C   0  0  0  0  0  0  0  0  0  0  0  0
   -0.5559   -3.7750    0.2665 C   0  0  0  0  0  0  0  0  0  0  0  0
   -1.6038   -4.2041    1.0733 C   0  0  0  0  0  0  0  0  0  0  0  0
   -2.5899   -3.2959    1.4424 C   0  0  0  0  0  0  0  0  0  0  0  0
   -2.5339   -1.9852    1.0162 C   0  0  0  0  0  0  0  0  0  0  0  0
   -3.4697    0.4933   -0.1924 H   0  0  0  0  0  0  0  0  0  0  0  0
   -2.5434    0.9184    1.2368 H   0  0  0  0  0  0  0  0  0  0  0  0
   -2.2829    1.7944   -0.2706 H   0  0  0  0  0  0  0  0  0  0  0  0
   -0.2452   -0.2661   -2.0565 H   0  0  0  0  0  0  0  0  0  0  0  0
   -0.3905    1.3487   -1.3647 H   0  0  0  0  0  0  0  0  0  0  0  0
    0.6811    0.1589   -0.6274 H   0  0  0  0  0  0  0  0  0  0  0  0
    0.3373   -2.1635   -0.7918 H   0  0  0  0  0  0  0  0  0  0  0  0
    0.2187   -4.4725   -0.0281 H   0  0  0  0  0  0  0  0  0  0  0  0
   -1.6513   -5.2316    1.4097 H   0  0  0  0  0  0  0  0  0  0  0  0
   -3.4116   -3.6175    2.0706 H   0  0  0  0  0  0  0  0  0  0  0  0
   -3.3164   -1.3029    1.3205 H   0  0  0  0  0  0  0  0  0  0  0  0
  1  2  1  0
  1 10  1  0
  1 11  1  0
  1 12  1  0
  2  3  1  0
  2  4  1  0
  3 13  1  0
  3 14  1  0
  3 15  1  0
  4  5  2  0
  4  9  1  0
  5  6  1  0
  5 16  1  0
  6  7  2  0
  6 17  1  0
  7  8  1  0
  7 18  1  0
  8  9  2  0
  8 19  1  0
  9 20  1  0
M  RAD  1   2   2
M  END
>  <reaction>  (2) 
rxn_1185

>  <mol_properties>  (2) 
{"1": {"label": "acceptor", "atom_type": "Cs"}}

>  <type>  (2) 
r2

$$$$

     RDKit          3D

 21 21  0  0  0  0  0  0  0  0999 V2000
   -1.3695    1.3367   -1.0719 C   0  0  0  0  0  0  0  0  0  0  0  0
   -1.4091   -0.0981   -0.5428 C   0  0  0  0  0  0  0  0  0  0  0  0
   -0.1819   -0.3999    0.3191 C   0  0  0  0  0  0  0  0  0  0  0  0
   -1.5636   -1.1028   -1.6652 C   0  0  0  0  0  0  0  0  0  0  0  0
   -0.5920   -1.2314   -2.6553 C   0  0  0  0  0  0  0  0  0  0  0  0
   -0.7353   -2.1509   -3.6809 C   0  0  0  0  0  0  0  0  0  0  0  0
   -1.8582   -2.9642   -3.7377 C   0  0  0  0  0  0  0  0  0  0  0  0
   -2.8325   -2.8475   -2.7602 C   0  0  0  0  0  0  0  0  0  0  0  0
   -2.6828   -1.9241   -1.7351 C   0  0  0  0  0  0  0  0  0  0  0  0
   -0.4920    1.4974   -1.7025 H   0  0  0  0  0  0  0  0  0  0  0  0
   -2.2553    1.5607   -1.6679 H   0  0  0  0  0  0  0  0  0  0  0  0
   -1.3211    2.0496   -0.2461 H   0  0  0  0  0  0  0  0  0  0  0  0
   -2.2930   -0.1918    0.0948 H   0  0  0  0  0  0  0  0  0  0  0  0
   -0.1215    0.2955    1.1588 H   0  0  0  0  0  0  0  0  0  0  0  0
   -0.2200   -1.4155    0.7159 H   0  0  0  0  0  0  0  0  0  0  0  0
    0.7383   -0.3016   -0.2615 H   0  0  0  0  0  0  0  0  0  0  0  0
    0.2915   -0.6040   -2.6263 H   0  0  0  0  0  0  0  0  0  0  0  0
    0.0326   -2.2338   -4.4401 H   0  0  0  0  0  0  0  0  0  0  0  0
   -1.9712   -3.6833   -4.5391 H   0  0  0  0  0  0  0  0  0  0  0  0
   -3.7135   -3.4765   -2.7932 H   0  0  0  0  0  0  0  0  0  0  0  0
   -3.4509   -1.8400   -0.9743 H   0  0  0  0  0  0  0  0  0  0  0  0
  1  2  1  0
  1 10  1  0
  1 11  1  0
  1 12  1  0
  2  3  1  0
  2  4  1  0
  2 13  1  0
  3 14  1  0
  3 15  1  0
  3 16  1  0
  4  5  2  0
  4  9  1  0
  5  6  1  0
  5 17  1  0
  6  7  2  0
  6 18  1  0
  7  8  1  0
  7 19  1  0
  8  9  2  0
  8 20  1  0
  9 21  1  0
M  END
>  <reaction>  (3) 
rxn_1185

>  <mol_properties>  (3) 
{"0": {"label": "a_hydrogen", "atom_type": "H0"}, "2": {"label": "acceptor", "atom_type": "Cs"}}

>  <type>  (3) 
r2h

$$$$

     RDKit          3D

 36 35  0  0  0  0  0  0  0  0999 V2000
   -0.3524   -3.3755   -0.2658 C   0  0  0  0  0  0  0  0  0  0  0  0
    0.1638   -2.2608    0.2497 C   0  0  0  0  0  0  0  0  0  0  0  0
   -0.4243   -1.3851    1.2811 C   0  0  0  0  0  0  0  0  0  0  0  0
    0.5872   -0.8097    2.2497 C   0  0  0  0  0  0  0  0  0  0  0  0
   -1.7346   -1.7702    1.8258 C   0  0  0  0  0  0  0  0  0  0  0  0
   -2.1599   -1.5810    3.0732 C   0  0  0  0  0  0  0  0  0  0  0  0
    0.1690   -3.9141   -1.0465 H   0  0  0  0  0  0  0  0  0  0  0  0
   -1.2885   -3.7986    0.0768 H   0  0  0  0  0  0  0  0  0  0  0  0
    1.1212   -1.9161   -0.1333 H   0  0  0  0  0  0  0  0  0  0  0  0
   -0.7117   -0.3208    0.5654 H   0  0  0  0  0  0  0  0  0  0  0  0
    1.4586   -0.4367    1.7091 H   0  0  0  0  0  0  0  0  0  0  0  0
    0.1656    0.0208    2.8181 H   0  0  0  0  0  0  0  0  0  0  0  0
    0.9266   -1.5672    2.9619 H   0  0  0  0  0  0  0  0  0  0  0  0
   -2.4252   -2.2107    1.1124 H   0  0  0  0  0  0  0  0  0  0  0  0
   -1.5286   -1.1518    3.8416 H   0  0  0  0  0  0  0  0  0  0  0  0
   -3.1621   -1.8646    3.3675 H   0  0  0  0  0  0  0  0  0  0  0  0
   -2.0862    0.2166   -1.0827 C   0  0  0  0  0  0  0  0  0  0  0  0
   -1.0187    0.8064   -0.1904 C   0  0  0  0  0  3  0  0  0  0  0  0
   -1.5523    1.7502    0.8592 C   0  0  0  0  0  0  0  0  0  0  0  0
    0.2855    1.1133   -0.8036 C   0  0  0  0  0  0  0  0  0  0  0  0
    1.1766    2.0285   -0.2262 C   0  0  0  0  0  0  0  0  0  0  0  0
    2.4283    2.2587   -0.7698 C   0  0  0  0  0  0  0  0  0  0  0  0
    2.8366    1.5813   -1.9090 C   0  0  0  0  0  0  0  0  0  0  0  0
    1.9696    0.6742   -2.4998 C   0  0  0  0  0  0  0  0  0  0  0  0
    0.7171    0.4449   -1.9585 C   0  0  0  0  0  0  0  0  0  0  0  0
   -1.7715   -0.7259   -1.5338 H   0  0  0  0  0  0  0  0  0  0  0  0
   -2.9882    0.0138   -0.5042 H   0  0  0  0  0  0  0  0  0  0  0  0
   -2.3519    0.9040   -1.8925 H   0  0  0  0  0  0  0  0  0  0  0  0
   -1.8441    2.7097    0.4172 H   0  0  0  0  0  0  0  0  0  0  0  0
   -2.4329    1.3181    1.3361 H   0  0  0  0  0  0  0  0  0  0  0  0
   -0.8269    1.9559    1.6461 H   0  0  0  0  0  0  0  0  0  0  0  0
    0.8892    2.5767    0.6603 H   0  0  0  0  0  0  0  0  0  0  0  0
    3.0897    2.9758   -0.2995 H   0  0  0  0  0  0  0  0  0  0  0  0
    3.8158    1.7616   -2.3336 H   0  0  0  0  0  0  0  0  0  0  0  0
    2.2702    0.1396   -3.3925 H   0  0  0  0  0  0  0  0  0  0  0  0
    0.0666   -0.2719   -2.4401 H   0  0  0  0  0  0  0  0  0  0  0  0
  1  2  2  3
  1  7  1  0
  1  8  1  0
  2  3  1  0
  2  9  1  0
  3  4  1  0
  3  5  1  0
  3 10  1  0
  4 11  1  0
  4 12  1  0
  4 13  1  0
  5  6  2  3
  5 14  1  0
  6 15  1  0
  6 16  1  0
 17 18  1  0
 17 26  1  0
 17 27  1  0
 17 28  1  0
 18 19  1  0
 18 20  1  0
 19 29  1  0
 19 30  1  0
 19 31  1  0
 20 21  2  0
 20 25  1  0
 21 22  1  0
 21 32  1  0
 22 23  2  0
 22 33  1  0
 23 24  1  0
 23 34  1  0
 24 25  2  0
 24 35  1  0
 25 36  1  0
M  RAD  1  18   2
M  END
>  <reaction>  (4) 
rxn_1185

>  <mol_properties>  (4) 
{"1": {"label": "*0", "atom_type": "Cd"}, "2": {"label": "*1", "atom_type": "Cs"}, "9": {"label": "*2", "atom_type": "H0"}, "17": {"label": "*3", "atom_type": "Cs"}, "19": {"label": "*4", "atom_type": "Cd"}}

>  <type>  (4) 
ts

$$$$
