
     RDKit          3D

  5  4  0  0  0  0  0  0  0  0999 V2000
    0.0000    0.0000    0.0000 C   0  0  0  0  0  0  0  0  0  0  0  0
   -0.6486   -0.7720   -0.4113 H   0  0  0  0  0  0  0  0  0  0  0  0
   -0.3482    0.9787   -0.3267 H   0  0  0  0  0  0  0  0  0  0  0  0
   -0.0223   -0.0487    1.0876 H   0  0  0  0  0  0  0  0  0  0  0  0
    1.0191   -0.1580   -0.3496 H   0  0  0  0  0  0  0  0  0  0  0  0
  1  2  1  0
  1  3  1  0
  1  4  1  0
  1  5  1  0
M  END
>  <reaction>  (1) 
rxn_50

>  <mol_properties>  (1) 
{"0": {"label": "donator", "atom_type": "Cs"}, "1": {"label": "d_hydrogen", "atom_type": "H0"}}

>  <type>  (1) 
r1h

$$$$

     RDKit          3D

  2  1  0  0  0  0  0  0  0  0999 V2000
    0.0000    0.0000    0.6715 S   0  0  0  0  0  1  0  0  0  0  0  0
    0.0000    0.0000   -0.6715 H   0  0  0  0  0  0  0  0  0  0  0  0
  1  2  1  0
M  RAD  1   1   2
M  END
>  <reaction>  (2) 
rxn_50

>  <mol_properties>  (2) 
{"0": {"label": "acceptor", "atom_type": "S2s"}}

>  <type>  (2) 
r2

$$$$

     RDKit          3D

  3  2  0  0  0  0  0  0  0  0999 V2000
   -0.0007    0.6157    0.0000 S   0  0  0  0  0  0  0  0  0  0  0  0
   -0.9686   -0.3090    0.0000 H   0  0  0  0  0  0  0  0  0  0  0  0
    0.9693   -0.3067    0.0000 H   0  0  0  0  0  0  0  0  0  0  0  0
  1  2  1  0
  1  3  1  0
M  END
>  <reaction>  (3) 
rxn_50

>  <mol_properties>  (3) 
{"0": {"label": "a_hydrogen", "atom_type": "H0"}, "1": {"label": "acceptor", "atom_type": "S2s"}}

>  <type>  (3) 
r2h

$$$$

     RDKit          3D

  7  5  0  0  0  0  0  0  0  0999 V2000
    0.0000   -1.9860   -0.6820 C   0  0  0  0  0  3  0  0  0  0  0  0
    0.0000   -0.5214   -0.1121 H   0  0  0  0  0  0  0  0  0  0  0  0
    0.9237   -2.3515   -0.2517 H   0  0  0  0  0  0  0  0  0  0  0  0
   -0.9237   -2.3515   -0.2517 H   0  0  0  0  0  0  0  0  0  0  0  0
    0.0000   -1.7948   -1.7476 H   0  0  0  0  0  0  0  0  0  0  0  0
    0.0000    0.8598    0.3378 S   0  0  0  0  0  0  0  0  0  0  0  0
    0.0000    1.3107   -0.9233 H   0  0  0  0  0  0  0  0  0  0  0  0
  1  3  1  0
  1  4  1  0
  1  5  1  0
  2  6  1  0
  6  7  1  0
M  RAD  1   1   2
M  END
>  <reaction>  (4) 
rxn_50

>  <mol_properties>  (4) 
{"0": {"label": "*3", "atom_type": "Cs"}, "1": {"label": "*2", "atom_type": "H0"}, "2": {"label": "*4", "atom_type": "H0"}, "5": {"label": "*1", "atom_type": "S2s"}, "6": {"label": "*0", "atom_type": "H0"}}

>  <type>  (4) 
ts

$$$$
