
     RDKit          3D

 22 23  0  0  0  0  0  0  0  0999 V2000
   -2.1093   -0.3263    0.3079 C   0  0  0  0  0  0  0  0  0  0  0  0
   -1.3270    0.9803    0.4115 C   0  0  0  0  0  0  0  0  0  0  0  0
   -0.1818    0.8289   -0.6044 C   0  0  0  0  0  0  0  0  0  0  0  0
    1.1682    1.3904   -0.1341 C   0  0  0  0  0  0  0  0  0  0  0  0
    1.8508    0.2041    0.5479 C   0  0  0  0  0  0  0  0  0  0  0  0
    1.4982   -0.9663   -0.3710 C   0  0  0  0  0  0  0  0  0  0  0  0
    0.0340   -0.7124   -0.7594 C   0  0  0  0  0  0  0  0  0  0  0  0
   -0.9986   -1.3650    0.1756 C   0  0  0  0  0  0  0  0  0  0  0  0
   -2.7686   -0.5042    1.1589 H   0  0  0  0  0  0  0  0  0  0  0  0
   -2.7285   -0.3223   -0.5943 H   0  0  0  0  0  0  0  0  0  0  0  0
   -1.9339    1.8682    0.2289 H   0  0  0  0  0  0  0  0  0  0  0  0
   -0.9144    1.0729    1.4218 H   0  0  0  0  0  0  0  0  0  0  0  0
   -0.4804    1.2763   -1.5535 H   0  0  0  0  0  0  0  0  0  0  0  0
    1.7667    1.7058   -0.9931 H   0  0  0  0  0  0  0  0  0  0  0  0
    1.0540    2.2578    0.5189 H   0  0  0  0  0  0  0  0  0  0  0  0
    1.4197    0.0438    1.5410 H   0  0  0  0  0  0  0  0  0  0  0  0
    2.9248    0.3413    0.6788 H   0  0  0  0  0  0  0  0  0  0  0  0
    2.1362   -0.9329   -1.2584 H   0  0  0  0  0  0  0  0  0  0  0  0
    1.6421   -1.9421    0.0966 H   0  0  0  0  0  0  0  0  0  0  0  0
   -0.1575   -1.0299   -1.7854 H   0  0  0  0  0  0  0  0  0  0  0  0
   -1.3459   -2.3310   -0.1933 H   0  0  0  0  0  0  0  0  0  0  0  0
   -0.5489   -1.5373    1.1593 H   0  0  0  0  0  0  0  0  0  0  0  0
  1  2  1  0
  1  8  1  0
  1  9  1  0
  1 10  1  0
  2  3  1  0
  2 11  1  0
  2 12  1  0
  3  4  1  0
  3  7  1  0
  3 13  1  0
  4  5  1  0
  4 14  1  0
  4 15  1  0
  5  6  1  0
  5 16  1  0
  5 17  1  0
  6  7  1  0
  6 18  1  0
  6 19  1  0
  7  8  1  0
  7 20  1  0
  8 21  1  0
  8 22  1  0
M  END
>  <reaction>  (1) 
rxn_561

>  <mol_properties>  (1) 
{"2": {"label": "donator", "atom_type": "Cs"}, "12": {"label": "d_hydrogen", "atom_type": "H0"}}

>  <type>  (1) 
r1h

$$$$

     RDKit          3D

 14 13  0  0  0  0  0  0  0  0999 V2000
    1.0767   -1.6838    1.2931 C   0  0  0  0  0  0  0  0  0  0  0  0
    1.0020   -0.3665    0.9163 C   0  0  0  0  0  0  0  0  0  0  0  0
    1.3965    0.7260    1.6806 C   0  0  0  0  0  3  0  0  0  0  0  0
    1.2666    2.1197    1.1619 C   0  0  0  0  0  0  0  0  0  0  0  0
    1.9670    0.5479    3.0536 C   0  0  0  0  0  0  0  0  0  0  0  0
    0.7448   -2.4705    0.6300 H   0  0  0  0  0  0  0  0  0  0  0  0
    1.4663   -1.9826    2.2578 H   0  0  0  0  0  0  0  0  0  0  0  0
    0.5980   -0.1511   -0.0695 H   0  0  0  0  0  0  0  0  0  0  0  0
    0.6296    2.7241    1.8172 H   0  0  0  0  0  0  0  0  0  0  0  0
    2.2410    2.6200    1.1341 H   0  0  0  0  0  0  0  0  0  0  0  0
    0.8426    2.1448    0.1579 H   0  0  0  0  0  0  0  0  0  0  0  0
    2.8745   -0.0634    3.0328 H   0  0  0  0  0  0  0  0  0  0  0  0
    1.2599    0.0408    3.7173 H   0  0  0  0  0  0  0  0  0  0  0  0
    2.2205    1.5071    3.5054 H   0  0  0  0  0  0  0  0  0  0  0  0
  1  2  2  3
  1  6  1  0
  1  7  1  0
  2  3  1  0
  2  8  1  0
  3  4  1  0
  3  5  1  0
  4  9  1  0
  4 10  1  0
  4 11  1  0
  5 12  1  0
  5 13  1  0
  5 14  1  0
M  RAD  1   3   2
M  END
>  <reaction>  (2) 
rxn_561

>  <mol_properties>  (2) 
{"2": {"label": "acceptor", "atom_type": "Cs"}}

>  <type>  (2) 
r2

$$$$

     RDKit          3D

 15 14  0  0  0  0  0  0  0  0999 V2000
    2.1256    0.4849   -0.6284 C   0  0  0  0  0  0  0  0  0  0  0  0
    1.1128    0.2141    0.1794 C   0  0  0  0  0  0  0  0  0  0  0  0
   -0.3017   -0.0425   -0.2513 C   0  0  0  0  0  0  0  0  0  0  0  0
   -1.2427    1.0075    0.3423 C   0  0  0  0  0  0  0  0  0  0  0  0
   -0.7381   -1.4526    0.1504 C   0  0  0  0  0  0  0  0  0  0  0  0
    3.1243    0.6602   -0.2486 H   0  0  0  0  0  0  0  0  0  0  0  0
    1.9908    0.5411   -1.7036 H   0  0  0  0  0  0  0  0  0  0  0  0
    1.2888    0.1665    1.2533 H   0  0  0  0  0  0  0  0  0  0  0  0
   -0.3426    0.0343   -1.3424 H   0  0  0  0  0  0  0  0  0  0  0  0
   -0.9570    2.0133    0.0315 H   0  0  0  0  0  0  0  0  0  0  0  0
   -1.2189    0.9728    1.4350 H   0  0  0  0  0  0  0  0  0  0  0  0
   -2.2723    0.8287    0.0254 H   0  0  0  0  0  0  0  0  0  0  0  0
   -0.6964   -1.5744    1.2363 H   0  0  0  0  0  0  0  0  0  0  0  0
   -0.0911   -2.2079   -0.2978 H   0  0  0  0  0  0  0  0  0  0  0  0
   -1.7646   -1.6461   -0.1677 H   0  0  0  0  0  0  0  0  0  0  0  0
  1  2  2  3
  1  6  1  0
  1  7  1  0
  2  3  1  0
  2  8  1  0
  3  4  1  0
  3  5  1  0
  3  9  1  0
  4 10  1  0
  4 11  1  0
  4 12  1  0
  5 13  1  0
  5 14  1  0
  5 15  1  0
M  END
>  <reaction>  (3) 
rxn_561

>  <mol_properties>  (3) 
{"2": {"label": "acceptor", "atom_type": "Cs"}, "14": {"label": "a_hydrogen", "atom_type": "H0"}}

>  <type>  (3) 
r2h

$$$$

     RDKit          3D

 36 36  0  0  0  0  0  0  0  0999 V2000
   -1.8860   -2.1122    2.4548 C   0  0  0  0  0  0  0  0  0  0  0  0
   -1.8525   -0.8705    1.9719 C   0  0  0  0  0  0  0  0  0  0  0  0
   -1.8242   -0.4683    0.5573 C   0  0  0  0  0  0  0  0  0  0  0  0
   -2.5800    0.8133    0.2636 C   0  0  0  0  0  0  0  0  0  0  0  0
   -2.0649   -1.5623   -0.4585 C   0  0  0  0  0  0  0  0  0  0  0  0
   -1.8659   -2.2957    3.5213 H   0  0  0  0  0  0  0  0  0  0  0  0
   -1.9426   -2.9817    1.8111 H   0  0  0  0  0  0  0  0  0  0  0  0
   -1.8058   -0.0479    2.6827 H   0  0  0  0  0  0  0  0  0  0  0  0
   -2.3302    1.1956   -0.7287 H   0  0  0  0  0  0  0  0  0  0  0  0
   -3.6624    0.6499    0.2938 H   0  0  0  0  0  0  0  0  0  0  0  0
   -2.3418    1.5904    0.9928 H   0  0  0  0  0  0  0  0  0  0  0  0
   -3.0789   -1.9666   -0.3737 H   0  0  0  0  0  0  0  0  0  0  0  0
   -1.3643   -2.3898   -0.3321 H   0  0  0  0  0  0  0  0  0  0  0  0
   -1.9416   -1.1764   -1.4723 H   0  0  0  0  0  0  0  0  0  0  0  0
    1.6632   -1.4753   -1.3718 C   0  0  0  0  0  0  0  0  0  0  0  0
    1.4997   -1.0850    0.1011 C   0  0  0  0  0  0  0  0  0  0  0  0
    0.7248    0.2172    0.0601 C   0  0  0  0  0  3  0  0  0  0  0  0
    1.0771    1.3461    1.0059 C   0  0  0  0  0  0  0  0  0  0  0  0
    1.8493    2.3308    0.1164 C   0  0  0  0  0  0  0  0  0  0  0  0
    1.1171    2.2477   -1.2264 C   0  0  0  0  0  0  0  0  0  0  0  0
    0.7594    0.7614   -1.3725 C   0  0  0  0  0  0  0  0  0  0  0  0
    1.7974   -0.1256   -2.0772 C   0  0  0  0  0  0  0  0  0  0  0  0
    2.5090   -2.1410   -1.5472 H   0  0  0  0  0  0  0  0  0  0  0  0
    0.7624   -1.9863   -1.7233 H   0  0  0  0  0  0  0  0  0  0  0  0
    1.0044   -1.8534    0.7007 H   0  0  0  0  0  0  0  0  0  0  0  0
    2.4838   -0.9178    0.5570 H   0  0  0  0  0  0  0  0  0  0  0  0
   -0.6037   -0.1387    0.3570 H   0  0  0  0  0  0  0  0  0  0  0  0
    0.1704    1.8311    1.3858 H   0  0  0  0  0  0  0  0  0  0  0  0
    1.6469    1.0064    1.8722 H   0  0  0  0  0  0  0  0  0  0  0  0
    2.8811    1.9865    0.0005 H   0  0  0  0  0  0  0  0  0  0  0  0
    1.8867    3.3424    0.5228 H   0  0  0  0  0  0  0  0  0  0  0  0
    0.2041    2.8475   -1.1803 H   0  0  0  0  0  0  0  0  0  0  0  0
    1.7108    2.6208   -2.0628 H   0  0  0  0  0  0  0  0  0  0  0  0
   -0.2055    0.6389   -1.8744 H   0  0  0  0  0  0  0  0  0  0  0  0
    1.6457   -0.1810   -3.1561 H   0  0  0  0  0  0  0  0  0  0  0  0
    2.8012    0.2781   -1.9062 H   0  0  0  0  0  0  0  0  0  0  0  0
  1  2  2  3
  1  6  1  0
  1  7  1  0
  2  3  1  0
  2  8  1  0
  3  4  1  0
  3  5  1  0
  3 27  1  0
  4  9  1  0
  4 10  1  0
  4 11  1  0
  5 12  1  0
  5 13  1  0
  5 14  1  0
 15 22  1  0
 15 16  1  0
 15 23  1  0
 15 24  1  0
 16 17  1  0
 16 25  1  0
 16 26  1  0
 17 18  1  0
 17 21  1  0
 18 19  1  0
 18 28  1  0
 18 29  1  0
 19 20  1  0
 19 30  1  0
 19 31  1  0
 20 21  1  0
 20 32  1  0
 20 33  1  0
 21 22  1  0
 21 34  1  0
 22 35  1  0
 22 36  1  0
M  RAD  1  17   2
M  END
>  <reaction>  (4) 
rxn_561

>  <mol_properties>  (4) 
{"1": {"label": "*0", "atom_type": "Cd"}, "2": {"label": "*1", "atom_type": "Cs"}, "16": {"label": "*3", "atom_type": "Cs"}, "20": {"label": "*4", "atom_type": "Cs"}, "26": {"label": "*2", "atom_type": "H0"}}

>  <type>  (4) 
ts

$$$$
