
     RDKit          3D

 21 21  0  0  0  0  0  0  0  0999 V2000
   -1.3695    1.3367   -1.0719 C   0  0  0  0  0  0  0  0  0  0  0  0
   -1.4091   -0.0981   -0.5428 C   0  0  0  0  0  0  0  0  0  0  0  0
   -0.1819   -0.3999    0.3191 C   0  0  0  0  0  0  0  0  0  0  0  0
   -1.5636   -1.1028   -1.6652 C   0  0  0  0  0  0  0  0  0  0  0  0
   -0.5920   -1.2314   -2.6553 C   0  0  0  0  0  0  0  0  0  0  0  0
   -0.7353   -2.1509   -3.6809 C   0  0  0  0  0  0  0  0  0  0  0  0
   -1.8582   -2.9642   -3.7377 C   0  0  0  0  0  0  0  0  0  0  0  0
   -2.8325   -2.8475   -2.7602 C   0  0  0  0  0  0  0  0  0  0  0  0
   -2.6828   -1.9241   -1.7351 C   0  0  0  0  0  0  0  0  0  0  0  0
   -0.4920    1.4974   -1.7025 H   0  0  0  0  0  0  0  0  0  0  0  0
   -2.2553    1.5607   -1.6679 H   0  0  0  0  0  0  0  0  0  0  0  0
   -1.3211    2.0496   -0.2461 H   0  0  0  0  0  0  0  0  0  0  0  0
   -2.2930   -0.1918    0.0948 H   0  0  0  0  0  0  0  0  0  0  0  0
   -0.1215    0.2955    1.1588 H   0  0  0  0  0  0  0  0  0  0  0  0
   -0.2200   -1.4155    0.7159 H   0  0  0  0  0  0  0  0  0  0  0  0
    0.7383   -0.3016   -0.2615 H   0  0  0  0  0  0  0  0  0  0  0  0
    0.2915   -0.6040   -2.6263 H   0  0  0  0  0  0  0  0  0  0  0  0
    0.0326   -2.2338   -4.4401 H   0  0  0  0  0  0  0  0  0  0  0  0
   -1.9712   -3.6833   -4.5391 H   0  0  0  0  0  0  0  0  0  0  0  0
   -3.7135   -3.4765   -2.7932 H   0  0  0  0  0  0  0  0  0  0  0  0
   -3.4509   -1.8400   -0.9743 H   0  0  0  0  0  0  0  0  0  0  0  0
  1  2  1  0
  1 10  1  0
  1 11  1  0
  1 12  1  0
  2  3  1  0
  2  4  1  0
  2 13  1  0
  3 14  1  0
  3 15  1  0
  3 16  1  0
  4  5  2  0
  4  9  1  0
  5  6  1  0
  5 17  1  0
  6  7  2  0
  6 18  1  0
  7  8  1  0
  7 19  1  0
  8  9  2  0
  8 20  1  0
  9 21  1  0
M  END
>  <reaction>  (1) 
rxn_1523

>  <mol_properties>  (1) 
{"1": {"label": "donator", "atom_type": "Cs"}, "12": {"label": "d_hydrogen", "atom_type": "H0"}}

>  <type>  (1) 
r1h

$$$$

     RDKit          3D

  7  6  0  0  0  0  0  0  0  0999 V2000
   -0.6201    0.0189   -0.0017 C   0  0  0  0  0  0  0  0  0  0  0  0
    0.8589   -0.0553    0.0500 C   0  0  0  0  0  3  0  0  0  0  0  0
   -1.0738   -0.9730   -0.0559 H   0  0  0  0  0  0  0  0  0  0  0  0
   -0.9680    0.5706   -0.8872 H   0  0  0  0  0  0  0  0  0  0  0  0
   -1.0303    0.5369    0.8678 H   0  0  0  0  0  0  0  0  0  0  0  0
    1.3939   -0.8386   -0.4695 H   0  0  0  0  0  0  0  0  0  0  0  0
    1.4394    0.7404    0.4965 H   0  0  0  0  0  0  0  0  0  0  0  0
  1  2  1  0
  1  3  1  0
  1  4  1  0
  1  5  1  0
  2  6  1  0
  2  7  1  0
M  RAD  1   2   2
M  END
>  <reaction>  (2) 
rxn_1523

>  <mol_properties>  (2) 
{"1": {"label": "acceptor", "atom_type": "Cs"}}

>  <type>  (2) 
r2

$$$$

     RDKit          3D

  8  7  0  0  0  0  0  0  0  0999 V2000
    0.7610    0.0250    0.0051 C   0  0  0  0  0  0  0  0  0  0  0  0
   -0.7610   -0.0250   -0.0051 C   0  0  0  0  0  0  0  0  0  0  0  0
    1.1904   -0.9237   -0.3217 H   0  0  0  0  0  0  0  0  0  0  0  0
    1.1359    0.8041   -0.6609 H   0  0  0  0  0  0  0  0  0  0  0  0
    1.1435    0.2336    1.0058 H   0  0  0  0  0  0  0  0  0  0  0  0
   -1.1435   -0.2336   -1.0058 H   0  0  0  0  0  0  0  0  0  0  0  0
   -1.1904    0.9237    0.3216 H   0  0  0  0  0  0  0  0  0  0  0  0
   -1.1359   -0.8041    0.6609 H   0  0  0  0  0  0  0  0  0  0  0  0
  1  2  1  0
  1  3  1  0
  1  4  1  0
  1  5  1  0
  2  6  1  0
  2  7  1  0
  2  8  1  0
M  END
>  <reaction>  (3) 
rxn_1523

>  <mol_properties>  (3) 
{"1": {"label": "acceptor", "atom_type": "Cs"}, "7": {"label": "a_hydrogen", "atom_type": "H0"}}

>  <type>  (3) 
r2h

$$$$

     RDKit          3D

 28 27  0  0  0  0  0  0  0  0999 V2000
   -2.5534   -1.4036   -0.9147 C   0  0  0  0  0  0  0  0  0  0  0  0
   -2.9464   -0.1481   -0.1928 C   0  0  0  0  0  3  0  0  0  0  0  0
   -3.3735   -2.1295   -0.9423 H   0  0  0  0  0  0  0  0  0  0  0  0
   -1.7027   -1.8863   -0.4295 H   0  0  0  0  0  0  0  0  0  0  0  0
   -2.2708   -1.1936   -1.9484 H   0  0  0  0  0  0  0  0  0  0  0  0
   -3.1359   -0.2515    0.8732 H   0  0  0  0  0  0  0  0  0  0  0  0
   -3.6796    0.4829   -0.6898 H   0  0  0  0  0  0  0  0  0  0  0  0
   -0.6552    1.8046   -1.7280 C   0  0  0  0  0  0  0  0  0  0  0  0
   -0.6662    1.2956   -0.3034 C   0  0  0  0  0  0  0  0  0  0  0  0
   -0.8237    2.4150    0.7095 C   0  0  0  0  0  0  0  0  0  0  0  0
    0.3661    0.2749    0.0427 C   0  0  0  0  0  0  0  0  0  0  0  0
    1.3583   -0.1244   -0.8523 C   0  0  0  0  0  0  0  0  0  0  0  0
    2.2775   -1.1073   -0.5147 C   0  0  0  0  0  0  0  0  0  0  0  0
    2.2229   -1.7234    0.7241 C   0  0  0  0  0  0  0  0  0  0  0  0
    1.2375   -1.3442    1.6257 C   0  0  0  0  0  0  0  0  0  0  0  0
    0.3265   -0.3601    1.2886 C   0  0  0  0  0  0  0  0  0  0  0  0
    0.2374    2.4038   -1.9371 H   0  0  0  0  0  0  0  0  0  0  0  0
   -0.6893    0.9878   -2.4511 H   0  0  0  0  0  0  0  0  0  0  0  0
   -1.5243    2.4412   -1.9026 H   0  0  0  0  0  0  0  0  0  0  0  0
   -1.7628    0.6502   -0.2191 H   0  0  0  0  0  0  0  0  0  0  0  0
   -1.7066    3.0155    0.4804 H   0  0  0  0  0  0  0  0  0  0  0  0
   -0.9303    2.0398    1.7272 H   0  0  0  0  0  0  0  0  0  0  0  0
    0.0476    3.0776    0.6909 H   0  0  0  0  0  0  0  0  0  0  0  0
    1.4252    0.3400   -1.8272 H   0  0  0  0  0  0  0  0  0  0  0  0
    3.0410   -1.3919   -1.2284 H   0  0  0  0  0  0  0  0  0  0  0  0
    2.9380   -2.4926    0.9860 H   0  0  0  0  0  0  0  0  0  0  0  0
    1.1773   -1.8217    2.5959 H   0  0  0  0  0  0  0  0  0  0  0  0
   -0.4455   -0.0903    1.9993 H   0  0  0  0  0  0  0  0  0  0  0  0
  1  2  1  0
  1  3  1  0
  1  4  1  0
  1  5  1  0
  2  6  1  0
  2  7  1  0
  8  9  1  0
  8 17  1  0
  8 18  1  0
  8 19  1  0
  9 10  1  0
  9 11  1  0
  9 20  1  0
 10 21  1  0
 10 22  1  0
 10 23  1  0
 11 12  2  0
 11 16  1  0
 12 13  1  0
 12 24  1  0
 13 14  2  0
 13 25  1  0
 14 15  1  0
 14 26  1  0
 15 16  2  0
 15 27  1  0
 16 28  1  0
M  RAD  1   2   2
M  END
>  <reaction>  (4) 
rxn_1523

>  <mol_properties>  (4) 
{"0": {"label": "*4", "atom_type": "Cs"}, "1": {"label": "*3", "atom_type": "Cs"}, "8": {"label": "*1", "atom_type": "Cs"}, "10": {"label": "*0", "atom_type": "Cd"}, "19": {"label": "*2", "atom_type": "H0"}}

>  <type>  (4) 
ts

$$$$
