
     RDKit          3D

  7  6  0  0  0  0  0  0  0  0999 V2000
   -0.6782    0.0507    0.0301 C   0  0  0  0  0  0  0  0  0  0  0  0
    0.8092    0.0996    0.0213 C   0  0  0  0  0  0  0  0  0  0  0  0
    1.7473    0.7521    1.1507 S   0  0  0  0  0  0  0  0  0  0  0  0
   -1.0667    0.5456   -0.8653 H   0  0  0  0  0  0  0  0  0  0  0  0
   -1.0112   -0.9904   -0.0239 H   0  0  0  0  0  0  0  0  0  0  0  0
   -1.0920    0.5225    0.9188 H   0  0  0  0  0  0  0  0  0  0  0  0
    1.2740   -0.3620   -0.8520 H   0  0  0  0  0  0  0  0  0  0  0  0
  1  2  1  0
  1  4  1  0
  1  5  1  0
  1  6  1  0
  2  3  2  0
  2  7  1  0
M  END
>  <reaction>  (1) 
rxn_1958

>  <mol_properties>  (1) 
{"0": {"label": "donator", "atom_type": "Cs"}, "3": {"label": "d_hydrogen", "atom_type": "H0"}}

>  <type>  (1) 
r1h

$$$$

     RDKit          3D

 14 13  0  0  0  0  0  0  0  0999 V2000
    1.0767   -1.6838    1.2931 C   0  0  0  0  0  0  0  0  0  0  0  0
    1.0020   -0.3665    0.9163 C   0  0  0  0  0  0  0  0  0  0  0  0
    1.3965    0.7260    1.6806 C   0  0  0  0  0  3  0  0  0  0  0  0
    1.2666    2.1197    1.1619 C   0  0  0  0  0  0  0  0  0  0  0  0
    1.9670    0.5479    3.0536 C   0  0  0  0  0  0  0  0  0  0  0  0
    0.7448   -2.4705    0.6300 H   0  0  0  0  0  0  0  0  0  0  0  0
    1.4663   -1.9826    2.2578 H   0  0  0  0  0  0  0  0  0  0  0  0
    0.5980   -0.1511   -0.0695 H   0  0  0  0  0  0  0  0  0  0  0  0
    0.6296    2.7241    1.8172 H   0  0  0  0  0  0  0  0  0  0  0  0
    2.2410    2.6200    1.1341 H   0  0  0  0  0  0  0  0  0  0  0  0
    0.8426    2.1448    0.1579 H   0  0  0  0  0  0  0  0  0  0  0  0
    2.8745   -0.0634    3.0328 H   0  0  0  0  0  0  0  0  0  0  0  0
    1.2599    0.0408    3.7173 H   0  0  0  0  0  0  0  0  0  0  0  0
    2.2205    1.5071    3.5054 H   0  0  0  0  0  0  0  0  0  0  0  0
  1  2  2  3
  1  6  1  0
  1  7  1  0
  2  3  1  0
  2  8  1  0
  3  4  1  0
  3  5  1  0
  4  9  1  0
  4 10  1  0
  4 11  1  0
  5 12  1  0
  5 13  1  0
  5 14  1  0
M  RAD  1   3   2
M  END
>  <reaction>  (2) 
rxn_1958

>  <mol_properties>  (2) 
{"2": {"label": "acceptor", "atom_type": "Cs"}}

>  <type>  (2) 
r2

$$$$

     RDKit          3D

 15 14  0  0  0  0  0  0  0  0999 V2000
    2.1256    0.4849   -0.6284 C   0  0  0  0  0  0  0  0  0  0  0  0
    1.1128    0.2141    0.1794 C   0  0  0  0  0  0  0  0  0  0  0  0
   -0.3017   -0.0425   -0.2513 C   0  0  0  0  0  0  0  0  0  0  0  0
   -1.2427    1.0075    0.3423 C   0  0  0  0  0  0  0  0  0  0  0  0
   -0.7381   -1.4526    0.1504 C   0  0  0  0  0  0  0  0  0  0  0  0
    3.1243    0.6602   -0.2486 H   0  0  0  0  0  0  0  0  0  0  0  0
    1.9908    0.5411   -1.7036 H   0  0  0  0  0  0  0  0  0  0  0  0
    1.2888    0.1665    1.2533 H   0  0  0  0  0  0  0  0  0  0  0  0
   -0.3426    0.0343   -1.3424 H   0  0  0  0  0  0  0  0  0  0  0  0
   -0.9570    2.0133    0.0315 H   0  0  0  0  0  0  0  0  0  0  0  0
   -1.2189    0.9728    1.4350 H   0  0  0  0  0  0  0  0  0  0  0  0
   -2.2723    0.8287    0.0254 H   0  0  0  0  0  0  0  0  0  0  0  0
   -0.6964   -1.5744    1.2363 H   0  0  0  0  0  0  0  0  0  0  0  0
   -0.0911   -2.2079   -0.2978 H   0  0  0  0  0  0  0  0  0  0  0  0
   -1.7646   -1.6461   -0.1677 H   0  0  0  0  0  0  0  0  0  0  0  0
  1  2  2  3
  1  6  1  0
  1  7  1  0
  2  3  1  0
  2  8  1  0
  3  4  1  0
  3  5  1  0
  3  9  1  0
  4 10  1  0
  4 11  1  0
  4 12  1  0
  5 13  1  0
  5 14  1  0
  5 15  1  0
M  END
>  <reaction>  (3) 
rxn_1958

>  <mol_properties>  (3) 
{"2": {"label": "acceptor", "atom_type": "Cs"}, "14": {"label": "a_hydrogen", "atom_type": "H0"}}

>  <type>  (3) 
r2h

$$$$

     RDKit          3D

 21 19  0  0  0  0  0  0  0  0999 V2000
   -2.1070   -0.6487   -0.3012 C   0  0  0  0  0  0  0  0  0  0  0  0
   -1.5877   -0.6099    0.9291 C   0  0  0  0  0  0  0  0  0  0  0  0
   -0.8158    0.4900    1.4960 C   0  0  0  0  0  3  0  0  0  0  0  0
   -0.6357    0.4729    2.9940 C   0  0  0  0  0  0  0  0  0  0  0  0
   -0.9753    1.8598    0.8848 C   0  0  0  0  0  0  0  0  0  0  0  0
   -2.6191   -1.5322   -0.6590 H   0  0  0  0  0  0  0  0  0  0  0  0
   -2.0465    0.1902   -0.9823 H   0  0  0  0  0  0  0  0  0  0  0  0
   -1.6720   -1.4966    1.5522 H   0  0  0  0  0  0  0  0  0  0  0  0
    0.1879    1.1215    3.2978 H   0  0  0  0  0  0  0  0  0  0  0  0
   -1.5408    0.8375    3.4905 H   0  0  0  0  0  0  0  0  0  0  0  0
   -0.4357   -0.5344    3.3628 H   0  0  0  0  0  0  0  0  0  0  0  0
   -1.9919    2.2310    1.0457 H   0  0  0  0  0  0  0  0  0  0  0  0
   -0.7820    1.8520   -0.1884 H   0  0  0  0  0  0  0  0  0  0  0  0
   -0.2798    2.5656    1.3406 H   0  0  0  0  0  0  0  0  0  0  0  0
    1.6139   -0.0184    0.4755 C   0  0  0  0  0  0  0  0  0  0  0  0
    1.3421   -0.4240   -0.8612 C   0  0  0  0  0  0  0  0  0  0  0  0
    1.1987    0.5855   -2.1506 S   0  0  0  0  0  0  0  0  0  0  0  0
    0.4104    0.1561    1.0213 H   0  0  0  0  0  0  0  0  0  0  0  0
    2.0072   -0.7761    1.1499 H   0  0  0  0  0  0  0  0  0  0  0  0
    2.0320    0.9760    0.6048 H   0  0  0  0  0  0  0  0  0  0  0  0
    1.1738   -1.4894   -1.0127 H   0  0  0  0  0  0  0  0  0  0  0  0
  1  2  2  3
  1  6  1  0
  1  7  1  0
  2  3  1  0
  2  8  1  0
  3  4  1  0
  3  5  1  0
  4  9  1  0
  4 10  1  0
  4 11  1  0
  5 12  1  0
  5 13  1  0
  5 14  1  0
 15 16  1  0
 15 18  1  0
 15 19  1  0
 15 20  1  0
 16 17  2  0
 16 21  1  0
M  RAD  1   3   2
M  END
>  <reaction>  (4) 
rxn_1958

>  <mol_properties>  (4) 
{"1": {"label": "*4", "atom_type": "Cd"}, "2": {"label": "*3", "atom_type": "Cs"}, "14": {"label": "*1", "atom_type": "Cs"}, "15": {"label": "*0", "atom_type": "CS"}, "17": {"label": "*2", "atom_type": "H0"}}

>  <type>  (4) 
ts

$$$$
