
     RDKit          3D

  9  8  0  0  0  0  0  0  0  0999 V2000
    1.1303   -0.2933   -0.7510 C   0  0  0  0  0  0  0  0  0  0  0  0
    0.2866    0.4560   -0.0588 C   0  0  0  0  0  0  0  0  0  0  0  0
   -0.9719   -0.0331    0.5823 C   0  0  0  0  0  0  0  0  0  0  0  0
    2.0274    0.1230   -1.1916 H   0  0  0  0  0  0  0  0  0  0  0  0
    0.9532   -1.3530   -0.9023 H   0  0  0  0  0  0  0  0  0  0  0  0
    0.5065    1.5132    0.0659 H   0  0  0  0  0  0  0  0  0  0  0  0
   -0.9526    0.1426    1.6610 H   0  0  0  0  0  0  0  0  0  0  0  0
   -1.1182   -1.1002    0.4106 H   0  0  0  0  0  0  0  0  0  0  0  0
   -1.8412    0.5010    0.1901 H   0  0  0  0  0  0  0  0  0  0  0  0
  1  2  2  3
  1  4  1  0
  1  5  1  0
  2  3  1  0
  2  6  1  0
  3  7  1  0
  3  8  1  0
  3  9  1  0
M  END
>  <reaction>  (1) 
rxn_1620

>  <mol_properties>  (1) 
{"1": {"label": "donator", "atom_type": "Cd"}, "5": {"label": "d_hydrogen", "atom_type": "H0"}}

>  <type>  (1) 
r1h

$$$$

     RDKit          3D

 20 20  0  0  0  0  0  0  0  0999 V2000
   -2.4774    0.8083    0.1488 C   0  0  0  0  0  0  0  0  0  0  0  0
   -1.4172   -0.1696   -0.2476 C   0  0  0  0  0  3  0  0  0  0  0  0
   -0.2904    0.2932   -1.1156 C   0  0  0  0  0  0  0  0  0  0  0  0
   -1.4797   -1.5204    0.1947 C   0  0  0  0  0  0  0  0  0  0  0  0
   -0.4907   -2.4664   -0.1650 C   0  0  0  0  0  0  0  0  0  0  0  0
   -0.5559   -3.7750    0.2665 C   0  0  0  0  0  0  0  0  0  0  0  0
   -1.6038   -4.2041    1.0733 C   0  0  0  0  0  0  0  0  0  0  0  0
   -2.5899   -3.2959    1.4424 C   0  0  0  0  0  0  0  0  0  0  0  0
   -2.5339   -1.9852    1.0162 C   0  0  0  0  0  0  0  0  0  0  0  0
   -3.4697    0.4933   -0.1924 H   0  0  0  0  0  0  0  0  0  0  0  0
   -2.5434    0.9184    1.2368 H   0  0  0  0  0  0  0  0  0  0  0  0
   -2.2829    1.7944   -0.2706 H   0  0  0  0  0  0  0  0  0  0  0  0
   -0.2452   -0.2661   -2.0565 H   0  0  0  0  0  0  0  0  0  0  0  0
   -0.3905    1.3487   -1.3647 H   0  0  0  0  0  0  0  0  0  0  0  0
    0.6811    0.1589   -0.6274 H   0  0  0  0  0  0  0  0  0  0  0  0
    0.3373   -2.1635   -0.7918 H   0  0  0  0  0  0  0  0  0  0  0  0
    0.2187   -4.4725   -0.0281 H   0  0  0  0  0  0  0  0  0  0  0  0
   -1.6513   -5.2316    1.4097 H   0  0  0  0  0  0  0  0  0  0  0  0
   -3.4116   -3.6175    2.0706 H   0  0  0  0  0  0  0  0  0  0  0  0
   -3.3164   -1.3029    1.3205 H   0  0  0  0  0  0  0  0  0  0  0  0
  1  2  1  0
  1 10  1  0
  1 11  1  0
  1 12  1  0
  2  3  1  0
  2  4  1  0
  3 13  1  0
  3 14  1  0
  3 15  1  0
  4  5  2  0
  4  9  1  0
  5  6  1  0
  5 16  1  0
  6  7  2  0
  6 17  1  0
  7  8  1  0
  7 18  1  0
  8  9  2  0
  8 19  1  0
  9 20  1  0
M  RAD  1   2   2
M  END
>  <reaction>  (2) 
rxn_1620

>  <mol_properties>  (2) 
{"1": {"label": "acceptor", "atom_type": "Cs"}}

>  <type>  (2) 
r2

$$$$

     RDKit          3D

 21 21  0  0  0  0  0  0  0  0999 V2000
   -1.3695    1.3367   -1.0719 C   0  0  0  0  0  0  0  0  0  0  0  0
   -1.4091   -0.0981   -0.5428 C   0  0  0  0  0  0  0  0  0  0  0  0
   -0.1819   -0.3999    0.3191 C   0  0  0  0  0  0  0  0  0  0  0  0
   -1.5636   -1.1028   -1.6652 C   0  0  0  0  0  0  0  0  0  0  0  0
   -0.5920   -1.2314   -2.6553 C   0  0  0  0  0  0  0  0  0  0  0  0
   -0.7353   -2.1509   -3.6809 C   0  0  0  0  0  0  0  0  0  0  0  0
   -1.8582   -2.9642   -3.7377 C   0  0  0  0  0  0  0  0  0  0  0  0
   -2.8325   -2.8475   -2.7602 C   0  0  0  0  0  0  0  0  0  0  0  0
   -2.6828   -1.9241   -1.7351 C   0  0  0  0  0  0  0  0  0  0  0  0
   -0.4920    1.4974   -1.7025 H   0  0  0  0  0  0  0  0  0  0  0  0
   -2.2553    1.5607   -1.6679 H   0  0  0  0  0  0  0  0  0  0  0  0
   -1.3211    2.0496   -0.2461 H   0  0  0  0  0  0  0  0  0  0  0  0
   -2.2930   -0.1918    0.0948 H   0  0  0  0  0  0  0  0  0  0  0  0
   -0.1215    0.2955    1.1588 H   0  0  0  0  0  0  0  0  0  0  0  0
   -0.2200   -1.4155    0.7159 H   0  0  0  0  0  0  0  0  0  0  0  0
    0.7383   -0.3016   -0.2615 H   0  0  0  0  0  0  0  0  0  0  0  0
    0.2915   -0.6040   -2.6263 H   0  0  0  0  0  0  0  0  0  0  0  0
    0.0326   -2.2338   -4.4401 H   0  0  0  0  0  0  0  0  0  0  0  0
   -1.9712   -3.6833   -4.5391 H   0  0  0  0  0  0  0  0  0  0  0  0
   -3.7135   -3.4765   -2.7932 H   0  0  0  0  0  0  0  0  0  0  0  0
   -3.4509   -1.8400   -0.9743 H   0  0  0  0  0  0  0  0  0  0  0  0
  1  2  1  0
  1 10  1  0
  1 11  1  0
  1 12  1  0
  2  3  1  0
  2  4  1  0
  2 13  1  0
  3 14  1  0
  3 15  1  0
  3 16  1  0
  4  5  2  0
  4  9  1  0
  5  6  1  0
  5 17  1  0
  6  7  2  0
  6 18  1  0
  7  8  1  0
  7 19  1  0
  8  9  2  0
  8 20  1  0
  9 21  1  0
M  END
>  <reaction>  (3) 
rxn_1620

>  <mol_properties>  (3) 
{"0": {"label": "a_hydrogen", "atom_type": "H0"}, "2": {"label": "acceptor", "atom_type": "Cs"}}

>  <type>  (3) 
r2h

$$$$

     RDKit          3D

 29 28  0  0  0  0  0  0  0  0999 V2000
   -0.5055    2.0586   -1.9248 C   0  0  0  0  0  0  0  0  0  0  0  0
   -1.1100    2.2160   -0.7707 C   0  0  0  0  0  3  0  0  0  0  0  0
   -1.9330    3.3089   -0.2093 C   0  0  0  0  0  0  0  0  0  0  0  0
    0.0625    1.1620   -2.1505 H   0  0  0  0  0  0  0  0  0  0  0  0
   -0.5497    2.8233   -2.7004 H   0  0  0  0  0  0  0  0  0  0  0  0
   -0.9475    1.0701    0.1338 H   0  0  0  0  0  0  0  0  0  0  0  0
   -2.9311    2.9494    0.0522 H   0  0  0  0  0  0  0  0  0  0  0  0
   -2.0418    4.1316   -0.9242 H   0  0  0  0  0  0  0  0  0  0  0  0
   -1.4831    3.7059    0.7037 H   0  0  0  0  0  0  0  0  0  0  0  0
   -0.5104    0.7141    2.2466 C   0  0  0  0  0  0  0  0  0  0  0  0
   -0.8455    0.0956    0.8992 C   0  0  0  0  0  0  0  0  0  0  0  0
   -2.2223   -0.5343    0.8840 C   0  0  0  0  0  0  0  0  0  0  0  0
    0.2601   -0.7235    0.3095 C   0  0  0  0  0  0  0  0  0  0  0  0
    0.0828   -2.0463   -0.0918 C   0  0  0  0  0  0  0  0  0  0  0  0
    1.1250   -2.7720   -0.6516 C   0  0  0  0  0  0  0  0  0  0  0  0
    2.3675   -2.1886   -0.8316 C   0  0  0  0  0  0  0  0  0  0  0  0
    2.5592   -0.8687   -0.4460 C   0  0  0  0  0  0  0  0  0  0  0  0
    1.5204   -0.1500    0.1168 C   0  0  0  0  0  0  0  0  0  0  0  0
    0.4337    1.2585    2.2244 H   0  0  0  0  0  0  0  0  0  0  0  0
   -1.2938    1.4109    2.5532 H   0  0  0  0  0  0  0  0  0  0  0  0
   -0.4296   -0.0602    3.0158 H   0  0  0  0  0  0  0  0  0  0  0  0
   -2.2795   -1.3958    1.5573 H   0  0  0  0  0  0  0  0  0  0  0  0
   -2.9670    0.1902    1.2188 H   0  0  0  0  0  0  0  0  0  0  0  0
   -2.5039   -0.8643   -0.1171 H   0  0  0  0  0  0  0  0  0  0  0  0
   -0.8781   -2.5265    0.0375 H   0  0  0  0  0  0  0  0  0  0  0  0
    0.9604   -3.8004   -0.9488 H   0  0  0  0  0  0  0  0  0  0  0  0
    3.1795   -2.7537   -1.2712 H   0  0  0  0  0  0  0  0  0  0  0  0
    3.5230   -0.3959   -0.5894 H   0  0  0  0  0  0  0  0  0  0  0  0
    1.6801    0.8859    0.3908 H   0  0  0  0  0  0  0  0  0  0  0  0
  1  2  2  3
  1  4  1  0
  1  5  1  0
  2  3  1  0
  3  7  1  0
  3  8  1  0
  3  9  1  0
  6 11  1  0
 10 11  1  0
 10 19  1  0
 10 20  1  0
 10 21  1  0
 11 12  1  0
 11 13  1  0
 12 22  1  0
 12 23  1  0
 12 24  1  0
 13 14  2  0
 13 18  1  0
 14 15  1  0
 14 25  1  0
 15 16  2  0
 15 26  1  0
 16 17  1  0
 16 27  1  0
 17 18  2  0
 17 28  1  0
 18 29  1  0
M  RAD  1   2   2
M  END
>  <reaction>  (4) 
rxn_1620

>  <mol_properties>  (4) 
{"0": {"label": "*4", "atom_type": "Cd"}, "1": {"label": "*3", "atom_type": "Cd"}, "5": {"label": "*2", "atom_type": "H0"}, "10": {"label": "*1", "atom_type": "Cs"}, "12": {"label": "*0", "atom_type": "Cd"}}

>  <type>  (4) 
ts

$$$$
