
     RDKit          3D

 10  9  0  0  0  0  0  0  0  0999 V2000
    1.8334    0.0847   -0.1062 C   0  0  0  0  0  0  0  0  0  0  0  0
    0.5993   -0.4071   -0.0750 C   0  0  0  0  0  0  0  0  0  0  0  0
   -0.5993    0.4071    0.0750 C   0  0  0  0  0  0  0  0  0  0  0  0
   -1.8334   -0.0847    0.1062 C   0  0  0  0  0  0  0  0  0  0  0  0
    2.0179    1.1498   -0.0189 H   0  0  0  0  0  0  0  0  0  0  0  0
    2.6972   -0.5572   -0.2194 H   0  0  0  0  0  0  0  0  0  0  0  0
    0.4465   -1.4793   -0.1649 H   0  0  0  0  0  0  0  0  0  0  0  0
   -0.4465    1.4793    0.1649 H   0  0  0  0  0  0  0  0  0  0  0  0
   -2.0179   -1.1498    0.0189 H   0  0  0  0  0  0  0  0  0  0  0  0
   -2.6972    0.5572    0.2194 H   0  0  0  0  0  0  0  0  0  0  0  0
  1  2  2  3
  1  5  1  0
  1  6  1  0
  2  3  1  0
  2  7  1  0
  3  4  2  3
  3  8  1  0
  4  9  1  0
  4 10  1  0
M  END
>  <reaction>  (1) 
rxn_1683

>  <mol_properties>  (1) 
{"2": {"label": "donator", "atom_type": "Cd"}, "7": {"label": "d_hydrogen", "atom_type": "H0"}}

>  <type>  (1) 
r1h

$$$$

     RDKit          3D

 18 18  0  0  0  0  0  0  0  0999 V2000
    2.7512    0.0489   -0.5734 C   0  0  0  0  0  0  0  0  0  0  0  0
    1.4277   -0.4568   -0.0957 C   0  0  0  0  0  3  0  0  0  0  0  0
    0.5787   -1.2468   -0.9255 C   0  0  0  0  0  0  0  0  0  0  0  0
    0.9949   -1.6342   -2.2194 C   0  0  0  0  0  0  0  0  0  0  0  0
    0.1850   -2.4001   -3.0330 C   0  0  0  0  0  0  0  0  0  0  0  0
   -1.0677   -2.8151   -2.5986 C   0  0  0  0  0  0  0  0  0  0  0  0
   -1.4988   -2.4481   -1.3288 C   0  0  0  0  0  0  0  0  0  0  0  0
   -0.6986   -1.6827   -0.5072 C   0  0  0  0  0  0  0  0  0  0  0  0
    0.9655   -0.2084    1.5666 S   0  0  0  0  0  0  0  0  0  0  0  0
    3.1739    0.7873    0.1063 H   0  0  0  0  0  0  0  0  0  0  0  0
    3.4796   -0.7649   -0.6651 H   0  0  0  0  0  0  0  0  0  0  0  0
    2.6603    0.5178   -1.5558 H   0  0  0  0  0  0  0  0  0  0  0  0
    1.9693   -1.3375   -2.5829 H   0  0  0  0  0  0  0  0  0  0  0  0
    0.5357   -2.6808   -4.0185 H   0  0  0  0  0  0  0  0  0  0  0  0
   -1.6995   -3.4158   -3.2398 H   0  0  0  0  0  0  0  0  0  0  0  0
   -2.4742   -2.7614   -0.9778 H   0  0  0  0  0  0  0  0  0  0  0  0
   -1.0689   -1.4003    0.4702 H   0  0  0  0  0  0  0  0  0  0  0  0
    1.8478    0.7580    1.8433 H   0  0  0  0  0  0  0  0  0  0  0  0
  1  2  1  0
  1 10  1  0
  1 11  1  0
  1 12  1  0
  2  3  1  0
  2  9  1  0
  3  4  2  0
  3  8  1  0
  4  5  1  0
  4 13  1  0
  5  6  2  0
  5 14  1  0
  6  7  1  0
  6 15  1  0
  7  8  2  0
  7 16  1  0
  8 17  1  0
  9 18  1  0
M  RAD  1   2   2
M  END
>  <reaction>  (2) 
rxn_1683

>  <mol_properties>  (2) 
{"1": {"label": "acceptor", "atom_type": "Cs"}}

>  <type>  (2) 
r2

$$$$

     RDKit          3D

 19 19  0  0  0  0  0  0  0  0999 V2000
    2.2396    0.0552    0.8759 C   0  0  0  0  0  0  0  0  0  0  0  0
    1.4030   -0.9182    0.0491 C   0  0  0  0  0  0  0  0  0  0  0  0
    1.9465   -1.1096   -1.3460 C   0  0  0  0  0  0  0  0  0  0  0  0
    3.2062   -1.6607   -1.5671 C   0  0  0  0  0  0  0  0  0  0  0  0
    3.7015   -1.7950   -2.8519 C   0  0  0  0  0  0  0  0  0  0  0  0
    2.9436   -1.3845   -3.9410 C   0  0  0  0  0  0  0  0  0  0  0  0
    1.6880   -0.8403   -3.7327 C   0  0  0  0  0  0  0  0  0  0  0  0
    1.1950   -0.7046   -2.4420 C   0  0  0  0  0  0  0  0  0  0  0  0
    1.2970   -2.4864    0.9925 S   0  0  0  0  0  0  0  0  0  0  0  0
    2.2863    1.0196    0.3684 H   0  0  0  0  0  0  0  0  0  0  0  0
    1.8023    0.2034    1.8644 H   0  0  0  0  0  0  0  0  0  0  0  0
    3.2592   -0.3118    1.0018 H   0  0  0  0  0  0  0  0  0  0  0  0
    0.3897   -0.5237   -0.0274 H   0  0  0  0  0  0  0  0  0  0  0  0
    3.7943   -2.0027   -0.7240 H   0  0  0  0  0  0  0  0  0  0  0  0
    4.6828   -2.2258   -3.0068 H   0  0  0  0  0  0  0  0  0  0  0  0
    3.3313   -1.4930   -4.9459 H   0  0  0  0  0  0  0  0  0  0  0  0
    1.0868   -0.5204   -4.5746 H   0  0  0  0  0  0  0  0  0  0  0  0
    0.2111   -0.2764   -2.2859 H   0  0  0  0  0  0  0  0  0  0  0  0
    0.6371   -3.1863    0.0608 H   0  0  0  0  0  0  0  0  0  0  0  0
  1  2  1  0
  1 10  1  0
  1 11  1  0
  1 12  1  0
  2  3  1  0
  2  9  1  0
  2 13  1  0
  3  4  2  0
  3  8  1  0
  4  5  1  0
  4 14  1  0
  5  6  2  0
  5 15  1  0
  6  7  1  0
  6 16  1  0
  7  8  2  0
  7 17  1  0
  8 18  1  0
  9 19  1  0
M  END
>  <reaction>  (3) 
rxn_1683

>  <mol_properties>  (3) 
{"1": {"label": "acceptor", "atom_type": "Cs"}, "18": {"label": "a_hydrogen", "atom_type": "H0"}}

>  <type>  (3) 
r2h

$$$$

     RDKit          3D

 28 27  0  0  0  0  0  0  0  0999 V2000
   -2.2893    0.4800   -0.1391 C   0  0  0  0  0  0  0  0  0  0  0  0
   -0.9261    0.4087    0.5168 C   0  0  0  0  0  0  0  0  0  0  0  0
    0.2444    0.8679   -0.2988 C   0  0  0  0  0  0  0  0  0  0  0  0
    0.1038    1.7304   -1.3812 C   0  0  0  0  0  0  0  0  0  0  0  0
    1.2088    2.1178   -2.1254 C   0  0  0  0  0  0  0  0  0  0  0  0
    2.4703    1.6455   -1.8027 C   0  0  0  0  0  0  0  0  0  0  0  0
    2.6214    0.7778   -0.7301 C   0  0  0  0  0  0  0  0  0  0  0  0
    1.5185    0.3930    0.0112 C   0  0  0  0  0  0  0  0  0  0  0  0
   -1.0229    1.1646    2.1570 S   0  0  0  0  0  0  0  0  0  0  0  0
   -3.0346   -0.0081    0.4903 H   0  0  0  0  0  0  0  0  0  0  0  0
   -2.6125    1.5098   -0.3071 H   0  0  0  0  0  0  0  0  0  0  0  0
   -2.2665   -0.0388   -1.0987 H   0  0  0  0  0  0  0  0  0  0  0  0
   -0.8737    2.1100   -1.6484 H   0  0  0  0  0  0  0  0  0  0  0  0
    1.0801    2.7927   -2.9624 H   0  0  0  0  0  0  0  0  0  0  0  0
    3.3310    1.9462   -2.3862 H   0  0  0  0  0  0  0  0  0  0  0  0
    3.6007    0.3918   -0.4769 H   0  0  0  0  0  0  0  0  0  0  0  0
    1.6377   -0.3064    0.8315 H   0  0  0  0  0  0  0  0  0  0  0  0
    0.2875    1.1448    2.4295 H   0  0  0  0  0  0  0  0  0  0  0  0
   -0.1044   -2.6042   -1.4408 C   0  0  0  0  0  0  0  0  0  0  0  0
   -0.3725   -3.0703   -0.2247 C   0  0  0  0  0  0  0  0  0  0  0  0
   -0.6161   -2.2526    0.9411 C   0  0  0  0  0  3  0  0  0  0  0  0
   -0.7965   -2.5784    2.2049 C   0  0  0  0  0  0  0  0  0  0  0  0
   -0.0373   -1.5413   -1.6402 H   0  0  0  0  0  0  0  0  0  0  0  0
    0.0682   -3.2767   -2.2708 H   0  0  0  0  0  0  0  0  0  0  0  0
   -0.4209   -4.1481   -0.0653 H   0  0  0  0  0  0  0  0  0  0  0  0
   -0.7369   -0.8013    0.7068 H   0  0  0  0  0  0  0  0  0  0  0  0
   -0.7613   -3.6161    2.5355 H   0  0  0  0  0  0  0  0  0  0  0  0
   -0.9885   -1.8245    2.9611 H   0  0  0  0  0  0  0  0  0  0  0  0
  1  2  1  0
  1 10  1  0
  1 11  1  0
  1 12  1  0
  2  3  1  0
  2  9  1  0
  2 26  1  0
  3  4  2  0
  3  8  1  0
  4  5  1  0
  4 13  1  0
  5  6  2  0
  5 14  1  0
  6  7  1  0
  6 15  1  0
  7  8  2  0
  7 16  1  0
  8 17  1  0
  9 18  1  0
 19 20  2  3
 19 23  1  0
 19 24  1  0
 20 21  1  0
 20 25  1  0
 21 22  2  3
 22 27  1  0
 22 28  1  0
M  RAD  1  21   2
M  END
>  <reaction>  (4) 
rxn_1683

>  <mol_properties>  (4) 
{"1": {"label": "*1", "atom_type": "Cs"}, "2": {"label": "*0", "atom_type": "Cd"}, "19": {"label": "*4", "atom_type": "Cd"}, "20": {"label": "*3", "atom_type": "Cd"}, "25": {"label": "*2", "atom_type": "H0"}}

>  <type>  (4) 
ts

$$$$
