
     RDKit          3D

  9  8  0  0  0  0  0  0  0  0999 V2000
    1.1303   -0.2933   -0.7510 C   0  0  0  0  0  0  0  0  0  0  0  0
    0.2866    0.4560   -0.0588 C   0  0  0  0  0  0  0  0  0  0  0  0
   -0.9719   -0.0331    0.5823 C   0  0  0  0  0  0  0  0  0  0  0  0
    2.0274    0.1230   -1.1916 H   0  0  0  0  0  0  0  0  0  0  0  0
    0.9532   -1.3530   -0.9023 H   0  0  0  0  0  0  0  0  0  0  0  0
    0.5065    1.5132    0.0659 H   0  0  0  0  0  0  0  0  0  0  0  0
   -0.9526    0.1426    1.6610 H   0  0  0  0  0  0  0  0  0  0  0  0
   -1.1182   -1.1002    0.4106 H   0  0  0  0  0  0  0  0  0  0  0  0
   -1.8412    0.5010    0.1901 H   0  0  0  0  0  0  0  0  0  0  0  0
  1  2  2  3
  1  4  1  0
  1  5  1  0
  2  3  1  0
  2  6  1  0
  3  7  1  0
  3  8  1  0
  3  9  1  0
M  END
>  <reaction>  (1) 
rxn_761

>  <mol_properties>  (1) 
{"1": {"label": "donator", "atom_type": "Cd"}, "5": {"label": "d_hydrogen", "atom_type": "H0"}}

>  <type>  (1) 
r1h

$$$$

     RDKit          3D

  7  6  0  0  0  0  0  0  0  0999 V2000
   -0.6201    0.0189   -0.0017 C   0  0  0  0  0  0  0  0  0  0  0  0
    0.8589   -0.0553    0.0500 C   0  0  0  0  0  3  0  0  0  0  0  0
   -1.0738   -0.9730   -0.0559 H   0  0  0  0  0  0  0  0  0  0  0  0
   -0.9680    0.5706   -0.8872 H   0  0  0  0  0  0  0  0  0  0  0  0
   -1.0303    0.5369    0.8678 H   0  0  0  0  0  0  0  0  0  0  0  0
    1.3939   -0.8386   -0.4695 H   0  0  0  0  0  0  0  0  0  0  0  0
    1.4394    0.7404    0.4965 H   0  0  0  0  0  0  0  0  0  0  0  0
  1  2  1  0
  1  3  1  0
  1  4  1  0
  1  5  1  0
  2  6  1  0
  2  7  1  0
M  RAD  1   2   2
M  END
>  <reaction>  (2) 
rxn_761

>  <mol_properties>  (2) 
{"1": {"label": "acceptor", "atom_type": "Cs"}}

>  <type>  (2) 
r2

$$$$

     RDKit          3D

  8  7  0  0  0  0  0  0  0  0999 V2000
    0.7610    0.0250    0.0051 C   0  0  0  0  0  0  0  0  0  0  0  0
   -0.7610   -0.0250   -0.0051 C   0  0  0  0  0  0  0  0  0  0  0  0
    1.1904   -0.9237   -0.3217 H   0  0  0  0  0  0  0  0  0  0  0  0
    1.1359    0.8041   -0.6609 H   0  0  0  0  0  0  0  0  0  0  0  0
    1.1435    0.2336    1.0058 H   0  0  0  0  0  0  0  0  0  0  0  0
   -1.1435   -0.2336   -1.0058 H   0  0  0  0  0  0  0  0  0  0  0  0
   -1.1904    0.9237    0.3216 H   0  0  0  0  0  0  0  0  0  0  0  0
   -1.1359   -0.8041    0.6609 H   0  0  0  0  0  0  0  0  0  0  0  0
  1  2  1  0
  1  3  1  0
  1  4  1  0
  1  5  1  0
  2  6  1  0
  2  7  1  0
  2  8  1  0
M  END
>  <reaction>  (3) 
rxn_761

>  <mol_properties>  (3) 
{"0": {"label": "a_hydrogen", "atom_type": "H0"}, "2": {"label": "acceptor", "atom_type": "Cs"}}

>  <type>  (3) 
r2h

$$$$

     RDKit          3D

 16 14  0  0  0  0  0  0  0  0999 V2000
   -1.4328    1.5386   -0.6660 C   0  0  0  0  0  0  0  0  0  0  0  0
   -0.2980    0.9186   -0.4287 C   0  0  0  0  0  3  0  0  0  0  0  0
    1.0900    1.4332   -0.3541 C   0  0  0  0  0  0  0  0  0  0  0  0
   -2.3782    1.0072   -0.6839 H   0  0  0  0  0  0  0  0  0  0  0  0
   -1.4694    2.6104   -0.8553 H   0  0  0  0  0  0  0  0  0  0  0  0
   -0.3963   -0.4296   -0.2059 H   0  0  0  0  0  0  0  0  0  0  0  0
    1.5204    1.2454    0.6326 H   0  0  0  0  0  0  0  0  0  0  0  0
    1.1272    2.5099   -0.5462 H   0  0  0  0  0  0  0  0  0  0  0  0
    1.7300    0.9317   -1.0842 H   0  0  0  0  0  0  0  0  0  0  0  0
    0.4741   -1.9316    1.2485 C   0  0  0  0  0  0  0  0  0  0  0  0
   -0.4546   -1.7034    0.0838 C   0  0  0  0  0  0  0  0  0  0  0  0
    0.4669   -2.9771    1.5712 H   0  0  0  0  0  0  0  0  0  0  0  0
    0.1856   -1.3222    2.1073 H   0  0  0  0  0  0  0  0  0  0  0  0
    1.5042   -1.6783    0.9894 H   0  0  0  0  0  0  0  0  0  0  0  0
   -1.5080   -1.8692    0.3048 H   0  0  0  0  0  0  0  0  0  0  0  0
   -0.1608   -2.2032   -0.8379 H   0  0  0  0  0  0  0  0  0  0  0  0
  1  2  2  3
  1  4  1  0
  1  5  1  0
  2  3  1  0
  3  7  1  0
  3  8  1  0
  3  9  1  0
  6 11  1  0
 10 11  1  0
 10 12  1  0
 10 13  1  0
 10 14  1  0
 11 15  1  0
 11 16  1  0
M  RAD  1   2   2
M  END
>  <reaction>  (4) 
rxn_761

>  <mol_properties>  (4) 
{"0": {"label": "*4", "atom_type": "Cd"}, "1": {"label": "*3", "atom_type": "Cd"}, "5": {"label": "*2", "atom_type": "H0"}, "9": {"label": "*0", "atom_type": "Cs"}, "10": {"label": "*1", "atom_type": "Cs"}}

>  <type>  (4) 
ts

$$$$
