
     RDKit          3D

  6  5  0  0  0  0  0  0  0  0999 V2000
   -0.3669    0.0060    0.0609 C   0  0  0  0  0  0  0  0  0  0  0  0
    0.9818   -0.0507    0.4695 O   0  0  0  0  0  0  0  0  0  0  0  0
   -0.6066    0.9462   -0.4488 H   0  0  0  0  0  0  0  0  0  0  0  0
   -0.5221   -0.8115   -0.6420 H   0  0  0  0  0  0  0  0  0  0  0  0
   -1.0602   -0.1268    0.8992 H   0  0  0  0  0  0  0  0  0  0  0  0
    1.1451    0.6595    1.0897 H   0  0  0  0  0  0  0  0  0  0  0  0
  1  2  1  0
  1  3  1  0
  1  4  1  0
  1  5  1  0
  2  6  1  0
M  END
>  <reaction>  (1) 
rxn_197

>  <mol_properties>  (1) 
{"0": {"label": "donator", "atom_type": "Cs"}, "2": {"label": "d_hydrogen", "atom_type": "H0"}}

>  <type>  (1) 
r1h

$$$$

     RDKit          3D

  3  2  0  0  0  0  0  0  0  0999 V2000
    0.9943   -0.1797    0.0000 O   0  0  0  0  0  1  0  0  0  0  0  0
   -0.1595    0.4394    0.0000 O   0  0  0  0  0  0  0  0  0  0  0  0
   -0.8348   -0.2597    0.0000 H   0  0  0  0  0  0  0  0  0  0  0  0
  1  2  1  0
  2  3  1  0
M  RAD  1   1   2
M  END
>  <reaction>  (2) 
rxn_197

>  <mol_properties>  (2) 
{"0": {"label": "acceptor", "atom_type": "O2s"}}

>  <type>  (2) 
r2

$$$$

     RDKit          3D

  4  3  0  0  0  0  0  0  0  0999 V2000
    0.5949   -0.3853    0.2659 O   0  0  0  0  0  0  0  0  0  0  0  0
   -0.5918    0.4028    0.2462 O   0  0  0  0  0  0  0  0  0  0  0  0
    1.1865    0.1539   -0.2689 H   0  0  0  0  0  0  0  0  0  0  0  0
   -1.1896   -0.1714   -0.2432 H   0  0  0  0  0  0  0  0  0  0  0  0
  1  2  1  0
  1  3  1  0
  2  4  1  0
M  END
>  <reaction>  (3) 
rxn_197

>  <mol_properties>  (3) 
{"0": {"label": "a_hydrogen", "atom_type": "H0"}, "1": {"label": "acceptor", "atom_type": "O2s"}}

>  <type>  (3) 
r2h

$$$$

     RDKit          3D

  9  7  0  0  0  0  0  0  0  0999 V2000
    0.1913   -1.4524    0.1855 C   0  0  0  0  0  3  0  0  0  0  0  0
   -0.1228   -1.1414   -1.1090 O   0  0  0  0  0  0  0  0  0  0  0  0
   -0.0255   -0.3488    0.8880 H   0  0  0  0  0  0  0  0  0  0  0  0
   -0.4780   -2.2191    0.5659 H   0  0  0  0  0  0  0  0  0  0  0  0
    1.2506   -1.6397    0.3792 H   0  0  0  0  0  0  0  0  0  0  0  0
    0.4625   -0.4397   -1.4100 H   0  0  0  0  0  0  0  0  0  0  0  0
   -0.1578    0.8068    1.2187 O   0  0  0  0  0  0  0  0  0  0  0  0
   -0.0500    1.4890    0.0143 O   0  0  0  0  0  0  0  0  0  0  0  0
   -0.9688    1.5943   -0.2600 H   0  0  0  0  0  0  0  0  0  0  0  0
  1  2  1  0
  1  4  1  0
  1  5  1  0
  2  6  1  0
  3  7  1  0
  7  8  1  0
  8  9  1  0
M  RAD  1   1   2
M  END
>  <reaction>  (4) 
rxn_197

>  <mol_properties>  (4) 
{"0": {"label": "*3", "atom_type": "Cs"}, "1": {"label": "*4", "atom_type": "O2s"}, "2": {"label": "*2", "atom_type": "H0"}, "6": {"label": "*1", "atom_type": "O2s"}, "7": {"label": "*0", "atom_type": "O2s"}}

>  <type>  (4) 
ts

$$$$
