
     RDKit          3D

 25 26  0  0  0  0  0  0  0  0999 V2000
    2.0298   -1.1515    0.0571 C   0  0  0  0  0  0  0  0  0  0  0  0
    2.2278    0.2445    0.6528 C   0  0  0  0  0  0  0  0  0  0  0  0
    1.2292    1.2625    0.0947 C   0  0  0  0  0  0  0  0  0  0  0  0
   -0.1869    0.7454    0.2762 C   0  0  0  0  0  0  0  0  0  0  0  0
   -1.3415    1.5501   -0.3122 C   0  0  0  0  0  0  0  0  0  0  0  0
   -2.5060    0.5338   -0.4178 C   0  0  0  0  0  0  0  0  0  0  0  0
   -1.8709   -0.8658   -0.2234 C   0  0  0  0  0  0  0  0  0  0  0  0
   -0.3715   -0.6265   -0.3693 C   0  0  0  0  0  0  0  0  0  0  0  0
    0.5898   -1.6500    0.2086 C   0  0  0  0  0  0  0  0  0  0  0  0
    2.2820   -1.1226   -1.0088 H   0  0  0  0  0  0  0  0  0  0  0  0
    2.7243   -1.8549    0.5221 H   0  0  0  0  0  0  0  0  0  0  0  0
    2.1030    0.1885    1.7400 H   0  0  0  0  0  0  0  0  0  0  0  0
    3.2514    0.5819    0.4743 H   0  0  0  0  0  0  0  0  0  0  0  0
    1.3611    2.2304    0.5855 H   0  0  0  0  0  0  0  0  0  0  0  0
    1.4198    1.4194   -0.9737 H   0  0  0  0  0  0  0  0  0  0  0  0
   -0.3675    0.6209    1.3539 H   0  0  0  0  0  0  0  0  0  0  0  0
   -1.5992    2.4249    0.2862 H   0  0  0  0  0  0  0  0  0  0  0  0
   -1.0595    1.9116   -1.3055 H   0  0  0  0  0  0  0  0  0  0  0  0
   -3.2666    0.7244    0.3399 H   0  0  0  0  0  0  0  0  0  0  0  0
   -3.0030    0.6112   -1.3853 H   0  0  0  0  0  0  0  0  0  0  0  0
   -2.2549   -1.6039   -0.9288 H   0  0  0  0  0  0  0  0  0  0  0  0
   -2.0796   -1.2429    0.7821 H   0  0  0  0  0  0  0  0  0  0  0  0
   -0.1432   -0.5121   -1.4391 H   0  0  0  0  0  0  0  0  0  0  0  0
    0.4720   -2.6209   -0.2799 H   0  0  0  0  0  0  0  0  0  0  0  0
    0.3601   -1.7986    1.2704 H   0  0  0  0  0  0  0  0  0  0  0  0
  1  2  1  0
  1  9  1  0
  1 10  1  0
  1 11  1  0
  2  3  1  0
  2 12  1  0
  2 13  1  0
  3  4  1  0
  3 14  1  0
  3 15  1  0
  4  5  1  0
  4  8  1  0
  4 16  1  0
  5  6  1  0
  5 17  1  0
  5 18  1  0
  6  7  1  0
  6 19  1  0
  6 20  1  0
  7  8  1  0
  7 21  1  0
  7 22  1  0
  8  9  1  0
  8 23  1  0
  9 24  1  0
  9 25  1  0
M  END
>  <reaction>  (1) 
rxn_614

>  <mol_properties>  (1) 
{"5": {"label": "donator", "atom_type": "Cs"}, "18": {"label": "d_hydrogen", "atom_type": "H0"}}

>  <type>  (1) 
r1h

$$$$

     RDKit          3D

 17 17  0  0  0  0  0  0  0  0999 V2000
    2.7069    0.2860   -0.1817 C   0  0  0  0  0  0  0  0  0  0  0  0
    1.6304   -0.7245    0.0085 C   0  0  0  0  0  0  0  0  0  0  0  0
    1.4786   -1.8800   -0.7837 C   0  0  0  0  0  0  0  0  0  0  0  0
    0.4231   -2.7891   -0.5312 C   0  0  0  0  0  3  0  0  0  0  0  0
    0.2582   -3.9235   -1.2940 C   0  0  0  0  0  0  0  0  0  0  0  0
    1.1348   -4.2030   -2.3401 C   0  0  0  0  0  0  0  0  0  0  0  0
    2.1804   -3.3260   -2.6093 C   0  0  0  0  0  0  0  0  0  0  0  0
    2.3549   -2.1866   -1.8513 C   0  0  0  0  0  0  0  0  0  0  0  0
    2.6698    0.7343   -1.1808 H   0  0  0  0  0  0  0  0  0  0  0  0
    3.7029   -0.1584   -0.0766 H   0  0  0  0  0  0  0  0  0  0  0  0
    2.6250    1.0917    0.5463 H   0  0  0  0  0  0  0  0  0  0  0  0
    0.9136   -0.5677    0.8059 H   0  0  0  0  0  0  0  0  0  0  0  0
   -0.2629   -2.5783    0.2811 H   0  0  0  0  0  0  0  0  0  0  0  0
   -0.5582   -4.6017   -1.0785 H   0  0  0  0  0  0  0  0  0  0  0  0
    1.0033   -5.0952   -2.9384 H   0  0  0  0  0  0  0  0  0  0  0  0
    2.8650   -3.5382   -3.4214 H   0  0  0  0  0  0  0  0  0  0  0  0
    3.1750   -1.5169   -2.0772 H   0  0  0  0  0  0  0  0  0  0  0  0
  1  2  1  0
  1  9  1  0
  1 10  1  0
  1 11  1  0
  2  3  2  3
  2 12  1  0
  3  4  1  0
  3  8  1  0
  4  5  1  0
  4 13  1  0
  5  6  2  0
  5 14  1  0
  6  7  1  0
  6 15  1  0
  7  8  2  0
  7 16  1  0
  8 17  1  0
M  RAD  1   4   2
M  END
>  <reaction>  (2) 
rxn_614

>  <mol_properties>  (2) 
{"1": {"label": "acceptor", "atom_type": "Cs"}}

>  <type>  (2) 
r2

$$$$

     RDKit          3D

 18 18  0  0  0  0  0  0  0  0999 V2000
   -2.4852    0.3210   -0.3966 C   0  0  0  0  0  0  0  0  0  0  0  0
   -1.5917   -0.2708    0.6941 C   0  0  0  0  0  0  0  0  0  0  0  0
   -0.1292   -0.1692    0.3493 C   0  0  0  0  0  0  0  0  0  0  0  0
    0.6099    0.9558    0.7015 C   0  0  0  0  0  0  0  0  0  0  0  0
    1.9447    1.0728    0.3458 C   0  0  0  0  0  0  0  0  0  0  0  0
    2.5646    0.0613   -0.3720 C   0  0  0  0  0  0  0  0  0  0  0  0
    1.8399   -1.0657   -0.7287 C   0  0  0  0  0  0  0  0  0  0  0  0
    0.5055   -1.1769   -0.3700 C   0  0  0  0  0  0  0  0  0  0  0  0
   -2.3325   -0.1971   -1.3452 H   0  0  0  0  0  0  0  0  0  0  0  0
   -2.2554    1.3763   -0.5546 H   0  0  0  0  0  0  0  0  0  0  0  0
   -3.5397    0.2376   -0.1280 H   0  0  0  0  0  0  0  0  0  0  0  0
   -1.7801    0.2462    1.6380 H   0  0  0  0  0  0  0  0  0  0  0  0
   -1.8568   -1.3190    0.8516 H   0  0  0  0  0  0  0  0  0  0  0  0
    0.1327    1.7497    1.2656 H   0  0  0  0  0  0  0  0  0  0  0  0
    2.5033    1.9550    0.6330 H   0  0  0  0  0  0  0  0  0  0  0  0
    3.6077    0.1491   -0.6484 H   0  0  0  0  0  0  0  0  0  0  0  0
    2.3163   -1.8632   -1.2854 H   0  0  0  0  0  0  0  0  0  0  0  0
   -0.0540   -2.0629   -0.6500 H   0  0  0  0  0  0  0  0  0  0  0  0
  1  2  1  0
  1  9  1  0
  1 10  1  0
  1 11  1  0
  2  3  1  0
  2 12  1  0
  2 13  1  0
  3  4  2  0
  3  8  1  0
  4  5  1  0
  4 14  1  0
  5  6  2  0
  5 15  1  0
  6  7  1  0
  6 16  1  0
  7  8  2  0
  7 17  1  0
  8 18  1  0
M  END
>  <reaction>  (3) 
rxn_614

>  <mol_properties>  (3) 
{"1": {"label": "acceptor", "atom_type": "Cs"}, "17": {"label": "a_hydrogen", "atom_type": "H0"}}

>  <type>  (3) 
r2h

$$$$

     RDKit          3D

 42 43  0  0  0  0  0  0  0  0999 V2000
    1.1816    2.6453    2.5261 C   0  0  0  0  0  0  0  0  0  0  0  0
    0.9294    2.2627    1.0878 C   0  0  0  0  0  0  0  0  0  0  0  0
   -0.4276    1.8640    0.6758 C   0  0  0  0  0  0  0  0  0  0  0  0
   -0.7741    1.8791   -0.6799 C   0  0  0  0  0  0  0  0  0  0  0  0
   -1.9847    1.3758   -1.1189 C   0  0  0  0  0  0  0  0  0  0  0  0
   -2.8920    0.8466   -0.2104 C   0  0  0  0  0  0  0  0  0  0  0  0
   -2.5774    0.8485    1.1401 C   0  0  0  0  0  0  0  0  0  0  0  0
   -1.3640    1.3538    1.5785 C   0  0  0  0  0  0  0  0  0  0  0  0
    0.9775    1.8159    3.2069 H   0  0  0  0  0  0  0  0  0  0  0  0
    0.5588    3.4892    2.8369 H   0  0  0  0  0  0  0  0  0  0  0  0
    2.2255    2.9280    2.6658 H   0  0  0  0  0  0  0  0  0  0  0  0
    1.3883    2.9498    0.3768 H   0  0  0  0  0  0  0  0  0  0  0  0
   -0.0678    2.2796   -1.3985 H   0  0  0  0  0  0  0  0  0  0  0  0
   -2.2222    1.3922   -2.1755 H   0  0  0  0  0  0  0  0  0  0  0  0
   -3.8376    0.4455   -0.5517 H   0  0  0  0  0  0  0  0  0  0  0  0
   -3.2817    0.4493    1.8596 H   0  0  0  0  0  0  0  0  0  0  0  0
   -1.1366    1.3347    2.6367 H   0  0  0  0  0  0  0  0  0  0  0  0
   -0.2238   -3.0883   -2.0077 C   0  0  0  0  0  0  0  0  0  0  0  0
   -1.1049   -3.0757   -0.7554 C   0  0  0  0  0  0  0  0  0  0  0  0
   -0.3020   -2.8004    0.5197 C   0  0  0  0  0  0  0  0  0  0  0  0
    0.4822   -1.5148    0.3417 C   0  0  0  0  0  0  0  0  0  0  0  0
    1.4116   -1.0396    1.4533 C   0  0  0  0  0  0  0  0  0  0  0  0
    2.3022   -0.0314    0.7460 C   0  0  0  0  0  3  0  0  0  0  0  0
    2.2519   -0.3114   -0.7520 C   0  0  0  0  0  0  0  0  0  0  0  0
    1.4097   -1.5863   -0.8707 C   0  0  0  0  0  0  0  0  0  0  0  0
    0.6172   -1.8154   -2.1457 C   0  0  0  0  0  0  0  0  0  0  0  0
    0.4500   -3.9514   -1.9605 H   0  0  0  0  0  0  0  0  0  0  0  0
   -0.8452   -3.2276   -2.8954 H   0  0  0  0  0  0  0  0  0  0  0  0
   -1.8634   -2.2920   -0.8612 H   0  0  0  0  0  0  0  0  0  0  0  0
   -1.6407   -4.0240   -0.6707 H   0  0  0  0  0  0  0  0  0  0  0  0
   -0.9736   -2.7324    1.3797 H   0  0  0  0  0  0  0  0  0  0  0  0
    0.3878   -3.6305    0.7147 H   0  0  0  0  0  0  0  0  0  0  0  0
   -0.2403   -0.7144    0.1476 H   0  0  0  0  0  0  0  0  0  0  0  0
    0.8756   -0.6104    2.3045 H   0  0  0  0  0  0  0  0  0  0  0  0
    2.0044   -1.8791    1.8385 H   0  0  0  0  0  0  0  0  0  0  0  0
    1.6464    1.1850    0.9091 H   0  0  0  0  0  0  0  0  0  0  0  0
    3.2738    0.1733    1.1892 H   0  0  0  0  0  0  0  0  0  0  0  0
    3.2445   -0.4171   -1.1943 H   0  0  0  0  0  0  0  0  0  0  0  0
    1.7565    0.5099   -1.2841 H   0  0  0  0  0  0  0  0  0  0  0  0
    2.0753   -2.4483   -0.7212 H   0  0  0  0  0  0  0  0  0  0  0  0
    1.2766   -1.8905   -3.0147 H   0  0  0  0  0  0  0  0  0  0  0  0
   -0.0400   -0.9538   -2.3127 H   0  0  0  0  0  0  0  0  0  0  0  0
  1  2  1  0
  1  9  1  0
  1 10  1  0
  1 11  1  0
  2  3  1  0
  2 12  1  0
  2 36  1  0
  3  4  2  0
  3  8  1  0
  4  5  1  0
  4 13  1  0
  5  6  2  0
  5 14  1  0
  6  7  1  0
  6 15  1  0
  7  8  2  0
  7 16  1  0
  8 17  1  0
 18 19  1  0
 18 26  1  0
 18 27  1  0
 18 28  1  0
 19 20  1  0
 19 29  1  0
 19 30  1  0
 20 21  1  0
 20 31  1  0
 20 32  1  0
 21 22  1  0
 21 25  1  0
 21 33  1  0
 22 23  1  0
 22 34  1  0
 22 35  1  0
 23 24  1  0
 23 37  1  0
 24 25  1  0
 24 38  1  0
 24 39  1  0
 25 26  1  0
 25 40  1  0
 26 41  1  0
 26 42  1  0
M  RAD  1  23   2
M  END
>  <reaction>  (4) 
rxn_614

>  <mol_properties>  (4) 
{"1": {"label": "*1", "atom_type": "Cs"}, "2": {"label": "*0", "atom_type": "Cd"}, "21": {"label": "*4", "atom_type": "Cs"}, "22": {"label": "*3", "atom_type": "Cs"}, "35": {"label": "*2", "atom_type": "H0"}}

>  <type>  (4) 
ts

$$$$
