
     RDKit          3D

  5  4  0  0  0  0  0  0  0  0999 V2000
    0.0000    0.0000    0.0000 C   0  0  0  0  0  0  0  0  0  0  0  0
   -0.6486   -0.7720   -0.4113 H   0  0  0  0  0  0  0  0  0  0  0  0
   -0.3482    0.9787   -0.3267 H   0  0  0  0  0  0  0  0  0  0  0  0
   -0.0223   -0.0487    1.0876 H   0  0  0  0  0  0  0  0  0  0  0  0
    1.0191   -0.1580   -0.3496 H   0  0  0  0  0  0  0  0  0  0  0  0
  1  2  1  0
  1  3  1  0
  1  4  1  0
  1  5  1  0
M  END
>  <reaction>  (1) 
rxn_209

>  <mol_properties>  (1) 
{"0": {"label": "donator", "atom_type": "Cs"}, "1": {"label": "d_hydrogen", "atom_type": "H0"}}

>  <type>  (1) 
r1h

$$$$

     RDKit          3D

  6  5  0  0  0  0  0  0  0  0999 V2000
   -0.4344    0.0212    0.0006 C   0  0  0  0  0  0  0  0  0  0  0  0
    0.8754    0.5852   -0.1558 O   0  0  0  0  0  0  0  0  0  0  0  0
    1.8009   -0.3034    0.0506 O   0  0  0  0  0  1  0  0  0  0  0  0
   -0.5437   -0.3548    1.0170 H   0  0  0  0  0  0  0  0  0  0  0  0
   -1.1312    0.8347   -0.1903 H   0  0  0  0  0  0  0  0  0  0  0  0
   -0.5670   -0.7829   -0.7220 H   0  0  0  0  0  0  0  0  0  0  0  0
  1  2  1  0
  1  4  1  0
  1  5  1  0
  1  6  1  0
  2  3  1  0
M  RAD  1   3   2
M  END
>  <reaction>  (2) 
rxn_209

>  <mol_properties>  (2) 
{"2": {"label": "acceptor", "atom_type": "O2s"}}

>  <type>  (2) 
r2

$$$$

     RDKit          3D

  7  6  0  0  0  0  0  0  0  0999 V2000
   -0.7707    0.0268   -0.0047 C   0  0  0  0  0  0  0  0  0  0  0  0
    0.4327    0.7555    0.0056 O   0  0  0  0  0  0  0  0  0  0  0  0
    0.2257    1.8886    0.8427 O   0  0  0  0  0  0  0  0  0  0  0  0
   -1.5847    0.6016   -0.4574 H   0  0  0  0  0  0  0  0  0  0  0  0
   -1.0534   -0.2811    1.0050 H   0  0  0  0  0  0  0  0  0  0  0  0
   -0.5599   -0.8542   -0.6123 H   0  0  0  0  0  0  0  0  0  0  0  0
    0.2626    2.6067    0.2016 H   0  0  0  0  0  0  0  0  0  0  0  0
  1  2  1  0
  1  4  1  0
  1  5  1  0
  1  6  1  0
  2  3  1  0
  3  7  1  0
M  END
>  <reaction>  (3) 
rxn_209

>  <mol_properties>  (3) 
{"2": {"label": "acceptor", "atom_type": "O2s"}, "6": {"label": "a_hydrogen", "atom_type": "H0"}}

>  <type>  (3) 
r2h

$$$$

     RDKit          3D

 11  9  0  0  0  0  0  0  0  0999 V2000
   -0.7697    1.4060    0.0481 C   0  0  0  0  0  0  0  0  0  0  0  0
   -0.4842    0.4217    1.0180 O   0  0  0  0  0  0  0  0  0  0  0  0
    0.8274    0.0107    0.8547 O   0  0  0  0  0  0  0  0  0  0  0  0
   -0.7306    0.9811   -0.9605 H   0  0  0  0  0  0  0  0  0  0  0  0
   -1.7830    1.7437    0.2659 H   0  0  0  0  0  0  0  0  0  0  0  0
   -0.0701    2.2409    0.1239 H   0  0  0  0  0  0  0  0  0  0  0  0
    0.6271   -1.9185   -0.7757 C   0  0  0  0  0  3  0  0  0  0  0  0
    0.7707   -0.8504    0.1325 H   0  0  0  0  0  0  0  0  0  0  0  0
    1.2772   -2.6742   -0.3485 H   0  0  0  0  0  0  0  0  0  0  0  0
   -0.4362   -2.1151   -0.6846 H   0  0  0  0  0  0  0  0  0  0  0  0
    0.9497   -1.5135   -1.7286 H   0  0  0  0  0  0  0  0  0  0  0  0
  1  2  1  0
  1  4  1  0
  1  5  1  0
  1  6  1  0
  2  3  1  0
  3  8  1  0
  7  9  1  0
  7 10  1  0
  7 11  1  0
M  RAD  1   7   2
M  END
>  <reaction>  (4) 
rxn_209

>  <mol_properties>  (4) 
{"1": {"label": "*0", "atom_type": "O2s"}, "2": {"label": "*1", "atom_type": "O2s"}, "6": {"label": "*3", "atom_type": "Cs"}, "7": {"label": "*2", "atom_type": "H0"}, "8": {"label": "*4", "atom_type": "H0"}}

>  <type>  (4) 
ts

$$$$
