
     RDKit          3D

  9  8  0  0  0  0  0  0  0  0999 V2000
   -2.1022   -0.6873    0.3932 C   0  0  0  0  0  0  0  0  0  0  0  0
   -1.2072   -0.1086   -0.1482 C   0  0  0  0  0  0  0  0  0  0  0  0
   -0.1242    0.6105   -0.8193 C   0  0  0  0  0  0  0  0  0  0  0  0
    1.2067    0.1106   -0.4741 C   0  0  0  0  0  0  0  0  0  0  0  0
    2.3005   -0.2875   -0.2012 C   0  0  0  0  0  0  0  0  0  0  0  0
   -2.8942   -1.2059    0.8778 H   0  0  0  0  0  0  0  0  0  0  0  0
   -0.1862    1.6723   -0.5649 H   0  0  0  0  0  0  0  0  0  0  0  0
   -0.2641    0.5418   -1.9017 H   0  0  0  0  0  0  0  0  0  0  0  0
    3.2709   -0.6459    0.0455 H   0  0  0  0  0  0  0  0  0  0  0  0
  1  2  3  0
  1  6  1  0
  2  3  1  0
  3  4  1  0
  3  7  1  0
  3  8  1  0
  4  5  3  0
  5  9  1  0
M  END
>  <reaction>  (1) 
rxn_1349

>  <mol_properties>  (1) 
{"2": {"label": "donator", "atom_type": "Cs"}, "6": {"label": "d_hydrogen", "atom_type": "H0"}}

>  <type>  (1) 
r1h

$$$$

     RDKit          3D

 13 12  0  0  0  0  0  0  0  0999 V2000
   -1.3649   -0.5967   -0.3477 C   0  0  0  0  0  0  0  0  0  0  0  0
   -0.1601   -0.2776    0.4669 C   0  0  0  0  0  3  0  0  0  0  0  0
    1.1241   -0.9571    0.1414 C   0  0  0  0  0  0  0  0  0  0  0  0
   -0.1188    1.0130    1.2081 C   0  0  0  0  0  0  0  0  0  0  0  0
   -1.4266   -1.6632   -0.5770 H   0  0  0  0  0  0  0  0  0  0  0  0
   -2.2858   -0.3004    0.1602 H   0  0  0  0  0  0  0  0  0  0  0  0
   -1.3532   -0.0668   -1.3138 H   0  0  0  0  0  0  0  0  0  0  0  0
    1.6174   -0.4963   -0.7297 H   0  0  0  0  0  0  0  0  0  0  0  0
    0.9723   -2.0104   -0.1064 H   0  0  0  0  0  0  0  0  0  0  0  0
    1.8338   -0.8977    0.9701 H   0  0  0  0  0  0  0  0  0  0  0  0
   -1.0852    1.2507    1.6593 H   0  0  0  0  0  0  0  0  0  0  0  0
    0.6358    1.0009    1.9983 H   0  0  0  0  0  0  0  0  0  0  0  0
    0.1343    1.8546    0.5434 H   0  0  0  0  0  0  0  0  0  0  0  0
  1  2  1  0
  1  5  1  0
  1  6  1  0
  1  7  1  0
  2  3  1  0
  2  4  1  0
  3  8  1  0
  3  9  1  0
  3 10  1  0
  4 11  1  0
  4 12  1  0
  4 13  1  0
M  RAD  1   2   2
M  END
>  <reaction>  (2) 
rxn_1349

>  <mol_properties>  (2) 
{"1": {"label": "acceptor", "atom_type": "Cs"}}

>  <type>  (2) 
r2

$$$$

     RDKit          3D

 14 13  0  0  0  0  0  0  0  0999 V2000
   -0.7648   -1.2351   -0.0349 C   0  0  0  0  0  0  0  0  0  0  0  0
    0.0570   -0.0126    0.3624 C   0  0  0  0  0  0  0  0  0  0  0  0
    1.4162   -0.0194   -0.3307 C   0  0  0  0  0  0  0  0  0  0  0  0
   -0.7022    1.2765    0.0629 C   0  0  0  0  0  0  0  0  0  0  0  0
   -0.2387   -2.1618    0.2038 H   0  0  0  0  0  0  0  0  0  0  0  0
   -0.9626   -1.2314   -1.1108 H   0  0  0  0  0  0  0  0  0  0  0  0
   -1.7273   -1.2512    0.4807 H   0  0  0  0  0  0  0  0  0  0  0  0
    0.2295   -0.0590    1.4432 H   0  0  0  0  0  0  0  0  0  0  0  0
    1.2933    0.0259   -1.4168 H   0  0  0  0  0  0  0  0  0  0  0  0
    2.0206    0.8382   -0.0278 H   0  0  0  0  0  0  0  0  0  0  0  0
    1.9767   -0.9268   -0.0965 H   0  0  0  0  0  0  0  0  0  0  0  0
   -1.6638    1.3002    0.5800 H   0  0  0  0  0  0  0  0  0  0  0  0
   -0.8978    1.3663   -1.0096 H   0  0  0  0  0  0  0  0  0  0  0  0
   -0.1313    2.1545    0.3720 H   0  0  0  0  0  0  0  0  0  0  0  0
  1  2  1  0
  1  5  1  0
  1  6  1  0
  1  7  1  0
  2  3  1  0
  2  4  1  0
  2  8  1  0
  3  9  1  0
  3 10  1  0
  3 11  1  0
  4 12  1  0
  4 13  1  0
  4 14  1  0
M  END
>  <reaction>  (3) 
rxn_1349

>  <mol_properties>  (3) 
{"0": {"label": "a_hydrogen", "atom_type": "H0"}, "2": {"label": "acceptor", "atom_type": "Cs"}}

>  <type>  (3) 
r2h

$$$$

     RDKit          3D

 22 20  0  0  0  0  0  0  0  0999 V2000
   -1.1839    0.0072   -2.7034 C   0  0  0  0  0  0  0  0  0  0  0  0
   -0.8789   -0.5071   -1.6630 C   0  0  0  0  0  0  0  0  0  0  0  0
   -0.4532   -1.0685   -0.4110 C   0  0  0  0  0  0  0  0  0  0  0  0
   -1.4525   -1.2111    0.6112 C   0  0  0  0  0  0  0  0  0  0  0  0
   -2.2460   -1.2962    1.5073 C   0  0  0  0  0  0  0  0  0  0  0  0
   -1.4735    0.4441   -3.6284 H   0  0  0  0  0  0  0  0  0  0  0  0
    0.4065   -0.2156    0.0699 H   0  0  0  0  0  0  0  0  0  0  0  0
    0.1581   -1.9626   -0.5335 H   0  0  0  0  0  0  0  0  0  0  0  0
   -2.9652   -1.3864    2.2853 H   0  0  0  0  0  0  0  0  0  0  0  0
    2.3056    0.9004   -0.4785 C   0  0  0  0  0  0  0  0  0  0  0  0
    1.2535    0.7680    0.5880 C   0  0  0  0  0  3  0  0  0  0  0  0
    1.7083    0.1674    1.8896 C   0  0  0  0  0  0  0  0  0  0  0  0
    0.3063    1.9295    0.7086 C   0  0  0  0  0  0  0  0  0  0  0  0
    2.8716   -0.0254   -0.6000 H   0  0  0  0  0  0  0  0  0  0  0  0
    1.8606    1.1613   -1.4407 H   0  0  0  0  0  0  0  0  0  0  0  0
    3.0204    1.6912   -0.2182 H   0  0  0  0  0  0  0  0  0  0  0  0
    2.3514    0.8702    2.4342 H   0  0  0  0  0  0  0  0  0  0  0  0
    2.2839   -0.7465    1.7297 H   0  0  0  0  0  0  0  0  0  0  0  0
    0.8583   -0.0686    2.5329 H   0  0  0  0  0  0  0  0  0  0  0  0
   -0.1078    2.2033   -0.2637 H   0  0  0  0  0  0  0  0  0  0  0  0
   -0.5223    1.6947    1.3795 H   0  0  0  0  0  0  0  0  0  0  0  0
    0.8241    2.8089    1.1114 H   0  0  0  0  0  0  0  0  0  0  0  0
  1  2  3  0
  1  6  1  0
  2  3  1  0
  3  4  1  0
  3  7  1  0
  3  8  1  0
  4  5  3  0
  5  9  1  0
 10 11  1  0
 10 14  1  0
 10 15  1  0
 10 16  1  0
 11 12  1  0
 11 13  1  0
 12 17  1  0
 12 18  1  0
 12 19  1  0
 13 20  1  0
 13 21  1  0
 13 22  1  0
M  RAD  1  11   2
M  END
>  <reaction>  (4) 
rxn_1349

>  <mol_properties>  (4) 
{"1": {"label": "*0", "atom_type": "Ct"}, "2": {"label": "*1", "atom_type": "Cs"}, "6": {"label": "*2", "atom_type": "H0"}, "9": {"label": "*4", "atom_type": "Cs"}, "10": {"label": "*3", "atom_type": "Cs"}}

>  <type>  (4) 
ts

$$$$
