
     RDKit          3D

 10  9  0  0  0  0  0  0  0  0999 V2000
   -1.1508    0.0666    0.2839 C   0  0  0  0  0  0  0  0  0  0  0  0
    0.1022   -0.3749   -0.4771 C   0  0  0  0  0  0  0  0  0  0  0  0
    1.3428    0.1620    0.1542 C   0  0  0  0  0  0  0  0  0  0  0  0
    2.5613   -0.6971    0.7526 S   0  0  0  0  0  0  0  0  0  0  0  0
   -1.2137    1.1546    0.3481 H   0  0  0  0  0  0  0  0  0  0  0  0
   -2.0472   -0.2935   -0.2212 H   0  0  0  0  0  0  0  0  0  0  0  0
   -1.1467   -0.3334    1.2987 H   0  0  0  0  0  0  0  0  0  0  0  0
    0.1602   -1.4616   -0.5369 H   0  0  0  0  0  0  0  0  0  0  0  0
    0.0536    0.0174   -1.4997 H   0  0  0  0  0  0  0  0  0  0  0  0
    1.3824    1.2528    0.2110 H   0  0  0  0  0  0  0  0  0  0  0  0
  1  2  1  0
  1  5  1  0
  1  6  1  0
  1  7  1  0
  2  3  1  0
  2  8  1  0
  2  9  1  0
  3  4  2  0
  3 10  1  0
M  END
>  <reaction>  (1) 
rxn_2012

>  <mol_properties>  (1) 
{"1": {"label": "donator", "atom_type": "Cs"}, "7": {"label": "d_hydrogen", "atom_type": "H0"}}

>  <type>  (1) 
r1h

$$$$

     RDKit          3D

 20 20  0  0  0  0  0  0  0  0999 V2000
   -2.4774    0.8083    0.1488 C   0  0  0  0  0  0  0  0  0  0  0  0
   -1.4172   -0.1696   -0.2476 C   0  0  0  0  0  3  0  0  0  0  0  0
   -0.2904    0.2932   -1.1156 C   0  0  0  0  0  0  0  0  0  0  0  0
   -1.4797   -1.5204    0.1947 C   0  0  0  0  0  0  0  0  0  0  0  0
   -0.4907   -2.4664   -0.1650 C   0  0  0  0  0  0  0  0  0  0  0  0
   -0.5559   -3.7750    0.2665 C   0  0  0  0  0  0  0  0  0  0  0  0
   -1.6038   -4.2041    1.0733 C   0  0  0  0  0  0  0  0  0  0  0  0
   -2.5899   -3.2959    1.4424 C   0  0  0  0  0  0  0  0  0  0  0  0
   -2.5339   -1.9852    1.0162 C   0  0  0  0  0  0  0  0  0  0  0  0
   -3.4697    0.4933   -0.1924 H   0  0  0  0  0  0  0  0  0  0  0  0
   -2.5434    0.9184    1.2368 H   0  0  0  0  0  0  0  0  0  0  0  0
   -2.2829    1.7944   -0.2706 H   0  0  0  0  0  0  0  0  0  0  0  0
   -0.2452   -0.2661   -2.0565 H   0  0  0  0  0  0  0  0  0  0  0  0
   -0.3905    1.3487   -1.3647 H   0  0  0  0  0  0  0  0  0  0  0  0
    0.6811    0.1589   -0.6274 H   0  0  0  0  0  0  0  0  0  0  0  0
    0.3373   -2.1635   -0.7918 H   0  0  0  0  0  0  0  0  0  0  0  0
    0.2187   -4.4725   -0.0281 H   0  0  0  0  0  0  0  0  0  0  0  0
   -1.6513   -5.2316    1.4097 H   0  0  0  0  0  0  0  0  0  0  0  0
   -3.4116   -3.6175    2.0706 H   0  0  0  0  0  0  0  0  0  0  0  0
   -3.3164   -1.3029    1.3205 H   0  0  0  0  0  0  0  0  0  0  0  0
  1  2  1  0
  1 10  1  0
  1 11  1  0
  1 12  1  0
  2  3  1  0
  2  4  1  0
  3 13  1  0
  3 14  1  0
  3 15  1  0
  4  5  2  0
  4  9  1  0
  5  6  1  0
  5 16  1  0
  6  7  2  0
  6 17  1  0
  7  8  1  0
  7 18  1  0
  8  9  2  0
  8 19  1  0
  9 20  1  0
M  RAD  1   2   2
M  END
>  <reaction>  (2) 
rxn_2012

>  <mol_properties>  (2) 
{"1": {"label": "acceptor", "atom_type": "Cs"}}

>  <type>  (2) 
r2

$$$$

     RDKit          3D

 21 21  0  0  0  0  0  0  0  0999 V2000
   -1.3695    1.3367   -1.0719 C   0  0  0  0  0  0  0  0  0  0  0  0
   -1.4091   -0.0981   -0.5428 C   0  0  0  0  0  0  0  0  0  0  0  0
   -0.1819   -0.3999    0.3191 C   0  0  0  0  0  0  0  0  0  0  0  0
   -1.5636   -1.1028   -1.6652 C   0  0  0  0  0  0  0  0  0  0  0  0
   -0.5920   -1.2314   -2.6553 C   0  0  0  0  0  0  0  0  0  0  0  0
   -0.7353   -2.1509   -3.6809 C   0  0  0  0  0  0  0  0  0  0  0  0
   -1.8582   -2.9642   -3.7377 C   0  0  0  0  0  0  0  0  0  0  0  0
   -2.8325   -2.8475   -2.7602 C   0  0  0  0  0  0  0  0  0  0  0  0
   -2.6828   -1.9241   -1.7351 C   0  0  0  0  0  0  0  0  0  0  0  0
   -0.4920    1.4974   -1.7025 H   0  0  0  0  0  0  0  0  0  0  0  0
   -2.2553    1.5607   -1.6679 H   0  0  0  0  0  0  0  0  0  0  0  0
   -1.3211    2.0496   -0.2461 H   0  0  0  0  0  0  0  0  0  0  0  0
   -2.2930   -0.1918    0.0948 H   0  0  0  0  0  0  0  0  0  0  0  0
   -0.1215    0.2955    1.1588 H   0  0  0  0  0  0  0  0  0  0  0  0
   -0.2200   -1.4155    0.7159 H   0  0  0  0  0  0  0  0  0  0  0  0
    0.7383   -0.3016   -0.2615 H   0  0  0  0  0  0  0  0  0  0  0  0
    0.2915   -0.6040   -2.6263 H   0  0  0  0  0  0  0  0  0  0  0  0
    0.0326   -2.2338   -4.4401 H   0  0  0  0  0  0  0  0  0  0  0  0
   -1.9712   -3.6833   -4.5391 H   0  0  0  0  0  0  0  0  0  0  0  0
   -3.7135   -3.4765   -2.7932 H   0  0  0  0  0  0  0  0  0  0  0  0
   -3.4509   -1.8400   -0.9743 H   0  0  0  0  0  0  0  0  0  0  0  0
  1  2  1  0
  1 10  1  0
  1 11  1  0
  1 12  1  0
  2  3  1  0
  2  4  1  0
  2 13  1  0
  3 14  1  0
  3 15  1  0
  3 16  1  0
  4  5  2  0
  4  9  1  0
  5  6  1  0
  5 17  1  0
  6  7  2  0
  6 18  1  0
  7  8  1  0
  7 19  1  0
  8  9  2  0
  8 20  1  0
  9 21  1  0
M  END
>  <reaction>  (3) 
rxn_2012

>  <mol_properties>  (3) 
{"0": {"label": "a_hydrogen", "atom_type": "H0"}, "2": {"label": "acceptor", "atom_type": "Cs"}}

>  <type>  (3) 
r2h

$$$$

     RDKit          3D

 30 29  0  0  0  0  0  0  0  0999 V2000
    0.3699   -0.0437   -3.4849 C   0  0  0  0  0  0  0  0  0  0  0  0
    0.8767    0.3197   -2.1132 C   0  0  0  0  0  0  0  0  0  0  0  0
    0.6303    1.6255   -1.5654 C   0  0  0  0  0  0  0  0  0  0  0  0
   -0.4912    2.7053   -2.0760 S   0  0  0  0  0  0  0  0  0  0  0  0
   -0.6797    0.2257   -3.5969 H   0  0  0  0  0  0  0  0  0  0  0  0
    0.9271    0.4960   -4.2540 H   0  0  0  0  0  0  0  0  0  0  0  0
    0.4864   -1.1127   -3.6680 H   0  0  0  0  0  0  0  0  0  0  0  0
    0.2101   -0.4467   -1.3059 H   0  0  0  0  0  0  0  0  0  0  0  0
    1.8744   -0.0570   -1.8822 H   0  0  0  0  0  0  0  0  0  0  0  0
    1.2288    1.8735   -0.6895 H   0  0  0  0  0  0  0  0  0  0  0  0
   -1.9419   -0.9825   -1.0817 C   0  0  0  0  0  0  0  0  0  0  0  0
   -0.5747   -1.3077   -0.5297 C   0  0  0  0  0  3  0  0  0  0  0  0
   -0.0475   -2.6676   -0.9100 C   0  0  0  0  0  0  0  0  0  0  0  0
   -0.2388   -0.7838    0.8067 C   0  0  0  0  0  0  0  0  0  0  0  0
   -0.7763    0.4305    1.2540 C   0  0  0  0  0  0  0  0  0  0  0  0
   -0.4166    0.9657    2.4785 C   0  0  0  0  0  0  0  0  0  0  0  0
    0.4865    0.3033    3.2956 C   0  0  0  0  0  0  0  0  0  0  0  0
    1.0281   -0.9013    2.8718 C   0  0  0  0  0  0  0  0  0  0  0  0
    0.6763   -1.4338    1.6441 C   0  0  0  0  0  0  0  0  0  0  0  0
   -2.1107    0.0916   -1.1652 H   0  0  0  0  0  0  0  0  0  0  0  0
   -2.0642   -1.4098   -2.0768 H   0  0  0  0  0  0  0  0  0  0  0  0
   -2.7242   -1.3938   -0.4359 H   0  0  0  0  0  0  0  0  0  0  0  0
   -0.5055   -3.4509   -0.2964 H   0  0  0  0  0  0  0  0  0  0  0  0
   -0.2813   -2.8865   -1.9519 H   0  0  0  0  0  0  0  0  0  0  0  0
    1.0339   -2.7409   -0.7882 H   0  0  0  0  0  0  0  0  0  0  0  0
   -1.4752    0.9746    0.6344 H   0  0  0  0  0  0  0  0  0  0  0  0
   -0.8449    1.9087    2.7935 H   0  0  0  0  0  0  0  0  0  0  0  0
    0.7652    0.7209    4.2545 H   0  0  0  0  0  0  0  0  0  0  0  0
    1.7305   -1.4319    3.5026 H   0  0  0  0  0  0  0  0  0  0  0  0
    1.1113   -2.3771    1.3433 H   0  0  0  0  0  0  0  0  0  0  0  0
  1  2  1  0
  1  5  1  0
  1  6  1  0
  1  7  1  0
  2  3  1  0
  2  8  1  0
  2  9  1  0
  3  4  2  0
  3 10  1  0
 11 12  1  0
 11 20  1  0
 11 21  1  0
 11 22  1  0
 12 13  1  0
 12 14  1  0
 13 23  1  0
 13 24  1  0
 13 25  1  0
 14 15  2  0
 14 19  1  0
 15 16  1  0
 15 26  1  0
 16 17  2  0
 16 27  1  0
 17 18  1  0
 17 28  1  0
 18 19  2  0
 18 29  1  0
 19 30  1  0
M  RAD  1  12   2
M  END
>  <reaction>  (4) 
rxn_2012

>  <mol_properties>  (4) 
{"1": {"label": "*1", "atom_type": "Cs"}, "2": {"label": "*0", "atom_type": "CS"}, "7": {"label": "*2", "atom_type": "H0"}, "11": {"label": "*3", "atom_type": "Cs"}, "13": {"label": "*4", "atom_type": "Cd"}}

>  <type>  (4) 
ts

$$$$
