
     RDKit          3D

  7  6  0  0  0  0  0  0  0  0999 V2000
    1.2985   -0.0065   -0.2721 C   0  0  0  0  0  0  0  0  0  0  0  0
    0.0000    0.0000   -0.2926 C   0  0  0  0  0  0  0  0  0  0  0  0
   -1.2985    0.0065   -0.3130 C   0  0  0  0  0  0  0  0  0  0  0  0
    1.8444   -0.7551    0.2895 H   0  0  0  0  0  0  0  0  0  0  0  0
    1.8693    0.7364   -0.8162 H   0  0  0  0  0  0  0  0  0  0  0  0
   -1.8658    0.5623    0.4239 H   0  0  0  0  0  0  0  0  0  0  0  0
   -1.8479   -0.5437   -1.0675 H   0  0  0  0  0  0  0  0  0  0  0  0
  1  2  2  0
  1  4  1  0
  1  5  1  0
  2  3  2  0
  3  6  1  0
  3  7  1  0
M  END
>  <reaction>  (1) 
rxn_151

>  <mol_properties>  (1) 
{"0": {"label": "donator", "atom_type": "Cd"}, "3": {"label": "d_hydrogen", "atom_type": "H0"}}

>  <type>  (1) 
r1h

$$$$

     RDKit          3D

  1  0  0  0  0  0  0  0  0  0999 V2000
    0.0000    0.0000    0.0000 Cl  0  0  0  0  0 15  0  0  0  0  0  0
M  END
>  <reaction>  (2) 
rxn_151

>  <mol_properties>  (2) 
{"0": {"label": "acceptor", "atom_type": "Cl1s"}}

>  <type>  (2) 
r2

$$$$

     RDKit          3D

  2  1  0  0  0  0  0  0  0  0999 V2000
    0.0000    0.0000    0.6391 Cl  0  0  0  0  0  0  0  0  0  0  0  0
    0.0000    0.0000   -0.6391 H   0  0  0  0  0  0  0  0  0  0  0  0
  1  2  1  0
M  END
>  <reaction>  (3) 
rxn_151

>  <mol_properties>  (3) 
{"0": {"label": "acceptor", "atom_type": "Cl1s"}, "1": {"label": "a_hydrogen", "atom_type": "H0"}}

>  <type>  (3) 
r2h

$$$$

     RDKit          3D

  8  6  0  0  0  0  0  0  0  0999 V2000
   -0.7623   -1.0280    1.3809 Cl  0  0  0  0  0 15  0  0  0  0  0  0
    0.7183    0.9687    0.0060 C   0  0  0  0  0  0  0  0  0  0  0  0
    0.7091    0.9562   -1.2659 C   0  0  0  0  0  0  0  0  0  0  0  0
    0.6537    0.8815   -2.5762 C   0  0  0  0  0  0  0  0  0  0  0  0
    0.0678    0.0914    0.5525 H   0  0  0  0  0  0  0  0  0  0  0  0
    1.1952    1.6118    0.7298 H   0  0  0  0  0  0  0  0  0  0  0  0
   -0.1123    1.4099   -3.1305 H   0  0  0  0  0  0  0  0  0  0  0  0
    1.3817    0.3020   -3.1305 H   0  0  0  0  0  0  0  0  0  0  0  0
  2  3  2  0
  2  5  1  0
  2  6  1  0
  3  4  2  0
  4  7  1  0
  4  8  1  0
M  END
>  <reaction>  (4) 
rxn_151

>  <mol_properties>  (4) 
{"0": {"label": "*3", "atom_type": "Cl1s"}, "1": {"label": "*1", "atom_type": "Cd"}, "2": {"label": "*0", "atom_type": "Cdd"}, "4": {"label": "*2", "atom_type": "H0"}}

>  <type>  (4) 
ts

$$$$
