
     RDKit          3D

 15 14  0  0  0  0  0  0  0  0999 V2000
    2.1256    0.4849   -0.6284 C   0  0  0  0  0  0  0  0  0  0  0  0
    1.1128    0.2141    0.1794 C   0  0  0  0  0  0  0  0  0  0  0  0
   -0.3017   -0.0425   -0.2513 C   0  0  0  0  0  0  0  0  0  0  0  0
   -1.2427    1.0075    0.3423 C   0  0  0  0  0  0  0  0  0  0  0  0
   -0.7381   -1.4526    0.1504 C   0  0  0  0  0  0  0  0  0  0  0  0
    3.1243    0.6602   -0.2486 H   0  0  0  0  0  0  0  0  0  0  0  0
    1.9908    0.5411   -1.7036 H   0  0  0  0  0  0  0  0  0  0  0  0
    1.2888    0.1665    1.2533 H   0  0  0  0  0  0  0  0  0  0  0  0
   -0.3426    0.0343   -1.3424 H   0  0  0  0  0  0  0  0  0  0  0  0
   -0.9570    2.0133    0.0315 H   0  0  0  0  0  0  0  0  0  0  0  0
   -1.2189    0.9728    1.4350 H   0  0  0  0  0  0  0  0  0  0  0  0
   -2.2723    0.8287    0.0254 H   0  0  0  0  0  0  0  0  0  0  0  0
   -0.6964   -1.5744    1.2363 H   0  0  0  0  0  0  0  0  0  0  0  0
   -0.0911   -2.2079   -0.2978 H   0  0  0  0  0  0  0  0  0  0  0  0
   -1.7646   -1.6461   -0.1677 H   0  0  0  0  0  0  0  0  0  0  0  0
  1  2  2  3
  1  6  1  0
  1  7  1  0
  2  3  1  0
  2  8  1  0
  3  4  1  0
  3  5  1  0
  3  9  1  0
  4 10  1  0
  4 11  1  0
  4 12  1  0
  5 13  1  0
  5 14  1  0
  5 15  1  0
M  END
>  <reaction>  (1) 
rxn_1122

>  <mol_properties>  (1) 
{"2": {"label": "donator", "atom_type": "Cs"}, "8": {"label": "d_hydrogen", "atom_type": "H0"}}

>  <type>  (1) 
r1h

$$$$

     RDKit          3D

  4  3  0  0  0  0  0  0  0  0999 V2000
   -0.7528   -0.8706   -0.3839 S   0  0  0  0  0  0  0  0  0  0  0  0
    0.7502   -0.2564   -0.0649 C   0  0  0  0  0  3  0  0  0  0  0  0
    1.5655    0.9691    0.4633 S   0  0  0  0  0  0  0  0  0  0  0  0
   -1.5629    0.1579   -0.0146 H   0  0  0  0  0  0  0  0  0  0  0  0
  1  2  1  0
  1  4  1  0
  2  3  2  0
M  RAD  1   2   2
M  END
>  <reaction>  (2) 
rxn_1122

>  <mol_properties>  (2) 
{"1": {"label": "acceptor", "atom_type": "CS"}}

>  <type>  (2) 
r2

$$$$

     RDKit          3D

  5  4  0  0  0  0  0  0  0  0999 V2000
    1.2280   -0.4626    0.1225 S   0  0  0  0  0  0  0  0  0  0  0  0
   -0.4732   -0.2566   -0.0746 C   0  0  0  0  0  0  0  0  0  0  0  0
   -1.3314    1.1074   -0.0947 S   0  0  0  0  0  0  0  0  0  0  0  0
    1.5289    0.8405    0.2416 H   0  0  0  0  0  0  0  0  0  0  0  0
   -0.9523   -1.2286   -0.1949 H   0  0  0  0  0  0  0  0  0  0  0  0
  1  2  1  0
  1  4  1  0
  2  3  2  0
  2  5  1  0
M  END
>  <reaction>  (3) 
rxn_1122

>  <mol_properties>  (3) 
{"1": {"label": "acceptor", "atom_type": "CS"}, "4": {"label": "a_hydrogen", "atom_type": "H0"}}

>  <type>  (3) 
r2h

$$$$

     RDKit          3D

 19 17  0  0  0  0  0  0  0  0999 V2000
   -0.5058    0.9773   -1.8606 S   0  0  0  0  0  0  0  0  0  0  0  0
   -0.4379    1.1991   -0.1769 C   0  0  0  0  0  3  0  0  0  0  0  0
   -0.4955    2.4742    0.7755 S   0  0  0  0  0  0  0  0  0  0  0  0
   -0.6397    2.2648   -2.2410 H   0  0  0  0  0  0  0  0  0  0  0  0
    0.6092   -2.9345   -0.6610 C   0  0  0  0  0  0  0  0  0  0  0  0
   -0.2904   -2.2448    0.0401 C   0  0  0  0  0  0  0  0  0  0  0  0
   -0.0159   -1.1928    1.0287 C   0  0  0  0  0  0  0  0  0  0  0  0
    1.4212   -0.9929    1.4483 C   0  0  0  0  0  0  0  0  0  0  0  0
   -1.0102   -1.1101    2.1667 C   0  0  0  0  0  0  0  0  0  0  0  0
    0.2992   -3.6725   -1.3893 H   0  0  0  0  0  0  0  0  0  0  0  0
    1.6752   -2.7971   -0.5278 H   0  0  0  0  0  0  0  0  0  0  0  0
   -1.3443   -2.4441   -0.1406 H   0  0  0  0  0  0  0  0  0  0  0  0
   -0.2672   -0.0902    0.3856 H   0  0  0  0  0  0  0  0  0  0  0  0
    2.0798   -0.8556    0.5892 H   0  0  0  0  0  0  0  0  0  0  0  0
    1.7839   -1.8550    2.0168 H   0  0  0  0  0  0  0  0  0  0  0  0
    1.5097   -0.1089    2.0818 H   0  0  0  0  0  0  0  0  0  0  0  0
   -0.8292   -1.9064    2.8960 H   0  0  0  0  0  0  0  0  0  0  0  0
   -2.0361   -1.2110    1.8080 H   0  0  0  0  0  0  0  0  0  0  0  0
   -0.9236   -0.1537    2.6865 H   0  0  0  0  0  0  0  0  0  0  0  0
  1  2  1  0
  1  4  1  0
  2  3  2  0
  5  6  2  3
  5 10  1  0
  5 11  1  0
  6  7  1  0
  6 12  1  0
  7  8  1  0
  7  9  1  0
  7 13  1  0
  8 14  1  0
  8 15  1  0
  8 16  1  0
  9 17  1  0
  9 18  1  0
  9 19  1  0
M  RAD  1   2   2
M  END
>  <reaction>  (4) 
rxn_1122

>  <mol_properties>  (4) 
{"0": {"label": "*4", "atom_type": "S2s"}, "1": {"label": "*3", "atom_type": "CS"}, "5": {"label": "*0", "atom_type": "Cd"}, "6": {"label": "*1", "atom_type": "Cs"}, "12": {"label": "*2", "atom_type": "H0"}}

>  <type>  (4) 
ts

$$$$
