
     RDKit          3D

 15 14  0  0  0  0  0  0  0  0999 V2000
    2.1256    0.4849   -0.6284 C   0  0  0  0  0  0  0  0  0  0  0  0
    1.1128    0.2141    0.1794 C   0  0  0  0  0  0  0  0  0  0  0  0
   -0.3017   -0.0425   -0.2513 C   0  0  0  0  0  0  0  0  0  0  0  0
   -1.2427    1.0075    0.3423 C   0  0  0  0  0  0  0  0  0  0  0  0
   -0.7381   -1.4526    0.1504 C   0  0  0  0  0  0  0  0  0  0  0  0
    3.1243    0.6602   -0.2486 H   0  0  0  0  0  0  0  0  0  0  0  0
    1.9908    0.5411   -1.7036 H   0  0  0  0  0  0  0  0  0  0  0  0
    1.2888    0.1665    1.2533 H   0  0  0  0  0  0  0  0  0  0  0  0
   -0.3426    0.0343   -1.3424 H   0  0  0  0  0  0  0  0  0  0  0  0
   -0.9570    2.0133    0.0315 H   0  0  0  0  0  0  0  0  0  0  0  0
   -1.2189    0.9728    1.4350 H   0  0  0  0  0  0  0  0  0  0  0  0
   -2.2723    0.8287    0.0254 H   0  0  0  0  0  0  0  0  0  0  0  0
   -0.6964   -1.5744    1.2363 H   0  0  0  0  0  0  0  0  0  0  0  0
   -0.0911   -2.2079   -0.2978 H   0  0  0  0  0  0  0  0  0  0  0  0
   -1.7646   -1.6461   -0.1677 H   0  0  0  0  0  0  0  0  0  0  0  0
  1  2  2  3
  1  6  1  0
  1  7  1  0
  2  3  1  0
  2  8  1  0
  3  4  1  0
  3  5  1  0
  3  9  1  0
  4 10  1  0
  4 11  1  0
  4 12  1  0
  5 13  1  0
  5 14  1  0
  5 15  1  0
M  END
>  <reaction>  (1) 
rxn_1095

>  <mol_properties>  (1) 
{"2": {"label": "donator", "atom_type": "Cs"}, "8": {"label": "d_hydrogen", "atom_type": "H0"}}

>  <type>  (1) 
r1h

$$$$

     RDKit          3D

 14 14  0  0  0  0  0  0  0  0999 V2000
    2.3111    0.1295    0.0255 C   0  0  0  0  0  0  0  0  0  0  0  0
    0.9132    0.0511    0.0101 C   0  0  0  0  0  0  0  0  0  0  0  0
    0.2446   -1.1981    0.0389 C   0  0  0  0  0  3  0  0  0  0  0  0
   -1.1306   -1.2689    0.0235 C   0  0  0  0  0  0  0  0  0  0  0  0
   -1.8967   -0.1062   -0.0209 C   0  0  0  0  0  0  0  0  0  0  0  0
   -1.2644    1.1347   -0.0499 C   0  0  0  0  0  0  0  0  0  0  0  0
    0.1101    1.2180   -0.0350 C   0  0  0  0  0  0  0  0  0  0  0  0
    2.9188   -0.7647    0.0599 H   0  0  0  0  0  0  0  0  0  0  0  0
    2.8158    1.0859    0.0034 H   0  0  0  0  0  0  0  0  0  0  0  0
    0.8353   -2.1058    0.0735 H   0  0  0  0  0  0  0  0  0  0  0  0
   -1.6191   -2.2351    0.0461 H   0  0  0  0  0  0  0  0  0  0  0  0
   -2.9772   -0.1668   -0.0328 H   0  0  0  0  0  0  0  0  0  0  0  0
   -1.8572    2.0404   -0.0845 H   0  0  0  0  0  0  0  0  0  0  0  0
    0.5964    2.1860   -0.0577 H   0  0  0  0  0  0  0  0  0  0  0  0
  1  2  2  3
  1  8  1  0
  1  9  1  0
  2  3  1  0
  2  7  1  0
  3  4  1  0
  3 10  1  0
  4  5  2  0
  4 11  1  0
  5  6  1  0
  5 12  1  0
  6  7  2  0
  6 13  1  0
  7 14  1  0
M  RAD  1   3   2
M  END
>  <reaction>  (2) 
rxn_1095

>  <mol_properties>  (2) 
{"0": {"label": "acceptor", "atom_type": "Cs"}}

>  <type>  (2) 
r2

$$$$

     RDKit          3D

 15 15  0  0  0  0  0  0  0  0999 V2000
    2.2031   -0.2111   -0.1693 C   0  0  0  0  0  0  0  0  0  0  0  0
    0.7140   -0.0314   -0.0623 C   0  0  0  0  0  0  0  0  0  0  0  0
   -0.0114    0.5491   -1.0982 C   0  0  0  0  0  0  0  0  0  0  0  0
   -1.3882    0.6886   -1.0150 C   0  0  0  0  0  0  0  0  0  0  0  0
   -2.0661    0.2493    0.1118 C   0  0  0  0  0  0  0  0  0  0  0  0
   -1.3551   -0.3278    1.1528 C   0  0  0  0  0  0  0  0  0  0  0  0
    0.0216   -0.4648    1.0642 C   0  0  0  0  0  0  0  0  0  0  0  0
    2.6776   -0.1836    0.8122 H   0  0  0  0  0  0  0  0  0  0  0  0
    2.4446   -1.1749   -0.6249 H   0  0  0  0  0  0  0  0  0  0  0  0
    2.6532    0.5664   -0.7875 H   0  0  0  0  0  0  0  0  0  0  0  0
    0.5104    0.8989   -1.9819 H   0  0  0  0  0  0  0  0  0  0  0  0
   -1.9328    1.1452   -1.8322 H   0  0  0  0  0  0  0  0  0  0  0  0
   -3.1409    0.3597    0.1800 H   0  0  0  0  0  0  0  0  0  0  0  0
   -1.8736   -0.6702    2.0398 H   0  0  0  0  0  0  0  0  0  0  0  0
    0.5695   -0.9141    1.8849 H   0  0  0  0  0  0  0  0  0  0  0  0
  1  2  1  0
  1  8  1  0
  1  9  1  0
  1 10  1  0
  2  3  2  0
  2  7  1  0
  3  4  1  0
  3 11  1  0
  4  5  2  0
  4 12  1  0
  5  6  1  0
  5 13  1  0
  6  7  2  0
  6 14  1  0
  7 15  1  0
M  END
>  <reaction>  (3) 
rxn_1095

>  <mol_properties>  (3) 
{"0": {"label": "a_hydrogen", "atom_type": "H0"}, "1": {"label": "acceptor", "atom_type": "Cs"}}

>  <type>  (3) 
r2h

$$$$

     RDKit          3D

 29 28  0  0  0  0  0  0  0  0999 V2000
    0.0541   -2.9661    0.3854 C   0  0  0  0  0  0  0  0  0  0  0  0
   -0.1633   -2.2890    1.5133 C   0  0  0  0  0  0  0  0  0  0  0  0
   -1.0090   -1.1002    1.6758 C   0  0  0  0  0  0  0  0  0  0  0  0
   -1.6182   -0.9406    3.0525 C   0  0  0  0  0  0  0  0  0  0  0  0
   -1.9451   -0.7667    0.5389 C   0  0  0  0  0  0  0  0  0  0  0  0
    0.7287   -3.8123    0.3664 H   0  0  0  0  0  0  0  0  0  0  0  0
   -0.4312   -2.7060   -0.5472 H   0  0  0  0  0  0  0  0  0  0  0  0
    0.3617   -2.6090    2.4109 H   0  0  0  0  0  0  0  0  0  0  0  0
   -0.1423   -0.1204    1.6150 H   0  0  0  0  0  0  0  0  0  0  0  0
   -0.8789   -1.1127    3.8374 H   0  0  0  0  0  0  0  0  0  0  0  0
   -2.4362   -1.6526    3.2031 H   0  0  0  0  0  0  0  0  0  0  0  0
   -2.0259    0.0639    3.1841 H   0  0  0  0  0  0  0  0  0  0  0  0
   -2.7102   -1.5414    0.4247 H   0  0  0  0  0  0  0  0  0  0  0  0
   -1.4140   -0.6726   -0.4094 H   0  0  0  0  0  0  0  0  0  0  0  0
   -2.4506    0.1823    0.7261 H   0  0  0  0  0  0  0  0  0  0  0  0
    0.7533    0.9310    1.4244 C   0  0  0  0  0  0  0  0  0  0  0  0
    0.7646    1.1539   -0.0121 C   0  0  0  0  0  0  0  0  0  0  0  0
   -0.0509    2.1278   -0.6016 C   0  0  0  0  0  3  0  0  0  0  0  0
   -0.1015    2.2791   -1.9753 C   0  0  0  0  0  0  0  0  0  0  0  0
    0.6582    1.4586   -2.7989 C   0  0  0  0  0  0  0  0  0  0  0  0
    1.4738    0.4886   -2.2312 C   0  0  0  0  0  0  0  0  0  0  0  0
    1.5272    0.3375   -0.8574 C   0  0  0  0  0  0  0  0  0  0  0  0
    0.3334    1.7242    2.0367 H   0  0  0  0  0  0  0  0  0  0  0  0
    1.6419    0.4732    1.8505 H   0  0  0  0  0  0  0  0  0  0  0  0
   -0.6515    2.7685    0.0340 H   0  0  0  0  0  0  0  0  0  0  0  0
   -0.7373    3.0412   -2.4087 H   0  0  0  0  0  0  0  0  0  0  0  0
    0.6174    1.5767   -3.8741 H   0  0  0  0  0  0  0  0  0  0  0  0
    2.0715   -0.1544   -2.8653 H   0  0  0  0  0  0  0  0  0  0  0  0
    2.1558   -0.4298   -0.4213 H   0  0  0  0  0  0  0  0  0  0  0  0
  1  2  2  3
  1  6  1  0
  1  7  1  0
  2  3  1  0
  2  8  1  0
  3  4  1  0
  3  5  1  0
  3  9  1  0
  4 10  1  0
  4 11  1  0
  4 12  1  0
  5 13  1  0
  5 14  1  0
  5 15  1  0
 16 17  2  3
 16 23  1  0
 16 24  1  0
 17 18  1  0
 17 22  1  0
 18 19  1  0
 18 25  1  0
 19 20  2  0
 19 26  1  0
 20 21  1  0
 20 27  1  0
 21 22  2  0
 21 28  1  0
 22 29  1  0
M  RAD  1  18   2
M  END
>  <reaction>  (4) 
rxn_1095

>  <mol_properties>  (4) 
{"1": {"label": "*0", "atom_type": "Cd"}, "2": {"label": "*1", "atom_type": "Cs"}, "8": {"label": "*2", "atom_type": "H0"}, "15": {"label": "*3", "atom_type": "Cd"}, "16": {"label": "*4", "atom_type": "Cd"}}

>  <type>  (4) 
ts

$$$$
