
     RDKit          3D

 10  9  0  0  0  0  0  0  0  0999 V2000
    2.0861   -0.0291   -0.2114 C   0  0  0  0  0  0  0  0  0  0  0  0
    0.8590   -0.0801    0.2151 C   0  0  0  0  0  0  0  0  0  0  0  0
   -0.3701   -0.1299    0.6360 C   0  0  0  0  0  0  0  0  0  0  0  0
   -1.5792    0.1084   -0.2228 C   0  0  0  0  0  0  0  0  0  0  0  0
    2.6495    0.8968   -0.1902 H   0  0  0  0  0  0  0  0  0  0  0  0
    2.5830   -0.9114   -0.5982 H   0  0  0  0  0  0  0  0  0  0  0  0
   -0.5397   -0.3602    1.6844 H   0  0  0  0  0  0  0  0  0  0  0  0
   -2.2286   -0.7700   -0.2248 H   0  0  0  0  0  0  0  0  0  0  0  0
   -1.2946    0.3298   -1.2505 H   0  0  0  0  0  0  0  0  0  0  0  0
   -2.1655    0.9457    0.1623 H   0  0  0  0  0  0  0  0  0  0  0  0
  1  2  2  0
  1  5  1  0
  1  6  1  0
  2  3  2  0
  3  4  1  0
  3  7  1  0
  4  8  1  0
  4  9  1  0
  4 10  1  0
M  END
>  <reaction>  (1) 
rxn_252

>  <mol_properties>  (1) 
{"0": {"label": "donator", "atom_type": "Cd"}, "4": {"label": "d_hydrogen", "atom_type": "H0"}}

>  <type>  (1) 
r1h

$$$$

     RDKit          3D

  1  0  0  0  0  0  0  0  0  0999 V2000
    0.0000    0.0000    0.0000 H   0  0  0  0  0 15  0  0  0  0  0  0
M  END
>  <reaction>  (2) 
rxn_252

>  <mol_properties>  (2) 
{"0": {"label": "acceptor", "atom_type": "H0"}}

>  <type>  (2) 
r2

$$$$

     RDKit          3D

  2  1  0  0  0  0  0  0  0  0999 V2000
    0.0000    0.0000    0.3721 H   0  0  0  0  0  0  0  0  0  0  0  0
    0.0000    0.0000   -0.3721 H   0  0  0  0  0  0  0  0  0  0  0  0
  1  2  1  0
M  END
>  <reaction>  (3) 
rxn_252

>  <mol_properties>  (3) 
{"0": {"label": "a_hydrogen", "atom_type": "H0"}, "1": {"label": "acceptor", "atom_type": "H0"}}

>  <type>  (3) 
r2h

$$$$

     RDKit          3D

 11  9  0  0  0  0  0  0  0  0999 V2000
    0.1048    1.2944    1.3097 C   0  0  0  0  0  0  0  0  0  0  0  0
    0.1169    0.2401    0.5839 C   0  0  0  0  0  0  0  0  0  0  0  0
    0.0458   -0.8337   -0.1645 C   0  0  0  0  0  0  0  0  0  0  0  0
    0.0207   -0.8252   -1.6630 C   0  0  0  0  0  0  0  0  0  0  0  0
   -1.0170    1.7750    1.6288 H   0  0  0  0  0  0  0  0  0  0  0  0
    0.9254    1.8667    1.7166 H   0  0  0  0  0  0  0  0  0  0  0  0
    0.0164   -1.7987    0.3334 H   0  0  0  0  0  0  0  0  0  0  0  0
    0.8709   -1.3814   -2.0652 H   0  0  0  0  0  0  0  0  0  0  0  0
    0.0540    0.1906   -2.0536 H   0  0  0  0  0  0  0  0  0  0  0  0
   -0.8862   -1.3105   -2.0319 H   0  0  0  0  0  0  0  0  0  0  0  0
   -1.8920    2.1844    1.9026 H   0  0  0  0  0 15  0  0  0  0  0  0
  1  2  2  0
  1  5  1  0
  1  6  1  0
  2  3  2  0
  3  4  1  0
  3  7  1  0
  4  8  1  0
  4  9  1  0
  4 10  1  0
M  END
>  <reaction>  (4) 
rxn_252

>  <mol_properties>  (4) 
{"0": {"label": "*3", "atom_type": "Cd"}, "1": {"label": "*4", "atom_type": "Cdd"}, "4": {"label": "*2", "atom_type": "H0"}, "10": {"label": "*1", "atom_type": "H0"}}

>  <type>  (4) 
ts

$$$$
