
     RDKit          3D

 12 11  0  0  0  0  0  0  0  0999 V2000
    2.1696    0.6854    1.1310 C   0  0  0  0  0  0  0  0  0  0  0  0
    1.2518    0.4145    0.4134 C   0  0  0  0  0  0  0  0  0  0  0  0
    0.1391    0.0443   -0.4683 C   0  0  0  0  0  0  0  0  0  0  0  0
   -0.2054   -1.4492   -0.3339 C   0  0  0  0  0  0  0  0  0  0  0  0
   -1.0375    0.8853   -0.2222 C   0  0  0  0  0  0  0  0  0  0  0  0
   -2.0160    1.5463   -0.0311 C   0  0  0  0  0  0  0  0  0  0  0  0
    2.9819    0.9356    1.7702 H   0  0  0  0  0  0  0  0  0  0  0  0
    0.4629    0.2285   -1.4981 H   0  0  0  0  0  0  0  0  0  0  0  0
   -0.5327   -1.6703    0.6812 H   0  0  0  0  0  0  0  0  0  0  0  0
    0.6727   -2.0535   -0.5593 H   0  0  0  0  0  0  0  0  0  0  0  0
   -1.0064   -1.7081   -1.0256 H   0  0  0  0  0  0  0  0  0  0  0  0
   -2.8802    2.1413    0.1426 H   0  0  0  0  0  0  0  0  0  0  0  0
  1  2  3  0
  1  7  1  0
  2  3  1  0
  3  4  1  0
  3  5  1  0
  3  8  1  0
  4  9  1  0
  4 10  1  0
  4 11  1  0
  5  6  3  0
  6 12  1  0
M  END
>  <reaction>  (1) 
rxn_1398

>  <mol_properties>  (1) 
{"2": {"label": "donator", "atom_type": "Cs"}, "7": {"label": "d_hydrogen", "atom_type": "H0"}}

>  <type>  (1) 
r1h

$$$$

     RDKit          3D

 15 14  0  0  0  0  0  0  0  0999 V2000
    2.4381    0.5770   -0.2356 C   0  0  0  0  0  0  0  0  0  0  0  0
    1.4430   -0.3367   -0.1409 C   0  0  0  0  0  0  0  0  0  0  0  0
    0.0521   -0.0957   -0.0045 C   0  0  0  0  0  3  0  0  0  0  0  0
   -0.5167    1.2867    0.0548 C   0  0  0  0  0  0  0  0  0  0  0  0
   -0.8226   -1.2147    0.0778 C   0  0  0  0  0  0  0  0  0  0  0  0
   -2.1666   -1.1669    0.2092 C   0  0  0  0  0  0  0  0  0  0  0  0
    3.4666    0.2585   -0.3369 H   0  0  0  0  0  0  0  0  0  0  0  0
    2.2594    1.6438   -0.2152 H   0  0  0  0  0  0  0  0  0  0  0  0
    1.7306   -1.3845   -0.1719 H   0  0  0  0  0  0  0  0  0  0  0  0
   -1.2300    1.4469   -0.7583 H   0  0  0  0  0  0  0  0  0  0  0  0
    0.2481    2.0557   -0.0178 H   0  0  0  0  0  0  0  0  0  0  0  0
   -1.0592    1.4421    0.9914 H   0  0  0  0  0  0  0  0  0  0  0  0
   -0.3519   -2.1929    0.0292 H   0  0  0  0  0  0  0  0  0  0  0  0
   -2.7080   -0.2310    0.2646 H   0  0  0  0  0  0  0  0  0  0  0  0
   -2.7513   -2.0751    0.2638 H   0  0  0  0  0  0  0  0  0  0  0  0
  1  2  2  3
  1  7  1  0
  1  8  1  0
  2  3  1  0
  2  9  1  0
  3  4  1  0
  3  5  1  0
  4 10  1  0
  4 11  1  0
  4 12  1  0
  5  6  2  3
  5 13  1  0
  6 14  1  0
  6 15  1  0
M  RAD  1   3   2
M  END
>  <reaction>  (2) 
rxn_1398

>  <mol_properties>  (2) 
{"2": {"label": "acceptor", "atom_type": "Cs"}}

>  <type>  (2) 
r2

$$$$

     RDKit          3D

 16 15  0  0  0  0  0  0  0  0999 V2000
    1.7961   -0.3807    1.6176 C   0  0  0  0  0  0  0  0  0  0  0  0
    0.8562   -0.8708    0.8256 C   0  0  0  0  0  0  0  0  0  0  0  0
    0.0895   -0.0826   -0.2048 C   0  0  0  0  0  0  0  0  0  0  0  0
   -1.4061   -0.1111    0.0982 C   0  0  0  0  0  0  0  0  0  0  0  0
    0.4476   -0.5902   -1.5797 C   0  0  0  0  0  0  0  0  0  0  0  0
   -0.3793   -1.1113   -2.4728 C   0  0  0  0  0  0  0  0  0  0  0  0
    2.3110   -1.0032    2.3386 H   0  0  0  0  0  0  0  0  0  0  0  0
    2.0846    0.6643    1.5737 H   0  0  0  0  0  0  0  0  0  0  0  0
    0.5921   -1.9241    0.8925 H   0  0  0  0  0  0  0  0  0  0  0  0
    0.4358    0.9557   -0.1462 H   0  0  0  0  0  0  0  0  0  0  0  0
   -1.5968    0.3080    1.0865 H   0  0  0  0  0  0  0  0  0  0  0  0
   -1.9674    0.4693   -0.6359 H   0  0  0  0  0  0  0  0  0  0  0  0
   -1.7902   -1.1338    0.0883 H   0  0  0  0  0  0  0  0  0  0  0  0
    1.5049   -0.5197   -1.8214 H   0  0  0  0  0  0  0  0  0  0  0  0
   -1.4421   -1.2131   -2.2889 H   0  0  0  0  0  0  0  0  0  0  0  0
   -0.0162   -1.4558   -3.4328 H   0  0  0  0  0  0  0  0  0  0  0  0
  1  2  2  3
  1  7  1  0
  1  8  1  0
  2  3  1  0
  2  9  1  0
  3  4  1  0
  3  5  1  0
  3 10  1  0
  4 11  1  0
  4 12  1  0
  4 13  1  0
  5  6  2  3
  5 14  1  0
  6 15  1  0
  6 16  1  0
M  END
>  <reaction>  (3) 
rxn_1398

>  <mol_properties>  (3) 
{"0": {"label": "a_hydrogen", "atom_type": "H0"}, "3": {"label": "acceptor", "atom_type": "Cs"}}

>  <type>  (3) 
r2h

$$$$

     RDKit          3D

 27 25  0  0  0  0  0  0  0  0999 V2000
   -2.5378    2.0650    0.3132 C   0  0  0  0  0  0  0  0  0  0  0  0
   -2.0157    1.0204    0.0299 C   0  0  0  0  0  0  0  0  0  0  0  0
   -1.3502   -0.2118   -0.2534 C   0  0  0  0  0  3  0  0  0  0  0  0
   -1.6847   -1.3837    0.6521 C   0  0  0  0  0  0  0  0  0  0  0  0
   -1.1463   -0.5140   -1.6349 C   0  0  0  0  0  0  0  0  0  0  0  0
   -0.9211   -0.7887   -2.7828 C   0  0  0  0  0  0  0  0  0  0  0  0
   -3.0126    2.9853    0.5537 H   0  0  0  0  0  0  0  0  0  0  0  0
   -0.0463    0.0461    0.1898 H   0  0  0  0  0  0  0  0  0  0  0  0
   -2.6957   -1.7483    0.4603 H   0  0  0  0  0  0  0  0  0  0  0  0
   -1.6204   -1.0743    1.6957 H   0  0  0  0  0  0  0  0  0  0  0  0
   -0.9831   -2.1993    0.4752 H   0  0  0  0  0  0  0  0  0  0  0  0
   -0.7381   -1.0295   -3.8021 H   0  0  0  0  0  0  0  0  0  0  0  0
    2.5437   -1.2381   -0.8295 C   0  0  0  0  0  0  0  0  0  0  0  0
    1.8850   -0.9140    0.2821 C   0  0  0  0  0  0  0  0  0  0  0  0
    1.1791    0.3485    0.5509 C   0  0  0  0  0  0  0  0  0  0  0  0
    1.4331    1.5068   -0.3840 C   0  0  0  0  0  0  0  0  0  0  0  0
    0.9986    0.6505    1.9795 C   0  0  0  0  0  0  0  0  0  0  0  0
    0.7941    1.8502    2.5211 C   0  0  0  0  0  0  0  0  0  0  0  0
    3.0048   -2.2113   -0.9344 H   0  0  0  0  0  0  0  0  0  0  0  0
    2.6507   -0.5539   -1.6612 H   0  0  0  0  0  0  0  0  0  0  0  0
    1.8216   -1.6557    1.0746 H   0  0  0  0  0  0  0  0  0  0  0  0
    0.7073    2.3030   -0.2199 H   0  0  0  0  0  0  0  0  0  0  0  0
    1.3357    1.1937   -1.4234 H   0  0  0  0  0  0  0  0  0  0  0  0
    2.4364    1.9137   -0.2352 H   0  0  0  0  0  0  0  0  0  0  0  0
    1.0051   -0.2145    2.6382 H   0  0  0  0  0  0  0  0  0  0  0  0
    0.7747    2.7577    1.9315 H   0  0  0  0  0  0  0  0  0  0  0  0
    0.6435    1.9565    3.5873 H   0  0  0  0  0  0  0  0  0  0  0  0
  1  2  3  0
  1  7  1  0
  2  3  1  0
  3  4  1  0
  3  5  1  0
  4  9  1  0
  4 10  1  0
  4 11  1  0
  5  6  3  0
  6 12  1  0
  8 15  1  0
 13 14  2  3
 13 19  1  0
 13 20  1  0
 14 15  1  0
 14 21  1  0
 15 16  1  0
 15 17  1  0
 16 22  1  0
 16 23  1  0
 16 24  1  0
 17 18  2  3
 17 25  1  0
 18 26  1  0
 18 27  1  0
M  RAD  1   3   2
M  END
>  <reaction>  (4) 
rxn_1398

>  <mol_properties>  (4) 
{"1": {"label": "*4", "atom_type": "Ct"}, "2": {"label": "*3", "atom_type": "Cs"}, "7": {"label": "*2", "atom_type": "H0"}, "13": {"label": "*0", "atom_type": "Cd"}, "14": {"label": "*1", "atom_type": "Cs"}}

>  <type>  (4) 
ts

$$$$
