
     RDKit          3D

 18 18  0  0  0  0  0  0  0  0999 V2000
   -2.4852    0.3210   -0.3966 C   0  0  0  0  0  0  0  0  0  0  0  0
   -1.5917   -0.2708    0.6941 C   0  0  0  0  0  0  0  0  0  0  0  0
   -0.1292   -0.1692    0.3493 C   0  0  0  0  0  0  0  0  0  0  0  0
    0.6099    0.9558    0.7015 C   0  0  0  0  0  0  0  0  0  0  0  0
    1.9447    1.0728    0.3458 C   0  0  0  0  0  0  0  0  0  0  0  0
    2.5646    0.0613   -0.3720 C   0  0  0  0  0  0  0  0  0  0  0  0
    1.8399   -1.0657   -0.7287 C   0  0  0  0  0  0  0  0  0  0  0  0
    0.5055   -1.1769   -0.3700 C   0  0  0  0  0  0  0  0  0  0  0  0
   -2.3325   -0.1971   -1.3452 H   0  0  0  0  0  0  0  0  0  0  0  0
   -2.2554    1.3763   -0.5546 H   0  0  0  0  0  0  0  0  0  0  0  0
   -3.5397    0.2376   -0.1280 H   0  0  0  0  0  0  0  0  0  0  0  0
   -1.7801    0.2462    1.6380 H   0  0  0  0  0  0  0  0  0  0  0  0
   -1.8568   -1.3190    0.8516 H   0  0  0  0  0  0  0  0  0  0  0  0
    0.1327    1.7497    1.2656 H   0  0  0  0  0  0  0  0  0  0  0  0
    2.5033    1.9550    0.6330 H   0  0  0  0  0  0  0  0  0  0  0  0
    3.6077    0.1491   -0.6484 H   0  0  0  0  0  0  0  0  0  0  0  0
    2.3163   -1.8632   -1.2854 H   0  0  0  0  0  0  0  0  0  0  0  0
   -0.0540   -2.0629   -0.6500 H   0  0  0  0  0  0  0  0  0  0  0  0
  1  2  1  0
  1  9  1  0
  1 10  1  0
  1 11  1  0
  2  3  1  0
  2 12  1  0
  2 13  1  0
  3  4  2  0
  3  8  1  0
  4  5  1  0
  4 14  1  0
  5  6  2  0
  5 15  1  0
  6  7  1  0
  6 16  1  0
  7  8  2  0
  7 17  1  0
  8 18  1  0
M  END
>  <reaction>  (1) 
rxn_1517

>  <mol_properties>  (1) 
{"1": {"label": "donator", "atom_type": "Cs"}, "11": {"label": "d_hydrogen", "atom_type": "H0"}}

>  <type>  (1) 
r1h

$$$$

     RDKit          3D

  6  5  0  0  0  0  0  0  0  0999 V2000
   -0.5021    0.1249    0.0385 C   0  0  0  0  0  0  0  0  0  0  0  0
    0.9529    0.0892    0.2312 C   0  0  0  0  0  3  0  0  0  0  0  0
    2.1986   -0.6844   -0.2970 S   0  0  0  0  0  0  0  0  0  0  0  0
   -0.8582   -0.6036   -0.6965 H   0  0  0  0  0  0  0  0  0  0  0  0
   -0.7969    1.1299   -0.2736 H   0  0  0  0  0  0  0  0  0  0  0  0
   -0.9943   -0.0559    0.9974 H   0  0  0  0  0  0  0  0  0  0  0  0
  1  2  1  0
  1  4  1  0
  1  5  1  0
  1  6  1  0
  2  3  2  0
M  RAD  1   2   2
M  END
>  <reaction>  (2) 
rxn_1517

>  <mol_properties>  (2) 
{"1": {"label": "acceptor", "atom_type": "CS"}}

>  <type>  (2) 
r2

$$$$

     RDKit          3D

  7  6  0  0  0  0  0  0  0  0999 V2000
   -0.6782    0.0507    0.0301 C   0  0  0  0  0  0  0  0  0  0  0  0
    0.8092    0.0996    0.0213 C   0  0  0  0  0  0  0  0  0  0  0  0
    1.7473    0.7521    1.1507 S   0  0  0  0  0  0  0  0  0  0  0  0
   -1.0667    0.5456   -0.8653 H   0  0  0  0  0  0  0  0  0  0  0  0
   -1.0112   -0.9904   -0.0239 H   0  0  0  0  0  0  0  0  0  0  0  0
   -1.0920    0.5225    0.9188 H   0  0  0  0  0  0  0  0  0  0  0  0
    1.2740   -0.3620   -0.8520 H   0  0  0  0  0  0  0  0  0  0  0  0
  1  2  1  0
  1  4  1  0
  1  5  1  0
  1  6  1  0
  2  3  2  0
  2  7  1  0
M  END
>  <reaction>  (3) 
rxn_1517

>  <mol_properties>  (3) 
{"0": {"label": "a_hydrogen", "atom_type": "H0"}, "2": {"label": "acceptor", "atom_type": "CS"}}

>  <type>  (3) 
r2h

$$$$

     RDKit          3D

 24 23  0  0  0  0  0  0  0  0999 V2000
    0.7175   -0.7962   -2.7629 C   0  0  0  0  0  0  0  0  0  0  0  0
    0.9363   -0.5964   -1.2852 C   0  0  0  0  0  0  0  0  0  0  0  0
    0.7371    0.7325   -0.6871 C   0  0  0  0  0  0  0  0  0  0  0  0
   -0.1187    1.6833   -1.2506 C   0  0  0  0  0  0  0  0  0  0  0  0
   -0.3566    2.8929   -0.6175 C   0  0  0  0  0  0  0  0  0  0  0  0
    0.2526    3.1846    0.5935 C   0  0  0  0  0  0  0  0  0  0  0  0
    1.1103    2.2536    1.1646 C   0  0  0  0  0  0  0  0  0  0  0  0
    1.3472    1.0467    0.5327 C   0  0  0  0  0  0  0  0  0  0  0  0
    1.3862   -0.1641   -3.3550 H   0  0  0  0  0  0  0  0  0  0  0  0
   -0.3079   -0.5630   -3.0571 H   0  0  0  0  0  0  0  0  0  0  0  0
    0.8998   -1.8353   -3.0369 H   0  0  0  0  0  0  0  0  0  0  0  0
   -0.0191   -1.3499   -0.7391 H   0  0  0  0  0  0  0  0  0  0  0  0
    1.8303   -1.0932   -0.9084 H   0  0  0  0  0  0  0  0  0  0  0  0
   -0.6051    1.4767   -2.1954 H   0  0  0  0  0  0  0  0  0  0  0  0
   -1.0228    3.6138   -1.0752 H   0  0  0  0  0  0  0  0  0  0  0  0
    0.0661    4.1304    1.0858 H   0  0  0  0  0  0  0  0  0  0  0  0
    1.5985    2.4725    2.1063 H   0  0  0  0  0  0  0  0  0  0  0  0
    2.0182    0.3255    0.9863 H   0  0  0  0  0  0  0  0  0  0  0  0
   -1.5470   -1.2568    0.9972 C   0  0  0  0  0  0  0  0  0  0  0  0
   -1.1598   -1.9404   -0.2566 C   0  0  0  0  0  3  0  0  0  0  0  0
   -1.8983   -3.0265   -1.1439 S   0  0  0  0  0  0  0  0  0  0  0  0
   -2.5043   -1.6047    1.3867 H   0  0  0  0  0  0  0  0  0  0  0  0
   -1.5875   -0.1788    0.8121 H   0  0  0  0  0  0  0  0  0  0  0  0
   -0.7635   -1.4020    1.7462 H   0  0  0  0  0  0  0  0  0  0  0  0
  1  2  1  0
  1  9  1  0
  1 10  1  0
  1 11  1  0
  2  3  1  0
  2 12  1  0
  2 13  1  0
  3  4  2  0
  3  8  1  0
  4  5  1  0
  4 14  1  0
  5  6  2  0
  5 15  1  0
  6  7  1  0
  6 16  1  0
  7  8  2  0
  7 17  1  0
  8 18  1  0
 19 20  1  0
 19 22  1  0
 19 23  1  0
 19 24  1  0
 20 21  2  0
M  RAD  1  20   2
M  END
>  <reaction>  (4) 
rxn_1517

>  <mol_properties>  (4) 
{"1": {"label": "*1", "atom_type": "Cs"}, "2": {"label": "*0", "atom_type": "Cd"}, "11": {"label": "*2", "atom_type": "H0"}, "19": {"label": "*3", "atom_type": "CS"}, "20": {"label": "*4", "atom_type": "S2d"}}

>  <type>  (4) 
ts

$$$$
