
     RDKit          3D

  6  5  0  0  0  0  0  0  0  0999 V2000
   -0.5072   -0.0291   -0.0097 C   0  0  0  0  0  0  0  0  0  0  0  0
    1.1321   -0.1527   -0.7687 S   0  0  0  0  0  0  0  0  0  0  0  0
   -0.6174   -0.7330    0.8127 H   0  0  0  0  0  0  0  0  0  0  0  0
   -0.5863    0.9827    0.3845 H   0  0  0  0  0  0  0  0  0  0  0  0
   -1.2962   -0.1800   -0.7434 H   0  0  0  0  0  0  0  0  0  0  0  0
    1.0312   -1.4237   -1.1764 H   0  0  0  0  0  0  0  0  0  0  0  0
  1  2  1  0
  1  3  1  0
  1  4  1  0
  1  5  1  0
  2  6  1  0
M  END
>  <reaction>  (1) 
rxn_1815

>  <mol_properties>  (1) 
{"0": {"label": "donator", "atom_type": "Cs"}, "2": {"label": "d_hydrogen", "atom_type": "H0"}}

>  <type>  (1) 
r1h

$$$$

     RDKit          3D

 15 14  0  0  0  0  0  0  0  0999 V2000
    2.4381    0.5770   -0.2356 C   0  0  0  0  0  0  0  0  0  0  0  0
    1.4430   -0.3367   -0.1409 C   0  0  0  0  0  0  0  0  0  0  0  0
    0.0521   -0.0957   -0.0045 C   0  0  0  0  0  3  0  0  0  0  0  0
   -0.5167    1.2867    0.0548 C   0  0  0  0  0  0  0  0  0  0  0  0
   -0.8226   -1.2147    0.0778 C   0  0  0  0  0  0  0  0  0  0  0  0
   -2.1666   -1.1669    0.2092 C   0  0  0  0  0  0  0  0  0  0  0  0
    3.4666    0.2585   -0.3369 H   0  0  0  0  0  0  0  0  0  0  0  0
    2.2594    1.6438   -0.2152 H   0  0  0  0  0  0  0  0  0  0  0  0
    1.7306   -1.3845   -0.1719 H   0  0  0  0  0  0  0  0  0  0  0  0
   -1.2300    1.4469   -0.7583 H   0  0  0  0  0  0  0  0  0  0  0  0
    0.2481    2.0557   -0.0178 H   0  0  0  0  0  0  0  0  0  0  0  0
   -1.0592    1.4421    0.9914 H   0  0  0  0  0  0  0  0  0  0  0  0
   -0.3519   -2.1929    0.0292 H   0  0  0  0  0  0  0  0  0  0  0  0
   -2.7080   -0.2310    0.2646 H   0  0  0  0  0  0  0  0  0  0  0  0
   -2.7513   -2.0751    0.2638 H   0  0  0  0  0  0  0  0  0  0  0  0
  1  2  2  3
  1  7  1  0
  1  8  1  0
  2  3  1  0
  2  9  1  0
  3  4  1  0
  3  5  1  0
  4 10  1  0
  4 11  1  0
  4 12  1  0
  5  6  2  3
  5 13  1  0
  6 14  1  0
  6 15  1  0
M  RAD  1   3   2
M  END
>  <reaction>  (2) 
rxn_1815

>  <mol_properties>  (2) 
{"2": {"label": "acceptor", "atom_type": "Cs"}}

>  <type>  (2) 
r2

$$$$

     RDKit          3D

 16 15  0  0  0  0  0  0  0  0999 V2000
    1.7961   -0.3807    1.6176 C   0  0  0  0  0  0  0  0  0  0  0  0
    0.8562   -0.8708    0.8256 C   0  0  0  0  0  0  0  0  0  0  0  0
    0.0895   -0.0826   -0.2048 C   0  0  0  0  0  0  0  0  0  0  0  0
   -1.4061   -0.1111    0.0982 C   0  0  0  0  0  0  0  0  0  0  0  0
    0.4476   -0.5902   -1.5797 C   0  0  0  0  0  0  0  0  0  0  0  0
   -0.3793   -1.1113   -2.4728 C   0  0  0  0  0  0  0  0  0  0  0  0
    2.3110   -1.0032    2.3386 H   0  0  0  0  0  0  0  0  0  0  0  0
    2.0846    0.6643    1.5737 H   0  0  0  0  0  0  0  0  0  0  0  0
    0.5921   -1.9241    0.8925 H   0  0  0  0  0  0  0  0  0  0  0  0
    0.4358    0.9557   -0.1462 H   0  0  0  0  0  0  0  0  0  0  0  0
   -1.5968    0.3080    1.0865 H   0  0  0  0  0  0  0  0  0  0  0  0
   -1.9674    0.4693   -0.6359 H   0  0  0  0  0  0  0  0  0  0  0  0
   -1.7902   -1.1338    0.0883 H   0  0  0  0  0  0  0  0  0  0  0  0
    1.5049   -0.5197   -1.8214 H   0  0  0  0  0  0  0  0  0  0  0  0
   -1.4421   -1.2131   -2.2889 H   0  0  0  0  0  0  0  0  0  0  0  0
   -0.0162   -1.4558   -3.4328 H   0  0  0  0  0  0  0  0  0  0  0  0
  1  2  2  3
  1  7  1  0
  1  8  1  0
  2  3  1  0
  2  9  1  0
  3  4  1  0
  3  5  1  0
  3 10  1  0
  4 11  1  0
  4 12  1  0
  4 13  1  0
  5  6  2  3
  5 14  1  0
  6 15  1  0
  6 16  1  0
M  END
>  <reaction>  (3) 
rxn_1815

>  <mol_properties>  (3) 
{"0": {"label": "a_hydrogen", "atom_type": "H0"}, "3": {"label": "acceptor", "atom_type": "Cs"}}

>  <type>  (3) 
r2h

$$$$

     RDKit          3D

 21 19  0  0  0  0  0  0  0  0999 V2000
   -0.6354   -1.1921   -1.2190 C   0  0  0  0  0  3  0  0  0  0  0  0
    0.0290   -0.6195   -2.7367 S   0  0  0  0  0  0  0  0  0  0  0  0
   -0.3132   -0.2231   -0.1704 H   0  0  0  0  0  0  0  0  0  0  0  0
   -1.7208   -1.1840   -1.2351 H   0  0  0  0  0  0  0  0  0  0  0  0
   -0.2053   -2.1060   -0.8214 H   0  0  0  0  0  0  0  0  0  0  0  0
    1.3219   -0.8068   -2.4394 H   0  0  0  0  0  0  0  0  0  0  0  0
    2.4306    0.9889    0.9064 C   0  0  0  0  0  0  0  0  0  0  0  0
    1.2746    1.1410    0.2662 C   0  0  0  0  0  0  0  0  0  0  0  0
   -0.0631    0.6695    0.6935 C   0  0  0  0  0  0  0  0  0  0  0  0
   -1.1653    1.6790    0.4395 C   0  0  0  0  0  0  0  0  0  0  0  0
   -0.1223   -0.0702    1.9716 C   0  0  0  0  0  0  0  0  0  0  0  0
   -1.0653    0.0347    2.9018 C   0  0  0  0  0  0  0  0  0  0  0  0
    3.3531    1.3592    0.4777 H   0  0  0  0  0  0  0  0  0  0  0  0
    2.4992    0.5158    1.8782 H   0  0  0  0  0  0  0  0  0  0  0  0
    1.2810    1.6510   -0.6943 H   0  0  0  0  0  0  0  0  0  0  0  0
   -2.1509    1.2218    0.5435 H   0  0  0  0  0  0  0  0  0  0  0  0
   -1.0851    2.0781   -0.5731 H   0  0  0  0  0  0  0  0  0  0  0  0
   -1.1038    2.5173    1.1386 H   0  0  0  0  0  0  0  0  0  0  0  0
    0.6724   -0.7952    2.1257 H   0  0  0  0  0  0  0  0  0  0  0  0
   -1.8847    0.7383    2.8185 H   0  0  0  0  0  0  0  0  0  0  0  0
   -1.0403   -0.5815    3.7914 H   0  0  0  0  0  0  0  0  0  0  0  0
  1  2  1  0
  1  4  1  0
  1  5  1  0
  2  6  1  0
  3  9  1  0
  7  8  2  3
  7 13  1  0
  7 14  1  0
  8  9  1  0
  8 15  1  0
  9 10  1  0
  9 11  1  0
 10 16  1  0
 10 17  1  0
 10 18  1  0
 11 12  2  3
 11 19  1  0
 12 20  1  0
 12 21  1  0
M  RAD  1   1   2
M  END
>  <reaction>  (4) 
rxn_1815

>  <mol_properties>  (4) 
{"0": {"label": "*3", "atom_type": "Cs"}, "1": {"label": "*4", "atom_type": "S2s"}, "2": {"label": "*2", "atom_type": "H0"}, "7": {"label": "*0", "atom_type": "Cd"}, "8": {"label": "*1", "atom_type": "Cs"}}

>  <type>  (4) 
ts

$$$$
