
     RDKit          3D

 13 12  0  0  0  0  0  0  0  0999 V2000
    1.4471   -0.5697   -0.3031 C   0  0  0  0  0  0  0  0  0  0  0  0
    0.1326   -0.0908    0.2824 C   0  0  0  0  0  0  0  0  0  0  0  0
   -0.9497   -1.1552    0.2479 C   0  0  0  0  0  0  0  0  0  0  0  0
    0.4558    0.2966    1.6153 O   0  0  0  0  0  0  0  0  0  0  0  0
   -0.6579    0.9916    2.1633 O   0  0  0  0  0  0  0  0  0  0  0  0
    1.3038   -0.8532   -1.3463 H   0  0  0  0  0  0  0  0  0  0  0  0
    2.2007    0.2158   -0.2551 H   0  0  0  0  0  0  0  0  0  0  0  0
    1.8154   -1.4406    0.2423 H   0  0  0  0  0  0  0  0  0  0  0  0
   -0.2086    0.8022   -0.2523 H   0  0  0  0  0  0  0  0  0  0  0  0
   -0.6253   -2.0447    0.7929 H   0  0  0  0  0  0  0  0  0  0  0  0
   -1.8753   -0.7853    0.6886 H   0  0  0  0  0  0  0  0  0  0  0  0
   -1.1623   -1.4423   -0.7833 H   0  0  0  0  0  0  0  0  0  0  0  0
   -0.9730    0.3636    2.8217 H   0  0  0  0  0  0  0  0  0  0  0  0
  1  2  1  0
  1  6  1  0
  1  7  1  0
  1  8  1  0
  2  3  1  0
  2  4  1  0
  2  9  1  0
  3 10  1  0
  3 11  1  0
  3 12  1  0
  4  5  1  0
  5 13  1  0
M  END
>  <reaction>  (1) 
rxn_453

>  <mol_properties>  (1) 
{"4": {"label": "donator", "atom_type": "O2s"}, "12": {"label": "d_hydrogen", "atom_type": "H0"}}

>  <type>  (1) 
r1h

$$$$

     RDKit          3D

  7  6  0  0  0  0  0  0  0  0999 V2000
   -0.6201    0.0189   -0.0017 C   0  0  0  0  0  0  0  0  0  0  0  0
    0.8589   -0.0553    0.0500 C   0  0  0  0  0  3  0  0  0  0  0  0
   -1.0738   -0.9730   -0.0559 H   0  0  0  0  0  0  0  0  0  0  0  0
   -0.9680    0.5706   -0.8872 H   0  0  0  0  0  0  0  0  0  0  0  0
   -1.0303    0.5369    0.8678 H   0  0  0  0  0  0  0  0  0  0  0  0
    1.3939   -0.8386   -0.4695 H   0  0  0  0  0  0  0  0  0  0  0  0
    1.4394    0.7404    0.4965 H   0  0  0  0  0  0  0  0  0  0  0  0
  1  2  1  0
  1  3  1  0
  1  4  1  0
  1  5  1  0
  2  6  1  0
  2  7  1  0
M  RAD  1   2   2
M  END
>  <reaction>  (2) 
rxn_453

>  <mol_properties>  (2) 
{"1": {"label": "acceptor", "atom_type": "Cs"}}

>  <type>  (2) 
r2

$$$$

     RDKit          3D

  8  7  0  0  0  0  0  0  0  0999 V2000
    0.7610    0.0250    0.0051 C   0  0  0  0  0  0  0  0  0  0  0  0
   -0.7610   -0.0250   -0.0051 C   0  0  0  0  0  0  0  0  0  0  0  0
    1.1904   -0.9237   -0.3217 H   0  0  0  0  0  0  0  0  0  0  0  0
    1.1359    0.8041   -0.6609 H   0  0  0  0  0  0  0  0  0  0  0  0
    1.1435    0.2336    1.0058 H   0  0  0  0  0  0  0  0  0  0  0  0
   -1.1435   -0.2336   -1.0058 H   0  0  0  0  0  0  0  0  0  0  0  0
   -1.1904    0.9237    0.3216 H   0  0  0  0  0  0  0  0  0  0  0  0
   -1.1359   -0.8041    0.6609 H   0  0  0  0  0  0  0  0  0  0  0  0
  1  2  1  0
  1  3  1  0
  1  4  1  0
  1  5  1  0
  2  6  1  0
  2  7  1  0
  2  8  1  0
M  END
>  <reaction>  (3) 
rxn_453

>  <mol_properties>  (3) 
{"0": {"label": "a_hydrogen", "atom_type": "H0"}, "2": {"label": "acceptor", "atom_type": "Cs"}}

>  <type>  (3) 
r2h

$$$$

     RDKit          3D

 20 18  0  0  0  0  0  0  0  0999 V2000
    0.8115   -0.2703   -2.3724 C   0  0  0  0  0  0  0  0  0  0  0  0
    1.1555   -0.0052   -0.9204 C   0  0  0  0  0  0  0  0  0  0  0  0
    0.8917    1.4300   -0.5039 C   0  0  0  0  0  0  0  0  0  0  0  0
    0.3546   -0.9332   -0.1821 O   0  0  0  0  0  0  0  0  0  0  0  0
    0.7369   -0.9384    1.1462 O   0  0  0  0  0  0  0  0  0  0  0  0
    1.4214    0.3616   -3.0188 H   0  0  0  0  0  0  0  0  0  0  0  0
    0.9966   -1.3130   -2.6294 H   0  0  0  0  0  0  0  0  0  0  0  0
   -0.2396   -0.0460   -2.5643 H   0  0  0  0  0  0  0  0  0  0  0  0
    2.2043   -0.2557   -0.7314 H   0  0  0  0  0  0  0  0  0  0  0  0
   -0.1579    1.6887   -0.6608 H   0  0  0  0  0  0  0  0  0  0  0  0
    1.1423    1.5830    0.5449 H   0  0  0  0  0  0  0  0  0  0  0  0
    1.5051    2.1076   -1.1000 H   0  0  0  0  0  0  0  0  0  0  0  0
   -0.0471   -0.2874    1.6909 H   0  0  0  0  0  0  0  0  0  0  0  0
   -2.2557    0.1587    1.4067 C   0  0  0  0  0  0  0  0  0  0  0  0
   -1.0631    0.4322    2.2684 C   0  0  0  0  0  3  0  0  0  0  0  0
   -3.1293    0.7138    1.7679 H   0  0  0  0  0  0  0  0  0  0  0  0
   -2.5114   -0.9011    1.4068 H   0  0  0  0  0  0  0  0  0  0  0  0
   -2.0779    0.4615    0.3737 H   0  0  0  0  0  0  0  0  0  0  0  0
   -1.0806    0.0004    3.2667 H   0  0  0  0  0  0  0  0  0  0  0  0
   -0.6810    1.4503    2.2514 H   0  0  0  0  0  0  0  0  0  0  0  0
  1  2  1  0
  1  6  1  0
  1  7  1  0
  1  8  1  0
  2  3  1  0
  2  4  1  0
  2  9  1  0
  3 10  1  0
  3 11  1  0
  3 12  1  0
  4  5  1  0
  5 13  1  0
 14 15  1  0
 14 16  1  0
 14 17  1  0
 14 18  1  0
 15 19  1  0
 15 20  1  0
M  RAD  1  15   2
M  END
>  <reaction>  (4) 
rxn_453

>  <mol_properties>  (4) 
{"3": {"label": "*0", "atom_type": "O2s"}, "4": {"label": "*1", "atom_type": "O2s"}, "12": {"label": "*2", "atom_type": "H0"}, "13": {"label": "*4", "atom_type": "Cs"}, "14": {"label": "*3", "atom_type": "Cs"}}

>  <type>  (4) 
ts

$$$$
