
     RDKit          3D

 13 12  0  0  0  0  0  0  0  0999 V2000
    3.0977   -0.3549   -0.5105 C   0  0  0  0  0  0  0  0  0  0  0  0
    2.0556    0.4221   -0.2627 C   0  0  0  0  0  0  0  0  0  0  0  0
    0.6313   -0.0354   -0.2366 C   0  0  0  0  0  0  0  0  0  0  0  0
   -0.2567    0.6038   -1.2694 C   0  0  0  0  0  0  0  0  0  0  0  0
    0.1459    1.3456   -2.2891 C   0  0  0  0  0  0  0  0  0  0  0  0
    4.1081    0.0344   -0.5074 H   0  0  0  0  0  0  0  0  0  0  0  0
    2.9777   -1.4116   -0.7243 H   0  0  0  0  0  0  0  0  0  0  0  0
    2.2171    1.4781   -0.0618 H   0  0  0  0  0  0  0  0  0  0  0  0
    0.5865   -1.1233   -0.3540 H   0  0  0  0  0  0  0  0  0  0  0  0
    0.2065    0.1743    0.7521 H   0  0  0  0  0  0  0  0  0  0  0  0
   -1.3190    0.4126   -1.1445 H   0  0  0  0  0  0  0  0  0  0  0  0
    1.1948    1.5564   -2.4628 H   0  0  0  0  0  0  0  0  0  0  0  0
   -0.5644    1.7621   -2.9918 H   0  0  0  0  0  0  0  0  0  0  0  0
  1  2  2  3
  1  6  1  0
  1  7  1  0
  2  3  1  0
  2  8  1  0
  3  4  1  0
  3  9  1  0
  3 10  1  0
  4  5  2  3
  4 11  1  0
  5 12  1  0
  5 13  1  0
M  END
>  <reaction>  (1) 
rxn_1131

>  <mol_properties>  (1) 
{"2": {"label": "donator", "atom_type": "Cs"}, "8": {"label": "d_hydrogen", "atom_type": "H0"}}

>  <type>  (1) 
r1h

$$$$

     RDKit          3D

 11 10  0  0  0  0  0  0  0  0999 V2000
    2.0591    0.2533   -0.1061 C   0  0  0  0  0  0  0  0  0  0  0  0
    0.8045   -0.3111   -0.1535 C   0  0  0  0  0  0  0  0  0  0  0  0
   -0.3816    0.3942   -0.1885 C   0  0  0  0  0  3  0  0  0  0  0  0
   -1.7316   -0.2294   -0.2396 C   0  0  0  0  0  0  0  0  0  0  0  0
    2.9505   -0.3576   -0.0805 H   0  0  0  0  0  0  0  0  0  0  0  0
    2.1872    1.3290   -0.0933 H   0  0  0  0  0  0  0  0  0  0  0  0
    0.7385   -1.3970   -0.1643 H   0  0  0  0  0  0  0  0  0  0  0  0
   -0.3340    1.4795   -0.1783 H   0  0  0  0  0  0  0  0  0  0  0  0
   -1.6704   -1.3186   -0.2461 H   0  0  0  0  0  0  0  0  0  0  0  0
   -2.3404    0.0713    0.6191 H   0  0  0  0  0  0  0  0  0  0  0  0
   -2.2805    0.0851   -1.1331 H   0  0  0  0  0  0  0  0  0  0  0  0
  1  2  2  3
  1  5  1  0
  1  6  1  0
  2  3  1  0
  2  7  1  0
  3  4  1  0
  3  8  1  0
  4  9  1  0
  4 10  1  0
  4 11  1  0
M  RAD  1   3   2
M  END
>  <reaction>  (2) 
rxn_1131

>  <mol_properties>  (2) 
{"2": {"label": "acceptor", "atom_type": "Cs"}}

>  <type>  (2) 
r2

$$$$

     RDKit          3D

 12 11  0  0  0  0  0  0  0  0999 V2000
    1.9877    0.1011    0.4814 C   0  0  0  0  0  0  0  0  0  0  0  0
    0.8179    0.5502    0.0525 C   0  0  0  0  0  0  0  0  0  0  0  0
   -0.2939   -0.2692   -0.5320 C   0  0  0  0  0  0  0  0  0  0  0  0
   -0.0292   -1.7631   -0.6328 C   0  0  0  0  0  0  0  0  0  0  0  0
    2.2522   -0.9490    0.4436 H   0  0  0  0  0  0  0  0  0  0  0  0
    2.7295    0.7757    0.8896 H   0  0  0  0  0  0  0  0  0  0  0  0
    0.6162    1.6164    0.1190 H   0  0  0  0  0  0  0  0  0  0  0  0
   -0.5268    0.1319   -1.5245 H   0  0  0  0  0  0  0  0  0  0  0  0
   -1.1959   -0.0938    0.0644 H   0  0  0  0  0  0  0  0  0  0  0  0
    0.1590   -2.1992    0.3502 H   0  0  0  0  0  0  0  0  0  0  0  0
    0.8382   -1.9701   -1.2626 H   0  0  0  0  0  0  0  0  0  0  0  0
   -0.8879   -2.2759   -1.0672 H   0  0  0  0  0  0  0  0  0  0  0  0
  1  2  2  3
  1  5  1  0
  1  6  1  0
  2  3  1  0
  2  7  1  0
  3  4  1  0
  3  8  1  0
  3  9  1  0
  4 10  1  0
  4 11  1  0
  4 12  1  0
M  END
>  <reaction>  (3) 
rxn_1131

>  <mol_properties>  (3) 
{"0": {"label": "a_hydrogen", "atom_type": "H0"}, "3": {"label": "acceptor", "atom_type": "Cs"}}

>  <type>  (3) 
r2h

$$$$

     RDKit          3D

 24 22  0  0  0  0  0  0  0  0999 V2000
   -0.3103   -2.1726   -1.0739 C   0  0  0  0  0  0  0  0  0  0  0  0
    0.3601   -1.5658   -0.0951 C   0  0  0  0  0  0  0  0  0  0  0  0
   -0.2674   -0.7918    0.9750 C   0  0  0  0  0  0  0  0  0  0  0  0
    0.4251   -0.5655    2.2498 C   0  0  0  0  0  0  0  0  0  0  0  0
    1.7059   -0.8011    2.5315 C   0  0  0  0  0  0  0  0  0  0  0  0
    0.2035   -2.6985   -1.8680 H   0  0  0  0  0  0  0  0  0  0  0  0
   -1.3938   -2.1604   -1.1086 H   0  0  0  0  0  0  0  0  0  0  0  0
    1.4450   -1.5958   -0.1155 H   0  0  0  0  0  0  0  0  0  0  0  0
   -0.3867    0.4194    0.4611 H   0  0  0  0  0  0  0  0  0  0  0  0
   -1.3308   -1.0012    1.0916 H   0  0  0  0  0  0  0  0  0  0  0  0
   -0.1892   -0.1136    3.0238 H   0  0  0  0  0  0  0  0  0  0  0  0
    2.3867   -1.2553    1.8223 H   0  0  0  0  0  0  0  0  0  0  0  0
    2.1124   -0.5536    3.5033 H   0  0  0  0  0  0  0  0  0  0  0  0
   -1.4109    1.2837   -2.4035 C   0  0  0  0  0  0  0  0  0  0  0  0
   -1.4863    1.5869   -1.1006 C   0  0  0  0  0  0  0  0  0  0  0  0
   -0.3757    1.6570   -0.1748 C   0  0  0  0  0  3  0  0  0  0  0  0
    1.0371    1.6940   -0.6860 C   0  0  0  0  0  0  0  0  0  0  0  0
   -2.3022    1.2196   -3.0134 H   0  0  0  0  0  0  0  0  0  0  0  0
   -0.4646    1.0988   -2.8964 H   0  0  0  0  0  0  0  0  0  0  0  0
   -2.4699    1.7600   -0.6723 H   0  0  0  0  0  0  0  0  0  0  0  0
   -0.5590    2.2789    0.6997 H   0  0  0  0  0  0  0  0  0  0  0  0
    1.2356    2.6170   -1.2389 H   0  0  0  0  0  0  0  0  0  0  0  0
    1.7457    1.6328    0.1410 H   0  0  0  0  0  0  0  0  0  0  0  0
    1.2352    0.8565   -1.3584 H   0  0  0  0  0  0  0  0  0  0  0  0
  1  2  2  3
  1  6  1  0
  1  7  1  0
  2  3  1  0
  2  8  1  0
  3  4  1  0
  3  9  1  0
  3 10  1  0
  4  5  2  3
  4 11  1  0
  5 12  1  0
  5 13  1  0
 14 15  2  3
 14 18  1  0
 14 19  1  0
 15 16  1  0
 15 20  1  0
 16 17  1  0
 16 21  1  0
 17 22  1  0
 17 23  1  0
 17 24  1  0
M  RAD  1  16   2
M  END
>  <reaction>  (4) 
rxn_1131

>  <mol_properties>  (4) 
{"1": {"label": "*0", "atom_type": "Cd"}, "2": {"label": "*1", "atom_type": "Cs"}, "8": {"label": "*2", "atom_type": "H0"}, "14": {"label": "*4", "atom_type": "Cd"}, "15": {"label": "*3", "atom_type": "Cs"}}

>  <type>  (4) 
ts

$$$$
