
     RDKit          3D

 12 11  0  0  0  0  0  0  0  0999 V2000
    1.9877    0.1011    0.4814 C   0  0  0  0  0  0  0  0  0  0  0  0
    0.8179    0.5502    0.0525 C   0  0  0  0  0  0  0  0  0  0  0  0
   -0.2939   -0.2692   -0.5320 C   0  0  0  0  0  0  0  0  0  0  0  0
   -0.0292   -1.7631   -0.6328 C   0  0  0  0  0  0  0  0  0  0  0  0
    2.2522   -0.9490    0.4436 H   0  0  0  0  0  0  0  0  0  0  0  0
    2.7295    0.7757    0.8896 H   0  0  0  0  0  0  0  0  0  0  0  0
    0.6162    1.6164    0.1190 H   0  0  0  0  0  0  0  0  0  0  0  0
   -0.5268    0.1319   -1.5245 H   0  0  0  0  0  0  0  0  0  0  0  0
   -1.1959   -0.0938    0.0644 H   0  0  0  0  0  0  0  0  0  0  0  0
    0.1590   -2.1992    0.3502 H   0  0  0  0  0  0  0  0  0  0  0  0
    0.8382   -1.9701   -1.2626 H   0  0  0  0  0  0  0  0  0  0  0  0
   -0.8879   -2.2759   -1.0672 H   0  0  0  0  0  0  0  0  0  0  0  0
  1  2  2  3
  1  5  1  0
  1  6  1  0
  2  3  1  0
  2  7  1  0
  3  4  1  0
  3  8  1  0
  3  9  1  0
  4 10  1  0
  4 11  1  0
  4 12  1  0
M  END
>  <reaction>  (1) 
rxn_1056

>  <mol_properties>  (1) 
{"2": {"label": "donator", "atom_type": "Cs"}, "7": {"label": "d_hydrogen", "atom_type": "H0"}}

>  <type>  (1) 
r1h

$$$$

     RDKit          3D

  9  8  0  0  0  0  0  0  0  0999 V2000
    1.8963   -0.1405   -0.2150 C   0  0  0  0  0  0  0  0  0  0  0  0
    0.6340    0.1486   -0.2254 C   0  0  0  0  0  3  0  0  0  0  0  0
   -0.6770    0.4501   -0.2373 C   0  0  0  0  0  0  0  0  0  0  0  0
   -1.6600   -0.2303    0.4662 C   0  0  0  0  0  0  0  0  0  0  0  0
    2.3274   -0.8354   -0.9313 H   0  0  0  0  0  0  0  0  0  0  0  0
    2.5751    0.2988    0.5117 H   0  0  0  0  0  0  0  0  0  0  0  0
   -0.9723    1.2966   -0.8520 H   0  0  0  0  0  0  0  0  0  0  0  0
   -2.6934    0.0777    0.4015 H   0  0  0  0  0  0  0  0  0  0  0  0
   -1.4140   -1.0782    1.0904 H   0  0  0  0  0  0  0  0  0  0  0  0
  1  2  2  3
  1  5  1  0
  1  6  1  0
  2  3  1  0
  3  4  2  3
  3  7  1  0
  4  8  1  0
  4  9  1  0
M  RAD  1   2   2
M  END
>  <reaction>  (2) 
rxn_1056

>  <mol_properties>  (2) 
{"1": {"label": "acceptor", "atom_type": "Cd"}}

>  <type>  (2) 
r2

$$$$

     RDKit          3D

 10  9  0  0  0  0  0  0  0  0999 V2000
    1.8334    0.0847   -0.1062 C   0  0  0  0  0  0  0  0  0  0  0  0
    0.5993   -0.4071   -0.0750 C   0  0  0  0  0  0  0  0  0  0  0  0
   -0.5993    0.4071    0.0750 C   0  0  0  0  0  0  0  0  0  0  0  0
   -1.8334   -0.0847    0.1062 C   0  0  0  0  0  0  0  0  0  0  0  0
    2.0179    1.1498   -0.0189 H   0  0  0  0  0  0  0  0  0  0  0  0
    2.6972   -0.5572   -0.2194 H   0  0  0  0  0  0  0  0  0  0  0  0
    0.4465   -1.4793   -0.1649 H   0  0  0  0  0  0  0  0  0  0  0  0
   -0.4465    1.4793    0.1649 H   0  0  0  0  0  0  0  0  0  0  0  0
   -2.0179   -1.1498    0.0189 H   0  0  0  0  0  0  0  0  0  0  0  0
   -2.6972    0.5572    0.2194 H   0  0  0  0  0  0  0  0  0  0  0  0
  1  2  2  3
  1  5  1  0
  1  6  1  0
  2  3  1  0
  2  7  1  0
  3  4  2  3
  3  8  1  0
  4  9  1  0
  4 10  1  0
M  END
>  <reaction>  (3) 
rxn_1056

>  <mol_properties>  (3) 
{"1": {"label": "acceptor", "atom_type": "Cd"}, "9": {"label": "a_hydrogen", "atom_type": "H0"}}

>  <type>  (3) 
r2h

$$$$

     RDKit          3D

 21 19  0  0  0  0  0  0  0  0999 V2000
    0.5862    0.8057    2.6165 C   0  0  0  0  0  0  0  0  0  0  0  0
    0.7689    0.1954    1.4636 C   0  0  0  0  0  3  0  0  0  0  0  0
    1.8926   -0.5481    0.9450 C   0  0  0  0  0  0  0  0  0  0  0  0
    1.9008   -1.1859   -0.2217 C   0  0  0  0  0  0  0  0  0  0  0  0
   -0.3313    1.3382    2.8414 H   0  0  0  0  0  0  0  0  0  0  0  0
    1.3502    0.7963    3.3927 H   0  0  0  0  0  0  0  0  0  0  0  0
    2.7826   -0.5682    1.5749 H   0  0  0  0  0  0  0  0  0  0  0  0
    2.7763   -1.7272   -0.5559 H   0  0  0  0  0  0  0  0  0  0  0  0
    1.0308   -1.1932   -0.8680 H   0  0  0  0  0  0  0  0  0  0  0  0
   -1.6321   -1.0335   -2.0922 C   0  0  0  0  0  0  0  0  0  0  0  0
   -1.7819   -0.6136   -0.8387 C   0  0  0  0  0  0  0  0  0  0  0  0
   -1.2667    0.6480   -0.2760 C   0  0  0  0  0  0  0  0  0  0  0  0
   -0.6511    1.6496   -1.2245 C   0  0  0  0  0  0  0  0  0  0  0  0
   -1.1251   -0.4376   -2.8421 H   0  0  0  0  0  0  0  0  0  0  0  0
   -2.0260   -1.9895   -2.4121 H   0  0  0  0  0  0  0  0  0  0  0  0
   -2.3059   -1.2568   -0.1369 H   0  0  0  0  0  0  0  0  0  0  0  0
   -0.3629    0.3412    0.5184 H   0  0  0  0  0  0  0  0  0  0  0  0
   -1.9884    1.1039    0.4053 H   0  0  0  0  0  0  0  0  0  0  0  0
   -1.3771    1.9944   -1.9655 H   0  0  0  0  0  0  0  0  0  0  0  0
    0.1957    1.2172   -1.7614 H   0  0  0  0  0  0  0  0  0  0  0  0
   -0.2846    2.5181   -0.6768 H   0  0  0  0  0  0  0  0  0  0  0  0
  1  2  2  3
  1  5  1  0
  1  6  1  0
  2  3  1  0
  3  4  2  3
  3  7  1  0
  4  8  1  0
  4  9  1  0
 10 11  2  3
 10 14  1  0
 10 15  1  0
 11 12  1  0
 11 16  1  0
 12 13  1  0
 12 17  1  0
 12 18  1  0
 13 19  1  0
 13 20  1  0
 13 21  1  0
M  RAD  1   2   2
M  END
>  <reaction>  (4) 
rxn_1056

>  <mol_properties>  (4) 
{"1": {"label": "*3", "atom_type": "Cd"}, "2": {"label": "*4", "atom_type": "Cd"}, "10": {"label": "*0", "atom_type": "Cd"}, "11": {"label": "*1", "atom_type": "Cs"}, "16": {"label": "*2", "atom_type": "H0"}}

>  <type>  (4) 
ts

$$$$
