
     RDKit          3D

 10  9  0  0  0  0  0  0  0  0999 V2000
    1.8334    0.0847   -0.1062 C   0  0  0  0  0  0  0  0  0  0  0  0
    0.5993   -0.4071   -0.0750 C   0  0  0  0  0  0  0  0  0  0  0  0
   -0.5993    0.4071    0.0750 C   0  0  0  0  0  0  0  0  0  0  0  0
   -1.8334   -0.0847    0.1062 C   0  0  0  0  0  0  0  0  0  0  0  0
    2.0179    1.1498   -0.0189 H   0  0  0  0  0  0  0  0  0  0  0  0
    2.6972   -0.5572   -0.2194 H   0  0  0  0  0  0  0  0  0  0  0  0
    0.4465   -1.4793   -0.1649 H   0  0  0  0  0  0  0  0  0  0  0  0
   -0.4465    1.4793    0.1649 H   0  0  0  0  0  0  0  0  0  0  0  0
   -2.0179   -1.1498    0.0189 H   0  0  0  0  0  0  0  0  0  0  0  0
   -2.6972    0.5572    0.2194 H   0  0  0  0  0  0  0  0  0  0  0  0
  1  2  2  3
  1  5  1  0
  1  6  1  0
  2  3  1  0
  2  7  1  0
  3  4  2  3
  3  8  1  0
  4  9  1  0
  4 10  1  0
M  END
>  <reaction>  (1) 
rxn_1653

>  <mol_properties>  (1) 
{"2": {"label": "donator", "atom_type": "Cd"}, "7": {"label": "d_hydrogen", "atom_type": "H0"}}

>  <type>  (1) 
r1h

$$$$

     RDKit          3D

 14 13  0  0  0  0  0  0  0  0999 V2000
    1.0767   -1.6838    1.2931 C   0  0  0  0  0  0  0  0  0  0  0  0
    1.0020   -0.3665    0.9163 C   0  0  0  0  0  0  0  0  0  0  0  0
    1.3965    0.7260    1.6806 C   0  0  0  0  0  3  0  0  0  0  0  0
    1.2666    2.1197    1.1619 C   0  0  0  0  0  0  0  0  0  0  0  0
    1.9670    0.5479    3.0536 C   0  0  0  0  0  0  0  0  0  0  0  0
    0.7448   -2.4705    0.6300 H   0  0  0  0  0  0  0  0  0  0  0  0
    1.4663   -1.9826    2.2578 H   0  0  0  0  0  0  0  0  0  0  0  0
    0.5980   -0.1511   -0.0695 H   0  0  0  0  0  0  0  0  0  0  0  0
    0.6296    2.7241    1.8172 H   0  0  0  0  0  0  0  0  0  0  0  0
    2.2410    2.6200    1.1341 H   0  0  0  0  0  0  0  0  0  0  0  0
    0.8426    2.1448    0.1579 H   0  0  0  0  0  0  0  0  0  0  0  0
    2.8745   -0.0634    3.0328 H   0  0  0  0  0  0  0  0  0  0  0  0
    1.2599    0.0408    3.7173 H   0  0  0  0  0  0  0  0  0  0  0  0
    2.2205    1.5071    3.5054 H   0  0  0  0  0  0  0  0  0  0  0  0
  1  2  2  3
  1  6  1  0
  1  7  1  0
  2  3  1  0
  2  8  1  0
  3  4  1  0
  3  5  1  0
  4  9  1  0
  4 10  1  0
  4 11  1  0
  5 12  1  0
  5 13  1  0
  5 14  1  0
M  RAD  1   3   2
M  END
>  <reaction>  (2) 
rxn_1653

>  <mol_properties>  (2) 
{"2": {"label": "acceptor", "atom_type": "Cs"}}

>  <type>  (2) 
r2

$$$$

     RDKit          3D

 15 14  0  0  0  0  0  0  0  0999 V2000
    2.1256    0.4849   -0.6284 C   0  0  0  0  0  0  0  0  0  0  0  0
    1.1128    0.2141    0.1794 C   0  0  0  0  0  0  0  0  0  0  0  0
   -0.3017   -0.0425   -0.2513 C   0  0  0  0  0  0  0  0  0  0  0  0
   -1.2427    1.0075    0.3423 C   0  0  0  0  0  0  0  0  0  0  0  0
   -0.7381   -1.4526    0.1504 C   0  0  0  0  0  0  0  0  0  0  0  0
    3.1243    0.6602   -0.2486 H   0  0  0  0  0  0  0  0  0  0  0  0
    1.9908    0.5411   -1.7036 H   0  0  0  0  0  0  0  0  0  0  0  0
    1.2888    0.1665    1.2533 H   0  0  0  0  0  0  0  0  0  0  0  0
   -0.3426    0.0343   -1.3424 H   0  0  0  0  0  0  0  0  0  0  0  0
   -0.9570    2.0133    0.0315 H   0  0  0  0  0  0  0  0  0  0  0  0
   -1.2189    0.9728    1.4350 H   0  0  0  0  0  0  0  0  0  0  0  0
   -2.2723    0.8287    0.0254 H   0  0  0  0  0  0  0  0  0  0  0  0
   -0.6964   -1.5744    1.2363 H   0  0  0  0  0  0  0  0  0  0  0  0
   -0.0911   -2.2079   -0.2978 H   0  0  0  0  0  0  0  0  0  0  0  0
   -1.7646   -1.6461   -0.1677 H   0  0  0  0  0  0  0  0  0  0  0  0
  1  2  2  3
  1  6  1  0
  1  7  1  0
  2  3  1  0
  2  8  1  0
  3  4  1  0
  3  5  1  0
  3  9  1  0
  4 10  1  0
  4 11  1  0
  4 12  1  0
  5 13  1  0
  5 14  1  0
  5 15  1  0
M  END
>  <reaction>  (3) 
rxn_1653

>  <mol_properties>  (3) 
{"0": {"label": "a_hydrogen", "atom_type": "H0"}, "3": {"label": "acceptor", "atom_type": "Cs"}}

>  <type>  (3) 
r2h

$$$$

     RDKit          3D

 24 22  0  0  0  0  0  0  0  0999 V2000
    0.9117   -2.5743   -1.2841 C   0  0  0  0  0  0  0  0  0  0  0  0
    0.4249   -2.6277   -0.0484 C   0  0  0  0  0  0  0  0  0  0  0  0
   -0.0460   -1.4907    0.7055 C   0  0  0  0  0  3  0  0  0  0  0  0
   -0.6372   -1.4116    1.8794 C   0  0  0  0  0  0  0  0  0  0  0  0
    0.9885   -1.6354   -1.8184 H   0  0  0  0  0  0  0  0  0  0  0  0
    1.2436   -3.4672   -1.7972 H   0  0  0  0  0  0  0  0  0  0  0  0
    0.3622   -3.5918    0.4577 H   0  0  0  0  0  0  0  0  0  0  0  0
    0.1474   -0.1221    0.0954 H   0  0  0  0  0  0  0  0  0  0  0  0
   -0.8608   -2.3016    2.4666 H   0  0  0  0  0  0  0  0  0  0  0  0
   -0.9318   -0.4562    2.3008 H   0  0  0  0  0  0  0  0  0  0  0  0
   -1.3096    2.5314    0.9703 C   0  0  0  0  0  0  0  0  0  0  0  0
   -0.1676    1.8681    0.8171 C   0  0  0  0  0  0  0  0  0  0  0  0
    0.2248    1.0256   -0.3367 C   0  0  0  0  0  0  0  0  0  0  0  0
    1.6867    1.1979   -0.7141 C   0  0  0  0  0  0  0  0  0  0  0  0
   -0.7146    1.0539   -1.5239 C   0  0  0  0  0  0  0  0  0  0  0  0
   -1.5032    3.1074    1.8662 H   0  0  0  0  0  0  0  0  0  0  0  0
   -2.0843    2.5313    0.2133 H   0  0  0  0  0  0  0  0  0  0  0  0
    0.5684    1.9174    1.6168 H   0  0  0  0  0  0  0  0  0  0  0  0
    1.9908    0.4613   -1.4598 H   0  0  0  0  0  0  0  0  0  0  0  0
    1.8623    2.1924   -1.1350 H   0  0  0  0  0  0  0  0  0  0  0  0
    2.3353    1.0815    0.1561 H   0  0  0  0  0  0  0  0  0  0  0  0
   -0.7630    2.0555   -1.9618 H   0  0  0  0  0  0  0  0  0  0  0  0
   -1.7256    0.7572   -1.2411 H   0  0  0  0  0  0  0  0  0  0  0  0
   -0.3727    0.3662   -2.2992 H   0  0  0  0  0  0  0  0  0  0  0  0
  1  2  2  3
  1  5  1  0
  1  6  1  0
  2  3  1  0
  2  7  1  0
  3  4  2  3
  4  9  1  0
  4 10  1  0
  8 13  1  0
 11 12  2  3
 11 16  1  0
 11 17  1  0
 12 13  1  0
 12 18  1  0
 13 14  1  0
 13 15  1  0
 14 19  1  0
 14 20  1  0
 14 21  1  0
 15 22  1  0
 15 23  1  0
 15 24  1  0
M  RAD  1   3   2
M  END
>  <reaction>  (4) 
rxn_1653

>  <mol_properties>  (4) 
{"1": {"label": "*4", "atom_type": "Cd"}, "2": {"label": "*3", "atom_type": "Cd"}, "7": {"label": "*2", "atom_type": "H0"}, "11": {"label": "*0", "atom_type": "Cd"}, "12": {"label": "*1", "atom_type": "Cs"}}

>  <type>  (4) 
ts

$$$$
