
     RDKit          3D

 12 11  0  0  0  0  0  0  0  0999 V2000
    2.1696    0.6854    1.1310 C   0  0  0  0  0  0  0  0  0  0  0  0
    1.2518    0.4145    0.4134 C   0  0  0  0  0  0  0  0  0  0  0  0
    0.1391    0.0443   -0.4683 C   0  0  0  0  0  0  0  0  0  0  0  0
   -0.2054   -1.4492   -0.3339 C   0  0  0  0  0  0  0  0  0  0  0  0
   -1.0375    0.8853   -0.2222 C   0  0  0  0  0  0  0  0  0  0  0  0
   -2.0160    1.5463   -0.0311 C   0  0  0  0  0  0  0  0  0  0  0  0
    2.9819    0.9356    1.7702 H   0  0  0  0  0  0  0  0  0  0  0  0
    0.4629    0.2285   -1.4981 H   0  0  0  0  0  0  0  0  0  0  0  0
   -0.5327   -1.6703    0.6812 H   0  0  0  0  0  0  0  0  0  0  0  0
    0.6727   -2.0535   -0.5593 H   0  0  0  0  0  0  0  0  0  0  0  0
   -1.0064   -1.7081   -1.0256 H   0  0  0  0  0  0  0  0  0  0  0  0
   -2.8802    2.1413    0.1426 H   0  0  0  0  0  0  0  0  0  0  0  0
  1  2  3  0
  1  7  1  0
  2  3  1  0
  3  4  1  0
  3  5  1  0
  3  8  1  0
  4  9  1  0
  4 10  1  0
  4 11  1  0
  5  6  3  0
  6 12  1  0
M  END
>  <reaction>  (1) 
rxn_1425

>  <mol_properties>  (1) 
{"2": {"label": "donator", "atom_type": "Cs"}, "7": {"label": "d_hydrogen", "atom_type": "H0"}}

>  <type>  (1) 
r1h

$$$$

     RDKit          3D

 10  9  0  0  0  0  0  0  0  0999 V2000
   -1.2648    0.1959    0.8197 C   0  0  0  0  0  0  0  0  0  0  0  0
   -0.2805    0.0995   -0.3030 C   0  0  0  0  0  3  0  0  0  0  0  0
   -0.0444    1.1347   -1.1797 C   0  0  0  0  0  0  0  0  0  0  0  0
    0.1640    2.0467   -1.9525 C   0  0  0  0  0  0  0  0  0  0  0  0
    0.5686   -1.4168   -0.4488 S   0  0  0  0  0  0  0  0  0  0  0  0
   -2.0466   -0.5638    0.7258 H   0  0  0  0  0  0  0  0  0  0  0  0
   -0.7765    0.0454    1.7871 H   0  0  0  0  0  0  0  0  0  0  0  0
   -1.7371    1.1762    0.8222 H   0  0  0  0  0  0  0  0  0  0  0  0
    0.3433    2.8484   -2.6273 H   0  0  0  0  0  0  0  0  0  0  0  0
    1.3075   -1.0953   -1.5176 H   0  0  0  0  0  0  0  0  0  0  0  0
  1  2  1  0
  1  6  1  0
  1  7  1  0
  1  8  1  0
  2  3  1  0
  2  5  1  0
  3  4  3  0
  4  9  1  0
  5 10  1  0
M  RAD  1   2   2
M  END
>  <reaction>  (2) 
rxn_1425

>  <mol_properties>  (2) 
{"1": {"label": "acceptor", "atom_type": "Cs"}}

>  <type>  (2) 
r2

$$$$

     RDKit          3D

 11 10  0  0  0  0  0  0  0  0999 V2000
   -1.2582   -0.5130    0.2160 C   0  0  0  0  0  0  0  0  0  0  0  0
   -0.1109    0.0509   -0.6210 C   0  0  0  0  0  0  0  0  0  0  0  0
    1.1862   -0.2025   -0.0072 C   0  0  0  0  0  0  0  0  0  0  0  0
    2.2351   -0.4206    0.5274 C   0  0  0  0  0  0  0  0  0  0  0  0
   -0.3298    1.8272   -1.0120 S   0  0  0  0  0  0  0  0  0  0  0  0
   -1.2875   -0.0327    1.1945 H   0  0  0  0  0  0  0  0  0  0  0  0
   -2.2088   -0.3391   -0.2866 H   0  0  0  0  0  0  0  0  0  0  0  0
   -1.1220   -1.5854    0.3655 H   0  0  0  0  0  0  0  0  0  0  0  0
   -0.1222   -0.4181   -1.6078 H   0  0  0  0  0  0  0  0  0  0  0  0
    3.1729   -0.6098    0.9920 H   0  0  0  0  0  0  0  0  0  0  0  0
   -0.1942    2.2663    0.2466 H   0  0  0  0  0  0  0  0  0  0  0  0
  1  2  1  0
  1  6  1  0
  1  7  1  0
  1  8  1  0
  2  3  1  0
  2  5  1  0
  2  9  1  0
  3  4  3  0
  4 10  1  0
  5 11  1  0
M  END
>  <reaction>  (3) 
rxn_1425

>  <mol_properties>  (3) 
{"1": {"label": "acceptor", "atom_type": "Cs"}, "10": {"label": "a_hydrogen", "atom_type": "H0"}}

>  <type>  (3) 
r2h

$$$$

     RDKit          3D

 22 20  0  0  0  0  0  0  0  0999 V2000
    1.8588   -0.7333   -0.7438 C   0  0  0  0  0  0  0  0  0  0  0  0
    1.2888    0.1597    0.3369 C   0  0  0  0  0  3  0  0  0  0  0  0
    1.6890    1.5256    0.3260 C   0  0  0  0  0  0  0  0  0  0  0  0
    1.9597    2.6965    0.2986 C   0  0  0  0  0  0  0  0  0  0  0  0
    1.2669   -0.6362    1.9381 S   0  0  0  0  0  0  0  0  0  0  0  0
    2.9324   -0.8791   -0.6082 H   0  0  0  0  0  0  0  0  0  0  0  0
    1.3639   -1.7055   -0.7270 H   0  0  0  0  0  0  0  0  0  0  0  0
    1.6869   -0.2765   -1.7185 H   0  0  0  0  0  0  0  0  0  0  0  0
    2.2159    3.7282    0.2707 H   0  0  0  0  0  0  0  0  0  0  0  0
    0.9618    0.4549    2.6514 H   0  0  0  0  0  0  0  0  0  0  0  0
   -1.0352    1.3729   -2.8343 C   0  0  0  0  0  0  0  0  0  0  0  0
   -1.1788    0.8447   -1.7660 C   0  0  0  0  0  0  0  0  0  0  0  0
   -1.2843    0.2483   -0.4645 C   0  0  0  0  0  0  0  0  0  0  0  0
   -1.9125    1.1204    0.6119 C   0  0  0  0  0  0  0  0  0  0  0  0
   -1.6658   -1.1344   -0.4496 C   0  0  0  0  0  0  0  0  0  0  0  0
   -1.9413   -2.3017   -0.3914 C   0  0  0  0  0  0  0  0  0  0  0  0
   -0.9250    1.8354   -3.7854 H   0  0  0  0  0  0  0  0  0  0  0  0
   -0.0135    0.2121   -0.0507 H   0  0  0  0  0  0  0  0  0  0  0  0
   -2.9736    1.2799    0.4117 H   0  0  0  0  0  0  0  0  0  0  0  0
   -1.4128    2.0889    0.6399 H   0  0  0  0  0  0  0  0  0  0  0  0
   -1.8116    0.6357    1.5831 H   0  0  0  0  0  0  0  0  0  0  0  0
   -2.2000   -3.3321   -0.3486 H   0  0  0  0  0  0  0  0  0  0  0  0
  1  2  1  0
  1  6  1  0
  1  7  1  0
  1  8  1  0
  2  3  1  0
  2  5  1  0
  3  4  3  0
  4  9  1  0
  5 10  1  0
 11 12  3  0
 11 17  1  0
 12 13  1  0
 13 14  1  0
 13 15  1  0
 13 18  1  0
 14 19  1  0
 14 20  1  0
 14 21  1  0
 15 16  3  0
 16 22  1  0
M  RAD  1   2   2
M  END
>  <reaction>  (4) 
rxn_1425

>  <mol_properties>  (4) 
{"1": {"label": "*3", "atom_type": "Cs"}, "4": {"label": "*4", "atom_type": "S2s"}, "11": {"label": "*0", "atom_type": "Ct"}, "12": {"label": "*1", "atom_type": "Cs"}, "17": {"label": "*2", "atom_type": "H0"}}

>  <type>  (4) 
ts

$$$$
