
     RDKit          3D

 17 16  0  0  0  0  0  0  0  0999 V2000
   -1.9072   -0.7836   -0.1429 C   0  0  0  0  0  0  0  0  0  0  0  0
   -0.9540    0.3961   -0.2879 C   0  0  0  0  0  0  0  0  0  0  0  0
   -0.7331    0.8677   -1.7276 C   0  0  0  0  0  0  0  0  0  0  0  0
   -0.1113   -0.2174   -2.6029 C   0  0  0  0  0  0  0  0  0  0  0  0
    0.1254    2.1291   -1.7491 C   0  0  0  0  0  0  0  0  0  0  0  0
   -1.5074   -1.6880   -0.6041 H   0  0  0  0  0  0  0  0  0  0  0  0
   -2.0936   -1.0079    0.9085 H   0  0  0  0  0  0  0  0  0  0  0  0
   -2.8700   -0.5677   -0.6130 H   0  0  0  0  0  0  0  0  0  0  0  0
   -1.3379    1.2381    0.2960 H   0  0  0  0  0  0  0  0  0  0  0  0
    0.0174    0.1396    0.1503 H   0  0  0  0  0  0  0  0  0  0  0  0
   -1.7146    1.1192   -2.1475 H   0  0  0  0  0  0  0  0  0  0  0  0
   -0.7504   -1.0979   -2.6798 H   0  0  0  0  0  0  0  0  0  0  0  0
    0.0647    0.1522   -3.6151 H   0  0  0  0  0  0  0  0  0  0  0  0
    0.8517   -0.5357   -2.1923 H   0  0  0  0  0  0  0  0  0  0  0  0
    1.1190    1.9249   -1.3397 H   0  0  0  0  0  0  0  0  0  0  0  0
   -0.3236    2.9256   -1.1519 H   0  0  0  0  0  0  0  0  0  0  0  0
    0.2558    2.5030   -2.7666 H   0  0  0  0  0  0  0  0  0  0  0  0
  1  2  1  0
  1  6  1  0
  1  7  1  0
  1  8  1  0
  2  3  1  0
  2  9  1  0
  2 10  1  0
  3  4  1  0
  3  5  1  0
  3 11  1  0
  4 12  1  0
  4 13  1  0
  4 14  1  0
  5 15  1  0
  5 16  1  0
  5 17  1  0
M  END
>  <reaction>  (1) 
rxn_98

>  <mol_properties>  (1) 
{"2": {"label": "donator", "atom_type": "Cs"}, "10": {"label": "d_hydrogen", "atom_type": "H0"}}

>  <type>  (1) 
r1h

$$$$

     RDKit          3D

  3  2  0  0  0  0  0  0  0  0999 V2000
    0.0002    0.4233    0.0000 N   0  0  0  0  0  2  0  0  0  0  0  0
   -0.8051   -0.2112    0.0000 H   0  0  0  0  0  0  0  0  0  0  0  0
    0.8049   -0.2121    0.0000 H   0  0  0  0  0  0  0  0  0  0  0  0
  1  2  1  0
  1  3  1  0
M  RAD  1   1   2
M  END
>  <reaction>  (2) 
rxn_98

>  <mol_properties>  (2) 
{"0": {"label": "acceptor", "atom_type": "N3s"}}

>  <type>  (2) 
r2

$$$$

     RDKit          3D

  4  3  0  0  0  0  0  0  0  0999 V2000
    0.0006   -0.0009    0.2762 N   0  0  0  0  0  0  0  0  0  0  0  0
   -0.4188    0.8439   -0.0883 H   0  0  0  0  0  0  0  0  0  0  0  0
   -0.5215   -0.7840   -0.0936 H   0  0  0  0  0  0  0  0  0  0  0  0
    0.9397   -0.0590   -0.0943 H   0  0  0  0  0  0  0  0  0  0  0  0
  1  2  1  0
  1  3  1  0
  1  4  1  0
M  END
>  <reaction>  (3) 
rxn_98

>  <mol_properties>  (3) 
{"0": {"label": "acceptor", "atom_type": "N3s"}, "3": {"label": "a_hydrogen", "atom_type": "H0"}}

>  <type>  (3) 
r2h

$$$$

     RDKit          3D

 20 18  0  0  0  0  0  0  0  0999 V2000
   -1.9122    1.3903   -0.1078 N   0  0  0  0  0  2  0  0  0  0  0  0
   -1.5389    1.8093   -0.9624 H   0  0  0  0  0  0  0  0  0  0  0  0
   -2.4748    0.6057   -0.4446 H   0  0  0  0  0  0  0  0  0  0  0  0
    0.2196   -1.0330   -1.7825 C   0  0  0  0  0  0  0  0  0  0  0  0
    0.1943   -1.2375   -0.2732 C   0  0  0  0  0  0  0  0  0  0  0  0
    0.2268    0.0344    0.5574 C   0  0  0  0  0  0  0  0  0  0  0  0
    1.3795    0.9673    0.2503 C   0  0  0  0  0  0  0  0  0  0  0  0
    0.0637   -0.2308    2.0390 C   0  0  0  0  0  0  0  0  0  0  0  0
    1.1589   -0.5902   -2.1165 H   0  0  0  0  0  0  0  0  0  0  0  0
    0.1014   -1.9835   -2.3046 H   0  0  0  0  0  0  0  0  0  0  0  0
   -0.5922   -0.3740   -2.0998 H   0  0  0  0  0  0  0  0  0  0  0  0
   -0.7004   -1.8050    0.0001 H   0  0  0  0  0  0  0  0  0  0  0  0
    1.0472   -1.8630    0.0220 H   0  0  0  0  0  0  0  0  0  0  0  0
   -0.7942    0.6845    0.2709 H   0  0  0  0  0  0  0  0  0  0  0  0
    1.3949    1.2710   -0.7972 H   0  0  0  0  0  0  0  0  0  0  0  0
    1.3188    1.8701    0.8600 H   0  0  0  0  0  0  0  0  0  0  0  0
    2.3362    0.4793    0.4692 H   0  0  0  0  0  0  0  0  0  0  0  0
    0.9376   -0.7622    2.4324 H   0  0  0  0  0  0  0  0  0  0  0  0
   -0.8171   -0.8442    2.2378 H   0  0  0  0  0  0  0  0  0  0  0  0
   -0.0412    0.7018    2.5954 H   0  0  0  0  0  0  0  0  0  0  0  0
  1  2  1  0
  1  3  1  0
  4  5  1  0
  4  9  1  0
  4 10  1  0
  4 11  1  0
  5  6  1  0
  5 12  1  0
  5 13  1  0
  6  7  1  0
  6  8  1  0
  6 14  1  0
  7 15  1  0
  7 16  1  0
  7 17  1  0
  8 18  1  0
  8 19  1  0
  8 20  1  0
M  RAD  1   1   2
M  END
>  <reaction>  (4) 
rxn_98

>  <mol_properties>  (4) 
{"0": {"label": "*3", "atom_type": "N3s"}, "1": {"label": "*4", "atom_type": "H0"}, "4": {"label": "*0", "atom_type": "Cs"}, "5": {"label": "*1", "atom_type": "Cs"}, "13": {"label": "*2", "atom_type": "H0"}}

>  <type>  (4) 
ts

$$$$
