
     RDKit          3D

  5  4  0  0  0  0  0  0  0  0999 V2000
    0.0000    0.0000    0.0000 C   0  0  0  0  0  0  0  0  0  0  0  0
   -0.6486   -0.7720   -0.4113 H   0  0  0  0  0  0  0  0  0  0  0  0
   -0.3482    0.9787   -0.3267 H   0  0  0  0  0  0  0  0  0  0  0  0
   -0.0223   -0.0487    1.0876 H   0  0  0  0  0  0  0  0  0  0  0  0
    1.0191   -0.1580   -0.3496 H   0  0  0  0  0  0  0  0  0  0  0  0
  1  2  1  0
  1  3  1  0
  1  4  1  0
  1  5  1  0
M  END
>  <reaction>  (1) 
rxn_131

>  <mol_properties>  (1) 
{"0": {"label": "donator", "atom_type": "Cs"}, "1": {"label": "d_hydrogen", "atom_type": "H0"}}

>  <type>  (1) 
r1h

$$$$

     RDKit          3D

  1  0  0  0  0  0  0  0  0  0999 V2000
    0.0000    0.0000    0.0000 Cl  0  0  0  0  0 15  0  0  0  0  0  0
M  END
>  <reaction>  (2) 
rxn_131

>  <mol_properties>  (2) 
{"0": {"label": "acceptor", "atom_type": "Cl1s"}}

>  <type>  (2) 
r2

$$$$

     RDKit          3D

  2  1  0  0  0  0  0  0  0  0999 V2000
    0.0000    0.0000    0.6391 Cl  0  0  0  0  0  0  0  0  0  0  0  0
    0.0000    0.0000   -0.6391 H   0  0  0  0  0  0  0  0  0  0  0  0
  1  2  1  0
M  END
>  <reaction>  (3) 
rxn_131

>  <mol_properties>  (3) 
{"0": {"label": "acceptor", "atom_type": "Cl1s"}, "1": {"label": "a_hydrogen", "atom_type": "H0"}}

>  <type>  (3) 
r2h

$$$$

     RDKit          3D

  6  4  0  0  0  0  0  0  0  0999 V2000
    0.0000    0.7662    0.2709 Cl  0  0  0  0  0  0  0  0  0  0  0  0
    0.0000   -1.9487   -0.6890 C   0  0  0  0  0  3  0  0  0  0  0  0
    0.0000   -0.5780   -0.2044 H   0  0  0  0  0  0  0  0  0  0  0  0
    0.9222   -2.3134   -0.2532 H   0  0  0  0  0  0  0  0  0  0  0  0
   -0.9222   -2.3134   -0.2532 H   0  0  0  0  0  0  0  0  0  0  0  0
    0.0000   -1.7810   -1.7591 H   0  0  0  0  0  0  0  0  0  0  0  0
  1  3  1  0
  2  4  1  0
  2  5  1  0
  2  6  1  0
M  RAD  1   2   2
M  END
>  <reaction>  (4) 
rxn_131

>  <mol_properties>  (4) 
{"0": {"label": "*1", "atom_type": "Cl1s"}, "1": {"label": "*3", "atom_type": "Cs"}, "2": {"label": "*2", "atom_type": "H0"}, "3": {"label": "*4", "atom_type": "H0"}}

>  <type>  (4) 
ts

$$$$
