
     RDKit          3D

  5  4  0  0  0  0  0  0  0  0999 V2000
    0.0000    0.0000    0.0000 C   0  0  0  0  0  0  0  0  0  0  0  0
   -0.6486   -0.7720   -0.4113 H   0  0  0  0  0  0  0  0  0  0  0  0
   -0.3482    0.9787   -0.3267 H   0  0  0  0  0  0  0  0  0  0  0  0
   -0.0223   -0.0487    1.0876 H   0  0  0  0  0  0  0  0  0  0  0  0
    1.0191   -0.1580   -0.3496 H   0  0  0  0  0  0  0  0  0  0  0  0
  1  2  1  0
  1  3  1  0
  1  4  1  0
  1  5  1  0
M  END
>  <reaction>  (1) 
rxn_321

>  <mol_properties>  (1) 
{"0": {"label": "donator", "atom_type": "Cs"}, "1": {"label": "d_hydrogen", "atom_type": "H0"}}

>  <type>  (1) 
r1h

$$$$

     RDKit          3D

  5  4  0  0  0  0  0  0  0  0999 V2000
   -0.0419    0.0056   -0.0340 C   0  0  0  0  0  0  0  0  0  0  0  0
    1.3118    0.0049   -0.1263 O   0  0  0  0  0  1  0  0  0  0  0  0
   -0.2615   -0.1535    1.0387 H   0  0  0  0  0  0  0  0  0  0  0  0
   -0.4946    0.9694   -0.3042 H   0  0  0  0  0  0  0  0  0  0  0  0
   -0.5138   -0.8264   -0.5743 H   0  0  0  0  0  0  0  0  0  0  0  0
  1  2  1  0
  1  3  1  0
  1  4  1  0
  1  5  1  0
M  RAD  1   2   2
M  END
>  <reaction>  (2) 
rxn_321

>  <mol_properties>  (2) 
{"1": {"label": "acceptor", "atom_type": "O2s"}}

>  <type>  (2) 
r2

$$$$

     RDKit          3D

  6  5  0  0  0  0  0  0  0  0999 V2000
   -0.3669    0.0060    0.0609 C   0  0  0  0  0  0  0  0  0  0  0  0
    0.9818   -0.0507    0.4695 O   0  0  0  0  0  0  0  0  0  0  0  0
   -0.6066    0.9462   -0.4488 H   0  0  0  0  0  0  0  0  0  0  0  0
   -0.5221   -0.8115   -0.6420 H   0  0  0  0  0  0  0  0  0  0  0  0
   -1.0602   -0.1268    0.8992 H   0  0  0  0  0  0  0  0  0  0  0  0
    1.1451    0.6595    1.0897 H   0  0  0  0  0  0  0  0  0  0  0  0
  1  2  1  0
  1  3  1  0
  1  4  1  0
  1  5  1  0
  2  6  1  0
M  END
>  <reaction>  (3) 
rxn_321

>  <mol_properties>  (3) 
{"1": {"label": "acceptor", "atom_type": "O2s"}, "5": {"label": "a_hydrogen", "atom_type": "H0"}}

>  <type>  (3) 
r2h

$$$$

     RDKit          3D

 10  8  0  0  0  0  0  0  0  0999 V2000
    0.2622    1.0036    0.7705 C   0  0  0  0  0  0  0  0  0  0  0  0
    0.0648   -0.2840    1.2689 O   0  0  0  0  0  0  0  0  0  0  0  0
    0.3287    1.6602    1.6438 H   0  0  0  0  0  0  0  0  0  0  0  0
   -0.5733    1.3520    0.1516 H   0  0  0  0  0  0  0  0  0  0  0  0
    1.1969    1.1014    0.2053 H   0  0  0  0  0  0  0  0  0  0  0  0
   -0.0730   -1.6960   -0.7753 C   0  0  0  0  0  3  0  0  0  0  0  0
   -0.0122   -1.0310    0.3231 H   0  0  0  0  0  0  0  0  0  0  0  0
   -0.9170   -1.2781   -1.3163 H   0  0  0  0  0  0  0  0  0  0  0  0
    0.8843   -1.5332   -1.2616 H   0  0  0  0  0  0  0  0  0  0  0  0
   -0.2279   -2.7186   -0.4438 H   0  0  0  0  0  0  0  0  0  0  0  0
  1  2  1  0
  1  3  1  0
  1  4  1  0
  1  5  1  0
  2  7  1  0
  6  8  1  0
  6  9  1  0
  6 10  1  0
M  RAD  1   6   2
M  END
>  <reaction>  (4) 
rxn_321

>  <mol_properties>  (4) 
{"0": {"label": "*0", "atom_type": "Cs"}, "1": {"label": "*1", "atom_type": "O2s"}, "5": {"label": "*3", "atom_type": "Cs"}, "6": {"label": "*2", "atom_type": "H0"}, "7": {"label": "*4", "atom_type": "H0"}}

>  <type>  (4) 
ts

$$$$
