
     RDKit          3D

  4  3  0  0  0  0  0  0  0  0999 V2000
    0.5949   -0.3853    0.2659 O   0  0  0  0  0  0  0  0  0  0  0  0
   -0.5918    0.4028    0.2462 O   0  0  0  0  0  0  0  0  0  0  0  0
    1.1865    0.1539   -0.2689 H   0  0  0  0  0  0  0  0  0  0  0  0
   -1.1896   -0.1714   -0.2432 H   0  0  0  0  0  0  0  0  0  0  0  0
  1  2  1  0
  1  3  1  0
  2  4  1  0
M  END
>  <reaction>  (1) 
rxn_779

>  <mol_properties>  (1) 
{"1": {"label": "donator", "atom_type": "O2s"}, "3": {"label": "d_hydrogen", "atom_type": "H0"}}

>  <type>  (1) 
r1h

$$$$

     RDKit          3D

 14 13  0  0  0  0  0  0  0  0999 V2000
   -0.0263    1.3824   -0.7006 C   0  0  0  0  0  0  0  0  0  0  0  0
   -0.2039   -0.0453   -0.3213 C   0  0  0  0  0  3  0  0  0  0  0  0
   -1.1121   -0.3782    0.8104 C   0  0  0  0  0  0  0  0  0  0  0  0
    0.8313   -1.0381   -0.7322 C   0  0  0  0  0  0  0  0  0  0  0  0
    0.3307   -2.3541   -0.9005 O   0  0  0  0  0  0  0  0  0  0  0  0
    0.6071    1.9181    0.0231 H   0  0  0  0  0  0  0  0  0  0  0  0
   -0.9831    1.9109   -0.7211 H   0  0  0  0  0  0  0  0  0  0  0  0
    0.4475    1.4899   -1.6787 H   0  0  0  0  0  0  0  0  0  0  0  0
   -2.0864    0.1051    0.6984 H   0  0  0  0  0  0  0  0  0  0  0  0
   -1.2623   -1.4541    0.9003 H   0  0  0  0  0  0  0  0  0  0  0  0
   -0.6968   -0.0235    1.7662 H   0  0  0  0  0  0  0  0  0  0  0  0
    1.6088   -1.1338    0.0391 H   0  0  0  0  0  0  0  0  0  0  0  0
    1.3350   -0.6925   -1.6447 H   0  0  0  0  0  0  0  0  0  0  0  0
   -0.3997   -2.3102   -1.5208 H   0  0  0  0  0  0  0  0  0  0  0  0
  1  2  1  0
  1  6  1  0
  1  7  1  0
  1  8  1  0
  2  3  1  0
  2  4  1  0
  3  9  1  0
  3 10  1  0
  3 11  1  0
  4  5  1  0
  4 12  1  0
  4 13  1  0
  5 14  1  0
M  RAD  1   2   2
M  END
>  <reaction>  (2) 
rxn_779

>  <mol_properties>  (2) 
{"1": {"label": "acceptor", "atom_type": "Cs"}}

>  <type>  (2) 
r2

$$$$

     RDKit          3D

 15 14  0  0  0  0  0  0  0  0999 V2000
   -0.6986    1.3249   -0.1641 C   0  0  0  0  0  0  0  0  0  0  0  0
   -0.2590   -0.0344    0.3671 C   0  0  0  0  0  0  0  0  0  0  0  0
   -0.4734   -0.1429    1.8733 C   0  0  0  0  0  0  0  0  0  0  0  0
   -0.9841   -1.1722   -0.3462 C   0  0  0  0  0  0  0  0  0  0  0  0
   -0.7805   -1.1911   -1.7444 O   0  0  0  0  0  0  0  0  0  0  0  0
   -0.1246    2.1306    0.2976 H   0  0  0  0  0  0  0  0  0  0  0  0
   -1.7557    1.4964    0.0581 H   0  0  0  0  0  0  0  0  0  0  0  0
   -0.5709    1.3852   -1.2449 H   0  0  0  0  0  0  0  0  0  0  0  0
    0.8141   -0.1541    0.1667 H   0  0  0  0  0  0  0  0  0  0  0  0
   -1.5346   -0.0466    2.1192 H   0  0  0  0  0  0  0  0  0  0  0  0
    0.0611    0.6480    2.4019 H   0  0  0  0  0  0  0  0  0  0  0  0
   -0.1249   -1.1023    2.2618 H   0  0  0  0  0  0  0  0  0  0  0  0
   -0.6918   -2.1316    0.1011 H   0  0  0  0  0  0  0  0  0  0  0  0
   -2.0629   -1.0627   -0.2056 H   0  0  0  0  0  0  0  0  0  0  0  0
    0.1528   -1.3298   -1.9125 H   0  0  0  0  0  0  0  0  0  0  0  0
  1  2  1  0
  1  6  1  0
  1  7  1  0
  1  8  1  0
  2  3  1  0
  2  4  1  0
  2  9  1  0
  3 10  1  0
  3 11  1  0
  3 12  1  0
  4  5  1  0
  4 13  1  0
  4 14  1  0
  5 15  1  0
M  END
>  <reaction>  (3) 
rxn_779

>  <mol_properties>  (3) 
{"0": {"label": "a_hydrogen", "atom_type": "H0"}, "2": {"label": "acceptor", "atom_type": "Cs"}}

>  <type>  (3) 
r2h

$$$$

     RDKit          3D

 18 16  0  0  0  0  0  0  0  0999 V2000
    1.0730   -1.6581   -1.2682 O   0  0  0  0  0  0  0  0  0  0  0  0
   -0.1890   -1.7591   -0.6965 O   0  0  0  0  0  0  0  0  0  0  0  0
    1.6437   -2.1096   -0.6353 H   0  0  0  0  0  0  0  0  0  0  0  0
   -0.3361   -0.7109   -0.0642 H   0  0  0  0  0  0  0  0  0  0  0  0
    0.5495    0.3669    1.6630 C   0  0  0  0  0  0  0  0  0  0  0  0
   -0.4507    0.4329    0.5383 C   0  0  0  0  0  3  0  0  0  0  0  0
   -1.8968    0.4698    0.9618 C   0  0  0  0  0  0  0  0  0  0  0  0
   -0.1145    1.4167   -0.5657 C   0  0  0  0  0  0  0  0  0  0  0  0
    1.2026    1.3103   -1.0452 O   0  0  0  0  0  0  0  0  0  0  0  0
    0.5037    1.2887    2.2551 H   0  0  0  0  0  0  0  0  0  0  0  0
    1.5668    0.2766    1.2830 H   0  0  0  0  0  0  0  0  0  0  0  0
    0.3381   -0.4687    2.3320 H   0  0  0  0  0  0  0  0  0  0  0  0
   -2.1140    1.4128    1.4771 H   0  0  0  0  0  0  0  0  0  0  0  0
   -2.5681    0.3960    0.1048 H   0  0  0  0  0  0  0  0  0  0  0  0
   -2.1285   -0.3423    1.6522 H   0  0  0  0  0  0  0  0  0  0  0  0
   -0.2203    2.4354   -0.1731 H   0  0  0  0  0  0  0  0  0  0  0  0
   -0.8444    1.3064   -1.3781 H   0  0  0  0  0  0  0  0  0  0  0  0
    1.3171    0.4219   -1.3999 H   0  0  0  0  0  0  0  0  0  0  0  0
  1  2  1  0
  1  3  1  0
  2  4  1  0
  5  6  1  0
  5 10  1  0
  5 11  1  0
  5 12  1  0
  6  7  1  0
  6  8  1  0
  7 13  1  0
  7 14  1  0
  7 15  1  0
  8  9  1  0
  8 16  1  0
  8 17  1  0
  9 18  1  0
M  RAD  1   6   2
M  END
>  <reaction>  (4) 
rxn_779

>  <mol_properties>  (4) 
{"0": {"label": "*0", "atom_type": "O2s"}, "1": {"label": "*1", "atom_type": "O2s"}, "3": {"label": "*2", "atom_type": "H0"}, "5": {"label": "*3", "atom_type": "Cs"}, "7": {"label": "*4", "atom_type": "Cs"}}

>  <type>  (4) 
ts

$$$$
