
     RDKit          3D

  7  6  0  0  0  0  0  0  0  0999 V2000
    1.2985   -0.0065   -0.2721 C   0  0  0  0  0  0  0  0  0  0  0  0
    0.0000    0.0000   -0.2926 C   0  0  0  0  0  0  0  0  0  0  0  0
   -1.2985    0.0065   -0.3130 C   0  0  0  0  0  0  0  0  0  0  0  0
    1.8444   -0.7551    0.2895 H   0  0  0  0  0  0  0  0  0  0  0  0
    1.8693    0.7364   -0.8162 H   0  0  0  0  0  0  0  0  0  0  0  0
   -1.8658    0.5623    0.4239 H   0  0  0  0  0  0  0  0  0  0  0  0
   -1.8479   -0.5437   -1.0675 H   0  0  0  0  0  0  0  0  0  0  0  0
  1  2  2  0
  1  4  1  0
  1  5  1  0
  2  3  2  0
  3  6  1  0
  3  7  1  0
M  END
>  <reaction>  (1) 
rxn_1834

>  <mol_properties>  (1) 
{"0": {"label": "donator", "atom_type": "Cd"}, "3": {"label": "d_hydrogen", "atom_type": "H0"}}

>  <type>  (1) 
r1h

$$$$

     RDKit          3D

  6  5  0  0  0  0  0  0  0  0999 V2000
   -0.5027    0.1226    0.0381 C   0  0  0  0  0  0  0  0  0  0  0  0
    0.9546    0.1077    0.2161 C   0  0  0  0  0  3  0  0  0  0  0  0
    2.2010   -0.6803   -0.2886 S   0  0  0  0  0  0  0  0  0  0  0  0
   -0.8605   -0.6429   -0.6574 H   0  0  0  0  0  0  0  0  0  0  0  0
   -0.8093    1.1092   -0.3181 H   0  0  0  0  0  0  0  0  0  0  0  0
   -0.9831   -0.0162    1.0099 H   0  0  0  0  0  0  0  0  0  0  0  0
  1  2  1  0
  1  4  1  0
  1  5  1  0
  1  6  1  0
  2  3  2  0
M  RAD  1   2   2
M  END
>  <reaction>  (2) 
rxn_1834

>  <mol_properties>  (2) 
{"1": {"label": "acceptor", "atom_type": "CS"}}

>  <type>  (2) 
r2

$$$$

     RDKit          3D

  7  6  0  0  0  0  0  0  0  0999 V2000
   -0.6782    0.0507    0.0301 C   0  0  0  0  0  0  0  0  0  0  0  0
    0.8092    0.0996    0.0213 C   0  0  0  0  0  0  0  0  0  0  0  0
    1.7473    0.7521    1.1507 S   0  0  0  0  0  0  0  0  0  0  0  0
   -1.0667    0.5456   -0.8653 H   0  0  0  0  0  0  0  0  0  0  0  0
   -1.0112   -0.9904   -0.0239 H   0  0  0  0  0  0  0  0  0  0  0  0
   -1.0920    0.5225    0.9188 H   0  0  0  0  0  0  0  0  0  0  0  0
    1.2740   -0.3620   -0.8520 H   0  0  0  0  0  0  0  0  0  0  0  0
  1  2  1  0
  1  4  1  0
  1  5  1  0
  1  6  1  0
  2  3  2  0
  2  7  1  0
M  END
>  <reaction>  (3) 
rxn_1834

>  <mol_properties>  (3) 
{"0": {"label": "a_hydrogen", "atom_type": "H0"}, "2": {"label": "acceptor", "atom_type": "CS"}}

>  <type>  (3) 
r2h

$$$$

     RDKit          3D

 13 11  0  0  0  0  0  0  0  0999 V2000
    0.8293    1.3553   -0.6167 C   0  0  0  0  0  0  0  0  0  0  0  0
    0.8720    1.1560   -1.8715 C   0  0  0  0  0  0  0  0  0  0  0  0
    0.8712    0.8533   -3.1537 C   0  0  0  0  0  3  0  0  0  0  0  0
    0.2959    0.3490    0.1539 H   0  0  0  0  0  0  0  0  0  0  0  0
    1.1338    2.1799    0.0087 H   0  0  0  0  0  0  0  0  0  0  0  0
    0.0346    1.1184   -3.7881 H   0  0  0  0  0  0  0  0  0  0  0  0
    1.7207    0.3609   -3.6103 H   0  0  0  0  0  0  0  0  0  0  0  0
   -0.5840   -1.6958   -0.2143 C   0  0  0  0  0  0  0  0  0  0  0  0
   -0.2276   -0.6674    0.7872 C   0  0  0  0  0  0  0  0  0  0  0  0
   -0.3683   -0.6111    2.3620 S   0  0  0  0  0  0  0  0  0  0  0  0
   -1.0297   -2.5818    0.2369 H   0  0  0  0  0  0  0  0  0  0  0  0
    0.3136   -1.9711   -0.7753 H   0  0  0  0  0  0  0  0  0  0  0  0
   -1.2729   -1.2583   -0.9425 H   0  0  0  0  0  0  0  0  0  0  0  0
  1  2  3  0
  1  5  1  0
  2  3  1  0
  3  6  1  0
  3  7  1  0
  4  9  1  0
  8  9  1  0
  8 11  1  0
  8 12  1  0
  8 13  1  0
  9 10  2  0
M  RAD  1   3   2
M  END
>  <reaction>  (4) 
rxn_1834

>  <mol_properties>  (4) 
{"0": {"label": "*3", "atom_type": "Ct"}, "1": {"label": "*4", "atom_type": "Ct"}, "3": {"label": "*2", "atom_type": "H0"}, "8": {"label": "*1", "atom_type": "CS"}, "9": {"label": "*0", "atom_type": "S2d"}}

>  <type>  (4) 
ts

$$$$
