
     RDKit          3D

 14 13  0  0  0  0  0  0  0  0999 V2000
   -0.7647   -1.2351   -0.0349 C   0  0  0  0  0  0  0  0  0  0  0  0
    0.0570   -0.0126    0.3624 C   0  0  0  0  0  0  0  0  0  0  0  0
    1.4161   -0.0194   -0.3307 C   0  0  0  0  0  0  0  0  0  0  0  0
   -0.7022    1.2765    0.0629 C   0  0  0  0  0  0  0  0  0  0  0  0
   -0.2387   -2.1618    0.2039 H   0  0  0  0  0  0  0  0  0  0  0  0
   -0.9625   -1.2315   -1.1108 H   0  0  0  0  0  0  0  0  0  0  0  0
   -1.7273   -1.2512    0.4806 H   0  0  0  0  0  0  0  0  0  0  0  0
    0.2295   -0.0590    1.4432 H   0  0  0  0  0  0  0  0  0  0  0  0
    1.2933    0.0259   -1.4168 H   0  0  0  0  0  0  0  0  0  0  0  0
    2.0206    0.8382   -0.0278 H   0  0  0  0  0  0  0  0  0  0  0  0
    1.9767   -0.9268   -0.0965 H   0  0  0  0  0  0  0  0  0  0  0  0
   -1.6638    1.3002    0.5800 H   0  0  0  0  0  0  0  0  0  0  0  0
   -0.8978    1.3663   -1.0096 H   0  0  0  0  0  0  0  0  0  0  0  0
   -0.1313    2.1545    0.3721 H   0  0  0  0  0  0  0  0  0  0  0  0
  1  2  1  0
  1  5  1  0
  1  6  1  0
  1  7  1  0
  2  3  1  0
  2  4  1  0
  2  8  1  0
  3  9  1  0
  3 10  1  0
  3 11  1  0
  4 12  1  0
  4 13  1  0
  4 14  1  0
M  END
>  <reaction>  (1) 
rxn_969

>  <mol_properties>  (1) 
{"1": {"label": "donator", "atom_type": "Cs"}, "7": {"label": "d_hydrogen", "atom_type": "H0"}}

>  <type>  (1) 
r1h

$$$$

     RDKit          3D

  8  7  0  0  0  0  0  0  0  0999 V2000
    1.4038   -0.4003    0.0140 C   0  0  0  0  0  0  0  0  0  0  0  0
    0.2804    0.0563    0.4920 C   0  0  0  0  0  3  0  0  0  0  0  0
   -1.0935    0.3323    0.0625 C   0  0  0  0  0  0  0  0  0  0  0  0
    1.4898   -0.7154   -1.0285 H   0  0  0  0  0  0  0  0  0  0  0  0
    2.2990   -0.4891    0.6210 H   0  0  0  0  0  0  0  0  0  0  0  0
   -1.3399    1.3883    0.1900 H   0  0  0  0  0  0  0  0  0  0  0  0
   -1.2285    0.0762   -0.9967 H   0  0  0  0  0  0  0  0  0  0  0  0
   -1.8111   -0.2482    0.6457 H   0  0  0  0  0  0  0  0  0  0  0  0
  1  2  2  3
  1  4  1  0
  1  5  1  0
  2  3  1  0
  3  6  1  0
  3  7  1  0
  3  8  1  0
M  RAD  1   2   2
M  END
>  <reaction>  (2) 
rxn_969

>  <mol_properties>  (2) 
{"1": {"label": "acceptor", "atom_type": "Cd"}}

>  <type>  (2) 
r2

$$$$

     RDKit          3D

  9  8  0  0  0  0  0  0  0  0999 V2000
    1.1303   -0.2933   -0.7510 C   0  0  0  0  0  0  0  0  0  0  0  0
    0.2866    0.4560   -0.0588 C   0  0  0  0  0  0  0  0  0  0  0  0
   -0.9719   -0.0331    0.5823 C   0  0  0  0  0  0  0  0  0  0  0  0
    2.0274    0.1230   -1.1916 H   0  0  0  0  0  0  0  0  0  0  0  0
    0.9532   -1.3530   -0.9023 H   0  0  0  0  0  0  0  0  0  0  0  0
    0.5065    1.5132    0.0659 H   0  0  0  0  0  0  0  0  0  0  0  0
   -0.9526    0.1426    1.6610 H   0  0  0  0  0  0  0  0  0  0  0  0
   -1.1182   -1.1002    0.4106 H   0  0  0  0  0  0  0  0  0  0  0  0
   -1.8412    0.5010    0.1901 H   0  0  0  0  0  0  0  0  0  0  0  0
  1  2  2  3
  1  4  1  0
  1  5  1  0
  2  3  1  0
  2  6  1  0
  3  7  1  0
  3  8  1  0
  3  9  1  0
M  END
>  <reaction>  (3) 
rxn_969

>  <mol_properties>  (3) 
{"1": {"label": "acceptor", "atom_type": "Cd"}, "8": {"label": "a_hydrogen", "atom_type": "H0"}}

>  <type>  (3) 
r2h

$$$$

     RDKit          3D

 22 20  0  0  0  0  0  0  0  0999 V2000
    2.2691   -0.8478   -0.3351 C   0  0  0  0  0  0  0  0  0  0  0  0
    1.3054   -0.6731    0.5412 C   0  0  0  0  0  3  0  0  0  0  0  0
    1.2252   -1.0019    1.9829 C   0  0  0  0  0  0  0  0  0  0  0  0
    3.2183   -1.3060   -0.0578 H   0  0  0  0  0  0  0  0  0  0  0  0
    2.1602   -0.5435   -1.3706 H   0  0  0  0  0  0  0  0  0  0  0  0
    0.3967   -1.6869    2.1790 H   0  0  0  0  0  0  0  0  0  0  0  0
    2.1490   -1.4695    2.3393 H   0  0  0  0  0  0  0  0  0  0  0  0
    1.0455   -0.1022    2.5765 H   0  0  0  0  0  0  0  0  0  0  0  0
   -0.6307    0.7290   -1.8890 C   0  0  0  0  0  0  0  0  0  0  0  0
   -0.9270    0.4837   -0.4265 C   0  0  0  0  0  0  0  0  0  0  0  0
   -1.0913    1.7535    0.3783 C   0  0  0  0  0  0  0  0  0  0  0  0
   -2.0259   -0.5290   -0.1938 C   0  0  0  0  0  0  0  0  0  0  0  0
    0.2309    1.3886   -2.0124 H   0  0  0  0  0  0  0  0  0  0  0  0
   -1.4853    1.2034   -2.3857 H   0  0  0  0  0  0  0  0  0  0  0  0
   -0.4223   -0.2067   -2.4123 H   0  0  0  0  0  0  0  0  0  0  0  0
    0.1209   -0.0601    0.0311 H   0  0  0  0  0  0  0  0  0  0  0  0
   -1.9750    2.3126    0.0497 H   0  0  0  0  0  0  0  0  0  0  0  0
   -1.2164    1.5357    1.4414 H   0  0  0  0  0  0  0  0  0  0  0  0
   -0.2239    2.4074    0.2654 H   0  0  0  0  0  0  0  0  0  0  0  0
   -1.8113   -1.4691   -0.7063 H   0  0  0  0  0  0  0  0  0  0  0  0
   -2.9861   -0.1565   -0.5693 H   0  0  0  0  0  0  0  0  0  0  0  0
   -2.1493   -0.7427    0.8703 H   0  0  0  0  0  0  0  0  0  0  0  0
  1  2  2  3
  1  4  1  0
  1  5  1  0
  2  3  1  0
  3  6  1  0
  3  7  1  0
  3  8  1  0
  9 10  1  0
  9 13  1  0
  9 14  1  0
  9 15  1  0
 10 11  1  0
 10 12  1  0
 10 16  1  0
 11 17  1  0
 11 18  1  0
 11 19  1  0
 12 20  1  0
 12 21  1  0
 12 22  1  0
M  RAD  1   2   2
M  END
>  <reaction>  (4) 
rxn_969

>  <mol_properties>  (4) 
{"0": {"label": "*4", "atom_type": "Cd"}, "1": {"label": "*3", "atom_type": "Cd"}, "8": {"label": "*0", "atom_type": "Cs"}, "9": {"label": "*1", "atom_type": "Cs"}, "15": {"label": "*2", "atom_type": "H0"}}

>  <type>  (4) 
ts

$$$$
