
     RDKit          3D

 16 15  0  0  0  0  0  0  0  0999 V2000
    1.7961   -0.3807    1.6176 C   0  0  0  0  0  0  0  0  0  0  0  0
    0.8562   -0.8708    0.8256 C   0  0  0  0  0  0  0  0  0  0  0  0
    0.0895   -0.0826   -0.2048 C   0  0  0  0  0  0  0  0  0  0  0  0
   -1.4061   -0.1111    0.0982 C   0  0  0  0  0  0  0  0  0  0  0  0
    0.4476   -0.5902   -1.5797 C   0  0  0  0  0  0  0  0  0  0  0  0
   -0.3793   -1.1113   -2.4728 C   0  0  0  0  0  0  0  0  0  0  0  0
    2.3110   -1.0032    2.3386 H   0  0  0  0  0  0  0  0  0  0  0  0
    2.0846    0.6643    1.5737 H   0  0  0  0  0  0  0  0  0  0  0  0
    0.5921   -1.9241    0.8925 H   0  0  0  0  0  0  0  0  0  0  0  0
    0.4358    0.9557   -0.1462 H   0  0  0  0  0  0  0  0  0  0  0  0
   -1.5968    0.3080    1.0865 H   0  0  0  0  0  0  0  0  0  0  0  0
   -1.9674    0.4693   -0.6359 H   0  0  0  0  0  0  0  0  0  0  0  0
   -1.7902   -1.1338    0.0883 H   0  0  0  0  0  0  0  0  0  0  0  0
    1.5049   -0.5197   -1.8214 H   0  0  0  0  0  0  0  0  0  0  0  0
   -1.4421   -1.2131   -2.2889 H   0  0  0  0  0  0  0  0  0  0  0  0
   -0.0162   -1.4558   -3.4328 H   0  0  0  0  0  0  0  0  0  0  0  0
  1  2  2  3
  1  7  1  0
  1  8  1  0
  2  3  1  0
  2  9  1  0
  3  4  1  0
  3  5  1  0
  3 10  1  0
  4 11  1  0
  4 12  1  0
  4 13  1  0
  5  6  2  3
  5 14  1  0
  6 15  1  0
  6 16  1  0
M  END
>  <reaction>  (1) 
rxn_1179

>  <mol_properties>  (1) 
{"2": {"label": "donator", "atom_type": "Cs"}, "9": {"label": "d_hydrogen", "atom_type": "H0"}}

>  <type>  (1) 
r1h

$$$$

     RDKit          3D

  9  8  0  0  0  0  0  0  0  0999 V2000
    2.3038   -0.0269    0.1590 C   0  0  0  0  0  0  0  0  0  0  0  0
    1.1426    0.1377   -0.1648 C   0  0  0  0  0  0  0  0  0  0  0  0
   -0.1694    0.3175   -0.5203 C   0  0  0  0  0  3  0  0  0  0  0  0
   -1.3163   -0.1910    0.2856 C   0  0  0  0  0  0  0  0  0  0  0  0
    3.3199   -0.1683    0.4378 H   0  0  0  0  0  0  0  0  0  0  0  0
   -0.3786    0.8584   -1.4360 H   0  0  0  0  0  0  0  0  0  0  0  0
   -1.9694    0.6309    0.5951 H   0  0  0  0  0  0  0  0  0  0  0  0
   -1.9325   -0.8770   -0.3039 H   0  0  0  0  0  0  0  0  0  0  0  0
   -0.9753   -0.7144    1.1774 H   0  0  0  0  0  0  0  0  0  0  0  0
  1  2  3  0
  1  5  1  0
  2  3  1  0
  3  4  1  0
  3  6  1  0
  4  7  1  0
  4  8  1  0
  4  9  1  0
M  RAD  1   3   2
M  END
>  <reaction>  (2) 
rxn_1179

>  <mol_properties>  (2) 
{"2": {"label": "acceptor", "atom_type": "Cs"}}

>  <type>  (2) 
r2

$$$$

     RDKit          3D

 10  9  0  0  0  0  0  0  0  0999 V2000
    2.2738    0.0217   -0.0992 C   0  0  0  0  0  0  0  0  0  0  0  0
    1.1083    0.2960   -0.0695 C   0  0  0  0  0  0  0  0  0  0  0  0
   -0.3173    0.6046   -0.0227 C   0  0  0  0  0  0  0  0  0  0  0  0
   -1.1561   -0.5495    0.5292 C   0  0  0  0  0  0  0  0  0  0  0  0
    3.3097   -0.2166   -0.1277 H   0  0  0  0  0  0  0  0  0  0  0  0
   -0.6542    0.8617   -1.0302 H   0  0  0  0  0  0  0  0  0  0  0  0
   -0.4633    1.4978    0.5900 H   0  0  0  0  0  0  0  0  0  0  0  0
   -0.8485   -0.7997    1.5447 H   0  0  0  0  0  0  0  0  0  0  0  0
   -2.2115   -0.2752    0.5459 H   0  0  0  0  0  0  0  0  0  0  0  0
   -1.0409   -1.4407   -0.0879 H   0  0  0  0  0  0  0  0  0  0  0  0
  1  2  3  0
  1  5  1  0
  2  3  1  0
  3  4  1  0
  3  6  1  0
  3  7  1  0
  4  8  1  0
  4  9  1  0
  4 10  1  0
M  END
>  <reaction>  (3) 
rxn_1179

>  <mol_properties>  (3) 
{"2": {"label": "acceptor", "atom_type": "Cs"}, "9": {"label": "a_hydrogen", "atom_type": "H0"}}

>  <type>  (3) 
r2h

$$$$

     RDKit          3D

 25 23  0  0  0  0  0  0  0  0999 V2000
    2.2992    1.7745   -1.4862 C   0  0  0  0  0  0  0  0  0  0  0  0
    1.1767    1.7808   -1.0458 C   0  0  0  0  0  0  0  0  0  0  0  0
   -0.1345    1.7199   -0.5255 C   0  0  0  0  0  3  0  0  0  0  0  0
   -1.2900    1.6496   -1.4900 C   0  0  0  0  0  0  0  0  0  0  0  0
    3.2873    1.7878   -1.8782 H   0  0  0  0  0  0  0  0  0  0  0  0
   -0.2985    2.3243    0.3643 H   0  0  0  0  0  0  0  0  0  0  0  0
   -2.2127    1.4105   -0.9586 H   0  0  0  0  0  0  0  0  0  0  0  0
   -1.4348    2.6024   -2.0062 H   0  0  0  0  0  0  0  0  0  0  0  0
   -1.1128    0.8821   -2.2448 H   0  0  0  0  0  0  0  0  0  0  0  0
    0.6425   -2.2182   -1.1998 C   0  0  0  0  0  0  0  0  0  0  0  0
   -0.3578   -1.6141   -0.5634 C   0  0  0  0  0  0  0  0  0  0  0  0
   -0.2503   -0.7379    0.6202 C   0  0  0  0  0  0  0  0  0  0  0  0
    1.0662   -0.7475    1.3620 C   0  0  0  0  0  0  0  0  0  0  0  0
   -1.4819   -0.6894    1.4356 C   0  0  0  0  0  0  0  0  0  0  0  0
   -1.5661   -0.4691    2.7448 C   0  0  0  0  0  0  0  0  0  0  0  0
    0.4558   -2.8157   -2.0825 H   0  0  0  0  0  0  0  0  0  0  0  0
    1.6699   -2.1471   -0.8663 H   0  0  0  0  0  0  0  0  0  0  0  0
   -1.3638   -1.7336   -0.9585 H   0  0  0  0  0  0  0  0  0  0  0  0
   -0.2206    0.4222    0.0842 H   0  0  0  0  0  0  0  0  0  0  0  0
    1.8959   -0.5721    0.6774 H   0  0  0  0  0  0  0  0  0  0  0  0
    1.0958    0.0439    2.1113 H   0  0  0  0  0  0  0  0  0  0  0  0
    1.2258   -1.7046    1.8650 H   0  0  0  0  0  0  0  0  0  0  0  0
   -2.4060   -0.8249    0.8783 H   0  0  0  0  0  0  0  0  0  0  0  0
   -0.6914   -0.3380    3.3694 H   0  0  0  0  0  0  0  0  0  0  0  0
   -2.5283   -0.4283    3.2383 H   0  0  0  0  0  0  0  0  0  0  0  0
  1  2  3  0
  1  5  1  0
  2  3  1  0
  3  4  1  0
  3  6  1  0
  4  7  1  0
  4  8  1  0
  4  9  1  0
 10 11  2  3
 10 16  1  0
 10 17  1  0
 11 12  1  0
 11 18  1  0
 12 13  1  0
 12 14  1  0
 12 19  1  0
 13 20  1  0
 13 21  1  0
 13 22  1  0
 14 15  2  3
 14 23  1  0
 15 24  1  0
 15 25  1  0
M  RAD  1   3   2
M  END
>  <reaction>  (4) 
rxn_1179

>  <mol_properties>  (4) 
{"1": {"label": "*4", "atom_type": "Ct"}, "2": {"label": "*3", "atom_type": "Cs"}, "10": {"label": "*0", "atom_type": "Cd"}, "11": {"label": "*1", "atom_type": "Cs"}, "18": {"label": "*2", "atom_type": "H0"}}

>  <type>  (4) 
ts

$$$$
