
     RDKit          3D

 25 26  0  0  0  0  0  0  0  0999 V2000
    2.0298   -1.1515    0.0571 C   0  0  0  0  0  0  0  0  0  0  0  0
    2.2278    0.2445    0.6528 C   0  0  0  0  0  0  0  0  0  0  0  0
    1.2292    1.2625    0.0947 C   0  0  0  0  0  0  0  0  0  0  0  0
   -0.1869    0.7454    0.2762 C   0  0  0  0  0  0  0  0  0  0  0  0
   -1.3415    1.5501   -0.3122 C   0  0  0  0  0  0  0  0  0  0  0  0
   -2.5060    0.5338   -0.4178 C   0  0  0  0  0  0  0  0  0  0  0  0
   -1.8709   -0.8658   -0.2234 C   0  0  0  0  0  0  0  0  0  0  0  0
   -0.3715   -0.6265   -0.3693 C   0  0  0  0  0  0  0  0  0  0  0  0
    0.5898   -1.6500    0.2086 C   0  0  0  0  0  0  0  0  0  0  0  0
    2.2820   -1.1226   -1.0088 H   0  0  0  0  0  0  0  0  0  0  0  0
    2.7243   -1.8549    0.5221 H   0  0  0  0  0  0  0  0  0  0  0  0
    2.1030    0.1885    1.7400 H   0  0  0  0  0  0  0  0  0  0  0  0
    3.2514    0.5819    0.4743 H   0  0  0  0  0  0  0  0  0  0  0  0
    1.3611    2.2304    0.5855 H   0  0  0  0  0  0  0  0  0  0  0  0
    1.4198    1.4194   -0.9737 H   0  0  0  0  0  0  0  0  0  0  0  0
   -0.3675    0.6209    1.3539 H   0  0  0  0  0  0  0  0  0  0  0  0
   -1.5992    2.4249    0.2862 H   0  0  0  0  0  0  0  0  0  0  0  0
   -1.0595    1.9116   -1.3055 H   0  0  0  0  0  0  0  0  0  0  0  0
   -3.2666    0.7244    0.3399 H   0  0  0  0  0  0  0  0  0  0  0  0
   -3.0030    0.6112   -1.3853 H   0  0  0  0  0  0  0  0  0  0  0  0
   -2.2549   -1.6039   -0.9288 H   0  0  0  0  0  0  0  0  0  0  0  0
   -2.0796   -1.2429    0.7821 H   0  0  0  0  0  0  0  0  0  0  0  0
   -0.1432   -0.5121   -1.4391 H   0  0  0  0  0  0  0  0  0  0  0  0
    0.4720   -2.6209   -0.2799 H   0  0  0  0  0  0  0  0  0  0  0  0
    0.3601   -1.7986    1.2704 H   0  0  0  0  0  0  0  0  0  0  0  0
  1  2  1  0
  1  9  1  0
  1 10  1  0
  1 11  1  0
  2  3  1  0
  2 12  1  0
  2 13  1  0
  3  4  1  0
  3 14  1  0
  3 15  1  0
  4  5  1  0
  4  8  1  0
  4 16  1  0
  5  6  1  0
  5 17  1  0
  5 18  1  0
  6  7  1  0
  6 19  1  0
  6 20  1  0
  7  8  1  0
  7 21  1  0
  7 22  1  0
  8  9  1  0
  8 23  1  0
  9 24  1  0
  9 25  1  0
M  END
>  <reaction>  (1) 
rxn_618

>  <mol_properties>  (1) 
{"5": {"label": "donator", "atom_type": "Cs"}, "18": {"label": "d_hydrogen", "atom_type": "H0"}}

>  <type>  (1) 
r1h

$$$$

     RDKit          3D

  9  8  0  0  0  0  0  0  0  0999 V2000
    1.8963   -0.1405   -0.2150 C   0  0  0  0  0  0  0  0  0  0  0  0
    0.6340    0.1486   -0.2254 C   0  0  0  0  0  3  0  0  0  0  0  0
   -0.6770    0.4501   -0.2373 C   0  0  0  0  0  0  0  0  0  0  0  0
   -1.6600   -0.2303    0.4662 C   0  0  0  0  0  0  0  0  0  0  0  0
    2.3274   -0.8354   -0.9313 H   0  0  0  0  0  0  0  0  0  0  0  0
    2.5751    0.2988    0.5117 H   0  0  0  0  0  0  0  0  0  0  0  0
   -0.9723    1.2966   -0.8520 H   0  0  0  0  0  0  0  0  0  0  0  0
   -2.6934    0.0777    0.4015 H   0  0  0  0  0  0  0  0  0  0  0  0
   -1.4140   -1.0782    1.0904 H   0  0  0  0  0  0  0  0  0  0  0  0
  1  2  2  3
  1  5  1  0
  1  6  1  0
  2  3  1  0
  3  4  2  3
  3  7  1  0
  4  8  1  0
  4  9  1  0
M  RAD  1   2   2
M  END
>  <reaction>  (2) 
rxn_618

>  <mol_properties>  (2) 
{"1": {"label": "acceptor", "atom_type": "Cd"}}

>  <type>  (2) 
r2

$$$$

     RDKit          3D

 10  9  0  0  0  0  0  0  0  0999 V2000
    1.8334    0.0847   -0.1062 C   0  0  0  0  0  0  0  0  0  0  0  0
    0.5993   -0.4071   -0.0750 C   0  0  0  0  0  0  0  0  0  0  0  0
   -0.5993    0.4071    0.0750 C   0  0  0  0  0  0  0  0  0  0  0  0
   -1.8334   -0.0847    0.1062 C   0  0  0  0  0  0  0  0  0  0  0  0
    2.0179    1.1498   -0.0189 H   0  0  0  0  0  0  0  0  0  0  0  0
    2.6972   -0.5572   -0.2194 H   0  0  0  0  0  0  0  0  0  0  0  0
    0.4465   -1.4793   -0.1649 H   0  0  0  0  0  0  0  0  0  0  0  0
   -0.4465    1.4793    0.1649 H   0  0  0  0  0  0  0  0  0  0  0  0
   -2.0179   -1.1498    0.0189 H   0  0  0  0  0  0  0  0  0  0  0  0
   -2.6972    0.5572    0.2194 H   0  0  0  0  0  0  0  0  0  0  0  0
  1  2  2  3
  1  5  1  0
  1  6  1  0
  2  3  1  0
  2  7  1  0
  3  4  2  3
  3  8  1  0
  4  9  1  0
  4 10  1  0
M  END
>  <reaction>  (3) 
rxn_618

>  <mol_properties>  (3) 
{"1": {"label": "acceptor", "atom_type": "Cd"}, "9": {"label": "a_hydrogen", "atom_type": "H0"}}

>  <type>  (3) 
r2h

$$$$

     RDKit          3D

 34 34  0  0  0  0  0  0  0  0999 V2000
   -0.8497    2.4677    1.8216 C   0  0  0  0  0  0  0  0  0  0  0  0
   -0.0846    2.6920    0.7703 C   0  0  0  0  0  3  0  0  0  0  0  0
   -0.0385    3.8421   -0.1049 C   0  0  0  0  0  0  0  0  0  0  0  0
    0.7622    3.9507   -1.1608 C   0  0  0  0  0  0  0  0  0  0  0  0
   -0.7873    1.5450    2.3877 H   0  0  0  0  0  0  0  0  0  0  0  0
   -1.5778    3.2021    2.1640 H   0  0  0  0  0  0  0  0  0  0  0  0
   -0.7189    4.6592    0.1368 H   0  0  0  0  0  0  0  0  0  0  0  0
    0.7537    4.8339   -1.7859 H   0  0  0  0  0  0  0  0  0  0  0  0
    1.4484    3.1563   -1.4297 H   0  0  0  0  0  0  0  0  0  0  0  0
   -1.2296   -3.1867   -1.0640 C   0  0  0  0  0  0  0  0  0  0  0  0
   -1.4806   -3.1224    0.4448 C   0  0  0  0  0  0  0  0  0  0  0  0
   -0.2984   -2.5183    1.2086 C   0  0  0  0  0  0  0  0  0  0  0  0
    0.0516   -1.1658    0.6159 C   0  0  0  0  0  0  0  0  0  0  0  0
    1.2667   -0.4113    1.1426 C   0  0  0  0  0  0  0  0  0  0  0  0
    1.5005    0.6427    0.0648 C   0  0  0  0  0  0  0  0  0  0  0  0
    0.8769    0.1221   -1.2370 C   0  0  0  0  0  0  0  0  0  0  0  0
    0.3570   -1.2732   -0.8783 C   0  0  0  0  0  0  0  0  0  0  0  0
   -0.8278   -1.8292   -1.6482 C   0  0  0  0  0  0  0  0  0  0  0  0
   -0.4265   -3.9057   -1.2608 H   0  0  0  0  0  0  0  0  0  0  0  0
   -2.1191   -3.5678   -1.5709 H   0  0  0  0  0  0  0  0  0  0  0  0
   -2.3691   -2.5093    0.6319 H   0  0  0  0  0  0  0  0  0  0  0  0
   -1.7059   -4.1212    0.8254 H   0  0  0  0  0  0  0  0  0  0  0  0
   -0.5392   -2.4327    2.2715 H   0  0  0  0  0  0  0  0  0  0  0  0
    0.5708   -3.1822    1.1315 H   0  0  0  0  0  0  0  0  0  0  0  0
   -0.8224   -0.5070    0.7229 H   0  0  0  0  0  0  0  0  0  0  0  0
    1.1209    0.0238    2.1338 H   0  0  0  0  0  0  0  0  0  0  0  0
    2.1243   -1.0911    1.2130 H   0  0  0  0  0  0  0  0  0  0  0  0
    0.8196    1.6468    0.4094 H   0  0  0  0  0  0  0  0  0  0  0  0
    2.5167    1.0262   -0.0074 H   0  0  0  0  0  0  0  0  0  0  0  0
    1.5864    0.1042   -2.0660 H   0  0  0  0  0  0  0  0  0  0  0  0
    0.0446    0.7652   -1.5444 H   0  0  0  0  0  0  0  0  0  0  0  0
    1.1894   -1.9836   -0.9813 H   0  0  0  0  0  0  0  0  0  0  0  0
   -0.5948   -1.9294   -2.7116 H   0  0  0  0  0  0  0  0  0  0  0  0
   -1.6668   -1.1280   -1.5707 H   0  0  0  0  0  0  0  0  0  0  0  0
  1  2  2  3
  1  5  1  0
  1  6  1  0
  2  3  1  0
  3  4  2  3
  3  7  1  0
  4  8  1  0
  4  9  1  0
 10 11  1  0
 10 18  1  0
 10 19  1  0
 10 20  1  0
 11 12  1  0
 11 21  1  0
 11 22  1  0
 12 13  1  0
 12 23  1  0
 12 24  1  0
 13 14  1  0
 13 17  1  0
 13 25  1  0
 14 15  1  0
 14 26  1  0
 14 27  1  0
 15 16  1  0
 15 28  1  0
 15 29  1  0
 16 17  1  0
 16 30  1  0
 16 31  1  0
 17 18  1  0
 17 32  1  0
 18 33  1  0
 18 34  1  0
M  RAD  1   2   2
M  END
>  <reaction>  (4) 
rxn_618

>  <mol_properties>  (4) 
{"1": {"label": "*3", "atom_type": "Cd"}, "2": {"label": "*4", "atom_type": "Cd"}, "13": {"label": "*0", "atom_type": "Cs"}, "14": {"label": "*1", "atom_type": "Cs"}, "27": {"label": "*2", "atom_type": "H0"}}

>  <type>  (4) 
ts

$$$$
