
     RDKit          3D

 19 20  0  0  0  0  0  0  0  0999 V2000
    1.1087   -0.4716   -0.9619 C   0  0  0  0  0  0  0  0  0  0  0  0
    0.9355    1.0407   -0.6470 C   0  0  0  0  0  0  0  0  0  0  0  0
   -0.0085    1.0377    0.5657 C   0  0  0  0  0  0  0  0  0  0  0  0
   -1.4093    0.6181    0.0927 C   0  0  0  0  0  0  0  0  0  0  0  0
   -1.2361   -0.8942   -0.2222 C   0  0  0  0  0  0  0  0  0  0  0  0
    0.2422   -1.1516    0.1099 C   0  0  0  0  0  0  0  0  0  0  0  0
    0.4537   -0.2211    1.3118 C   0  0  0  0  0  0  0  0  0  0  0  0
    2.1524   -0.7752   -0.8653 H   0  0  0  0  0  0  0  0  0  0  0  0
    0.7855   -0.7316   -1.9710 H   0  0  0  0  0  0  0  0  0  0  0  0
    1.8918    1.5001   -0.3916 H   0  0  0  0  0  0  0  0  0  0  0  0
    0.5184    1.6005   -1.4855 H   0  0  0  0  0  0  0  0  0  0  0  0
    0.0038    1.9661    1.1351 H   0  0  0  0  0  0  0  0  0  0  0  0
   -1.7351    1.1944   -0.7746 H   0  0  0  0  0  0  0  0  0  0  0  0
   -2.1465    0.7723    0.8824 H   0  0  0  0  0  0  0  0  0  0  0  0
   -1.4680   -1.1377   -1.2601 H   0  0  0  0  0  0  0  0  0  0  0  0
   -1.8859   -1.5030    0.4087 H   0  0  0  0  0  0  0  0  0  0  0  0
    0.4812   -2.2025    0.2673 H   0  0  0  0  0  0  0  0  0  0  0  0
    1.4942   -0.1701    1.6391 H   0  0  0  0  0  0  0  0  0  0  0  0
   -0.1779   -0.4714    2.1666 H   0  0  0  0  0  0  0  0  0  0  0  0
  1  2  1  0
  1  6  1  0
  1  8  1  0
  1  9  1  0
  2  3  1  0
  2 10  1  0
  2 11  1  0
  3  4  1  0
  3  7  1  0
  3 12  1  0
  4  5  1  0
  4 13  1  0
  4 14  1  0
  5  6  1  0
  5 15  1  0
  5 16  1  0
  6  7  1  0
  6 17  1  0
  7 18  1  0
  7 19  1  0
M  END
>  <reaction>  (1) 
rxn_487

>  <mol_properties>  (1) 
{"0": {"label": "donator", "atom_type": "Cs"}, "7": {"label": "d_hydrogen", "atom_type": "H0"}}

>  <type>  (1) 
r1h

$$$$

     RDKit          3D

 10  9  0  0  0  0  0  0  0  0999 V2000
    1.2930    0.1441    0.3288 C   0  0  0  0  0  0  0  0  0  0  0  0
   -0.0374   -0.1647    0.9100 C   0  0  0  0  0  3  0  0  0  0  0  0
   -1.2664    0.4569    0.3567 C   0  0  0  0  0  0  0  0  0  0  0  0
    1.4384    1.2242    0.2174 H   0  0  0  0  0  0  0  0  0  0  0  0
    2.1077   -0.2477    0.9385 H   0  0  0  0  0  0  0  0  0  0  0  0
    1.4057   -0.2836   -0.6789 H   0  0  0  0  0  0  0  0  0  0  0  0
   -0.1309   -0.9912    1.6030 H   0  0  0  0  0  0  0  0  0  0  0  0
   -1.5005    0.0716   -0.6471 H   0  0  0  0  0  0  0  0  0  0  0  0
   -2.1382    0.2713    0.9849 H   0  0  0  0  0  0  0  0  0  0  0  0
   -1.1497    1.5406    0.2456 H   0  0  0  0  0  0  0  0  0  0  0  0
  1  2  1  0
  1  4  1  0
  1  5  1  0
  1  6  1  0
  2  3  1  0
  2  7  1  0
  3  8  1  0
  3  9  1  0
  3 10  1  0
M  RAD  1   2   2
M  END
>  <reaction>  (2) 
rxn_487

>  <mol_properties>  (2) 
{"1": {"label": "acceptor", "atom_type": "Cs"}}

>  <type>  (2) 
r2

$$$$

     RDKit          3D

 11 10  0  0  0  0  0  0  0  0999 V2000
   -1.2710    0.1907   -0.2084 C   0  0  0  0  0  0  0  0  0  0  0  0
    0.0202   -0.6130   -0.2928 C   0  0  0  0  0  0  0  0  0  0  0  0
    0.1086   -1.6953    0.7756 C   0  0  0  0  0  0  0  0  0  0  0  0
   -1.3607    0.6851    0.7620 H   0  0  0  0  0  0  0  0  0  0  0  0
   -2.1429   -0.4567   -0.3299 H   0  0  0  0  0  0  0  0  0  0  0  0
   -1.3158    0.9602   -0.9809 H   0  0  0  0  0  0  0  0  0  0  0  0
    0.8757    0.0616   -0.1992 H   0  0  0  0  0  0  0  0  0  0  0  0
    0.0997   -1.0712   -1.2825 H   0  0  0  0  0  0  0  0  0  0  0  0
   -0.7198   -2.4022    0.6850 H   0  0  0  0  0  0  0  0  0  0  0  0
    1.0395   -2.2596    0.6989 H   0  0  0  0  0  0  0  0  0  0  0  0
    0.0624   -1.2603    1.7770 H   0  0  0  0  0  0  0  0  0  0  0  0
  1  2  1  0
  1  4  1  0
  1  5  1  0
  1  6  1  0
  2  3  1  0
  2  7  1  0
  2  8  1  0
  3  9  1  0
  3 10  1  0
  3 11  1  0
M  END
>  <reaction>  (3) 
rxn_487

>  <mol_properties>  (3) 
{"1": {"label": "acceptor", "atom_type": "Cs"}, "10": {"label": "a_hydrogen", "atom_type": "H0"}}

>  <type>  (3) 
r2h

$$$$

     RDKit          3D

 29 29  0  0  0  0  0  0  0  0999 V2000
    1.1481   -2.4767    1.5275 C   0  0  0  0  0  0  0  0  0  0  0  0
    1.8686   -1.8351    0.3696 C   0  0  0  0  0  3  0  0  0  0  0  0
    2.9419   -0.8448    0.7406 C   0  0  0  0  0  0  0  0  0  0  0  0
    0.7034   -1.7203    2.1798 H   0  0  0  0  0  0  0  0  0  0  0  0
    0.3483   -3.1364    1.1862 H   0  0  0  0  0  0  0  0  0  0  0  0
    1.8308   -3.0748    2.1421 H   0  0  0  0  0  0  0  0  0  0  0  0
    2.2021   -2.5598   -0.3743 H   0  0  0  0  0  0  0  0  0  0  0  0
    3.7473   -1.3235    1.3104 H   0  0  0  0  0  0  0  0  0  0  0  0
    3.3917   -0.3877   -0.1426 H   0  0  0  0  0  0  0  0  0  0  0  0
    2.5391   -0.0431    1.3659 H   0  0  0  0  0  0  0  0  0  0  0  0
   -0.0431   -0.4515   -0.9288 C   0  0  0  0  0  0  0  0  0  0  0  0
    0.4487    0.9836   -1.1446 C   0  0  0  0  0  0  0  0  0  0  0  0
   -0.5005    1.7982   -0.2484 C   0  0  0  0  0  0  0  0  0  0  0  0
   -1.8971    1.7948   -0.8919 C   0  0  0  0  0  0  0  0  0  0  0  0
   -2.3809    0.3329   -0.6837 C   0  0  0  0  0  0  0  0  0  0  0  0
   -1.1950   -0.3212    0.0537 C   0  0  0  0  0  0  0  0  0  0  0  0
   -0.7073    0.8396    0.9321 C   0  0  0  0  0  0  0  0  0  0  0  0
    0.9278   -1.1510   -0.3114 H   0  0  0  0  0  0  0  0  0  0  0  0
   -0.2443   -1.0400   -1.8230 H   0  0  0  0  0  0  0  0  0  0  0  0
    1.4864    1.1050   -0.8200 H   0  0  0  0  0  0  0  0  0  0  0  0
    0.4001    1.2972   -2.1897 H   0  0  0  0  0  0  0  0  0  0  0  0
   -0.1306    2.7923   -0.0009 H   0  0  0  0  0  0  0  0  0  0  0  0
   -1.8600    2.0801   -1.9443 H   0  0  0  0  0  0  0  0  0  0  0  0
   -2.5565    2.5013   -0.3852 H   0  0  0  0  0  0  0  0  0  0  0  0
   -2.6050   -0.1755   -1.6223 H   0  0  0  0  0  0  0  0  0  0  0  0
   -3.2828    0.2990   -0.0688 H   0  0  0  0  0  0  0  0  0  0  0  0
   -1.4531   -1.2447    0.5705 H   0  0  0  0  0  0  0  0  0  0  0  0
    0.2156    0.6127    1.4689 H   0  0  0  0  0  0  0  0  0  0  0  0
   -1.4594    1.1880    1.6427 H   0  0  0  0  0  0  0  0  0  0  0  0
  1  2  1  0
  1  4  1  0
  1  5  1  0
  1  6  1  0
  2  3  1  0
  2  7  1  0
  3  8  1  0
  3  9  1  0
  3 10  1  0
 11 12  1  0
 11 16  1  0
 11 18  1  0
 11 19  1  0
 12 13  1  0
 12 20  1  0
 12 21  1  0
 13 14  1  0
 13 17  1  0
 13 22  1  0
 14 15  1  0
 14 23  1  0
 14 24  1  0
 15 16  1  0
 15 25  1  0
 15 26  1  0
 16 17  1  0
 16 27  1  0
 17 28  1  0
 17 29  1  0
M  RAD  1   2   2
M  END
>  <reaction>  (4) 
rxn_487

>  <mol_properties>  (4) 
{"0": {"label": "*4", "atom_type": "Cs"}, "1": {"label": "*3", "atom_type": "Cs"}, "10": {"label": "*1", "atom_type": "Cs"}, "11": {"label": "*0", "atom_type": "Cs"}, "17": {"label": "*2", "atom_type": "H0"}}

>  <type>  (4) 
ts

$$$$
