
     RDKit          3D

 18 18  0  0  0  0  0  0  0  0999 V2000
   -2.4852    0.3210   -0.3966 C   0  0  0  0  0  0  0  0  0  0  0  0
   -1.5917   -0.2708    0.6941 C   0  0  0  0  0  0  0  0  0  0  0  0
   -0.1292   -0.1692    0.3493 C   0  0  0  0  0  0  0  0  0  0  0  0
    0.6099    0.9558    0.7015 C   0  0  0  0  0  0  0  0  0  0  0  0
    1.9447    1.0728    0.3458 C   0  0  0  0  0  0  0  0  0  0  0  0
    2.5646    0.0613   -0.3720 C   0  0  0  0  0  0  0  0  0  0  0  0
    1.8399   -1.0657   -0.7287 C   0  0  0  0  0  0  0  0  0  0  0  0
    0.5055   -1.1769   -0.3700 C   0  0  0  0  0  0  0  0  0  0  0  0
   -2.3325   -0.1971   -1.3452 H   0  0  0  0  0  0  0  0  0  0  0  0
   -2.2554    1.3763   -0.5546 H   0  0  0  0  0  0  0  0  0  0  0  0
   -3.5397    0.2376   -0.1280 H   0  0  0  0  0  0  0  0  0  0  0  0
   -1.7801    0.2462    1.6380 H   0  0  0  0  0  0  0  0  0  0  0  0
   -1.8568   -1.3190    0.8516 H   0  0  0  0  0  0  0  0  0  0  0  0
    0.1327    1.7497    1.2656 H   0  0  0  0  0  0  0  0  0  0  0  0
    2.5033    1.9550    0.6330 H   0  0  0  0  0  0  0  0  0  0  0  0
    3.6077    0.1491   -0.6484 H   0  0  0  0  0  0  0  0  0  0  0  0
    2.3163   -1.8632   -1.2854 H   0  0  0  0  0  0  0  0  0  0  0  0
   -0.0540   -2.0629   -0.6500 H   0  0  0  0  0  0  0  0  0  0  0  0
  1  2  1  0
  1  9  1  0
  1 10  1  0
  1 11  1  0
  2  3  1  0
  2 12  1  0
  2 13  1  0
  3  4  2  0
  3  8  1  0
  4  5  1  0
  4 14  1  0
  5  6  2  0
  5 15  1  0
  6  7  1  0
  6 16  1  0
  7  8  2  0
  7 17  1  0
  8 18  1  0
M  END
>  <reaction>  (1) 
rxn_1492

>  <mol_properties>  (1) 
{"1": {"label": "donator", "atom_type": "Cs"}, "11": {"label": "d_hydrogen", "atom_type": "H0"}}

>  <type>  (1) 
r1h

$$$$

     RDKit          3D

 14 14  0  0  0  0  0  0  0  0999 V2000
    2.3111    0.1295    0.0255 C   0  0  0  0  0  0  0  0  0  0  0  0
    0.9132    0.0511    0.0101 C   0  0  0  0  0  0  0  0  0  0  0  0
    0.2446   -1.1981    0.0389 C   0  0  0  0  0  3  0  0  0  0  0  0
   -1.1306   -1.2689    0.0235 C   0  0  0  0  0  0  0  0  0  0  0  0
   -1.8967   -0.1062   -0.0209 C   0  0  0  0  0  0  0  0  0  0  0  0
   -1.2644    1.1347   -0.0499 C   0  0  0  0  0  0  0  0  0  0  0  0
    0.1101    1.2180   -0.0350 C   0  0  0  0  0  0  0  0  0  0  0  0
    2.9188   -0.7647    0.0599 H   0  0  0  0  0  0  0  0  0  0  0  0
    2.8158    1.0859    0.0034 H   0  0  0  0  0  0  0  0  0  0  0  0
    0.8353   -2.1058    0.0735 H   0  0  0  0  0  0  0  0  0  0  0  0
   -1.6191   -2.2351    0.0461 H   0  0  0  0  0  0  0  0  0  0  0  0
   -2.9772   -0.1668   -0.0328 H   0  0  0  0  0  0  0  0  0  0  0  0
   -1.8572    2.0404   -0.0845 H   0  0  0  0  0  0  0  0  0  0  0  0
    0.5964    2.1860   -0.0577 H   0  0  0  0  0  0  0  0  0  0  0  0
  1  2  2  3
  1  8  1  0
  1  9  1  0
  2  3  1  0
  2  7  1  0
  3  4  1  0
  3 10  1  0
  4  5  2  0
  4 11  1  0
  5  6  1  0
  5 12  1  0
  6  7  2  0
  6 13  1  0
  7 14  1  0
M  RAD  1   3   2
M  END
>  <reaction>  (2) 
rxn_1492

>  <mol_properties>  (2) 
{"0": {"label": "acceptor", "atom_type": "Cs"}}

>  <type>  (2) 
r2

$$$$

     RDKit          3D

 15 15  0  0  0  0  0  0  0  0999 V2000
    2.2031   -0.2111   -0.1693 C   0  0  0  0  0  0  0  0  0  0  0  0
    0.7140   -0.0314   -0.0623 C   0  0  0  0  0  0  0  0  0  0  0  0
   -0.0114    0.5491   -1.0982 C   0  0  0  0  0  0  0  0  0  0  0  0
   -1.3882    0.6886   -1.0150 C   0  0  0  0  0  0  0  0  0  0  0  0
   -2.0661    0.2493    0.1118 C   0  0  0  0  0  0  0  0  0  0  0  0
   -1.3551   -0.3278    1.1528 C   0  0  0  0  0  0  0  0  0  0  0  0
    0.0216   -0.4648    1.0642 C   0  0  0  0  0  0  0  0  0  0  0  0
    2.6776   -0.1836    0.8122 H   0  0  0  0  0  0  0  0  0  0  0  0
    2.4446   -1.1749   -0.6249 H   0  0  0  0  0  0  0  0  0  0  0  0
    2.6532    0.5664   -0.7875 H   0  0  0  0  0  0  0  0  0  0  0  0
    0.5104    0.8989   -1.9819 H   0  0  0  0  0  0  0  0  0  0  0  0
   -1.9328    1.1452   -1.8322 H   0  0  0  0  0  0  0  0  0  0  0  0
   -3.1409    0.3597    0.1800 H   0  0  0  0  0  0  0  0  0  0  0  0
   -1.8736   -0.6702    2.0398 H   0  0  0  0  0  0  0  0  0  0  0  0
    0.5695   -0.9141    1.8849 H   0  0  0  0  0  0  0  0  0  0  0  0
  1  2  1  0
  1  8  1  0
  1  9  1  0
  1 10  1  0
  2  3  2  0
  2  7  1  0
  3  4  1  0
  3 11  1  0
  4  5  2  0
  4 12  1  0
  5  6  1  0
  5 13  1  0
  6  7  2  0
  6 14  1  0
  7 15  1  0
M  END
>  <reaction>  (3) 
rxn_1492

>  <mol_properties>  (3) 
{"0": {"label": "acceptor", "atom_type": "Cs"}, "14": {"label": "a_hydrogen", "atom_type": "H0"}}

>  <type>  (3) 
r2h

$$$$

     RDKit          3D

 32 32  0  0  0  0  0  0  0  0999 V2000
    0.4122   -1.8854    1.4709 C   0  0  0  0  0  0  0  0  0  0  0  0
   -0.7052   -1.5766    0.5905 C   0  0  0  0  0  0  0  0  0  0  0  0
   -0.8250   -2.1895   -0.6625 C   0  0  0  0  0  3  0  0  0  0  0  0
   -1.8203   -1.8139   -1.5470 C   0  0  0  0  0  0  0  0  0  0  0  0
   -2.7205   -0.8148   -1.2031 C   0  0  0  0  0  0  0  0  0  0  0  0
   -2.6206   -0.2023    0.0391 C   0  0  0  0  0  0  0  0  0  0  0  0
   -1.6274   -0.5775    0.9233 C   0  0  0  0  0  0  0  0  0  0  0  0
    0.8977   -2.8456    1.3178 H   0  0  0  0  0  0  0  0  0  0  0  0
    0.2869   -1.6245    2.5182 H   0  0  0  0  0  0  0  0  0  0  0  0
   -0.1224   -2.9677   -0.9393 H   0  0  0  0  0  0  0  0  0  0  0  0
   -1.8952   -2.3020   -2.5110 H   0  0  0  0  0  0  0  0  0  0  0  0
   -3.4964   -0.5176   -1.8970 H   0  0  0  0  0  0  0  0  0  0  0  0
   -3.3155    0.5810    0.3144 H   0  0  0  0  0  0  0  0  0  0  0  0
   -1.5429   -0.0793    1.8816 H   0  0  0  0  0  0  0  0  0  0  0  0
    2.8661   -0.9303   -0.5818 C   0  0  0  0  0  0  0  0  0  0  0  0
    2.2118   -0.1234    0.5103 C   0  0  0  0  0  0  0  0  0  0  0  0
    1.3166    0.9852    0.1571 C   0  0  0  0  0  0  0  0  0  0  0  0
    0.7052    1.0821   -1.0958 C   0  0  0  0  0  0  0  0  0  0  0  0
   -0.2161    2.0798   -1.3629 C   0  0  0  0  0  0  0  0  0  0  0  0
   -0.5510    3.0064   -0.3871 C   0  0  0  0  0  0  0  0  0  0  0  0
    0.0535    2.9307    0.8608 C   0  0  0  0  0  0  0  0  0  0  0  0
    0.9738    1.9342    1.1273 C   0  0  0  0  0  0  0  0  0  0  0  0
    3.4893   -0.3047   -1.2275 H   0  0  0  0  0  0  0  0  0  0  0  0
    2.1224   -1.4197   -1.2149 H   0  0  0  0  0  0  0  0  0  0  0  0
    3.4986   -1.7094   -0.1550 H   0  0  0  0  0  0  0  0  0  0  0  0
    1.3825   -0.9987    1.0776 H   0  0  0  0  0  0  0  0  0  0  0  0
    2.8770    0.1162    1.3390 H   0  0  0  0  0  0  0  0  0  0  0  0
    0.9373    0.3594   -1.8666 H   0  0  0  0  0  0  0  0  0  0  0  0
   -0.6838    2.1272   -2.3383 H   0  0  0  0  0  0  0  0  0  0  0  0
   -1.2746    3.7837   -0.5971 H   0  0  0  0  0  0  0  0  0  0  0  0
   -0.1952    3.6530    1.6286 H   0  0  0  0  0  0  0  0  0  0  0  0
    1.4369    1.8772    2.1063 H   0  0  0  0  0  0  0  0  0  0  0  0
  1  2  2  3
  1  8  1  0
  1  9  1  0
  2  3  1  0
  2  7  1  0
  3  4  1  0
  3 10  1  0
  4  5  2  0
  4 11  1  0
  5  6  1  0
  5 12  1  0
  6  7  2  0
  6 13  1  0
  7 14  1  0
 15 16  1  0
 15 23  1  0
 15 24  1  0
 15 25  1  0
 16 17  1  0
 16 26  1  0
 16 27  1  0
 17 18  2  0
 17 22  1  0
 18 19  1  0
 18 28  1  0
 19 20  2  0
 19 29  1  0
 20 21  1  0
 20 30  1  0
 21 22  2  0
 21 31  1  0
 22 32  1  0
M  RAD  1   3   2
M  END
>  <reaction>  (4) 
rxn_1492

>  <mol_properties>  (4) 
{"0": {"label": "*3", "atom_type": "Cd"}, "1": {"label": "*4", "atom_type": "Cd"}, "15": {"label": "*1", "atom_type": "Cs"}, "16": {"label": "*0", "atom_type": "Cd"}, "25": {"label": "*2", "atom_type": "H0"}}

>  <type>  (4) 
ts

$$$$
