
     RDKit          3D

  9  8  0  0  0  0  0  0  0  0999 V2000
   -2.1022   -0.6873    0.3932 C   0  0  0  0  0  0  0  0  0  0  0  0
   -1.2072   -0.1086   -0.1482 C   0  0  0  0  0  0  0  0  0  0  0  0
   -0.1242    0.6105   -0.8193 C   0  0  0  0  0  0  0  0  0  0  0  0
    1.2067    0.1106   -0.4741 C   0  0  0  0  0  0  0  0  0  0  0  0
    2.3005   -0.2875   -0.2012 C   0  0  0  0  0  0  0  0  0  0  0  0
   -2.8942   -1.2059    0.8778 H   0  0  0  0  0  0  0  0  0  0  0  0
   -0.1862    1.6723   -0.5649 H   0  0  0  0  0  0  0  0  0  0  0  0
   -0.2641    0.5418   -1.9017 H   0  0  0  0  0  0  0  0  0  0  0  0
    3.2709   -0.6459    0.0455 H   0  0  0  0  0  0  0  0  0  0  0  0
  1  2  3  0
  1  6  1  0
  2  3  1  0
  3  4  1  0
  3  7  1  0
  3  8  1  0
  4  5  3  0
  5  9  1  0
M  END
>  <reaction>  (1) 
rxn_1354

>  <mol_properties>  (1) 
{"2": {"label": "donator", "atom_type": "Cs"}, "6": {"label": "d_hydrogen", "atom_type": "H0"}}

>  <type>  (1) 
r1h

$$$$

     RDKit          3D

 15 14  0  0  0  0  0  0  0  0999 V2000
    2.4381    0.5770   -0.2356 C   0  0  0  0  0  0  0  0  0  0  0  0
    1.4430   -0.3367   -0.1409 C   0  0  0  0  0  0  0  0  0  0  0  0
    0.0521   -0.0957   -0.0045 C   0  0  0  0  0  3  0  0  0  0  0  0
   -0.5167    1.2867    0.0548 C   0  0  0  0  0  0  0  0  0  0  0  0
   -0.8226   -1.2147    0.0778 C   0  0  0  0  0  0  0  0  0  0  0  0
   -2.1666   -1.1669    0.2092 C   0  0  0  0  0  0  0  0  0  0  0  0
    3.4666    0.2585   -0.3369 H   0  0  0  0  0  0  0  0  0  0  0  0
    2.2594    1.6438   -0.2152 H   0  0  0  0  0  0  0  0  0  0  0  0
    1.7306   -1.3845   -0.1719 H   0  0  0  0  0  0  0  0  0  0  0  0
   -1.2300    1.4469   -0.7583 H   0  0  0  0  0  0  0  0  0  0  0  0
    0.2481    2.0557   -0.0178 H   0  0  0  0  0  0  0  0  0  0  0  0
   -1.0592    1.4421    0.9914 H   0  0  0  0  0  0  0  0  0  0  0  0
   -0.3519   -2.1929    0.0292 H   0  0  0  0  0  0  0  0  0  0  0  0
   -2.7080   -0.2310    0.2646 H   0  0  0  0  0  0  0  0  0  0  0  0
   -2.7513   -2.0751    0.2638 H   0  0  0  0  0  0  0  0  0  0  0  0
  1  2  2  3
  1  7  1  0
  1  8  1  0
  2  3  1  0
  2  9  1  0
  3  4  1  0
  3  5  1  0
  4 10  1  0
  4 11  1  0
  4 12  1  0
  5  6  2  3
  5 13  1  0
  6 14  1  0
  6 15  1  0
M  RAD  1   3   2
M  END
>  <reaction>  (2) 
rxn_1354

>  <mol_properties>  (2) 
{"2": {"label": "acceptor", "atom_type": "Cs"}}

>  <type>  (2) 
r2

$$$$

     RDKit          3D

 16 15  0  0  0  0  0  0  0  0999 V2000
    1.7961   -0.3807    1.6176 C   0  0  0  0  0  0  0  0  0  0  0  0
    0.8562   -0.8708    0.8256 C   0  0  0  0  0  0  0  0  0  0  0  0
    0.0895   -0.0826   -0.2048 C   0  0  0  0  0  0  0  0  0  0  0  0
   -1.4061   -0.1111    0.0982 C   0  0  0  0  0  0  0  0  0  0  0  0
    0.4476   -0.5902   -1.5797 C   0  0  0  0  0  0  0  0  0  0  0  0
   -0.3793   -1.1113   -2.4728 C   0  0  0  0  0  0  0  0  0  0  0  0
    2.3110   -1.0032    2.3386 H   0  0  0  0  0  0  0  0  0  0  0  0
    2.0846    0.6643    1.5737 H   0  0  0  0  0  0  0  0  0  0  0  0
    0.5921   -1.9241    0.8925 H   0  0  0  0  0  0  0  0  0  0  0  0
    0.4358    0.9557   -0.1462 H   0  0  0  0  0  0  0  0  0  0  0  0
   -1.5968    0.3080    1.0865 H   0  0  0  0  0  0  0  0  0  0  0  0
   -1.9674    0.4693   -0.6359 H   0  0  0  0  0  0  0  0  0  0  0  0
   -1.7902   -1.1338    0.0883 H   0  0  0  0  0  0  0  0  0  0  0  0
    1.5049   -0.5197   -1.8214 H   0  0  0  0  0  0  0  0  0  0  0  0
   -1.4421   -1.2131   -2.2889 H   0  0  0  0  0  0  0  0  0  0  0  0
   -0.0162   -1.4558   -3.4328 H   0  0  0  0  0  0  0  0  0  0  0  0
  1  2  2  3
  1  7  1  0
  1  8  1  0
  2  3  1  0
  2  9  1  0
  3  4  1  0
  3  5  1  0
  3 10  1  0
  4 11  1  0
  4 12  1  0
  4 13  1  0
  5  6  2  3
  5 14  1  0
  6 15  1  0
  6 16  1  0
M  END
>  <reaction>  (3) 
rxn_1354

>  <mol_properties>  (3) 
{"0": {"label": "a_hydrogen", "atom_type": "H0"}, "3": {"label": "acceptor", "atom_type": "Cs"}}

>  <type>  (3) 
r2h

$$$$

     RDKit          3D

 24 22  0  0  0  0  0  0  0  0999 V2000
   -3.0758    0.4582   -0.2068 C   0  0  0  0  0  0  0  0  0  0  0  0
   -2.0809    0.0275   -0.7251 C   0  0  0  0  0  0  0  0  0  0  0  0
   -0.8627   -0.4360   -1.2976 C   0  0  0  0  0  3  0  0  0  0  0  0
   -0.5694   -1.8280   -1.2450 C   0  0  0  0  0  0  0  0  0  0  0  0
   -0.2678   -2.9890   -1.1725 C   0  0  0  0  0  0  0  0  0  0  0  0
   -3.9679    0.8298    0.2365 H   0  0  0  0  0  0  0  0  0  0  0  0
    0.1360    0.1460   -0.4713 H   0  0  0  0  0  0  0  0  0  0  0  0
   -0.5844    0.0519   -2.2299 H   0  0  0  0  0  0  0  0  0  0  0  0
   -0.0166   -4.0209   -1.1225 H   0  0  0  0  0  0  0  0  0  0  0  0
   -0.0466    2.7322    1.2008 C   0  0  0  0  0  0  0  0  0  0  0  0
    0.7372    2.0286    0.3868 C   0  0  0  0  0  0  0  0  0  0  0  0
    0.9751    0.5758    0.4343 C   0  0  0  0  0  0  0  0  0  0  0  0
    0.4702   -0.1741    1.6430 C   0  0  0  0  0  0  0  0  0  0  0  0
    2.2647    0.1534   -0.1385 C   0  0  0  0  0  0  0  0  0  0  0  0
    2.9491   -0.9457    0.1706 C   0  0  0  0  0  0  0  0  0  0  0  0
   -0.1733    3.7977    1.0616 H   0  0  0  0  0  0  0  0  0  0  0  0
   -0.5781    2.2802    2.0284 H   0  0  0  0  0  0  0  0  0  0  0  0
    1.2413    2.5529   -0.4213 H   0  0  0  0  0  0  0  0  0  0  0  0
    0.5130   -1.2503    1.4761 H   0  0  0  0  0  0  0  0  0  0  0  0
   -0.5698    0.0791    1.8485 H   0  0  0  0  0  0  0  0  0  0  0  0
    1.0676    0.0651    2.5263 H   0  0  0  0  0  0  0  0  0  0  0  0
    2.6634    0.8071   -0.9104 H   0  0  0  0  0  0  0  0  0  0  0  0
    2.6166   -1.6419    0.9297 H   0  0  0  0  0  0  0  0  0  0  0  0
    3.8790   -1.1772   -0.3320 H   0  0  0  0  0  0  0  0  0  0  0  0
  1  2  3  0
  1  6  1  0
  2  3  1  0
  3  4  1  0
  3  8  1  0
  4  5  3  0
  5  9  1  0
  7 12  1  0
 10 11  2  3
 10 16  1  0
 10 17  1  0
 11 12  1  0
 11 18  1  0
 12 13  1  0
 12 14  1  0
 13 19  1  0
 13 20  1  0
 13 21  1  0
 14 15  2  3
 14 22  1  0
 15 23  1  0
 15 24  1  0
M  RAD  1   3   2
M  END
>  <reaction>  (4) 
rxn_1354

>  <mol_properties>  (4) 
{"1": {"label": "*4", "atom_type": "Ct"}, "2": {"label": "*3", "atom_type": "Cs"}, "6": {"label": "*2", "atom_type": "H0"}, "10": {"label": "*0", "atom_type": "Cd"}, "11": {"label": "*1", "atom_type": "Cs"}}

>  <type>  (4) 
ts

$$$$
