
     RDKit          3D

 15 14  0  0  0  0  0  0  0  0999 V2000
    2.1256    0.4849   -0.6284 C   0  0  0  0  0  0  0  0  0  0  0  0
    1.1128    0.2141    0.1794 C   0  0  0  0  0  0  0  0  0  0  0  0
   -0.3017   -0.0425   -0.2513 C   0  0  0  0  0  0  0  0  0  0  0  0
   -1.2427    1.0075    0.3423 C   0  0  0  0  0  0  0  0  0  0  0  0
   -0.7381   -1.4526    0.1504 C   0  0  0  0  0  0  0  0  0  0  0  0
    3.1243    0.6602   -0.2486 H   0  0  0  0  0  0  0  0  0  0  0  0
    1.9908    0.5411   -1.7036 H   0  0  0  0  0  0  0  0  0  0  0  0
    1.2888    0.1665    1.2533 H   0  0  0  0  0  0  0  0  0  0  0  0
   -0.3426    0.0343   -1.3424 H   0  0  0  0  0  0  0  0  0  0  0  0
   -0.9570    2.0133    0.0315 H   0  0  0  0  0  0  0  0  0  0  0  0
   -1.2189    0.9728    1.4350 H   0  0  0  0  0  0  0  0  0  0  0  0
   -2.2723    0.8287    0.0254 H   0  0  0  0  0  0  0  0  0  0  0  0
   -0.6964   -1.5744    1.2363 H   0  0  0  0  0  0  0  0  0  0  0  0
   -0.0911   -2.2079   -0.2978 H   0  0  0  0  0  0  0  0  0  0  0  0
   -1.7646   -1.6461   -0.1677 H   0  0  0  0  0  0  0  0  0  0  0  0
  1  2  2  3
  1  6  1  0
  1  7  1  0
  2  3  1  0
  2  8  1  0
  3  4  1  0
  3  5  1  0
  3  9  1  0
  4 10  1  0
  4 11  1  0
  4 12  1  0
  5 13  1  0
  5 14  1  0
  5 15  1  0
M  END
>  <reaction>  (1) 
rxn_1085

>  <mol_properties>  (1) 
{"2": {"label": "donator", "atom_type": "Cs"}, "8": {"label": "d_hydrogen", "atom_type": "H0"}}

>  <type>  (1) 
r1h

$$$$

     RDKit          3D

 13 12  0  0  0  0  0  0  0  0999 V2000
   -1.3650   -0.5967   -0.3476 C   0  0  0  0  0  0  0  0  0  0  0  0
   -0.1601   -0.2776    0.4668 C   0  0  0  0  0  3  0  0  0  0  0  0
    1.1241   -0.9572    0.1414 C   0  0  0  0  0  0  0  0  0  0  0  0
   -0.1186    1.0131    1.2080 C   0  0  0  0  0  0  0  0  0  0  0  0
   -1.4259   -1.6630   -0.5780 H   0  0  0  0  0  0  0  0  0  0  0  0
   -2.2860   -0.3016    0.1610 H   0  0  0  0  0  0  0  0  0  0  0  0
   -1.3542   -0.0656   -1.3131 H   0  0  0  0  0  0  0  0  0  0  0  0
    1.6174   -0.4967   -0.7298 H   0  0  0  0  0  0  0  0  0  0  0  0
    0.9721   -2.0106   -0.1062 H   0  0  0  0  0  0  0  0  0  0  0  0
    1.8338   -0.8977    0.9701 H   0  0  0  0  0  0  0  0  0  0  0  0
   -1.0851    1.2512    1.6587 H   0  0  0  0  0  0  0  0  0  0  0  0
    0.6357    1.0008    1.9984 H   0  0  0  0  0  0  0  0  0  0  0  0
    0.1351    1.8545    0.5432 H   0  0  0  0  0  0  0  0  0  0  0  0
  1  2  1  0
  1  5  1  0
  1  6  1  0
  1  7  1  0
  2  3  1  0
  2  4  1  0
  3  8  1  0
  3  9  1  0
  3 10  1  0
  4 11  1  0
  4 12  1  0
  4 13  1  0
M  RAD  1   2   2
M  END
>  <reaction>  (2) 
rxn_1085

>  <mol_properties>  (2) 
{"1": {"label": "acceptor", "atom_type": "Cs"}}

>  <type>  (2) 
r2

$$$$

     RDKit          3D

 14 13  0  0  0  0  0  0  0  0999 V2000
   -0.7647   -1.2352   -0.0349 C   0  0  0  0  0  0  0  0  0  0  0  0
    0.0570   -0.0126    0.3624 C   0  0  0  0  0  0  0  0  0  0  0  0
    1.4161   -0.0194   -0.3307 C   0  0  0  0  0  0  0  0  0  0  0  0
   -0.7022    1.2765    0.0629 C   0  0  0  0  0  0  0  0  0  0  0  0
   -0.2387   -2.1618    0.2039 H   0  0  0  0  0  0  0  0  0  0  0  0
   -0.9625   -1.2315   -1.1108 H   0  0  0  0  0  0  0  0  0  0  0  0
   -1.7273   -1.2512    0.4806 H   0  0  0  0  0  0  0  0  0  0  0  0
    0.2295   -0.0589    1.4432 H   0  0  0  0  0  0  0  0  0  0  0  0
    1.2933    0.0260   -1.4168 H   0  0  0  0  0  0  0  0  0  0  0  0
    2.0206    0.8381   -0.0278 H   0  0  0  0  0  0  0  0  0  0  0  0
    1.9767   -0.9269   -0.0966 H   0  0  0  0  0  0  0  0  0  0  0  0
   -1.6638    1.3002    0.5799 H   0  0  0  0  0  0  0  0  0  0  0  0
   -0.8978    1.3664   -1.0096 H   0  0  0  0  0  0  0  0  0  0  0  0
   -0.1313    2.1545    0.3721 H   0  0  0  0  0  0  0  0  0  0  0  0
  1  2  1  0
  1  5  1  0
  1  6  1  0
  1  7  1  0
  2  3  1  0
  2  4  1  0
  2  8  1  0
  3  9  1  0
  3 10  1  0
  3 11  1  0
  4 12  1  0
  4 13  1  0
  4 14  1  0
M  END
>  <reaction>  (3) 
rxn_1085

>  <mol_properties>  (3) 
{"0": {"label": "a_hydrogen", "atom_type": "H0"}, "2": {"label": "acceptor", "atom_type": "Cs"}}

>  <type>  (3) 
r2h

$$$$

     RDKit          3D

 28 26  0  0  0  0  0  0  0  0999 V2000
    0.6186   -2.6885   -0.7703 C   0  0  0  0  0  0  0  0  0  0  0  0
    0.8175   -1.7624    0.1687 C   0  0  0  0  0  0  0  0  0  0  0  0
   -0.1859   -0.8641    0.7563 C   0  0  0  0  0  0  0  0  0  0  0  0
    0.0705   -0.5154    2.2092 C   0  0  0  0  0  0  0  0  0  0  0  0
   -1.6335   -1.1748    0.4503 C   0  0  0  0  0  0  0  0  0  0  0  0
    1.4423   -3.2732   -1.1588 H   0  0  0  0  0  0  0  0  0  0  0  0
   -0.3638   -2.9008   -1.1743 H   0  0  0  0  0  0  0  0  0  0  0  0
    1.8328   -1.6155    0.5318 H   0  0  0  0  0  0  0  0  0  0  0  0
    0.0124    0.2590    0.1484 H   0  0  0  0  0  0  0  0  0  0  0  0
    1.1099   -0.2195    2.3674 H   0  0  0  0  0  0  0  0  0  0  0  0
   -0.1355   -1.3689    2.8635 H   0  0  0  0  0  0  0  0  0  0  0  0
   -0.5684    0.3100    2.5305 H   0  0  0  0  0  0  0  0  0  0  0  0
   -1.9361   -2.1287    0.8949 H   0  0  0  0  0  0  0  0  0  0  0  0
   -1.8148   -1.2360   -0.6240 H   0  0  0  0  0  0  0  0  0  0  0  0
   -2.2843   -0.3964    0.8535 H   0  0  0  0  0  0  0  0  0  0  0  0
   -0.3216    1.1686   -1.9086 C   0  0  0  0  0  0  0  0  0  0  0  0
    0.2052    1.4782   -0.5332 C   0  0  0  0  0  3  0  0  0  0  0  0
    1.6996    1.6372   -0.4553 C   0  0  0  0  0  0  0  0  0  0  0  0
   -0.5887    2.4933    0.2437 C   0  0  0  0  0  0  0  0  0  0  0  0
    0.1688    0.2866   -2.3269 H   0  0  0  0  0  0  0  0  0  0  0  0
   -1.3978    0.9849   -1.8912 H   0  0  0  0  0  0  0  0  0  0  0  0
   -0.1415    2.0053   -2.5964 H   0  0  0  0  0  0  0  0  0  0  0  0
    2.0301    2.5338   -0.9954 H   0  0  0  0  0  0  0  0  0  0  0  0
    2.2090    0.7798   -0.9014 H   0  0  0  0  0  0  0  0  0  0  0  0
    2.0367    1.7351    0.5792 H   0  0  0  0  0  0  0  0  0  0  0  0
   -1.6473    2.2263    0.2816 H   0  0  0  0  0  0  0  0  0  0  0  0
   -0.2227    2.5873    1.2682 H   0  0  0  0  0  0  0  0  0  0  0  0
   -0.5195    3.4860   -0.2208 H   0  0  0  0  0  0  0  0  0  0  0  0
  1  2  2  3
  1  6  1  0
  1  7  1  0
  2  3  1  0
  2  8  1  0
  3  4  1  0
  3  5  1  0
  3  9  1  0
  4 10  1  0
  4 11  1  0
  4 12  1  0
  5 13  1  0
  5 14  1  0
  5 15  1  0
 16 17  1  0
 16 20  1  0
 16 21  1  0
 16 22  1  0
 17 18  1  0
 17 19  1  0
 18 23  1  0
 18 24  1  0
 18 25  1  0
 19 26  1  0
 19 27  1  0
 19 28  1  0
M  RAD  1  17   2
M  END
>  <reaction>  (4) 
rxn_1085

>  <mol_properties>  (4) 
{"1": {"label": "*0", "atom_type": "Cd"}, "2": {"label": "*1", "atom_type": "Cs"}, "8": {"label": "*2", "atom_type": "H0"}, "15": {"label": "*4", "atom_type": "Cs"}, "16": {"label": "*3", "atom_type": "Cs"}}

>  <type>  (4) 
ts

$$$$
