
     RDKit          3D

 15 14  0  0  0  0  0  0  0  0999 V2000
    2.1256    0.4849   -0.6284 C   0  0  0  0  0  0  0  0  0  0  0  0
    1.1128    0.2141    0.1794 C   0  0  0  0  0  0  0  0  0  0  0  0
   -0.3017   -0.0425   -0.2513 C   0  0  0  0  0  0  0  0  0  0  0  0
   -1.2427    1.0075    0.3423 C   0  0  0  0  0  0  0  0  0  0  0  0
   -0.7381   -1.4526    0.1504 C   0  0  0  0  0  0  0  0  0  0  0  0
    3.1243    0.6602   -0.2486 H   0  0  0  0  0  0  0  0  0  0  0  0
    1.9908    0.5411   -1.7036 H   0  0  0  0  0  0  0  0  0  0  0  0
    1.2888    0.1665    1.2533 H   0  0  0  0  0  0  0  0  0  0  0  0
   -0.3426    0.0343   -1.3424 H   0  0  0  0  0  0  0  0  0  0  0  0
   -0.9570    2.0133    0.0315 H   0  0  0  0  0  0  0  0  0  0  0  0
   -1.2189    0.9728    1.4350 H   0  0  0  0  0  0  0  0  0  0  0  0
   -2.2723    0.8287    0.0254 H   0  0  0  0  0  0  0  0  0  0  0  0
   -0.6964   -1.5744    1.2363 H   0  0  0  0  0  0  0  0  0  0  0  0
   -0.0911   -2.2079   -0.2978 H   0  0  0  0  0  0  0  0  0  0  0  0
   -1.7646   -1.6461   -0.1677 H   0  0  0  0  0  0  0  0  0  0  0  0
  1  2  2  3
  1  6  1  0
  1  7  1  0
  2  3  1  0
  2  8  1  0
  3  4  1  0
  3  5  1  0
  3  9  1  0
  4 10  1  0
  4 11  1  0
  4 12  1  0
  5 13  1  0
  5 14  1  0
  5 15  1  0
M  END
>  <reaction>  (1) 
rxn_1103

>  <mol_properties>  (1) 
{"2": {"label": "donator", "atom_type": "Cs"}, "8": {"label": "d_hydrogen", "atom_type": "H0"}}

>  <type>  (1) 
r1h

$$$$

     RDKit          3D

  5  4  0  0  0  0  0  0  0  0999 V2000
   -0.5642    0.0794    0.0348 C   0  0  0  0  0  3  0  0  0  0  0  0
    1.0624    0.5420    0.2853 S   0  0  0  0  0  0  0  0  0  0  0  0
   -1.3257    0.7631    0.3741 H   0  0  0  0  0  0  0  0  0  0  0  0
   -0.8236   -0.8519   -0.4401 H   0  0  0  0  0  0  0  0  0  0  0  0
    1.6511   -0.5325   -0.2540 H   0  0  0  0  0  0  0  0  0  0  0  0
  1  2  1  0
  1  3  1  0
  1  4  1  0
  2  5  1  0
M  RAD  1   1   2
M  END
>  <reaction>  (2) 
rxn_1103

>  <mol_properties>  (2) 
{"0": {"label": "acceptor", "atom_type": "Cs"}}

>  <type>  (2) 
r2

$$$$

     RDKit          3D

  6  5  0  0  0  0  0  0  0  0999 V2000
   -0.5072   -0.0291   -0.0097 C   0  0  0  0  0  0  0  0  0  0  0  0
    1.1321   -0.1527   -0.7687 S   0  0  0  0  0  0  0  0  0  0  0  0
   -0.6174   -0.7330    0.8127 H   0  0  0  0  0  0  0  0  0  0  0  0
   -0.5863    0.9827    0.3845 H   0  0  0  0  0  0  0  0  0  0  0  0
   -1.2962   -0.1800   -0.7434 H   0  0  0  0  0  0  0  0  0  0  0  0
    1.0312   -1.4237   -1.1764 H   0  0  0  0  0  0  0  0  0  0  0  0
  1  2  1  0
  1  3  1  0
  1  4  1  0
  1  5  1  0
  2  6  1  0
M  END
>  <reaction>  (3) 
rxn_1103

>  <mol_properties>  (3) 
{"0": {"label": "acceptor", "atom_type": "Cs"}, "5": {"label": "a_hydrogen", "atom_type": "H0"}}

>  <type>  (3) 
r2h

$$$$

     RDKit          3D

 20 18  0  0  0  0  0  0  0  0999 V2000
    0.5728    1.7838   -0.3090 C   0  0  0  0  0  3  0  0  0  0  0  0
   -0.7161    1.7107   -1.5043 S   0  0  0  0  0  0  0  0  0  0  0  0
    0.3606    2.5397    0.4415 H   0  0  0  0  0  0  0  0  0  0  0  0
    1.5821    1.8398   -0.7073 H   0  0  0  0  0  0  0  0  0  0  0  0
   -0.2329    0.6768   -2.2070 H   0  0  0  0  0  0  0  0  0  0  0  0
   -0.1785   -2.2336   -0.7790 C   0  0  0  0  0  0  0  0  0  0  0  0
    0.7345   -1.5552   -0.0840 C   0  0  0  0  0  0  0  0  0  0  0  0
    0.4837   -0.5908    0.9987 C   0  0  0  0  0  0  0  0  0  0  0  0
    1.5718   -0.5432    2.0529 C   0  0  0  0  0  0  0  0  0  0  0  0
   -0.9205   -0.5537    1.5572 C   0  0  0  0  0  0  0  0  0  0  0  0
    0.1138   -2.8971   -1.5829 H   0  0  0  0  0  0  0  0  0  0  0  0
   -1.2377   -2.1604   -0.5653 H   0  0  0  0  0  0  0  0  0  0  0  0
    1.7811   -1.6849   -0.3529 H   0  0  0  0  0  0  0  0  0  0  0  0
    0.5788    0.5379    0.3997 H   0  0  0  0  0  0  0  0  0  0  0  0
    2.5641   -0.4978    1.5990 H   0  0  0  0  0  0  0  0  0  0  0  0
    1.5386   -1.4317    2.6916 H   0  0  0  0  0  0  0  0  0  0  0  0
    1.4532    0.3313    2.6961 H   0  0  0  0  0  0  0  0  0  0  0  0
   -1.1839   -1.5076    2.0250 H   0  0  0  0  0  0  0  0  0  0  0  0
   -1.6549   -0.3442    0.7774 H   0  0  0  0  0  0  0  0  0  0  0  0
   -1.0089    0.2277    2.3141 H   0  0  0  0  0  0  0  0  0  0  0  0
  1  2  1  0
  1  3  1  0
  1  4  1  0
  2  5  1  0
  6  7  2  3
  6 11  1  0
  6 12  1  0
  7  8  1  0
  7 13  1  0
  8  9  1  0
  8 10  1  0
  8 14  1  0
  9 15  1  0
  9 16  1  0
  9 17  1  0
 10 18  1  0
 10 19  1  0
 10 20  1  0
M  RAD  1   1   2
M  END
>  <reaction>  (4) 
rxn_1103

>  <mol_properties>  (4) 
{"0": {"label": "*3", "atom_type": "Cs"}, "1": {"label": "*4", "atom_type": "S2s"}, "6": {"label": "*0", "atom_type": "Cd"}, "7": {"label": "*1", "atom_type": "Cs"}, "13": {"label": "*2", "atom_type": "H0"}}

>  <type>  (4) 
ts

$$$$
