
     RDKit          3D

 18 18  0  0  0  0  0  0  0  0999 V2000
   -2.4852    0.3210   -0.3966 C   0  0  0  0  0  0  0  0  0  0  0  0
   -1.5917   -0.2708    0.6941 C   0  0  0  0  0  0  0  0  0  0  0  0
   -0.1292   -0.1692    0.3493 C   0  0  0  0  0  0  0  0  0  0  0  0
    0.6099    0.9558    0.7015 C   0  0  0  0  0  0  0  0  0  0  0  0
    1.9447    1.0728    0.3458 C   0  0  0  0  0  0  0  0  0  0  0  0
    2.5646    0.0613   -0.3720 C   0  0  0  0  0  0  0  0  0  0  0  0
    1.8399   -1.0657   -0.7287 C   0  0  0  0  0  0  0  0  0  0  0  0
    0.5055   -1.1769   -0.3700 C   0  0  0  0  0  0  0  0  0  0  0  0
   -2.3325   -0.1971   -1.3452 H   0  0  0  0  0  0  0  0  0  0  0  0
   -2.2554    1.3763   -0.5546 H   0  0  0  0  0  0  0  0  0  0  0  0
   -3.5397    0.2376   -0.1280 H   0  0  0  0  0  0  0  0  0  0  0  0
   -1.7801    0.2462    1.6380 H   0  0  0  0  0  0  0  0  0  0  0  0
   -1.8568   -1.3190    0.8516 H   0  0  0  0  0  0  0  0  0  0  0  0
    0.1327    1.7497    1.2656 H   0  0  0  0  0  0  0  0  0  0  0  0
    2.5033    1.9550    0.6330 H   0  0  0  0  0  0  0  0  0  0  0  0
    3.6077    0.1491   -0.6484 H   0  0  0  0  0  0  0  0  0  0  0  0
    2.3163   -1.8632   -1.2854 H   0  0  0  0  0  0  0  0  0  0  0  0
   -0.0540   -2.0629   -0.6500 H   0  0  0  0  0  0  0  0  0  0  0  0
  1  2  1  0
  1  9  1  0
  1 10  1  0
  1 11  1  0
  2  3  1  0
  2 12  1  0
  2 13  1  0
  3  4  2  0
  3  8  1  0
  4  5  1  0
  4 14  1  0
  5  6  2  0
  5 15  1  0
  6  7  1  0
  6 16  1  0
  7  8  2  0
  7 17  1  0
  8 18  1  0
M  END
>  <reaction>  (1) 
rxn_1480

>  <mol_properties>  (1) 
{"1": {"label": "donator", "atom_type": "Cs"}, "11": {"label": "d_hydrogen", "atom_type": "H0"}}

>  <type>  (1) 
r1h

$$$$

     RDKit          3D

 10  9  0  0  0  0  0  0  0  0999 V2000
    1.2930    0.1441    0.3288 C   0  0  0  0  0  0  0  0  0  0  0  0
   -0.0374   -0.1647    0.9100 C   0  0  0  0  0  3  0  0  0  0  0  0
   -1.2664    0.4569    0.3567 C   0  0  0  0  0  0  0  0  0  0  0  0
    1.4384    1.2242    0.2174 H   0  0  0  0  0  0  0  0  0  0  0  0
    2.1077   -0.2477    0.9385 H   0  0  0  0  0  0  0  0  0  0  0  0
    1.4057   -0.2836   -0.6789 H   0  0  0  0  0  0  0  0  0  0  0  0
   -0.1309   -0.9912    1.6030 H   0  0  0  0  0  0  0  0  0  0  0  0
   -1.5005    0.0716   -0.6471 H   0  0  0  0  0  0  0  0  0  0  0  0
   -2.1382    0.2713    0.9849 H   0  0  0  0  0  0  0  0  0  0  0  0
   -1.1497    1.5406    0.2456 H   0  0  0  0  0  0  0  0  0  0  0  0
  1  2  1  0
  1  4  1  0
  1  5  1  0
  1  6  1  0
  2  3  1  0
  2  7  1  0
  3  8  1  0
  3  9  1  0
  3 10  1  0
M  RAD  1   2   2
M  END
>  <reaction>  (2) 
rxn_1480

>  <mol_properties>  (2) 
{"1": {"label": "acceptor", "atom_type": "Cs"}}

>  <type>  (2) 
r2

$$$$

     RDKit          3D

 11 10  0  0  0  0  0  0  0  0999 V2000
   -1.2710    0.1907   -0.2084 C   0  0  0  0  0  0  0  0  0  0  0  0
    0.0202   -0.6130   -0.2928 C   0  0  0  0  0  0  0  0  0  0  0  0
    0.1086   -1.6953    0.7756 C   0  0  0  0  0  0  0  0  0  0  0  0
   -1.3607    0.6851    0.7620 H   0  0  0  0  0  0  0  0  0  0  0  0
   -2.1429   -0.4567   -0.3299 H   0  0  0  0  0  0  0  0  0  0  0  0
   -1.3158    0.9602   -0.9809 H   0  0  0  0  0  0  0  0  0  0  0  0
    0.8757    0.0616   -0.1992 H   0  0  0  0  0  0  0  0  0  0  0  0
    0.0997   -1.0712   -1.2825 H   0  0  0  0  0  0  0  0  0  0  0  0
   -0.7198   -2.4022    0.6850 H   0  0  0  0  0  0  0  0  0  0  0  0
    1.0395   -2.2596    0.6989 H   0  0  0  0  0  0  0  0  0  0  0  0
    0.0624   -1.2603    1.7770 H   0  0  0  0  0  0  0  0  0  0  0  0
  1  2  1  0
  1  4  1  0
  1  5  1  0
  1  6  1  0
  2  3  1  0
  2  7  1  0
  2  8  1  0
  3  9  1  0
  3 10  1  0
  3 11  1  0
M  END
>  <reaction>  (3) 
rxn_1480

>  <mol_properties>  (3) 
{"0": {"label": "a_hydrogen", "atom_type": "H0"}, "2": {"label": "acceptor", "atom_type": "Cs"}}

>  <type>  (3) 
r2h

$$$$

     RDKit          3D

 28 27  0  0  0  0  0  0  0  0999 V2000
    0.6884   -1.2747   -2.4231 C   0  0  0  0  0  0  0  0  0  0  0  0
    0.8557   -1.0013   -0.9477 C   0  0  0  0  0  0  0  0  0  0  0  0
    0.5951    0.3576   -0.4366 C   0  0  0  0  0  0  0  0  0  0  0  0
   -0.1895    1.2832   -1.1288 C   0  0  0  0  0  0  0  0  0  0  0  0
   -0.4735    2.5267   -0.5864 C   0  0  0  0  0  0  0  0  0  0  0  0
    0.0166    2.8780    0.6618 C   0  0  0  0  0  0  0  0  0  0  0  0
    0.8015    1.9715    1.3622 C   0  0  0  0  0  0  0  0  0  0  0  0
    1.0854    0.7318    0.8193 C   0  0  0  0  0  0  0  0  0  0  0  0
    1.3359   -0.6355   -3.0305 H   0  0  0  0  0  0  0  0  0  0  0  0
   -0.3402   -1.1077   -2.7504 H   0  0  0  0  0  0  0  0  0  0  0  0
    0.9353   -2.3131   -2.6471 H   0  0  0  0  0  0  0  0  0  0  0  0
   -0.0384   -1.7498   -0.3766 H   0  0  0  0  0  0  0  0  0  0  0  0
    1.7779   -1.4175   -0.5417 H   0  0  0  0  0  0  0  0  0  0  0  0
   -0.5834    1.0318   -2.1053 H   0  0  0  0  0  0  0  0  0  0  0  0
   -1.0823    3.2269   -1.1452 H   0  0  0  0  0  0  0  0  0  0  0  0
   -0.2058    3.8497    1.0836 H   0  0  0  0  0  0  0  0  0  0  0  0
    1.1963    2.2350    2.3358 H   0  0  0  0  0  0  0  0  0  0  0  0
    1.6993    0.0304    1.3736 H   0  0  0  0  0  0  0  0  0  0  0  0
   -2.3071   -1.6662   -0.1516 C   0  0  0  0  0  0  0  0  0  0  0  0
   -1.0845   -2.4444    0.2447 C   0  0  0  0  0  3  0  0  0  0  0  0
   -0.7162   -2.4142    1.7011 C   0  0  0  0  0  0  0  0  0  0  0  0
   -2.2188   -0.6219    0.1593 H   0  0  0  0  0  0  0  0  0  0  0  0
   -2.4644   -1.6850   -1.2315 H   0  0  0  0  0  0  0  0  0  0  0  0
   -3.2094   -2.0732    0.3205 H   0  0  0  0  0  0  0  0  0  0  0  0
   -1.0139   -3.4307   -0.2137 H   0  0  0  0  0  0  0  0  0  0  0  0
   -1.4776   -2.9091    2.3157 H   0  0  0  0  0  0  0  0  0  0  0  0
    0.2346   -2.9174    1.8869 H   0  0  0  0  0  0  0  0  0  0  0  0
   -0.6311   -1.3837    2.0561 H   0  0  0  0  0  0  0  0  0  0  0  0
  1  2  1  0
  1  9  1  0
  1 10  1  0
  1 11  1  0
  2  3  1  0
  2 12  1  0
  2 13  1  0
  3  4  2  0
  3  8  1  0
  4  5  1  0
  4 14  1  0
  5  6  2  0
  5 15  1  0
  6  7  1  0
  6 16  1  0
  7  8  2  0
  7 17  1  0
  8 18  1  0
 19 20  1  0
 19 22  1  0
 19 23  1  0
 19 24  1  0
 20 21  1  0
 20 25  1  0
 21 26  1  0
 21 27  1  0
 21 28  1  0
M  RAD  1  20   2
M  END
>  <reaction>  (4) 
rxn_1480

>  <mol_properties>  (4) 
{"1": {"label": "*1", "atom_type": "Cs"}, "2": {"label": "*0", "atom_type": "Cd"}, "11": {"label": "*2", "atom_type": "H0"}, "18": {"label": "*4", "atom_type": "Cs"}, "19": {"label": "*3", "atom_type": "Cs"}}

>  <type>  (4) 
ts

$$$$
