
     RDKit          3D

 13 12  0  0  0  0  0  0  0  0999 V2000
    3.0977   -0.3549   -0.5105 C   0  0  0  0  0  0  0  0  0  0  0  0
    2.0556    0.4221   -0.2627 C   0  0  0  0  0  0  0  0  0  0  0  0
    0.6313   -0.0354   -0.2366 C   0  0  0  0  0  0  0  0  0  0  0  0
   -0.2567    0.6038   -1.2694 C   0  0  0  0  0  0  0  0  0  0  0  0
    0.1459    1.3456   -2.2891 C   0  0  0  0  0  0  0  0  0  0  0  0
    4.1081    0.0344   -0.5074 H   0  0  0  0  0  0  0  0  0  0  0  0
    2.9777   -1.4116   -0.7243 H   0  0  0  0  0  0  0  0  0  0  0  0
    2.2171    1.4781   -0.0618 H   0  0  0  0  0  0  0  0  0  0  0  0
    0.5865   -1.1233   -0.3540 H   0  0  0  0  0  0  0  0  0  0  0  0
    0.2065    0.1743    0.7521 H   0  0  0  0  0  0  0  0  0  0  0  0
   -1.3190    0.4126   -1.1445 H   0  0  0  0  0  0  0  0  0  0  0  0
    1.1948    1.5564   -2.4628 H   0  0  0  0  0  0  0  0  0  0  0  0
   -0.5644    1.7621   -2.9918 H   0  0  0  0  0  0  0  0  0  0  0  0
  1  2  2  3
  1  6  1  0
  1  7  1  0
  2  3  1  0
  2  8  1  0
  3  4  1  0
  3  9  1  0
  3 10  1  0
  4  5  2  3
  4 11  1  0
  5 12  1  0
  5 13  1  0
M  END
>  <reaction>  (1) 
rxn_1158

>  <mol_properties>  (1) 
{"2": {"label": "donator", "atom_type": "Cs"}, "8": {"label": "d_hydrogen", "atom_type": "H0"}}

>  <type>  (1) 
r1h

$$$$

     RDKit          3D

  7  6  0  0  0  0  0  0  0  0999 V2000
    1.8092   -0.3013   -0.2242 S   0  0  0  0  0  0  0  0  0  0  0  0
    0.1552   -0.6967   -0.1137 C   0  0  0  0  0  0  0  0  0  0  0  0
   -0.8921    0.1788    0.1148 C   0  0  0  0  0  0  0  0  0  0  0  0
   -0.7548    1.8245    0.3328 S   0  0  0  0  0  1  0  0  0  0  0  0
    1.6168    1.0210   -0.0187 H   0  0  0  0  0  0  0  0  0  0  0  0
   -0.0550   -1.7522   -0.2412 H   0  0  0  0  0  0  0  0  0  0  0  0
   -1.8791   -0.2740    0.1502 H   0  0  0  0  0  0  0  0  0  0  0  0
  1  2  1  0
  1  5  1  0
  2  3  2  3
  2  6  1  0
  3  4  1  0
  3  7  1  0
M  RAD  1   4   2
M  END
>  <reaction>  (2) 
rxn_1158

>  <mol_properties>  (2) 
{"1": {"label": "acceptor", "atom_type": "Cs"}}

>  <type>  (2) 
r2

$$$$

     RDKit          3D

  8  7  0  0  0  0  0  0  0  0999 V2000
    1.7301   -0.0562    0.5281 S   0  0  0  0  0  0  0  0  0  0  0  0
    0.1858    0.6127   -0.1669 C   0  0  0  0  0  0  0  0  0  0  0  0
   -0.9621   -0.2567    0.2171 C   0  0  0  0  0  0  0  0  0  0  0  0
   -1.8663   -1.1002   -0.8086 S   0  0  0  0  0  0  0  0  0  0  0  0
    1.7025   -1.2092   -0.1540 H   0  0  0  0  0  0  0  0  0  0  0  0
    0.2619    0.7246   -1.2458 H   0  0  0  0  0  0  0  0  0  0  0  0
    0.0809    1.5982    0.2929 H   0  0  0  0  0  0  0  0  0  0  0  0
   -1.1456   -0.3126    1.2907 H   0  0  0  0  0  0  0  0  0  0  0  0
  1  2  1  0
  1  5  1  0
  2  3  1  0
  2  6  1  0
  2  7  1  0
  3  4  2  0
  3  8  1  0
M  END
>  <reaction>  (3) 
rxn_1158

>  <mol_properties>  (3) 
{"1": {"label": "acceptor", "atom_type": "Cs"}, "7": {"label": "a_hydrogen", "atom_type": "H0"}}

>  <type>  (3) 
r2h

$$$$

     RDKit          3D

 20 18  0  0  0  0  0  0  0  0999 V2000
   -1.6406    0.8267   -1.5897 S   0  0  0  0  0  0  0  0  0  0  0  0
   -0.5978    1.1270   -0.2014 C   0  0  0  0  0  0  0  0  0  0  0  0
    0.8311    1.2029   -0.3259 C   0  0  0  0  0  0  0  0  0  0  0  0
    1.7399    0.5766   -1.5312 S   0  0  0  0  0  0  0  0  0  0  0  0
   -0.6585    0.2998   -2.3465 H   0  0  0  0  0  0  0  0  0  0  0  0
   -1.0426    1.8391    0.4895 H   0  0  0  0  0  0  0  0  0  0  0  0
    1.3267    1.6424    0.5376 H   0  0  0  0  0  0  0  0  0  0  0  0
   -1.0777   -2.6336   -0.7448 C   0  0  0  0  0  0  0  0  0  0  0  0
   -0.2615   -2.0900    0.1645 C   0  0  0  0  0  0  0  0  0  0  0  0
   -0.7126   -1.1943    1.2132 C   0  0  0  0  0  3  0  0  0  0  0  0
    0.1185   -0.8895    2.3752 C   0  0  0  0  0  0  0  0  0  0  0  0
    1.4530   -0.8965    2.4047 C   0  0  0  0  0  0  0  0  0  0  0  0
   -0.6962   -3.2740   -1.5289 H   0  0  0  0  0  0  0  0  0  0  0  0
   -2.1461   -2.4544   -0.7241 H   0  0  0  0  0  0  0  0  0  0  0  0
    0.8019   -2.2920    0.1000 H   0  0  0  0  0  0  0  0  0  0  0  0
   -0.6740    0.0158    0.5446 H   0  0  0  0  0  0  0  0  0  0  0  0
   -1.7827   -1.2311    1.4062 H   0  0  0  0  0  0  0  0  0  0  0  0
   -0.4156   -0.5644    3.2626 H   0  0  0  0  0  0  0  0  0  0  0  0
    2.0522   -1.1785    1.5474 H   0  0  0  0  0  0  0  0  0  0  0  0
    1.9882   -0.6169    3.3024 H   0  0  0  0  0  0  0  0  0  0  0  0
  1  2  1  0
  1  5  1  0
  2  3  1  0
  2  6  1  0
  2 16  1  0
  3  4  2  0
  3  7  1  0
  8  9  2  3
  8 13  1  0
  8 14  1  0
  9 10  1  0
  9 15  1  0
 10 11  1  0
 10 17  1  0
 11 12  2  3
 11 18  1  0
 12 19  1  0
 12 20  1  0
M  RAD  1  10   2
M  END
>  <reaction>  (4) 
rxn_1158

>  <mol_properties>  (4) 
{"1": {"label": "*1", "atom_type": "Cs"}, "2": {"label": "*0", "atom_type": "CS"}, "8": {"label": "*4", "atom_type": "Cd"}, "9": {"label": "*3", "atom_type": "Cs"}, "15": {"label": "*2", "atom_type": "H0"}}

>  <type>  (4) 
ts

$$$$
