
     RDKit          3D

 13 12  0  0  0  0  0  0  0  0999 V2000
    1.4471   -0.5697   -0.3031 C   0  0  0  0  0  0  0  0  0  0  0  0
    0.1326   -0.0908    0.2824 C   0  0  0  0  0  0  0  0  0  0  0  0
   -0.9497   -1.1552    0.2479 C   0  0  0  0  0  0  0  0  0  0  0  0
    0.4558    0.2966    1.6153 O   0  0  0  0  0  0  0  0  0  0  0  0
   -0.6579    0.9916    2.1633 O   0  0  0  0  0  0  0  0  0  0  0  0
    1.3038   -0.8532   -1.3463 H   0  0  0  0  0  0  0  0  0  0  0  0
    2.2007    0.2158   -0.2551 H   0  0  0  0  0  0  0  0  0  0  0  0
    1.8154   -1.4406    0.2423 H   0  0  0  0  0  0  0  0  0  0  0  0
   -0.2086    0.8022   -0.2523 H   0  0  0  0  0  0  0  0  0  0  0  0
   -0.6253   -2.0447    0.7929 H   0  0  0  0  0  0  0  0  0  0  0  0
   -1.8753   -0.7853    0.6886 H   0  0  0  0  0  0  0  0  0  0  0  0
   -1.1623   -1.4423   -0.7833 H   0  0  0  0  0  0  0  0  0  0  0  0
   -0.9730    0.3636    2.8217 H   0  0  0  0  0  0  0  0  0  0  0  0
  1  2  1  0
  1  6  1  0
  1  7  1  0
  1  8  1  0
  2  3  1  0
  2  4  1  0
  2  9  1  0
  3 10  1  0
  3 11  1  0
  3 12  1  0
  4  5  1  0
  5 13  1  0
M  END
>  <reaction>  (1) 
rxn_461

>  <mol_properties>  (1) 
{"4": {"label": "donator", "atom_type": "O2s"}, "12": {"label": "d_hydrogen", "atom_type": "H0"}}

>  <type>  (1) 
r1h

$$$$

     RDKit          3D

  6  5  0  0  0  0  0  0  0  0999 V2000
   -0.7133   -0.0465   -0.1138 C   0  0  0  0  0  0  0  0  0  0  0  0
    0.6837    0.0990    0.1040 C   0  0  0  0  0  0  0  0  0  0  0  0
    1.4284   -0.8504    0.3164 O   0  0  0  0  0  1  0  0  0  0  0  0
   -1.3425    0.8143   -0.2988 H   0  0  0  0  0  0  0  0  0  0  0  0
   -1.1519   -1.0358   -0.0939 H   0  0  0  0  0  0  0  0  0  0  0  0
    1.0889    1.1261    0.0750 H   0  0  0  0  0  0  0  0  0  0  0  0
  1  2  2  3
  1  4  1  0
  1  5  1  0
  2  3  1  0
  2  6  1  0
M  RAD  1   3   2
M  END
>  <reaction>  (2) 
rxn_461

>  <mol_properties>  (2) 
{"0": {"label": "acceptor", "atom_type": "Cs"}}

>  <type>  (2) 
r2

$$$$

     RDKit          3D

  7  6  0  0  0  0  0  0  0  0999 V2000
   -0.6468   -0.0443   -0.0231 C   0  0  0  0  0  0  0  0  0  0  0  0
    0.8470    0.0371    0.0688 C   0  0  0  0  0  0  0  0  0  0  0  0
    1.4866   -0.2280    1.0479 O   0  0  0  0  0  0  0  0  0  0  0  0
   -1.0466    0.9363   -0.2943 H   0  0  0  0  0  0  0  0  0  0  0  0
   -0.9229   -0.7318   -0.8269 H   0  0  0  0  0  0  0  0  0  0  0  0
   -1.0759   -0.3772    0.9198 H   0  0  0  0  0  0  0  0  0  0  0  0
    1.3584    0.3712   -0.8589 H   0  0  0  0  0  0  0  0  0  0  0  0
  1  2  1  0
  1  4  1  0
  1  5  1  0
  1  6  1  0
  2  3  2  0
  2  7  1  0
M  END
>  <reaction>  (3) 
rxn_461

>  <mol_properties>  (3) 
{"0": {"label": "a_hydrogen", "atom_type": "H0"}, "1": {"label": "acceptor", "atom_type": "Cs"}}

>  <type>  (3) 
r2h

$$$$

     RDKit          3D

 19 17  0  0  0  0  0  0  0  0999 V2000
    1.6186   -0.1856   -2.2889 C   0  0  0  0  0  0  0  0  0  0  0  0
    1.6950   -0.2158   -0.7766 C   0  0  0  0  0  0  0  0  0  0  0  0
    1.5140    1.1504   -0.1455 C   0  0  0  0  0  0  0  0  0  0  0  0
    0.6532   -1.1351   -0.3906 O   0  0  0  0  0  0  0  0  0  0  0  0
    0.6483   -1.3301    0.9602 O   0  0  0  0  0  0  0  0  0  0  0  0
    2.4285    0.4284   -2.6834 H   0  0  0  0  0  0  0  0  0  0  0  0
    1.7112   -1.1893   -2.7036 H   0  0  0  0  0  0  0  0  0  0  0  0
    0.6688    0.2433   -2.6120 H   0  0  0  0  0  0  0  0  0  0  0  0
    2.6420   -0.6573   -0.4511 H   0  0  0  0  0  0  0  0  0  0  0  0
    0.5431    1.5724   -0.4099 H   0  0  0  0  0  0  0  0  0  0  0  0
    1.5981    1.0961    0.9394 H   0  0  0  0  0  0  0  0  0  0  0  0
    2.2977    1.8176   -0.5076 H   0  0  0  0  0  0  0  0  0  0  0  0
   -0.2014   -0.6781    1.3498 H   0  0  0  0  0  0  0  0  0  0  0  0
   -1.2624    0.1370    1.7572 C   0  0  0  0  0  0  0  0  0  0  0  0
   -2.0197    0.1896    0.5129 C   0  0  0  0  0  0  0  0  0  0  0  0
   -1.9305    1.0914   -0.2917 O   0  0  0  0  0  1  0  0  0  0  0  0
   -1.6670   -0.4778    2.5562 H   0  0  0  0  0  0  0  0  0  0  0  0
   -0.7636    1.0539    2.0540 H   0  0  0  0  0  0  0  0  0  0  0  0
   -2.6831   -0.6721    0.3142 H   0  0  0  0  0  0  0  0  0  0  0  0
  1  2  1  0
  1  6  1  0
  1  7  1  0
  1  8  1  0
  2  3  1  0
  2  4  1  0
  2  9  1  0
  3 10  1  0
  3 11  1  0
  3 12  1  0
  4  5  1  0
  5 13  1  0
 14 15  2  3
 14 17  1  0
 14 18  1  0
 15 16  1  0
 15 19  1  0
M  RAD  1  16   2
M  END
>  <reaction>  (4) 
rxn_461

>  <mol_properties>  (4) 
{"3": {"label": "*0", "atom_type": "O2s"}, "4": {"label": "*1", "atom_type": "O2s"}, "12": {"label": "*2", "atom_type": "H0"}, "13": {"label": "*3", "atom_type": "Cd"}, "14": {"label": "*4", "atom_type": "Cd"}}

>  <type>  (4) 
ts

$$$$
