
     RDKit          3D

 16 15  0  0  0  0  0  0  0  0999 V2000
    1.7961   -0.3807    1.6176 C   0  0  0  0  0  0  0  0  0  0  0  0
    0.8562   -0.8708    0.8256 C   0  0  0  0  0  0  0  0  0  0  0  0
    0.0895   -0.0826   -0.2048 C   0  0  0  0  0  0  0  0  0  0  0  0
   -1.4061   -0.1111    0.0982 C   0  0  0  0  0  0  0  0  0  0  0  0
    0.4476   -0.5902   -1.5797 C   0  0  0  0  0  0  0  0  0  0  0  0
   -0.3793   -1.1113   -2.4728 C   0  0  0  0  0  0  0  0  0  0  0  0
    2.3110   -1.0032    2.3386 H   0  0  0  0  0  0  0  0  0  0  0  0
    2.0846    0.6643    1.5737 H   0  0  0  0  0  0  0  0  0  0  0  0
    0.5921   -1.9241    0.8925 H   0  0  0  0  0  0  0  0  0  0  0  0
    0.4358    0.9557   -0.1462 H   0  0  0  0  0  0  0  0  0  0  0  0
   -1.5968    0.3080    1.0865 H   0  0  0  0  0  0  0  0  0  0  0  0
   -1.9674    0.4693   -0.6359 H   0  0  0  0  0  0  0  0  0  0  0  0
   -1.7902   -1.1338    0.0883 H   0  0  0  0  0  0  0  0  0  0  0  0
    1.5049   -0.5197   -1.8214 H   0  0  0  0  0  0  0  0  0  0  0  0
   -1.4421   -1.2131   -2.2889 H   0  0  0  0  0  0  0  0  0  0  0  0
   -0.0162   -1.4558   -3.4328 H   0  0  0  0  0  0  0  0  0  0  0  0
  1  2  2  3
  1  7  1  0
  1  8  1  0
  2  3  1  0
  2  9  1  0
  3  4  1  0
  3  5  1  0
  3 10  1  0
  4 11  1  0
  4 12  1  0
  4 13  1  0
  5  6  2  3
  5 14  1  0
  6 15  1  0
  6 16  1  0
M  END
>  <reaction>  (1) 
rxn_1198

>  <mol_properties>  (1) 
{"2": {"label": "donator", "atom_type": "Cs"}, "9": {"label": "d_hydrogen", "atom_type": "H0"}}

>  <type>  (1) 
r1h

$$$$

     RDKit          3D

  7  6  0  0  0  0  0  0  0  0999 V2000
   -1.3496    0.0255    0.0758 C   0  0  0  0  0  0  0  0  0  0  0  0
   -0.0636   -0.0704   -0.0033 C   0  0  0  0  0  0  0  0  0  0  0  0
    1.2597   -0.1602   -0.0839 C   0  0  0  0  0  0  0  0  0  0  0  0
    2.2616    1.2090   -0.0064 S   0  0  0  0  0  1  0  0  0  0  0  0
   -1.8547   -0.0180    1.0345 H   0  0  0  0  0  0  0  0  0  0  0  0
   -1.9552    0.1601   -0.8138 H   0  0  0  0  0  0  0  0  0  0  0  0
    1.7017   -1.1460   -0.2029 H   0  0  0  0  0  0  0  0  0  0  0  0
  1  2  2  0
  1  5  1  0
  1  6  1  0
  2  3  2  0
  3  4  1  0
  3  7  1  0
M  RAD  1   4   2
M  END
>  <reaction>  (2) 
rxn_1198

>  <mol_properties>  (2) 
{"1": {"label": "acceptor", "atom_type": "Cd"}}

>  <type>  (2) 
r2

$$$$

     RDKit          3D

  8  7  0  0  0  0  0  0  0  0999 V2000
   -1.1617    0.0338    0.5053 C   0  0  0  0  0  0  0  0  0  0  0  0
   -0.1023    0.4503   -0.1863 C   0  0  0  0  0  0  0  0  0  0  0  0
    1.0978   -0.3557   -0.3104 C   0  0  0  0  0  0  0  0  0  0  0  0
    2.4251    0.0667   -1.1256 S   0  0  0  0  0  0  0  0  0  0  0  0
   -1.1653   -0.9292    1.0039 H   0  0  0  0  0  0  0  0  0  0  0  0
   -2.0546    0.6389    0.5948 H   0  0  0  0  0  0  0  0  0  0  0  0
   -0.0991    1.4132   -0.6847 H   0  0  0  0  0  0  0  0  0  0  0  0
    1.0601   -1.3180    0.2032 H   0  0  0  0  0  0  0  0  0  0  0  0
  1  2  2  3
  1  5  1  0
  1  6  1  0
  2  3  1  0
  2  7  1  0
  3  4  2  0
  3  8  1  0
M  END
>  <reaction>  (3) 
rxn_1198

>  <mol_properties>  (3) 
{"1": {"label": "acceptor", "atom_type": "Cd"}, "7": {"label": "a_hydrogen", "atom_type": "H0"}}

>  <type>  (3) 
r2h

$$$$

     RDKit          3D

 23 21  0  0  0  0  0  0  0  0999 V2000
   -1.0138    2.2740    0.1636 C   0  0  0  0  0  0  0  0  0  0  0  0
   -0.1812    1.5569   -0.5508 C   0  0  0  0  0  0  0  0  0  0  0  0
    0.8352    1.6456   -1.5138 C   0  0  0  0  0  0  0  0  0  0  0  0
    2.4357    1.4555   -1.1965 S   0  0  0  0  0  1  0  0  0  0  0  0
   -1.0002    3.3585    0.1252 H   0  0  0  0  0  0  0  0  0  0  0  0
   -1.7303    1.8019    0.8272 H   0  0  0  0  0  0  0  0  0  0  0  0
    0.5018    1.7572   -2.5460 H   0  0  0  0  0  0  0  0  0  0  0  0
   -0.4918   -2.6515   -1.4925 C   0  0  0  0  0  0  0  0  0  0  0  0
    0.1552   -1.7619   -0.7462 C   0  0  0  0  0  0  0  0  0  0  0  0
   -0.4094   -0.9449    0.3495 C   0  0  0  0  0  0  0  0  0  0  0  0
    0.5017   -0.8052    1.5495 C   0  0  0  0  0  0  0  0  0  0  0  0
   -1.8557   -1.0628    0.6041 C   0  0  0  0  0  0  0  0  0  0  0  0
   -2.4409   -1.0361    1.7987 C   0  0  0  0  0  0  0  0  0  0  0  0
    0.0212   -3.1866   -2.2810 H   0  0  0  0  0  0  0  0  0  0  0  0
   -1.5355   -2.8944   -1.3357 H   0  0  0  0  0  0  0  0  0  0  0  0
    1.2088   -1.5838   -0.9420 H   0  0  0  0  0  0  0  0  0  0  0  0
   -0.3257    0.2325   -0.1908 H   0  0  0  0  0  0  0  0  0  0  0  0
    1.5185   -0.5810    1.2272 H   0  0  0  0  0  0  0  0  0  0  0  0
    0.1745    0.0033    2.2036 H   0  0  0  0  0  0  0  0  0  0  0  0
    0.5171   -1.7339    2.1262 H   0  0  0  0  0  0  0  0  0  0  0  0
   -2.4826   -1.1434   -0.2787 H   0  0  0  0  0  0  0  0  0  0  0  0
   -1.8747   -0.9588    2.7185 H   0  0  0  0  0  0  0  0  0  0  0  0
   -3.5171   -1.1050    1.8908 H   0  0  0  0  0  0  0  0  0  0  0  0
  1  2  2  0
  1  5  1  0
  1  6  1  0
  2  3  2  0
  3  4  1  0
  3  7  1  0
  8  9  2  3
  8 14  1  0
  8 15  1  0
  9 10  1  0
  9 16  1  0
 10 11  1  0
 10 12  1  0
 10 17  1  0
 11 18  1  0
 11 19  1  0
 11 20  1  0
 12 13  2  3
 12 21  1  0
 13 22  1  0
 13 23  1  0
M  RAD  1   4   2
M  END
>  <reaction>  (4) 
rxn_1198

>  <mol_properties>  (4) 
{"1": {"label": "*3", "atom_type": "Cdd"}, "2": {"label": "*4", "atom_type": "Cd"}, "8": {"label": "*0", "atom_type": "Cd"}, "9": {"label": "*1", "atom_type": "Cs"}, "16": {"label": "*2", "atom_type": "H0"}}

>  <type>  (4) 
ts

$$$$
