
     RDKit          3D

 12 11  0  0  0  0  0  0  0  0999 V2000
    2.1696    0.6854    1.1310 C   0  0  0  0  0  0  0  0  0  0  0  0
    1.2518    0.4145    0.4134 C   0  0  0  0  0  0  0  0  0  0  0  0
    0.1391    0.0443   -0.4683 C   0  0  0  0  0  0  0  0  0  0  0  0
   -0.2054   -1.4492   -0.3339 C   0  0  0  0  0  0  0  0  0  0  0  0
   -1.0375    0.8853   -0.2222 C   0  0  0  0  0  0  0  0  0  0  0  0
   -2.0160    1.5463   -0.0311 C   0  0  0  0  0  0  0  0  0  0  0  0
    2.9819    0.9356    1.7702 H   0  0  0  0  0  0  0  0  0  0  0  0
    0.4629    0.2285   -1.4981 H   0  0  0  0  0  0  0  0  0  0  0  0
   -0.5327   -1.6703    0.6812 H   0  0  0  0  0  0  0  0  0  0  0  0
    0.6727   -2.0535   -0.5593 H   0  0  0  0  0  0  0  0  0  0  0  0
   -1.0064   -1.7081   -1.0256 H   0  0  0  0  0  0  0  0  0  0  0  0
   -2.8802    2.1413    0.1426 H   0  0  0  0  0  0  0  0  0  0  0  0
  1  2  3  0
  1  7  1  0
  2  3  1  0
  3  4  1  0
  3  5  1  0
  3  8  1  0
  4  9  1  0
  4 10  1  0
  4 11  1  0
  5  6  3  0
  6 12  1  0
M  END
>  <reaction>  (1) 
rxn_1404

>  <mol_properties>  (1) 
{"2": {"label": "donator", "atom_type": "Cs"}, "7": {"label": "d_hydrogen", "atom_type": "H0"}}

>  <type>  (1) 
r1h

$$$$

     RDKit          3D

 17 17  0  0  0  0  0  0  0  0999 V2000
    2.7069    0.2860   -0.1817 C   0  0  0  0  0  0  0  0  0  0  0  0
    1.6304   -0.7245    0.0085 C   0  0  0  0  0  0  0  0  0  0  0  0
    1.4786   -1.8800   -0.7837 C   0  0  0  0  0  0  0  0  0  0  0  0
    0.4231   -2.7891   -0.5312 C   0  0  0  0  0  3  0  0  0  0  0  0
    0.2582   -3.9235   -1.2940 C   0  0  0  0  0  0  0  0  0  0  0  0
    1.1348   -4.2030   -2.3401 C   0  0  0  0  0  0  0  0  0  0  0  0
    2.1804   -3.3260   -2.6093 C   0  0  0  0  0  0  0  0  0  0  0  0
    2.3549   -2.1866   -1.8513 C   0  0  0  0  0  0  0  0  0  0  0  0
    2.6698    0.7343   -1.1808 H   0  0  0  0  0  0  0  0  0  0  0  0
    3.7029   -0.1584   -0.0766 H   0  0  0  0  0  0  0  0  0  0  0  0
    2.6250    1.0917    0.5463 H   0  0  0  0  0  0  0  0  0  0  0  0
    0.9136   -0.5677    0.8059 H   0  0  0  0  0  0  0  0  0  0  0  0
   -0.2629   -2.5783    0.2811 H   0  0  0  0  0  0  0  0  0  0  0  0
   -0.5582   -4.6017   -1.0785 H   0  0  0  0  0  0  0  0  0  0  0  0
    1.0033   -5.0952   -2.9384 H   0  0  0  0  0  0  0  0  0  0  0  0
    2.8650   -3.5382   -3.4214 H   0  0  0  0  0  0  0  0  0  0  0  0
    3.1750   -1.5169   -2.0772 H   0  0  0  0  0  0  0  0  0  0  0  0
  1  2  1  0
  1  9  1  0
  1 10  1  0
  1 11  1  0
  2  3  2  3
  2 12  1  0
  3  4  1  0
  3  8  1  0
  4  5  1  0
  4 13  1  0
  5  6  2  0
  5 14  1  0
  6  7  1  0
  6 15  1  0
  7  8  2  0
  7 16  1  0
  8 17  1  0
M  RAD  1   4   2
M  END
>  <reaction>  (2) 
rxn_1404

>  <mol_properties>  (2) 
{"1": {"label": "acceptor", "atom_type": "Cs"}}

>  <type>  (2) 
r2

$$$$

     RDKit          3D

 18 18  0  0  0  0  0  0  0  0999 V2000
   -2.4852    0.3210   -0.3966 C   0  0  0  0  0  0  0  0  0  0  0  0
   -1.5917   -0.2708    0.6941 C   0  0  0  0  0  0  0  0  0  0  0  0
   -0.1292   -0.1692    0.3493 C   0  0  0  0  0  0  0  0  0  0  0  0
    0.6099    0.9558    0.7015 C   0  0  0  0  0  0  0  0  0  0  0  0
    1.9447    1.0728    0.3458 C   0  0  0  0  0  0  0  0  0  0  0  0
    2.5646    0.0613   -0.3720 C   0  0  0  0  0  0  0  0  0  0  0  0
    1.8399   -1.0657   -0.7287 C   0  0  0  0  0  0  0  0  0  0  0  0
    0.5055   -1.1769   -0.3700 C   0  0  0  0  0  0  0  0  0  0  0  0
   -2.3325   -0.1971   -1.3452 H   0  0  0  0  0  0  0  0  0  0  0  0
   -2.2554    1.3763   -0.5546 H   0  0  0  0  0  0  0  0  0  0  0  0
   -3.5397    0.2376   -0.1280 H   0  0  0  0  0  0  0  0  0  0  0  0
   -1.7801    0.2462    1.6380 H   0  0  0  0  0  0  0  0  0  0  0  0
   -1.8568   -1.3190    0.8516 H   0  0  0  0  0  0  0  0  0  0  0  0
    0.1327    1.7497    1.2656 H   0  0  0  0  0  0  0  0  0  0  0  0
    2.5033    1.9550    0.6330 H   0  0  0  0  0  0  0  0  0  0  0  0
    3.6077    0.1491   -0.6484 H   0  0  0  0  0  0  0  0  0  0  0  0
    2.3163   -1.8632   -1.2854 H   0  0  0  0  0  0  0  0  0  0  0  0
   -0.0540   -2.0629   -0.6500 H   0  0  0  0  0  0  0  0  0  0  0  0
  1  2  1  0
  1  9  1  0
  1 10  1  0
  1 11  1  0
  2  3  1  0
  2 12  1  0
  2 13  1  0
  3  4  2  0
  3  8  1  0
  4  5  1  0
  4 14  1  0
  5  6  2  0
  5 15  1  0
  6  7  1  0
  6 16  1  0
  7  8  2  0
  7 17  1  0
  8 18  1  0
M  END
>  <reaction>  (3) 
rxn_1404

>  <mol_properties>  (3) 
{"0": {"label": "a_hydrogen", "atom_type": "H0"}, "2": {"label": "acceptor", "atom_type": "Cs"}}

>  <type>  (3) 
r2h

$$$$

     RDKit          3D

 29 28  0  0  0  0  0  0  0  0999 V2000
   -1.1870    3.4869   -0.6214 C   0  0  0  0  0  0  0  0  0  0  0  0
   -1.3923    2.3117   -0.7540 C   0  0  0  0  0  0  0  0  0  0  0  0
   -1.5616    0.8898   -0.8822 C   0  0  0  0  0  0  0  0  0  0  0  0
   -1.9874    0.1716    0.3912 C   0  0  0  0  0  0  0  0  0  0  0  0
   -2.2267    0.4601   -2.0821 C   0  0  0  0  0  0  0  0  0  0  0  0
   -2.7469    0.0524   -3.0842 C   0  0  0  0  0  0  0  0  0  0  0  0
   -1.0310    4.5327   -0.5099 H   0  0  0  0  0  0  0  0  0  0  0  0
   -0.3176    0.4616   -1.0347 H   0  0  0  0  0  0  0  0  0  0  0  0
   -3.0109    0.4378    0.6607 H   0  0  0  0  0  0  0  0  0  0  0  0
   -1.3246    0.4455    1.2118 H   0  0  0  0  0  0  0  0  0  0  0  0
   -1.9360   -0.9073    0.2441 H   0  0  0  0  0  0  0  0  0  0  0  0
   -3.2214   -0.2934   -3.9706 H   0  0  0  0  0  0  0  0  0  0  0  0
    0.8346   -1.2426   -1.9675 C   0  0  0  0  0  0  0  0  0  0  0  0
    0.9712   -0.0142   -1.1133 C   0  0  0  0  0  0  0  0  0  0  0  0
    1.3736   -0.1139    0.2887 C   0  0  0  0  0  0  0  0  0  0  0  0
    1.6895    1.0529    0.9977 C   0  0  0  0  0  3  0  0  0  0  0  0
    1.9989    1.0081    2.3436 C   0  0  0  0  0  0  0  0  0  0  0  0
    2.0049   -0.2056    3.0196 C   0  0  0  0  0  0  0  0  0  0  0  0
    1.7005   -1.3710    2.3316 C   0  0  0  0  0  0  0  0  0  0  0  0
    1.3855   -1.3277    0.9839 C   0  0  0  0  0  0  0  0  0  0  0  0
    0.1276   -1.9568   -1.5401 H   0  0  0  0  0  0  0  0  0  0  0  0
    1.7948   -1.7556   -2.0830 H   0  0  0  0  0  0  0  0  0  0  0  0
    0.4697   -0.9774   -2.9592 H   0  0  0  0  0  0  0  0  0  0  0  0
    1.3932    0.8491   -1.6256 H   0  0  0  0  0  0  0  0  0  0  0  0
    1.6730    2.0034    0.4770 H   0  0  0  0  0  0  0  0  0  0  0  0
    2.2365    1.9234    2.8712 H   0  0  0  0  0  0  0  0  0  0  0  0
    2.2483   -0.2420    4.0737 H   0  0  0  0  0  0  0  0  0  0  0  0
    1.7084   -2.3223    2.8492 H   0  0  0  0  0  0  0  0  0  0  0  0
    1.1505   -2.2483    0.4652 H   0  0  0  0  0  0  0  0  0  0  0  0
  1  2  3  0
  1  7  1  0
  2  3  1  0
  3  4  1  0
  3  5  1  0
  3  8  1  0
  4  9  1  0
  4 10  1  0
  4 11  1  0
  5  6  3  0
  6 12  1  0
 13 14  1  0
 13 21  1  0
 13 22  1  0
 13 23  1  0
 14 15  2  3
 14 24  1  0
 15 16  1  0
 15 20  1  0
 16 17  1  0
 16 25  1  0
 17 18  2  0
 17 26  1  0
 18 19  1  0
 18 27  1  0
 19 20  2  0
 19 28  1  0
 20 29  1  0
M  RAD  1  16   2
M  END
>  <reaction>  (4) 
rxn_1404

>  <mol_properties>  (4) 
{"1": {"label": "*0", "atom_type": "Ct"}, "2": {"label": "*1", "atom_type": "Cs"}, "7": {"label": "*2", "atom_type": "H0"}, "13": {"label": "*3", "atom_type": "Cd"}, "14": {"label": "*4", "atom_type": "Cd"}}

>  <type>  (4) 
ts

$$$$
