
     RDKit          3D

  7  6  0  0  0  0  0  0  0  0999 V2000
    1.6964   -0.0938    0.0583 C   0  0  0  0  0  0  0  0  0  0  0  0
    0.5019   -0.0278    0.0173 C   0  0  0  0  0  0  0  0  0  0  0  0
   -0.9505    0.0525   -0.0327 C   0  0  0  0  0  0  0  0  0  0  0  0
    2.7574   -0.1524    0.0947 H   0  0  0  0  0  0  0  0  0  0  0  0
   -1.2692    0.9972   -0.4754 H   0  0  0  0  0  0  0  0  0  0  0  0
   -1.3749   -0.0147    0.9700 H   0  0  0  0  0  0  0  0  0  0  0  0
   -1.3610   -0.7611   -0.6323 H   0  0  0  0  0  0  0  0  0  0  0  0
  1  2  3  0
  1  4  1  0
  2  3  1  0
  3  5  1  0
  3  6  1  0
  3  7  1  0
M  END
>  <reaction>  (1) 
rxn_1232

>  <mol_properties>  (1) 
{"2": {"label": "donator", "atom_type": "Cs"}, "4": {"label": "d_hydrogen", "atom_type": "H0"}}

>  <type>  (1) 
r1h

$$$$

     RDKit          3D

  9  8  0  0  0  0  0  0  0  0999 V2000
    1.8963   -0.1405   -0.2150 C   0  0  0  0  0  0  0  0  0  0  0  0
    0.6340    0.1486   -0.2254 C   0  0  0  0  0  3  0  0  0  0  0  0
   -0.6770    0.4501   -0.2373 C   0  0  0  0  0  0  0  0  0  0  0  0
   -1.6600   -0.2303    0.4662 C   0  0  0  0  0  0  0  0  0  0  0  0
    2.3274   -0.8354   -0.9313 H   0  0  0  0  0  0  0  0  0  0  0  0
    2.5751    0.2988    0.5117 H   0  0  0  0  0  0  0  0  0  0  0  0
   -0.9723    1.2966   -0.8520 H   0  0  0  0  0  0  0  0  0  0  0  0
   -2.6934    0.0777    0.4015 H   0  0  0  0  0  0  0  0  0  0  0  0
   -1.4140   -1.0782    1.0904 H   0  0  0  0  0  0  0  0  0  0  0  0
  1  2  2  3
  1  5  1  0
  1  6  1  0
  2  3  1  0
  3  4  2  3
  3  7  1  0
  4  8  1  0
  4  9  1  0
M  RAD  1   2   2
M  END
>  <reaction>  (2) 
rxn_1232

>  <mol_properties>  (2) 
{"1": {"label": "acceptor", "atom_type": "Cd"}}

>  <type>  (2) 
r2

$$$$

     RDKit          3D

 10  9  0  0  0  0  0  0  0  0999 V2000
    1.8334    0.0847   -0.1062 C   0  0  0  0  0  0  0  0  0  0  0  0
    0.5993   -0.4071   -0.0750 C   0  0  0  0  0  0  0  0  0  0  0  0
   -0.5993    0.4071    0.0750 C   0  0  0  0  0  0  0  0  0  0  0  0
   -1.8334   -0.0847    0.1062 C   0  0  0  0  0  0  0  0  0  0  0  0
    2.0179    1.1498   -0.0189 H   0  0  0  0  0  0  0  0  0  0  0  0
    2.6972   -0.5572   -0.2194 H   0  0  0  0  0  0  0  0  0  0  0  0
    0.4465   -1.4793   -0.1649 H   0  0  0  0  0  0  0  0  0  0  0  0
   -0.4465    1.4793    0.1649 H   0  0  0  0  0  0  0  0  0  0  0  0
   -2.0179   -1.1498    0.0189 H   0  0  0  0  0  0  0  0  0  0  0  0
   -2.6972    0.5572    0.2194 H   0  0  0  0  0  0  0  0  0  0  0  0
  1  2  2  3
  1  5  1  0
  1  6  1  0
  2  3  1  0
  2  7  1  0
  3  4  2  3
  3  8  1  0
  4  9  1  0
  4 10  1  0
M  END
>  <reaction>  (3) 
rxn_1232

>  <mol_properties>  (3) 
{"0": {"label": "a_hydrogen", "atom_type": "H0"}, "2": {"label": "acceptor", "atom_type": "Cd"}}

>  <type>  (3) 
r2h

$$$$

     RDKit          3D

 16 14  0  0  0  0  0  0  0  0999 V2000
    0.7779   -1.4242   -2.8193 C   0  0  0  0  0  0  0  0  0  0  0  0
    0.1915   -1.4396   -1.7708 C   0  0  0  0  0  0  0  0  0  0  0  0
   -0.4811   -1.4047   -0.5097 C   0  0  0  0  0  0  0  0  0  0  0  0
    1.2887   -1.4279   -3.7518 H   0  0  0  0  0  0  0  0  0  0  0  0
   -0.1485   -0.3323    0.0783 H   0  0  0  0  0  0  0  0  0  0  0  0
   -0.1727   -2.1943    0.1732 H   0  0  0  0  0  0  0  0  0  0  0  0
   -1.5646   -1.3426   -0.5928 H   0  0  0  0  0  0  0  0  0  0  0  0
    1.1239    1.5531   -0.1377 C   0  0  0  0  0  0  0  0  0  0  0  0
    0.2929    0.9017    0.6484 C   0  0  0  0  0  3  0  0  0  0  0  0
   -0.2372    1.2108    1.9554 C   0  0  0  0  0  0  0  0  0  0  0  0
   -1.0817    0.4392    2.6321 C   0  0  0  0  0  0  0  0  0  0  0  0
    1.4125    1.1551   -1.1047 H   0  0  0  0  0  0  0  0  0  0  0  0
    1.5497    2.5116    0.1544 H   0  0  0  0  0  0  0  0  0  0  0  0
    0.0974    2.1514    2.3931 H   0  0  0  0  0  0  0  0  0  0  0  0
   -1.4447    0.7256    3.6102 H   0  0  0  0  0  0  0  0  0  0  0  0
   -1.4349   -0.5019    2.2276 H   0  0  0  0  0  0  0  0  0  0  0  0
  1  2  3  0
  1  4  1  0
  2  3  1  0
  3  5  1  0
  3  6  1  0
  3  7  1  0
  8  9  2  3
  8 12  1  0
  8 13  1  0
  9 10  1  0
 10 11  2  3
 10 14  1  0
 11 15  1  0
 11 16  1  0
M  RAD  1   9   2
M  END
>  <reaction>  (4) 
rxn_1232

>  <mol_properties>  (4) 
{"1": {"label": "*0", "atom_type": "Ct"}, "2": {"label": "*1", "atom_type": "Cs"}, "4": {"label": "*2", "atom_type": "H0"}, "8": {"label": "*3", "atom_type": "Cd"}, "9": {"label": "*4", "atom_type": "Cd"}}

>  <type>  (4) 
ts

$$$$
