
     RDKit          3D

 18 18  0  0  0  0  0  0  0  0999 V2000
   -2.4852    0.3210   -0.3966 C   0  0  0  0  0  0  0  0  0  0  0  0
   -1.5917   -0.2708    0.6941 C   0  0  0  0  0  0  0  0  0  0  0  0
   -0.1292   -0.1692    0.3493 C   0  0  0  0  0  0  0  0  0  0  0  0
    0.6099    0.9558    0.7015 C   0  0  0  0  0  0  0  0  0  0  0  0
    1.9447    1.0728    0.3458 C   0  0  0  0  0  0  0  0  0  0  0  0
    2.5646    0.0613   -0.3720 C   0  0  0  0  0  0  0  0  0  0  0  0
    1.8399   -1.0657   -0.7287 C   0  0  0  0  0  0  0  0  0  0  0  0
    0.5055   -1.1769   -0.3700 C   0  0  0  0  0  0  0  0  0  0  0  0
   -2.3325   -0.1971   -1.3452 H   0  0  0  0  0  0  0  0  0  0  0  0
   -2.2554    1.3763   -0.5546 H   0  0  0  0  0  0  0  0  0  0  0  0
   -3.5397    0.2376   -0.1280 H   0  0  0  0  0  0  0  0  0  0  0  0
   -1.7801    0.2462    1.6380 H   0  0  0  0  0  0  0  0  0  0  0  0
   -1.8568   -1.3190    0.8516 H   0  0  0  0  0  0  0  0  0  0  0  0
    0.1327    1.7497    1.2656 H   0  0  0  0  0  0  0  0  0  0  0  0
    2.5033    1.9550    0.6330 H   0  0  0  0  0  0  0  0  0  0  0  0
    3.6077    0.1491   -0.6484 H   0  0  0  0  0  0  0  0  0  0  0  0
    2.3163   -1.8632   -1.2854 H   0  0  0  0  0  0  0  0  0  0  0  0
   -0.0540   -2.0629   -0.6500 H   0  0  0  0  0  0  0  0  0  0  0  0
  1  2  1  0
  1  9  1  0
  1 10  1  0
  1 11  1  0
  2  3  1  0
  2 12  1  0
  2 13  1  0
  3  4  2  0
  3  8  1  0
  4  5  1  0
  4 14  1  0
  5  6  2  0
  5 15  1  0
  6  7  1  0
  6 16  1  0
  7  8  2  0
  7 17  1  0
  8 18  1  0
M  END
>  <reaction>  (1) 
rxn_1485

>  <mol_properties>  (1) 
{"1": {"label": "donator", "atom_type": "Cs"}, "11": {"label": "d_hydrogen", "atom_type": "H0"}}

>  <type>  (1) 
r1h

$$$$

     RDKit          3D

 12 11  0  0  0  0  0  0  0  0999 V2000
   -2.3791    0.4612   -0.5870 C   0  0  0  0  0  0  0  0  0  0  0  0
   -1.3422   -0.3138   -0.1893 C   0  0  0  0  0  0  0  0  0  0  0  0
   -1.4723   -1.6058    0.3589 C   0  0  0  0  0  3  0  0  0  0  0  0
   -0.3798   -2.3973    0.7671 C   0  0  0  0  0  0  0  0  0  0  0  0
   -0.4849   -3.6397    1.2956 C   0  0  0  0  0  0  0  0  0  0  0  0
   -2.2205    1.4472   -1.0017 H   0  0  0  0  0  0  0  0  0  0  0  0
   -3.4026    0.1153   -0.5011 H   0  0  0  0  0  0  0  0  0  0  0  0
   -0.3330    0.0765   -0.2952 H   0  0  0  0  0  0  0  0  0  0  0  0
   -2.4723   -2.0151    0.4735 H   0  0  0  0  0  0  0  0  0  0  0  0
    0.6117   -1.9687    0.6436 H   0  0  0  0  0  0  0  0  0  0  0  0
    0.3893   -4.2030    1.5920 H   0  0  0  0  0  0  0  0  0  0  0  0
   -1.4516   -4.1084    1.4378 H   0  0  0  0  0  0  0  0  0  0  0  0
  1  2  2  3
  1  6  1  0
  1  7  1  0
  2  3  1  0
  2  8  1  0
  3  4  1  0
  3  9  1  0
  4  5  2  3
  4 10  1  0
  5 11  1  0
  5 12  1  0
M  RAD  1   3   2
M  END
>  <reaction>  (2) 
rxn_1485

>  <mol_properties>  (2) 
{"2": {"label": "acceptor", "atom_type": "Cs"}}

>  <type>  (2) 
r2

$$$$

     RDKit          3D

 13 12  0  0  0  0  0  0  0  0999 V2000
    3.0977   -0.3549   -0.5105 C   0  0  0  0  0  0  0  0  0  0  0  0
    2.0556    0.4221   -0.2627 C   0  0  0  0  0  0  0  0  0  0  0  0
    0.6313   -0.0354   -0.2366 C   0  0  0  0  0  0  0  0  0  0  0  0
   -0.2567    0.6038   -1.2694 C   0  0  0  0  0  0  0  0  0  0  0  0
    0.1459    1.3456   -2.2891 C   0  0  0  0  0  0  0  0  0  0  0  0
    4.1081    0.0344   -0.5074 H   0  0  0  0  0  0  0  0  0  0  0  0
    2.9777   -1.4116   -0.7243 H   0  0  0  0  0  0  0  0  0  0  0  0
    2.2171    1.4781   -0.0618 H   0  0  0  0  0  0  0  0  0  0  0  0
    0.5865   -1.1233   -0.3540 H   0  0  0  0  0  0  0  0  0  0  0  0
    0.2065    0.1743    0.7521 H   0  0  0  0  0  0  0  0  0  0  0  0
   -1.3190    0.4126   -1.1445 H   0  0  0  0  0  0  0  0  0  0  0  0
    1.1948    1.5564   -2.4628 H   0  0  0  0  0  0  0  0  0  0  0  0
   -0.5644    1.7621   -2.9918 H   0  0  0  0  0  0  0  0  0  0  0  0
  1  2  2  3
  1  6  1  0
  1  7  1  0
  2  3  1  0
  2  8  1  0
  3  4  1  0
  3  9  1  0
  3 10  1  0
  4  5  2  3
  4 11  1  0
  5 12  1  0
  5 13  1  0
M  END
>  <reaction>  (3) 
rxn_1485

>  <mol_properties>  (3) 
{"2": {"label": "acceptor", "atom_type": "Cs"}, "12": {"label": "a_hydrogen", "atom_type": "H0"}}

>  <type>  (3) 
r2h

$$$$

     RDKit          3D

 30 29  0  0  0  0  0  0  0  0999 V2000
   -2.9200   -1.2395    0.0814 C   0  0  0  0  0  0  0  0  0  0  0  0
   -1.6963   -1.2355    0.6069 C   0  0  0  0  0  0  0  0  0  0  0  0
   -0.6287   -2.1624    0.2229 C   0  0  0  0  0  0  0  0  0  0  0  0
    0.3987   -2.5610    1.1945 C   0  0  0  0  0  0  0  0  0  0  0  0
    0.6819   -1.9730    2.3560 C   0  0  0  0  0  0  0  0  0  0  0  0
   -3.6598   -0.5041    0.3696 H   0  0  0  0  0  0  0  0  0  0  0  0
   -3.2212   -1.9852   -0.6467 H   0  0  0  0  0  0  0  0  0  0  0  0
   -1.4419   -0.4625    1.3250 H   0  0  0  0  0  0  0  0  0  0  0  0
   -0.9781   -2.9868   -0.3989 H   0  0  0  0  0  0  0  0  0  0  0  0
    1.0145   -3.4013    0.8857 H   0  0  0  0  0  0  0  0  0  0  0  0
    1.4954   -2.3317    2.9728 H   0  0  0  0  0  0  0  0  0  0  0  0
    0.1208   -1.1277    2.7340 H   0  0  0  0  0  0  0  0  0  0  0  0
   -0.2339   -0.6847   -2.7579 C   0  0  0  0  0  0  0  0  0  0  0  0
    0.6663   -0.5850   -1.5586 C   0  0  0  0  0  0  0  0  0  0  0  0
    0.7218    0.6402   -0.7689 C   0  0  0  0  0  0  0  0  0  0  0  0
   -0.2756    1.6198   -0.8376 C   0  0  0  0  0  3  0  0  0  0  0  0
   -0.2359    2.7347   -0.0175 C   0  0  0  0  0  0  0  0  0  0  0  0
    0.7946    2.8987    0.8966 C   0  0  0  0  0  0  0  0  0  0  0  0
    1.7919    1.9352    0.9800 C   0  0  0  0  0  0  0  0  0  0  0  0
    1.7550    0.8233    0.1605 C   0  0  0  0  0  0  0  0  0  0  0  0
    0.0186    0.0641   -3.5156 H   0  0  0  0  0  0  0  0  0  0  0  0
   -1.2807   -0.5356   -2.4825 H   0  0  0  0  0  0  0  0  0  0  0  0
   -0.1509   -1.6692   -3.2190 H   0  0  0  0  0  0  0  0  0  0  0  0
    0.0553   -1.4688   -0.6514 H   0  0  0  0  0  0  0  0  0  0  0  0
    1.6281   -1.0838   -1.6625 H   0  0  0  0  0  0  0  0  0  0  0  0
   -1.0923    1.5068   -1.5384 H   0  0  0  0  0  0  0  0  0  0  0  0
   -1.0169    3.4813   -0.0917 H   0  0  0  0  0  0  0  0  0  0  0  0
    0.8230    3.7710    1.5370 H   0  0  0  0  0  0  0  0  0  0  0  0
    2.6016    2.0530    1.6893 H   0  0  0  0  0  0  0  0  0  0  0  0
    2.5308    0.0706    0.2381 H   0  0  0  0  0  0  0  0  0  0  0  0
  1  2  2  3
  1  6  1  0
  1  7  1  0
  2  3  1  0
  2  8  1  0
  3  4  1  0
  3  9  1  0
  3 24  1  0
  4  5  2  3
  4 10  1  0
  5 11  1  0
  5 12  1  0
 13 14  1  0
 13 21  1  0
 13 22  1  0
 13 23  1  0
 14 15  2  3
 14 25  1  0
 15 16  1  0
 15 20  1  0
 16 17  1  0
 16 26  1  0
 17 18  2  0
 17 27  1  0
 18 19  1  0
 18 28  1  0
 19 20  2  0
 19 29  1  0
 20 30  1  0
M  RAD  1  16   2
M  END
>  <reaction>  (4) 
rxn_1485

>  <mol_properties>  (4) 
{"1": {"label": "*0", "atom_type": "Cd"}, "2": {"label": "*1", "atom_type": "Cs"}, "13": {"label": "*3", "atom_type": "Cd"}, "14": {"label": "*4", "atom_type": "Cd"}, "23": {"label": "*2", "atom_type": "H0"}}

>  <type>  (4) 
ts

$$$$
