
     RDKit          3D

 18 18  0  0  0  0  0  0  0  0999 V2000
   -2.4852    0.3210   -0.3966 C   0  0  0  0  0  0  0  0  0  0  0  0
   -1.5917   -0.2708    0.6941 C   0  0  0  0  0  0  0  0  0  0  0  0
   -0.1292   -0.1692    0.3493 C   0  0  0  0  0  0  0  0  0  0  0  0
    0.6099    0.9558    0.7015 C   0  0  0  0  0  0  0  0  0  0  0  0
    1.9447    1.0728    0.3458 C   0  0  0  0  0  0  0  0  0  0  0  0
    2.5646    0.0613   -0.3720 C   0  0  0  0  0  0  0  0  0  0  0  0
    1.8399   -1.0657   -0.7287 C   0  0  0  0  0  0  0  0  0  0  0  0
    0.5055   -1.1769   -0.3700 C   0  0  0  0  0  0  0  0  0  0  0  0
   -2.3325   -0.1971   -1.3452 H   0  0  0  0  0  0  0  0  0  0  0  0
   -2.2554    1.3763   -0.5546 H   0  0  0  0  0  0  0  0  0  0  0  0
   -3.5397    0.2376   -0.1280 H   0  0  0  0  0  0  0  0  0  0  0  0
   -1.7801    0.2462    1.6380 H   0  0  0  0  0  0  0  0  0  0  0  0
   -1.8568   -1.3190    0.8516 H   0  0  0  0  0  0  0  0  0  0  0  0
    0.1327    1.7497    1.2656 H   0  0  0  0  0  0  0  0  0  0  0  0
    2.5033    1.9550    0.6330 H   0  0  0  0  0  0  0  0  0  0  0  0
    3.6077    0.1491   -0.6484 H   0  0  0  0  0  0  0  0  0  0  0  0
    2.3163   -1.8632   -1.2854 H   0  0  0  0  0  0  0  0  0  0  0  0
   -0.0540   -2.0629   -0.6500 H   0  0  0  0  0  0  0  0  0  0  0  0
  1  2  1  0
  1  9  1  0
  1 10  1  0
  1 11  1  0
  2  3  1  0
  2 12  1  0
  2 13  1  0
  3  4  2  0
  3  8  1  0
  4  5  1  0
  4 14  1  0
  5  6  2  0
  5 15  1  0
  6  7  1  0
  6 16  1  0
  7  8  2  0
  7 17  1  0
  8 18  1  0
M  END
>  <reaction>  (1) 
rxn_1498

>  <mol_properties>  (1) 
{"2": {"label": "donator", "atom_type": "Cs"}, "17": {"label": "d_hydrogen", "atom_type": "H0"}}

>  <type>  (1) 
r1h

$$$$

     RDKit          3D

  7  6  0  0  0  0  0  0  0  0999 V2000
    1.3002    0.7433    2.1279 C   0  0  0  0  0  0  0  0  0  0  0  0
    0.5758    0.3292    1.2319 C   0  0  0  0  0  0  0  0  0  0  0  0
   -0.2057   -0.1176    0.2652 C   0  0  0  0  0  3  0  0  0  0  0  0
   -0.9747   -0.5572   -0.6858 C   0  0  0  0  0  0  0  0  0  0  0  0
    1.9293    1.1030    2.9060 H   0  0  0  0  0  0  0  0  0  0  0  0
   -1.9977   -0.8727   -0.4932 H   0  0  0  0  0  0  0  0  0  0  0  0
   -0.6274   -0.6280   -1.7143 H   0  0  0  0  0  0  0  0  0  0  0  0
  1  2  3  0
  1  5  1  0
  2  3  1  0
  3  4  2  3
  4  6  1  0
  4  7  1  0
M  RAD  1   3   2
M  END
>  <reaction>  (2) 
rxn_1498

>  <mol_properties>  (2) 
{"0": {"label": "acceptor", "atom_type": "Cd"}}

>  <type>  (2) 
r2

$$$$

     RDKit          3D

  8  7  0  0  0  0  0  0  0  0999 V2000
    1.9029    0.9046   -0.2050 C   0  0  0  0  0  0  0  0  0  0  0  0
    0.8517    0.4283    0.1217 C   0  0  0  0  0  0  0  0  0  0  0  0
   -0.3908   -0.1311    0.5404 C   0  0  0  0  0  0  0  0  0  0  0  0
   -1.2847   -0.6576   -0.2899 C   0  0  0  0  0  0  0  0  0  0  0  0
    2.8335    1.3255   -0.5014 H   0  0  0  0  0  0  0  0  0  0  0  0
   -0.5867   -0.1096    1.6074 H   0  0  0  0  0  0  0  0  0  0  0  0
   -2.2126   -1.0686    0.0850 H   0  0  0  0  0  0  0  0  0  0  0  0
   -1.1134   -0.6914   -1.3582 H   0  0  0  0  0  0  0  0  0  0  0  0
  1  2  3  0
  1  5  1  0
  2  3  1  0
  3  4  2  3
  3  6  1  0
  4  7  1  0
  4  8  1  0
M  END
>  <reaction>  (3) 
rxn_1498

>  <mol_properties>  (3) 
{"0": {"label": "acceptor", "atom_type": "Cd"}, "4": {"label": "a_hydrogen", "atom_type": "H0"}}

>  <type>  (3) 
r2h

$$$$

     RDKit          3D

 25 24  0  0  0  0  0  0  0  0999 V2000
   -0.3639   -1.5920    1.7370 C   0  0  0  0  0  0  0  0  0  0  0  0
   -0.8342   -0.4055   -0.5037 C   0  0  0  0  0  0  0  0  0  0  0  0
    0.0714   -1.2117    0.3424 C   0  0  0  0  0  0  0  0  0  0  0  0
   -1.8473    0.3912    0.0324 C   0  0  0  0  0  0  0  0  0  0  0  0
   -0.6407   -0.3770   -1.8882 C   0  0  0  0  0  0  0  0  0  0  0  0
   -2.6354    1.1858   -0.7853 C   0  0  0  0  0  0  0  0  0  0  0  0
   -2.4277    1.2054   -2.1559 C   0  0  0  0  0  0  0  0  0  0  0  0
   -1.4253    0.4170   -2.7049 C   0  0  0  0  0  0  0  0  0  0  0  0
    2.1426    0.4481    0.7614 C   0  0  0  0  0  3  0  0  0  0  0  0
    1.9006    1.6044    0.1776 C   0  0  0  0  0  0  0  0  0  0  0  0
    3.1663   -0.0550    1.5536 C   0  0  0  0  0  0  0  0  0  0  0  0
    3.9924   -0.5955    2.2467 C   0  0  0  0  0  0  0  0  0  0  0  0
   -1.2804   -2.1881    1.7183 H   0  0  0  0  0  0  0  0  0  0  0  0
    0.4132   -2.1779    2.2281 H   0  0  0  0  0  0  0  0  0  0  0  0
   -0.5482   -0.7120    2.3557 H   0  0  0  0  0  0  0  0  0  0  0  0
    0.5032   -2.0477   -0.2082 H   0  0  0  0  0  0  0  0  0  0  0  0
   -2.0252    0.3917    1.0999 H   0  0  0  0  0  0  0  0  0  0  0  0
   -3.4174    1.7939   -0.3477 H   0  0  0  0  0  0  0  0  0  0  0  0
    0.1435   -0.9866   -2.3228 H   0  0  0  0  0  0  0  0  0  0  0  0
   -3.0441    1.8267   -2.7929 H   0  0  0  0  0  0  0  0  0  0  0  0
   -1.2563    0.4209   -3.7745 H   0  0  0  0  0  0  0  0  0  0  0  0
    1.0899   -0.4837    0.5210 H   0  0  0  0  0  0  0  0  0  0  0  0
    2.5897    2.4407    0.2557 H   0  0  0  0  0  0  0  0  0  0  0  0
    0.9962    1.7531   -0.4031 H   0  0  0  0  0  0  0  0  0  0  0  0
    4.7373   -1.0467    2.8567 H   0  0  0  0  0  0  0  0  0  0  0  0
  1  3  1  0
  1 13  1  0
  1 14  1  0
  1 15  1  0
  2  3  1  0
  2  4  2  0
  2  5  1  0
  3 16  1  0
  3 22  1  0
  4  6  1  0
  4 17  1  0
  5  8  2  0
  5 19  1  0
  6  7  2  0
  6 18  1  0
  7  8  1  0
  7 20  1  0
  8 21  1  0
  9 10  2  3
  9 11  1  0
 10 23  1  0
 10 24  1  0
 11 12  3  0
 12 25  1  0
M  RAD  1   9   2
M  END
>  <reaction>  (4) 
rxn_1498

>  <mol_properties>  (4) 
{"1": {"label": "*0", "atom_type": "Cd"}, "2": {"label": "*1", "atom_type": "Cs"}, "8": {"label": "*3", "atom_type": "Cd"}, "10": {"label": "*4", "atom_type": "Ct"}, "21": {"label": "*2", "atom_type": "H0"}}

>  <type>  (4) 
ts

$$$$
