
     RDKit          3D

 12 11  0  0  0  0  0  0  0  0999 V2000
    1.9877    0.1011    0.4814 C   0  0  0  0  0  0  0  0  0  0  0  0
    0.8179    0.5502    0.0525 C   0  0  0  0  0  0  0  0  0  0  0  0
   -0.2939   -0.2692   -0.5320 C   0  0  0  0  0  0  0  0  0  0  0  0
   -0.0292   -1.7631   -0.6328 C   0  0  0  0  0  0  0  0  0  0  0  0
    2.2522   -0.9490    0.4436 H   0  0  0  0  0  0  0  0  0  0  0  0
    2.7295    0.7757    0.8896 H   0  0  0  0  0  0  0  0  0  0  0  0
    0.6162    1.6164    0.1190 H   0  0  0  0  0  0  0  0  0  0  0  0
   -0.5268    0.1319   -1.5245 H   0  0  0  0  0  0  0  0  0  0  0  0
   -1.1959   -0.0938    0.0644 H   0  0  0  0  0  0  0  0  0  0  0  0
    0.1590   -2.1992    0.3502 H   0  0  0  0  0  0  0  0  0  0  0  0
    0.8382   -1.9701   -1.2626 H   0  0  0  0  0  0  0  0  0  0  0  0
   -0.8879   -2.2759   -1.0672 H   0  0  0  0  0  0  0  0  0  0  0  0
  1  2  2  3
  1  5  1  0
  1  6  1  0
  2  3  1  0
  2  7  1  0
  3  4  1  0
  3  8  1  0
  3  9  1  0
  4 10  1  0
  4 11  1  0
  4 12  1  0
M  END
>  <reaction>  (1) 
rxn_1077

>  <mol_properties>  (1) 
{"2": {"label": "donator", "atom_type": "Cs"}, "7": {"label": "d_hydrogen", "atom_type": "H0"}}

>  <type>  (1) 
r1h

$$$$

     RDKit          3D

  6  5  0  0  0  0  0  0  0  0999 V2000
   -0.5122    0.0768    0.0308 C   0  0  0  0  0  0  0  0  0  0  0  0
    0.8187   -0.5412    0.0796 C   0  0  0  0  0  3  0  0  0  0  0  0
    2.3075   -0.1693   -0.1934 S   0  0  0  0  0  0  0  0  0  0  0  0
   -1.1499   -0.5003   -0.6435 H   0  0  0  0  0  0  0  0  0  0  0  0
   -0.4913    1.1218   -0.2933 H   0  0  0  0  0  0  0  0  0  0  0  0
   -0.9729    0.0121    1.0198 H   0  0  0  0  0  0  0  0  0  0  0  0
  1  2  1  0
  1  4  1  0
  1  5  1  0
  1  6  1  0
  2  3  2  0
M  RAD  1   2   2
M  END
>  <reaction>  (2) 
rxn_1077

>  <mol_properties>  (2) 
{"1": {"label": "acceptor", "atom_type": "CS"}}

>  <type>  (2) 
r2

$$$$

     RDKit          3D

  7  6  0  0  0  0  0  0  0  0999 V2000
   -0.6782    0.0507    0.0301 C   0  0  0  0  0  0  0  0  0  0  0  0
    0.8092    0.0996    0.0213 C   0  0  0  0  0  0  0  0  0  0  0  0
    1.7473    0.7521    1.1507 S   0  0  0  0  0  0  0  0  0  0  0  0
   -1.0667    0.5456   -0.8653 H   0  0  0  0  0  0  0  0  0  0  0  0
   -1.0112   -0.9904   -0.0239 H   0  0  0  0  0  0  0  0  0  0  0  0
   -1.0920    0.5225    0.9188 H   0  0  0  0  0  0  0  0  0  0  0  0
    1.2740   -0.3620   -0.8520 H   0  0  0  0  0  0  0  0  0  0  0  0
  1  2  1  0
  1  4  1  0
  1  5  1  0
  1  6  1  0
  2  3  2  0
  2  7  1  0
M  END
>  <reaction>  (3) 
rxn_1077

>  <mol_properties>  (3) 
{"0": {"label": "a_hydrogen", "atom_type": "H0"}, "2": {"label": "acceptor", "atom_type": "CS"}}

>  <type>  (3) 
r2h

$$$$

     RDKit          3D

 18 16  0  0  0  0  0  0  0  0999 V2000
   -0.9370   -1.2181   -2.7018 C   0  0  0  0  0  0  0  0  0  0  0  0
   -1.3594   -1.1814   -1.4353 C   0  0  0  0  0  0  0  0  0  0  0  0
   -1.4254    0.0003   -0.5786 C   0  0  0  0  0  0  0  0  0  0  0  0
   -1.2862    1.3668   -1.1990 C   0  0  0  0  0  0  0  0  0  0  0  0
   -0.6397   -0.3233   -3.2354 H   0  0  0  0  0  0  0  0  0  0  0  0
   -0.8947   -2.1507   -3.2492 H   0  0  0  0  0  0  0  0  0  0  0  0
   -1.6540   -2.1175   -0.9675 H   0  0  0  0  0  0  0  0  0  0  0  0
   -0.3687   -0.0747    0.2164 H   0  0  0  0  0  0  0  0  0  0  0  0
   -2.2144   -0.0612    0.1712 H   0  0  0  0  0  0  0  0  0  0  0  0
   -2.1127    1.5782   -1.8838 H   0  0  0  0  0  0  0  0  0  0  0  0
   -0.3563    1.4552   -1.7650 H   0  0  0  0  0  0  0  0  0  0  0  0
   -1.2751    2.1381   -0.4284 H   0  0  0  0  0  0  0  0  0  0  0  0
    1.5530   -1.3239    0.5515 C   0  0  0  0  0  0  0  0  0  0  0  0
    0.8531   -0.0613    0.8707 C   0  0  0  0  0  3  0  0  0  0  0  0
    1.3019    1.2395    1.6535 S   0  0  0  0  0  0  0  0  0  0  0  0
    0.9779   -2.1638    0.9524 H   0  0  0  0  0  0  0  0  0  0  0  0
    2.5709   -1.3530    0.9415 H   0  0  0  0  0  0  0  0  0  0  0  0
    1.5616   -1.4567   -0.5345 H   0  0  0  0  0  0  0  0  0  0  0  0
  1  2  2  3
  1  5  1  0
  1  6  1  0
  2  3  1  0
  2  7  1  0
  3  4  1  0
  3  8  1  0
  3  9  1  0
  4 10  1  0
  4 11  1  0
  4 12  1  0
 13 14  1  0
 13 16  1  0
 13 17  1  0
 13 18  1  0
 14 15  2  0
M  RAD  1  14   2
M  END
>  <reaction>  (4) 
rxn_1077

>  <mol_properties>  (4) 
{"1": {"label": "*0", "atom_type": "Cd"}, "2": {"label": "*1", "atom_type": "Cs"}, "7": {"label": "*2", "atom_type": "H0"}, "13": {"label": "*3", "atom_type": "CS"}, "14": {"label": "*4", "atom_type": "S2d"}}

>  <type>  (4) 
ts

$$$$
