
     RDKit          3D

 18 18  0  0  0  0  0  0  0  0999 V2000
   -2.4852    0.3210   -0.3966 C   0  0  0  0  0  0  0  0  0  0  0  0
   -1.5917   -0.2708    0.6941 C   0  0  0  0  0  0  0  0  0  0  0  0
   -0.1292   -0.1692    0.3493 C   0  0  0  0  0  0  0  0  0  0  0  0
    0.6099    0.9558    0.7015 C   0  0  0  0  0  0  0  0  0  0  0  0
    1.9447    1.0728    0.3458 C   0  0  0  0  0  0  0  0  0  0  0  0
    2.5646    0.0613   -0.3720 C   0  0  0  0  0  0  0  0  0  0  0  0
    1.8399   -1.0657   -0.7287 C   0  0  0  0  0  0  0  0  0  0  0  0
    0.5055   -1.1769   -0.3700 C   0  0  0  0  0  0  0  0  0  0  0  0
   -2.3325   -0.1971   -1.3452 H   0  0  0  0  0  0  0  0  0  0  0  0
   -2.2554    1.3763   -0.5546 H   0  0  0  0  0  0  0  0  0  0  0  0
   -3.5397    0.2376   -0.1280 H   0  0  0  0  0  0  0  0  0  0  0  0
   -1.7801    0.2462    1.6380 H   0  0  0  0  0  0  0  0  0  0  0  0
   -1.8568   -1.3190    0.8516 H   0  0  0  0  0  0  0  0  0  0  0  0
    0.1327    1.7497    1.2656 H   0  0  0  0  0  0  0  0  0  0  0  0
    2.5033    1.9550    0.6330 H   0  0  0  0  0  0  0  0  0  0  0  0
    3.6077    0.1491   -0.6484 H   0  0  0  0  0  0  0  0  0  0  0  0
    2.3163   -1.8632   -1.2854 H   0  0  0  0  0  0  0  0  0  0  0  0
   -0.0540   -2.0629   -0.6500 H   0  0  0  0  0  0  0  0  0  0  0  0
  1  2  1  0
  1  9  1  0
  1 10  1  0
  1 11  1  0
  2  3  1  0
  2 12  1  0
  2 13  1  0
  3  4  2  0
  3  8  1  0
  4  5  1  0
  4 14  1  0
  5  6  2  0
  5 15  1  0
  6  7  1  0
  6 16  1  0
  7  8  2  0
  7 17  1  0
  8 18  1  0
M  END
>  <reaction>  (1) 
rxn_1502

>  <mol_properties>  (1) 
{"1": {"label": "donator", "atom_type": "Cs"}, "11": {"label": "d_hydrogen", "atom_type": "H0"}}

>  <type>  (1) 
r1h

$$$$

     RDKit          3D

  6  5  0  0  0  0  0  0  0  0999 V2000
   -0.7309   -0.0987    0.0327 C   0  0  0  0  0  0  0  0  0  0  0  0
    0.6208    0.0065   -0.0096 C   0  0  0  0  0  0  0  0  0  0  0  0
    1.6572   -1.2972    0.2837 S   0  0  0  0  0  1  0  0  0  0  0  0
   -1.3651    0.7588   -0.1608 H   0  0  0  0  0  0  0  0  0  0  0  0
   -1.2044   -1.0453    0.2616 H   0  0  0  0  0  0  0  0  0  0  0  0
    1.0609    0.9725   -0.2426 H   0  0  0  0  0  0  0  0  0  0  0  0
  1  2  2  3
  1  4  1  0
  1  5  1  0
  2  3  1  0
  2  6  1  0
M  RAD  1   3   2
M  END
>  <reaction>  (2) 
rxn_1502

>  <mol_properties>  (2) 
{"0": {"label": "acceptor", "atom_type": "Cs"}}

>  <type>  (2) 
r2

$$$$

     RDKit          3D

  7  6  0  0  0  0  0  0  0  0999 V2000
   -0.6782    0.0507    0.0301 C   0  0  0  0  0  0  0  0  0  0  0  0
    0.8092    0.0996    0.0213 C   0  0  0  0  0  0  0  0  0  0  0  0
    1.7473    0.7521    1.1507 S   0  0  0  0  0  0  0  0  0  0  0  0
   -1.0667    0.5456   -0.8653 H   0  0  0  0  0  0  0  0  0  0  0  0
   -1.0112   -0.9904   -0.0239 H   0  0  0  0  0  0  0  0  0  0  0  0
   -1.0920    0.5225    0.9188 H   0  0  0  0  0  0  0  0  0  0  0  0
    1.2740   -0.3620   -0.8520 H   0  0  0  0  0  0  0  0  0  0  0  0
  1  2  1  0
  1  4  1  0
  1  5  1  0
  1  6  1  0
  2  3  2  0
  2  7  1  0
M  END
>  <reaction>  (3) 
rxn_1502

>  <mol_properties>  (3) 
{"0": {"label": "acceptor", "atom_type": "Cs"}, "6": {"label": "a_hydrogen", "atom_type": "H0"}}

>  <type>  (3) 
r2h

$$$$

     RDKit          3D

 24 23  0  0  0  0  0  0  0  0999 V2000
   -0.2445   -2.1293    0.7932 C   0  0  0  0  0  0  0  0  0  0  0  0
   -1.4419   -2.1824    0.0134 C   0  0  0  0  0  0  0  0  0  0  0  0
   -2.6531   -1.0810    0.0527 S   0  0  0  0  0  0  0  0  0  0  0  0
    0.2929   -3.0670    0.9181 H   0  0  0  0  0  0  0  0  0  0  0  0
   -0.2804   -1.5011    1.6797 H   0  0  0  0  0  0  0  0  0  0  0  0
   -1.5079   -3.0054   -0.6988 H   0  0  0  0  0  0  0  0  0  0  0  0
    0.8750   -0.8558   -2.0377 C   0  0  0  0  0  0  0  0  0  0  0  0
    1.4338   -0.6105   -0.6659 C   0  0  0  0  0  0  0  0  0  0  0  0
    1.2921    0.6925   -0.0208 C   0  0  0  0  0  0  0  0  0  0  0  0
    0.2669    1.5810   -0.3612 C   0  0  0  0  0  3  0  0  0  0  0  0
    0.1282    2.7873    0.3021 C   0  0  0  0  0  0  0  0  0  0  0  0
    1.0041    3.1327    1.3209 C   0  0  0  0  0  0  0  0  0  0  0  0
    2.0244    2.2594    1.6745 C   0  0  0  0  0  0  0  0  0  0  0  0
    2.1640    1.0538    1.0134 C   0  0  0  0  0  0  0  0  0  0  0  0
    1.3147   -0.1695   -2.7667 H   0  0  0  0  0  0  0  0  0  0  0  0
   -0.2081   -0.7151   -2.0640 H   0  0  0  0  0  0  0  0  0  0  0  0
    1.0843   -1.8753   -2.3621 H   0  0  0  0  0  0  0  0  0  0  0  0
    0.6052   -1.4335    0.0877 H   0  0  0  0  0  0  0  0  0  0  0  0
    2.3899   -1.0926   -0.4711 H   0  0  0  0  0  0  0  0  0  0  0  0
   -0.4337    1.3226   -1.1442 H   0  0  0  0  0  0  0  0  0  0  0  0
   -0.6736    3.4602    0.0260 H   0  0  0  0  0  0  0  0  0  0  0  0
    0.8919    4.0766    1.8387 H   0  0  0  0  0  0  0  0  0  0  0  0
    2.7127    2.5217    2.4680 H   0  0  0  0  0  0  0  0  0  0  0  0
    2.9624    0.3754    1.2926 H   0  0  0  0  0  0  0  0  0  0  0  0
  1  2  1  0
  1  4  1  0
  1  5  1  0
  1 18  1  0
  2  3  2  0
  2  6  1  0
  7  8  1  0
  7 15  1  0
  7 16  1  0
  7 17  1  0
  8  9  2  3
  8 19  1  0
  9 10  1  0
  9 14  1  0
 10 11  1  0
 10 20  1  0
 11 12  2  0
 11 21  1  0
 12 13  1  0
 12 22  1  0
 13 14  2  0
 13 23  1  0
 14 24  1  0
M  RAD  1  10   2
M  END
>  <reaction>  (4) 
rxn_1502

>  <mol_properties>  (4) 
{"0": {"label": "*1", "atom_type": "Cs"}, "1": {"label": "*0", "atom_type": "CS"}, "7": {"label": "*3", "atom_type": "Cd"}, "8": {"label": "*4", "atom_type": "Cd"}, "17": {"label": "*2", "atom_type": "H0"}}

>  <type>  (4) 
ts

$$$$
