
     RDKit          3D

 18 18  0  0  0  0  0  0  0  0999 V2000
   -2.4852    0.3210   -0.3966 C   0  0  0  0  0  0  0  0  0  0  0  0
   -1.5917   -0.2708    0.6941 C   0  0  0  0  0  0  0  0  0  0  0  0
   -0.1292   -0.1692    0.3493 C   0  0  0  0  0  0  0  0  0  0  0  0
    0.6099    0.9558    0.7015 C   0  0  0  0  0  0  0  0  0  0  0  0
    1.9447    1.0728    0.3458 C   0  0  0  0  0  0  0  0  0  0  0  0
    2.5646    0.0613   -0.3720 C   0  0  0  0  0  0  0  0  0  0  0  0
    1.8399   -1.0657   -0.7287 C   0  0  0  0  0  0  0  0  0  0  0  0
    0.5055   -1.1769   -0.3700 C   0  0  0  0  0  0  0  0  0  0  0  0
   -2.3325   -0.1971   -1.3452 H   0  0  0  0  0  0  0  0  0  0  0  0
   -2.2554    1.3763   -0.5546 H   0  0  0  0  0  0  0  0  0  0  0  0
   -3.5397    0.2376   -0.1280 H   0  0  0  0  0  0  0  0  0  0  0  0
   -1.7801    0.2462    1.6380 H   0  0  0  0  0  0  0  0  0  0  0  0
   -1.8568   -1.3190    0.8516 H   0  0  0  0  0  0  0  0  0  0  0  0
    0.1327    1.7497    1.2656 H   0  0  0  0  0  0  0  0  0  0  0  0
    2.5033    1.9550    0.6330 H   0  0  0  0  0  0  0  0  0  0  0  0
    3.6077    0.1491   -0.6484 H   0  0  0  0  0  0  0  0  0  0  0  0
    2.3163   -1.8632   -1.2854 H   0  0  0  0  0  0  0  0  0  0  0  0
   -0.0540   -2.0629   -0.6500 H   0  0  0  0  0  0  0  0  0  0  0  0
  1  2  1  0
  1  9  1  0
  1 10  1  0
  1 11  1  0
  2  3  1  0
  2 12  1  0
  2 13  1  0
  3  4  2  0
  3  8  1  0
  4  5  1  0
  4 14  1  0
  5  6  2  0
  5 15  1  0
  6  7  1  0
  6 16  1  0
  7  8  2  0
  7 17  1  0
  8 18  1  0
M  END
>  <reaction>  (1) 
rxn_1511

>  <mol_properties>  (1) 
{"1": {"label": "donator", "atom_type": "Cs"}, "11": {"label": "d_hydrogen", "atom_type": "H0"}}

>  <type>  (1) 
r1h

$$$$

     RDKit          3D

  7  6  0  0  0  0  0  0  0  0999 V2000
   -2.0652    0.3855   -0.2963 S   0  0  0  0  0  0  0  0  0  0  0  0
   -0.7169   -0.5853    0.1792 C   0  0  0  0  0  3  0  0  0  0  0  0
    0.5987   -0.2168    0.0254 C   0  0  0  0  0  0  0  0  0  0  0  0
    1.7547    0.1211   -0.1163 C   0  0  0  0  0  0  0  0  0  0  0  0
   -1.3643    1.4227   -0.7731 H   0  0  0  0  0  0  0  0  0  0  0  0
   -0.9781   -1.5363    0.6220 H   0  0  0  0  0  0  0  0  0  0  0  0
    2.7711    0.4089   -0.2366 H   0  0  0  0  0  0  0  0  0  0  0  0
  1  2  1  0
  1  5  1  0
  2  3  1  0
  2  6  1  0
  3  4  3  0
  4  7  1  0
M  RAD  1   2   2
M  END
>  <reaction>  (2) 
rxn_1511

>  <mol_properties>  (2) 
{"1": {"label": "acceptor", "atom_type": "Cs"}}

>  <type>  (2) 
r2

$$$$

     RDKit          3D

  8  7  0  0  0  0  0  0  0  0999 V2000
   -0.7014    1.0753    1.5530 S   0  0  0  0  0  0  0  0  0  0  0  0
   -0.3105   -0.4583    0.6462 C   0  0  0  0  0  0  0  0  0  0  0  0
    0.0935   -0.2424   -0.7319 C   0  0  0  0  0  0  0  0  0  0  0  0
    0.4431   -0.0604   -1.8621 C   0  0  0  0  0  0  0  0  0  0  0  0
    0.4994    1.6466    1.3970 H   0  0  0  0  0  0  0  0  0  0  0  0
   -1.2277   -1.0477    0.6819 H   0  0  0  0  0  0  0  0  0  0  0  0
    0.4563   -1.0151    1.1841 H   0  0  0  0  0  0  0  0  0  0  0  0
    0.7474    0.1020   -2.8681 H   0  0  0  0  0  0  0  0  0  0  0  0
  1  2  1  0
  1  5  1  0
  2  3  1  0
  2  6  1  0
  2  7  1  0
  3  4  3  0
  4  8  1  0
M  END
>  <reaction>  (3) 
rxn_1511

>  <mol_properties>  (3) 
{"1": {"label": "acceptor", "atom_type": "Cs"}, "7": {"label": "a_hydrogen", "atom_type": "H0"}}

>  <type>  (3) 
r2h

$$$$

     RDKit          3D

 25 24  0  0  0  0  0  0  0  0999 V2000
   -2.2449   -0.8286    0.0701 S   0  0  0  0  0  0  0  0  0  0  0  0
   -0.8606   -1.8748    0.4796 C   0  0  0  0  0  3  0  0  0  0  0  0
   -0.4718   -1.9655    1.8457 C   0  0  0  0  0  0  0  0  0  0  0  0
   -0.0770   -1.9928    2.9808 C   0  0  0  0  0  0  0  0  0  0  0  0
   -1.7621    0.2839    0.6433 H   0  0  0  0  0  0  0  0  0  0  0  0
   -0.9725   -2.8336   -0.0215 H   0  0  0  0  0  0  0  0  0  0  0  0
    0.2469   -2.0333    3.9927 H   0  0  0  0  0  0  0  0  0  0  0  0
    1.0816   -1.0818   -2.2076 C   0  0  0  0  0  0  0  0  0  0  0  0
    1.1988   -0.6643   -0.7669 C   0  0  0  0  0  0  0  0  0  0  0  0
    0.9352    0.7249   -0.3793 C   0  0  0  0  0  0  0  0  0  0  0  0
    0.3296    1.6451   -1.2408 C   0  0  0  0  0  0  0  0  0  0  0  0
    0.0243    2.9261   -0.8115 C   0  0  0  0  0  0  0  0  0  0  0  0
    0.3062    3.3168    0.4892 C   0  0  0  0  0  0  0  0  0  0  0  0
    0.9063    2.4146    1.3584 C   0  0  0  0  0  0  0  0  0  0  0  0
    1.2181    1.1379    0.9292 C   0  0  0  0  0  0  0  0  0  0  0  0
    1.7776   -0.5281   -2.8454 H   0  0  0  0  0  0  0  0  0  0  0  0
    0.0729   -0.9094   -2.5904 H   0  0  0  0  0  0  0  0  0  0  0  0
    1.3019   -2.1438   -2.3178 H   0  0  0  0  0  0  0  0  0  0  0  0
    0.2027   -1.3243   -0.1520 H   0  0  0  0  0  0  0  0  0  0  0  0
    2.0442   -1.1023   -0.2377 H   0  0  0  0  0  0  0  0  0  0  0  0
    0.0932    1.3568   -2.2566 H   0  0  0  0  0  0  0  0  0  0  0  0
   -0.4405    3.6236   -1.4973 H   0  0  0  0  0  0  0  0  0  0  0  0
    0.0632    4.3173    0.8234 H   0  0  0  0  0  0  0  0  0  0  0  0
    1.1314    2.7095    2.3757 H   0  0  0  0  0  0  0  0  0  0  0  0
    1.6755    0.4338    1.6145 H   0  0  0  0  0  0  0  0  0  0  0  0
  1  2  1  0
  1  5  1  0
  2  3  1  0
  2  6  1  0
  3  4  3  0
  4  7  1  0
  8  9  1  0
  8 16  1  0
  8 17  1  0
  8 18  1  0
  9 10  1  0
  9 19  1  0
  9 20  1  0
 10 11  2  0
 10 15  1  0
 11 12  1  0
 11 21  1  0
 12 13  2  0
 12 22  1  0
 13 14  1  0
 13 23  1  0
 14 15  2  0
 14 24  1  0
 15 25  1  0
M  RAD  1   2   2
M  END
>  <reaction>  (4) 
rxn_1511

>  <mol_properties>  (4) 
{"0": {"label": "*4", "atom_type": "S2s"}, "1": {"label": "*3", "atom_type": "Cs"}, "8": {"label": "*1", "atom_type": "Cs"}, "9": {"label": "*0", "atom_type": "Cd"}, "18": {"label": "*2", "atom_type": "H0"}}

>  <type>  (4) 
ts

$$$$
