
     RDKit          3D

 12 11  0  0  0  0  0  0  0  0999 V2000
    2.1696    0.6854    1.1310 C   0  0  0  0  0  0  0  0  0  0  0  0
    1.2518    0.4145    0.4134 C   0  0  0  0  0  0  0  0  0  0  0  0
    0.1391    0.0443   -0.4683 C   0  0  0  0  0  0  0  0  0  0  0  0
   -0.2054   -1.4492   -0.3339 C   0  0  0  0  0  0  0  0  0  0  0  0
   -1.0375    0.8853   -0.2222 C   0  0  0  0  0  0  0  0  0  0  0  0
   -2.0160    1.5463   -0.0311 C   0  0  0  0  0  0  0  0  0  0  0  0
    2.9819    0.9356    1.7702 H   0  0  0  0  0  0  0  0  0  0  0  0
    0.4629    0.2285   -1.4981 H   0  0  0  0  0  0  0  0  0  0  0  0
   -0.5327   -1.6703    0.6812 H   0  0  0  0  0  0  0  0  0  0  0  0
    0.6727   -2.0535   -0.5593 H   0  0  0  0  0  0  0  0  0  0  0  0
   -1.0064   -1.7081   -1.0256 H   0  0  0  0  0  0  0  0  0  0  0  0
   -2.8802    2.1413    0.1426 H   0  0  0  0  0  0  0  0  0  0  0  0
  1  2  3  0
  1  7  1  0
  2  3  1  0
  3  4  1  0
  3  5  1  0
  3  8  1  0
  4  9  1  0
  4 10  1  0
  4 11  1  0
  5  6  3  0
  6 12  1  0
M  END
>  <reaction>  (1) 
rxn_1405

>  <mol_properties>  (1) 
{"2": {"label": "donator", "atom_type": "Cs"}, "7": {"label": "d_hydrogen", "atom_type": "H0"}}

>  <type>  (1) 
r1h

$$$$

     RDKit          3D

 20 20  0  0  0  0  0  0  0  0999 V2000
   -2.4774    0.8083    0.1488 C   0  0  0  0  0  0  0  0  0  0  0  0
   -1.4172   -0.1696   -0.2476 C   0  0  0  0  0  3  0  0  0  0  0  0
   -0.2904    0.2932   -1.1156 C   0  0  0  0  0  0  0  0  0  0  0  0
   -1.4797   -1.5204    0.1947 C   0  0  0  0  0  0  0  0  0  0  0  0
   -0.4907   -2.4664   -0.1650 C   0  0  0  0  0  0  0  0  0  0  0  0
   -0.5559   -3.7750    0.2665 C   0  0  0  0  0  0  0  0  0  0  0  0
   -1.6038   -4.2041    1.0733 C   0  0  0  0  0  0  0  0  0  0  0  0
   -2.5899   -3.2959    1.4424 C   0  0  0  0  0  0  0  0  0  0  0  0
   -2.5339   -1.9852    1.0162 C   0  0  0  0  0  0  0  0  0  0  0  0
   -3.4697    0.4933   -0.1924 H   0  0  0  0  0  0  0  0  0  0  0  0
   -2.5434    0.9184    1.2368 H   0  0  0  0  0  0  0  0  0  0  0  0
   -2.2829    1.7944   -0.2706 H   0  0  0  0  0  0  0  0  0  0  0  0
   -0.2452   -0.2661   -2.0565 H   0  0  0  0  0  0  0  0  0  0  0  0
   -0.3905    1.3487   -1.3647 H   0  0  0  0  0  0  0  0  0  0  0  0
    0.6811    0.1589   -0.6274 H   0  0  0  0  0  0  0  0  0  0  0  0
    0.3373   -2.1635   -0.7918 H   0  0  0  0  0  0  0  0  0  0  0  0
    0.2187   -4.4725   -0.0281 H   0  0  0  0  0  0  0  0  0  0  0  0
   -1.6513   -5.2316    1.4097 H   0  0  0  0  0  0  0  0  0  0  0  0
   -3.4116   -3.6175    2.0706 H   0  0  0  0  0  0  0  0  0  0  0  0
   -3.3164   -1.3029    1.3205 H   0  0  0  0  0  0  0  0  0  0  0  0
  1  2  1  0
  1 10  1  0
  1 11  1  0
  1 12  1  0
  2  3  1  0
  2  4  1  0
  3 13  1  0
  3 14  1  0
  3 15  1  0
  4  5  2  0
  4  9  1  0
  5  6  1  0
  5 16  1  0
  6  7  2  0
  6 17  1  0
  7  8  1  0
  7 18  1  0
  8  9  2  0
  8 19  1  0
  9 20  1  0
M  RAD  1   2   2
M  END
>  <reaction>  (2) 
rxn_1405

>  <mol_properties>  (2) 
{"1": {"label": "acceptor", "atom_type": "Cs"}}

>  <type>  (2) 
r2

$$$$

     RDKit          3D

 21 21  0  0  0  0  0  0  0  0999 V2000
   -1.3695    1.3367   -1.0719 C   0  0  0  0  0  0  0  0  0  0  0  0
   -1.4091   -0.0981   -0.5428 C   0  0  0  0  0  0  0  0  0  0  0  0
   -0.1819   -0.3999    0.3191 C   0  0  0  0  0  0  0  0  0  0  0  0
   -1.5636   -1.1028   -1.6652 C   0  0  0  0  0  0  0  0  0  0  0  0
   -0.5920   -1.2314   -2.6553 C   0  0  0  0  0  0  0  0  0  0  0  0
   -0.7353   -2.1509   -3.6809 C   0  0  0  0  0  0  0  0  0  0  0  0
   -1.8582   -2.9642   -3.7377 C   0  0  0  0  0  0  0  0  0  0  0  0
   -2.8325   -2.8475   -2.7602 C   0  0  0  0  0  0  0  0  0  0  0  0
   -2.6828   -1.9241   -1.7351 C   0  0  0  0  0  0  0  0  0  0  0  0
   -0.4920    1.4974   -1.7025 H   0  0  0  0  0  0  0  0  0  0  0  0
   -2.2553    1.5607   -1.6679 H   0  0  0  0  0  0  0  0  0  0  0  0
   -1.3211    2.0496   -0.2461 H   0  0  0  0  0  0  0  0  0  0  0  0
   -2.2930   -0.1918    0.0948 H   0  0  0  0  0  0  0  0  0  0  0  0
   -0.1215    0.2955    1.1588 H   0  0  0  0  0  0  0  0  0  0  0  0
   -0.2200   -1.4155    0.7159 H   0  0  0  0  0  0  0  0  0  0  0  0
    0.7383   -0.3016   -0.2615 H   0  0  0  0  0  0  0  0  0  0  0  0
    0.2915   -0.6040   -2.6263 H   0  0  0  0  0  0  0  0  0  0  0  0
    0.0326   -2.2338   -4.4401 H   0  0  0  0  0  0  0  0  0  0  0  0
   -1.9712   -3.6833   -4.5391 H   0  0  0  0  0  0  0  0  0  0  0  0
   -3.7135   -3.4765   -2.7932 H   0  0  0  0  0  0  0  0  0  0  0  0
   -3.4509   -1.8400   -0.9743 H   0  0  0  0  0  0  0  0  0  0  0  0
  1  2  1  0
  1 10  1  0
  1 11  1  0
  1 12  1  0
  2  3  1  0
  2  4  1  0
  2 13  1  0
  3 14  1  0
  3 15  1  0
  3 16  1  0
  4  5  2  0
  4  9  1  0
  5  6  1  0
  5 17  1  0
  6  7  2  0
  6 18  1  0
  7  8  1  0
  7 19  1  0
  8  9  2  0
  8 20  1  0
  9 21  1  0
M  END
>  <reaction>  (3) 
rxn_1405

>  <mol_properties>  (3) 
{"0": {"label": "a_hydrogen", "atom_type": "H0"}, "2": {"label": "acceptor", "atom_type": "Cs"}}

>  <type>  (3) 
r2h

$$$$

     RDKit          3D

 32 31  0  0  0  0  0  0  0  0999 V2000
   -2.4304   -0.6399   -2.2435 C   0  0  0  0  0  0  0  0  0  0  0  0
   -2.2755   -0.1847   -1.1432 C   0  0  0  0  0  0  0  0  0  0  0  0
   -2.0220    0.3525    0.1653 C   0  0  0  0  0  0  0  0  0  0  0  0
   -1.6126    1.8189    0.1969 C   0  0  0  0  0  0  0  0  0  0  0  0
   -2.9631   -0.0491    1.1749 C   0  0  0  0  0  0  0  0  0  0  0  0
   -3.7037   -0.3884    2.0569 C   0  0  0  0  0  0  0  0  0  0  0  0
   -2.5922   -1.0366   -3.2166 H   0  0  0  0  0  0  0  0  0  0  0  0
   -0.8936   -0.2456    0.5334 H   0  0  0  0  0  0  0  0  0  0  0  0
   -2.4450    2.4608   -0.0967 H   0  0  0  0  0  0  0  0  0  0  0  0
   -0.7806    1.9859   -0.4871 H   0  0  0  0  0  0  0  0  0  0  0  0
   -1.2997    2.0949    1.2039 H   0  0  0  0  0  0  0  0  0  0  0  0
   -4.3765   -0.6843    2.8251 H   0  0  0  0  0  0  0  0  0  0  0  0
    0.2104   -0.6919    2.4258 C   0  0  0  0  0  0  0  0  0  0  0  0
    0.2735   -0.8442    0.9267 C   0  0  0  0  0  3  0  0  0  0  0  0
    0.0207   -2.2563    0.4526 C   0  0  0  0  0  0  0  0  0  0  0  0
    1.2854   -0.0503    0.1968 C   0  0  0  0  0  0  0  0  0  0  0  0
    2.1719    0.8052    0.8587 C   0  0  0  0  0  0  0  0  0  0  0  0
    3.0774    1.5840    0.1567 C   0  0  0  0  0  0  0  0  0  0  0  0
    3.1161    1.5392   -1.2277 C   0  0  0  0  0  0  0  0  0  0  0  0
    2.2398    0.7011   -1.9032 C   0  0  0  0  0  0  0  0  0  0  0  0
    1.3417   -0.0829   -1.2030 C   0  0  0  0  0  0  0  0  0  0  0  0
    0.1518    0.3537    2.7315 H   0  0  0  0  0  0  0  0  0  0  0  0
   -0.6717   -1.2001    2.8159 H   0  0  0  0  0  0  0  0  0  0  0  0
    1.0910   -1.1341    2.9053 H   0  0  0  0  0  0  0  0  0  0  0  0
    0.8489   -2.9092    0.7486 H   0  0  0  0  0  0  0  0  0  0  0  0
   -0.8937   -2.6479    0.9021 H   0  0  0  0  0  0  0  0  0  0  0  0
   -0.0879   -2.3230   -0.6285 H   0  0  0  0  0  0  0  0  0  0  0  0
    2.1661    0.8578    1.9390 H   0  0  0  0  0  0  0  0  0  0  0  0
    3.7576    2.2302    0.6977 H   0  0  0  0  0  0  0  0  0  0  0  0
    3.8207    2.1513   -1.7761 H   0  0  0  0  0  0  0  0  0  0  0  0
    2.2533    0.6610   -2.9853 H   0  0  0  0  0  0  0  0  0  0  0  0
    0.6509   -0.7087   -1.7525 H   0  0  0  0  0  0  0  0  0  0  0  0
  1  2  3  0
  1  7  1  0
  2  3  1  0
  3  4  1  0
  3  5  1  0
  3  8  1  0
  4  9  1  0
  4 10  1  0
  4 11  1  0
  5  6  3  0
  6 12  1  0
 13 14  1  0
 13 22  1  0
 13 23  1  0
 13 24  1  0
 14 15  1  0
 14 16  1  0
 15 25  1  0
 15 26  1  0
 15 27  1  0
 16 17  2  0
 16 21  1  0
 17 18  1  0
 17 28  1  0
 18 19  2  0
 18 29  1  0
 19 20  1  0
 19 30  1  0
 20 21  2  0
 20 31  1  0
 21 32  1  0
M  RAD  1  14   2
M  END
>  <reaction>  (4) 
rxn_1405

>  <mol_properties>  (4) 
{"1": {"label": "*0", "atom_type": "Ct"}, "2": {"label": "*1", "atom_type": "Cs"}, "7": {"label": "*2", "atom_type": "H0"}, "13": {"label": "*3", "atom_type": "Cs"}, "15": {"label": "*4", "atom_type": "Cd"}}

>  <type>  (4) 
ts

$$$$
