
     RDKit          3D

 15 14  0  0  0  0  0  0  0  0999 V2000
    2.1256    0.4849   -0.6284 C   0  0  0  0  0  0  0  0  0  0  0  0
    1.1128    0.2141    0.1794 C   0  0  0  0  0  0  0  0  0  0  0  0
   -0.3017   -0.0425   -0.2513 C   0  0  0  0  0  0  0  0  0  0  0  0
   -1.2427    1.0075    0.3423 C   0  0  0  0  0  0  0  0  0  0  0  0
   -0.7381   -1.4526    0.1504 C   0  0  0  0  0  0  0  0  0  0  0  0
    3.1243    0.6602   -0.2486 H   0  0  0  0  0  0  0  0  0  0  0  0
    1.9908    0.5411   -1.7036 H   0  0  0  0  0  0  0  0  0  0  0  0
    1.2888    0.1665    1.2533 H   0  0  0  0  0  0  0  0  0  0  0  0
   -0.3426    0.0343   -1.3424 H   0  0  0  0  0  0  0  0  0  0  0  0
   -0.9570    2.0133    0.0315 H   0  0  0  0  0  0  0  0  0  0  0  0
   -1.2189    0.9728    1.4350 H   0  0  0  0  0  0  0  0  0  0  0  0
   -2.2723    0.8287    0.0254 H   0  0  0  0  0  0  0  0  0  0  0  0
   -0.6964   -1.5744    1.2363 H   0  0  0  0  0  0  0  0  0  0  0  0
   -0.0911   -2.2079   -0.2978 H   0  0  0  0  0  0  0  0  0  0  0  0
   -1.7646   -1.6461   -0.1677 H   0  0  0  0  0  0  0  0  0  0  0  0
  1  2  2  3
  1  6  1  0
  1  7  1  0
  2  3  1  0
  2  8  1  0
  3  4  1  0
  3  5  1  0
  3  9  1  0
  4 10  1  0
  4 11  1  0
  4 12  1  0
  5 13  1  0
  5 14  1  0
  5 15  1  0
M  END
>  <reaction>  (1) 
rxn_105

>  <mol_properties>  (1) 
{"2": {"label": "donator", "atom_type": "Cs"}, "8": {"label": "d_hydrogen", "atom_type": "H0"}}

>  <type>  (1) 
r1h

$$$$

     RDKit          3D

  3  2  0  0  0  0  0  0  0  0999 V2000
    0.0002    0.4233    0.0000 N   0  0  0  0  0  2  0  0  0  0  0  0
   -0.8051   -0.2112    0.0000 H   0  0  0  0  0  0  0  0  0  0  0  0
    0.8049   -0.2121    0.0000 H   0  0  0  0  0  0  0  0  0  0  0  0
  1  2  1  0
  1  3  1  0
M  RAD  1   1   2
M  END
>  <reaction>  (2) 
rxn_105

>  <mol_properties>  (2) 
{"0": {"label": "acceptor", "atom_type": "N3s"}}

>  <type>  (2) 
r2

$$$$

     RDKit          3D

  4  3  0  0  0  0  0  0  0  0999 V2000
    0.0006   -0.0009    0.2762 N   0  0  0  0  0  0  0  0  0  0  0  0
   -0.4188    0.8439   -0.0883 H   0  0  0  0  0  0  0  0  0  0  0  0
   -0.5215   -0.7840   -0.0936 H   0  0  0  0  0  0  0  0  0  0  0  0
    0.9397   -0.0590   -0.0943 H   0  0  0  0  0  0  0  0  0  0  0  0
  1  2  1  0
  1  3  1  0
  1  4  1  0
M  END
>  <reaction>  (3) 
rxn_105

>  <mol_properties>  (3) 
{"0": {"label": "acceptor", "atom_type": "N3s"}, "3": {"label": "a_hydrogen", "atom_type": "H0"}}

>  <type>  (3) 
r2h

$$$$

     RDKit          3D

 18 16  0  0  0  0  0  0  0  0999 V2000
   -0.8563    2.3113   -0.6109 N   0  0  0  0  0  2  0  0  0  0  0  0
    0.0573    2.7644   -0.5308 H   0  0  0  0  0  0  0  0  0  0  0  0
   -0.8713    1.9620   -1.5726 H   0  0  0  0  0  0  0  0  0  0  0  0
   -0.0404   -1.8068   -1.2706 C   0  0  0  0  0  0  0  0  0  0  0  0
   -0.6921   -1.0177   -0.4236 C   0  0  0  0  0  0  0  0  0  0  0  0
   -0.1020    0.0175    0.4601 C   0  0  0  0  0  0  0  0  0  0  0  0
    1.4093    0.1098    0.4561 C   0  0  0  0  0  0  0  0  0  0  0  0
   -0.7011    0.0126    1.8571 C   0  0  0  0  0  0  0  0  0  0  0  0
   -0.5703   -2.5257   -1.8822 H   0  0  0  0  0  0  0  0  0  0  0  0
    1.0371   -1.7745   -1.3792 H   0  0  0  0  0  0  0  0  0  0  0  0
   -1.7739   -1.1084   -0.3589 H   0  0  0  0  0  0  0  0  0  0  0  0
   -0.5147    1.0706   -0.0002 H   0  0  0  0  0  0  0  0  0  0  0  0
    1.8029    0.2568   -0.5510 H   0  0  0  0  0  0  0  0  0  0  0  0
    1.8566   -0.8024    0.8624 H   0  0  0  0  0  0  0  0  0  0  0  0
    1.7410    0.9459    1.0740 H   0  0  0  0  0  0  0  0  0  0  0  0
   -0.3870   -0.8808    2.4055 H   0  0  0  0  0  0  0  0  0  0  0  0
   -1.7912    0.0213    1.8183 H   0  0  0  0  0  0  0  0  0  0  0  0
   -0.3769    0.8886    2.4211 H   0  0  0  0  0  0  0  0  0  0  0  0
  1  2  1  0
  1  3  1  0
  4  5  2  3
  4  9  1  0
  4 10  1  0
  5  6  1  0
  5 11  1  0
  6  7  1  0
  6  8  1  0
  6 12  1  0
  7 13  1  0
  7 14  1  0
  7 15  1  0
  8 16  1  0
  8 17  1  0
  8 18  1  0
M  RAD  1   1   2
M  END
>  <reaction>  (4) 
rxn_105

>  <mol_properties>  (4) 
{"0": {"label": "*3", "atom_type": "N3s"}, "1": {"label": "*4", "atom_type": "H0"}, "4": {"label": "*0", "atom_type": "Cd"}, "5": {"label": "*1", "atom_type": "Cs"}, "11": {"label": "*2", "atom_type": "H0"}}

>  <type>  (4) 
ts

$$$$
