
     RDKit          3D

  4  3  0  0  0  0  0  0  0  0999 V2000
    1.6123   -0.2971    0.0070 N   0  0  0  0  0  2  0  0  0  0  0  0
    0.4838    0.0022    0.2070 C   0  0  0  0  0  0  0  0  0  0  0  0
   -0.6848    0.4027    0.4950 N   0  0  0  0  0  0  0  0  0  0  0  0
   -1.4113   -0.1079   -0.0045 H   0  0  0  0  0  0  0  0  0  0  0  0
  1  2  2  0
  2  3  2  0
  3  4  1  0
M  RAD  1   1   2
M  END
>  <reaction>  (1) 
rxn_61

>  <mol_properties>  (1) 
{"2": {"label": "donator", "atom_type": "N3d"}, "3": {"label": "d_hydrogen", "atom_type": "H0"}}

>  <type>  (1) 
r1h

$$$$

     RDKit          3D

  1  0  0  0  0  0  0  0  0  0999 V2000
    0.0000    0.0000    0.0000 O   0  0  0  0  0 15  0  0  0  0  0  0
M  END
>  <reaction>  (2) 
rxn_61

>  <mol_properties>  (2) 
{"0": {"label": "acceptor", "atom_type": "O2s"}}

>  <type>  (2) 
r2

$$$$

     RDKit          3D

  2  1  0  0  0  0  0  0  0  0999 V2000
    0.0000    0.0000    0.4855 O   0  0  0  0  0  1  0  0  0  0  0  0
    0.0000    0.0000   -0.4855 H   0  0  0  0  0  0  0  0  0  0  0  0
  1  2  1  0
M  RAD  1   1   2
M  END
>  <reaction>  (3) 
rxn_61

>  <mol_properties>  (3) 
{"0": {"label": "acceptor", "atom_type": "O2s"}, "1": {"label": "a_hydrogen", "atom_type": "H0"}}

>  <type>  (3) 
r2h

$$$$

     RDKit          3D

  5  3  0  0  0  0  0  0  0  0999 V2000
    0.0076   -1.4872    1.4720 O   0  0  0  0  0 15  0  0  0  0  0  0
    0.0093    0.4597   -1.8766 N   0  0  0  0  0  2  0  0  0  0  0  0
   -0.0003    0.5216   -0.6861 C   0  0  0  0  0  0  0  0  0  0  0  0
   -0.0116    0.6854    0.5550 N   0  0  0  0  0  0  0  0  0  0  0  0
   -0.0050   -0.2818    1.2321 H   0  0  0  0  0  0  0  0  0  0  0  0
  2  3  2  0
  3  4  2  0
  4  5  1  0
M  RAD  1   2   2
M  END
>  <reaction>  (4) 
rxn_61

>  <mol_properties>  (4) 
{"0": {"label": "*3", "atom_type": "O2s"}, "2": {"label": "*0", "atom_type": "Cdd"}, "3": {"label": "*1", "atom_type": "N3d"}, "4": {"label": "*2", "atom_type": "H0"}}

>  <type>  (4) 
ts

$$$$
