
     RDKit          3D

  7  6  0  0  0  0  0  0  0  0999 V2000
    1.2985   -0.0065   -0.2721 C   0  0  0  0  0  0  0  0  0  0  0  0
    0.0000    0.0000   -0.2926 C   0  0  0  0  0  0  0  0  0  0  0  0
   -1.2985    0.0065   -0.3130 C   0  0  0  0  0  0  0  0  0  0  0  0
    1.8444   -0.7551    0.2895 H   0  0  0  0  0  0  0  0  0  0  0  0
    1.8693    0.7364   -0.8162 H   0  0  0  0  0  0  0  0  0  0  0  0
   -1.8658    0.5623    0.4239 H   0  0  0  0  0  0  0  0  0  0  0  0
   -1.8479   -0.5437   -1.0675 H   0  0  0  0  0  0  0  0  0  0  0  0
  1  2  2  0
  1  4  1  0
  1  5  1  0
  2  3  2  0
  3  6  1  0
  3  7  1  0
M  END
>  <reaction>  (1) 
rxn_1810

>  <mol_properties>  (1) 
{"0": {"label": "donator", "atom_type": "Cd"}, "3": {"label": "d_hydrogen", "atom_type": "H0"}}

>  <type>  (1) 
r1h

$$$$

     RDKit          3D

 12 11  0  0  0  0  0  0  0  0999 V2000
    2.7049    0.9350   -0.4404 S   0  0  0  0  0  1  0  0  0  0  0  0
    1.0313    1.0813   -0.4080 C   0  0  0  0  0  0  0  0  0  0  0  0
    0.1364    0.1019   -0.0473 C   0  0  0  0  0  0  0  0  0  0  0  0
    0.5360   -1.2679    0.3784 C   0  0  0  0  0  0  0  0  0  0  0  0
   -1.3304    0.3842   -0.0689 C   0  0  0  0  0  0  0  0  0  0  0  0
    0.6069    2.0398   -0.6990 H   0  0  0  0  0  0  0  0  0  0  0  0
    0.1578   -1.4699    1.3849 H   0  0  0  0  0  0  0  0  0  0  0  0
    0.0783   -2.0109   -0.2814 H   0  0  0  0  0  0  0  0  0  0  0  0
    1.6154   -1.3973    0.3689 H   0  0  0  0  0  0  0  0  0  0  0  0
   -1.8406   -0.3126   -0.7406 H   0  0  0  0  0  0  0  0  0  0  0  0
   -1.5514    1.4016   -0.3887 H   0  0  0  0  0  0  0  0  0  0  0  0
   -1.7610    0.2281    0.9247 H   0  0  0  0  0  0  0  0  0  0  0  0
  1  2  1  0
  2  3  2  3
  2  6  1  0
  3  4  1  0
  3  5  1  0
  4  7  1  0
  4  8  1  0
  4  9  1  0
  5 10  1  0
  5 11  1  0
  5 12  1  0
M  RAD  1   1   2
M  END
>  <reaction>  (2) 
rxn_1810

>  <mol_properties>  (2) 
{"2": {"label": "acceptor", "atom_type": "Cs"}}

>  <type>  (2) 
r2

$$$$

     RDKit          3D

 13 12  0  0  0  0  0  0  0  0999 V2000
    2.7452   -1.1134   -0.3601 S   0  0  0  0  0  0  0  0  0  0  0  0
    1.4120   -0.4899    0.2856 C   0  0  0  0  0  0  0  0  0  0  0  0
    0.1714   -0.0257   -0.4180 C   0  0  0  0  0  0  0  0  0  0  0  0
   -0.0717    1.4493   -0.0658 C   0  0  0  0  0  0  0  0  0  0  0  0
    0.1609   -0.2576   -1.9191 C   0  0  0  0  0  0  0  0  0  0  0  0
    1.3665   -0.3550    1.3690 H   0  0  0  0  0  0  0  0  0  0  0  0
   -0.6453   -0.6023    0.0382 H   0  0  0  0  0  0  0  0  0  0  0  0
    0.7161    2.0755   -0.4895 H   0  0  0  0  0  0  0  0  0  0  0  0
   -0.0915    1.6095    1.0136 H   0  0  0  0  0  0  0  0  0  0  0  0
   -1.0268    1.7797   -0.4755 H   0  0  0  0  0  0  0  0  0  0  0  0
    0.3131   -1.3093   -2.1616 H   0  0  0  0  0  0  0  0  0  0  0  0
    0.9567    0.3095   -2.4051 H   0  0  0  0  0  0  0  0  0  0  0  0
   -0.7945    0.0619   -2.3384 H   0  0  0  0  0  0  0  0  0  0  0  0
  1  2  2  0
  2  3  1  0
  2  6  1  0
  3  4  1  0
  3  5  1  0
  3  7  1  0
  4  8  1  0
  4  9  1  0
  4 10  1  0
  5 11  1  0
  5 12  1  0
  5 13  1  0
M  END
>  <reaction>  (3) 
rxn_1810

>  <mol_properties>  (3) 
{"0": {"label": "a_hydrogen", "atom_type": "H0"}, "3": {"label": "acceptor", "atom_type": "Cs"}}

>  <type>  (3) 
r2h

$$$$

     RDKit          3D

 19 17  0  0  0  0  0  0  0  0999 V2000
    1.1563    2.0695   -0.2031 C   0  0  0  0  0  0  0  0  0  0  0  0
    1.2314    1.8779   -1.4455 C   0  0  0  0  0  0  0  0  0  0  0  0
    1.2148    1.5572   -2.7304 C   0  0  0  0  0  3  0  0  0  0  0  0
    0.3068    1.0520    0.4073 H   0  0  0  0  0  0  0  0  0  0  0  0
    1.5336    2.7369    0.5498 H   0  0  0  0  0  0  0  0  0  0  0  0
    0.4839    1.9896   -3.4015 H   0  0  0  0  0  0  0  0  0  0  0  0
    1.9441    0.8699   -3.1391 H   0  0  0  0  0  0  0  0  0  0  0  0
   -0.3491   -1.8024   -0.9207 S   0  0  0  0  0  0  0  0  0  0  0  0
   -0.9255   -0.5111   -0.1216 C   0  0  0  0  0  0  0  0  0  0  0  0
   -0.3273    0.1604    1.0240 C   0  0  0  0  0  0  0  0  0  0  0  0
   -1.3011    0.9421    1.8866 C   0  0  0  0  0  0  0  0  0  0  0  0
    0.7442   -0.5758    1.7944 C   0  0  0  0  0  0  0  0  0  0  0  0
   -1.8297   -0.0290   -0.4976 H   0  0  0  0  0  0  0  0  0  0  0  0
   -1.8671    0.2670    2.5340 H   0  0  0  0  0  0  0  0  0  0  0  0
   -0.7676    1.6452    2.5284 H   0  0  0  0  0  0  0  0  0  0  0  0
   -2.0111    1.5060    1.2795 H   0  0  0  0  0  0  0  0  0  0  0  0
    1.2451    0.1028    2.4870 H   0  0  0  0  0  0  0  0  0  0  0  0
    1.4848   -1.0094    1.1245 H   0  0  0  0  0  0  0  0  0  0  0  0
    0.3027   -1.3898    2.3754 H   0  0  0  0  0  0  0  0  0  0  0  0
  1  2  3  0
  1  5  1  0
  2  3  1  0
  3  6  1  0
  3  7  1  0
  4 10  1  0
  8  9  2  0
  9 10  1  0
  9 13  1  0
 10 11  1  0
 10 12  1  0
 11 14  1  0
 11 15  1  0
 11 16  1  0
 12 17  1  0
 12 18  1  0
 12 19  1  0
M  RAD  1   3   2
M  END
>  <reaction>  (4) 
rxn_1810

>  <mol_properties>  (4) 
{"0": {"label": "*3", "atom_type": "Ct"}, "1": {"label": "*4", "atom_type": "Ct"}, "3": {"label": "*2", "atom_type": "H0"}, "8": {"label": "*0", "atom_type": "CS"}, "9": {"label": "*1", "atom_type": "Cs"}}

>  <type>  (4) 
ts

$$$$
