
     RDKit          3D

 22 23  0  0  0  0  0  0  0  0999 V2000
   -2.1093   -0.3263    0.3079 C   0  0  0  0  0  0  0  0  0  0  0  0
   -1.3270    0.9803    0.4115 C   0  0  0  0  0  0  0  0  0  0  0  0
   -0.1818    0.8289   -0.6044 C   0  0  0  0  0  0  0  0  0  0  0  0
    1.1682    1.3904   -0.1341 C   0  0  0  0  0  0  0  0  0  0  0  0
    1.8508    0.2041    0.5479 C   0  0  0  0  0  0  0  0  0  0  0  0
    1.4982   -0.9663   -0.3710 C   0  0  0  0  0  0  0  0  0  0  0  0
    0.0340   -0.7124   -0.7594 C   0  0  0  0  0  0  0  0  0  0  0  0
   -0.9986   -1.3650    0.1756 C   0  0  0  0  0  0  0  0  0  0  0  0
   -2.7686   -0.5042    1.1589 H   0  0  0  0  0  0  0  0  0  0  0  0
   -2.7285   -0.3223   -0.5943 H   0  0  0  0  0  0  0  0  0  0  0  0
   -1.9339    1.8682    0.2289 H   0  0  0  0  0  0  0  0  0  0  0  0
   -0.9144    1.0729    1.4218 H   0  0  0  0  0  0  0  0  0  0  0  0
   -0.4804    1.2763   -1.5535 H   0  0  0  0  0  0  0  0  0  0  0  0
    1.7667    1.7058   -0.9931 H   0  0  0  0  0  0  0  0  0  0  0  0
    1.0540    2.2578    0.5189 H   0  0  0  0  0  0  0  0  0  0  0  0
    1.4197    0.0438    1.5410 H   0  0  0  0  0  0  0  0  0  0  0  0
    2.9248    0.3413    0.6788 H   0  0  0  0  0  0  0  0  0  0  0  0
    2.1362   -0.9329   -1.2584 H   0  0  0  0  0  0  0  0  0  0  0  0
    1.6421   -1.9421    0.0966 H   0  0  0  0  0  0  0  0  0  0  0  0
   -0.1575   -1.0299   -1.7854 H   0  0  0  0  0  0  0  0  0  0  0  0
   -1.3459   -2.3310   -0.1933 H   0  0  0  0  0  0  0  0  0  0  0  0
   -0.5489   -1.5373    1.1593 H   0  0  0  0  0  0  0  0  0  0  0  0
  1  2  1  0
  1  8  1  0
  1  9  1  0
  1 10  1  0
  2  3  1  0
  2 11  1  0
  2 12  1  0
  3  4  1  0
  3  7  1  0
  3 13  1  0
  4  5  1  0
  4 14  1  0
  4 15  1  0
  5  6  1  0
  5 16  1  0
  5 17  1  0
  6  7  1  0
  6 18  1  0
  6 19  1  0
  7  8  1  0
  7 20  1  0
  8 21  1  0
  8 22  1  0
M  END
>  <reaction>  (1) 
rxn_557

>  <mol_properties>  (1) 
{"2": {"label": "donator", "atom_type": "Cs"}, "12": {"label": "d_hydrogen", "atom_type": "H0"}}

>  <type>  (1) 
r1h

$$$$

     RDKit          3D

 10  9  0  0  0  0  0  0  0  0999 V2000
    1.2930    0.1441    0.3288 C   0  0  0  0  0  0  0  0  0  0  0  0
   -0.0374   -0.1647    0.9100 C   0  0  0  0  0  3  0  0  0  0  0  0
   -1.2664    0.4569    0.3567 C   0  0  0  0  0  0  0  0  0  0  0  0
    1.4384    1.2242    0.2174 H   0  0  0  0  0  0  0  0  0  0  0  0
    2.1077   -0.2477    0.9385 H   0  0  0  0  0  0  0  0  0  0  0  0
    1.4057   -0.2836   -0.6789 H   0  0  0  0  0  0  0  0  0  0  0  0
   -0.1309   -0.9912    1.6030 H   0  0  0  0  0  0  0  0  0  0  0  0
   -1.5005    0.0716   -0.6471 H   0  0  0  0  0  0  0  0  0  0  0  0
   -2.1382    0.2713    0.9849 H   0  0  0  0  0  0  0  0  0  0  0  0
   -1.1497    1.5406    0.2456 H   0  0  0  0  0  0  0  0  0  0  0  0
  1  2  1  0
  1  4  1  0
  1  5  1  0
  1  6  1  0
  2  3  1  0
  2  7  1  0
  3  8  1  0
  3  9  1  0
  3 10  1  0
M  RAD  1   2   2
M  END
>  <reaction>  (2) 
rxn_557

>  <mol_properties>  (2) 
{"1": {"label": "acceptor", "atom_type": "Cs"}}

>  <type>  (2) 
r2

$$$$

     RDKit          3D

 11 10  0  0  0  0  0  0  0  0999 V2000
   -1.2710    0.1907   -0.2084 C   0  0  0  0  0  0  0  0  0  0  0  0
    0.0202   -0.6130   -0.2928 C   0  0  0  0  0  0  0  0  0  0  0  0
    0.1086   -1.6953    0.7756 C   0  0  0  0  0  0  0  0  0  0  0  0
   -1.3607    0.6851    0.7620 H   0  0  0  0  0  0  0  0  0  0  0  0
   -2.1429   -0.4567   -0.3299 H   0  0  0  0  0  0  0  0  0  0  0  0
   -1.3158    0.9602   -0.9809 H   0  0  0  0  0  0  0  0  0  0  0  0
    0.8757    0.0616   -0.1992 H   0  0  0  0  0  0  0  0  0  0  0  0
    0.0997   -1.0712   -1.2825 H   0  0  0  0  0  0  0  0  0  0  0  0
   -0.7198   -2.4022    0.6850 H   0  0  0  0  0  0  0  0  0  0  0  0
    1.0395   -2.2596    0.6989 H   0  0  0  0  0  0  0  0  0  0  0  0
    0.0624   -1.2603    1.7770 H   0  0  0  0  0  0  0  0  0  0  0  0
  1  2  1  0
  1  4  1  0
  1  5  1  0
  1  6  1  0
  2  3  1  0
  2  7  1  0
  2  8  1  0
  3  9  1  0
  3 10  1  0
  3 11  1  0
M  END
>  <reaction>  (3) 
rxn_557

>  <mol_properties>  (3) 
{"1": {"label": "acceptor", "atom_type": "Cs"}, "10": {"label": "a_hydrogen", "atom_type": "H0"}}

>  <type>  (3) 
r2h

$$$$

     RDKit          3D

 32 32  0  0  0  0  0  0  0  0999 V2000
   -2.9334   -0.4624   -0.5360 C   0  0  0  0  0  0  0  0  0  0  0  0
   -2.0459   -1.3036    0.3433 C   0  0  0  0  0  3  0  0  0  0  0  0
   -2.4075   -1.3350    1.8048 C   0  0  0  0  0  0  0  0  0  0  0  0
   -2.9813    0.5676   -0.1716 H   0  0  0  0  0  0  0  0  0  0  0  0
   -2.5712   -0.4356   -1.5653 H   0  0  0  0  0  0  0  0  0  0  0  0
   -3.9606   -0.8452   -0.5567 H   0  0  0  0  0  0  0  0  0  0  0  0
   -1.8427   -2.2917   -0.0717 H   0  0  0  0  0  0  0  0  0  0  0  0
   -3.3936   -1.7856    1.9678 H   0  0  0  0  0  0  0  0  0  0  0  0
   -1.6826   -1.9087    2.3850 H   0  0  0  0  0  0  0  0  0  0  0  0
   -2.4412   -0.3235    2.2190 H   0  0  0  0  0  0  0  0  0  0  0  0
    2.0477   -1.5558   -0.4232 C   0  0  0  0  0  0  0  0  0  0  0  0
    1.3733   -0.9792    0.8242 C   0  0  0  0  0  0  0  0  0  0  0  0
    0.3081   -0.0402    0.2783 C   0  0  0  0  0  0  0  0  0  0  0  0
    0.0813    1.2927    0.9721 C   0  0  0  0  0  0  0  0  0  0  0  0
    0.8400    2.2954    0.0937 C   0  0  0  0  0  0  0  0  0  0  0  0
    0.5831    1.7830   -1.3260 C   0  0  0  0  0  0  0  0  0  0  0  0
    0.6507    0.2546   -1.1937 C   0  0  0  0  0  0  0  0  0  0  0  0
    2.0367   -0.3767   -1.3948 C   0  0  0  0  0  0  0  0  0  0  0  0
    3.0465   -1.9490   -0.2294 H   0  0  0  0  0  0  0  0  0  0  0  0
    1.4437   -2.3734   -0.8278 H   0  0  0  0  0  0  0  0  0  0  0  0
    0.9633   -1.7485    1.4837 H   0  0  0  0  0  0  0  0  0  0  0  0
    2.1044   -0.4129    1.4143 H   0  0  0  0  0  0  0  0  0  0  0  0
   -0.8327   -0.7061    0.2978 H   0  0  0  0  0  0  0  0  0  0  0  0
   -0.9842    1.5483    0.9765 H   0  0  0  0  0  0  0  0  0  0  0  0
    0.4153    1.2883    2.0112 H   0  0  0  0  0  0  0  0  0  0  0  0
    1.9093    2.2463    0.3202 H   0  0  0  0  0  0  0  0  0  0  0  0
    0.5223    3.3284    0.2421 H   0  0  0  0  0  0  0  0  0  0  0  0
   -0.4178    2.0860   -1.6455 H   0  0  0  0  0  0  0  0  0  0  0  0
    1.2918    2.1727   -2.0589 H   0  0  0  0  0  0  0  0  0  0  0  0
   -0.0599   -0.2285   -1.8711 H   0  0  0  0  0  0  0  0  0  0  0  0
    2.2255   -0.6635   -2.4304 H   0  0  0  0  0  0  0  0  0  0  0  0
    2.8132    0.3400   -1.1063 H   0  0  0  0  0  0  0  0  0  0  0  0
  1  2  1  0
  1  4  1  0
  1  5  1  0
  1  6  1  0
  2  3  1  0
  2  7  1  0
  3  8  1  0
  3  9  1  0
  3 10  1  0
 11 12  1  0
 11 18  1  0
 11 19  1  0
 11 20  1  0
 12 13  1  0
 12 21  1  0
 12 22  1  0
 13 14  1  0
 13 17  1  0
 13 23  1  0
 14 15  1  0
 14 24  1  0
 14 25  1  0
 15 16  1  0
 15 26  1  0
 15 27  1  0
 16 17  1  0
 16 28  1  0
 16 29  1  0
 17 18  1  0
 17 30  1  0
 18 31  1  0
 18 32  1  0
M  RAD  1   2   2
M  END
>  <reaction>  (4) 
rxn_557

>  <mol_properties>  (4) 
{"0": {"label": "*4", "atom_type": "Cs"}, "1": {"label": "*3", "atom_type": "Cs"}, "12": {"label": "*1", "atom_type": "Cs"}, "16": {"label": "*0", "atom_type": "Cs"}, "22": {"label": "*2", "atom_type": "H0"}}

>  <type>  (4) 
ts

$$$$
