
     RDKit          3D

 25 26  0  0  0  0  0  0  0  0999 V2000
    2.0298   -1.1515    0.0571 C   0  0  0  0  0  0  0  0  0  0  0  0
    2.2278    0.2445    0.6528 C   0  0  0  0  0  0  0  0  0  0  0  0
    1.2292    1.2625    0.0947 C   0  0  0  0  0  0  0  0  0  0  0  0
   -0.1869    0.7454    0.2762 C   0  0  0  0  0  0  0  0  0  0  0  0
   -1.3415    1.5501   -0.3122 C   0  0  0  0  0  0  0  0  0  0  0  0
   -2.5060    0.5338   -0.4178 C   0  0  0  0  0  0  0  0  0  0  0  0
   -1.8709   -0.8658   -0.2234 C   0  0  0  0  0  0  0  0  0  0  0  0
   -0.3715   -0.6265   -0.3693 C   0  0  0  0  0  0  0  0  0  0  0  0
    0.5898   -1.6500    0.2086 C   0  0  0  0  0  0  0  0  0  0  0  0
    2.2820   -1.1226   -1.0088 H   0  0  0  0  0  0  0  0  0  0  0  0
    2.7243   -1.8549    0.5221 H   0  0  0  0  0  0  0  0  0  0  0  0
    2.1030    0.1885    1.7400 H   0  0  0  0  0  0  0  0  0  0  0  0
    3.2514    0.5819    0.4743 H   0  0  0  0  0  0  0  0  0  0  0  0
    1.3611    2.2304    0.5855 H   0  0  0  0  0  0  0  0  0  0  0  0
    1.4198    1.4194   -0.9737 H   0  0  0  0  0  0  0  0  0  0  0  0
   -0.3675    0.6209    1.3539 H   0  0  0  0  0  0  0  0  0  0  0  0
   -1.5992    2.4249    0.2862 H   0  0  0  0  0  0  0  0  0  0  0  0
   -1.0595    1.9116   -1.3055 H   0  0  0  0  0  0  0  0  0  0  0  0
   -3.2666    0.7244    0.3399 H   0  0  0  0  0  0  0  0  0  0  0  0
   -3.0030    0.6112   -1.3853 H   0  0  0  0  0  0  0  0  0  0  0  0
   -2.2549   -1.6039   -0.9288 H   0  0  0  0  0  0  0  0  0  0  0  0
   -2.0796   -1.2429    0.7821 H   0  0  0  0  0  0  0  0  0  0  0  0
   -0.1432   -0.5121   -1.4391 H   0  0  0  0  0  0  0  0  0  0  0  0
    0.4720   -2.6209   -0.2799 H   0  0  0  0  0  0  0  0  0  0  0  0
    0.3601   -1.7986    1.2704 H   0  0  0  0  0  0  0  0  0  0  0  0
  1  2  1  0
  1  9  1  0
  1 10  1  0
  1 11  1  0
  2  3  1  0
  2 12  1  0
  2 13  1  0
  3  4  1  0
  3 14  1  0
  3 15  1  0
  4  5  1  0
  4  8  1  0
  4 16  1  0
  5  6  1  0
  5 17  1  0
  5 18  1  0
  6  7  1  0
  6 19  1  0
  6 20  1  0
  7  8  1  0
  7 21  1  0
  7 22  1  0
  8  9  1  0
  8 23  1  0
  9 24  1  0
  9 25  1  0
M  END
>  <reaction>  (1) 
rxn_577

>  <mol_properties>  (1) 
{"8": {"label": "donator", "atom_type": "Cs"}, "23": {"label": "d_hydrogen", "atom_type": "H0"}}

>  <type>  (1) 
r1h

$$$$

     RDKit          3D

  4  3  0  0  0  0  0  0  0  0999 V2000
    0.0000    0.0000    0.0000 C   0  0  0  0  0  3  0  0  0  0  0  0
    1.0638   -0.1747    0.0540 H   0  0  0  0  0  0  0  0  0  0  0  0
   -0.6833   -0.8351   -0.0280 H   0  0  0  0  0  0  0  0  0  0  0  0
   -0.3805    1.0098   -0.0260 H   0  0  0  0  0  0  0  0  0  0  0  0
  1  2  1  0
  1  3  1  0
  1  4  1  0
M  RAD  1   1   2
M  END
>  <reaction>  (2) 
rxn_577

>  <mol_properties>  (2) 
{"0": {"label": "acceptor", "atom_type": "Cs"}}

>  <type>  (2) 
r2

$$$$

     RDKit          3D

  5  4  0  0  0  0  0  0  0  0999 V2000
    0.0000    0.0000    0.0000 C   0  0  0  0  0  0  0  0  0  0  0  0
   -0.6486   -0.7720   -0.4113 H   0  0  0  0  0  0  0  0  0  0  0  0
   -0.3482    0.9787   -0.3267 H   0  0  0  0  0  0  0  0  0  0  0  0
   -0.0223   -0.0487    1.0876 H   0  0  0  0  0  0  0  0  0  0  0  0
    1.0191   -0.1580   -0.3496 H   0  0  0  0  0  0  0  0  0  0  0  0
  1  2  1  0
  1  3  1  0
  1  4  1  0
  1  5  1  0
M  END
>  <reaction>  (3) 
rxn_577

>  <mol_properties>  (3) 
{"0": {"label": "acceptor", "atom_type": "Cs"}, "4": {"label": "a_hydrogen", "atom_type": "H0"}}

>  <type>  (3) 
r2h

$$$$

     RDKit          3D

 29 29  0  0  0  0  0  0  0  0999 V2000
   -0.6070   -0.5179   -1.1382 C   0  0  0  0  0  0  0  0  0  0  0  0
   -0.0232    0.6364   -0.2995 C   0  0  0  0  0  0  0  0  0  0  0  0
   -1.6201   -1.3502   -0.3478 C   0  0  0  0  0  0  0  0  0  0  0  0
    0.6435   -1.3251   -1.4953 C   0  0  0  0  0  0  0  0  0  0  0  0
   -1.0549    1.4223    0.5064 C   0  0  0  0  0  0  0  0  0  0  0  0
   -2.6764   -0.4875    0.3339 C   0  0  0  0  0  0  0  0  0  0  0  0
   -2.0211    0.5222    1.2707 C   0  0  0  0  0  0  0  0  0  0  0  0
    1.4843   -1.3141   -0.2053 C   0  0  0  0  0  0  0  0  0  0  0  0
    3.1729    1.6490    0.3409 C   0  0  0  0  0  3  0  0  0  0  0  0
    1.0880   -0.0254    0.5112 C   0  0  0  0  0  0  0  0  0  0  0  0
   -1.1024   -0.1258   -2.0318 H   0  0  0  0  0  0  0  0  0  0  0  0
    0.4529    1.3321   -1.0018 H   0  0  0  0  0  0  0  0  0  0  0  0
   -2.0876   -2.0770   -1.0172 H   0  0  0  0  0  0  0  0  0  0  0  0
   -1.0977   -1.9300    0.4212 H   0  0  0  0  0  0  0  0  0  0  0  0
   -3.3788   -1.1181    0.8837 H   0  0  0  0  0  0  0  0  0  0  0  0
   -3.2596    0.0477   -0.4243 H   0  0  0  0  0  0  0  0  0  0  0  0
    0.4123   -2.3351   -1.8394 H   0  0  0  0  0  0  0  0  0  0  0  0
    1.1865   -0.8219   -2.2994 H   0  0  0  0  0  0  0  0  0  0  0  0
   -1.4855   -0.0178    2.0590 H   0  0  0  0  0  0  0  0  0  0  0  0
   -2.7785    1.1310    1.7695 H   0  0  0  0  0  0  0  0  0  0  0  0
   -1.6342    2.0485   -0.1803 H   0  0  0  0  0  0  0  0  0  0  0  0
   -0.5428    2.1046    1.1905 H   0  0  0  0  0  0  0  0  0  0  0  0
    1.2545   -2.1841    0.4139 H   0  0  0  0  0  0  0  0  0  0  0  0
    2.5552   -1.3594   -0.4163 H   0  0  0  0  0  0  0  0  0  0  0  0
    2.7698    2.6260    0.5897 H   0  0  0  0  0  0  0  0  0  0  0  0
    3.4591    1.5444   -0.7016 H   0  0  0  0  0  0  0  0  0  0  0  0
    3.9199    1.2883    1.0412 H   0  0  0  0  0  0  0  0  0  0  0  0
    2.0898    0.7745    0.4911 H   0  0  0  0  0  0  0  0  0  0  0  0
    0.8810   -0.1378    1.5752 H   0  0  0  0  0  0  0  0  0  0  0  0
  1  3  1  0
  1  4  1  0
  1  2  1  0
  1 11  1  0
  2  5  1  0
  2 10  1  0
  2 12  1  0
  3  6  1  0
  3 13  1  0
  3 14  1  0
  4  8  1  0
  4 17  1  0
  4 18  1  0
  5  7  1  0
  5 21  1  0
  5 22  1  0
  6  7  1  0
  6 15  1  0
  6 16  1  0
  7 19  1  0
  7 20  1  0
  8 10  1  0
  8 23  1  0
  8 24  1  0
  9 25  1  0
  9 26  1  0
  9 27  1  0
 10 28  1  0
 10 29  1  0
M  RAD  1   9   2
M  END
>  <reaction>  (4) 
rxn_577

>  <mol_properties>  (4) 
{"1": {"label": "*0", "atom_type": "Cs"}, "8": {"label": "*3", "atom_type": "Cs"}, "9": {"label": "*1", "atom_type": "Cs"}, "24": {"label": "*4", "atom_type": "H0"}, "27": {"label": "*2", "atom_type": "H0"}}

>  <type>  (4) 
ts

$$$$
