
     RDKit          3D

 10  9  0  0  0  0  0  0  0  0999 V2000
   -1.1508    0.0666    0.2839 C   0  0  0  0  0  0  0  0  0  0  0  0
    0.1022   -0.3749   -0.4771 C   0  0  0  0  0  0  0  0  0  0  0  0
    1.3428    0.1620    0.1542 C   0  0  0  0  0  0  0  0  0  0  0  0
    2.5613   -0.6971    0.7526 S   0  0  0  0  0  0  0  0  0  0  0  0
   -1.2137    1.1546    0.3481 H   0  0  0  0  0  0  0  0  0  0  0  0
   -2.0472   -0.2935   -0.2212 H   0  0  0  0  0  0  0  0  0  0  0  0
   -1.1467   -0.3334    1.2987 H   0  0  0  0  0  0  0  0  0  0  0  0
    0.1602   -1.4616   -0.5369 H   0  0  0  0  0  0  0  0  0  0  0  0
    0.0536    0.0174   -1.4997 H   0  0  0  0  0  0  0  0  0  0  0  0
    1.3824    1.2528    0.2110 H   0  0  0  0  0  0  0  0  0  0  0  0
  1  2  1  0
  1  5  1  0
  1  6  1  0
  1  7  1  0
  2  3  1  0
  2  8  1  0
  2  9  1  0
  3  4  2  0
  3 10  1  0
M  END
>  <reaction>  (1) 
rxn_2025

>  <mol_properties>  (1) 
{"1": {"label": "donator", "atom_type": "Cs"}, "7": {"label": "d_hydrogen", "atom_type": "H0"}}

>  <type>  (1) 
r1h

$$$$

     RDKit          3D

  9  8  0  0  0  0  0  0  0  0999 V2000
    2.3991   -0.1292   -0.2384 S   0  0  0  0  0  0  0  0  0  0  0  0
    0.7460    0.2807    0.0931 C   0  0  0  0  0  3  0  0  0  0  0  0
   -0.3131   -0.5719   -0.2043 C   0  0  0  0  0  0  0  0  0  0  0  0
   -0.2286   -1.8095   -0.7775 C   0  0  0  0  0  0  0  0  0  0  0  0
    2.9373    1.0009    0.2312 H   0  0  0  0  0  0  0  0  0  0  0  0
    0.5618    1.2421    0.5487 H   0  0  0  0  0  0  0  0  0  0  0  0
   -1.2978   -0.1954    0.0537 H   0  0  0  0  0  0  0  0  0  0  0  0
    0.7207   -2.2479   -1.0607 H   0  0  0  0  0  0  0  0  0  0  0  0
   -1.1177   -2.3938   -0.9670 H   0  0  0  0  0  0  0  0  0  0  0  0
  1  2  1  0
  1  5  1  0
  2  3  1  0
  2  6  1  0
  3  4  2  3
  3  7  1  0
  4  8  1  0
  4  9  1  0
M  RAD  1   2   2
M  END
>  <reaction>  (2) 
rxn_2025

>  <mol_properties>  (2) 
{"1": {"label": "acceptor", "atom_type": "Cs"}}

>  <type>  (2) 
r2

$$$$

     RDKit          3D

 10  9  0  0  0  0  0  0  0  0999 V2000
    2.2097   -0.5315    0.2575 S   0  0  0  0  0  0  0  0  0  0  0  0
    0.5401   -0.7188   -0.4494 C   0  0  0  0  0  0  0  0  0  0  0  0
   -0.5263   -0.1678    0.4365 C   0  0  0  0  0  0  0  0  0  0  0  0
   -1.3394    0.8185    0.0912 C   0  0  0  0  0  0  0  0  0  0  0  0
    2.1701    0.8016    0.3806 H   0  0  0  0  0  0  0  0  0  0  0  0
    0.4238   -1.7978   -0.5701 H   0  0  0  0  0  0  0  0  0  0  0  0
    0.5053   -0.2663   -1.4400 H   0  0  0  0  0  0  0  0  0  0  0  0
   -0.6005   -0.6141    1.4236 H   0  0  0  0  0  0  0  0  0  0  0  0
   -2.0960    1.1907    0.7700 H   0  0  0  0  0  0  0  0  0  0  0  0
   -1.2784    1.2877   -0.8850 H   0  0  0  0  0  0  0  0  0  0  0  0
  1  2  1  0
  1  5  1  0
  2  3  1  0
  2  6  1  0
  2  7  1  0
  3  4  2  3
  3  8  1  0
  4  9  1  0
  4 10  1  0
M  END
>  <reaction>  (3) 
rxn_2025

>  <mol_properties>  (3) 
{"1": {"label": "acceptor", "atom_type": "Cs"}, "9": {"label": "a_hydrogen", "atom_type": "H0"}}

>  <type>  (3) 
r2h

$$$$

     RDKit          3D

 19 17  0  0  0  0  0  0  0  0999 V2000
   -0.5406   -0.9267    1.8844 S   0  0  0  0  0  0  0  0  0  0  0  0
   -0.9313   -0.7876    0.1694 C   0  0  0  0  0  3  0  0  0  0  0  0
   -1.2639   -2.0276   -0.5122 C   0  0  0  0  0  0  0  0  0  0  0  0
   -2.0442   -2.0930   -1.5927 C   0  0  0  0  0  0  0  0  0  0  0  0
   -0.2050    0.3588    2.0663 H   0  0  0  0  0  0  0  0  0  0  0  0
   -1.5460    0.0721   -0.0889 H   0  0  0  0  0  0  0  0  0  0  0  0
   -0.8017   -2.9341   -0.1319 H   0  0  0  0  0  0  0  0  0  0  0  0
   -2.5242   -1.2098   -1.9986 H   0  0  0  0  0  0  0  0  0  0  0  0
   -2.2284   -3.0328   -2.0956 H   0  0  0  0  0  0  0  0  0  0  0  0
    0.5342    0.9245   -2.1623 C   0  0  0  0  0  0  0  0  0  0  0  0
    1.2431    0.2261   -1.0325 C   0  0  0  0  0  0  0  0  0  0  0  0
    1.8550    0.9658    0.0332 C   0  0  0  0  0  0  0  0  0  0  0  0
    1.5061    2.5066    0.4723 S   0  0  0  0  0  0  0  0  0  0  0  0
    1.2558    1.3880   -2.8387 H   0  0  0  0  0  0  0  0  0  0  0  0
   -0.0609    0.2126   -2.7364 H   0  0  0  0  0  0  0  0  0  0  0  0
   -0.1143    1.7153   -1.7860 H   0  0  0  0  0  0  0  0  0  0  0  0
    0.2526   -0.3580   -0.3931 H   0  0  0  0  0  0  0  0  0  0  0  0
    1.7977   -0.6666   -1.3224 H   0  0  0  0  0  0  0  0  0  0  0  0
    2.5692    0.4034    0.6334 H   0  0  0  0  0  0  0  0  0  0  0  0
  1  2  1  0
  1  5  1  0
  2  3  1  0
  2  6  1  0
  3  4  2  3
  3  7  1  0
  4  8  1  0
  4  9  1  0
 10 11  1  0
 10 14  1  0
 10 15  1  0
 10 16  1  0
 11 12  1  0
 11 17  1  0
 11 18  1  0
 12 13  2  0
 12 19  1  0
M  RAD  1   2   2
M  END
>  <reaction>  (4) 
rxn_2025

>  <mol_properties>  (4) 
{"0": {"label": "*4", "atom_type": "S2s"}, "1": {"label": "*3", "atom_type": "Cs"}, "10": {"label": "*1", "atom_type": "Cs"}, "11": {"label": "*0", "atom_type": "CS"}, "16": {"label": "*2", "atom_type": "H0"}}

>  <type>  (4) 
ts

$$$$
