
     RDKit          3D

 16 15  0  0  0  0  0  0  0  0999 V2000
    1.7961   -0.3807    1.6176 C   0  0  0  0  0  0  0  0  0  0  0  0
    0.8562   -0.8708    0.8256 C   0  0  0  0  0  0  0  0  0  0  0  0
    0.0895   -0.0826   -0.2048 C   0  0  0  0  0  0  0  0  0  0  0  0
   -1.4061   -0.1111    0.0982 C   0  0  0  0  0  0  0  0  0  0  0  0
    0.4476   -0.5902   -1.5797 C   0  0  0  0  0  0  0  0  0  0  0  0
   -0.3793   -1.1113   -2.4728 C   0  0  0  0  0  0  0  0  0  0  0  0
    2.3110   -1.0032    2.3386 H   0  0  0  0  0  0  0  0  0  0  0  0
    2.0846    0.6643    1.5737 H   0  0  0  0  0  0  0  0  0  0  0  0
    0.5921   -1.9241    0.8925 H   0  0  0  0  0  0  0  0  0  0  0  0
    0.4358    0.9557   -0.1462 H   0  0  0  0  0  0  0  0  0  0  0  0
   -1.5968    0.3080    1.0865 H   0  0  0  0  0  0  0  0  0  0  0  0
   -1.9674    0.4693   -0.6359 H   0  0  0  0  0  0  0  0  0  0  0  0
   -1.7902   -1.1338    0.0883 H   0  0  0  0  0  0  0  0  0  0  0  0
    1.5049   -0.5197   -1.8214 H   0  0  0  0  0  0  0  0  0  0  0  0
   -1.4421   -1.2131   -2.2889 H   0  0  0  0  0  0  0  0  0  0  0  0
   -0.0162   -1.4558   -3.4328 H   0  0  0  0  0  0  0  0  0  0  0  0
  1  2  2  3
  1  7  1  0
  1  8  1  0
  2  3  1  0
  2  9  1  0
  3  4  1  0
  3  5  1  0
  3 10  1  0
  4 11  1  0
  4 12  1  0
  4 13  1  0
  5  6  2  3
  5 14  1  0
  6 15  1  0
  6 16  1  0
M  END
>  <reaction>  (1) 
rxn_1200

>  <mol_properties>  (1) 
{"2": {"label": "donator", "atom_type": "Cs"}, "9": {"label": "d_hydrogen", "atom_type": "H0"}}

>  <type>  (1) 
r1h

$$$$

     RDKit          3D

  9  8  0  0  0  0  0  0  0  0999 V2000
    2.3991   -0.1292   -0.2384 S   0  0  0  0  0  0  0  0  0  0  0  0
    0.7460    0.2807    0.0931 C   0  0  0  0  0  3  0  0  0  0  0  0
   -0.3131   -0.5719   -0.2043 C   0  0  0  0  0  0  0  0  0  0  0  0
   -0.2286   -1.8095   -0.7775 C   0  0  0  0  0  0  0  0  0  0  0  0
    2.9373    1.0009    0.2312 H   0  0  0  0  0  0  0  0  0  0  0  0
    0.5618    1.2421    0.5487 H   0  0  0  0  0  0  0  0  0  0  0  0
   -1.2978   -0.1954    0.0537 H   0  0  0  0  0  0  0  0  0  0  0  0
    0.7207   -2.2479   -1.0607 H   0  0  0  0  0  0  0  0  0  0  0  0
   -1.1177   -2.3938   -0.9670 H   0  0  0  0  0  0  0  0  0  0  0  0
  1  2  1  0
  1  5  1  0
  2  3  1  0
  2  6  1  0
  3  4  2  3
  3  7  1  0
  4  8  1  0
  4  9  1  0
M  RAD  1   2   2
M  END
>  <reaction>  (2) 
rxn_1200

>  <mol_properties>  (2) 
{"1": {"label": "acceptor", "atom_type": "Cs"}}

>  <type>  (2) 
r2

$$$$

     RDKit          3D

 10  9  0  0  0  0  0  0  0  0999 V2000
    2.2097   -0.5315    0.2575 S   0  0  0  0  0  0  0  0  0  0  0  0
    0.5401   -0.7188   -0.4494 C   0  0  0  0  0  0  0  0  0  0  0  0
   -0.5263   -0.1678    0.4365 C   0  0  0  0  0  0  0  0  0  0  0  0
   -1.3394    0.8185    0.0912 C   0  0  0  0  0  0  0  0  0  0  0  0
    2.1701    0.8016    0.3806 H   0  0  0  0  0  0  0  0  0  0  0  0
    0.4238   -1.7978   -0.5701 H   0  0  0  0  0  0  0  0  0  0  0  0
    0.5053   -0.2663   -1.4400 H   0  0  0  0  0  0  0  0  0  0  0  0
   -0.6005   -0.6141    1.4236 H   0  0  0  0  0  0  0  0  0  0  0  0
   -2.0960    1.1907    0.7700 H   0  0  0  0  0  0  0  0  0  0  0  0
   -1.2784    1.2877   -0.8850 H   0  0  0  0  0  0  0  0  0  0  0  0
  1  2  1  0
  1  5  1  0
  2  3  1  0
  2  6  1  0
  2  7  1  0
  3  4  2  3
  3  8  1  0
  4  9  1  0
  4 10  1  0
M  END
>  <reaction>  (3) 
rxn_1200

>  <mol_properties>  (3) 
{"1": {"label": "acceptor", "atom_type": "Cs"}, "9": {"label": "a_hydrogen", "atom_type": "H0"}}

>  <type>  (3) 
r2h

$$$$

     RDKit          3D

 25 23  0  0  0  0  0  0  0  0999 V2000
    0.9441    1.4205   -1.9035 S   0  0  0  0  0  0  0  0  0  0  0  0
   -0.4123    1.3536   -0.7602 C   0  0  0  0  0  3  0  0  0  0  0  0
   -0.3166    2.2402    0.3801 C   0  0  0  0  0  0  0  0  0  0  0  0
   -1.3685    2.6917    1.0731 C   0  0  0  0  0  0  0  0  0  0  0  0
    0.7681    0.2001   -2.4315 H   0  0  0  0  0  0  0  0  0  0  0  0
   -1.3958    1.2917   -1.2225 H   0  0  0  0  0  0  0  0  0  0  0  0
    0.6862    2.4965    0.7106 H   0  0  0  0  0  0  0  0  0  0  0  0
   -2.3840    2.4539    0.7791 H   0  0  0  0  0  0  0  0  0  0  0  0
   -1.2375    3.3056    1.9540 H   0  0  0  0  0  0  0  0  0  0  0  0
    1.0573   -2.5156   -1.2763 C   0  0  0  0  0  0  0  0  0  0  0  0
   -0.0849   -2.0197   -0.8006 C   0  0  0  0  0  0  0  0  0  0  0  0
   -0.2458   -1.1148    0.3497 C   0  0  0  0  0  0  0  0  0  0  0  0
    0.9706   -0.8604    1.2055 C   0  0  0  0  0  0  0  0  0  0  0  0
   -1.5441   -1.2377    1.0340 C   0  0  0  0  0  0  0  0  0  0  0  0
   -1.8043   -0.9622    2.3105 C   0  0  0  0  0  0  0  0  0  0  0  0
    1.0608   -3.1606   -2.1453 H   0  0  0  0  0  0  0  0  0  0  0  0
    2.0150   -2.3105   -0.8148 H   0  0  0  0  0  0  0  0  0  0  0  0
   -1.0081   -2.2817   -1.3127 H   0  0  0  0  0  0  0  0  0  0  0  0
   -0.3656    0.0587   -0.2273 H   0  0  0  0  0  0  0  0  0  0  0  0
    1.8218   -0.5676    0.5895 H   0  0  0  0  0  0  0  0  0  0  0  0
    0.7840   -0.0481    1.9085 H   0  0  0  0  0  0  0  0  0  0  0  0
    1.2456   -1.7513    1.7761 H   0  0  0  0  0  0  0  0  0  0  0  0
   -2.3680   -1.5624    0.4028 H   0  0  0  0  0  0  0  0  0  0  0  0
   -1.0374   -0.6403    3.0033 H   0  0  0  0  0  0  0  0  0  0  0  0
   -2.8074   -1.0613    2.7041 H   0  0  0  0  0  0  0  0  0  0  0  0
  1  2  1  0
  1  5  1  0
  2  3  1  0
  2  6  1  0
  3  4  2  3
  3  7  1  0
  4  8  1  0
  4  9  1  0
 10 11  2  3
 10 16  1  0
 10 17  1  0
 11 12  1  0
 11 18  1  0
 12 13  1  0
 12 14  1  0
 12 19  1  0
 13 20  1  0
 13 21  1  0
 13 22  1  0
 14 15  2  3
 14 23  1  0
 15 24  1  0
 15 25  1  0
M  RAD  1   2   2
M  END
>  <reaction>  (4) 
rxn_1200

>  <mol_properties>  (4) 
{"0": {"label": "*4", "atom_type": "S2s"}, "1": {"label": "*3", "atom_type": "Cs"}, "10": {"label": "*0", "atom_type": "Cd"}, "11": {"label": "*1", "atom_type": "Cs"}, "18": {"label": "*2", "atom_type": "H0"}}

>  <type>  (4) 
ts

$$$$
