
     RDKit          3D

 15 15  0  0  0  0  0  0  0  0999 V2000
    2.2031   -0.2111   -0.1693 C   0  0  0  0  0  0  0  0  0  0  0  0
    0.7140   -0.0314   -0.0623 C   0  0  0  0  0  0  0  0  0  0  0  0
   -0.0114    0.5491   -1.0982 C   0  0  0  0  0  0  0  0  0  0  0  0
   -1.3882    0.6886   -1.0150 C   0  0  0  0  0  0  0  0  0  0  0  0
   -2.0661    0.2493    0.1118 C   0  0  0  0  0  0  0  0  0  0  0  0
   -1.3551   -0.3278    1.1528 C   0  0  0  0  0  0  0  0  0  0  0  0
    0.0216   -0.4648    1.0642 C   0  0  0  0  0  0  0  0  0  0  0  0
    2.6776   -0.1836    0.8122 H   0  0  0  0  0  0  0  0  0  0  0  0
    2.4446   -1.1749   -0.6249 H   0  0  0  0  0  0  0  0  0  0  0  0
    2.6532    0.5664   -0.7875 H   0  0  0  0  0  0  0  0  0  0  0  0
    0.5104    0.8989   -1.9819 H   0  0  0  0  0  0  0  0  0  0  0  0
   -1.9328    1.1452   -1.8322 H   0  0  0  0  0  0  0  0  0  0  0  0
   -3.1409    0.3597    0.1800 H   0  0  0  0  0  0  0  0  0  0  0  0
   -1.8736   -0.6702    2.0398 H   0  0  0  0  0  0  0  0  0  0  0  0
    0.5695   -0.9141    1.8849 H   0  0  0  0  0  0  0  0  0  0  0  0
  1  2  1  0
  1  8  1  0
  1  9  1  0
  1 10  1  0
  2  3  2  0
  2  7  1  0
  3  4  1  0
  3 11  1  0
  4  5  2  0
  4 12  1  0
  5  6  1  0
  5 13  1  0
  6  7  2  0
  6 14  1  0
  7 15  1  0
M  END
>  <reaction>  (1) 
rxn_1438

>  <mol_properties>  (1) 
{"0": {"label": "donator", "atom_type": "Cs"}, "7": {"label": "d_hydrogen", "atom_type": "H0"}}

>  <type>  (1) 
r1h

$$$$

     RDKit          3D

  8  7  0  0  0  0  0  0  0  0999 V2000
   -1.2262   -0.1032    0.0429 C   0  0  0  0  0  0  0  0  0  0  0  0
    0.0344    0.4295    0.2005 C   0  0  0  0  0  0  0  0  0  0  0  0
    1.2024   -0.1933   -0.1813 C   0  0  0  0  0  3  0  0  0  0  0  0
   -2.1090    0.4329    0.3624 H   0  0  0  0  0  0  0  0  0  0  0  0
   -1.3659   -1.0784   -0.4078 H   0  0  0  0  0  0  0  0  0  0  0  0
    0.1132    1.4113    0.6589 H   0  0  0  0  0  0  0  0  0  0  0  0
    2.1658    0.2743   -0.0323 H   0  0  0  0  0  0  0  0  0  0  0  0
    1.1853   -1.1731   -0.6434 H   0  0  0  0  0  0  0  0  0  0  0  0
  1  2  2  3
  1  4  1  0
  1  5  1  0
  2  3  1  0
  2  6  1  0
  3  7  1  0
  3  8  1  0
M  RAD  1   3   2
M  END
>  <reaction>  (2) 
rxn_1438

>  <mol_properties>  (2) 
{"2": {"label": "acceptor", "atom_type": "Cs"}}

>  <type>  (2) 
r2

$$$$

     RDKit          3D

  9  8  0  0  0  0  0  0  0  0999 V2000
    1.1303   -0.2933   -0.7510 C   0  0  0  0  0  0  0  0  0  0  0  0
    0.2866    0.4560   -0.0588 C   0  0  0  0  0  0  0  0  0  0  0  0
   -0.9719   -0.0331    0.5823 C   0  0  0  0  0  0  0  0  0  0  0  0
    2.0274    0.1230   -1.1916 H   0  0  0  0  0  0  0  0  0  0  0  0
    0.9532   -1.3530   -0.9023 H   0  0  0  0  0  0  0  0  0  0  0  0
    0.5065    1.5132    0.0659 H   0  0  0  0  0  0  0  0  0  0  0  0
   -0.9526    0.1426    1.6610 H   0  0  0  0  0  0  0  0  0  0  0  0
   -1.1182   -1.1002    0.4106 H   0  0  0  0  0  0  0  0  0  0  0  0
   -1.8412    0.5010    0.1901 H   0  0  0  0  0  0  0  0  0  0  0  0
  1  2  2  3
  1  4  1  0
  1  5  1  0
  2  3  1  0
  2  6  1  0
  3  7  1  0
  3  8  1  0
  3  9  1  0
M  END
>  <reaction>  (3) 
rxn_1438

>  <mol_properties>  (3) 
{"2": {"label": "acceptor", "atom_type": "Cs"}, "8": {"label": "a_hydrogen", "atom_type": "H0"}}

>  <type>  (3) 
r2h

$$$$

     RDKit          3D

 23 22  0  0  0  0  0  0  0  0999 V2000
   -2.0977   -1.4984    0.5144 C   0  0  0  0  0  0  0  0  0  0  0  0
   -1.1687   -1.8452    1.4116 C   0  0  0  0  0  0  0  0  0  0  0  0
   -0.8283   -1.0734    2.5922 C   0  0  0  0  0  0  0  0  0  0  0  0
   -2.2686   -2.0848   -0.3784 H   0  0  0  0  0  0  0  0  0  0  0  0
   -2.7062   -0.6110    0.6481 H   0  0  0  0  0  0  0  0  0  0  0  0
   -0.5745   -2.7347    1.2216 H   0  0  0  0  0  0  0  0  0  0  0  0
   -0.3803   -1.6232    3.4159 H   0  0  0  0  0  0  0  0  0  0  0  0
   -1.5806   -0.3582    2.9188 H   0  0  0  0  0  0  0  0  0  0  0  0
    1.0971    0.6164    1.7326 C   0  0  0  0  0  0  0  0  0  0  0  0
    0.8364    0.6386    0.3009 C   0  0  0  0  0  0  0  0  0  0  0  0
   -0.0839    1.5381   -0.2498 C   0  0  0  0  0  3  0  0  0  0  0  0
   -0.4026    1.4970   -1.5946 C   0  0  0  0  0  0  0  0  0  0  0  0
    0.1886    0.5545   -2.4256 C   0  0  0  0  0  0  0  0  0  0  0  0
    1.1067   -0.3422   -1.8971 C   0  0  0  0  0  0  0  0  0  0  0  0
    1.4245   -0.3026   -0.5514 C   0  0  0  0  0  0  0  0  0  0  0  0
    0.1612   -0.2555    2.2227 H   0  0  0  0  0  0  0  0  0  0  0  0
    2.0243    0.1442    2.0465 H   0  0  0  0  0  0  0  0  0  0  0  0
    0.8721    1.5284    2.2787 H   0  0  0  0  0  0  0  0  0  0  0  0
   -0.5538    2.2731    0.3938 H   0  0  0  0  0  0  0  0  0  0  0  0
   -1.1167    2.2034   -1.9998 H   0  0  0  0  0  0  0  0  0  0  0  0
   -0.0611    0.5227   -3.4784 H   0  0  0  0  0  0  0  0  0  0  0  0
    1.5754   -1.0781   -2.5387 H   0  0  0  0  0  0  0  0  0  0  0  0
    2.1375   -1.0105   -0.1446 H   0  0  0  0  0  0  0  0  0  0  0  0
  1  2  2  3
  1  4  1  0
  1  5  1  0
  2  3  1  0
  2  6  1  0
  3  7  1  0
  3  8  1  0
  3 16  1  0
  9 10  2  3
  9 17  1  0
  9 18  1  0
 10 11  1  0
 10 15  1  0
 11 12  1  0
 11 19  1  0
 12 13  2  0
 12 20  1  0
 13 14  1  0
 13 21  1  0
 14 15  2  0
 14 22  1  0
 15 23  1  0
M  RAD  1  11   2
M  END
>  <reaction>  (4) 
rxn_1438

>  <mol_properties>  (4) 
{"1": {"label": "*0", "atom_type": "Cd"}, "2": {"label": "*1", "atom_type": "Cs"}, "8": {"label": "*3", "atom_type": "Cd"}, "9": {"label": "*4", "atom_type": "Cd"}, "15": {"label": "*2", "atom_type": "H0"}}

>  <type>  (4) 
ts

$$$$
