
     RDKit          3D

 13 12  0  0  0  0  0  0  0  0999 V2000
    2.2975   -0.6134    0.7685 C   0  0  0  0  0  0  0  0  0  0  0  0
    1.1676   -0.5248    0.3802 C   0  0  0  0  0  0  0  0  0  0  0  0
   -0.2109   -0.3926   -0.0948 C   0  0  0  0  0  0  0  0  0  0  0  0
   -0.2501    0.2584   -1.4808 C   0  0  0  0  0  0  0  0  0  0  0  0
   -1.0633    0.3831    0.9141 C   0  0  0  0  0  0  0  0  0  0  0  0
    3.2999   -0.6974    1.1133 H   0  0  0  0  0  0  0  0  0  0  0  0
   -0.6209   -1.4038   -0.1814 H   0  0  0  0  0  0  0  0  0  0  0  0
    0.3402   -0.3102   -2.1992 H   0  0  0  0  0  0  0  0  0  0  0  0
    0.1511    1.2724   -1.4369 H   0  0  0  0  0  0  0  0  0  0  0  0
   -1.2791    0.3109   -1.8407 H   0  0  0  0  0  0  0  0  0  0  0  0
   -0.6861    1.4008    1.0287 H   0  0  0  0  0  0  0  0  0  0  0  0
   -1.0492   -0.0971    1.8924 H   0  0  0  0  0  0  0  0  0  0  0  0
   -2.0971    0.4363    0.5680 H   0  0  0  0  0  0  0  0  0  0  0  0
  1  2  3  0
  1  6  1  0
  2  3  1  0
  3  4  1  0
  3  5  1  0
  3  7  1  0
  4  8  1  0
  4  9  1  0
  4 10  1  0
  5 11  1  0
  5 12  1  0
  5 13  1  0
M  END
>  <reaction>  (1) 
rxn_1337

>  <mol_properties>  (1) 
{"2": {"label": "donator", "atom_type": "Cs"}, "6": {"label": "d_hydrogen", "atom_type": "H0"}}

>  <type>  (1) 
r1h

$$$$

     RDKit          3D

 10  9  0  0  0  0  0  0  0  0999 V2000
   -1.2648    0.1959    0.8197 C   0  0  0  0  0  0  0  0  0  0  0  0
   -0.2805    0.0995   -0.3030 C   0  0  0  0  0  3  0  0  0  0  0  0
   -0.0444    1.1347   -1.1797 C   0  0  0  0  0  0  0  0  0  0  0  0
    0.1640    2.0467   -1.9525 C   0  0  0  0  0  0  0  0  0  0  0  0
    0.5686   -1.4168   -0.4488 S   0  0  0  0  0  0  0  0  0  0  0  0
   -2.0466   -0.5638    0.7258 H   0  0  0  0  0  0  0  0  0  0  0  0
   -0.7765    0.0454    1.7871 H   0  0  0  0  0  0  0  0  0  0  0  0
   -1.7371    1.1762    0.8222 H   0  0  0  0  0  0  0  0  0  0  0  0
    0.3433    2.8484   -2.6273 H   0  0  0  0  0  0  0  0  0  0  0  0
    1.3075   -1.0953   -1.5176 H   0  0  0  0  0  0  0  0  0  0  0  0
  1  2  1  0
  1  6  1  0
  1  7  1  0
  1  8  1  0
  2  3  1  0
  2  5  1  0
  3  4  3  0
  4  9  1  0
  5 10  1  0
M  RAD  1   2   2
M  END
>  <reaction>  (2) 
rxn_1337

>  <mol_properties>  (2) 
{"1": {"label": "acceptor", "atom_type": "Cs"}}

>  <type>  (2) 
r2

$$$$

     RDKit          3D

 11 10  0  0  0  0  0  0  0  0999 V2000
   -1.2582   -0.5130    0.2160 C   0  0  0  0  0  0  0  0  0  0  0  0
   -0.1109    0.0509   -0.6210 C   0  0  0  0  0  0  0  0  0  0  0  0
    1.1862   -0.2025   -0.0072 C   0  0  0  0  0  0  0  0  0  0  0  0
    2.2351   -0.4206    0.5274 C   0  0  0  0  0  0  0  0  0  0  0  0
   -0.3298    1.8272   -1.0120 S   0  0  0  0  0  0  0  0  0  0  0  0
   -1.2875   -0.0327    1.1945 H   0  0  0  0  0  0  0  0  0  0  0  0
   -2.2088   -0.3391   -0.2866 H   0  0  0  0  0  0  0  0  0  0  0  0
   -1.1220   -1.5854    0.3655 H   0  0  0  0  0  0  0  0  0  0  0  0
   -0.1222   -0.4181   -1.6078 H   0  0  0  0  0  0  0  0  0  0  0  0
    3.1729   -0.6098    0.9920 H   0  0  0  0  0  0  0  0  0  0  0  0
   -0.1942    2.2663    0.2466 H   0  0  0  0  0  0  0  0  0  0  0  0
  1  2  1  0
  1  6  1  0
  1  7  1  0
  1  8  1  0
  2  3  1  0
  2  5  1  0
  2  9  1  0
  3  4  3  0
  4 10  1  0
  5 11  1  0
M  END
>  <reaction>  (3) 
rxn_1337

>  <mol_properties>  (3) 
{"0": {"label": "a_hydrogen", "atom_type": "H0"}, "2": {"label": "acceptor", "atom_type": "Cs"}}

>  <type>  (3) 
r2h

$$$$

     RDKit          3D

 23 21  0  0  0  0  0  0  0  0999 V2000
   -0.4821    1.1090   -3.1402 C   0  0  0  0  0  0  0  0  0  0  0  0
   -0.2310    1.2884   -1.9768 C   0  0  0  0  0  0  0  0  0  0  0  0
    0.0711    1.4401   -0.5913 C   0  0  0  0  0  3  0  0  0  0  0  0
   -1.0549    1.9687    0.2704 C   0  0  0  0  0  0  0  0  0  0  0  0
    1.4422    1.9991   -0.2764 C   0  0  0  0  0  0  0  0  0  0  0  0
   -0.7100    0.9636   -4.1685 H   0  0  0  0  0  0  0  0  0  0  0  0
    0.1619    0.1644   -0.1498 H   0  0  0  0  0  0  0  0  0  0  0  0
   -1.9915    1.4586    0.0456 H   0  0  0  0  0  0  0  0  0  0  0  0
   -1.2017    3.0400    0.1032 H   0  0  0  0  0  0  0  0  0  0  0  0
   -0.8173    1.8211    1.3264 H   0  0  0  0  0  0  0  0  0  0  0  0
    1.4728    3.0764   -0.4656 H   0  0  0  0  0  0  0  0  0  0  0  0
    2.2114    1.5289   -0.8890 H   0  0  0  0  0  0  0  0  0  0  0  0
    1.6823    1.8319    0.7754 H   0  0  0  0  0  0  0  0  0  0  0  0
    1.2675   -1.6815   -0.6826 C   0  0  0  0  0  0  0  0  0  0  0  0
    0.2917   -1.0834    0.3100 C   0  0  0  0  0  0  0  0  0  0  0  0
    0.7594   -0.9288    1.6491 C   0  0  0  0  0  0  0  0  0  0  0  0
    1.1496   -0.7280    2.7685 C   0  0  0  0  0  0  0  0  0  0  0  0
   -1.3424   -1.8099    0.1469 S   0  0  0  0  0  0  0  0  0  0  0  0
    1.4459   -2.7389   -0.4759 H   0  0  0  0  0  0  0  0  0  0  0  0
    0.8785   -1.5792   -1.6968 H   0  0  0  0  0  0  0  0  0  0  0  0
    2.2194   -1.1539   -0.6232 H   0  0  0  0  0  0  0  0  0  0  0  0
    1.4988   -0.5733    3.7609 H   0  0  0  0  0  0  0  0  0  0  0  0
   -1.8818   -1.2208    1.2212 H   0  0  0  0  0  0  0  0  0  0  0  0
  1  2  3  0
  1  6  1  0
  2  3  1  0
  3  4  1  0
  3  5  1  0
  4  8  1  0
  4  9  1  0
  4 10  1  0
  5 11  1  0
  5 12  1  0
  5 13  1  0
  7 15  1  0
 14 15  1  0
 14 19  1  0
 14 20  1  0
 14 21  1  0
 15 16  1  0
 15 18  1  0
 16 17  3  0
 17 22  1  0
 18 23  1  0
M  RAD  1   3   2
M  END
>  <reaction>  (4) 
rxn_1337

>  <mol_properties>  (4) 
{"1": {"label": "*4", "atom_type": "Ct"}, "2": {"label": "*3", "atom_type": "Cs"}, "6": {"label": "*2", "atom_type": "H0"}, "14": {"label": "*1", "atom_type": "Cs"}, "17": {"label": "*0", "atom_type": "S2s"}}

>  <type>  (4) 
ts

$$$$
