
     RDKit          3D

 15 14  0  0  0  0  0  0  0  0999 V2000
    1.2256    1.5264    0.0439 C   0  0  0  0  0  0  0  0  0  0  0  0
    0.6563    0.3367   -0.1047 C   0  0  0  0  0  0  0  0  0  0  0  0
    1.3138   -0.9209    0.3875 C   0  0  0  0  0  0  0  0  0  0  0  0
   -0.6798    0.1250   -0.7678 C   0  0  0  0  0  0  0  0  0  0  0  0
   -1.3887    1.3662   -1.2845 C   0  0  0  0  0  0  0  0  0  0  0  0
    0.7600    2.4381   -0.3072 H   0  0  0  0  0  0  0  0  0  0  0  0
    2.1894    1.6275    0.5285 H   0  0  0  0  0  0  0  0  0  0  0  0
    0.6755   -1.4317    1.1141 H   0  0  0  0  0  0  0  0  0  0  0  0
    2.2751   -0.7173    0.8583 H   0  0  0  0  0  0  0  0  0  0  0  0
    1.4755   -1.6206   -0.4374 H   0  0  0  0  0  0  0  0  0  0  0  0
   -0.5366   -0.5842   -1.5914 H   0  0  0  0  0  0  0  0  0  0  0  0
   -1.3287   -0.3970   -0.0551 H   0  0  0  0  0  0  0  0  0  0  0  0
   -0.7898    1.8817   -2.0375 H   0  0  0  0  0  0  0  0  0  0  0  0
   -1.5941    2.0717   -0.4774 H   0  0  0  0  0  0  0  0  0  0  0  0
   -2.3411    1.0970   -1.7428 H   0  0  0  0  0  0  0  0  0  0  0  0
  1  2  2  3
  1  6  1  0
  1  7  1  0
  2  3  1  0
  2  4  1  0
  3  8  1  0
  3  9  1  0
  3 10  1  0
  4  5  1  0
  4 11  1  0
  4 12  1  0
  5 13  1  0
  5 14  1  0
  5 15  1  0
M  END
>  <reaction>  (1) 
rxn_103

>  <mol_properties>  (1) 
{"3": {"label": "donator", "atom_type": "Cs"}, "10": {"label": "d_hydrogen", "atom_type": "H0"}}

>  <type>  (1) 
r1h

$$$$

     RDKit          3D

  3  2  0  0  0  0  0  0  0  0999 V2000
    0.0002    0.4233    0.0000 N   0  0  0  0  0  2  0  0  0  0  0  0
   -0.8051   -0.2112    0.0000 H   0  0  0  0  0  0  0  0  0  0  0  0
    0.8049   -0.2121    0.0000 H   0  0  0  0  0  0  0  0  0  0  0  0
  1  2  1  0
  1  3  1  0
M  RAD  1   1   2
M  END
>  <reaction>  (2) 
rxn_103

>  <mol_properties>  (2) 
{"0": {"label": "acceptor", "atom_type": "N3s"}}

>  <type>  (2) 
r2

$$$$

     RDKit          3D

  4  3  0  0  0  0  0  0  0  0999 V2000
    0.0006   -0.0009    0.2762 N   0  0  0  0  0  0  0  0  0  0  0  0
   -0.4188    0.8439   -0.0883 H   0  0  0  0  0  0  0  0  0  0  0  0
   -0.5215   -0.7840   -0.0936 H   0  0  0  0  0  0  0  0  0  0  0  0
    0.9397   -0.0590   -0.0943 H   0  0  0  0  0  0  0  0  0  0  0  0
  1  2  1  0
  1  3  1  0
  1  4  1  0
M  END
>  <reaction>  (3) 
rxn_103

>  <mol_properties>  (3) 
{"0": {"label": "acceptor", "atom_type": "N3s"}, "3": {"label": "a_hydrogen", "atom_type": "H0"}}

>  <type>  (3) 
r2h

$$$$

     RDKit          3D

 18 16  0  0  0  0  0  0  0  0999 V2000
    1.5663   -0.3943    1.9271 N   0  0  0  0  0  2  0  0  0  0  0  0
    1.6915   -1.3971    2.0839 H   0  0  0  0  0  0  0  0  0  0  0  0
    2.2139   -0.1816    1.1642 H   0  0  0  0  0  0  0  0  0  0  0  0
   -0.1181    0.7813   -1.7228 C   0  0  0  0  0  0  0  0  0  0  0  0
   -0.4592    0.7040   -0.4369 C   0  0  0  0  0  0  0  0  0  0  0  0
   -0.7913    1.9246    0.3733 C   0  0  0  0  0  0  0  0  0  0  0  0
   -0.4981   -0.5725    0.3170 C   0  0  0  0  0  0  0  0  0  0  0  0
   -0.2969   -1.8695   -0.4287 C   0  0  0  0  0  0  0  0  0  0  0  0
    0.1212   -0.0960   -2.3099 H   0  0  0  0  0  0  0  0  0  0  0  0
   -0.0811    1.7356   -2.2340 H   0  0  0  0  0  0  0  0  0  0  0  0
   -1.8169    1.8694    0.7481 H   0  0  0  0  0  0  0  0  0  0  0  0
   -0.6875    2.8378   -0.2117 H   0  0  0  0  0  0  0  0  0  0  0  0
   -0.1364    1.9892    1.2461 H   0  0  0  0  0  0  0  0  0  0  0  0
    0.4079   -0.4533    1.1475 H   0  0  0  0  0  0  0  0  0  0  0  0
   -1.3607   -0.6069    0.9876 H   0  0  0  0  0  0  0  0  0  0  0  0
    0.6646   -1.8893   -0.9451 H   0  0  0  0  0  0  0  0  0  0  0  0
   -1.0794   -2.0213   -1.1769 H   0  0  0  0  0  0  0  0  0  0  0  0
   -0.3248   -2.7156    0.2590 H   0  0  0  0  0  0  0  0  0  0  0  0
  1  2  1  0
  1  3  1  0
  4  5  2  3
  4  9  1  0
  4 10  1  0
  5  6  1  0
  5  7  1  0
  6 11  1  0
  6 12  1  0
  6 13  1  0
  7  8  1  0
  7 14  1  0
  7 15  1  0
  8 16  1  0
  8 17  1  0
  8 18  1  0
M  RAD  1   1   2
M  END
>  <reaction>  (4) 
rxn_103

>  <mol_properties>  (4) 
{"0": {"label": "*3", "atom_type": "N3s"}, "1": {"label": "*4", "atom_type": "H0"}, "4": {"label": "*0", "atom_type": "Cd"}, "6": {"label": "*1", "atom_type": "Cs"}, "13": {"label": "*2", "atom_type": "H0"}}

>  <type>  (4) 
ts

$$$$
