
     RDKit          3D

 25 26  0  0  0  0  0  0  0  0999 V2000
    2.0298   -1.1515    0.0571 C   0  0  0  0  0  0  0  0  0  0  0  0
    2.2278    0.2445    0.6528 C   0  0  0  0  0  0  0  0  0  0  0  0
    1.2292    1.2625    0.0947 C   0  0  0  0  0  0  0  0  0  0  0  0
   -0.1869    0.7454    0.2762 C   0  0  0  0  0  0  0  0  0  0  0  0
   -1.3415    1.5501   -0.3122 C   0  0  0  0  0  0  0  0  0  0  0  0
   -2.5060    0.5338   -0.4178 C   0  0  0  0  0  0  0  0  0  0  0  0
   -1.8709   -0.8658   -0.2234 C   0  0  0  0  0  0  0  0  0  0  0  0
   -0.3715   -0.6265   -0.3693 C   0  0  0  0  0  0  0  0  0  0  0  0
    0.5898   -1.6500    0.2086 C   0  0  0  0  0  0  0  0  0  0  0  0
    2.2820   -1.1226   -1.0088 H   0  0  0  0  0  0  0  0  0  0  0  0
    2.7243   -1.8549    0.5221 H   0  0  0  0  0  0  0  0  0  0  0  0
    2.1030    0.1885    1.7400 H   0  0  0  0  0  0  0  0  0  0  0  0
    3.2514    0.5819    0.4743 H   0  0  0  0  0  0  0  0  0  0  0  0
    1.3611    2.2304    0.5855 H   0  0  0  0  0  0  0  0  0  0  0  0
    1.4198    1.4194   -0.9737 H   0  0  0  0  0  0  0  0  0  0  0  0
   -0.3675    0.6209    1.3539 H   0  0  0  0  0  0  0  0  0  0  0  0
   -1.5992    2.4249    0.2862 H   0  0  0  0  0  0  0  0  0  0  0  0
   -1.0595    1.9116   -1.3055 H   0  0  0  0  0  0  0  0  0  0  0  0
   -3.2666    0.7244    0.3399 H   0  0  0  0  0  0  0  0  0  0  0  0
   -3.0030    0.6112   -1.3853 H   0  0  0  0  0  0  0  0  0  0  0  0
   -2.2549   -1.6039   -0.9288 H   0  0  0  0  0  0  0  0  0  0  0  0
   -2.0796   -1.2429    0.7821 H   0  0  0  0  0  0  0  0  0  0  0  0
   -0.1432   -0.5121   -1.4391 H   0  0  0  0  0  0  0  0  0  0  0  0
    0.4720   -2.6209   -0.2799 H   0  0  0  0  0  0  0  0  0  0  0  0
    0.3601   -1.7986    1.2704 H   0  0  0  0  0  0  0  0  0  0  0  0
  1  2  1  0
  1  9  1  0
  1 10  1  0
  1 11  1  0
  2  3  1  0
  2 12  1  0
  2 13  1  0
  3  4  1  0
  3 14  1  0
  3 15  1  0
  4  5  1  0
  4  8  1  0
  4 16  1  0
  5  6  1  0
  5 17  1  0
  5 18  1  0
  6  7  1  0
  6 19  1  0
  6 20  1  0
  7  8  1  0
  7 21  1  0
  7 22  1  0
  8  9  1  0
  8 23  1  0
  9 24  1  0
  9 25  1  0
M  END
>  <reaction>  (1) 
rxn_578

>  <mol_properties>  (1) 
{"8": {"label": "donator", "atom_type": "Cs"}, "23": {"label": "d_hydrogen", "atom_type": "H0"}}

>  <type>  (1) 
r1h

$$$$

     RDKit          3D

  7  6  0  0  0  0  0  0  0  0999 V2000
   -0.6201    0.0189   -0.0017 C   0  0  0  0  0  0  0  0  0  0  0  0
    0.8589   -0.0553    0.0500 C   0  0  0  0  0  3  0  0  0  0  0  0
   -1.0738   -0.9730   -0.0559 H   0  0  0  0  0  0  0  0  0  0  0  0
   -0.9680    0.5706   -0.8872 H   0  0  0  0  0  0  0  0  0  0  0  0
   -1.0303    0.5369    0.8678 H   0  0  0  0  0  0  0  0  0  0  0  0
    1.3939   -0.8386   -0.4695 H   0  0  0  0  0  0  0  0  0  0  0  0
    1.4394    0.7404    0.4965 H   0  0  0  0  0  0  0  0  0  0  0  0
  1  2  1  0
  1  3  1  0
  1  4  1  0
  1  5  1  0
  2  6  1  0
  2  7  1  0
M  RAD  1   2   2
M  END
>  <reaction>  (2) 
rxn_578

>  <mol_properties>  (2) 
{"1": {"label": "acceptor", "atom_type": "Cs"}}

>  <type>  (2) 
r2

$$$$

     RDKit          3D

  8  7  0  0  0  0  0  0  0  0999 V2000
    0.7610    0.0250    0.0051 C   0  0  0  0  0  0  0  0  0  0  0  0
   -0.7610   -0.0250   -0.0051 C   0  0  0  0  0  0  0  0  0  0  0  0
    1.1904   -0.9237   -0.3217 H   0  0  0  0  0  0  0  0  0  0  0  0
    1.1359    0.8041   -0.6609 H   0  0  0  0  0  0  0  0  0  0  0  0
    1.1435    0.2336    1.0058 H   0  0  0  0  0  0  0  0  0  0  0  0
   -1.1435   -0.2336   -1.0058 H   0  0  0  0  0  0  0  0  0  0  0  0
   -1.1904    0.9237    0.3216 H   0  0  0  0  0  0  0  0  0  0  0  0
   -1.1359   -0.8041    0.6609 H   0  0  0  0  0  0  0  0  0  0  0  0
  1  2  1  0
  1  3  1  0
  1  4  1  0
  1  5  1  0
  2  6  1  0
  2  7  1  0
  2  8  1  0
M  END
>  <reaction>  (3) 
rxn_578

>  <mol_properties>  (3) 
{"1": {"label": "acceptor", "atom_type": "Cs"}, "7": {"label": "a_hydrogen", "atom_type": "H0"}}

>  <type>  (3) 
r2h

$$$$

     RDKit          3D

 32 32  0  0  0  0  0  0  0  0999 V2000
   -0.5143    0.0150   -1.0225 C   0  0  0  0  0  0  0  0  0  0  0  0
   -0.6337   -0.8344    0.2432 C   0  0  0  0  0  0  0  0  0  0  0  0
   -1.8278    0.6993   -1.3547 C   0  0  0  0  0  0  0  0  0  0  0  0
    0.0900   -0.9636   -2.0232 C   0  0  0  0  0  0  0  0  0  0  0  0
   -1.0402    0.0056    1.4437 C   0  0  0  0  0  0  0  0  0  0  0  0
   -2.2817    1.5431   -0.1593 C   0  0  0  0  0  0  0  0  0  0  0  0
   -2.3530    0.7314    1.1368 C   0  0  0  0  0  0  0  0  0  0  0  0
    1.1147   -1.7626   -1.1860 C   0  0  0  0  0  0  0  0  0  0  0  0
    2.6370    1.2514    0.6210 C   0  0  0  0  0  0  0  0  0  0  0  0
    2.5739   -0.0413    1.3888 C   0  0  0  0  0  3  0  0  0  0  0  0
    0.6769   -1.5886    0.2703 C   0  0  0  0  0  0  0  0  0  0  0  0
    0.2313    0.7951   -0.8199 H   0  0  0  0  0  0  0  0  0  0  0  0
   -1.4420   -1.5629    0.0639 H   0  0  0  0  0  0  0  0  0  0  0  0
   -1.7317    1.3265   -2.2449 H   0  0  0  0  0  0  0  0  0  0  0  0
   -2.5850   -0.0609   -1.5807 H   0  0  0  0  0  0  0  0  0  0  0  0
   -1.5733    2.3680   -0.0236 H   0  0  0  0  0  0  0  0  0  0  0  0
   -3.2532    1.9983   -0.3648 H   0  0  0  0  0  0  0  0  0  0  0  0
    0.5403   -0.4728   -2.8871 H   0  0  0  0  0  0  0  0  0  0  0  0
   -0.6942   -1.6288   -2.3975 H   0  0  0  0  0  0  0  0  0  0  0  0
   -2.6265    1.3853    1.9680 H   0  0  0  0  0  0  0  0  0  0  0  0
   -3.1536   -0.0114    1.0476 H   0  0  0  0  0  0  0  0  0  0  0  0
   -1.1481   -0.6131    2.3384 H   0  0  0  0  0  0  0  0  0  0  0  0
   -0.2533    0.7371    1.6566 H   0  0  0  0  0  0  0  0  0  0  0  0
    1.1507   -2.8123   -1.4829 H   0  0  0  0  0  0  0  0  0  0  0  0
    2.1246   -1.3670   -1.3330 H   0  0  0  0  0  0  0  0  0  0  0  0
    2.7793    1.0730   -0.4474 H   0  0  0  0  0  0  0  0  0  0  0  0
    1.7194    1.8312    0.7402 H   0  0  0  0  0  0  0  0  0  0  0  0
    3.4660    1.8827    0.9579 H   0  0  0  0  0  0  0  0  0  0  0  0
    3.4464   -0.6826    1.2751 H   0  0  0  0  0  0  0  0  0  0  0  0
    2.2826    0.0570    2.4329 H   0  0  0  0  0  0  0  0  0  0  0  0
    1.5735   -0.8150    0.8516 H   0  0  0  0  0  0  0  0  0  0  0  0
    0.7052   -2.4826    0.8916 H   0  0  0  0  0  0  0  0  0  0  0  0
  1  3  1  0
  1  4  1  0
  1  2  1  0
  1 12  1  0
  2  5  1  0
  2 11  1  0
  2 13  1  0
  3  6  1  0
  3 14  1  0
  3 15  1  0
  4  8  1  0
  4 18  1  0
  4 19  1  0
  5  7  1  0
  5 22  1  0
  5 23  1  0
  6  7  1  0
  6 16  1  0
  6 17  1  0
  7 20  1  0
  7 21  1  0
  8 11  1  0
  8 24  1  0
  8 25  1  0
  9 10  1  0
  9 26  1  0
  9 27  1  0
  9 28  1  0
 10 29  1  0
 10 30  1  0
 11 31  1  0
 11 32  1  0
M  RAD  1  10   2
M  END
>  <reaction>  (4) 
rxn_578

>  <mol_properties>  (4) 
{"1": {"label": "*0", "atom_type": "Cs"}, "8": {"label": "*4", "atom_type": "Cs"}, "9": {"label": "*3", "atom_type": "Cs"}, "10": {"label": "*1", "atom_type": "Cs"}, "30": {"label": "*2", "atom_type": "H0"}}

>  <type>  (4) 
ts

$$$$
