
     RDKit          3D

  7  6  0  0  0  0  0  0  0  0999 V2000
    1.6964   -0.0938    0.0583 C   0  0  0  0  0  0  0  0  0  0  0  0
    0.5019   -0.0278    0.0173 C   0  0  0  0  0  0  0  0  0  0  0  0
   -0.9505    0.0525   -0.0327 C   0  0  0  0  0  0  0  0  0  0  0  0
    2.7574   -0.1524    0.0947 H   0  0  0  0  0  0  0  0  0  0  0  0
   -1.2692    0.9972   -0.4754 H   0  0  0  0  0  0  0  0  0  0  0  0
   -1.3749   -0.0147    0.9700 H   0  0  0  0  0  0  0  0  0  0  0  0
   -1.3610   -0.7611   -0.6323 H   0  0  0  0  0  0  0  0  0  0  0  0
  1  2  3  0
  1  4  1  0
  2  3  1  0
  3  5  1  0
  3  6  1  0
  3  7  1  0
M  END
>  <reaction>  (1) 
rxn_1231

>  <mol_properties>  (1) 
{"2": {"label": "donator", "atom_type": "Cs"}, "4": {"label": "d_hydrogen", "atom_type": "H0"}}

>  <type>  (1) 
r1h

$$$$

     RDKit          3D

  8  7  0  0  0  0  0  0  0  0999 V2000
    1.4097   -0.3618   -0.1144 C   0  0  0  0  0  0  0  0  0  0  0  0
    0.1804   -0.1811   -0.5085 C   0  0  0  0  0  3  0  0  0  0  0  0
   -1.1132    0.2655    0.0162 C   0  0  0  0  0  0  0  0  0  0  0  0
    2.1849   -0.7256   -0.7809 H   0  0  0  0  0  0  0  0  0  0  0  0
    1.7118   -0.1519    0.9143 H   0  0  0  0  0  0  0  0  0  0  0  0
   -1.8662   -0.5198   -0.0756 H   0  0  0  0  0  0  0  0  0  0  0  0
   -1.0300    0.5356    1.0772 H   0  0  0  0  0  0  0  0  0  0  0  0
   -1.4772    1.1391   -0.5284 H   0  0  0  0  0  0  0  0  0  0  0  0
  1  2  2  3
  1  4  1  0
  1  5  1  0
  2  3  1  0
  3  6  1  0
  3  7  1  0
  3  8  1  0
M  RAD  1   2   2
M  END
>  <reaction>  (2) 
rxn_1231

>  <mol_properties>  (2) 
{"1": {"label": "acceptor", "atom_type": "Cd"}}

>  <type>  (2) 
r2

$$$$

     RDKit          3D

  9  8  0  0  0  0  0  0  0  0999 V2000
    1.1303   -0.2933   -0.7510 C   0  0  0  0  0  0  0  0  0  0  0  0
    0.2866    0.4560   -0.0588 C   0  0  0  0  0  0  0  0  0  0  0  0
   -0.9719   -0.0331    0.5823 C   0  0  0  0  0  0  0  0  0  0  0  0
    2.0274    0.1230   -1.1916 H   0  0  0  0  0  0  0  0  0  0  0  0
    0.9532   -1.3530   -0.9023 H   0  0  0  0  0  0  0  0  0  0  0  0
    0.5065    1.5132    0.0659 H   0  0  0  0  0  0  0  0  0  0  0  0
   -0.9526    0.1426    1.6610 H   0  0  0  0  0  0  0  0  0  0  0  0
   -1.1182   -1.1002    0.4106 H   0  0  0  0  0  0  0  0  0  0  0  0
   -1.8412    0.5010    0.1901 H   0  0  0  0  0  0  0  0  0  0  0  0
  1  2  2  3
  1  4  1  0
  1  5  1  0
  2  3  1  0
  2  6  1  0
  3  7  1  0
  3  8  1  0
  3  9  1  0
M  END
>  <reaction>  (3) 
rxn_1231

>  <mol_properties>  (3) 
{"0": {"label": "a_hydrogen", "atom_type": "H0"}, "2": {"label": "acceptor", "atom_type": "Cd"}}

>  <type>  (3) 
r2h

$$$$

     RDKit          3D

 15 13  0  0  0  0  0  0  0  0999 V2000
   -0.5532   -1.2570   -2.4167 C   0  0  0  0  0  0  0  0  0  0  0  0
   -0.0944   -1.3832   -1.3134 C   0  0  0  0  0  0  0  0  0  0  0  0
    0.4317   -1.4661    0.0129 C   0  0  0  0  0  0  0  0  0  0  0  0
   -0.9531   -1.1664   -3.3976 H   0  0  0  0  0  0  0  0  0  0  0  0
    0.2285   -0.3389    0.5810 H   0  0  0  0  0  0  0  0  0  0  0  0
    1.5116   -1.5952    0.0517 H   0  0  0  0  0  0  0  0  0  0  0  0
   -0.0843   -2.1835    0.6480 H   0  0  0  0  0  0  0  0  0  0  0  0
    0.3900    1.0679    2.4008 C   0  0  0  0  0  0  0  0  0  0  0  0
   -0.0199    0.9245    1.1626 C   0  0  0  0  0  3  0  0  0  0  0  0
   -0.7065    1.8208    0.2096 C   0  0  0  0  0  0  0  0  0  0  0  0
    0.8858    0.2658    2.9364 H   0  0  0  0  0  0  0  0  0  0  0  0
    0.2470    2.0028    2.9405 H   0  0  0  0  0  0  0  0  0  0  0  0
   -1.6579    1.3899   -0.1093 H   0  0  0  0  0  0  0  0  0  0  0  0
   -0.8988    2.7995    0.6603 H   0  0  0  0  0  0  0  0  0  0  0  0
   -0.1039    1.9628   -0.6901 H   0  0  0  0  0  0  0  0  0  0  0  0
  1  2  3  0
  1  4  1  0
  2  3  1  0
  3  5  1  0
  3  6  1  0
  3  7  1  0
  8  9  2  3
  8 11  1  0
  8 12  1  0
  9 10  1  0
 10 13  1  0
 10 14  1  0
 10 15  1  0
M  RAD  1   9   2
M  END
>  <reaction>  (4) 
rxn_1231

>  <mol_properties>  (4) 
{"1": {"label": "*0", "atom_type": "Ct"}, "2": {"label": "*1", "atom_type": "Cs"}, "4": {"label": "*2", "atom_type": "H0"}, "7": {"label": "*4", "atom_type": "Cd"}, "8": {"label": "*3", "atom_type": "Cd"}}

>  <type>  (4) 
ts

$$$$
