
     RDKit          3D

 14 13  0  0  0  0  0  0  0  0999 V2000
   -0.7648   -1.2351   -0.0348 C   0  0  0  0  0  0  0  0  0  0  0  0
    0.0570   -0.0126    0.3624 C   0  0  0  0  0  0  0  0  0  0  0  0
    1.4161   -0.0194   -0.3308 C   0  0  0  0  0  0  0  0  0  0  0  0
   -0.7022    1.2765    0.0629 C   0  0  0  0  0  0  0  0  0  0  0  0
   -0.2387   -2.1619    0.2039 H   0  0  0  0  0  0  0  0  0  0  0  0
   -0.9626   -1.2315   -1.1107 H   0  0  0  0  0  0  0  0  0  0  0  0
   -1.7273   -1.2512    0.4807 H   0  0  0  0  0  0  0  0  0  0  0  0
    0.2295   -0.0589    1.4432 H   0  0  0  0  0  0  0  0  0  0  0  0
    1.2932    0.0258   -1.4169 H   0  0  0  0  0  0  0  0  0  0  0  0
    2.0206    0.8381   -0.0280 H   0  0  0  0  0  0  0  0  0  0  0  0
    1.9767   -0.9269   -0.0966 H   0  0  0  0  0  0  0  0  0  0  0  0
   -1.6639    1.3001    0.5798 H   0  0  0  0  0  0  0  0  0  0  0  0
   -0.8976    1.3665   -1.0097 H   0  0  0  0  0  0  0  0  0  0  0  0
   -0.1313    2.1545    0.3722 H   0  0  0  0  0  0  0  0  0  0  0  0
  1  2  1  0
  1  5  1  0
  1  6  1  0
  1  7  1  0
  2  3  1  0
  2  4  1  0
  2  8  1  0
  3  9  1  0
  3 10  1  0
  3 11  1  0
  4 12  1  0
  4 13  1  0
  4 14  1  0
M  END
>  <reaction>  (1) 
rxn_96

>  <mol_properties>  (1) 
{"0": {"label": "donator", "atom_type": "Cs"}, "4": {"label": "d_hydrogen", "atom_type": "H0"}}

>  <type>  (1) 
r1h

$$$$

     RDKit          3D

  3  2  0  0  0  0  0  0  0  0999 V2000
    0.0002    0.4233    0.0000 N   0  0  0  0  0  2  0  0  0  0  0  0
   -0.8051   -0.2112    0.0000 H   0  0  0  0  0  0  0  0  0  0  0  0
    0.8049   -0.2121    0.0000 H   0  0  0  0  0  0  0  0  0  0  0  0
  1  2  1  0
  1  3  1  0
M  RAD  1   1   2
M  END
>  <reaction>  (2) 
rxn_96

>  <mol_properties>  (2) 
{"0": {"label": "acceptor", "atom_type": "N3s"}}

>  <type>  (2) 
r2

$$$$

     RDKit          3D

  4  3  0  0  0  0  0  0  0  0999 V2000
    0.0006   -0.0009    0.2762 N   0  0  0  0  0  0  0  0  0  0  0  0
   -0.4188    0.8439   -0.0883 H   0  0  0  0  0  0  0  0  0  0  0  0
   -0.5215   -0.7840   -0.0936 H   0  0  0  0  0  0  0  0  0  0  0  0
    0.9397   -0.0590   -0.0943 H   0  0  0  0  0  0  0  0  0  0  0  0
  1  2  1  0
  1  3  1  0
  1  4  1  0
M  END
>  <reaction>  (3) 
rxn_96

>  <mol_properties>  (3) 
{"0": {"label": "acceptor", "atom_type": "N3s"}, "3": {"label": "a_hydrogen", "atom_type": "H0"}}

>  <type>  (3) 
r2h

$$$$

     RDKit          3D

 17 15  0  0  0  0  0  0  0  0999 V2000
   -1.8794    1.9615    0.1067 N   0  0  0  0  0  2  0  0  0  0  0  0
   -1.6159    2.2366   -0.8414 H   0  0  0  0  0  0  0  0  0  0  0  0
   -2.4533    1.1264   -0.0263 H   0  0  0  0  0  0  0  0  0  0  0  0
    0.3149    0.7428    0.7325 C   0  0  0  0  0  0  0  0  0  0  0  0
    0.2012   -0.6786    0.2312 C   0  0  0  0  0  0  0  0  0  0  0  0
    0.0482   -0.7281   -1.2860 C   0  0  0  0  0  0  0  0  0  0  0  0
    1.4105   -1.5023    0.6817 C   0  0  0  0  0  0  0  0  0  0  0  0
   -0.7629    1.3986    0.4904 H   0  0  0  0  0  0  0  0  0  0  0  0
    1.0964    1.3225    0.2377 H   0  0  0  0  0  0  0  0  0  0  0  0
    0.3874    0.8323    1.8164 H   0  0  0  0  0  0  0  0  0  0  0  0
   -0.6917   -1.1267    0.6812 H   0  0  0  0  0  0  0  0  0  0  0  0
    0.9241   -0.2912   -1.7740 H   0  0  0  0  0  0  0  0  0  0  0  0
   -0.0527   -1.7560   -1.6392 H   0  0  0  0  0  0  0  0  0  0  0  0
   -0.8303   -0.1698   -1.6145 H   0  0  0  0  0  0  0  0  0  0  0  0
    1.5088   -1.5010    1.7686 H   0  0  0  0  0  0  0  0  0  0  0  0
    2.3325   -1.0931    0.2601 H   0  0  0  0  0  0  0  0  0  0  0  0
    1.3212   -2.5392    0.3502 H   0  0  0  0  0  0  0  0  0  0  0  0
  1  2  1  0
  1  3  1  0
  4  5  1  0
  4  8  1  0
  4  9  1  0
  4 10  1  0
  5  6  1  0
  5  7  1  0
  5 11  1  0
  6 12  1  0
  6 13  1  0
  6 14  1  0
  7 15  1  0
  7 16  1  0
  7 17  1  0
M  RAD  1   1   2
M  END
>  <reaction>  (4) 
rxn_96

>  <mol_properties>  (4) 
{"0": {"label": "*3", "atom_type": "N3s"}, "1": {"label": "*4", "atom_type": "H0"}, "3": {"label": "*1", "atom_type": "Cs"}, "4": {"label": "*0", "atom_type": "Cs"}, "7": {"label": "*2", "atom_type": "H0"}}

>  <type>  (4) 
ts

$$$$
