
     RDKit          3D

 14 13  0  0  0  0  0  0  0  0999 V2000
   -0.7647   -1.2352   -0.0349 C   0  0  0  0  0  0  0  0  0  0  0  0
    0.0570   -0.0126    0.3624 C   0  0  0  0  0  0  0  0  0  0  0  0
    1.4161   -0.0194   -0.3308 C   0  0  0  0  0  0  0  0  0  0  0  0
   -0.7022    1.2765    0.0629 C   0  0  0  0  0  0  0  0  0  0  0  0
   -0.2387   -2.1619    0.2040 H   0  0  0  0  0  0  0  0  0  0  0  0
   -0.9625   -1.2316   -1.1108 H   0  0  0  0  0  0  0  0  0  0  0  0
   -1.7273   -1.2512    0.4806 H   0  0  0  0  0  0  0  0  0  0  0  0
    0.2295   -0.0590    1.4432 H   0  0  0  0  0  0  0  0  0  0  0  0
    1.2933    0.0260   -1.4168 H   0  0  0  0  0  0  0  0  0  0  0  0
    2.0206    0.8381   -0.0279 H   0  0  0  0  0  0  0  0  0  0  0  0
    1.9767   -0.9268   -0.0966 H   0  0  0  0  0  0  0  0  0  0  0  0
   -1.6639    1.3001    0.5799 H   0  0  0  0  0  0  0  0  0  0  0  0
   -0.8977    1.3664   -1.0096 H   0  0  0  0  0  0  0  0  0  0  0  0
   -0.1313    2.1545    0.3722 H   0  0  0  0  0  0  0  0  0  0  0  0
  1  2  1  0
  1  5  1  0
  1  6  1  0
  1  7  1  0
  2  3  1  0
  2  4  1  0
  2  8  1  0
  3  9  1  0
  3 10  1  0
  3 11  1  0
  4 12  1  0
  4 13  1  0
  4 14  1  0
M  END
>  <reaction>  (1) 
rxn_982

>  <mol_properties>  (1) 
{"1": {"label": "donator", "atom_type": "Cs"}, "7": {"label": "d_hydrogen", "atom_type": "H0"}}

>  <type>  (1) 
r1h

$$$$

     RDKit          3D

  9  8  0  0  0  0  0  0  0  0999 V2000
    2.3991   -0.1292   -0.2384 S   0  0  0  0  0  0  0  0  0  0  0  0
    0.7460    0.2807    0.0931 C   0  0  0  0  0  3  0  0  0  0  0  0
   -0.3131   -0.5719   -0.2043 C   0  0  0  0  0  0  0  0  0  0  0  0
   -0.2286   -1.8095   -0.7775 C   0  0  0  0  0  0  0  0  0  0  0  0
    2.9373    1.0009    0.2312 H   0  0  0  0  0  0  0  0  0  0  0  0
    0.5618    1.2421    0.5487 H   0  0  0  0  0  0  0  0  0  0  0  0
   -1.2978   -0.1954    0.0537 H   0  0  0  0  0  0  0  0  0  0  0  0
    0.7207   -2.2479   -1.0607 H   0  0  0  0  0  0  0  0  0  0  0  0
   -1.1177   -2.3938   -0.9670 H   0  0  0  0  0  0  0  0  0  0  0  0
  1  2  1  0
  1  5  1  0
  2  3  1  0
  2  6  1  0
  3  4  2  3
  3  7  1  0
  4  8  1  0
  4  9  1  0
M  RAD  1   2   2
M  END
>  <reaction>  (2) 
rxn_982

>  <mol_properties>  (2) 
{"1": {"label": "acceptor", "atom_type": "Cs"}}

>  <type>  (2) 
r2

$$$$

     RDKit          3D

 10  9  0  0  0  0  0  0  0  0999 V2000
    2.2097   -0.5315    0.2575 S   0  0  0  0  0  0  0  0  0  0  0  0
    0.5401   -0.7188   -0.4494 C   0  0  0  0  0  0  0  0  0  0  0  0
   -0.5263   -0.1678    0.4365 C   0  0  0  0  0  0  0  0  0  0  0  0
   -1.3394    0.8185    0.0912 C   0  0  0  0  0  0  0  0  0  0  0  0
    2.1701    0.8016    0.3806 H   0  0  0  0  0  0  0  0  0  0  0  0
    0.4238   -1.7978   -0.5701 H   0  0  0  0  0  0  0  0  0  0  0  0
    0.5053   -0.2663   -1.4400 H   0  0  0  0  0  0  0  0  0  0  0  0
   -0.6005   -0.6141    1.4236 H   0  0  0  0  0  0  0  0  0  0  0  0
   -2.0960    1.1907    0.7700 H   0  0  0  0  0  0  0  0  0  0  0  0
   -1.2784    1.2877   -0.8850 H   0  0  0  0  0  0  0  0  0  0  0  0
  1  2  1  0
  1  5  1  0
  2  3  1  0
  2  6  1  0
  2  7  1  0
  3  4  2  3
  3  8  1  0
  4  9  1  0
  4 10  1  0
M  END
>  <reaction>  (3) 
rxn_982

>  <mol_properties>  (3) 
{"1": {"label": "acceptor", "atom_type": "Cs"}, "9": {"label": "a_hydrogen", "atom_type": "H0"}}

>  <type>  (3) 
r2h

$$$$

     RDKit          3D

 23 21  0  0  0  0  0  0  0  0999 V2000
    2.2188    0.7315   -0.2528 S   0  0  0  0  0  0  0  0  0  0  0  0
    0.9566   -0.0213    0.7709 C   0  0  0  0  0  0  0  0  0  0  0  0
    0.7707   -1.4645    0.6554 C   0  0  0  0  0  0  0  0  0  0  0  0
    0.3623   -2.2544    1.6498 C   0  0  0  0  0  0  0  0  0  0  0  0
    3.2750    0.0419    0.2062 H   0  0  0  0  0  0  0  0  0  0  0  0
    0.9531    0.3531    1.7932 H   0  0  0  0  0  0  0  0  0  0  0  0
    0.9474   -1.8898   -0.3285 H   0  0  0  0  0  0  0  0  0  0  0  0
    0.1848   -1.8647    2.6461 H   0  0  0  0  0  0  0  0  0  0  0  0
    0.1997   -3.3132    1.4967 H   0  0  0  0  0  0  0  0  0  0  0  0
   -1.5284    0.2011   -1.4383 C   0  0  0  0  0  0  0  0  0  0  0  0
   -1.3204    1.0364   -0.2030 C   0  0  0  0  0  3  0  0  0  0  0  0
   -1.0528    2.4969   -0.4546 C   0  0  0  0  0  0  0  0  0  0  0  0
   -2.2760    0.7453    0.9241 C   0  0  0  0  0  0  0  0  0  0  0  0
   -0.7212    0.3502   -2.1585 H   0  0  0  0  0  0  0  0  0  0  0  0
   -2.4702    0.4674   -1.9333 H   0  0  0  0  0  0  0  0  0  0  0  0
   -1.5757   -0.8617   -1.1909 H   0  0  0  0  0  0  0  0  0  0  0  0
   -0.1402    0.5409    0.2783 H   0  0  0  0  0  0  0  0  0  0  0  0
   -1.9552    2.9941   -0.8319 H   0  0  0  0  0  0  0  0  0  0  0  0
   -0.7533    3.0110    0.4610 H   0  0  0  0  0  0  0  0  0  0  0  0
   -0.2652    2.6368   -1.1974 H   0  0  0  0  0  0  0  0  0  0  0  0
   -2.2905   -0.3204    1.1622 H   0  0  0  0  0  0  0  0  0  0  0  0
   -3.2975    1.0387    0.6523 H   0  0  0  0  0  0  0  0  0  0  0  0
   -2.0058    1.2959    1.8277 H   0  0  0  0  0  0  0  0  0  0  0  0
  1  2  1  0
  1  5  1  0
  2  3  1  0
  2  6  1  0
  2 17  1  0
  3  4  2  3
  3  7  1  0
  4  8  1  0
  4  9  1  0
 10 11  1  0
 10 14  1  0
 10 15  1  0
 10 16  1  0
 11 12  1  0
 11 13  1  0
 12 18  1  0
 12 19  1  0
 12 20  1  0
 13 21  1  0
 13 22  1  0
 13 23  1  0
M  RAD  1  11   2
M  END
>  <reaction>  (4) 
rxn_982

>  <mol_properties>  (4) 
{"0": {"label": "*0", "atom_type": "S2s"}, "1": {"label": "*1", "atom_type": "Cs"}, "9": {"label": "*4", "atom_type": "Cs"}, "10": {"label": "*3", "atom_type": "Cs"}, "16": {"label": "*2", "atom_type": "H0"}}

>  <type>  (4) 
ts

$$$$
