
     RDKit          3D

 11 10  0  0  0  0  0  0  0  0999 V2000
   -1.2710    0.1907   -0.2084 C   0  0  0  0  0  0  0  0  0  0  0  0
    0.0202   -0.6130   -0.2928 C   0  0  0  0  0  0  0  0  0  0  0  0
    0.1086   -1.6953    0.7756 C   0  0  0  0  0  0  0  0  0  0  0  0
   -1.3607    0.6851    0.7620 H   0  0  0  0  0  0  0  0  0  0  0  0
   -2.1429   -0.4567   -0.3299 H   0  0  0  0  0  0  0  0  0  0  0  0
   -1.3158    0.9602   -0.9809 H   0  0  0  0  0  0  0  0  0  0  0  0
    0.8757    0.0616   -0.1992 H   0  0  0  0  0  0  0  0  0  0  0  0
    0.0997   -1.0712   -1.2825 H   0  0  0  0  0  0  0  0  0  0  0  0
   -0.7198   -2.4022    0.6850 H   0  0  0  0  0  0  0  0  0  0  0  0
    1.0395   -2.2596    0.6989 H   0  0  0  0  0  0  0  0  0  0  0  0
    0.0624   -1.2603    1.7770 H   0  0  0  0  0  0  0  0  0  0  0  0
  1  2  1  0
  1  4  1  0
  1  5  1  0
  1  6  1  0
  2  3  1  0
  2  7  1  0
  2  8  1  0
  3  9  1  0
  3 10  1  0
  3 11  1  0
M  END
>  <reaction>  (1) 
rxn_920

>  <mol_properties>  (1) 
{"1": {"label": "donator", "atom_type": "Cs"}, "6": {"label": "d_hydrogen", "atom_type": "H0"}}

>  <type>  (1) 
r1h

$$$$

     RDKit          3D

 12 11  0  0  0  0  0  0  0  0999 V2000
    2.5164   -0.5559   -0.0242 C   0  0  0  0  0  0  0  0  0  0  0  0
    1.3287   -0.2938   -0.0132 C   0  0  0  0  0  0  0  0  0  0  0  0
   -0.0146    0.0027   -0.0006 C   0  0  0  0  0  3  0  0  0  0  0  0
   -1.0396   -1.0729   -0.1642 C   0  0  0  0  0  0  0  0  0  0  0  0
   -0.4887    1.4091    0.1769 C   0  0  0  0  0  0  0  0  0  0  0  0
    3.5543   -0.7850   -0.0339 H   0  0  0  0  0  0  0  0  0  0  0  0
   -1.7064   -1.1056    0.7044 H   0  0  0  0  0  0  0  0  0  0  0  0
   -0.5831   -2.0533   -0.2854 H   0  0  0  0  0  0  0  0  0  0  0  0
   -1.6716   -0.8741   -1.0367 H   0  0  0  0  0  0  0  0  0  0  0  0
   -1.0951    1.7228   -0.6798 H   0  0  0  0  0  0  0  0  0  0  0  0
    0.3401    2.1059    0.2861 H   0  0  0  0  0  0  0  0  0  0  0  0
   -1.1300    1.4913    1.0613 H   0  0  0  0  0  0  0  0  0  0  0  0
  1  2  3  0
  1  6  1  0
  2  3  1  0
  3  4  1  0
  3  5  1  0
  4  7  1  0
  4  8  1  0
  4  9  1  0
  5 10  1  0
  5 11  1  0
  5 12  1  0
M  RAD  1   3   2
M  END
>  <reaction>  (2) 
rxn_920

>  <mol_properties>  (2) 
{"2": {"label": "acceptor", "atom_type": "Cs"}}

>  <type>  (2) 
r2

$$$$

     RDKit          3D

 13 12  0  0  0  0  0  0  0  0999 V2000
    2.2975   -0.6134    0.7685 C   0  0  0  0  0  0  0  0  0  0  0  0
    1.1676   -0.5248    0.3802 C   0  0  0  0  0  0  0  0  0  0  0  0
   -0.2109   -0.3926   -0.0948 C   0  0  0  0  0  0  0  0  0  0  0  0
   -0.2501    0.2584   -1.4808 C   0  0  0  0  0  0  0  0  0  0  0  0
   -1.0633    0.3831    0.9141 C   0  0  0  0  0  0  0  0  0  0  0  0
    3.2999   -0.6974    1.1133 H   0  0  0  0  0  0  0  0  0  0  0  0
   -0.6209   -1.4038   -0.1814 H   0  0  0  0  0  0  0  0  0  0  0  0
    0.3402   -0.3102   -2.1992 H   0  0  0  0  0  0  0  0  0  0  0  0
    0.1511    1.2724   -1.4369 H   0  0  0  0  0  0  0  0  0  0  0  0
   -1.2791    0.3109   -1.8407 H   0  0  0  0  0  0  0  0  0  0  0  0
   -0.6861    1.4008    1.0287 H   0  0  0  0  0  0  0  0  0  0  0  0
   -1.0492   -0.0971    1.8924 H   0  0  0  0  0  0  0  0  0  0  0  0
   -2.0971    0.4363    0.5680 H   0  0  0  0  0  0  0  0  0  0  0  0
  1  2  3  0
  1  6  1  0
  2  3  1  0
  3  4  1  0
  3  5  1  0
  3  7  1  0
  4  8  1  0
  4  9  1  0
  4 10  1  0
  5 11  1  0
  5 12  1  0
  5 13  1  0
M  END
>  <reaction>  (3) 
rxn_920

>  <mol_properties>  (3) 
{"2": {"label": "acceptor", "atom_type": "Cs"}, "12": {"label": "a_hydrogen", "atom_type": "H0"}}

>  <type>  (3) 
r2h

$$$$

     RDKit          3D

 23 21  0  0  0  0  0  0  0  0999 V2000
    2.3262    0.2975   -1.0637 C   0  0  0  0  0  0  0  0  0  0  0  0
    1.5309   -0.0869   -0.2473 C   0  0  0  0  0  0  0  0  0  0  0  0
    0.5388   -0.5140    0.6976 C   0  0  0  0  0  0  0  0  0  0  0  0
    0.7313    0.0383    2.0981 C   0  0  0  0  0  0  0  0  0  0  0  0
    0.2270   -1.9985    0.6479 C   0  0  0  0  0  0  0  0  0  0  0  0
    3.0412    0.6286   -1.7774 H   0  0  0  0  0  0  0  0  0  0  0  0
   -0.1500   -0.1721    2.7080 H   0  0  0  0  0  0  0  0  0  0  0  0
    0.8877    1.1170    2.0767 H   0  0  0  0  0  0  0  0  0  0  0  0
    1.5972   -0.4194    2.5850 H   0  0  0  0  0  0  0  0  0  0  0  0
    1.0602   -2.5880    1.0410 H   0  0  0  0  0  0  0  0  0  0  0  0
    0.0353   -2.3255   -0.3743 H   0  0  0  0  0  0  0  0  0  0  0  0
   -0.6561   -2.2161    1.2527 H   0  0  0  0  0  0  0  0  0  0  0  0
   -1.8233    0.1021   -1.5939 C   0  0  0  0  0  0  0  0  0  0  0  0
   -1.6908    0.6898   -0.2178 C   0  0  0  0  0  3  0  0  0  0  0  0
   -1.3180    2.1430   -0.1407 C   0  0  0  0  0  0  0  0  0  0  0  0
   -0.8956    0.2306   -2.1581 H   0  0  0  0  0  0  0  0  0  0  0  0
   -2.6225    0.5938   -2.1613 H   0  0  0  0  0  0  0  0  0  0  0  0
   -2.0527   -0.9640   -1.5566 H   0  0  0  0  0  0  0  0  0  0  0  0
   -0.5529    0.0471    0.2891 H   0  0  0  0  0  0  0  0  0  0  0  0
   -2.4717    0.3869    0.4792 H   0  0  0  0  0  0  0  0  0  0  0  0
   -2.0823    2.7752   -0.6080 H   0  0  0  0  0  0  0  0  0  0  0  0
   -1.2012    2.4749    0.8921 H   0  0  0  0  0  0  0  0  0  0  0  0
   -0.3765    2.3270   -0.6654 H   0  0  0  0  0  0  0  0  0  0  0  0
  1  2  3  0
  1  6  1  0
  2  3  1  0
  3  4  1  0
  3  5  1  0
  3 19  1  0
  4  7  1  0
  4  8  1  0
  4  9  1  0
  5 10  1  0
  5 11  1  0
  5 12  1  0
 13 14  1  0
 13 16  1  0
 13 17  1  0
 13 18  1  0
 14 15  1  0
 14 20  1  0
 15 21  1  0
 15 22  1  0
 15 23  1  0
M  RAD  1  14   2
M  END
>  <reaction>  (4) 
rxn_920

>  <mol_properties>  (4) 
{"1": {"label": "*0", "atom_type": "Ct"}, "2": {"label": "*1", "atom_type": "Cs"}, "12": {"label": "*4", "atom_type": "Cs"}, "13": {"label": "*3", "atom_type": "Cs"}, "18": {"label": "*2", "atom_type": "H0"}}

>  <type>  (4) 
ts

$$$$
