
     RDKit          3D

  8  7  0  0  0  0  0  0  0  0999 V2000
    1.9029    0.9046   -0.2050 C   0  0  0  0  0  0  0  0  0  0  0  0
    0.8517    0.4283    0.1217 C   0  0  0  0  0  0  0  0  0  0  0  0
   -0.3908   -0.1311    0.5404 C   0  0  0  0  0  0  0  0  0  0  0  0
   -1.2847   -0.6576   -0.2899 C   0  0  0  0  0  0  0  0  0  0  0  0
    2.8335    1.3255   -0.5014 H   0  0  0  0  0  0  0  0  0  0  0  0
   -0.5867   -0.1096    1.6074 H   0  0  0  0  0  0  0  0  0  0  0  0
   -2.2126   -1.0686    0.0850 H   0  0  0  0  0  0  0  0  0  0  0  0
   -1.1134   -0.6914   -1.3582 H   0  0  0  0  0  0  0  0  0  0  0  0
  1  2  3  0
  1  5  1  0
  2  3  1  0
  3  4  2  3
  3  6  1  0
  4  7  1  0
  4  8  1  0
M  END
>  <reaction>  (1) 
rxn_1842

>  <mol_properties>  (1) 
{"2": {"label": "donator", "atom_type": "Cd"}, "5": {"label": "d_hydrogen", "atom_type": "H0"}}

>  <type>  (1) 
r1h

$$$$

     RDKit          3D

  1  0  0  0  0  0  0  0  0  0999 V2000
    0.0000    0.0000    0.0000 H   0  0  0  0  0 15  0  0  0  0  0  0
M  END
>  <reaction>  (2) 
rxn_1842

>  <mol_properties>  (2) 
{"0": {"label": "acceptor", "atom_type": "H0"}}

>  <type>  (2) 
r2

$$$$

     RDKit          3D

  2  1  0  0  0  0  0  0  0  0999 V2000
    0.0000    0.0000    0.3721 H   0  0  0  0  0  0  0  0  0  0  0  0
    0.0000    0.0000   -0.3721 H   0  0  0  0  0  0  0  0  0  0  0  0
  1  2  1  0
M  END
>  <reaction>  (3) 
rxn_1842

>  <mol_properties>  (3) 
{"0": {"label": "acceptor", "atom_type": "H0"}, "1": {"label": "a_hydrogen", "atom_type": "H0"}}

>  <type>  (3) 
r2h

$$$$

     RDKit          3D

  9  7  0  0  0  0  0  0  0  0999 V2000
   -0.0000    2.1738    1.6961 H   0  0  0  0  0 15  0  0  0  0  0  0
   -0.0000    0.2860   -1.9228 C   0  0  0  0  0  0  0  0  0  0  0  0
   -0.0000    0.1798   -0.7244 C   0  0  0  0  0  0  0  0  0  0  0  0
   -0.0000    0.1650    0.6727 C   0  0  0  0  0  0  0  0  0  0  0  0
    0.0000   -0.8157    1.5549 C   0  0  0  0  0  0  0  0  0  0  0  0
   -0.0000    0.3588   -2.9839 H   0  0  0  0  0  0  0  0  0  0  0  0
   -0.0000    1.3556    1.2114 H   0  0  0  0  0  0  0  0  0  0  0  0
    0.0000   -0.6041    2.6173 H   0  0  0  0  0  0  0  0  0  0  0  0
    0.0000   -1.8556    1.2464 H   0  0  0  0  0  0  0  0  0  0  0  0
  2  3  3  0
  2  6  1  0
  3  4  1  0
  4  5  2  3
  4  7  1  0
  5  8  1  0
  5  9  1  0
M  END
>  <reaction>  (4) 
rxn_1842

>  <mol_properties>  (4) 
{"0": {"label": "*1", "atom_type": "H0"}, "2": {"label": "*4", "atom_type": "Ct"}, "3": {"label": "*3", "atom_type": "Cd"}, "6": {"label": "*2", "atom_type": "H0"}}

>  <type>  (4) 
ts

$$$$
