
     RDKit          3D

 13 12  0  0  0  0  0  0  0  0999 V2000
    3.0977   -0.3549   -0.5105 C   0  0  0  0  0  0  0  0  0  0  0  0
    2.0556    0.4221   -0.2627 C   0  0  0  0  0  0  0  0  0  0  0  0
    0.6313   -0.0354   -0.2366 C   0  0  0  0  0  0  0  0  0  0  0  0
   -0.2567    0.6038   -1.2694 C   0  0  0  0  0  0  0  0  0  0  0  0
    0.1459    1.3456   -2.2891 C   0  0  0  0  0  0  0  0  0  0  0  0
    4.1081    0.0344   -0.5074 H   0  0  0  0  0  0  0  0  0  0  0  0
    2.9777   -1.4116   -0.7243 H   0  0  0  0  0  0  0  0  0  0  0  0
    2.2171    1.4781   -0.0618 H   0  0  0  0  0  0  0  0  0  0  0  0
    0.5865   -1.1233   -0.3540 H   0  0  0  0  0  0  0  0  0  0  0  0
    0.2065    0.1743    0.7521 H   0  0  0  0  0  0  0  0  0  0  0  0
   -1.3190    0.4126   -1.1445 H   0  0  0  0  0  0  0  0  0  0  0  0
    1.1948    1.5564   -2.4628 H   0  0  0  0  0  0  0  0  0  0  0  0
   -0.5644    1.7621   -2.9918 H   0  0  0  0  0  0  0  0  0  0  0  0
  1  2  2  3
  1  6  1  0
  1  7  1  0
  2  3  1  0
  2  8  1  0
  3  4  1  0
  3  9  1  0
  3 10  1  0
  4  5  2  3
  4 11  1  0
  5 12  1  0
  5 13  1  0
M  END
>  <reaction>  (1) 
rxn_748

>  <mol_properties>  (1) 
{"2": {"label": "donator", "atom_type": "Cs"}, "8": {"label": "d_hydrogen", "atom_type": "H0"}}

>  <type>  (1) 
r1h

$$$$

     RDKit          3D

 18 19  0  0  0  0  0  0  0  0999 V2000
   -0.2352   -0.0323    1.4420 C   0  0  0  0  0  3  0  0  0  0  0  0
   -0.1734   -1.1359    0.4256 C   0  0  0  0  0  0  0  0  0  0  0  0
   -1.2562   -0.6812   -0.5734 C   0  0  0  0  0  0  0  0  0  0  0  0
   -1.1576    0.8706   -0.5226 C   0  0  0  0  0  0  0  0  0  0  0  0
   -0.0301    1.1185    0.4994 C   0  0  0  0  0  0  0  0  0  0  0  0
    1.3075    0.7028   -0.1632 C   0  0  0  0  0  0  0  0  0  0  0  0
    1.2087   -0.8504   -0.2141 C   0  0  0  0  0  0  0  0  0  0  0  0
    0.1290   -0.0888    2.4599 H   0  0  0  0  0  0  0  0  0  0  0  0
   -0.2924   -2.1557    0.7848 H   0  0  0  0  0  0  0  0  0  0  0  0
   -2.2417   -1.0206   -0.2534 H   0  0  0  0  0  0  0  0  0  0  0  0
   -1.0769   -1.0814   -1.5727 H   0  0  0  0  0  0  0  0  0  0  0  0
   -0.9249    1.3092   -1.4944 H   0  0  0  0  0  0  0  0  0  0  0  0
   -2.0935    1.3103   -0.1770 H   0  0  0  0  0  0  0  0  0  0  0  0
   -0.0206    2.1196    0.9249 H   0  0  0  0  0  0  0  0  0  0  0  0
    1.4248    1.1518   -1.1514 H   0  0  0  0  0  0  0  0  0  0  0  0
    2.1542    1.0215    0.4460 H   0  0  0  0  0  0  0  0  0  0  0  0
    1.2724   -1.2452   -1.2300 H   0  0  0  0  0  0  0  0  0  0  0  0
    2.0058   -1.3127    0.3695 H   0  0  0  0  0  0  0  0  0  0  0  0
  1  2  1  0
  1  5  1  0
  1  8  1  0
  2  3  1  0
  2  7  1  0
  2  9  1  0
  3  4  1  0
  3 10  1  0
  3 11  1  0
  4  5  1  0
  4 12  1  0
  4 13  1  0
  5  6  1  0
  5 14  1  0
  6  7  1  0
  6 15  1  0
  6 16  1  0
  7 17  1  0
  7 18  1  0
M  RAD  1   1   2
M  END
>  <reaction>  (2) 
rxn_748

>  <mol_properties>  (2) 
{"0": {"label": "acceptor", "atom_type": "Cs"}}

>  <type>  (2) 
r2

$$$$

     RDKit          3D

 19 20  0  0  0  0  0  0  0  0999 V2000
    1.1087   -0.4716   -0.9619 C   0  0  0  0  0  0  0  0  0  0  0  0
    0.9355    1.0407   -0.6470 C   0  0  0  0  0  0  0  0  0  0  0  0
   -0.0085    1.0377    0.5657 C   0  0  0  0  0  0  0  0  0  0  0  0
   -1.4093    0.6181    0.0927 C   0  0  0  0  0  0  0  0  0  0  0  0
   -1.2361   -0.8942   -0.2222 C   0  0  0  0  0  0  0  0  0  0  0  0
    0.2422   -1.1516    0.1099 C   0  0  0  0  0  0  0  0  0  0  0  0
    0.4537   -0.2211    1.3118 C   0  0  0  0  0  0  0  0  0  0  0  0
    2.1524   -0.7752   -0.8653 H   0  0  0  0  0  0  0  0  0  0  0  0
    0.7855   -0.7316   -1.9710 H   0  0  0  0  0  0  0  0  0  0  0  0
    1.8918    1.5001   -0.3916 H   0  0  0  0  0  0  0  0  0  0  0  0
    0.5184    1.6005   -1.4855 H   0  0  0  0  0  0  0  0  0  0  0  0
    0.0038    1.9661    1.1351 H   0  0  0  0  0  0  0  0  0  0  0  0
   -1.7351    1.1944   -0.7746 H   0  0  0  0  0  0  0  0  0  0  0  0
   -2.1465    0.7723    0.8824 H   0  0  0  0  0  0  0  0  0  0  0  0
   -1.4680   -1.1377   -1.2601 H   0  0  0  0  0  0  0  0  0  0  0  0
   -1.8859   -1.5030    0.4087 H   0  0  0  0  0  0  0  0  0  0  0  0
    0.4812   -2.2025    0.2673 H   0  0  0  0  0  0  0  0  0  0  0  0
    1.4942   -0.1701    1.6391 H   0  0  0  0  0  0  0  0  0  0  0  0
   -0.1779   -0.4714    2.1666 H   0  0  0  0  0  0  0  0  0  0  0  0
  1  2  1  0
  1  6  1  0
  1  8  1  0
  1  9  1  0
  2  3  1  0
  2 10  1  0
  2 11  1  0
  3  4  1  0
  3  7  1  0
  3 12  1  0
  4  5  1  0
  4 13  1  0
  4 14  1  0
  5  6  1  0
  5 15  1  0
  5 16  1  0
  6  7  1  0
  6 17  1  0
  7 18  1  0
  7 19  1  0
M  END
>  <reaction>  (3) 
rxn_748

>  <mol_properties>  (3) 
{"0": {"label": "a_hydrogen", "atom_type": "H0"}, "1": {"label": "acceptor", "atom_type": "Cs"}}

>  <type>  (3) 
r2h

$$$$

     RDKit          3D

 31 31  0  0  0  0  0  0  0  0999 V2000
    1.9601   -2.8035   -1.1834 C   0  0  0  0  0  0  0  0  0  0  0  0
    1.4885   -2.0797   -0.1747 C   0  0  0  0  0  0  0  0  0  0  0  0
    0.0716   -2.0183    0.2282 C   0  0  0  0  0  0  0  0  0  0  0  0
   -0.2584   -1.9621    1.6681 C   0  0  0  0  0  0  0  0  0  0  0  0
    0.5951   -1.8919    2.6845 C   0  0  0  0  0  0  0  0  0  0  0  0
    3.0056   -2.7713   -1.4621 H   0  0  0  0  0  0  0  0  0  0  0  0
    1.3157   -3.4575   -1.7610 H   0  0  0  0  0  0  0  0  0  0  0  0
    2.1753   -1.4379    0.3706 H   0  0  0  0  0  0  0  0  0  0  0  0
   -0.3671   -0.9556   -0.2675 H   0  0  0  0  0  0  0  0  0  0  0  0
   -0.5406   -2.7522   -0.3000 H   0  0  0  0  0  0  0  0  0  0  0  0
   -1.3227   -1.9520    1.8887 H   0  0  0  0  0  0  0  0  0  0  0  0
    1.6687   -1.9160    2.5420 H   0  0  0  0  0  0  0  0  0  0  0  0
    0.2397   -1.8227    3.7044 H   0  0  0  0  0  0  0  0  0  0  0  0
   -0.7623    0.2739   -1.0194 C   0  0  0  0  0  3  0  0  0  0  0  0
    0.4163    1.2248   -0.9883 C   0  0  0  0  0  0  0  0  0  0  0  0
   -0.2183    2.4738   -1.6390 C   0  0  0  0  0  0  0  0  0  0  0  0
   -1.6916    2.4247   -1.1370 C   0  0  0  0  0  0  0  0  0  0  0  0
   -1.7161    1.1618   -0.2469 C   0  0  0  0  0  0  0  0  0  0  0  0
   -0.9083    1.4628    1.0275 C   0  0  0  0  0  0  0  0  0  0  0  0
    0.5592    1.4904    0.5201 C   0  0  0  0  0  0  0  0  0  0  0  0
   -1.0791   -0.1438   -1.9734 H   0  0  0  0  0  0  0  0  0  0  0  0
    1.3291    0.8842   -1.4731 H   0  0  0  0  0  0  0  0  0  0  0  0
   -0.1723    2.4088   -2.7269 H   0  0  0  0  0  0  0  0  0  0  0  0
    0.2980    3.3886   -1.3422 H   0  0  0  0  0  0  0  0  0  0  0  0
   -1.9778    3.3172   -0.5776 H   0  0  0  0  0  0  0  0  0  0  0  0
   -2.3864    2.3229   -1.9719 H   0  0  0  0  0  0  0  0  0  0  0  0
   -2.7153    0.7709   -0.0640 H   0  0  0  0  0  0  0  0  0  0  0  0
   -1.2144    2.4058    1.4827 H   0  0  0  0  0  0  0  0  0  0  0  0
   -1.0429    0.6773    1.7712 H   0  0  0  0  0  0  0  0  0  0  0  0
    1.0577    2.4402    0.7178 H   0  0  0  0  0  0  0  0  0  0  0  0
    1.1444    0.7048    1.0008 H   0  0  0  0  0  0  0  0  0  0  0  0
  1  2  2  3
  1  6  1  0
  1  7  1  0
  2  3  1  0
  2  8  1  0
  3  4  1  0
  3  9  1  0
  3 10  1  0
  4  5  2  3
  4 11  1  0
  5 12  1  0
  5 13  1  0
 14 15  1  0
 14 18  1  0
 14 21  1  0
 15 16  1  0
 15 20  1  0
 15 22  1  0
 16 17  1  0
 16 23  1  0
 16 24  1  0
 17 18  1  0
 17 25  1  0
 17 26  1  0
 18 19  1  0
 18 27  1  0
 19 20  1  0
 19 28  1  0
 19 29  1  0
 20 30  1  0
 20 31  1  0
M  RAD  1  14   2
M  END
>  <reaction>  (4) 
rxn_748

>  <mol_properties>  (4) 
{"1": {"label": "*0", "atom_type": "Cd"}, "2": {"label": "*1", "atom_type": "Cs"}, "8": {"label": "*2", "atom_type": "H0"}, "13": {"label": "*3", "atom_type": "Cs"}, "14": {"label": "*4", "atom_type": "Cs"}}

>  <type>  (4) 
ts

$$$$
