
     RDKit          3D

  9  8  0  0  0  0  0  0  0  0999 V2000
   -2.1022   -0.6873    0.3932 C   0  0  0  0  0  0  0  0  0  0  0  0
   -1.2072   -0.1086   -0.1482 C   0  0  0  0  0  0  0  0  0  0  0  0
   -0.1242    0.6105   -0.8193 C   0  0  0  0  0  0  0  0  0  0  0  0
    1.2067    0.1106   -0.4741 C   0  0  0  0  0  0  0  0  0  0  0  0
    2.3005   -0.2875   -0.2012 C   0  0  0  0  0  0  0  0  0  0  0  0
   -2.8942   -1.2059    0.8778 H   0  0  0  0  0  0  0  0  0  0  0  0
   -0.1862    1.6723   -0.5649 H   0  0  0  0  0  0  0  0  0  0  0  0
   -0.2641    0.5418   -1.9017 H   0  0  0  0  0  0  0  0  0  0  0  0
    3.2709   -0.6459    0.0455 H   0  0  0  0  0  0  0  0  0  0  0  0
  1  2  3  0
  1  6  1  0
  2  3  1  0
  3  4  1  0
  3  7  1  0
  3  8  1  0
  4  5  3  0
  5  9  1  0
M  END
>  <reaction>  (1) 
rxn_1357

>  <mol_properties>  (1) 
{"2": {"label": "donator", "atom_type": "Cs"}, "6": {"label": "d_hydrogen", "atom_type": "H0"}}

>  <type>  (1) 
r1h

$$$$

     RDKit          3D

 12 11  0  0  0  0  0  0  0  0999 V2000
    2.5164   -0.5559   -0.0242 C   0  0  0  0  0  0  0  0  0  0  0  0
    1.3287   -0.2938   -0.0132 C   0  0  0  0  0  0  0  0  0  0  0  0
   -0.0146    0.0027   -0.0006 C   0  0  0  0  0  3  0  0  0  0  0  0
   -1.0396   -1.0729   -0.1642 C   0  0  0  0  0  0  0  0  0  0  0  0
   -0.4887    1.4091    0.1769 C   0  0  0  0  0  0  0  0  0  0  0  0
    3.5543   -0.7850   -0.0339 H   0  0  0  0  0  0  0  0  0  0  0  0
   -1.7064   -1.1056    0.7044 H   0  0  0  0  0  0  0  0  0  0  0  0
   -0.5831   -2.0533   -0.2854 H   0  0  0  0  0  0  0  0  0  0  0  0
   -1.6716   -0.8741   -1.0367 H   0  0  0  0  0  0  0  0  0  0  0  0
   -1.0951    1.7228   -0.6798 H   0  0  0  0  0  0  0  0  0  0  0  0
    0.3401    2.1059    0.2861 H   0  0  0  0  0  0  0  0  0  0  0  0
   -1.1300    1.4913    1.0613 H   0  0  0  0  0  0  0  0  0  0  0  0
  1  2  3  0
  1  6  1  0
  2  3  1  0
  3  4  1  0
  3  5  1  0
  4  7  1  0
  4  8  1  0
  4  9  1  0
  5 10  1  0
  5 11  1  0
  5 12  1  0
M  RAD  1   3   2
M  END
>  <reaction>  (2) 
rxn_1357

>  <mol_properties>  (2) 
{"2": {"label": "acceptor", "atom_type": "Cs"}}

>  <type>  (2) 
r2

$$$$

     RDKit          3D

 13 12  0  0  0  0  0  0  0  0999 V2000
    2.2975   -0.6134    0.7685 C   0  0  0  0  0  0  0  0  0  0  0  0
    1.1676   -0.5248    0.3802 C   0  0  0  0  0  0  0  0  0  0  0  0
   -0.2109   -0.3926   -0.0948 C   0  0  0  0  0  0  0  0  0  0  0  0
   -0.2501    0.2584   -1.4808 C   0  0  0  0  0  0  0  0  0  0  0  0
   -1.0633    0.3831    0.9141 C   0  0  0  0  0  0  0  0  0  0  0  0
    3.2999   -0.6974    1.1133 H   0  0  0  0  0  0  0  0  0  0  0  0
   -0.6209   -1.4038   -0.1814 H   0  0  0  0  0  0  0  0  0  0  0  0
    0.3402   -0.3102   -2.1992 H   0  0  0  0  0  0  0  0  0  0  0  0
    0.1511    1.2724   -1.4369 H   0  0  0  0  0  0  0  0  0  0  0  0
   -1.2791    0.3109   -1.8407 H   0  0  0  0  0  0  0  0  0  0  0  0
   -0.6861    1.4008    1.0287 H   0  0  0  0  0  0  0  0  0  0  0  0
   -1.0492   -0.0971    1.8924 H   0  0  0  0  0  0  0  0  0  0  0  0
   -2.0971    0.4363    0.5680 H   0  0  0  0  0  0  0  0  0  0  0  0
  1  2  3  0
  1  6  1  0
  2  3  1  0
  3  4  1  0
  3  5  1  0
  3  7  1  0
  4  8  1  0
  4  9  1  0
  4 10  1  0
  5 11  1  0
  5 12  1  0
  5 13  1  0
M  END
>  <reaction>  (3) 
rxn_1357

>  <mol_properties>  (3) 
{"2": {"label": "acceptor", "atom_type": "Cs"}, "12": {"label": "a_hydrogen", "atom_type": "H0"}}

>  <type>  (3) 
r2h

$$$$

     RDKit          3D

 21 19  0  0  0  0  0  0  0  0999 V2000
    3.3286    0.7393   -0.3966 C   0  0  0  0  0  0  0  0  0  0  0  0
    2.2335    0.7950    0.0982 C   0  0  0  0  0  0  0  0  0  0  0  0
    0.9139    0.8234    0.6381 C   0  0  0  0  0  3  0  0  0  0  0  0
    0.1691    2.1318    0.4910 C   0  0  0  0  0  0  0  0  0  0  0  0
    0.7267    0.1088    1.9576 C   0  0  0  0  0  0  0  0  0  0  0  0
    4.3014    0.6941   -0.8236 H   0  0  0  0  0  0  0  0  0  0  0  0
   -0.8932    1.9822    0.6917 H   0  0  0  0  0  0  0  0  0  0  0  0
    0.2827    2.5421   -0.5123 H   0  0  0  0  0  0  0  0  0  0  0  0
    0.5503    2.8692    1.2037 H   0  0  0  0  0  0  0  0  0  0  0  0
    1.1741    0.6856    2.7723 H   0  0  0  0  0  0  0  0  0  0  0  0
    1.1916   -0.8765    1.9385 H   0  0  0  0  0  0  0  0  0  0  0  0
   -0.3377   -0.0114    2.1684 H   0  0  0  0  0  0  0  0  0  0  0  0
   -2.9708   -0.3716   -0.0178 C   0  0  0  0  0  0  0  0  0  0  0  0
   -1.8735   -0.6092   -0.4433 C   0  0  0  0  0  0  0  0  0  0  0  0
   -0.5396   -0.8339   -0.9115 C   0  0  0  0  0  0  0  0  0  0  0  0
    0.0350   -2.1231   -0.6775 C   0  0  0  0  0  0  0  0  0  0  0  0
    0.5676   -3.1744   -0.4505 C   0  0  0  0  0  0  0  0  0  0  0  0
   -3.9524   -0.1810    0.3440 H   0  0  0  0  0  0  0  0  0  0  0  0
    0.2277    0.0042   -0.1935 H   0  0  0  0  0  0  0  0  0  0  0  0
   -0.3516   -0.4443   -1.9112 H   0  0  0  0  0  0  0  0  0  0  0  0
    1.0259   -4.1151   -0.2617 H   0  0  0  0  0  0  0  0  0  0  0  0
  1  2  3  0
  1  6  1  0
  2  3  1  0
  3  4  1  0
  3  5  1  0
  4  7  1  0
  4  8  1  0
  4  9  1  0
  5 10  1  0
  5 11  1  0
  5 12  1  0
 13 14  3  0
 13 18  1  0
 14 15  1  0
 15 16  1  0
 15 19  1  0
 15 20  1  0
 16 17  3  0
 17 21  1  0
M  RAD  1   3   2
M  END
>  <reaction>  (4) 
rxn_1357

>  <mol_properties>  (4) 
{"1": {"label": "*4", "atom_type": "Ct"}, "2": {"label": "*3", "atom_type": "Cs"}, "13": {"label": "*0", "atom_type": "Ct"}, "14": {"label": "*1", "atom_type": "Cs"}, "18": {"label": "*2", "atom_type": "H0"}}

>  <type>  (4) 
ts

$$$$
