
     RDKit          3D

  9  8  0  0  0  0  0  0  0  0999 V2000
    1.1303   -0.2933   -0.7510 C   0  0  0  0  0  0  0  0  0  0  0  0
    0.2866    0.4560   -0.0588 C   0  0  0  0  0  0  0  0  0  0  0  0
   -0.9719   -0.0331    0.5823 C   0  0  0  0  0  0  0  0  0  0  0  0
    2.0274    0.1230   -1.1916 H   0  0  0  0  0  0  0  0  0  0  0  0
    0.9532   -1.3530   -0.9023 H   0  0  0  0  0  0  0  0  0  0  0  0
    0.5065    1.5132    0.0659 H   0  0  0  0  0  0  0  0  0  0  0  0
   -0.9526    0.1426    1.6610 H   0  0  0  0  0  0  0  0  0  0  0  0
   -1.1182   -1.1002    0.4106 H   0  0  0  0  0  0  0  0  0  0  0  0
   -1.8412    0.5010    0.1901 H   0  0  0  0  0  0  0  0  0  0  0  0
  1  2  2  3
  1  4  1  0
  1  5  1  0
  2  3  1  0
  2  6  1  0
  3  7  1  0
  3  8  1  0
  3  9  1  0
M  END
>  <reaction>  (1) 
rxn_174

>  <mol_properties>  (1) 
{"0": {"label": "donator", "atom_type": "Cd"}, "3": {"label": "d_hydrogen", "atom_type": "H0"}}

>  <type>  (1) 
r1h

$$$$

     RDKit          3D

 11 11  0  0  0  0  0  0  0  0999 V2000
    0.1524   -1.5397    0.0698 C   0  0  0  0  0  3  0  0  0  0  0  0
   -1.1218   -1.0406    0.0516 C   0  0  0  0  0  0  0  0  0  0  0  0
   -1.2464    0.3470   -0.0114 C   0  0  0  0  0  0  0  0  0  0  0  0
   -0.1137    1.1487   -0.0521 C   0  0  0  0  0  0  0  0  0  0  0  0
    1.1542    0.5837   -0.0308 C   0  0  0  0  0  0  0  0  0  0  0  0
    1.3041   -0.8014    0.0319 C   0  0  0  0  0  0  0  0  0  0  0  0
   -1.9955   -1.6793    0.0840 H   0  0  0  0  0  0  0  0  0  0  0  0
   -2.2319    0.7966   -0.0284 H   0  0  0  0  0  0  0  0  0  0  0  0
   -0.2203    2.2248   -0.1009 H   0  0  0  0  0  0  0  0  0  0  0  0
    2.0325    1.2173   -0.0630 H   0  0  0  0  0  0  0  0  0  0  0  0
    2.2862   -1.2570    0.0492 H   0  0  0  0  0  0  0  0  0  0  0  0
  1  2  2  0
  1  6  1  0
  2  3  1  0
  2  7  1  0
  3  4  2  0
  3  8  1  0
  4  5  1  0
  4  9  1  0
  5  6  2  0
  5 10  1  0
  6 11  1  0
M  RAD  1   1   2
M  END
>  <reaction>  (2) 
rxn_174

>  <mol_properties>  (2) 
{"0": {"label": "acceptor", "atom_type": "Cd"}}

>  <type>  (2) 
r2

$$$$

     RDKit          3D

 12 12  0  0  0  0  0  0  0  0999 V2000
   -1.2385    0.6248   -0.0199 C   0  0  0  0  0  0  0  0  0  0  0  0
   -0.0779    1.3848   -0.0298 C   0  0  0  0  0  0  0  0  0  0  0  0
    1.1605    0.7600   -0.0100 C   0  0  0  0  0  0  0  0  0  0  0  0
    1.2385   -0.6248    0.0199 C   0  0  0  0  0  0  0  0  0  0  0  0
    0.0779   -1.3848    0.0298 C   0  0  0  0  0  0  0  0  0  0  0  0
   -1.1606   -0.7600    0.0100 C   0  0  0  0  0  0  0  0  0  0  0  0
   -2.2052    1.1125   -0.0354 H   0  0  0  0  0  0  0  0  0  0  0  0
   -0.1387    2.4657   -0.0531 H   0  0  0  0  0  0  0  0  0  0  0  0
    2.0664    1.3532   -0.0177 H   0  0  0  0  0  0  0  0  0  0  0  0
    2.2052   -1.1125    0.0354 H   0  0  0  0  0  0  0  0  0  0  0  0
    0.1387   -2.4657    0.0531 H   0  0  0  0  0  0  0  0  0  0  0  0
   -2.0664   -1.3532    0.0177 H   0  0  0  0  0  0  0  0  0  0  0  0
  1  2  2  0
  1  6  1  0
  1  7  1  0
  2  3  1  0
  2  8  1  0
  3  4  2  0
  3  9  1  0
  4  5  1  0
  4 10  1  0
  5  6  2  0
  5 11  1  0
  6 12  1  0
M  END
>  <reaction>  (3) 
rxn_174

>  <mol_properties>  (3) 
{"0": {"label": "a_hydrogen", "atom_type": "H0"}, "1": {"label": "acceptor", "atom_type": "Cd"}}

>  <type>  (3) 
r2h

$$$$

     RDKit          3D

 20 19  0  0  0  0  0  0  0  0999 V2000
   -0.6535    0.1927   -2.2496 C   0  0  0  0  0  0  0  0  0  0  0  0
    0.3212   -0.3791   -2.9236 C   0  0  0  0  0  0  0  0  0  0  0  0
    0.3889   -0.5047   -4.4164 C   0  0  0  0  0  0  0  0  0  0  0  0
   -0.5392    0.2083   -0.9386 H   0  0  0  0  0  0  0  0  0  0  0  0
   -1.5486    0.6570   -2.6497 H   0  0  0  0  0  0  0  0  0  0  0  0
    1.1567   -0.8016   -2.3680 H   0  0  0  0  0  0  0  0  0  0  0  0
    1.2859   -0.0145   -4.8027 H   0  0  0  0  0  0  0  0  0  0  0  0
   -0.4825   -0.0580   -4.8954 H   0  0  0  0  0  0  0  0  0  0  0  0
    0.4454   -1.5556   -4.7110 H   0  0  0  0  0  0  0  0  0  0  0  0
   -0.3135    0.1632    0.3730 C   0  0  0  0  0  3  0  0  0  0  0  0
   -0.7729   -0.9224    1.0875 C   0  0  0  0  0  0  0  0  0  0  0  0
   -0.5267   -0.9703    2.4551 C   0  0  0  0  0  0  0  0  0  0  0  0
    0.1691    0.0603    3.0718 C   0  0  0  0  0  0  0  0  0  0  0  0
    0.6230    1.1422    2.3300 C   0  0  0  0  0  0  0  0  0  0  0  0
    0.3811    1.1980    0.9619 C   0  0  0  0  0  0  0  0  0  0  0  0
   -1.3136   -1.7216    0.5946 H   0  0  0  0  0  0  0  0  0  0  0  0
   -0.8778   -1.8126    3.0388 H   0  0  0  0  0  0  0  0  0  0  0  0
    0.3593    0.0199    4.1369 H   0  0  0  0  0  0  0  0  0  0  0  0
    1.1663    1.9433    2.8164 H   0  0  0  0  0  0  0  0  0  0  0  0
    0.7316    2.0364    0.3720 H   0  0  0  0  0  0  0  0  0  0  0  0
  1  2  2  3
  1  4  1  0
  1  5  1  0
  2  3  1  0
  2  6  1  0
  3  7  1  0
  3  8  1  0
  3  9  1  0
 10 11  2  0
 10 15  1  0
 11 12  1  0
 11 16  1  0
 12 13  2  0
 12 17  1  0
 13 14  1  0
 13 18  1  0
 14 15  2  0
 14 19  1  0
 15 20  1  0
M  RAD  1  10   2
M  END
>  <reaction>  (4) 
rxn_174

>  <mol_properties>  (4) 
{"0": {"label": "*1", "atom_type": "Cd"}, "1": {"label": "*0", "atom_type": "Cd"}, "3": {"label": "*2", "atom_type": "H0"}, "9": {"label": "*3", "atom_type": "Cd"}, "10": {"label": "*4", "atom_type": "Cd"}}

>  <type>  (4) 
ts

$$$$
