
     RDKit          3D

  7  6  0  0  0  0  0  0  0  0999 V2000
   -0.6782    0.0507    0.0301 C   0  0  0  0  0  0  0  0  0  0  0  0
    0.8092    0.0996    0.0213 C   0  0  0  0  0  0  0  0  0  0  0  0
    1.7473    0.7521    1.1507 S   0  0  0  0  0  0  0  0  0  0  0  0
   -1.0667    0.5456   -0.8653 H   0  0  0  0  0  0  0  0  0  0  0  0
   -1.0112   -0.9904   -0.0239 H   0  0  0  0  0  0  0  0  0  0  0  0
   -1.0920    0.5225    0.9188 H   0  0  0  0  0  0  0  0  0  0  0  0
    1.2740   -0.3620   -0.8520 H   0  0  0  0  0  0  0  0  0  0  0  0
  1  2  1  0
  1  4  1  0
  1  5  1  0
  1  6  1  0
  2  3  2  0
  2  7  1  0
M  END
>  <reaction>  (1) 
rxn_1989

>  <mol_properties>  (1) 
{"0": {"label": "donator", "atom_type": "Cs"}, "3": {"label": "d_hydrogen", "atom_type": "H0"}}

>  <type>  (1) 
r1h

$$$$

     RDKit          3D

  3  2  0  0  0  0  0  0  0  0999 V2000
   -0.2614    0.0642    0.2600 C   0  0  0  0  0  3  0  0  0  0  0  0
    1.1418    0.6115   -0.1062 S   0  0  0  0  0  0  0  0  0  0  0  0
   -0.8805   -0.7296   -0.1538 H   0  0  0  0  0  0  0  0  0  0  0  0
  1  2  2  0
  1  3  1  0
M  RAD  1   1   2
M  END
>  <reaction>  (2) 
rxn_1989

>  <mol_properties>  (2) 
{"0": {"label": "acceptor", "atom_type": "CS"}}

>  <type>  (2) 
r2

$$$$

     RDKit          3D

  4  3  0  0  0  0  0  0  0  0999 V2000
   -0.1097    0.0067    0.0027 C   0  0  0  0  0  0  0  0  0  0  0  0
    1.4849   -0.0901   -0.0362 S   0  0  0  0  0  0  0  0  0  0  0  0
   -0.6318    0.9620    0.0167 H   0  0  0  0  0  0  0  0  0  0  0  0
   -0.7434   -0.8786    0.0168 H   0  0  0  0  0  0  0  0  0  0  0  0
  1  2  2  0
  1  3  1  0
  1  4  1  0
M  END
>  <reaction>  (3) 
rxn_1989

>  <mol_properties>  (3) 
{"0": {"label": "acceptor", "atom_type": "CS"}, "3": {"label": "a_hydrogen", "atom_type": "H0"}}

>  <type>  (3) 
r2h

$$$$

     RDKit          3D

 10  8  0  0  0  0  0  0  0  0999 V2000
   -0.9015    0.8100    1.6588 C   0  0  0  0  0  3  0  0  0  0  0  0
   -1.8459   -0.3470    1.2010 S   0  0  0  0  0  0  0  0  0  0  0  0
   -1.1344    1.7246    2.2027 H   0  0  0  0  0  0  0  0  0  0  0  0
    1.4071    0.8754    0.2547 C   0  0  0  0  0  0  0  0  0  0  0  0
    1.2222   -0.2878   -0.5608 C   0  0  0  0  0  0  0  0  0  0  0  0
    0.3248   -0.3464   -1.9254 S   0  0  0  0  0  0  0  0  0  0  0  0
    0.3911    0.8249    1.0552 H   0  0  0  0  0  0  0  0  0  0  0  0
    2.2499    0.8569    0.9431 H   0  0  0  0  0  0  0  0  0  0  0  0
    1.2514    1.8293   -0.2426 H   0  0  0  0  0  0  0  0  0  0  0  0
    1.6615   -1.2110   -0.1833 H   0  0  0  0  0  0  0  0  0  0  0  0
  1  2  2  0
  1  3  1  0
  4  5  1  0
  4  7  1  0
  4  8  1  0
  4  9  1  0
  5  6  2  0
  5 10  1  0
M  RAD  1   1   2
M  END
>  <reaction>  (4) 
rxn_1989

>  <mol_properties>  (4) 
{"0": {"label": "*3", "atom_type": "CS"}, "1": {"label": "*4", "atom_type": "S2d"}, "3": {"label": "*1", "atom_type": "Cs"}, "4": {"label": "*0", "atom_type": "CS"}, "6": {"label": "*2", "atom_type": "H0"}}

>  <type>  (4) 
ts

$$$$
