
     RDKit          3D

  4  3  0  0  0  0  0  0  0  0999 V2000
   -0.0057    0.0001   -0.0008 C   0  0  0  0  0  0  0  0  0  0  0  0
    1.1789   -0.0174    0.1563 O   0  0  0  0  0  0  0  0  0  0  0  0
   -0.5891    0.9399    0.0445 H   0  0  0  0  0  0  0  0  0  0  0  0
   -0.5841   -0.9226   -0.2001 H   0  0  0  0  0  0  0  0  0  0  0  0
  1  2  2  0
  1  3  1  0
  1  4  1  0
M  END
>  <reaction>  (1) 
rxn_366

>  <mol_properties>  (1) 
{"0": {"label": "donator", "atom_type": "CO"}, "2": {"label": "d_hydrogen", "atom_type": "H0"}}

>  <type>  (1) 
r1h

$$$$

     RDKit          3D

  6  5  0  0  0  0  0  0  0  0999 V2000
   -0.4551   -0.0241   -0.0941 C   0  0  0  0  0  0  0  0  0  0  0  0
    0.9212   -0.3399    0.4301 C   0  0  0  0  0  3  0  0  0  0  0  0
    1.9162    0.2688    0.2931 O   0  0  0  0  0  0  0  0  0  0  0  0
   -1.1389    0.0466    0.7520 H   0  0  0  0  0  0  0  0  0  0  0  0
   -0.4555    0.9056   -0.6674 H   0  0  0  0  0  0  0  0  0  0  0  0
   -0.7879   -0.8571   -0.7137 H   0  0  0  0  0  0  0  0  0  0  0  0
  1  2  1  0
  1  4  1  0
  1  5  1  0
  1  6  1  0
  2  3  2  0
M  RAD  1   2   2
M  END
>  <reaction>  (2) 
rxn_366

>  <mol_properties>  (2) 
{"1": {"label": "acceptor", "atom_type": "CO"}}

>  <type>  (2) 
r2

$$$$

     RDKit          3D

  7  6  0  0  0  0  0  0  0  0999 V2000
   -0.6468   -0.0443   -0.0231 C   0  0  0  0  0  0  0  0  0  0  0  0
    0.8470    0.0371    0.0688 C   0  0  0  0  0  0  0  0  0  0  0  0
    1.4866   -0.2280    1.0479 O   0  0  0  0  0  0  0  0  0  0  0  0
   -1.0466    0.9363   -0.2943 H   0  0  0  0  0  0  0  0  0  0  0  0
   -0.9229   -0.7318   -0.8269 H   0  0  0  0  0  0  0  0  0  0  0  0
   -1.0759   -0.3772    0.9198 H   0  0  0  0  0  0  0  0  0  0  0  0
    1.3584    0.3712   -0.8589 H   0  0  0  0  0  0  0  0  0  0  0  0
  1  2  1  0
  1  4  1  0
  1  5  1  0
  1  6  1  0
  2  3  2  0
  2  7  1  0
M  END
>  <reaction>  (3) 
rxn_366

>  <mol_properties>  (3) 
{"0": {"label": "a_hydrogen", "atom_type": "H0"}, "2": {"label": "acceptor", "atom_type": "CO"}}

>  <type>  (3) 
r2h

$$$$

     RDKit          3D

 10  8  0  0  0  0  0  0  0  0999 V2000
   -0.0239   -1.6191   -0.6940 C   0  0  0  0  0  3  0  0  0  0  0  0
   -0.0354   -1.5296   -1.8744 O   0  0  0  0  0  0  0  0  0  0  0  0
   -0.0055   -0.4754    0.1014 H   0  0  0  0  0  0  0  0  0  0  0  0
   -0.0271   -2.6009   -0.1590 H   0  0  0  0  0  0  0  0  0  0  0  0
    0.0138    1.9156   -0.0868 C   0  0  0  0  0  0  0  0  0  0  0  0
    0.0123    0.7086    0.8060 C   0  0  0  0  0  0  0  0  0  0  0  0
    0.0245    0.6912    1.9917 O   0  0  0  0  0  0  0  0  0  0  0  0
   -0.8699    1.8784   -0.7268 H   0  0  0  0  0  0  0  0  0  0  0  0
    0.0280    2.8375    0.4945 H   0  0  0  0  0  0  0  0  0  0  0  0
    0.8832    1.8628   -0.7450 H   0  0  0  0  0  0  0  0  0  0  0  0
  1  2  2  0
  1  4  1  0
  3  6  1  0
  5  6  1  0
  5  8  1  0
  5  9  1  0
  5 10  1  0
  6  7  2  0
M  RAD  1   1   2
M  END
>  <reaction>  (4) 
rxn_366

>  <mol_properties>  (4) 
{"0": {"label": "*3", "atom_type": "CO"}, "1": {"label": "*4", "atom_type": "O2d"}, "2": {"label": "*2", "atom_type": "H0"}, "5": {"label": "*1", "atom_type": "CO"}, "6": {"label": "*0", "atom_type": "O2d"}}

>  <type>  (4) 
ts

$$$$
