
     RDKit          3D

  9  8  0  0  0  0  0  0  0  0999 V2000
   -0.8818   -0.3578    0.1297 C   0  0  0  0  0  0  0  0  0  0  0  0
    0.6153   -0.3021   -0.1188 C   0  0  0  0  0  0  0  0  0  0  0  0
    1.5354   -1.7170    0.5545 S   0  0  0  0  0  0  0  0  0  0  0  0
   -1.1018   -0.3317    1.1984 H   0  0  0  0  0  0  0  0  0  0  0  0
   -1.3114   -1.2723   -0.2799 H   0  0  0  0  0  0  0  0  0  0  0  0
   -1.3767    0.4976   -0.3363 H   0  0  0  0  0  0  0  0  0  0  0  0
    1.0467    0.6194    0.2718 H   0  0  0  0  0  0  0  0  0  0  0  0
    0.8295   -0.3275   -1.1882 H   0  0  0  0  0  0  0  0  0  0  0  0
    1.2306   -1.5077    1.8423 H   0  0  0  0  0  0  0  0  0  0  0  0
  1  2  1  0
  1  4  1  0
  1  5  1  0
  1  6  1  0
  2  3  1  0
  2  7  1  0
  2  8  1  0
  3  9  1  0
M  END
>  <reaction>  (1) 
rxn_1891

>  <mol_properties>  (1) 
{"1": {"label": "donator", "atom_type": "Cs"}, "6": {"label": "d_hydrogen", "atom_type": "H0"}}

>  <type>  (1) 
r1h

$$$$

     RDKit          3D

  6  5  0  0  0  0  0  0  0  0999 V2000
    1.7035    0.4954    0.0162 S   0  0  0  0  0  0  0  0  0  0  0  0
    0.1927   -0.1841   -0.3584 C   0  0  0  0  0  3  0  0  0  0  0  0
   -1.0558    0.0577   -0.0460 C   0  0  0  0  0  0  0  0  0  0  0  0
    2.3611   -0.6557    0.2254 H   0  0  0  0  0  0  0  0  0  0  0  0
   -1.8677   -0.4245   -0.5802 H   0  0  0  0  0  0  0  0  0  0  0  0
   -1.3294    0.7333    0.7635 H   0  0  0  0  0  0  0  0  0  0  0  0
  1  2  1  0
  1  4  1  0
  2  3  2  3
  3  5  1  0
  3  6  1  0
M  RAD  1   2   2
M  END
>  <reaction>  (2) 
rxn_1891

>  <mol_properties>  (2) 
{"1": {"label": "acceptor", "atom_type": "Cd"}}

>  <type>  (2) 
r2

$$$$

     RDKit          3D

  7  6  0  0  0  0  0  0  0  0999 V2000
    1.2020   -0.5069    1.0970 S   0  0  0  0  0  0  0  0  0  0  0  0
    0.2449    0.0208   -0.2711 C   0  0  0  0  0  0  0  0  0  0  0  0
    0.6491    0.2538   -1.5109 C   0  0  0  0  0  0  0  0  0  0  0  0
    2.3807   -0.5751    0.4630 H   0  0  0  0  0  0  0  0  0  0  0  0
   -0.7959    0.1526    0.0036 H   0  0  0  0  0  0  0  0  0  0  0  0
    1.6808    0.1320   -1.8181 H   0  0  0  0  0  0  0  0  0  0  0  0
   -0.0586    0.5786   -2.2618 H   0  0  0  0  0  0  0  0  0  0  0  0
  1  2  1  0
  1  4  1  0
  2  3  2  3
  2  5  1  0
  3  6  1  0
  3  7  1  0
M  END
>  <reaction>  (3) 
rxn_1891

>  <mol_properties>  (3) 
{"1": {"label": "acceptor", "atom_type": "Cd"}, "6": {"label": "a_hydrogen", "atom_type": "H0"}}

>  <type>  (3) 
r2h

$$$$

     RDKit          3D

 15 13  0  0  0  0  0  0  0  0999 V2000
    2.1778   -0.2926    1.0378 S   0  0  0  0  0  0  0  0  0  0  0  0
    0.6623   -1.1037    0.8398 C   0  0  0  0  0  3  0  0  0  0  0  0
    0.3573   -2.3726    1.0245 C   0  0  0  0  0  0  0  0  0  0  0  0
    1.6622    0.9264    1.2639 H   0  0  0  0  0  0  0  0  0  0  0  0
   -0.6249   -2.7442    0.7546 H   0  0  0  0  0  0  0  0  0  0  0  0
    1.0558   -3.0879    1.4497 H   0  0  0  0  0  0  0  0  0  0  0  0
   -1.4693   -0.1843   -1.6501 C   0  0  0  0  0  0  0  0  0  0  0  0
   -1.2118    0.4409   -0.3018 C   0  0  0  0  0  0  0  0  0  0  0  0
   -0.6077    2.1183   -0.2913 S   0  0  0  0  0  0  0  0  0  0  0  0
   -0.5524   -0.2191   -2.2419 H   0  0  0  0  0  0  0  0  0  0  0  0
   -2.2172    0.3777   -2.2140 H   0  0  0  0  0  0  0  0  0  0  0  0
   -1.8261   -1.2085   -1.5277 H   0  0  0  0  0  0  0  0  0  0  0  0
   -0.3348   -0.2784    0.2805 H   0  0  0  0  0  0  0  0  0  0  0  0
   -2.0679    0.4038    0.3713 H   0  0  0  0  0  0  0  0  0  0  0  0
    0.3583    1.9455   -1.2052 H   0  0  0  0  0  0  0  0  0  0  0  0
  1  2  1  0
  1  4  1  0
  2  3  2  3
  3  5  1  0
  3  6  1  0
  7  8  1  0
  7 10  1  0
  7 11  1  0
  7 12  1  0
  8  9  1  0
  8 13  1  0
  8 14  1  0
  9 15  1  0
M  RAD  1   2   2
M  END
>  <reaction>  (4) 
rxn_1891

>  <mol_properties>  (4) 
{"0": {"label": "*4", "atom_type": "S2s"}, "1": {"label": "*3", "atom_type": "Cd"}, "7": {"label": "*1", "atom_type": "Cs"}, "8": {"label": "*0", "atom_type": "S2s"}, "12": {"label": "*2", "atom_type": "H0"}}

>  <type>  (4) 
ts

$$$$
