
     RDKit          3D

 13 12  0  0  0  0  0  0  0  0999 V2000
    3.0977   -0.3549   -0.5105 C   0  0  0  0  0  0  0  0  0  0  0  0
    2.0556    0.4221   -0.2627 C   0  0  0  0  0  0  0  0  0  0  0  0
    0.6313   -0.0354   -0.2366 C   0  0  0  0  0  0  0  0  0  0  0  0
   -0.2567    0.6038   -1.2694 C   0  0  0  0  0  0  0  0  0  0  0  0
    0.1459    1.3456   -2.2891 C   0  0  0  0  0  0  0  0  0  0  0  0
    4.1081    0.0344   -0.5074 H   0  0  0  0  0  0  0  0  0  0  0  0
    2.9777   -1.4116   -0.7243 H   0  0  0  0  0  0  0  0  0  0  0  0
    2.2171    1.4781   -0.0618 H   0  0  0  0  0  0  0  0  0  0  0  0
    0.5865   -1.1233   -0.3540 H   0  0  0  0  0  0  0  0  0  0  0  0
    0.2065    0.1743    0.7521 H   0  0  0  0  0  0  0  0  0  0  0  0
   -1.3190    0.4126   -1.1445 H   0  0  0  0  0  0  0  0  0  0  0  0
    1.1948    1.5564   -2.4628 H   0  0  0  0  0  0  0  0  0  0  0  0
   -0.5644    1.7621   -2.9918 H   0  0  0  0  0  0  0  0  0  0  0  0
  1  2  2  3
  1  6  1  0
  1  7  1  0
  2  3  1  0
  2  8  1  0
  3  4  1  0
  3  9  1  0
  3 10  1  0
  4  5  2  3
  4 11  1  0
  5 12  1  0
  5 13  1  0
M  END
>  <reaction>  (1) 
rxn_744

>  <mol_properties>  (1) 
{"2": {"label": "donator", "atom_type": "Cs"}, "8": {"label": "d_hydrogen", "atom_type": "H0"}}

>  <type>  (1) 
r1h

$$$$

     RDKit          3D

 21 22  0  0  0  0  0  0  0  0999 V2000
   -2.2298    0.3537    0.0543 C   0  0  0  0  0  0  0  0  0  0  0  0
   -1.1556    1.4284   -0.1994 C   0  0  0  0  0  0  0  0  0  0  0  0
    0.0609    0.6285   -0.5240 C   0  0  0  0  0  3  0  0  0  0  0  0
    1.4977    1.0080   -0.3953 C   0  0  0  0  0  0  0  0  0  0  0  0
    2.2141   -0.3503   -0.2737 C   0  0  0  0  0  0  0  0  0  0  0  0
    1.1785   -1.2652    0.3956 C   0  0  0  0  0  0  0  0  0  0  0  0
   -0.1494   -0.8311   -0.2398 C   0  0  0  0  0  0  0  0  0  0  0  0
   -1.4409   -0.8502    0.5889 C   0  0  0  0  0  0  0  0  0  0  0  0
   -2.7102    0.0864   -0.8907 H   0  0  0  0  0  0  0  0  0  0  0  0
   -3.0138    0.6865    0.7353 H   0  0  0  0  0  0  0  0  0  0  0  0
   -1.4459    2.1368   -0.9815 H   0  0  0  0  0  0  0  0  0  0  0  0
   -0.9857    2.0292    0.7068 H   0  0  0  0  0  0  0  0  0  0  0  0
    1.6525    1.6113    0.5121 H   0  0  0  0  0  0  0  0  0  0  0  0
    1.8766    1.6104   -1.2268 H   0  0  0  0  0  0  0  0  0  0  0  0
    3.1516   -0.2903    0.2803 H   0  0  0  0  0  0  0  0  0  0  0  0
    2.4485   -0.7309   -1.2715 H   0  0  0  0  0  0  0  0  0  0  0  0
    1.1473   -1.0612    1.4707 H   0  0  0  0  0  0  0  0  0  0  0  0
    1.4017   -2.3251    0.2670 H   0  0  0  0  0  0  0  0  0  0  0  0
   -0.3078   -1.3981   -1.1697 H   0  0  0  0  0  0  0  0  0  0  0  0
   -1.1949   -0.6901    1.6436 H   0  0  0  0  0  0  0  0  0  0  0  0
   -1.9953   -1.7869    0.5178 H   0  0  0  0  0  0  0  0  0  0  0  0
  1  8  1  0
  1  2  1  0
  1  9  1  0
  1 10  1  0
  2  3  1  0
  2 11  1  0
  2 12  1  0
  3  4  1  0
  3  7  1  0
  4  5  1  0
  4 13  1  0
  4 14  1  0
  5  6  1  0
  5 15  1  0
  5 16  1  0
  6  7  1  0
  6 17  1  0
  6 18  1  0
  7  8  1  0
  7 19  1  0
  8 20  1  0
  8 21  1  0
M  RAD  1   3   2
M  END
>  <reaction>  (2) 
rxn_744

>  <mol_properties>  (2) 
{"2": {"label": "acceptor", "atom_type": "Cs"}}

>  <type>  (2) 
r2

$$$$

     RDKit          3D

 22 23  0  0  0  0  0  0  0  0999 V2000
   -2.1093   -0.3263    0.3079 C   0  0  0  0  0  0  0  0  0  0  0  0
   -1.3270    0.9803    0.4115 C   0  0  0  0  0  0  0  0  0  0  0  0
   -0.1818    0.8289   -0.6044 C   0  0  0  0  0  0  0  0  0  0  0  0
    1.1682    1.3904   -0.1341 C   0  0  0  0  0  0  0  0  0  0  0  0
    1.8508    0.2041    0.5479 C   0  0  0  0  0  0  0  0  0  0  0  0
    1.4982   -0.9663   -0.3710 C   0  0  0  0  0  0  0  0  0  0  0  0
    0.0340   -0.7124   -0.7594 C   0  0  0  0  0  0  0  0  0  0  0  0
   -0.9986   -1.3650    0.1756 C   0  0  0  0  0  0  0  0  0  0  0  0
   -2.7686   -0.5042    1.1589 H   0  0  0  0  0  0  0  0  0  0  0  0
   -2.7285   -0.3223   -0.5943 H   0  0  0  0  0  0  0  0  0  0  0  0
   -1.9339    1.8682    0.2289 H   0  0  0  0  0  0  0  0  0  0  0  0
   -0.9144    1.0729    1.4218 H   0  0  0  0  0  0  0  0  0  0  0  0
   -0.4804    1.2763   -1.5535 H   0  0  0  0  0  0  0  0  0  0  0  0
    1.7667    1.7058   -0.9931 H   0  0  0  0  0  0  0  0  0  0  0  0
    1.0540    2.2578    0.5189 H   0  0  0  0  0  0  0  0  0  0  0  0
    1.4197    0.0438    1.5410 H   0  0  0  0  0  0  0  0  0  0  0  0
    2.9248    0.3413    0.6788 H   0  0  0  0  0  0  0  0  0  0  0  0
    2.1362   -0.9329   -1.2584 H   0  0  0  0  0  0  0  0  0  0  0  0
    1.6421   -1.9421    0.0966 H   0  0  0  0  0  0  0  0  0  0  0  0
   -0.1575   -1.0299   -1.7854 H   0  0  0  0  0  0  0  0  0  0  0  0
   -1.3459   -2.3310   -0.1933 H   0  0  0  0  0  0  0  0  0  0  0  0
   -0.5489   -1.5373    1.1593 H   0  0  0  0  0  0  0  0  0  0  0  0
  1  2  1  0
  1  8  1  0
  1  9  1  0
  1 10  1  0
  2  3  1  0
  2 11  1  0
  2 12  1  0
  3  4  1  0
  3  7  1  0
  3 13  1  0
  4  5  1  0
  4 14  1  0
  4 15  1  0
  5  6  1  0
  5 16  1  0
  5 17  1  0
  6  7  1  0
  6 18  1  0
  6 19  1  0
  7  8  1  0
  7 20  1  0
  8 21  1  0
  8 22  1  0
M  END
>  <reaction>  (3) 
rxn_744

>  <mol_properties>  (3) 
{"0": {"label": "a_hydrogen", "atom_type": "H0"}, "3": {"label": "acceptor", "atom_type": "Cs"}}

>  <type>  (3) 
r2h

$$$$

     RDKit          3D

 34 34  0  0  0  0  0  0  0  0999 V2000
   -1.0355   -3.0533   -0.6889 C   0  0  0  0  0  0  0  0  0  0  0  0
    0.0351   -2.5184   -0.1091 C   0  0  0  0  0  0  0  0  0  0  0  0
    0.0076   -1.6622    1.0856 C   0  0  0  0  0  0  0  0  0  0  0  0
    1.1192   -1.7326    2.0530 C   0  0  0  0  0  0  0  0  0  0  0  0
    2.2408   -2.4396    1.9446 C   0  0  0  0  0  0  0  0  0  0  0  0
   -0.9550   -3.6347   -1.5983 H   0  0  0  0  0  0  0  0  0  0  0  0
   -2.0276   -2.9313   -0.2675 H   0  0  0  0  0  0  0  0  0  0  0  0
    1.0055   -2.6680   -0.5747 H   0  0  0  0  0  0  0  0  0  0  0  0
    0.0655   -0.4771    0.6402 H   0  0  0  0  0  0  0  0  0  0  0  0
   -0.9695   -1.6467    1.5726 H   0  0  0  0  0  0  0  0  0  0  0  0
    0.9976   -1.0981    2.9273 H   0  0  0  0  0  0  0  0  0  0  0  0
    2.4278   -3.1080    1.1129 H   0  0  0  0  0  0  0  0  0  0  0  0
    3.0089   -2.3812    2.7047 H   0  0  0  0  0  0  0  0  0  0  0  0
    0.7006    0.5112   -2.2459 C   0  0  0  0  0  0  0  0  0  0  0  0
    1.3323    0.7408   -0.8682 C   0  0  0  0  0  0  0  0  0  0  0  0
    0.1493    0.8378    0.0702 C   0  0  0  0  0  3  0  0  0  0  0  0
    0.1358    1.8258    1.2137 C   0  0  0  0  0  0  0  0  0  0  0  0
   -0.7927    2.9382    0.7033 C   0  0  0  0  0  0  0  0  0  0  0  0
   -1.8787    2.1741   -0.0620 C   0  0  0  0  0  0  0  0  0  0  0  0
   -1.1244    1.0283   -0.7546 C   0  0  0  0  0  0  0  0  0  0  0  0
   -0.6012    1.3099   -2.1719 C   0  0  0  0  0  0  0  0  0  0  0  0
    0.4712   -0.5500   -2.3736 H   0  0  0  0  0  0  0  0  0  0  0  0
    1.3480    0.8147   -3.0694 H   0  0  0  0  0  0  0  0  0  0  0  0
    2.0380   -0.0436   -0.5798 H   0  0  0  0  0  0  0  0  0  0  0  0
    1.8918    1.6846   -0.8580 H   0  0  0  0  0  0  0  0  0  0  0  0
    1.1334    2.1794    1.4786 H   0  0  0  0  0  0  0  0  0  0  0  0
   -0.2981    1.3734    2.1131 H   0  0  0  0  0  0  0  0  0  0  0  0
   -1.1907    3.5678    1.5001 H   0  0  0  0  0  0  0  0  0  0  0  0
   -0.2400    3.5874    0.0179 H   0  0  0  0  0  0  0  0  0  0  0  0
   -2.4260    2.8015   -0.7676 H   0  0  0  0  0  0  0  0  0  0  0  0
   -2.6066    1.7690    0.6458 H   0  0  0  0  0  0  0  0  0  0  0  0
   -1.7252    0.1137   -0.7768 H   0  0  0  0  0  0  0  0  0  0  0  0
   -0.3838    2.3784   -2.2770 H   0  0  0  0  0  0  0  0  0  0  0  0
   -1.3189    1.0425   -2.9486 H   0  0  0  0  0  0  0  0  0  0  0  0
  1  2  2  3
  1  6  1  0
  1  7  1  0
  2  3  1  0
  2  8  1  0
  3  4  1  0
  3  9  1  0
  3 10  1  0
  4  5  2  3
  4 11  1  0
  5 12  1  0
  5 13  1  0
 14 21  1  0
 14 15  1  0
 14 22  1  0
 14 23  1  0
 15 16  1  0
 15 24  1  0
 15 25  1  0
 16 17  1  0
 16 20  1  0
 17 18  1  0
 17 26  1  0
 17 27  1  0
 18 19  1  0
 18 28  1  0
 18 29  1  0
 19 20  1  0
 19 30  1  0
 19 31  1  0
 20 21  1  0
 20 32  1  0
 21 33  1  0
 21 34  1  0
M  RAD  1  16   2
M  END
>  <reaction>  (4) 
rxn_744

>  <mol_properties>  (4) 
{"1": {"label": "*0", "atom_type": "Cd"}, "2": {"label": "*1", "atom_type": "Cs"}, "8": {"label": "*2", "atom_type": "H0"}, "15": {"label": "*3", "atom_type": "Cs"}, "19": {"label": "*4", "atom_type": "Cs"}}

>  <type>  (4) 
ts

$$$$
