
     RDKit          3D

  5  4  0  0  0  0  0  0  0  0999 V2000
   -0.4535    0.0104   -0.2352 N   0  0  0  0  0  0  0  0  0  0  0  0
    0.8506   -0.0148    0.3346 O   0  0  0  0  0  0  0  0  0  0  0  0
   -0.9090    0.8045    0.2022 H   0  0  0  0  0  0  0  0  0  0  0  0
   -0.9099   -0.8179    0.1325 H   0  0  0  0  0  0  0  0  0  0  0  0
    1.4218    0.0179   -0.4341 H   0  0  0  0  0  0  0  0  0  0  0  0
  1  2  1  0
  1  3  1  0
  1  4  1  0
  2  5  1  0
M  END
>  <reaction>  (1) 
rxn_715

>  <mol_properties>  (1) 
{"1": {"label": "donator", "atom_type": "O2s"}, "4": {"label": "d_hydrogen", "atom_type": "H0"}}

>  <type>  (1) 
r1h

$$$$

     RDKit          3D

  4  3  0  0  0  0  0  0  0  0999 V2000
    0.0000    0.0000    0.0000 C   0  0  0  0  0  3  0  0  0  0  0  0
    1.0638   -0.1747    0.0540 H   0  0  0  0  0  0  0  0  0  0  0  0
   -0.6833   -0.8351   -0.0280 H   0  0  0  0  0  0  0  0  0  0  0  0
   -0.3805    1.0098   -0.0260 H   0  0  0  0  0  0  0  0  0  0  0  0
  1  2  1  0
  1  3  1  0
  1  4  1  0
M  RAD  1   1   2
M  END
>  <reaction>  (2) 
rxn_715

>  <mol_properties>  (2) 
{"0": {"label": "acceptor", "atom_type": "Cs"}}

>  <type>  (2) 
r2

$$$$

     RDKit          3D

  5  4  0  0  0  0  0  0  0  0999 V2000
    0.0000    0.0000    0.0000 C   0  0  0  0  0  0  0  0  0  0  0  0
   -0.6486   -0.7720   -0.4113 H   0  0  0  0  0  0  0  0  0  0  0  0
   -0.3482    0.9787   -0.3267 H   0  0  0  0  0  0  0  0  0  0  0  0
   -0.0223   -0.0487    1.0876 H   0  0  0  0  0  0  0  0  0  0  0  0
    1.0191   -0.1580   -0.3496 H   0  0  0  0  0  0  0  0  0  0  0  0
  1  2  1  0
  1  3  1  0
  1  4  1  0
  1  5  1  0
M  END
>  <reaction>  (3) 
rxn_715

>  <mol_properties>  (3) 
{"0": {"label": "a_hydrogen", "atom_type": "H0"}, "1": {"label": "acceptor", "atom_type": "Cs"}}

>  <type>  (3) 
r2h

$$$$

     RDKit          3D

  9  7  0  0  0  0  0  0  0  0999 V2000
   -0.0971   -0.7781   -1.1188 N   0  0  0  0  0  0  0  0  0  0  0  0
    0.1607   -0.8340    0.2322 O   0  0  0  0  0  0  0  0  0  0  0  0
   -0.9140   -1.3485   -1.3017 H   0  0  0  0  0  0  0  0  0  0  0  0
    0.7044   -1.1648   -1.6029 H   0  0  0  0  0  0  0  0  0  0  0  0
    0.1102    0.2161    0.6015 H   0  0  0  0  0  0  0  0  0  0  0  0
    0.0191    1.5858    0.9475 C   0  0  0  0  0  3  0  0  0  0  0  0
   -0.2093    1.9871   -0.0347 H   0  0  0  0  0  0  0  0  0  0  0  0
   -0.7890    1.6241    1.6700 H   0  0  0  0  0  0  0  0  0  0  0  0
    1.0022    1.8274    1.3367 H   0  0  0  0  0  0  0  0  0  0  0  0
  1  2  1  0
  1  3  1  0
  1  4  1  0
  2  5  1  0
  6  7  1  0
  6  8  1  0
  6  9  1  0
M  RAD  1   6   2
M  END
>  <reaction>  (4) 
rxn_715

>  <mol_properties>  (4) 
{"0": {"label": "*0", "atom_type": "N3s"}, "1": {"label": "*1", "atom_type": "O2s"}, "4": {"label": "*2", "atom_type": "H0"}, "5": {"label": "*3", "atom_type": "Cs"}, "6": {"label": "*4", "atom_type": "H0"}}

>  <type>  (4) 
ts

$$$$
