
     RDKit          3D

  9  8  0  0  0  0  0  0  0  0999 V2000
   -0.9895    0.3048    0.1041 C   0  0  0  0  0  0  0  0  0  0  0  0
    0.3761   -0.3562    0.0721 C   0  0  0  0  0  0  0  0  0  0  0  0
    0.3441   -1.6564   -0.4834 O   0  0  0  0  0  0  0  0  0  0  0  0
   -1.6997   -0.3114    0.6572 H   0  0  0  0  0  0  0  0  0  0  0  0
   -0.9320    1.2848    0.5822 H   0  0  0  0  0  0  0  0  0  0  0  0
   -1.3774    0.4507   -0.9077 H   0  0  0  0  0  0  0  0  0  0  0  0
    0.7581   -0.4813    1.0862 H   0  0  0  0  0  0  0  0  0  0  0  0
    1.0900    0.2787   -0.4681 H   0  0  0  0  0  0  0  0  0  0  0  0
    0.0089   -1.5959   -1.3792 H   0  0  0  0  0  0  0  0  0  0  0  0
  1  2  1  0
  1  4  1  0
  1  5  1  0
  1  6  1  0
  2  3  1  0
  2  7  1  0
  2  8  1  0
  3  9  1  0
M  END
>  <reaction>  (1) 
rxn_228

>  <mol_properties>  (1) 
{"1": {"label": "donator", "atom_type": "Cs"}, "6": {"label": "d_hydrogen", "atom_type": "H0"}}

>  <type>  (1) 
r1h

$$$$

     RDKit          3D

  3  2  0  0  0  0  0  0  0  0999 V2000
    0.9943   -0.1797    0.0000 O   0  0  0  0  0  1  0  0  0  0  0  0
   -0.1595    0.4394    0.0000 O   0  0  0  0  0  0  0  0  0  0  0  0
   -0.8348   -0.2597    0.0000 H   0  0  0  0  0  0  0  0  0  0  0  0
  1  2  1  0
  2  3  1  0
M  RAD  1   1   2
M  END
>  <reaction>  (2) 
rxn_228

>  <mol_properties>  (2) 
{"0": {"label": "acceptor", "atom_type": "O2s"}}

>  <type>  (2) 
r2

$$$$

     RDKit          3D

  4  3  0  0  0  0  0  0  0  0999 V2000
    0.5949   -0.3853    0.2659 O   0  0  0  0  0  0  0  0  0  0  0  0
   -0.5918    0.4028    0.2462 O   0  0  0  0  0  0  0  0  0  0  0  0
    1.1865    0.1539   -0.2689 H   0  0  0  0  0  0  0  0  0  0  0  0
   -1.1896   -0.1714   -0.2432 H   0  0  0  0  0  0  0  0  0  0  0  0
  1  2  1  0
  1  3  1  0
  2  4  1  0
M  END
>  <reaction>  (3) 
rxn_228

>  <mol_properties>  (3) 
{"0": {"label": "a_hydrogen", "atom_type": "H0"}, "1": {"label": "acceptor", "atom_type": "O2s"}}

>  <type>  (3) 
r2h

$$$$

     RDKit          3D

 12 10  0  0  0  0  0  0  0  0999 V2000
   -1.3817    0.0872   -1.4641 C   0  0  0  0  0  0  0  0  0  0  0  0
   -1.0764    0.1078    0.0085 C   0  0  0  0  0  3  0  0  0  0  0  0
   -0.6639    1.3120    0.5263 O   0  0  0  0  0  0  0  0  0  0  0  0
   -0.5054    0.3880   -2.0436 H   0  0  0  0  0  0  0  0  0  0  0  0
   -1.6615   -0.9183   -1.7781 H   0  0  0  0  0  0  0  0  0  0  0  0
   -2.2043    0.7695   -1.6968 H   0  0  0  0  0  0  0  0  0  0  0  0
   -0.0447   -0.6867    0.1301 H   0  0  0  0  0  0  0  0  0  0  0  0
   -1.8471   -0.3080    0.6559 H   0  0  0  0  0  0  0  0  0  0  0  0
    0.0341    1.6619   -0.0373 H   0  0  0  0  0  0  0  0  0  0  0  0
    1.1023   -1.1310    0.1379 O   0  0  0  0  0  0  0  0  0  0  0  0
    1.8790    0.0190    0.0968 O   0  0  0  0  0  0  0  0  0  0  0  0
    2.0636    0.1906    1.0280 H   0  0  0  0  0  0  0  0  0  0  0  0
  1  2  1  0
  1  4  1  0
  1  5  1  0
  1  6  1  0
  2  3  1  0
  2  8  1  0
  3  9  1  0
  7 10  1  0
 10 11  1  0
 11 12  1  0
M  RAD  1   2   2
M  END
>  <reaction>  (4) 
rxn_228

>  <mol_properties>  (4) 
{"1": {"label": "*3", "atom_type": "Cs"}, "2": {"label": "*4", "atom_type": "O2s"}, "6": {"label": "*2", "atom_type": "H0"}, "9": {"label": "*1", "atom_type": "O2s"}, "10": {"label": "*0", "atom_type": "O2s"}}

>  <type>  (4) 
ts

$$$$
