
     RDKit          3D

  7  6  0  0  0  0  0  0  0  0999 V2000
   -0.2485    1.7413   -0.3992 O   0  0  0  0  0  0  0  0  0  0  0  0
    0.0502    0.5901   -0.2826 C   0  0  0  0  0  0  0  0  0  0  0  0
    1.4448    0.1264   -0.3338 C   0  0  0  0  0  0  0  0  0  0  0  0
    2.5364   -0.2222   -0.3757 N   0  0  0  0  0  0  0  0  0  0  0  0
   -1.0118   -0.4953   -0.0692 C   0  0  0  0  0  0  0  0  0  0  0  0
   -0.7311   -1.6469    0.0488 O   0  0  0  0  0  0  0  0  0  0  0  0
   -2.0400   -0.0934   -0.0387 H   0  0  0  0  0  0  0  0  0  0  0  0
  1  2  2  0
  2  3  1  0
  2  5  1  0
  3  4  3  0
  5  6  2  0
  5  7  1  0
M  END
>  <reaction>  (1) 
rxn_3184

>  <mol_properties>  (1) 
{"4": {"label": "donator", "atom_type": "CO"}, "6": {"label": "d_hydrogen", "atom_type": "H0"}}

>  <type>  (1) 
r1h

$$$$

     RDKit          3D

  6  6  0  0  0  0  0  0  0  0999 V2000
    1.9594    0.0134   -0.3734 N   0  0  0  0  0  2  0  0  0  0  0  0
    0.7437    0.0051   -0.0788 C   0  0  0  0  0  0  0  0  0  0  0  0
   -0.0745    1.0868    0.0233 O   0  0  0  0  0  0  0  0  0  0  0  0
   -1.3223    0.5972    0.3682 N   0  0  0  0  0  0  0  0  0  0  0  0
   -1.2899   -0.6150    0.4676 N   0  0  0  0  0  0  0  0  0  0  0  0
   -0.0165   -1.0874    0.2015 O   0  0  0  0  0  0  0  0  0  0  0  0
  1  2  2  0
  2  3  1  0
  2  6  1  0
  3  4  1  0
  4  5  2  0
  5  6  1  0
M  RAD  1   1   2
M  END
>  <reaction>  (2) 
rxn_3184

>  <mol_properties>  (2) 
{"0": {"label": "acceptor", "atom_type": "N3d"}}

>  <type>  (2) 
r2

$$$$

     RDKit          3D

  7  7  0  0  0  0  0  0  0  0999 V2000
    1.6064   -0.4313    0.1905 N   0  0  0  0  0  0  0  0  0  0  0  0
    0.3982   -0.1725    0.0701 C   0  0  0  0  0  0  0  0  0  0  0  0
   -0.6051   -1.0481    0.3497 O   0  0  0  0  0  0  0  0  0  0  0  0
   -1.7906   -0.4044    0.0958 N   0  0  0  0  0  0  0  0  0  0  0  0
   -1.5819    0.7348   -0.2956 N   0  0  0  0  0  0  0  0  0  0  0  0
   -0.2229    0.9708   -0.3436 O   0  0  0  0  0  0  0  0  0  0  0  0
    2.1958    0.3506   -0.0669 H   0  0  0  0  0  0  0  0  0  0  0  0
  1  2  2  3
  1  7  1  0
  2  3  1  0
  2  6  1  0
  3  4  1  0
  4  5  2  0
  5  6  1  0
M  END
>  <reaction>  (3) 
rxn_3184

>  <mol_properties>  (3) 
{"0": {"label": "acceptor", "atom_type": "N3d"}, "6": {"label": "a_hydrogen", "atom_type": "H0"}}

>  <type>  (3) 
r2h

$$$$

     RDKit          3D

 13 12  0  0  0  0  0  0  0  0999 V2000
   -0.9116   -1.7179   -0.0344 N   0  0  0  0  0  2  0  0  0  0  0  0
    0.1316   -1.7222   -0.7216 C   0  0  0  0  0  0  0  0  0  0  0  0
    0.4560   -2.6650   -1.6486 O   0  0  0  0  0  0  0  0  0  0  0  0
    1.6779   -2.3054   -2.1754 N   0  0  0  0  0  0  0  0  0  0  0  0
    2.0805   -1.2783   -1.6570 N   0  0  0  0  0  0  0  0  0  0  0  0
    1.1670   -0.8337   -0.7182 O   0  0  0  0  0  0  0  0  0  0  0  0
   -0.9625    1.6556   -0.6024 O   0  0  0  0  0  0  0  0  0  0  0  0
   -0.8740    1.7188    0.5832 C   0  0  0  0  0  0  0  0  0  0  0  0
   -0.8929    2.9850    1.3237 C   0  0  0  0  0  0  0  0  0  0  0  0
   -0.9112    3.9660    1.9174 N   0  0  0  0  0  0  0  0  0  0  0  0
   -0.7203    0.4411    1.4516 C   0  0  0  0  0  0  0  0  0  0  0  0
   -0.4624    0.4587    2.6005 O   0  0  0  0  0  0  0  0  0  0  0  0
   -0.8787   -0.6036    0.7741 H   0  0  0  0  0  0  0  0  0  0  0  0
  1  2  2  0
  2  3  1  0
  2  6  1  0
  3  4  1  0
  4  5  2  0
  5  6  1  0
  7  8  2  0
  8  9  1  0
  8 11  1  0
  9 10  3  0
 11 12  2  0
 11 13  1  0
M  RAD  1   1   2
M  END
>  <reaction>  (4) 
rxn_3184

>  <mol_properties>  (4) 
{"0": {"label": "*3", "atom_type": "N3d"}, "1": {"label": "*4", "atom_type": "Cd"}, "7": {"label": "*0", "atom_type": "CO"}, "10": {"label": "*1", "atom_type": "CO"}, "12": {"label": "*2", "atom_type": "H0"}}

>  <type>  (4) 
ts

$$$$
