
     RDKit          3D

 15 14  0  0  0  0  0  0  0  0999 V2000
    2.0043    0.7173    0.1415 C   0  0  0  0  0  0  0  0  0  0  0  0
    0.9848   -0.3507   -0.1014 C   0  0  0  0  0  0  0  0  0  0  0  0
    0.8002   -1.0846   -1.1962 C   0  0  0  0  0  0  0  0  0  0  0  0
    1.6156   -0.9764   -2.4524 C   0  0  0  0  0  0  0  0  0  0  0  0
   -0.2866   -2.1212   -1.2568 C   0  0  0  0  0  0  0  0  0  0  0  0
    1.5168    1.6665    0.3801 H   0  0  0  0  0  0  0  0  0  0  0  0
    2.6315    0.4616    0.9998 H   0  0  0  0  0  0  0  0  0  0  0  0
    2.6606    0.8863   -0.7105 H   0  0  0  0  0  0  0  0  0  0  0  0
    0.3172   -0.5374    0.7365 H   0  0  0  0  0  0  0  0  0  0  0  0
    2.0860   -1.9369   -2.6825 H   0  0  0  0  0  0  0  0  0  0  0  0
    0.9714   -0.7321   -3.3022 H   0  0  0  0  0  0  0  0  0  0  0  0
    2.3987   -0.2235   -2.3971 H   0  0  0  0  0  0  0  0  0  0  0  0
   -0.9822   -1.9068   -2.0737 H   0  0  0  0  0  0  0  0  0  0  0  0
   -0.8547   -2.1689   -0.3278 H   0  0  0  0  0  0  0  0  0  0  0  0
    0.1331   -3.1124   -1.4537 H   0  0  0  0  0  0  0  0  0  0  0  0
  1  2  1  0
  1  6  1  0
  1  7  1  0
  1  8  1  0
  2  3  2  3
  2  9  1  0
  3  4  1  0
  3  5  1  0
  4 10  1  0
  4 11  1  0
  4 12  1  0
  5 13  1  0
  5 14  1  0
  5 15  1  0
M  END
>  <reaction>  (1) 
rxn_106

>  <mol_properties>  (1) 
{"3": {"label": "donator", "atom_type": "Cs"}, "9": {"label": "d_hydrogen", "atom_type": "H0"}}

>  <type>  (1) 
r1h

$$$$

     RDKit          3D

  3  2  0  0  0  0  0  0  0  0999 V2000
    0.0002    0.4233    0.0000 N   0  0  0  0  0  2  0  0  0  0  0  0
   -0.8051   -0.2112    0.0000 H   0  0  0  0  0  0  0  0  0  0  0  0
    0.8049   -0.2121    0.0000 H   0  0  0  0  0  0  0  0  0  0  0  0
  1  2  1  0
  1  3  1  0
M  RAD  1   1   2
M  END
>  <reaction>  (2) 
rxn_106

>  <mol_properties>  (2) 
{"0": {"label": "acceptor", "atom_type": "N3s"}}

>  <type>  (2) 
r2

$$$$

     RDKit          3D

  4  3  0  0  0  0  0  0  0  0999 V2000
    0.0006   -0.0009    0.2762 N   0  0  0  0  0  0  0  0  0  0  0  0
   -0.4188    0.8439   -0.0883 H   0  0  0  0  0  0  0  0  0  0  0  0
   -0.5215   -0.7840   -0.0936 H   0  0  0  0  0  0  0  0  0  0  0  0
    0.9397   -0.0590   -0.0943 H   0  0  0  0  0  0  0  0  0  0  0  0
  1  2  1  0
  1  3  1  0
  1  4  1  0
M  END
>  <reaction>  (3) 
rxn_106

>  <mol_properties>  (3) 
{"0": {"label": "acceptor", "atom_type": "N3s"}, "3": {"label": "a_hydrogen", "atom_type": "H0"}}

>  <type>  (3) 
r2h

$$$$

     RDKit          3D

 18 16  0  0  0  0  0  0  0  0999 V2000
   -1.7607    2.1132    0.3190 N   0  0  0  0  0  2  0  0  0  0  0  0
   -2.1901    1.2094    0.5323 H   0  0  0  0  0  0  0  0  0  0  0  0
   -1.5612    2.5158    1.2377 H   0  0  0  0  0  0  0  0  0  0  0  0
    0.1448   -1.2967   -1.9973 C   0  0  0  0  0  0  0  0  0  0  0  0
    0.2964   -1.3401   -0.5114 C   0  0  0  0  0  0  0  0  0  0  0  0
    0.5105   -0.3150    0.3213 C   0  0  0  0  0  0  0  0  0  0  0  0
    0.6128    1.0920   -0.1078 C   0  0  0  0  0  0  0  0  0  0  0  0
    0.6017   -0.5340    1.8063 C   0  0  0  0  0  0  0  0  0  0  0  0
    0.9073   -1.9129   -2.4817 H   0  0  0  0  0  0  0  0  0  0  0  0
   -0.8244   -1.7074   -2.2932 H   0  0  0  0  0  0  0  0  0  0  0  0
    0.2136   -0.2899   -2.4053 H   0  0  0  0  0  0  0  0  0  0  0  0
    0.2208   -2.3310   -0.0709 H   0  0  0  0  0  0  0  0  0  0  0  0
   -0.4991    1.6308    0.0110 H   0  0  0  0  0  0  0  0  0  0  0  0
    1.2579    1.6957    0.5303 H   0  0  0  0  0  0  0  0  0  0  0  0
    0.8407    1.2573   -1.1575 H   0  0  0  0  0  0  0  0  0  0  0  0
    1.5725   -0.2085    2.1898 H   0  0  0  0  0  0  0  0  0  0  0  0
    0.4605   -1.5811    2.0732 H   0  0  0  0  0  0  0  0  0  0  0  0
   -0.1583    0.0576    2.3264 H   0  0  0  0  0  0  0  0  0  0  0  0
  1  2  1  0
  1  3  1  0
  4  5  1  0
  4  9  1  0
  4 10  1  0
  4 11  1  0
  5  6  2  3
  5 12  1  0
  6  7  1  0
  6  8  1  0
  7 13  1  0
  7 14  1  0
  7 15  1  0
  8 16  1  0
  8 17  1  0
  8 18  1  0
M  RAD  1   1   2
M  END
>  <reaction>  (4) 
rxn_106

>  <mol_properties>  (4) 
{"0": {"label": "*3", "atom_type": "N3s"}, "1": {"label": "*4", "atom_type": "H0"}, "5": {"label": "*0", "atom_type": "Cd"}, "6": {"label": "*1", "atom_type": "Cs"}, "12": {"label": "*2", "atom_type": "H0"}}

>  <type>  (4) 
ts

$$$$
