
     RDKit          3D

  6  5  0  0  0  0  0  0  0  0999 V2000
   -0.5072   -0.0291   -0.0097 C   0  0  0  0  0  0  0  0  0  0  0  0
    1.1321   -0.1527   -0.7687 S   0  0  0  0  0  0  0  0  0  0  0  0
   -0.6174   -0.7330    0.8127 H   0  0  0  0  0  0  0  0  0  0  0  0
   -0.5863    0.9827    0.3845 H   0  0  0  0  0  0  0  0  0  0  0  0
   -1.2962   -0.1800   -0.7434 H   0  0  0  0  0  0  0  0  0  0  0  0
    1.0312   -1.4237   -1.1764 H   0  0  0  0  0  0  0  0  0  0  0  0
  1  2  1  0
  1  3  1  0
  1  4  1  0
  1  5  1  0
  2  6  1  0
M  END
>  <reaction>  (1) 
rxn_1839

>  <mol_properties>  (1) 
{"0": {"label": "donator", "atom_type": "Cs"}, "2": {"label": "d_hydrogen", "atom_type": "H0"}}

>  <type>  (1) 
r1h

$$$$

     RDKit          3D

 11 11  0  0  0  0  0  0  0  0999 V2000
    0.1524   -1.5397    0.0698 C   0  0  0  0  0  3  0  0  0  0  0  0
   -1.1218   -1.0406    0.0516 C   0  0  0  0  0  0  0  0  0  0  0  0
   -1.2464    0.3470   -0.0114 C   0  0  0  0  0  0  0  0  0  0  0  0
   -0.1137    1.1487   -0.0521 C   0  0  0  0  0  0  0  0  0  0  0  0
    1.1542    0.5837   -0.0308 C   0  0  0  0  0  0  0  0  0  0  0  0
    1.3041   -0.8014    0.0319 C   0  0  0  0  0  0  0  0  0  0  0  0
   -1.9955   -1.6793    0.0840 H   0  0  0  0  0  0  0  0  0  0  0  0
   -2.2319    0.7966   -0.0284 H   0  0  0  0  0  0  0  0  0  0  0  0
   -0.2203    2.2248   -0.1009 H   0  0  0  0  0  0  0  0  0  0  0  0
    2.0325    1.2173   -0.0630 H   0  0  0  0  0  0  0  0  0  0  0  0
    2.2862   -1.2570    0.0492 H   0  0  0  0  0  0  0  0  0  0  0  0
  1  2  2  0
  1  6  1  0
  2  3  1  0
  2  7  1  0
  3  4  2  0
  3  8  1  0
  4  5  1  0
  4  9  1  0
  5  6  2  0
  5 10  1  0
  6 11  1  0
M  RAD  1   1   2
M  END
>  <reaction>  (2) 
rxn_1839

>  <mol_properties>  (2) 
{"0": {"label": "acceptor", "atom_type": "Cd"}}

>  <type>  (2) 
r2

$$$$

     RDKit          3D

 12 12  0  0  0  0  0  0  0  0999 V2000
   -1.2385    0.6248   -0.0199 C   0  0  0  0  0  0  0  0  0  0  0  0
   -0.0779    1.3848   -0.0298 C   0  0  0  0  0  0  0  0  0  0  0  0
    1.1605    0.7600   -0.0100 C   0  0  0  0  0  0  0  0  0  0  0  0
    1.2385   -0.6248    0.0199 C   0  0  0  0  0  0  0  0  0  0  0  0
    0.0779   -1.3848    0.0298 C   0  0  0  0  0  0  0  0  0  0  0  0
   -1.1606   -0.7600    0.0100 C   0  0  0  0  0  0  0  0  0  0  0  0
   -2.2052    1.1125   -0.0354 H   0  0  0  0  0  0  0  0  0  0  0  0
   -0.1387    2.4657   -0.0531 H   0  0  0  0  0  0  0  0  0  0  0  0
    2.0664    1.3532   -0.0177 H   0  0  0  0  0  0  0  0  0  0  0  0
    2.2052   -1.1125    0.0354 H   0  0  0  0  0  0  0  0  0  0  0  0
    0.1387   -2.4657    0.0531 H   0  0  0  0  0  0  0  0  0  0  0  0
   -2.0664   -1.3532    0.0177 H   0  0  0  0  0  0  0  0  0  0  0  0
  1  2  2  0
  1  6  1  0
  1  7  1  0
  2  3  1  0
  2  8  1  0
  3  4  2  0
  3  9  1  0
  4  5  1  0
  4 10  1  0
  5  6  2  0
  5 11  1  0
  6 12  1  0
M  END
>  <reaction>  (3) 
rxn_1839

>  <mol_properties>  (3) 
{"0": {"label": "a_hydrogen", "atom_type": "H0"}, "1": {"label": "acceptor", "atom_type": "Cd"}}

>  <type>  (3) 
r2h

$$$$

     RDKit          3D

 17 16  0  0  0  0  0  0  0  0999 V2000
   -0.0574   -2.3325   -0.5159 C   0  0  0  0  0  0  0  0  0  0  0  0
    0.2918   -2.1668   -2.2532 S   0  0  0  0  0  0  0  0  0  0  0  0
   -0.0575   -1.2067    0.0317 H   0  0  0  0  0  0  0  0  0  0  0  0
   -1.0667   -2.7203   -0.3966 H   0  0  0  0  0  0  0  0  0  0  0  0
    0.6678   -2.9398    0.0210 H   0  0  0  0  0  0  0  0  0  0  0  0
    1.5625   -1.7619   -2.1307 H   0  0  0  0  0  0  0  0  0  0  0  0
   -0.0505    0.1283    0.5756 C   0  0  0  0  0  3  0  0  0  0  0  0
   -0.1605    1.1505   -0.3392 C   0  0  0  0  0  0  0  0  0  0  0  0
   -0.1466    2.4594    0.1326 C   0  0  0  0  0  0  0  0  0  0  0  0
   -0.0247    2.7056    1.4932 C   0  0  0  0  0  0  0  0  0  0  0  0
    0.0836    1.6526    2.3913 C   0  0  0  0  0  0  0  0  0  0  0  0
    0.0709    0.3398    1.9305 C   0  0  0  0  0  0  0  0  0  0  0  0
   -0.2557    0.9399   -1.3985 H   0  0  0  0  0  0  0  0  0  0  0  0
   -0.2316    3.2856   -0.5629 H   0  0  0  0  0  0  0  0  0  0  0  0
   -0.0145    3.7254    1.8567 H   0  0  0  0  0  0  0  0  0  0  0  0
    0.1781    1.8519    3.4520 H   0  0  0  0  0  0  0  0  0  0  0  0
    0.1550   -0.4878    2.6250 H   0  0  0  0  0  0  0  0  0  0  0  0
  1  2  1  0
  1  3  1  0
  1  4  1  0
  1  5  1  0
  2  6  1  0
  7  8  2  0
  7 12  1  0
  8  9  1  0
  8 13  1  0
  9 10  2  0
  9 14  1  0
 10 11  1  0
 10 15  1  0
 11 12  2  0
 11 16  1  0
 12 17  1  0
M  RAD  1   7   2
M  END
>  <reaction>  (4) 
rxn_1839

>  <mol_properties>  (4) 
{"0": {"label": "*1", "atom_type": "Cs"}, "1": {"label": "*0", "atom_type": "S2s"}, "2": {"label": "*2", "atom_type": "H0"}, "6": {"label": "*3", "atom_type": "Cd"}, "7": {"label": "*4", "atom_type": "Cd"}}

>  <type>  (4) 
ts

$$$$
