
     RDKit          3D

 15 14  0  0  0  0  0  0  0  0999 V2000
    2.1256    0.4849   -0.6284 C   0  0  0  0  0  0  0  0  0  0  0  0
    1.1128    0.2141    0.1794 C   0  0  0  0  0  0  0  0  0  0  0  0
   -0.3017   -0.0425   -0.2513 C   0  0  0  0  0  0  0  0  0  0  0  0
   -1.2427    1.0075    0.3423 C   0  0  0  0  0  0  0  0  0  0  0  0
   -0.7381   -1.4526    0.1504 C   0  0  0  0  0  0  0  0  0  0  0  0
    3.1243    0.6602   -0.2486 H   0  0  0  0  0  0  0  0  0  0  0  0
    1.9908    0.5411   -1.7036 H   0  0  0  0  0  0  0  0  0  0  0  0
    1.2888    0.1665    1.2533 H   0  0  0  0  0  0  0  0  0  0  0  0
   -0.3426    0.0343   -1.3424 H   0  0  0  0  0  0  0  0  0  0  0  0
   -0.9570    2.0133    0.0315 H   0  0  0  0  0  0  0  0  0  0  0  0
   -1.2189    0.9728    1.4350 H   0  0  0  0  0  0  0  0  0  0  0  0
   -2.2723    0.8287    0.0254 H   0  0  0  0  0  0  0  0  0  0  0  0
   -0.6964   -1.5744    1.2363 H   0  0  0  0  0  0  0  0  0  0  0  0
   -0.0911   -2.2079   -0.2978 H   0  0  0  0  0  0  0  0  0  0  0  0
   -1.7646   -1.6461   -0.1677 H   0  0  0  0  0  0  0  0  0  0  0  0
  1  2  2  3
  1  6  1  0
  1  7  1  0
  2  3  1  0
  2  8  1  0
  3  4  1  0
  3  5  1  0
  3  9  1  0
  4 10  1  0
  4 11  1  0
  4 12  1  0
  5 13  1  0
  5 14  1  0
  5 15  1  0
M  END
>  <reaction>  (1) 
rxn_1105

>  <mol_properties>  (1) 
{"2": {"label": "donator", "atom_type": "Cs"}, "8": {"label": "d_hydrogen", "atom_type": "H0"}}

>  <type>  (1) 
r1h

$$$$

     RDKit          3D

 11 10  0  0  0  0  0  0  0  0999 V2000
    1.0781   -1.0166   -0.1159 C   0  0  0  0  0  0  0  0  0  0  0  0
    0.2180    0.1942   -0.2297 C   0  0  0  0  0  3  0  0  0  0  0  0
    0.9343    1.7769   -0.3011 S   0  0  0  0  0  0  0  0  0  0  0  0
   -1.1949    0.1490    0.2439 C   0  0  0  0  0  0  0  0  0  0  0  0
    1.4718   -1.1461    0.9024 H   0  0  0  0  0  0  0  0  0  0  0  0
    1.9367   -0.9751   -0.7902 H   0  0  0  0  0  0  0  0  0  0  0  0
    0.5033   -1.9136   -0.3576 H   0  0  0  0  0  0  0  0  0  0  0  0
    2.1166    1.4195   -0.8209 H   0  0  0  0  0  0  0  0  0  0  0  0
   -1.2620    0.0939    1.3399 H   0  0  0  0  0  0  0  0  0  0  0  0
   -1.7600    1.0270   -0.0739 H   0  0  0  0  0  0  0  0  0  0  0  0
   -1.6972   -0.7380   -0.1506 H   0  0  0  0  0  0  0  0  0  0  0  0
  1  2  1  0
  1  5  1  0
  1  6  1  0
  1  7  1  0
  2  4  1  0
  2  3  1  0
  3  8  1  0
  4  9  1  0
  4 10  1  0
  4 11  1  0
M  RAD  1   2   2
M  END
>  <reaction>  (2) 
rxn_1105

>  <mol_properties>  (2) 
{"1": {"label": "acceptor", "atom_type": "Cs"}}

>  <type>  (2) 
r2

$$$$

     RDKit          3D

 12 11  0  0  0  0  0  0  0  0999 V2000
    1.2394   -0.3763   -0.3020 C   0  0  0  0  0  0  0  0  0  0  0  0
    0.1007    0.3024    0.4464 C   0  0  0  0  0  0  0  0  0  0  0  0
   -0.1187    2.0399   -0.0725 S   0  0  0  0  0  0  0  0  0  0  0  0
   -1.1974   -0.4877    0.3552 C   0  0  0  0  0  0  0  0  0  0  0  0
    2.1681    0.1850   -0.2048 H   0  0  0  0  0  0  0  0  0  0  0  0
    1.0030   -0.4604   -1.3656 H   0  0  0  0  0  0  0  0  0  0  0  0
    1.3993   -1.3856    0.0859 H   0  0  0  0  0  0  0  0  0  0  0  0
    0.3797    0.4050    1.4982 H   0  0  0  0  0  0  0  0  0  0  0  0
   -0.4500    1.7774   -1.3452 H   0  0  0  0  0  0  0  0  0  0  0  0
   -1.0545   -1.4977    0.7478 H   0  0  0  0  0  0  0  0  0  0  0  0
   -1.5206   -0.5758   -0.6849 H   0  0  0  0  0  0  0  0  0  0  0  0
   -1.9957   -0.0054    0.9183 H   0  0  0  0  0  0  0  0  0  0  0  0
  1  2  1  0
  1  5  1  0
  1  6  1  0
  1  7  1  0
  2  4  1  0
  2  3  1  0
  2  8  1  0
  3  9  1  0
  4 10  1  0
  4 11  1  0
  4 12  1  0
M  END
>  <reaction>  (3) 
rxn_1105

>  <mol_properties>  (3) 
{"1": {"label": "acceptor", "atom_type": "Cs"}, "11": {"label": "a_hydrogen", "atom_type": "H0"}}

>  <type>  (3) 
r2h

$$$$

     RDKit          3D

 26 24  0  0  0  0  0  0  0  0999 V2000
    0.9849    1.2415   -1.6164 C   0  0  0  0  0  0  0  0  0  0  0  0
   -0.1246    1.3667   -0.6064 C   0  0  0  0  0  3  0  0  0  0  0  0
    0.1188    2.5731    0.6846 S   0  0  0  0  0  0  0  0  0  0  0  0
   -1.5127    1.4599   -1.1860 C   0  0  0  0  0  0  0  0  0  0  0  0
    1.9536    1.0999   -1.1341 H   0  0  0  0  0  0  0  0  0  0  0  0
    1.0498    2.1341   -2.2477 H   0  0  0  0  0  0  0  0  0  0  0  0
    0.8005    0.3776   -2.2595 H   0  0  0  0  0  0  0  0  0  0  0  0
    1.4016    2.2856    0.9427 H   0  0  0  0  0  0  0  0  0  0  0  0
   -1.7017    0.5886   -1.8176 H   0  0  0  0  0  0  0  0  0  0  0  0
   -2.2741    1.4860   -0.4047 H   0  0  0  0  0  0  0  0  0  0  0  0
   -1.6309    2.3542   -1.8071 H   0  0  0  0  0  0  0  0  0  0  0  0
    0.4624   -2.7260   -1.2509 C   0  0  0  0  0  0  0  0  0  0  0  0
   -0.4208   -1.9886   -0.5751 C   0  0  0  0  0  0  0  0  0  0  0  0
   -0.1438   -1.0747    0.5395 C   0  0  0  0  0  0  0  0  0  0  0  0
    1.2355   -1.1455    1.1532 C   0  0  0  0  0  0  0  0  0  0  0  0
   -1.2620   -0.9600    1.5549 C   0  0  0  0  0  0  0  0  0  0  0  0
    0.1508   -3.3443   -2.0827 H   0  0  0  0  0  0  0  0  0  0  0  0
    1.5145   -2.7475   -0.9940 H   0  0  0  0  0  0  0  0  0  0  0  0
   -1.4629   -2.0314   -0.8859 H   0  0  0  0  0  0  0  0  0  0  0  0
   -0.1453    0.1077   -0.0069 H   0  0  0  0  0  0  0  0  0  0  0  0
    2.0194   -1.0189    0.4039 H   0  0  0  0  0  0  0  0  0  0  0  0
    1.3996   -2.1095    1.6458 H   0  0  0  0  0  0  0  0  0  0  0  0
    1.3569   -0.3617    1.9032 H   0  0  0  0  0  0  0  0  0  0  0  0
   -1.2925   -1.8385    2.2080 H   0  0  0  0  0  0  0  0  0  0  0  0
   -2.2346   -0.8770    1.0652 H   0  0  0  0  0  0  0  0  0  0  0  0
   -1.1235   -0.0784    2.1843 H   0  0  0  0  0  0  0  0  0  0  0  0
  1  2  1  0
  1  5  1  0
  1  6  1  0
  1  7  1  0
  2  4  1  0
  2  3  1  0
  3  8  1  0
  4  9  1  0
  4 10  1  0
  4 11  1  0
 12 13  2  3
 12 17  1  0
 12 18  1  0
 13 14  1  0
 13 19  1  0
 14 15  1  0
 14 16  1  0
 14 20  1  0
 15 21  1  0
 15 22  1  0
 15 23  1  0
 16 24  1  0
 16 25  1  0
 16 26  1  0
M  RAD  1   2   2
M  END
>  <reaction>  (4) 
rxn_1105

>  <mol_properties>  (4) 
{"1": {"label": "*3", "atom_type": "Cs"}, "2": {"label": "*4", "atom_type": "S2s"}, "12": {"label": "*0", "atom_type": "Cd"}, "13": {"label": "*1", "atom_type": "Cs"}, "19": {"label": "*2", "atom_type": "H0"}}

>  <type>  (4) 
ts

$$$$
