
     RDKit          3D

  6  5  0  0  0  0  0  0  0  0999 V2000
   -0.5072   -0.0291   -0.0097 C   0  0  0  0  0  0  0  0  0  0  0  0
    1.1321   -0.1527   -0.7687 S   0  0  0  0  0  0  0  0  0  0  0  0
   -0.6174   -0.7330    0.8127 H   0  0  0  0  0  0  0  0  0  0  0  0
   -0.5863    0.9827    0.3845 H   0  0  0  0  0  0  0  0  0  0  0  0
   -1.2962   -0.1800   -0.7434 H   0  0  0  0  0  0  0  0  0  0  0  0
    1.0312   -1.4237   -1.1764 H   0  0  0  0  0  0  0  0  0  0  0  0
  1  2  1  0
  1  3  1  0
  1  4  1  0
  1  5  1  0
  2  6  1  0
M  END
>  <reaction>  (1) 
rxn_1845

>  <mol_properties>  (1) 
{"0": {"label": "donator", "atom_type": "Cs"}, "2": {"label": "d_hydrogen", "atom_type": "H0"}}

>  <type>  (1) 
r1h

$$$$

     RDKit          3D

  6  5  0  0  0  0  0  0  0  0999 V2000
   -0.7309   -0.0987    0.0327 C   0  0  0  0  0  0  0  0  0  0  0  0
    0.6208    0.0065   -0.0096 C   0  0  0  0  0  0  0  0  0  0  0  0
    1.6572   -1.2972    0.2837 S   0  0  0  0  0  1  0  0  0  0  0  0
   -1.3651    0.7588   -0.1608 H   0  0  0  0  0  0  0  0  0  0  0  0
   -1.2044   -1.0453    0.2616 H   0  0  0  0  0  0  0  0  0  0  0  0
    1.0609    0.9725   -0.2426 H   0  0  0  0  0  0  0  0  0  0  0  0
  1  2  2  3
  1  4  1  0
  1  5  1  0
  2  3  1  0
  2  6  1  0
M  RAD  1   3   2
M  END
>  <reaction>  (2) 
rxn_1845

>  <mol_properties>  (2) 
{"0": {"label": "acceptor", "atom_type": "Cs"}}

>  <type>  (2) 
r2

$$$$

     RDKit          3D

  7  6  0  0  0  0  0  0  0  0999 V2000
   -0.6782    0.0507    0.0301 C   0  0  0  0  0  0  0  0  0  0  0  0
    0.8092    0.0996    0.0213 C   0  0  0  0  0  0  0  0  0  0  0  0
    1.7473    0.7521    1.1507 S   0  0  0  0  0  0  0  0  0  0  0  0
   -1.0667    0.5456   -0.8653 H   0  0  0  0  0  0  0  0  0  0  0  0
   -1.0112   -0.9904   -0.0239 H   0  0  0  0  0  0  0  0  0  0  0  0
   -1.0920    0.5225    0.9188 H   0  0  0  0  0  0  0  0  0  0  0  0
    1.2740   -0.3620   -0.8520 H   0  0  0  0  0  0  0  0  0  0  0  0
  1  2  1  0
  1  4  1  0
  1  5  1  0
  1  6  1  0
  2  3  2  0
  2  7  1  0
M  END
>  <reaction>  (3) 
rxn_1845

>  <mol_properties>  (3) 
{"0": {"label": "a_hydrogen", "atom_type": "H0"}, "1": {"label": "acceptor", "atom_type": "Cs"}}

>  <type>  (3) 
r2h

$$$$

     RDKit          3D

 12 10  0  0  0  0  0  0  0  0999 V2000
    1.0655   -1.9413   -0.2469 C   0  0  0  0  0  3  0  0  0  0  0  0
   -0.1976   -1.8924   -1.4417 S   0  0  0  0  0  0  0  0  0  0  0  0
    0.7286   -0.9401    0.7377 H   0  0  0  0  0  0  0  0  0  0  0  0
    1.0643   -2.8704    0.3137 H   0  0  0  0  0  0  0  0  0  0  0  0
    2.0462   -1.5999   -0.5592 H   0  0  0  0  0  0  0  0  0  0  0  0
    0.1809   -0.7597   -2.0491 H   0  0  0  0  0  0  0  0  0  0  0  0
    0.4843    0.0534    1.4975 C   0  0  0  0  0  0  0  0  0  0  0  0
   -0.3456    0.9056    0.6908 C   0  0  0  0  0  0  0  0  0  0  0  0
    0.2036    2.0140   -0.3780 S   0  0  0  0  0  0  0  0  0  0  0  0
    0.0037   -0.4024    2.3609 H   0  0  0  0  0  0  0  0  0  0  0  0
    1.4863    0.4280    1.6910 H   0  0  0  0  0  0  0  0  0  0  0  0
   -1.4196    0.7386    0.7669 H   0  0  0  0  0  0  0  0  0  0  0  0
  1  2  1  0
  1  4  1  0
  1  5  1  0
  2  6  1  0
  3  7  1  0
  7  8  1  0
  7 10  1  0
  7 11  1  0
  8  9  2  0
  8 12  1  0
M  RAD  1   1   2
M  END
>  <reaction>  (4) 
rxn_1845

>  <mol_properties>  (4) 
{"0": {"label": "*3", "atom_type": "Cs"}, "1": {"label": "*4", "atom_type": "S2s"}, "2": {"label": "*2", "atom_type": "H0"}, "6": {"label": "*1", "atom_type": "Cs"}, "7": {"label": "*0", "atom_type": "CS"}}

>  <type>  (4) 
ts

$$$$
