
     RDKit          3D

 21 21  0  0  0  0  0  0  0  0999 V2000
   -1.3695    1.3367   -1.0719 C   0  0  0  0  0  0  0  0  0  0  0  0
   -1.4091   -0.0981   -0.5428 C   0  0  0  0  0  0  0  0  0  0  0  0
   -0.1819   -0.3999    0.3191 C   0  0  0  0  0  0  0  0  0  0  0  0
   -1.5636   -1.1028   -1.6652 C   0  0  0  0  0  0  0  0  0  0  0  0
   -0.5920   -1.2314   -2.6553 C   0  0  0  0  0  0  0  0  0  0  0  0
   -0.7353   -2.1509   -3.6809 C   0  0  0  0  0  0  0  0  0  0  0  0
   -1.8582   -2.9642   -3.7377 C   0  0  0  0  0  0  0  0  0  0  0  0
   -2.8325   -2.8475   -2.7602 C   0  0  0  0  0  0  0  0  0  0  0  0
   -2.6828   -1.9241   -1.7351 C   0  0  0  0  0  0  0  0  0  0  0  0
   -0.4920    1.4974   -1.7025 H   0  0  0  0  0  0  0  0  0  0  0  0
   -2.2553    1.5607   -1.6679 H   0  0  0  0  0  0  0  0  0  0  0  0
   -1.3211    2.0496   -0.2461 H   0  0  0  0  0  0  0  0  0  0  0  0
   -2.2930   -0.1918    0.0948 H   0  0  0  0  0  0  0  0  0  0  0  0
   -0.1215    0.2955    1.1588 H   0  0  0  0  0  0  0  0  0  0  0  0
   -0.2200   -1.4155    0.7159 H   0  0  0  0  0  0  0  0  0  0  0  0
    0.7383   -0.3016   -0.2615 H   0  0  0  0  0  0  0  0  0  0  0  0
    0.2915   -0.6040   -2.6263 H   0  0  0  0  0  0  0  0  0  0  0  0
    0.0326   -2.2338   -4.4401 H   0  0  0  0  0  0  0  0  0  0  0  0
   -1.9712   -3.6833   -4.5391 H   0  0  0  0  0  0  0  0  0  0  0  0
   -3.7135   -3.4765   -2.7932 H   0  0  0  0  0  0  0  0  0  0  0  0
   -3.4509   -1.8400   -0.9743 H   0  0  0  0  0  0  0  0  0  0  0  0
  1  2  1  0
  1 10  1  0
  1 11  1  0
  1 12  1  0
  2  3  1  0
  2  4  1  0
  2 13  1  0
  3 14  1  0
  3 15  1  0
  3 16  1  0
  4  5  2  0
  4  9  1  0
  5  6  1  0
  5 17  1  0
  6  7  2  0
  6 18  1  0
  7  8  1  0
  7 19  1  0
  8  9  2  0
  8 20  1  0
  9 21  1  0
M  END
>  <reaction>  (1) 
rxn_1555

>  <mol_properties>  (1) 
{"1": {"label": "donator", "atom_type": "Cs"}, "12": {"label": "d_hydrogen", "atom_type": "H0"}}

>  <type>  (1) 
r1h

$$$$

     RDKit          3D

  7  6  0  0  0  0  0  0  0  0999 V2000
   -2.0652    0.3855   -0.2963 S   0  0  0  0  0  0  0  0  0  0  0  0
   -0.7169   -0.5853    0.1792 C   0  0  0  0  0  3  0  0  0  0  0  0
    0.5987   -0.2168    0.0254 C   0  0  0  0  0  0  0  0  0  0  0  0
    1.7547    0.1211   -0.1163 C   0  0  0  0  0  0  0  0  0  0  0  0
   -1.3643    1.4227   -0.7731 H   0  0  0  0  0  0  0  0  0  0  0  0
   -0.9781   -1.5363    0.6220 H   0  0  0  0  0  0  0  0  0  0  0  0
    2.7711    0.4089   -0.2366 H   0  0  0  0  0  0  0  0  0  0  0  0
  1  2  1  0
  1  5  1  0
  2  3  1  0
  2  6  1  0
  3  4  3  0
  4  7  1  0
M  RAD  1   2   2
M  END
>  <reaction>  (2) 
rxn_1555

>  <mol_properties>  (2) 
{"1": {"label": "acceptor", "atom_type": "Cs"}}

>  <type>  (2) 
r2

$$$$

     RDKit          3D

  8  7  0  0  0  0  0  0  0  0999 V2000
   -0.7014    1.0753    1.5530 S   0  0  0  0  0  0  0  0  0  0  0  0
   -0.3105   -0.4583    0.6462 C   0  0  0  0  0  0  0  0  0  0  0  0
    0.0935   -0.2424   -0.7319 C   0  0  0  0  0  0  0  0  0  0  0  0
    0.4431   -0.0604   -1.8621 C   0  0  0  0  0  0  0  0  0  0  0  0
    0.4994    1.6466    1.3970 H   0  0  0  0  0  0  0  0  0  0  0  0
   -1.2277   -1.0477    0.6819 H   0  0  0  0  0  0  0  0  0  0  0  0
    0.4563   -1.0151    1.1841 H   0  0  0  0  0  0  0  0  0  0  0  0
    0.7474    0.1020   -2.8681 H   0  0  0  0  0  0  0  0  0  0  0  0
  1  2  1  0
  1  5  1  0
  2  3  1  0
  2  6  1  0
  2  7  1  0
  3  4  3  0
  4  8  1  0
M  END
>  <reaction>  (3) 
rxn_1555

>  <mol_properties>  (3) 
{"1": {"label": "acceptor", "atom_type": "Cs"}, "7": {"label": "a_hydrogen", "atom_type": "H0"}}

>  <type>  (3) 
r2h

$$$$

     RDKit          3D

 28 27  0  0  0  0  0  0  0  0999 V2000
   -2.0548   -1.0638    1.0666 S   0  0  0  0  0  0  0  0  0  0  0  0
   -2.1622   -0.3418   -0.5612 C   0  0  0  0  0  3  0  0  0  0  0  0
   -2.0105   -1.1961   -1.6883 C   0  0  0  0  0  0  0  0  0  0  0  0
   -1.8112   -1.8863   -2.6529 C   0  0  0  0  0  0  0  0  0  0  0  0
   -0.8309   -1.5912    0.9138 H   0  0  0  0  0  0  0  0  0  0  0  0
   -3.0296    0.3126   -0.6085 H   0  0  0  0  0  0  0  0  0  0  0  0
   -1.6640   -2.5103   -3.5011 H   0  0  0  0  0  0  0  0  0  0  0  0
    0.0576    1.6856   -2.1157 C   0  0  0  0  0  0  0  0  0  0  0  0
   -0.0808    1.3661   -0.6432 C   0  0  0  0  0  0  0  0  0  0  0  0
   -0.5709    2.5296    0.1847 C   0  0  0  0  0  0  0  0  0  0  0  0
    0.9701    0.5070   -0.0468 C   0  0  0  0  0  0  0  0  0  0  0  0
    1.3990   -0.6495   -0.7117 C   0  0  0  0  0  0  0  0  0  0  0  0
    2.3235   -1.5052   -0.1400 C   0  0  0  0  0  0  0  0  0  0  0  0
    2.8552   -1.2287    1.1118 C   0  0  0  0  0  0  0  0  0  0  0  0
    2.4459   -0.0877    1.7834 C   0  0  0  0  0  0  0  0  0  0  0  0
    1.5123    0.7641    1.2156 C   0  0  0  0  0  0  0  0  0  0  0  0
    0.8856    2.3837   -2.2782 H   0  0  0  0  0  0  0  0  0  0  0  0
    0.2454    0.7995   -2.7202 H   0  0  0  0  0  0  0  0  0  0  0  0
   -0.8536    2.1547   -2.4917 H   0  0  0  0  0  0  0  0  0  0  0  0
   -1.1282    0.5398   -0.6261 H   0  0  0  0  0  0  0  0  0  0  0  0
   -1.4167    3.0112   -0.3086 H   0  0  0  0  0  0  0  0  0  0  0  0
   -0.8972    2.2106    1.1761 H   0  0  0  0  0  0  0  0  0  0  0  0
    0.2090    3.2883    0.3115 H   0  0  0  0  0  0  0  0  0  0  0  0
    0.9799   -0.8992   -1.6777 H   0  0  0  0  0  0  0  0  0  0  0  0
    2.6282   -2.3966   -0.6743 H   0  0  0  0  0  0  0  0  0  0  0  0
    3.5802   -1.8970    1.5584 H   0  0  0  0  0  0  0  0  0  0  0  0
    2.8529    0.1418    2.7604 H   0  0  0  0  0  0  0  0  0  0  0  0
    1.2071    1.6436    1.7658 H   0  0  0  0  0  0  0  0  0  0  0  0
  1  2  1  0
  1  5  1  0
  2  3  1  0
  2  6  1  0
  3  4  3  0
  4  7  1  0
  8  9  1  0
  8 17  1  0
  8 18  1  0
  8 19  1  0
  9 10  1  0
  9 11  1  0
  9 20  1  0
 10 21  1  0
 10 22  1  0
 10 23  1  0
 11 12  2  0
 11 16  1  0
 12 13  1  0
 12 24  1  0
 13 14  2  0
 13 25  1  0
 14 15  1  0
 14 26  1  0
 15 16  2  0
 15 27  1  0
 16 28  1  0
M  RAD  1   2   2
M  END
>  <reaction>  (4) 
rxn_1555

>  <mol_properties>  (4) 
{"0": {"label": "*4", "atom_type": "S2s"}, "1": {"label": "*3", "atom_type": "Cs"}, "8": {"label": "*1", "atom_type": "Cs"}, "10": {"label": "*0", "atom_type": "Cd"}, "19": {"label": "*2", "atom_type": "H0"}}

>  <type>  (4) 
ts

$$$$
