
     RDKit          3D

 12 11  0  0  0  0  0  0  0  0999 V2000
    2.1696    0.6854    1.1310 C   0  0  0  0  0  0  0  0  0  0  0  0
    1.2518    0.4145    0.4134 C   0  0  0  0  0  0  0  0  0  0  0  0
    0.1391    0.0443   -0.4683 C   0  0  0  0  0  0  0  0  0  0  0  0
   -0.2054   -1.4492   -0.3339 C   0  0  0  0  0  0  0  0  0  0  0  0
   -1.0375    0.8853   -0.2222 C   0  0  0  0  0  0  0  0  0  0  0  0
   -2.0160    1.5463   -0.0311 C   0  0  0  0  0  0  0  0  0  0  0  0
    2.9819    0.9356    1.7702 H   0  0  0  0  0  0  0  0  0  0  0  0
    0.4629    0.2285   -1.4981 H   0  0  0  0  0  0  0  0  0  0  0  0
   -0.5327   -1.6703    0.6812 H   0  0  0  0  0  0  0  0  0  0  0  0
    0.6727   -2.0535   -0.5593 H   0  0  0  0  0  0  0  0  0  0  0  0
   -1.0064   -1.7081   -1.0256 H   0  0  0  0  0  0  0  0  0  0  0  0
   -2.8802    2.1413    0.1426 H   0  0  0  0  0  0  0  0  0  0  0  0
  1  2  3  0
  1  7  1  0
  2  3  1  0
  3  4  1  0
  3  5  1  0
  3  8  1  0
  4  9  1  0
  4 10  1  0
  4 11  1  0
  5  6  3  0
  6 12  1  0
M  END
>  <reaction>  (1) 
rxn_1421

>  <mol_properties>  (1) 
{"2": {"label": "donator", "atom_type": "Cs"}, "7": {"label": "d_hydrogen", "atom_type": "H0"}}

>  <type>  (1) 
r1h

$$$$

     RDKit          3D

  7  6  0  0  0  0  0  0  0  0999 V2000
    1.8092   -0.3013   -0.2242 S   0  0  0  0  0  0  0  0  0  0  0  0
    0.1552   -0.6967   -0.1137 C   0  0  0  0  0  0  0  0  0  0  0  0
   -0.8921    0.1788    0.1148 C   0  0  0  0  0  0  0  0  0  0  0  0
   -0.7548    1.8245    0.3328 S   0  0  0  0  0  1  0  0  0  0  0  0
    1.6168    1.0210   -0.0187 H   0  0  0  0  0  0  0  0  0  0  0  0
   -0.0550   -1.7522   -0.2412 H   0  0  0  0  0  0  0  0  0  0  0  0
   -1.8791   -0.2740    0.1502 H   0  0  0  0  0  0  0  0  0  0  0  0
  1  2  1  0
  1  5  1  0
  2  3  2  3
  2  6  1  0
  3  4  1  0
  3  7  1  0
M  RAD  1   4   2
M  END
>  <reaction>  (2) 
rxn_1421

>  <mol_properties>  (2) 
{"1": {"label": "acceptor", "atom_type": "Cs"}}

>  <type>  (2) 
r2

$$$$

     RDKit          3D

  8  7  0  0  0  0  0  0  0  0999 V2000
    1.7301   -0.0562    0.5281 S   0  0  0  0  0  0  0  0  0  0  0  0
    0.1858    0.6127   -0.1669 C   0  0  0  0  0  0  0  0  0  0  0  0
   -0.9621   -0.2567    0.2171 C   0  0  0  0  0  0  0  0  0  0  0  0
   -1.8663   -1.1002   -0.8086 S   0  0  0  0  0  0  0  0  0  0  0  0
    1.7025   -1.2092   -0.1540 H   0  0  0  0  0  0  0  0  0  0  0  0
    0.2619    0.7246   -1.2458 H   0  0  0  0  0  0  0  0  0  0  0  0
    0.0809    1.5982    0.2929 H   0  0  0  0  0  0  0  0  0  0  0  0
   -1.1456   -0.3126    1.2907 H   0  0  0  0  0  0  0  0  0  0  0  0
  1  2  1  0
  1  5  1  0
  2  3  1  0
  2  6  1  0
  2  7  1  0
  3  4  2  0
  3  8  1  0
M  END
>  <reaction>  (3) 
rxn_1421

>  <mol_properties>  (3) 
{"0": {"label": "a_hydrogen", "atom_type": "H0"}, "2": {"label": "acceptor", "atom_type": "Cs"}}

>  <type>  (3) 
r2h

$$$$

     RDKit          3D

 19 17  0  0  0  0  0  0  0  0999 V2000
   -1.6985   -1.1414   -2.2258 C   0  0  0  0  0  0  0  0  0  0  0  0
   -1.6998   -0.4382   -1.2525 C   0  0  0  0  0  0  0  0  0  0  0  0
   -1.5991    0.4117   -0.1080 C   0  0  0  0  0  3  0  0  0  0  0  0
   -1.5111    1.9015   -0.3741 C   0  0  0  0  0  0  0  0  0  0  0  0
   -2.3186    0.0054    1.0561 C   0  0  0  0  0  0  0  0  0  0  0  0
   -2.8648   -0.3220    2.0743 C   0  0  0  0  0  0  0  0  0  0  0  0
   -1.7274   -1.7615   -3.0896 H   0  0  0  0  0  0  0  0  0  0  0  0
   -0.2753    0.1598    0.2742 H   0  0  0  0  0  0  0  0  0  0  0  0
   -2.4768    2.2830   -0.7123 H   0  0  0  0  0  0  0  0  0  0  0  0
   -0.7689    2.0992   -1.1475 H   0  0  0  0  0  0  0  0  0  0  0  0
   -1.2283    2.4252    0.5385 H   0  0  0  0  0  0  0  0  0  0  0  0
   -3.3668   -0.6109    2.9664 H   0  0  0  0  0  0  0  0  0  0  0  0
    1.2515    1.1648    1.9517 S   0  0  0  0  0  0  0  0  0  0  0  0
    0.9564   -0.0277    0.6875 C   0  0  0  0  0  0  0  0  0  0  0  0
    1.6683    0.0010   -0.5698 C   0  0  0  0  0  0  0  0  0  0  0  0
    2.5064    1.2465   -1.1987 S   0  0  0  0  0  0  0  0  0  0  0  0
    1.8584    2.0421    1.1284 H   0  0  0  0  0  0  0  0  0  0  0  0
    0.8066   -1.0228    1.1029 H   0  0  0  0  0  0  0  0  0  0  0  0
    1.5427   -0.9062   -1.1587 H   0  0  0  0  0  0  0  0  0  0  0  0
  1  2  3  0
  1  7  1  0
  2  3  1  0
  3  4  1  0
  3  5  1  0
  4  9  1  0
  4 10  1  0
  4 11  1  0
  5  6  3  0
  6 12  1  0
  8 14  1  0
 13 14  1  0
 13 17  1  0
 14 15  1  0
 14 18  1  0
 15 16  2  0
 15 19  1  0
M  RAD  1   3   2
M  END
>  <reaction>  (4) 
rxn_1421

>  <mol_properties>  (4) 
{"1": {"label": "*4", "atom_type": "Ct"}, "2": {"label": "*3", "atom_type": "Cs"}, "7": {"label": "*2", "atom_type": "H0"}, "13": {"label": "*1", "atom_type": "Cs"}, "14": {"label": "*0", "atom_type": "CS"}}

>  <type>  (4) 
ts

$$$$
