
     RDKit          3D

 12 11  0  0  0  0  0  0  0  0999 V2000
    1.2394   -0.3763   -0.3020 C   0  0  0  0  0  0  0  0  0  0  0  0
    0.1007    0.3023    0.4464 C   0  0  0  0  0  0  0  0  0  0  0  0
   -0.1187    2.0399   -0.0725 S   0  0  0  0  0  0  0  0  0  0  0  0
   -1.1974   -0.4877    0.3552 C   0  0  0  0  0  0  0  0  0  0  0  0
    2.1681    0.1849   -0.2048 H   0  0  0  0  0  0  0  0  0  0  0  0
    1.0031   -0.4606   -1.3656 H   0  0  0  0  0  0  0  0  0  0  0  0
    1.3994   -1.3856    0.0860 H   0  0  0  0  0  0  0  0  0  0  0  0
    0.3796    0.4050    1.4981 H   0  0  0  0  0  0  0  0  0  0  0  0
   -0.4500    1.7779   -1.3452 H   0  0  0  0  0  0  0  0  0  0  0  0
   -1.0545   -1.4978    0.7479 H   0  0  0  0  0  0  0  0  0  0  0  0
   -1.5206   -0.5759   -0.6849 H   0  0  0  0  0  0  0  0  0  0  0  0
   -1.9957   -0.0054    0.9183 H   0  0  0  0  0  0  0  0  0  0  0  0
  1  2  1  0
  1  5  1  0
  1  6  1  0
  1  7  1  0
  2  4  1  0
  2  3  1  0
  2  8  1  0
  3  9  1  0
  4 10  1  0
  4 11  1  0
  4 12  1  0
M  END
>  <reaction>  (1) 
rxn_1945

>  <mol_properties>  (1) 
{"1": {"label": "donator", "atom_type": "Cs"}, "7": {"label": "d_hydrogen", "atom_type": "H0"}}

>  <type>  (1) 
r1h

$$$$

     RDKit          3D

  3  2  0  0  0  0  0  0  0  0999 V2000
   -0.2614    0.0642    0.2600 C   0  0  0  0  0  3  0  0  0  0  0  0
    1.1418    0.6115   -0.1062 S   0  0  0  0  0  0  0  0  0  0  0  0
   -0.8805   -0.7296   -0.1538 H   0  0  0  0  0  0  0  0  0  0  0  0
  1  2  2  0
  1  3  1  0
M  RAD  1   1   2
M  END
>  <reaction>  (2) 
rxn_1945

>  <mol_properties>  (2) 
{"0": {"label": "acceptor", "atom_type": "CS"}}

>  <type>  (2) 
r2

$$$$

     RDKit          3D

  4  3  0  0  0  0  0  0  0  0999 V2000
   -0.1097    0.0067    0.0027 C   0  0  0  0  0  0  0  0  0  0  0  0
    1.4849   -0.0901   -0.0362 S   0  0  0  0  0  0  0  0  0  0  0  0
   -0.6318    0.9620    0.0167 H   0  0  0  0  0  0  0  0  0  0  0  0
   -0.7434   -0.8786    0.0168 H   0  0  0  0  0  0  0  0  0  0  0  0
  1  2  2  0
  1  3  1  0
  1  4  1  0
M  END
>  <reaction>  (3) 
rxn_1945

>  <mol_properties>  (3) 
{"0": {"label": "acceptor", "atom_type": "CS"}, "3": {"label": "a_hydrogen", "atom_type": "H0"}}

>  <type>  (3) 
r2h

$$$$

     RDKit          3D

 15 13  0  0  0  0  0  0  0  0999 V2000
   -1.2213   -0.5800    0.6483 C   0  0  0  0  0  3  0  0  0  0  0  0
   -1.1718   -2.0740    0.1253 S   0  0  0  0  0  0  0  0  0  0  0  0
   -2.1301   -0.0349    0.9108 H   0  0  0  0  0  0  0  0  0  0  0  0
    0.6179    0.9155   -1.5801 C   0  0  0  0  0  0  0  0  0  0  0  0
    0.8441    0.9298   -0.0898 C   0  0  0  0  0  0  0  0  0  0  0  0
    2.2763    0.0319    0.4785 S   0  0  0  0  0  0  0  0  0  0  0  0
    0.7502    2.2853    0.5678 C   0  0  0  0  0  0  0  0  0  0  0  0
    0.5579   -0.1055   -1.9616 H   0  0  0  0  0  0  0  0  0  0  0  0
    1.4312    1.4260   -2.1041 H   0  0  0  0  0  0  0  0  0  0  0  0
   -0.3184    1.4234   -1.8240 H   0  0  0  0  0  0  0  0  0  0  0  0
   -0.1599    0.2188    0.4269 H   0  0  0  0  0  0  0  0  0  0  0  0
    2.0415   -1.0904   -0.2165 H   0  0  0  0  0  0  0  0  0  0  0  0
   -0.2070    2.7504    0.3239 H   0  0  0  0  0  0  0  0  0  0  0  0
    1.5426    2.9524    0.2138 H   0  0  0  0  0  0  0  0  0  0  0  0
    0.8297    2.2109    1.6533 H   0  0  0  0  0  0  0  0  0  0  0  0
  1  2  2  0
  1  3  1  0
  4  5  1  0
  4  8  1  0
  4  9  1  0
  4 10  1  0
  5  7  1  0
  5  6  1  0
  5 11  1  0
  6 12  1  0
  7 13  1  0
  7 14  1  0
  7 15  1  0
M  RAD  1   1   2
M  END
>  <reaction>  (4) 
rxn_1945

>  <mol_properties>  (4) 
{"0": {"label": "*3", "atom_type": "CS"}, "1": {"label": "*4", "atom_type": "S2d"}, "4": {"label": "*1", "atom_type": "Cs"}, "5": {"label": "*0", "atom_type": "S2s"}, "10": {"label": "*2", "atom_type": "H0"}}

>  <type>  (4) 
ts

$$$$
