
     RDKit          3D

  8  7  0  0  0  0  0  0  0  0999 V2000
    0.7610    0.0250    0.0051 C   0  0  0  0  0  0  0  0  0  0  0  0
   -0.7610   -0.0250   -0.0051 C   0  0  0  0  0  0  0  0  0  0  0  0
    1.1904   -0.9237   -0.3217 H   0  0  0  0  0  0  0  0  0  0  0  0
    1.1359    0.8041   -0.6609 H   0  0  0  0  0  0  0  0  0  0  0  0
    1.1435    0.2336    1.0058 H   0  0  0  0  0  0  0  0  0  0  0  0
   -1.1435   -0.2336   -1.0058 H   0  0  0  0  0  0  0  0  0  0  0  0
   -1.1904    0.9237    0.3216 H   0  0  0  0  0  0  0  0  0  0  0  0
   -1.1359   -0.8041    0.6609 H   0  0  0  0  0  0  0  0  0  0  0  0
  1  2  1  0
  1  3  1  0
  1  4  1  0
  1  5  1  0
  2  6  1  0
  2  7  1  0
  2  8  1  0
M  END
>  <reaction>  (1) 
rxn_419

>  <mol_properties>  (1) 
{"1": {"label": "donator", "atom_type": "Cs"}, "5": {"label": "d_hydrogen", "atom_type": "H0"}}

>  <type>  (1) 
r1h

$$$$

     RDKit          3D

 14 13  0  0  0  0  0  0  0  0999 V2000
    0.1523    1.4701    0.0231 C   0  0  0  0  0  0  0  0  0  0  0  0
    0.0724   -0.0001   -0.3729 C   0  0  0  0  0  0  0  0  0  0  0  0
    1.2474   -0.8003    0.1743 C   0  0  0  0  0  0  0  0  0  0  0  0
   -0.0121   -0.1270   -1.8938 C   0  0  0  0  0  0  0  0  0  0  0  0
   -0.1587   -1.3813   -2.3858 O   0  0  0  0  0  1  0  0  0  0  0  0
    1.0591    1.9320   -0.3785 H   0  0  0  0  0  0  0  0  0  0  0  0
    0.1790    1.5804    1.1081 H   0  0  0  0  0  0  0  0  0  0  0  0
   -0.7050    2.0354   -0.3496 H   0  0  0  0  0  0  0  0  0  0  0  0
   -0.8541   -0.4208    0.0314 H   0  0  0  0  0  0  0  0  0  0  0  0
    1.2629   -0.7766    1.2653 H   0  0  0  0  0  0  0  0  0  0  0  0
    1.1914   -1.8416   -0.1445 H   0  0  0  0  0  0  0  0  0  0  0  0
    2.1953   -0.3860   -0.1823 H   0  0  0  0  0  0  0  0  0  0  0  0
    0.9157    0.2677   -2.3596 H   0  0  0  0  0  0  0  0  0  0  0  0
   -0.8026    0.5214   -2.3140 H   0  0  0  0  0  0  0  0  0  0  0  0
  1  2  1  0
  1  6  1  0
  1  7  1  0
  1  8  1  0
  2  3  1  0
  2  4  1  0
  2  9  1  0
  3 10  1  0
  3 11  1  0
  3 12  1  0
  4  5  1  0
  4 13  1  0
  4 14  1  0
M  RAD  1   5   2
M  END
>  <reaction>  (2) 
rxn_419

>  <mol_properties>  (2) 
{"4": {"label": "acceptor", "atom_type": "O2s"}}

>  <type>  (2) 
r2

$$$$

     RDKit          3D

 15 14  0  0  0  0  0  0  0  0999 V2000
   -0.6986    1.3249   -0.1641 C   0  0  0  0  0  0  0  0  0  0  0  0
   -0.2590   -0.0344    0.3671 C   0  0  0  0  0  0  0  0  0  0  0  0
   -0.4734   -0.1429    1.8733 C   0  0  0  0  0  0  0  0  0  0  0  0
   -0.9841   -1.1722   -0.3462 C   0  0  0  0  0  0  0  0  0  0  0  0
   -0.7805   -1.1911   -1.7444 O   0  0  0  0  0  0  0  0  0  0  0  0
   -0.1246    2.1306    0.2976 H   0  0  0  0  0  0  0  0  0  0  0  0
   -1.7557    1.4964    0.0581 H   0  0  0  0  0  0  0  0  0  0  0  0
   -0.5709    1.3852   -1.2449 H   0  0  0  0  0  0  0  0  0  0  0  0
    0.8141   -0.1541    0.1667 H   0  0  0  0  0  0  0  0  0  0  0  0
   -1.5346   -0.0466    2.1192 H   0  0  0  0  0  0  0  0  0  0  0  0
    0.0611    0.6480    2.4019 H   0  0  0  0  0  0  0  0  0  0  0  0
   -0.1249   -1.1023    2.2618 H   0  0  0  0  0  0  0  0  0  0  0  0
   -0.6918   -2.1316    0.1011 H   0  0  0  0  0  0  0  0  0  0  0  0
   -2.0629   -1.0627   -0.2056 H   0  0  0  0  0  0  0  0  0  0  0  0
    0.1528   -1.3298   -1.9125 H   0  0  0  0  0  0  0  0  0  0  0  0
  1  2  1  0
  1  6  1  0
  1  7  1  0
  1  8  1  0
  2  3  1  0
  2  4  1  0
  2  9  1  0
  3 10  1  0
  3 11  1  0
  3 12  1  0
  4  5  1  0
  4 13  1  0
  4 14  1  0
  5 15  1  0
M  END
>  <reaction>  (3) 
rxn_419

>  <mol_properties>  (3) 
{"4": {"label": "acceptor", "atom_type": "O2s"}, "14": {"label": "a_hydrogen", "atom_type": "H0"}}

>  <type>  (3) 
r2h

$$$$

     RDKit          3D

 22 20  0  0  0  0  0  0  0  0999 V2000
   -1.8422    1.3076    0.5536 C   0  0  0  0  0  0  0  0  0  0  0  0
   -0.7621    0.8479   -0.4169 C   0  0  0  0  0  0  0  0  0  0  0  0
   -0.7112    1.7231   -1.6641 C   0  0  0  0  0  0  0  0  0  0  0  0
    0.6099    0.8147    0.2558 C   0  0  0  0  0  0  0  0  0  0  0  0
    0.6875    0.0040    1.3844 O   0  0  0  0  0  0  0  0  0  0  0  0
   -2.8311    1.2557    0.0940 H   0  0  0  0  0  0  0  0  0  0  0  0
   -1.6681    2.3442    0.8570 H   0  0  0  0  0  0  0  0  0  0  0  0
   -1.8454    0.6911    1.4525 H   0  0  0  0  0  0  0  0  0  0  0  0
   -0.9926   -0.1785   -0.7267 H   0  0  0  0  0  0  0  0  0  0  0  0
   -0.4663    2.7564   -1.4021 H   0  0  0  0  0  0  0  0  0  0  0  0
    0.0426    1.3701   -2.3719 H   0  0  0  0  0  0  0  0  0  0  0  0
   -1.6746    1.7318   -2.1765 H   0  0  0  0  0  0  0  0  0  0  0  0
    0.8628    1.8245    0.6124 H   0  0  0  0  0  0  0  0  0  0  0  0
    1.3829    0.5472   -0.4800 H   0  0  0  0  0  0  0  0  0  0  0  0
    1.2825   -2.3170   -0.8175 C   0  0  0  0  0  0  0  0  0  0  0  0
    0.5387   -2.3341    0.4886 C   0  0  0  0  0  3  0  0  0  0  0  0
    0.8091   -1.6503   -1.5408 H   0  0  0  0  0  0  0  0  0  0  0  0
    2.3159   -1.9944   -0.6815 H   0  0  0  0  0  0  0  0  0  0  0  0
    1.3053   -3.3165   -1.2630 H   0  0  0  0  0  0  0  0  0  0  0  0
    0.5832   -1.1781    0.9989 H   0  0  0  0  0  0  0  0  0  0  0  0
    1.0047   -2.9328    1.2699 H   0  0  0  0  0  0  0  0  0  0  0  0
   -0.5270   -2.5414    0.4069 H   0  0  0  0  0  0  0  0  0  0  0  0
  1  2  1  0
  1  6  1  0
  1  7  1  0
  1  8  1  0
  2  3  1  0
  2  4  1  0
  2  9  1  0
  3 10  1  0
  3 11  1  0
  3 12  1  0
  4  5  1  0
  4 13  1  0
  4 14  1  0
  5 20  1  0
 15 16  1  0
 15 17  1  0
 15 18  1  0
 15 19  1  0
 16 21  1  0
 16 22  1  0
M  RAD  1  16   2
M  END
>  <reaction>  (4) 
rxn_419

>  <mol_properties>  (4) 
{"3": {"label": "*0", "atom_type": "Cs"}, "4": {"label": "*1", "atom_type": "O2s"}, "14": {"label": "*4", "atom_type": "Cs"}, "15": {"label": "*3", "atom_type": "Cs"}, "19": {"label": "*2", "atom_type": "H0"}}

>  <type>  (4) 
ts

$$$$
