
     RDKit          3D

  9  8  0  0  0  0  0  0  0  0999 V2000
   -0.8818   -0.3578    0.1297 C   0  0  0  0  0  0  0  0  0  0  0  0
    0.6153   -0.3021   -0.1188 C   0  0  0  0  0  0  0  0  0  0  0  0
    1.5354   -1.7170    0.5545 S   0  0  0  0  0  0  0  0  0  0  0  0
   -1.1018   -0.3317    1.1984 H   0  0  0  0  0  0  0  0  0  0  0  0
   -1.3114   -1.2723   -0.2799 H   0  0  0  0  0  0  0  0  0  0  0  0
   -1.3767    0.4976   -0.3363 H   0  0  0  0  0  0  0  0  0  0  0  0
    1.0467    0.6194    0.2718 H   0  0  0  0  0  0  0  0  0  0  0  0
    0.8295   -0.3275   -1.1882 H   0  0  0  0  0  0  0  0  0  0  0  0
    1.2306   -1.5077    1.8423 H   0  0  0  0  0  0  0  0  0  0  0  0
  1  2  1  0
  1  4  1  0
  1  5  1  0
  1  6  1  0
  2  3  1  0
  2  7  1  0
  2  8  1  0
  3  9  1  0
M  END
>  <reaction>  (1) 
rxn_1867

>  <mol_properties>  (1) 
{"1": {"label": "donator", "atom_type": "Cs"}, "6": {"label": "d_hydrogen", "atom_type": "H0"}}

>  <type>  (1) 
r1h

$$$$

     RDKit          3D

 13 12  0  0  0  0  0  0  0  0999 V2000
   -1.3649   -0.5968   -0.3477 C   0  0  0  0  0  0  0  0  0  0  0  0
   -0.1601   -0.2776    0.4669 C   0  0  0  0  0  3  0  0  0  0  0  0
    1.1242   -0.9571    0.1415 C   0  0  0  0  0  0  0  0  0  0  0  0
   -0.1188    1.0131    1.2080 C   0  0  0  0  0  0  0  0  0  0  0  0
   -1.4265   -1.6633   -0.5768 H   0  0  0  0  0  0  0  0  0  0  0  0
   -2.2858   -0.3004    0.1601 H   0  0  0  0  0  0  0  0  0  0  0  0
   -1.3532   -0.0670   -1.3139 H   0  0  0  0  0  0  0  0  0  0  0  0
    1.6174   -0.4964   -0.7296 H   0  0  0  0  0  0  0  0  0  0  0  0
    0.9723   -2.0105   -0.1062 H   0  0  0  0  0  0  0  0  0  0  0  0
    1.8338   -0.8976    0.9702 H   0  0  0  0  0  0  0  0  0  0  0  0
   -1.0852    1.2509    1.6591 H   0  0  0  0  0  0  0  0  0  0  0  0
    0.6358    1.0011    1.9982 H   0  0  0  0  0  0  0  0  0  0  0  0
    0.1343    1.8546    0.5431 H   0  0  0  0  0  0  0  0  0  0  0  0
  1  2  1  0
  1  5  1  0
  1  6  1  0
  1  7  1  0
  2  3  1  0
  2  4  1  0
  3  8  1  0
  3  9  1  0
  3 10  1  0
  4 11  1  0
  4 12  1  0
  4 13  1  0
M  RAD  1   2   2
M  END
>  <reaction>  (2) 
rxn_1867

>  <mol_properties>  (2) 
{"1": {"label": "acceptor", "atom_type": "Cs"}}

>  <type>  (2) 
r2

$$$$

     RDKit          3D

 14 13  0  0  0  0  0  0  0  0999 V2000
   -0.7647   -1.2352   -0.0349 C   0  0  0  0  0  0  0  0  0  0  0  0
    0.0570   -0.0126    0.3624 C   0  0  0  0  0  0  0  0  0  0  0  0
    1.4161   -0.0194   -0.3308 C   0  0  0  0  0  0  0  0  0  0  0  0
   -0.7022    1.2765    0.0630 C   0  0  0  0  0  0  0  0  0  0  0  0
   -0.2388   -2.1618    0.2041 H   0  0  0  0  0  0  0  0  0  0  0  0
   -0.9624   -1.2316   -1.1108 H   0  0  0  0  0  0  0  0  0  0  0  0
   -1.7274   -1.2511    0.4805 H   0  0  0  0  0  0  0  0  0  0  0  0
    0.2295   -0.0590    1.4432 H   0  0  0  0  0  0  0  0  0  0  0  0
    1.2932    0.0259   -1.4168 H   0  0  0  0  0  0  0  0  0  0  0  0
    2.0206    0.8382   -0.0280 H   0  0  0  0  0  0  0  0  0  0  0  0
    1.9767   -0.9268   -0.0966 H   0  0  0  0  0  0  0  0  0  0  0  0
   -1.6638    1.3001    0.5799 H   0  0  0  0  0  0  0  0  0  0  0  0
   -0.8977    1.3664   -1.0096 H   0  0  0  0  0  0  0  0  0  0  0  0
   -0.1313    2.1545    0.3722 H   0  0  0  0  0  0  0  0  0  0  0  0
  1  2  1  0
  1  5  1  0
  1  6  1  0
  1  7  1  0
  2  3  1  0
  2  4  1  0
  2  8  1  0
  3  9  1  0
  3 10  1  0
  3 11  1  0
  4 12  1  0
  4 13  1  0
  4 14  1  0
M  END
>  <reaction>  (3) 
rxn_1867

>  <mol_properties>  (3) 
{"0": {"label": "a_hydrogen", "atom_type": "H0"}, "2": {"label": "acceptor", "atom_type": "Cs"}}

>  <type>  (3) 
r2h

$$$$

     RDKit          3D

 22 20  0  0  0  0  0  0  0  0999 V2000
   -1.3929   -0.2583   -1.8225 C   0  0  0  0  0  0  0  0  0  0  0  0
   -1.0647    0.4428   -0.5300 C   0  0  0  0  0  3  0  0  0  0  0  0
   -0.5896    2.1562   -0.6311 S   0  0  0  0  0  0  0  0  0  0  0  0
   -0.5331   -0.2520   -2.4970 H   0  0  0  0  0  0  0  0  0  0  0  0
   -2.2276    0.2182   -2.3437 H   0  0  0  0  0  0  0  0  0  0  0  0
   -1.6590   -1.2999   -1.6297 H   0  0  0  0  0  0  0  0  0  0  0  0
   -0.0369   -0.2414    0.0168 H   0  0  0  0  0  0  0  0  0  0  0  0
   -1.8444    0.3655    0.2267 H   0  0  0  0  0  0  0  0  0  0  0  0
    0.3788    2.0019   -1.5457 H   0  0  0  0  0  0  0  0  0  0  0  0
    2.1549   -0.5262   -0.3742 C   0  0  0  0  0  0  0  0  0  0  0  0
    1.0041   -0.9177    0.5192 C   0  0  0  0  0  0  0  0  0  0  0  0
    0.6109   -2.3712    0.4223 C   0  0  0  0  0  0  0  0  0  0  0  0
    1.1126   -0.3932    1.9293 C   0  0  0  0  0  0  0  0  0  0  0  0
    1.9704   -0.8150   -1.4120 H   0  0  0  0  0  0  0  0  0  0  0  0
    2.3293    0.5515   -0.3428 H   0  0  0  0  0  0  0  0  0  0  0  0
    3.0832   -1.0186   -0.0582 H   0  0  0  0  0  0  0  0  0  0  0  0
    1.3922   -3.0176    0.8413 H   0  0  0  0  0  0  0  0  0  0  0  0
    0.4578   -2.6747   -0.6158 H   0  0  0  0  0  0  0  0  0  0  0  0
   -0.3097   -2.5719    0.9754 H   0  0  0  0  0  0  0  0  0  0  0  0
    1.2478    0.6905    1.9355 H   0  0  0  0  0  0  0  0  0  0  0  0
    0.2174   -0.6271    2.5098 H   0  0  0  0  0  0  0  0  0  0  0  0
    1.9690   -0.8398    2.4498 H   0  0  0  0  0  0  0  0  0  0  0  0
  1  2  1  0
  1  4  1  0
  1  5  1  0
  1  6  1  0
  2  3  1  0
  2  8  1  0
  3  9  1  0
  7 11  1  0
 10 11  1  0
 10 14  1  0
 10 15  1  0
 10 16  1  0
 11 12  1  0
 11 13  1  0
 12 17  1  0
 12 18  1  0
 12 19  1  0
 13 20  1  0
 13 21  1  0
 13 22  1  0
M  RAD  1   2   2
M  END
>  <reaction>  (4) 
rxn_1867

>  <mol_properties>  (4) 
{"1": {"label": "*3", "atom_type": "Cs"}, "2": {"label": "*4", "atom_type": "S2s"}, "6": {"label": "*2", "atom_type": "H0"}, "9": {"label": "*0", "atom_type": "Cs"}, "10": {"label": "*1", "atom_type": "Cs"}}

>  <type>  (4) 
ts

$$$$
