
     RDKit          3D

  4  3  0  0  0  0  0  0  0  0999 V2000
    0.5949   -0.3853    0.2659 O   0  0  0  0  0  0  0  0  0  0  0  0
   -0.5918    0.4028    0.2462 O   0  0  0  0  0  0  0  0  0  0  0  0
    1.1865    0.1539   -0.2689 H   0  0  0  0  0  0  0  0  0  0  0  0
   -1.1896   -0.1714   -0.2432 H   0  0  0  0  0  0  0  0  0  0  0  0
  1  2  1  0
  1  3  1  0
  2  4  1  0
M  END
>  <reaction>  (1) 
rxn_438

>  <mol_properties>  (1) 
{"1": {"label": "donator", "atom_type": "O2s"}, "3": {"label": "d_hydrogen", "atom_type": "H0"}}

>  <type>  (1) 
r1h

$$$$

     RDKit          3D

  6  5  0  0  0  0  0  0  0  0999 V2000
   -0.7133   -0.0465   -0.1138 C   0  0  0  0  0  0  0  0  0  0  0  0
    0.6837    0.0990    0.1040 C   0  0  0  0  0  0  0  0  0  0  0  0
    1.4284   -0.8504    0.3164 O   0  0  0  0  0  1  0  0  0  0  0  0
   -1.3425    0.8143   -0.2988 H   0  0  0  0  0  0  0  0  0  0  0  0
   -1.1519   -1.0358   -0.0939 H   0  0  0  0  0  0  0  0  0  0  0  0
    1.0889    1.1261    0.0750 H   0  0  0  0  0  0  0  0  0  0  0  0
  1  2  2  3
  1  4  1  0
  1  5  1  0
  2  3  1  0
  2  6  1  0
M  RAD  1   3   2
M  END
>  <reaction>  (2) 
rxn_438

>  <mol_properties>  (2) 
{"2": {"label": "acceptor", "atom_type": "O2s"}}

>  <type>  (2) 
r2

$$$$

     RDKit          3D

  7  6  0  0  0  0  0  0  0  0999 V2000
   -0.8134   -0.1164    0.3300 C   0  0  0  0  0  0  0  0  0  0  0  0
    0.2313    0.4515   -0.2553 C   0  0  0  0  0  0  0  0  0  0  0  0
    1.4449   -0.1043   -0.4662 O   0  0  0  0  0  0  0  0  0  0  0  0
   -1.7342    0.4365    0.4394 H   0  0  0  0  0  0  0  0  0  0  0  0
   -0.7819   -1.1311    0.7105 H   0  0  0  0  0  0  0  0  0  0  0  0
    0.2022    1.4650   -0.6362 H   0  0  0  0  0  0  0  0  0  0  0  0
    1.4512   -1.0012   -0.1223 H   0  0  0  0  0  0  0  0  0  0  0  0
  1  2  2  3
  1  4  1  0
  1  5  1  0
  2  3  1  0
  2  6  1  0
  3  7  1  0
M  END
>  <reaction>  (3) 
rxn_438

>  <mol_properties>  (3) 
{"0": {"label": "a_hydrogen", "atom_type": "H0"}, "3": {"label": "acceptor", "atom_type": "O2s"}}

>  <type>  (3) 
r2h

$$$$

     RDKit          3D

 10  8  0  0  0  0  0  0  0  0999 V2000
    0.3135   -1.2900   -0.9005 O   0  0  0  0  0  0  0  0  0  0  0  0
   -0.9647   -0.8184   -0.8929 O   0  0  0  0  0  1  0  0  0  0  0  0
    0.2685   -2.0846   -0.3509 H   0  0  0  0  0  0  0  0  0  0  0  0
   -0.8708    0.2661   -0.3154 H   0  0  0  0  0  0  0  0  0  0  0  0
    1.5897    0.8920    0.3898 C   0  0  0  0  0  0  0  0  0  0  0  0
    0.4122    1.0246    1.0575 C   0  0  0  0  0  0  0  0  0  0  0  0
   -0.7554    1.0522    0.4984 O   0  0  0  0  0  0  0  0  0  0  0  0
    2.5182    0.8456    0.9416 H   0  0  0  0  0  0  0  0  0  0  0  0
    1.6228    0.8500   -0.6887 H   0  0  0  0  0  0  0  0  0  0  0  0
    0.4128    1.1058    2.1457 H   0  0  0  0  0  0  0  0  0  0  0  0
  1  2  1  0
  1  3  1  0
  4  7  1  0
  5  6  2  3
  5  8  1  0
  5  9  1  0
  6  7  1  0
  6 10  1  0
M  RAD  1   2   2
M  END
>  <reaction>  (4) 
rxn_438

>  <mol_properties>  (4) 
{"0": {"label": "*4", "atom_type": "O2s"}, "1": {"label": "*3", "atom_type": "O2s"}, "3": {"label": "*2", "atom_type": "H0"}, "5": {"label": "*0", "atom_type": "Cd"}, "6": {"label": "*1", "atom_type": "O2s"}}

>  <type>  (4) 
ts

$$$$
