
     RDKit          3D

 15 15  0  0  0  0  0  0  0  0999 V2000
    2.2031   -0.2111   -0.1693 C   0  0  0  0  0  0  0  0  0  0  0  0
    0.7140   -0.0314   -0.0623 C   0  0  0  0  0  0  0  0  0  0  0  0
   -0.0114    0.5491   -1.0982 C   0  0  0  0  0  0  0  0  0  0  0  0
   -1.3882    0.6886   -1.0150 C   0  0  0  0  0  0  0  0  0  0  0  0
   -2.0661    0.2493    0.1118 C   0  0  0  0  0  0  0  0  0  0  0  0
   -1.3551   -0.3278    1.1528 C   0  0  0  0  0  0  0  0  0  0  0  0
    0.0216   -0.4648    1.0642 C   0  0  0  0  0  0  0  0  0  0  0  0
    2.6776   -0.1836    0.8122 H   0  0  0  0  0  0  0  0  0  0  0  0
    2.4446   -1.1749   -0.6249 H   0  0  0  0  0  0  0  0  0  0  0  0
    2.6532    0.5664   -0.7875 H   0  0  0  0  0  0  0  0  0  0  0  0
    0.5104    0.8989   -1.9819 H   0  0  0  0  0  0  0  0  0  0  0  0
   -1.9328    1.1452   -1.8322 H   0  0  0  0  0  0  0  0  0  0  0  0
   -3.1409    0.3597    0.1800 H   0  0  0  0  0  0  0  0  0  0  0  0
   -1.8736   -0.6702    2.0398 H   0  0  0  0  0  0  0  0  0  0  0  0
    0.5695   -0.9141    1.8849 H   0  0  0  0  0  0  0  0  0  0  0  0
  1  2  1  0
  1  8  1  0
  1  9  1  0
  1 10  1  0
  2  3  2  0
  2  7  1  0
  3  4  1  0
  3 11  1  0
  4  5  2  0
  4 12  1  0
  5  6  1  0
  5 13  1  0
  6  7  2  0
  6 14  1  0
  7 15  1  0
M  END
>  <reaction>  (1) 
rxn_1446

>  <mol_properties>  (1) 
{"0": {"label": "donator", "atom_type": "Cs"}, "7": {"label": "d_hydrogen", "atom_type": "H0"}}

>  <type>  (1) 
r1h

$$$$

     RDKit          3D

  8  7  0  0  0  0  0  0  0  0999 V2000
   -2.2129    0.4855    0.7390 C   0  0  0  0  0  0  0  0  0  0  0  0
   -1.2226    0.0526    0.1974 C   0  0  0  0  0  0  0  0  0  0  0  0
   -0.1006   -0.4575   -0.4419 C   0  0  0  0  0  3  0  0  0  0  0  0
    1.1960   -0.1737   -0.0342 C   0  0  0  0  0  0  0  0  0  0  0  0
    2.3329    0.0603    0.3036 C   0  0  0  0  0  0  0  0  0  0  0  0
   -3.0803    0.8696    1.2198 H   0  0  0  0  0  0  0  0  0  0  0  0
   -0.2433   -1.1067   -1.2980 H   0  0  0  0  0  0  0  0  0  0  0  0
    3.3308    0.2700    0.6058 H   0  0  0  0  0  0  0  0  0  0  0  0
  1  2  3  0
  1  6  1  0
  2  3  1  0
  3  4  1  0
  3  7  1  0
  4  5  3  0
  5  8  1  0
M  RAD  1   3   2
M  END
>  <reaction>  (2) 
rxn_1446

>  <mol_properties>  (2) 
{"2": {"label": "acceptor", "atom_type": "Cs"}}

>  <type>  (2) 
r2

$$$$

     RDKit          3D

  9  8  0  0  0  0  0  0  0  0999 V2000
   -2.1022   -0.6873    0.3932 C   0  0  0  0  0  0  0  0  0  0  0  0
   -1.2072   -0.1086   -0.1482 C   0  0  0  0  0  0  0  0  0  0  0  0
   -0.1242    0.6105   -0.8193 C   0  0  0  0  0  0  0  0  0  0  0  0
    1.2067    0.1106   -0.4741 C   0  0  0  0  0  0  0  0  0  0  0  0
    2.3005   -0.2875   -0.2012 C   0  0  0  0  0  0  0  0  0  0  0  0
   -2.8942   -1.2059    0.8778 H   0  0  0  0  0  0  0  0  0  0  0  0
   -0.1862    1.6723   -0.5649 H   0  0  0  0  0  0  0  0  0  0  0  0
   -0.2641    0.5418   -1.9017 H   0  0  0  0  0  0  0  0  0  0  0  0
    3.2709   -0.6459    0.0455 H   0  0  0  0  0  0  0  0  0  0  0  0
  1  2  3  0
  1  6  1  0
  2  3  1  0
  3  4  1  0
  3  7  1  0
  3  8  1  0
  4  5  3  0
  5  9  1  0
M  END
>  <reaction>  (3) 
rxn_1446

>  <mol_properties>  (3) 
{"2": {"label": "acceptor", "atom_type": "Cs"}, "8": {"label": "a_hydrogen", "atom_type": "H0"}}

>  <type>  (3) 
r2h

$$$$

     RDKit          3D

 23 22  0  0  0  0  0  0  0  0999 V2000
   -1.3866   -2.1311   -0.3462 C   0  0  0  0  0  0  0  0  0  0  0  0
   -1.1234   -1.6670    0.7286 C   0  0  0  0  0  0  0  0  0  0  0  0
   -0.7255   -1.0706    1.9680 C   0  0  0  0  0  0  0  0  0  0  0  0
   -1.6112   -0.0990    2.5416 C   0  0  0  0  0  0  0  0  0  0  0  0
   -2.2982    0.7608    3.0197 C   0  0  0  0  0  0  0  0  0  0  0  0
   -1.6318   -2.5402   -1.2963 H   0  0  0  0  0  0  0  0  0  0  0  0
   -0.3377   -1.7849    2.6933 H   0  0  0  0  0  0  0  0  0  0  0  0
   -2.9284    1.5038    3.4456 H   0  0  0  0  0  0  0  0  0  0  0  0
    1.4012    0.4297    1.2288 C   0  0  0  0  0  0  0  0  0  0  0  0
    1.1609    0.5996   -0.1920 C   0  0  0  0  0  0  0  0  0  0  0  0
    0.2249    1.5361   -0.6490 C   0  0  0  0  0  3  0  0  0  0  0  0
   -0.0589    1.6545   -1.9964 C   0  0  0  0  0  0  0  0  0  0  0  0
    0.5831    0.8402   -2.9202 C   0  0  0  0  0  0  0  0  0  0  0  0
    1.5120   -0.0952   -2.4838 C   0  0  0  0  0  0  0  0  0  0  0  0
    1.7941   -0.2182   -1.1361 C   0  0  0  0  0  0  0  0  0  0  0  0
    0.3619   -0.3832    1.6501 H   0  0  0  0  0  0  0  0  0  0  0  0
    2.2800   -0.1416    1.5140 H   0  0  0  0  0  0  0  0  0  0  0  0
    1.2000    1.2859    1.8670 H   0  0  0  0  0  0  0  0  0  0  0  0
   -0.2857    2.1653    0.0707 H   0  0  0  0  0  0  0  0  0  0  0  0
   -0.7862    2.3836   -2.3308 H   0  0  0  0  0  0  0  0  0  0  0  0
    0.3614    0.9352   -3.9756 H   0  0  0  0  0  0  0  0  0  0  0  0
    2.0161   -0.7326   -3.1994 H   0  0  0  0  0  0  0  0  0  0  0  0
    2.5128   -0.9560   -0.7993 H   0  0  0  0  0  0  0  0  0  0  0  0
  1  2  3  0
  1  6  1  0
  2  3  1  0
  3  4  1  0
  3  7  1  0
  3 16  1  0
  4  5  3  0
  5  8  1  0
  9 10  2  3
  9 17  1  0
  9 18  1  0
 10 11  1  0
 10 15  1  0
 11 12  1  0
 11 19  1  0
 12 13  2  0
 12 20  1  0
 13 14  1  0
 13 21  1  0
 14 15  2  0
 14 22  1  0
 15 23  1  0
M  RAD  1  11   2
M  END
>  <reaction>  (4) 
rxn_1446

>  <mol_properties>  (4) 
{"1": {"label": "*0", "atom_type": "Ct"}, "2": {"label": "*1", "atom_type": "Cs"}, "8": {"label": "*3", "atom_type": "Cd"}, "9": {"label": "*4", "atom_type": "Cd"}, "15": {"label": "*2", "atom_type": "H0"}}

>  <type>  (4) 
ts

$$$$
