
     RDKit          3D

 25 26  0  0  0  0  0  0  0  0999 V2000
    2.0298   -1.1515    0.0571 C   0  0  0  0  0  0  0  0  0  0  0  0
    2.2278    0.2445    0.6528 C   0  0  0  0  0  0  0  0  0  0  0  0
    1.2292    1.2625    0.0947 C   0  0  0  0  0  0  0  0  0  0  0  0
   -0.1869    0.7454    0.2762 C   0  0  0  0  0  0  0  0  0  0  0  0
   -1.3415    1.5501   -0.3122 C   0  0  0  0  0  0  0  0  0  0  0  0
   -2.5060    0.5338   -0.4178 C   0  0  0  0  0  0  0  0  0  0  0  0
   -1.8709   -0.8658   -0.2234 C   0  0  0  0  0  0  0  0  0  0  0  0
   -0.3715   -0.6265   -0.3693 C   0  0  0  0  0  0  0  0  0  0  0  0
    0.5898   -1.6500    0.2086 C   0  0  0  0  0  0  0  0  0  0  0  0
    2.2820   -1.1226   -1.0088 H   0  0  0  0  0  0  0  0  0  0  0  0
    2.7243   -1.8549    0.5221 H   0  0  0  0  0  0  0  0  0  0  0  0
    2.1030    0.1885    1.7400 H   0  0  0  0  0  0  0  0  0  0  0  0
    3.2514    0.5819    0.4743 H   0  0  0  0  0  0  0  0  0  0  0  0
    1.3611    2.2304    0.5855 H   0  0  0  0  0  0  0  0  0  0  0  0
    1.4198    1.4194   -0.9737 H   0  0  0  0  0  0  0  0  0  0  0  0
   -0.3675    0.6209    1.3539 H   0  0  0  0  0  0  0  0  0  0  0  0
   -1.5992    2.4249    0.2862 H   0  0  0  0  0  0  0  0  0  0  0  0
   -1.0595    1.9116   -1.3055 H   0  0  0  0  0  0  0  0  0  0  0  0
   -3.2666    0.7244    0.3399 H   0  0  0  0  0  0  0  0  0  0  0  0
   -3.0030    0.6112   -1.3853 H   0  0  0  0  0  0  0  0  0  0  0  0
   -2.2549   -1.6039   -0.9288 H   0  0  0  0  0  0  0  0  0  0  0  0
   -2.0796   -1.2429    0.7821 H   0  0  0  0  0  0  0  0  0  0  0  0
   -0.1432   -0.5121   -1.4391 H   0  0  0  0  0  0  0  0  0  0  0  0
    0.4720   -2.6209   -0.2799 H   0  0  0  0  0  0  0  0  0  0  0  0
    0.3601   -1.7986    1.2704 H   0  0  0  0  0  0  0  0  0  0  0  0
  1  2  1  0
  1  9  1  0
  1 10  1  0
  1 11  1  0
  2  3  1  0
  2 12  1  0
  2 13  1  0
  3  4  1  0
  3 14  1  0
  3 15  1  0
  4  5  1  0
  4  8  1  0
  4 16  1  0
  5  6  1  0
  5 17  1  0
  5 18  1  0
  6  7  1  0
  6 19  1  0
  6 20  1  0
  7  8  1  0
  7 21  1  0
  7 22  1  0
  8  9  1  0
  8 23  1  0
  9 24  1  0
  9 25  1  0
M  END
>  <reaction>  (1) 
rxn_582

>  <mol_properties>  (1) 
{"8": {"label": "donator", "atom_type": "Cs"}, "21": {"label": "d_hydrogen", "atom_type": "H0"}}

>  <type>  (1) 
r1h

$$$$

     RDKit          3D

 11 10  0  0  0  0  0  0  0  0999 V2000
    2.0591    0.2533   -0.1061 C   0  0  0  0  0  0  0  0  0  0  0  0
    0.8045   -0.3111   -0.1535 C   0  0  0  0  0  0  0  0  0  0  0  0
   -0.3816    0.3942   -0.1885 C   0  0  0  0  0  3  0  0  0  0  0  0
   -1.7316   -0.2294   -0.2396 C   0  0  0  0  0  0  0  0  0  0  0  0
    2.9505   -0.3576   -0.0805 H   0  0  0  0  0  0  0  0  0  0  0  0
    2.1872    1.3290   -0.0933 H   0  0  0  0  0  0  0  0  0  0  0  0
    0.7385   -1.3970   -0.1643 H   0  0  0  0  0  0  0  0  0  0  0  0
   -0.3340    1.4795   -0.1783 H   0  0  0  0  0  0  0  0  0  0  0  0
   -1.6704   -1.3186   -0.2461 H   0  0  0  0  0  0  0  0  0  0  0  0
   -2.3404    0.0713    0.6191 H   0  0  0  0  0  0  0  0  0  0  0  0
   -2.2805    0.0851   -1.1331 H   0  0  0  0  0  0  0  0  0  0  0  0
  1  2  2  3
  1  5  1  0
  1  6  1  0
  2  3  1  0
  2  7  1  0
  3  4  1  0
  3  8  1  0
  4  9  1  0
  4 10  1  0
  4 11  1  0
M  RAD  1   3   2
M  END
>  <reaction>  (2) 
rxn_582

>  <mol_properties>  (2) 
{"0": {"label": "acceptor", "atom_type": "Cs"}}

>  <type>  (2) 
r2

$$$$

     RDKit          3D

 12 11  0  0  0  0  0  0  0  0999 V2000
    1.9877    0.1011    0.4814 C   0  0  0  0  0  0  0  0  0  0  0  0
    0.8179    0.5502    0.0525 C   0  0  0  0  0  0  0  0  0  0  0  0
   -0.2939   -0.2692   -0.5320 C   0  0  0  0  0  0  0  0  0  0  0  0
   -0.0292   -1.7631   -0.6328 C   0  0  0  0  0  0  0  0  0  0  0  0
    2.2522   -0.9490    0.4436 H   0  0  0  0  0  0  0  0  0  0  0  0
    2.7295    0.7757    0.8896 H   0  0  0  0  0  0  0  0  0  0  0  0
    0.6162    1.6164    0.1190 H   0  0  0  0  0  0  0  0  0  0  0  0
   -0.5268    0.1319   -1.5245 H   0  0  0  0  0  0  0  0  0  0  0  0
   -1.1959   -0.0938    0.0644 H   0  0  0  0  0  0  0  0  0  0  0  0
    0.1590   -2.1992    0.3502 H   0  0  0  0  0  0  0  0  0  0  0  0
    0.8382   -1.9701   -1.2626 H   0  0  0  0  0  0  0  0  0  0  0  0
   -0.8879   -2.2759   -1.0672 H   0  0  0  0  0  0  0  0  0  0  0  0
  1  2  2  3
  1  5  1  0
  1  6  1  0
  2  3  1  0
  2  7  1  0
  3  4  1  0
  3  8  1  0
  3  9  1  0
  4 10  1  0
  4 11  1  0
  4 12  1  0
M  END
>  <reaction>  (3) 
rxn_582

>  <mol_properties>  (3) 
{"0": {"label": "acceptor", "atom_type": "Cs"}, "4": {"label": "a_hydrogen", "atom_type": "H0"}}

>  <type>  (3) 
r2h

$$$$

     RDKit          3D

 36 36  0  0  0  0  0  0  0  0999 V2000
   -1.3342    0.3198   -0.5204 C   0  0  0  0  0  0  0  0  0  0  0  0
   -1.0334   -0.7853    0.4940 C   0  0  0  0  0  0  0  0  0  0  0  0
   -2.5998    1.0728   -0.1548 C   0  0  0  0  0  0  0  0  0  0  0  0
   -1.2621   -0.4208   -1.8505 C   0  0  0  0  0  0  0  0  0  0  0  0
   -0.8489   -0.2204    1.8941 C   0  0  0  0  0  0  0  0  0  0  0  0
   -2.4663    1.6400    1.2621 C   0  0  0  0  0  0  0  0  0  0  0  0
   -2.1006    0.5671    2.2912 C   0  0  0  0  0  0  0  0  0  0  0  0
   -0.0590   -1.3721   -1.6693 C   0  0  0  0  0  0  0  0  0  0  0  0
    2.4223   -0.2814    0.3406 C   0  0  0  0  0  0  0  0  0  0  0  0
    3.3920   -1.2395   -0.3074 C   0  0  0  0  0  0  0  0  0  0  0  0
    0.0908   -1.5454   -0.1633 C   0  0  0  0  0  3  0  0  0  0  0  0
    2.3029    1.0686   -0.2134 C   0  0  0  0  0  0  0  0  0  0  0  0
    2.7703    1.4894   -1.3903 C   0  0  0  0  0  0  0  0  0  0  0  0
   -0.4946    1.0269   -0.4871 H   0  0  0  0  0  0  0  0  0  0  0  0
   -1.9171   -1.4458    0.5224 H   0  0  0  0  0  0  0  0  0  0  0  0
   -1.1473    0.2442   -2.7072 H   0  0  0  0  0  0  0  0  0  0  0  0
   -2.1820   -0.9952   -1.9985 H   0  0  0  0  0  0  0  0  0  0  0  0
   -2.7984    1.8783   -0.8665 H   0  0  0  0  0  0  0  0  0  0  0  0
   -3.4551    0.3882   -0.2011 H   0  0  0  0  0  0  0  0  0  0  0  0
   -1.6864    2.4098    1.2589 H   0  0  0  0  0  0  0  0  0  0  0  0
   -3.3924    2.1371    1.5596 H   0  0  0  0  0  0  0  0  0  0  0  0
   -1.9614    1.0277    3.2719 H   0  0  0  0  0  0  0  0  0  0  0  0
   -2.9388   -0.1314    2.3906 H   0  0  0  0  0  0  0  0  0  0  0  0
   -0.6537   -1.0156    2.6183 H   0  0  0  0  0  0  0  0  0  0  0  0
    0.0234    0.4420    1.9051 H   0  0  0  0  0  0  0  0  0  0  0  0
    1.2666   -0.8426    0.1689 H   0  0  0  0  0  0  0  0  0  0  0  0
    2.4865   -0.2778    1.4291 H   0  0  0  0  0  0  0  0  0  0  0  0
    0.8429   -0.9189   -2.0942 H   0  0  0  0  0  0  0  0  0  0  0  0
   -0.2008   -2.3244   -2.1842 H   0  0  0  0  0  0  0  0  0  0  0  0
    3.1518   -1.3969   -1.3613 H   0  0  0  0  0  0  0  0  0  0  0  0
    3.3588   -2.2119    0.1856 H   0  0  0  0  0  0  0  0  0  0  0  0
    4.4190   -0.8672   -0.2555 H   0  0  0  0  0  0  0  0  0  0  0  0
    0.3203   -2.5400    0.2130 H   0  0  0  0  0  0  0  0  0  0  0  0
    1.7411    1.7738    0.3945 H   0  0  0  0  0  0  0  0  0  0  0  0
    2.5992    2.5026   -1.7297 H   0  0  0  0  0  0  0  0  0  0  0  0
    3.3447    0.8445   -2.0448 H   0  0  0  0  0  0  0  0  0  0  0  0
  1  3  1  0
  1  4  1  0
  1  2  1  0
  1 14  1  0
  2  5  1  0
  2 11  1  0
  2 15  1  0
  3  6  1  0
  3 18  1  0
  3 19  1  0
  4  8  1  0
  4 16  1  0
  4 17  1  0
  5  7  1  0
  5 24  1  0
  5 25  1  0
  6  7  1  0
  6 20  1  0
  6 21  1  0
  7 22  1  0
  7 23  1  0
  8 11  1  0
  8 28  1  0
  8 29  1  0
  9 10  1  0
  9 12  1  0
  9 26  1  0
  9 27  1  0
 10 30  1  0
 10 31  1  0
 10 32  1  0
 11 33  1  0
 12 13  2  3
 12 34  1  0
 13 35  1  0
 13 36  1  0
M  RAD  1  11   2
M  END
>  <reaction>  (4) 
rxn_582

>  <mol_properties>  (4) 
{"1": {"label": "*4", "atom_type": "Cs"}, "8": {"label": "*1", "atom_type": "Cs"}, "10": {"label": "*3", "atom_type": "Cs"}, "11": {"label": "*0", "atom_type": "Cd"}, "25": {"label": "*2", "atom_type": "H0"}}

>  <type>  (4) 
ts

$$$$
