
     RDKit          3D

 16 15  0  0  0  0  0  0  0  0999 V2000
    1.7961   -0.3807    1.6176 C   0  0  0  0  0  0  0  0  0  0  0  0
    0.8562   -0.8708    0.8256 C   0  0  0  0  0  0  0  0  0  0  0  0
    0.0895   -0.0826   -0.2048 C   0  0  0  0  0  0  0  0  0  0  0  0
   -1.4061   -0.1111    0.0982 C   0  0  0  0  0  0  0  0  0  0  0  0
    0.4476   -0.5902   -1.5797 C   0  0  0  0  0  0  0  0  0  0  0  0
   -0.3793   -1.1113   -2.4728 C   0  0  0  0  0  0  0  0  0  0  0  0
    2.3110   -1.0032    2.3386 H   0  0  0  0  0  0  0  0  0  0  0  0
    2.0846    0.6643    1.5737 H   0  0  0  0  0  0  0  0  0  0  0  0
    0.5921   -1.9241    0.8925 H   0  0  0  0  0  0  0  0  0  0  0  0
    0.4358    0.9557   -0.1462 H   0  0  0  0  0  0  0  0  0  0  0  0
   -1.5968    0.3080    1.0865 H   0  0  0  0  0  0  0  0  0  0  0  0
   -1.9674    0.4693   -0.6359 H   0  0  0  0  0  0  0  0  0  0  0  0
   -1.7902   -1.1338    0.0883 H   0  0  0  0  0  0  0  0  0  0  0  0
    1.5049   -0.5197   -1.8214 H   0  0  0  0  0  0  0  0  0  0  0  0
   -1.4421   -1.2131   -2.2889 H   0  0  0  0  0  0  0  0  0  0  0  0
   -0.0162   -1.4558   -3.4328 H   0  0  0  0  0  0  0  0  0  0  0  0
  1  2  2  3
  1  7  1  0
  1  8  1  0
  2  3  1  0
  2  9  1  0
  3  4  1  0
  3  5  1  0
  3 10  1  0
  4 11  1  0
  4 12  1  0
  4 13  1  0
  5  6  2  3
  5 14  1  0
  6 15  1  0
  6 16  1  0
M  END
>  <reaction>  (1) 
rxn_1191

>  <mol_properties>  (1) 
{"2": {"label": "donator", "atom_type": "Cs"}, "9": {"label": "d_hydrogen", "atom_type": "H0"}}

>  <type>  (1) 
r1h

$$$$

     RDKit          3D

  5  4  0  0  0  0  0  0  0  0999 V2000
   -0.5642    0.0794    0.0348 C   0  0  0  0  0  3  0  0  0  0  0  0
    1.0624    0.5420    0.2853 S   0  0  0  0  0  0  0  0  0  0  0  0
   -1.3257    0.7631    0.3741 H   0  0  0  0  0  0  0  0  0  0  0  0
   -0.8236   -0.8519   -0.4401 H   0  0  0  0  0  0  0  0  0  0  0  0
    1.6511   -0.5325   -0.2540 H   0  0  0  0  0  0  0  0  0  0  0  0
  1  2  1  0
  1  3  1  0
  1  4  1  0
  2  5  1  0
M  RAD  1   1   2
M  END
>  <reaction>  (2) 
rxn_1191

>  <mol_properties>  (2) 
{"0": {"label": "acceptor", "atom_type": "Cs"}}

>  <type>  (2) 
r2

$$$$

     RDKit          3D

  6  5  0  0  0  0  0  0  0  0999 V2000
   -0.5072   -0.0291   -0.0097 C   0  0  0  0  0  0  0  0  0  0  0  0
    1.1321   -0.1527   -0.7687 S   0  0  0  0  0  0  0  0  0  0  0  0
   -0.6174   -0.7330    0.8127 H   0  0  0  0  0  0  0  0  0  0  0  0
   -0.5863    0.9827    0.3845 H   0  0  0  0  0  0  0  0  0  0  0  0
   -1.2962   -0.1800   -0.7434 H   0  0  0  0  0  0  0  0  0  0  0  0
    1.0312   -1.4237   -1.1764 H   0  0  0  0  0  0  0  0  0  0  0  0
  1  2  1  0
  1  3  1  0
  1  4  1  0
  1  5  1  0
  2  6  1  0
M  END
>  <reaction>  (3) 
rxn_1191

>  <mol_properties>  (3) 
{"0": {"label": "acceptor", "atom_type": "Cs"}, "5": {"label": "a_hydrogen", "atom_type": "H0"}}

>  <type>  (3) 
r2h

$$$$

     RDKit          3D

 21 19  0  0  0  0  0  0  0  0999 V2000
   -0.1794    1.5623   -0.9583 C   0  0  0  0  0  3  0  0  0  0  0  0
    0.2897    2.6883    0.2965 S   0  0  0  0  0  0  0  0  0  0  0  0
    0.6007    1.4472   -1.7040 H   0  0  0  0  0  0  0  0  0  0  0  0
   -1.1758    1.6877   -1.3707 H   0  0  0  0  0  0  0  0  0  0  0  0
   -0.8285    2.6027    1.0299 H   0  0  0  0  0  0  0  0  0  0  0  0
    0.0971   -2.7493   -1.3848 C   0  0  0  0  0  0  0  0  0  0  0  0
   -0.6922   -1.8743   -0.7702 C   0  0  0  0  0  0  0  0  0  0  0  0
   -0.2960   -0.8876    0.2618 C   0  0  0  0  0  0  0  0  0  0  0  0
    1.1212   -0.9790    0.7796 C   0  0  0  0  0  0  0  0  0  0  0  0
   -1.3520   -0.6480    1.2713 C   0  0  0  0  0  0  0  0  0  0  0  0
   -1.1775   -0.2958    2.5423 C   0  0  0  0  0  0  0  0  0  0  0  0
   -0.2960   -3.4107   -2.1460 H   0  0  0  0  0  0  0  0  0  0  0  0
    1.1490   -2.8488   -1.1477 H   0  0  0  0  0  0  0  0  0  0  0  0
   -1.7420   -1.8437   -1.0535 H   0  0  0  0  0  0  0  0  0  0  0  0
   -0.2868    0.2058   -0.3619 H   0  0  0  0  0  0  0  0  0  0  0  0
    1.8329   -1.0210   -0.0456 H   0  0  0  0  0  0  0  0  0  0  0  0
    1.3705   -0.1021    1.3780 H   0  0  0  0  0  0  0  0  0  0  0  0
    1.2601   -1.8699    1.3976 H   0  0  0  0  0  0  0  0  0  0  0  0
   -2.3707   -0.7443    0.9020 H   0  0  0  0  0  0  0  0  0  0  0  0
   -0.1950   -0.1889    2.9845 H   0  0  0  0  0  0  0  0  0  0  0  0
   -2.0270   -0.1180    3.1891 H   0  0  0  0  0  0  0  0  0  0  0  0
  1  2  1  0
  1  3  1  0
  1  4  1  0
  2  5  1  0
  6  7  2  3
  6 12  1  0
  6 13  1  0
  7  8  1  0
  7 14  1  0
  8  9  1  0
  8 10  1  0
  8 15  1  0
  9 16  1  0
  9 17  1  0
  9 18  1  0
 10 11  2  3
 10 19  1  0
 11 20  1  0
 11 21  1  0
M  RAD  1   1   2
M  END
>  <reaction>  (4) 
rxn_1191

>  <mol_properties>  (4) 
{"0": {"label": "*3", "atom_type": "Cs"}, "1": {"label": "*4", "atom_type": "S2s"}, "6": {"label": "*0", "atom_type": "Cd"}, "7": {"label": "*1", "atom_type": "Cs"}, "14": {"label": "*2", "atom_type": "H0"}}

>  <type>  (4) 
ts

$$$$
