
     RDKit          3D

 22 23  0  0  0  0  0  0  0  0999 V2000
   -2.1093   -0.3263    0.3079 C   0  0  0  0  0  0  0  0  0  0  0  0
   -1.3270    0.9803    0.4115 C   0  0  0  0  0  0  0  0  0  0  0  0
   -0.1818    0.8289   -0.6044 C   0  0  0  0  0  0  0  0  0  0  0  0
    1.1682    1.3904   -0.1341 C   0  0  0  0  0  0  0  0  0  0  0  0
    1.8508    0.2041    0.5479 C   0  0  0  0  0  0  0  0  0  0  0  0
    1.4982   -0.9663   -0.3710 C   0  0  0  0  0  0  0  0  0  0  0  0
    0.0340   -0.7124   -0.7594 C   0  0  0  0  0  0  0  0  0  0  0  0
   -0.9986   -1.3650    0.1756 C   0  0  0  0  0  0  0  0  0  0  0  0
   -2.7686   -0.5042    1.1589 H   0  0  0  0  0  0  0  0  0  0  0  0
   -2.7285   -0.3223   -0.5943 H   0  0  0  0  0  0  0  0  0  0  0  0
   -1.9339    1.8682    0.2289 H   0  0  0  0  0  0  0  0  0  0  0  0
   -0.9144    1.0729    1.4218 H   0  0  0  0  0  0  0  0  0  0  0  0
   -0.4804    1.2763   -1.5535 H   0  0  0  0  0  0  0  0  0  0  0  0
    1.7667    1.7058   -0.9931 H   0  0  0  0  0  0  0  0  0  0  0  0
    1.0540    2.2578    0.5189 H   0  0  0  0  0  0  0  0  0  0  0  0
    1.4197    0.0438    1.5410 H   0  0  0  0  0  0  0  0  0  0  0  0
    2.9248    0.3413    0.6788 H   0  0  0  0  0  0  0  0  0  0  0  0
    2.1362   -0.9329   -1.2584 H   0  0  0  0  0  0  0  0  0  0  0  0
    1.6421   -1.9421    0.0966 H   0  0  0  0  0  0  0  0  0  0  0  0
   -0.1575   -1.0299   -1.7854 H   0  0  0  0  0  0  0  0  0  0  0  0
   -1.3459   -2.3310   -0.1933 H   0  0  0  0  0  0  0  0  0  0  0  0
   -0.5489   -1.5373    1.1593 H   0  0  0  0  0  0  0  0  0  0  0  0
  1  2  1  0
  1  8  1  0
  1  9  1  0
  1 10  1  0
  2  3  1  0
  2 11  1  0
  2 12  1  0
  3  4  1  0
  3  7  1  0
  3 13  1  0
  4  5  1  0
  4 14  1  0
  4 15  1  0
  5  6  1  0
  5 16  1  0
  5 17  1  0
  6  7  1  0
  6 18  1  0
  6 19  1  0
  7  8  1  0
  7 20  1  0
  8 21  1  0
  8 22  1  0
M  END
>  <reaction>  (1) 
rxn_560

>  <mol_properties>  (1) 
{"2": {"label": "donator", "atom_type": "Cs"}, "12": {"label": "d_hydrogen", "atom_type": "H0"}}

>  <type>  (1) 
r1h

$$$$

     RDKit          3D

 11 10  0  0  0  0  0  0  0  0999 V2000
    2.0591    0.2533   -0.1061 C   0  0  0  0  0  0  0  0  0  0  0  0
    0.8045   -0.3111   -0.1535 C   0  0  0  0  0  0  0  0  0  0  0  0
   -0.3816    0.3942   -0.1885 C   0  0  0  0  0  3  0  0  0  0  0  0
   -1.7316   -0.2294   -0.2396 C   0  0  0  0  0  0  0  0  0  0  0  0
    2.9505   -0.3576   -0.0805 H   0  0  0  0  0  0  0  0  0  0  0  0
    2.1872    1.3290   -0.0933 H   0  0  0  0  0  0  0  0  0  0  0  0
    0.7385   -1.3970   -0.1643 H   0  0  0  0  0  0  0  0  0  0  0  0
   -0.3340    1.4795   -0.1783 H   0  0  0  0  0  0  0  0  0  0  0  0
   -1.6704   -1.3186   -0.2461 H   0  0  0  0  0  0  0  0  0  0  0  0
   -2.3404    0.0713    0.6191 H   0  0  0  0  0  0  0  0  0  0  0  0
   -2.2805    0.0851   -1.1331 H   0  0  0  0  0  0  0  0  0  0  0  0
  1  2  2  3
  1  5  1  0
  1  6  1  0
  2  3  1  0
  2  7  1  0
  3  4  1  0
  3  8  1  0
  4  9  1  0
  4 10  1  0
  4 11  1  0
M  RAD  1   3   2
M  END
>  <reaction>  (2) 
rxn_560

>  <mol_properties>  (2) 
{"2": {"label": "acceptor", "atom_type": "Cs"}}

>  <type>  (2) 
r2

$$$$

     RDKit          3D

 12 11  0  0  0  0  0  0  0  0999 V2000
    1.9877    0.1011    0.4814 C   0  0  0  0  0  0  0  0  0  0  0  0
    0.8179    0.5502    0.0525 C   0  0  0  0  0  0  0  0  0  0  0  0
   -0.2939   -0.2692   -0.5320 C   0  0  0  0  0  0  0  0  0  0  0  0
   -0.0292   -1.7631   -0.6328 C   0  0  0  0  0  0  0  0  0  0  0  0
    2.2522   -0.9490    0.4436 H   0  0  0  0  0  0  0  0  0  0  0  0
    2.7295    0.7757    0.8896 H   0  0  0  0  0  0  0  0  0  0  0  0
    0.6162    1.6164    0.1190 H   0  0  0  0  0  0  0  0  0  0  0  0
   -0.5268    0.1319   -1.5245 H   0  0  0  0  0  0  0  0  0  0  0  0
   -1.1959   -0.0938    0.0644 H   0  0  0  0  0  0  0  0  0  0  0  0
    0.1590   -2.1992    0.3502 H   0  0  0  0  0  0  0  0  0  0  0  0
    0.8382   -1.9701   -1.2626 H   0  0  0  0  0  0  0  0  0  0  0  0
   -0.8879   -2.2759   -1.0672 H   0  0  0  0  0  0  0  0  0  0  0  0
  1  2  2  3
  1  5  1  0
  1  6  1  0
  2  3  1  0
  2  7  1  0
  3  4  1  0
  3  8  1  0
  3  9  1  0
  4 10  1  0
  4 11  1  0
  4 12  1  0
M  END
>  <reaction>  (3) 
rxn_560

>  <mol_properties>  (3) 
{"2": {"label": "acceptor", "atom_type": "Cs"}, "11": {"label": "a_hydrogen", "atom_type": "H0"}}

>  <type>  (3) 
r2h

$$$$

     RDKit          3D

 33 33  0  0  0  0  0  0  0  0999 V2000
   -2.4090   -2.2874   -0.7981 C   0  0  0  0  0  0  0  0  0  0  0  0
   -1.7492   -2.1381    0.3523 C   0  0  0  0  0  0  0  0  0  0  0  0
   -1.6903   -0.9250    1.1699 C   0  0  0  0  0  0  0  0  0  0  0  0
   -2.6778    0.1808    0.8846 C   0  0  0  0  0  0  0  0  0  0  0  0
   -2.3606   -3.2146   -1.3541 H   0  0  0  0  0  0  0  0  0  0  0  0
   -3.0250   -1.4991   -1.2144 H   0  0  0  0  0  0  0  0  0  0  0  0
   -1.1548   -2.9738    0.7132 H   0  0  0  0  0  0  0  0  0  0  0  0
   -1.5836   -1.1438    2.2327 H   0  0  0  0  0  0  0  0  0  0  0  0
   -3.7098   -0.1618    1.0045 H   0  0  0  0  0  0  0  0  0  0  0  0
   -2.5219    1.0229    1.5599 H   0  0  0  0  0  0  0  0  0  0  0  0
   -2.5734    0.5548   -0.1365 H   0  0  0  0  0  0  0  0  0  0  0  0
    1.7871   -1.3481   -0.9300 C   0  0  0  0  0  0  0  0  0  0  0  0
    1.6864   -0.8835    0.5270 C   0  0  0  0  0  0  0  0  0  0  0  0
    0.6421    0.2168    0.4996 C   0  0  0  0  0  3  0  0  0  0  0  0
    0.8290    1.4730    1.3260 C   0  0  0  0  0  0  0  0  0  0  0  0
    1.2611    2.5229    0.2921 C   0  0  0  0  0  0  0  0  0  0  0  0
    0.4331    2.1654   -0.9461 C   0  0  0  0  0  0  0  0  0  0  0  0
    0.4143    0.6309   -0.9589 C   0  0  0  0  0  0  0  0  0  0  0  0
    1.5538   -0.0617   -1.7214 C   0  0  0  0  0  0  0  0  0  0  0  0
    2.7364   -1.8333   -1.1602 H   0  0  0  0  0  0  0  0  0  0  0  0
    0.9854   -2.0594   -1.1458 H   0  0  0  0  0  0  0  0  0  0  0  0
    1.4332   -1.6940    1.2163 H   0  0  0  0  0  0  0  0  0  0  0  0
    2.6478   -0.4745    0.8613 H   0  0  0  0  0  0  0  0  0  0  0  0
   -0.5360   -0.4011    0.9062 H   0  0  0  0  0  0  0  0  0  0  0  0
   -0.1178    1.7806    1.7834 H   0  0  0  0  0  0  0  0  0  0  0  0
    1.5498    1.3414    2.1348 H   0  0  0  0  0  0  0  0  0  0  0  0
    2.3267    2.4051    0.0745 H   0  0  0  0  0  0  0  0  0  0  0  0
    1.1087    3.5489    0.6297 H   0  0  0  0  0  0  0  0  0  0  0  0
   -0.5837    2.5494   -0.8270 H   0  0  0  0  0  0  0  0  0  0  0  0
    0.8361    2.5883   -1.8679 H   0  0  0  0  0  0  0  0  0  0  0  0
   -0.5379    0.2465   -1.3367 H   0  0  0  0  0  0  0  0  0  0  0  0
    1.3147   -0.2355   -2.7714 H   0  0  0  0  0  0  0  0  0  0  0  0
    2.4542    0.5613   -1.6861 H   0  0  0  0  0  0  0  0  0  0  0  0
  1  2  2  3
  1  5  1  0
  1  6  1  0
  2  3  1  0
  2  7  1  0
  3  4  1  0
  3  8  1  0
  3 24  1  0
  4  9  1  0
  4 10  1  0
  4 11  1  0
 12 19  1  0
 12 13  1  0
 12 20  1  0
 12 21  1  0
 13 14  1  0
 13 22  1  0
 13 23  1  0
 14 15  1  0
 14 18  1  0
 15 16  1  0
 15 25  1  0
 15 26  1  0
 16 17  1  0
 16 27  1  0
 16 28  1  0
 17 18  1  0
 17 29  1  0
 17 30  1  0
 18 19  1  0
 18 31  1  0
 19 32  1  0
 19 33  1  0
M  RAD  1  14   2
M  END
>  <reaction>  (4) 
rxn_560

>  <mol_properties>  (4) 
{"1": {"label": "*0", "atom_type": "Cd"}, "2": {"label": "*1", "atom_type": "Cs"}, "13": {"label": "*3", "atom_type": "Cs"}, "17": {"label": "*4", "atom_type": "Cs"}, "23": {"label": "*2", "atom_type": "H0"}}

>  <type>  (4) 
ts

$$$$
