
     RDKit          3D

 25 26  0  0  0  0  0  0  0  0999 V2000
    2.0298   -1.1515    0.0571 C   0  0  0  0  0  0  0  0  0  0  0  0
    2.2278    0.2445    0.6528 C   0  0  0  0  0  0  0  0  0  0  0  0
    1.2292    1.2625    0.0947 C   0  0  0  0  0  0  0  0  0  0  0  0
   -0.1869    0.7454    0.2762 C   0  0  0  0  0  0  0  0  0  0  0  0
   -1.3415    1.5501   -0.3122 C   0  0  0  0  0  0  0  0  0  0  0  0
   -2.5060    0.5338   -0.4178 C   0  0  0  0  0  0  0  0  0  0  0  0
   -1.8709   -0.8658   -0.2234 C   0  0  0  0  0  0  0  0  0  0  0  0
   -0.3715   -0.6265   -0.3693 C   0  0  0  0  0  0  0  0  0  0  0  0
    0.5898   -1.6500    0.2086 C   0  0  0  0  0  0  0  0  0  0  0  0
    2.2820   -1.1226   -1.0088 H   0  0  0  0  0  0  0  0  0  0  0  0
    2.7243   -1.8549    0.5221 H   0  0  0  0  0  0  0  0  0  0  0  0
    2.1030    0.1885    1.7400 H   0  0  0  0  0  0  0  0  0  0  0  0
    3.2514    0.5819    0.4743 H   0  0  0  0  0  0  0  0  0  0  0  0
    1.3611    2.2304    0.5855 H   0  0  0  0  0  0  0  0  0  0  0  0
    1.4198    1.4194   -0.9737 H   0  0  0  0  0  0  0  0  0  0  0  0
   -0.3675    0.6209    1.3539 H   0  0  0  0  0  0  0  0  0  0  0  0
   -1.5992    2.4249    0.2862 H   0  0  0  0  0  0  0  0  0  0  0  0
   -1.0595    1.9116   -1.3055 H   0  0  0  0  0  0  0  0  0  0  0  0
   -3.2666    0.7244    0.3399 H   0  0  0  0  0  0  0  0  0  0  0  0
   -3.0030    0.6112   -1.3853 H   0  0  0  0  0  0  0  0  0  0  0  0
   -2.2549   -1.6039   -0.9288 H   0  0  0  0  0  0  0  0  0  0  0  0
   -2.0796   -1.2429    0.7821 H   0  0  0  0  0  0  0  0  0  0  0  0
   -0.1432   -0.5121   -1.4391 H   0  0  0  0  0  0  0  0  0  0  0  0
    0.4720   -2.6209   -0.2799 H   0  0  0  0  0  0  0  0  0  0  0  0
    0.3601   -1.7986    1.2704 H   0  0  0  0  0  0  0  0  0  0  0  0
  1  2  1  0
  1  9  1  0
  1 10  1  0
  1 11  1  0
  2  3  1  0
  2 12  1  0
  2 13  1  0
  3  4  1  0
  3 14  1  0
  3 15  1  0
  4  5  1  0
  4  8  1  0
  4 16  1  0
  5  6  1  0
  5 17  1  0
  5 18  1  0
  6  7  1  0
  6 19  1  0
  6 20  1  0
  7  8  1  0
  7 21  1  0
  7 22  1  0
  8  9  1  0
  8 23  1  0
  9 24  1  0
  9 25  1  0
M  END
>  <reaction>  (1) 
rxn_612

>  <mol_properties>  (1) 
{"5": {"label": "donator", "atom_type": "Cs"}, "18": {"label": "d_hydrogen", "atom_type": "H0"}}

>  <type>  (1) 
r1h

$$$$

     RDKit          3D

 11 10  0  0  0  0  0  0  0  0999 V2000
   -0.9580    1.1013   -2.2955 C   0  0  0  0  0  0  0  0  0  0  0  0
   -0.5129    0.5941   -1.2929 C   0  0  0  0  0  0  0  0  0  0  0  0
   -0.0301   -0.0160   -0.1357 C   0  0  0  0  0  3  0  0  0  0  0  0
   -0.6593   -1.2845    0.3661 C   0  0  0  0  0  0  0  0  0  0  0  0
    1.0691    0.5292    0.5269 C   0  0  0  0  0  0  0  0  0  0  0  0
    2.0168    0.9794    1.1266 C   0  0  0  0  0  0  0  0  0  0  0  0
   -1.3415    1.5561   -3.1769 H   0  0  0  0  0  0  0  0  0  0  0  0
   -1.7166   -1.3186    0.1054 H   0  0  0  0  0  0  0  0  0  0  0  0
   -0.1742   -2.1550   -0.0865 H   0  0  0  0  0  0  0  0  0  0  0  0
   -0.5505   -1.3663    1.4470 H   0  0  0  0  0  0  0  0  0  0  0  0
    2.8514    1.3842    1.6465 H   0  0  0  0  0  0  0  0  0  0  0  0
  1  2  3  0
  1  7  1  0
  2  3  1  0
  3  4  1  0
  3  5  1  0
  4  8  1  0
  4  9  1  0
  4 10  1  0
  5  6  3  0
  6 11  1  0
M  RAD  1   3   2
M  END
>  <reaction>  (2) 
rxn_612

>  <mol_properties>  (2) 
{"2": {"label": "acceptor", "atom_type": "Cs"}}

>  <type>  (2) 
r2

$$$$

     RDKit          3D

 12 11  0  0  0  0  0  0  0  0999 V2000
    2.1696    0.6854    1.1310 C   0  0  0  0  0  0  0  0  0  0  0  0
    1.2518    0.4145    0.4134 C   0  0  0  0  0  0  0  0  0  0  0  0
    0.1391    0.0443   -0.4683 C   0  0  0  0  0  0  0  0  0  0  0  0
   -0.2054   -1.4492   -0.3339 C   0  0  0  0  0  0  0  0  0  0  0  0
   -1.0375    0.8853   -0.2222 C   0  0  0  0  0  0  0  0  0  0  0  0
   -2.0160    1.5463   -0.0311 C   0  0  0  0  0  0  0  0  0  0  0  0
    2.9819    0.9356    1.7702 H   0  0  0  0  0  0  0  0  0  0  0  0
    0.4629    0.2285   -1.4981 H   0  0  0  0  0  0  0  0  0  0  0  0
   -0.5327   -1.6703    0.6812 H   0  0  0  0  0  0  0  0  0  0  0  0
    0.6727   -2.0535   -0.5593 H   0  0  0  0  0  0  0  0  0  0  0  0
   -1.0064   -1.7081   -1.0256 H   0  0  0  0  0  0  0  0  0  0  0  0
   -2.8802    2.1413    0.1426 H   0  0  0  0  0  0  0  0  0  0  0  0
  1  2  3  0
  1  7  1  0
  2  3  1  0
  3  4  1  0
  3  5  1  0
  3  8  1  0
  4  9  1  0
  4 10  1  0
  4 11  1  0
  5  6  3  0
  6 12  1  0
M  END
>  <reaction>  (3) 
rxn_612

>  <mol_properties>  (3) 
{"2": {"label": "acceptor", "atom_type": "Cs"}, "11": {"label": "a_hydrogen", "atom_type": "H0"}}

>  <type>  (3) 
r2h

$$$$

     RDKit          3D

 36 36  0  0  0  0  0  0  0  0999 V2000
   -2.4448    1.2183    1.0523 C   0  0  0  0  0  0  0  0  0  0  0  0
   -1.4284    1.7552    0.7068 C   0  0  0  0  0  0  0  0  0  0  0  0
   -0.2107    2.3666    0.2341 C   0  0  0  0  0  0  0  0  0  0  0  0
   -0.4257    3.5337   -0.7253 C   0  0  0  0  0  0  0  0  0  0  0  0
    0.7655    2.6119    1.2674 C   0  0  0  0  0  0  0  0  0  0  0  0
    1.6185    2.8061    2.0886 C   0  0  0  0  0  0  0  0  0  0  0  0
   -3.3450    0.7528    1.3739 H   0  0  0  0  0  0  0  0  0  0  0  0
   -1.0660    3.2202   -1.5503 H   0  0  0  0  0  0  0  0  0  0  0  0
   -0.8990    4.3754   -0.2177 H   0  0  0  0  0  0  0  0  0  0  0  0
    0.5325    3.8632   -1.1269 H   0  0  0  0  0  0  0  0  0  0  0  0
    2.3615    2.9827    2.8283 H   0  0  0  0  0  0  0  0  0  0  0  0
   -1.1800   -3.7060   -0.2576 C   0  0  0  0  0  0  0  0  0  0  0  0
   -0.3613   -3.4744    1.0155 C   0  0  0  0  0  0  0  0  0  0  0  0
    0.9064   -2.6541    0.7564 C   0  0  0  0  0  0  0  0  0  0  0  0
    0.5329   -1.3615    0.0557 C   0  0  0  0  0  0  0  0  0  0  0  0
    1.6320   -0.3998   -0.3846 C   0  0  0  0  0  0  0  0  0  0  0  0
    0.9037    0.4899   -1.3686 C   0  0  0  0  0  3  0  0  0  0  0  0
   -0.3027   -0.2560   -1.9147 C   0  0  0  0  0  0  0  0  0  0  0  0
   -0.2157   -1.6352   -1.2500 C   0  0  0  0  0  0  0  0  0  0  0  0
   -1.5007   -2.4019   -0.9943 C   0  0  0  0  0  0  0  0  0  0  0  0
   -0.6137   -4.3590   -0.9310 H   0  0  0  0  0  0  0  0  0  0  0  0
   -2.1022   -4.2378   -0.0123 H   0  0  0  0  0  0  0  0  0  0  0  0
   -0.9798   -2.9391    1.7441 H   0  0  0  0  0  0  0  0  0  0  0  0
   -0.1048   -4.4343    1.4695 H   0  0  0  0  0  0  0  0  0  0  0  0
    1.4258   -2.4552    1.6972 H   0  0  0  0  0  0  0  0  0  0  0  0
    1.5966   -3.2255    0.1242 H   0  0  0  0  0  0  0  0  0  0  0  0
   -0.1487   -0.8039    0.7120 H   0  0  0  0  0  0  0  0  0  0  0  0
    2.0822    0.1597    0.4387 H   0  0  0  0  0  0  0  0  0  0  0  0
    2.4406   -0.9481   -0.8865 H   0  0  0  0  0  0  0  0  0  0  0  0
    0.3365    1.4784   -0.5144 H   0  0  0  0  0  0  0  0  0  0  0  0
    1.4874    1.1112   -2.0428 H   0  0  0  0  0  0  0  0  0  0  0  0
   -0.3013   -0.3094   -3.0055 H   0  0  0  0  0  0  0  0  0  0  0  0
   -1.2360    0.2420   -1.6246 H   0  0  0  0  0  0  0  0  0  0  0  0
    0.4391   -2.2660   -1.8675 H   0  0  0  0  0  0  0  0  0  0  0  0
   -2.0269   -2.6153   -1.9284 H   0  0  0  0  0  0  0  0  0  0  0  0
   -2.1682   -1.7820   -0.3844 H   0  0  0  0  0  0  0  0  0  0  0  0
  1  2  3  0
  1  7  1  0
  2  3  1  0
  3  4  1  0
  3  5  1  0
  3 30  1  0
  4  8  1  0
  4  9  1  0
  4 10  1  0
  5  6  3  0
  6 11  1  0
 12 13  1  0
 12 20  1  0
 12 21  1  0
 12 22  1  0
 13 14  1  0
 13 23  1  0
 13 24  1  0
 14 15  1  0
 14 25  1  0
 14 26  1  0
 15 16  1  0
 15 19  1  0
 15 27  1  0
 16 17  1  0
 16 28  1  0
 16 29  1  0
 17 18  1  0
 17 31  1  0
 18 19  1  0
 18 32  1  0
 18 33  1  0
 19 20  1  0
 19 34  1  0
 20 35  1  0
 20 36  1  0
M  RAD  1  17   2
M  END
>  <reaction>  (4) 
rxn_612

>  <mol_properties>  (4) 
{"1": {"label": "*0", "atom_type": "Ct"}, "2": {"label": "*1", "atom_type": "Cs"}, "15": {"label": "*4", "atom_type": "Cs"}, "16": {"label": "*3", "atom_type": "Cs"}, "29": {"label": "*2", "atom_type": "H0"}}

>  <type>  (4) 
ts

$$$$
