
     RDKit          3D

  9  8  0  0  0  0  0  0  0  0999 V2000
    1.1303   -0.2933   -0.7510 C   0  0  0  0  0  0  0  0  0  0  0  0
    0.2866    0.4560   -0.0588 C   0  0  0  0  0  0  0  0  0  0  0  0
   -0.9719   -0.0331    0.5823 C   0  0  0  0  0  0  0  0  0  0  0  0
    2.0274    0.1230   -1.1916 H   0  0  0  0  0  0  0  0  0  0  0  0
    0.9532   -1.3530   -0.9023 H   0  0  0  0  0  0  0  0  0  0  0  0
    0.5065    1.5132    0.0659 H   0  0  0  0  0  0  0  0  0  0  0  0
   -0.9526    0.1426    1.6610 H   0  0  0  0  0  0  0  0  0  0  0  0
   -1.1182   -1.1002    0.4106 H   0  0  0  0  0  0  0  0  0  0  0  0
   -1.8412    0.5010    0.1901 H   0  0  0  0  0  0  0  0  0  0  0  0
  1  2  2  3
  1  4  1  0
  1  5  1  0
  2  3  1  0
  2  6  1  0
  3  7  1  0
  3  8  1  0
  3  9  1  0
M  END
>  <reaction>  (1) 
rxn_1614

>  <mol_properties>  (1) 
{"1": {"label": "donator", "atom_type": "Cd"}, "5": {"label": "d_hydrogen", "atom_type": "H0"}}

>  <type>  (1) 
r1h

$$$$

     RDKit          3D

  9  8  0  0  0  0  0  0  0  0999 V2000
    2.3038   -0.0269    0.1590 C   0  0  0  0  0  0  0  0  0  0  0  0
    1.1426    0.1377   -0.1648 C   0  0  0  0  0  0  0  0  0  0  0  0
   -0.1694    0.3175   -0.5203 C   0  0  0  0  0  3  0  0  0  0  0  0
   -1.3163   -0.1910    0.2856 C   0  0  0  0  0  0  0  0  0  0  0  0
    3.3199   -0.1683    0.4378 H   0  0  0  0  0  0  0  0  0  0  0  0
   -0.3786    0.8584   -1.4360 H   0  0  0  0  0  0  0  0  0  0  0  0
   -1.9694    0.6309    0.5951 H   0  0  0  0  0  0  0  0  0  0  0  0
   -1.9325   -0.8770   -0.3039 H   0  0  0  0  0  0  0  0  0  0  0  0
   -0.9753   -0.7144    1.1774 H   0  0  0  0  0  0  0  0  0  0  0  0
  1  2  3  0
  1  5  1  0
  2  3  1  0
  3  4  1  0
  3  6  1  0
  4  7  1  0
  4  8  1  0
  4  9  1  0
M  RAD  1   3   2
M  END
>  <reaction>  (2) 
rxn_1614

>  <mol_properties>  (2) 
{"2": {"label": "acceptor", "atom_type": "Cs"}}

>  <type>  (2) 
r2

$$$$

     RDKit          3D

 10  9  0  0  0  0  0  0  0  0999 V2000
    2.2738    0.0217   -0.0992 C   0  0  0  0  0  0  0  0  0  0  0  0
    1.1083    0.2960   -0.0695 C   0  0  0  0  0  0  0  0  0  0  0  0
   -0.3173    0.6046   -0.0227 C   0  0  0  0  0  0  0  0  0  0  0  0
   -1.1561   -0.5495    0.5292 C   0  0  0  0  0  0  0  0  0  0  0  0
    3.3097   -0.2166   -0.1277 H   0  0  0  0  0  0  0  0  0  0  0  0
   -0.6542    0.8617   -1.0302 H   0  0  0  0  0  0  0  0  0  0  0  0
   -0.4633    1.4978    0.5900 H   0  0  0  0  0  0  0  0  0  0  0  0
   -0.8485   -0.7997    1.5447 H   0  0  0  0  0  0  0  0  0  0  0  0
   -2.2115   -0.2752    0.5459 H   0  0  0  0  0  0  0  0  0  0  0  0
   -1.0409   -1.4407   -0.0879 H   0  0  0  0  0  0  0  0  0  0  0  0
  1  2  3  0
  1  5  1  0
  2  3  1  0
  3  4  1  0
  3  6  1  0
  3  7  1  0
  4  8  1  0
  4  9  1  0
  4 10  1  0
M  END
>  <reaction>  (3) 
rxn_1614

>  <mol_properties>  (3) 
{"2": {"label": "acceptor", "atom_type": "Cs"}, "9": {"label": "a_hydrogen", "atom_type": "H0"}}

>  <type>  (3) 
r2h

$$$$

     RDKit          3D

 18 16  0  0  0  0  0  0  0  0999 V2000
    0.9380   -0.6612    2.5276 C   0  0  0  0  0  0  0  0  0  0  0  0
    0.4523   -0.9217    1.4601 C   0  0  0  0  0  0  0  0  0  0  0  0
   -0.1395   -1.1714    0.1763 C   0  0  0  0  0  0  0  0  0  0  0  0
   -1.6240   -1.4869    0.1835 C   0  0  0  0  0  0  0  0  0  0  0  0
    1.3706   -0.4489    3.4754 H   0  0  0  0  0  0  0  0  0  0  0  0
    0.4459   -1.8826   -0.4074 H   0  0  0  0  0  0  0  0  0  0  0  0
   -1.9973   -1.5700   -0.8378 H   0  0  0  0  0  0  0  0  0  0  0  0
   -1.8251   -2.4272    0.7012 H   0  0  0  0  0  0  0  0  0  0  0  0
   -2.1823   -0.6980    0.6885 H   0  0  0  0  0  0  0  0  0  0  0  0
   -0.2646    1.0835   -2.4656 C   0  0  0  0  0  0  0  0  0  0  0  0
    0.0416    1.1494   -1.1915 C   0  0  0  0  0  3  0  0  0  0  0  0
    0.4351    2.2567   -0.2965 C   0  0  0  0  0  0  0  0  0  0  0  0
   -0.5310    0.1467   -2.9431 H   0  0  0  0  0  0  0  0  0  0  0  0
   -0.2615    1.9709   -3.0975 H   0  0  0  0  0  0  0  0  0  0  0  0
   -0.0153   -0.1013   -0.4765 H   0  0  0  0  0  0  0  0  0  0  0  0
   -0.2698    2.3533    0.5322 H   0  0  0  0  0  0  0  0  0  0  0  0
    0.4695    3.2076   -0.8379 H   0  0  0  0  0  0  0  0  0  0  0  0
    1.4175    2.0683    0.1416 H   0  0  0  0  0  0  0  0  0  0  0  0
  1  2  3  0
  1  5  1  0
  2  3  1  0
  3  4  1  0
  3  6  1  0
  3 15  1  0
  4  7  1  0
  4  8  1  0
  4  9  1  0
 10 11  2  3
 10 13  1  0
 10 14  1  0
 11 12  1  0
 12 16  1  0
 12 17  1  0
 12 18  1  0
M  RAD  1  11   2
M  END
>  <reaction>  (4) 
rxn_1614

>  <mol_properties>  (4) 
{"1": {"label": "*0", "atom_type": "Ct"}, "2": {"label": "*1", "atom_type": "Cs"}, "9": {"label": "*4", "atom_type": "Cd"}, "10": {"label": "*3", "atom_type": "Cd"}, "14": {"label": "*2", "atom_type": "H0"}}

>  <type>  (4) 
ts

$$$$
