
     RDKit          3D

 15 14  0  0  0  0  0  0  0  0999 V2000
    2.1256    0.4849   -0.6284 C   0  0  0  0  0  0  0  0  0  0  0  0
    1.1128    0.2141    0.1794 C   0  0  0  0  0  0  0  0  0  0  0  0
   -0.3017   -0.0425   -0.2513 C   0  0  0  0  0  0  0  0  0  0  0  0
   -1.2427    1.0075    0.3423 C   0  0  0  0  0  0  0  0  0  0  0  0
   -0.7381   -1.4526    0.1504 C   0  0  0  0  0  0  0  0  0  0  0  0
    3.1243    0.6602   -0.2486 H   0  0  0  0  0  0  0  0  0  0  0  0
    1.9908    0.5411   -1.7036 H   0  0  0  0  0  0  0  0  0  0  0  0
    1.2888    0.1665    1.2533 H   0  0  0  0  0  0  0  0  0  0  0  0
   -0.3426    0.0343   -1.3424 H   0  0  0  0  0  0  0  0  0  0  0  0
   -0.9570    2.0133    0.0315 H   0  0  0  0  0  0  0  0  0  0  0  0
   -1.2189    0.9728    1.4350 H   0  0  0  0  0  0  0  0  0  0  0  0
   -2.2723    0.8287    0.0254 H   0  0  0  0  0  0  0  0  0  0  0  0
   -0.6964   -1.5744    1.2363 H   0  0  0  0  0  0  0  0  0  0  0  0
   -0.0911   -2.2079   -0.2978 H   0  0  0  0  0  0  0  0  0  0  0  0
   -1.7646   -1.6461   -0.1677 H   0  0  0  0  0  0  0  0  0  0  0  0
  1  2  2  3
  1  6  1  0
  1  7  1  0
  2  3  1  0
  2  8  1  0
  3  4  1  0
  3  5  1  0
  3  9  1  0
  4 10  1  0
  4 11  1  0
  4 12  1  0
  5 13  1  0
  5 14  1  0
  5 15  1  0
M  END
>  <reaction>  (1) 
rxn_1087

>  <mol_properties>  (1) 
{"2": {"label": "donator", "atom_type": "Cs"}, "8": {"label": "d_hydrogen", "atom_type": "H0"}}

>  <type>  (1) 
r1h

$$$$

     RDKit          3D

 11 10  0  0  0  0  0  0  0  0999 V2000
    2.0591    0.2533   -0.1061 C   0  0  0  0  0  0  0  0  0  0  0  0
    0.8045   -0.3111   -0.1535 C   0  0  0  0  0  0  0  0  0  0  0  0
   -0.3816    0.3942   -0.1885 C   0  0  0  0  0  3  0  0  0  0  0  0
   -1.7316   -0.2294   -0.2396 C   0  0  0  0  0  0  0  0  0  0  0  0
    2.9505   -0.3576   -0.0805 H   0  0  0  0  0  0  0  0  0  0  0  0
    2.1872    1.3290   -0.0933 H   0  0  0  0  0  0  0  0  0  0  0  0
    0.7385   -1.3970   -0.1643 H   0  0  0  0  0  0  0  0  0  0  0  0
   -0.3340    1.4795   -0.1783 H   0  0  0  0  0  0  0  0  0  0  0  0
   -1.6704   -1.3186   -0.2461 H   0  0  0  0  0  0  0  0  0  0  0  0
   -2.3404    0.0713    0.6191 H   0  0  0  0  0  0  0  0  0  0  0  0
   -2.2805    0.0851   -1.1331 H   0  0  0  0  0  0  0  0  0  0  0  0
  1  2  2  3
  1  5  1  0
  1  6  1  0
  2  3  1  0
  2  7  1  0
  3  4  1  0
  3  8  1  0
  4  9  1  0
  4 10  1  0
  4 11  1  0
M  RAD  1   3   2
M  END
>  <reaction>  (2) 
rxn_1087

>  <mol_properties>  (2) 
{"2": {"label": "acceptor", "atom_type": "Cs"}}

>  <type>  (2) 
r2

$$$$

     RDKit          3D

 12 11  0  0  0  0  0  0  0  0999 V2000
    1.9877    0.1011    0.4814 C   0  0  0  0  0  0  0  0  0  0  0  0
    0.8179    0.5502    0.0525 C   0  0  0  0  0  0  0  0  0  0  0  0
   -0.2939   -0.2692   -0.5320 C   0  0  0  0  0  0  0  0  0  0  0  0
   -0.0292   -1.7631   -0.6328 C   0  0  0  0  0  0  0  0  0  0  0  0
    2.2522   -0.9490    0.4436 H   0  0  0  0  0  0  0  0  0  0  0  0
    2.7295    0.7757    0.8896 H   0  0  0  0  0  0  0  0  0  0  0  0
    0.6162    1.6164    0.1190 H   0  0  0  0  0  0  0  0  0  0  0  0
   -0.5268    0.1319   -1.5245 H   0  0  0  0  0  0  0  0  0  0  0  0
   -1.1959   -0.0938    0.0644 H   0  0  0  0  0  0  0  0  0  0  0  0
    0.1590   -2.1992    0.3502 H   0  0  0  0  0  0  0  0  0  0  0  0
    0.8382   -1.9701   -1.2626 H   0  0  0  0  0  0  0  0  0  0  0  0
   -0.8879   -2.2759   -1.0672 H   0  0  0  0  0  0  0  0  0  0  0  0
  1  2  2  3
  1  5  1  0
  1  6  1  0
  2  3  1  0
  2  7  1  0
  3  4  1  0
  3  8  1  0
  3  9  1  0
  4 10  1  0
  4 11  1  0
  4 12  1  0
M  END
>  <reaction>  (3) 
rxn_1087

>  <mol_properties>  (3) 
{"0": {"label": "a_hydrogen", "atom_type": "H0"}, "3": {"label": "acceptor", "atom_type": "Cs"}}

>  <type>  (3) 
r2h

$$$$

     RDKit          3D

 26 24  0  0  0  0  0  0  0  0999 V2000
    0.2194   -2.3294   -0.7289 C   0  0  0  0  0  0  0  0  0  0  0  0
    0.7643   -1.5607    0.2190 C   0  0  0  0  0  0  0  0  0  0  0  0
    0.0569   -0.6793    1.1448 C   0  0  0  0  0  0  0  0  0  0  0  0
    0.7717   -0.4064    2.4493 C   0  0  0  0  0  0  0  0  0  0  0  0
   -1.4357   -0.8630    1.2706 C   0  0  0  0  0  0  0  0  0  0  0  0
    0.8403   -2.9193   -1.3904 H   0  0  0  0  0  0  0  0  0  0  0  0
   -0.8516   -2.3975   -0.8730 H   0  0  0  0  0  0  0  0  0  0  0  0
    1.8488   -1.5454    0.3014 H   0  0  0  0  0  0  0  0  0  0  0  0
    0.1082    0.5044    0.5280 H   0  0  0  0  0  0  0  0  0  0  0  0
    1.8324   -0.2048    2.2861 H   0  0  0  0  0  0  0  0  0  0  0  0
    0.6963   -1.2636    3.1264 H   0  0  0  0  0  0  0  0  0  0  0  0
    0.3370    0.4558    2.9599 H   0  0  0  0  0  0  0  0  0  0  0  0
   -1.6769   -1.8404    1.7001 H   0  0  0  0  0  0  0  0  0  0  0  0
   -1.9304   -0.7898    0.3006 H   0  0  0  0  0  0  0  0  0  0  0  0
   -1.8617   -0.0952    1.9193 H   0  0  0  0  0  0  0  0  0  0  0  0
   -1.0147    1.2940   -2.2891 C   0  0  0  0  0  0  0  0  0  0  0  0
   -0.9939    1.6724   -1.0047 C   0  0  0  0  0  0  0  0  0  0  0  0
    0.1696    1.6904   -0.1365 C   0  0  0  0  0  3  0  0  0  0  0  0
    1.5468    1.6163   -0.7407 C   0  0  0  0  0  0  0  0  0  0  0  0
   -1.9394    1.2781   -2.8508 H   0  0  0  0  0  0  0  0  0  0  0  0
   -0.1159    0.9972   -2.8154 H   0  0  0  0  0  0  0  0  0  0  0  0
   -1.9343    1.9550   -0.5394 H   0  0  0  0  0  0  0  0  0  0  0  0
    0.0820    2.3804    0.7012 H   0  0  0  0  0  0  0  0  0  0  0  0
    1.7441    2.4735   -1.3909 H   0  0  0  0  0  0  0  0  0  0  0  0
    2.3104    1.5994    0.0382 H   0  0  0  0  0  0  0  0  0  0  0  0
    1.6647    0.7108   -1.3402 H   0  0  0  0  0  0  0  0  0  0  0  0
  1  2  2  3
  1  6  1  0
  1  7  1  0
  2  3  1  0
  2  8  1  0
  3  4  1  0
  3  5  1  0
  3  9  1  0
  4 10  1  0
  4 11  1  0
  4 12  1  0
  5 13  1  0
  5 14  1  0
  5 15  1  0
 16 17  2  3
 16 20  1  0
 16 21  1  0
 17 18  1  0
 17 22  1  0
 18 19  1  0
 18 23  1  0
 19 24  1  0
 19 25  1  0
 19 26  1  0
M  RAD  1  18   2
M  END
>  <reaction>  (4) 
rxn_1087

>  <mol_properties>  (4) 
{"1": {"label": "*0", "atom_type": "Cd"}, "2": {"label": "*1", "atom_type": "Cs"}, "8": {"label": "*2", "atom_type": "H0"}, "16": {"label": "*4", "atom_type": "Cd"}, "17": {"label": "*3", "atom_type": "Cs"}}

>  <type>  (4) 
ts

$$$$
