
     RDKit          3D

 25 26  0  0  0  0  0  0  0  0999 V2000
    2.0298   -1.1515    0.0571 C   0  0  0  0  0  0  0  0  0  0  0  0
    2.2278    0.2445    0.6528 C   0  0  0  0  0  0  0  0  0  0  0  0
    1.2292    1.2625    0.0947 C   0  0  0  0  0  0  0  0  0  0  0  0
   -0.1869    0.7454    0.2762 C   0  0  0  0  0  0  0  0  0  0  0  0
   -1.3415    1.5501   -0.3122 C   0  0  0  0  0  0  0  0  0  0  0  0
   -2.5060    0.5338   -0.4178 C   0  0  0  0  0  0  0  0  0  0  0  0
   -1.8709   -0.8658   -0.2234 C   0  0  0  0  0  0  0  0  0  0  0  0
   -0.3715   -0.6265   -0.3693 C   0  0  0  0  0  0  0  0  0  0  0  0
    0.5898   -1.6500    0.2086 C   0  0  0  0  0  0  0  0  0  0  0  0
    2.2820   -1.1226   -1.0088 H   0  0  0  0  0  0  0  0  0  0  0  0
    2.7243   -1.8549    0.5221 H   0  0  0  0  0  0  0  0  0  0  0  0
    2.1030    0.1885    1.7400 H   0  0  0  0  0  0  0  0  0  0  0  0
    3.2514    0.5819    0.4743 H   0  0  0  0  0  0  0  0  0  0  0  0
    1.3611    2.2304    0.5855 H   0  0  0  0  0  0  0  0  0  0  0  0
    1.4198    1.4194   -0.9737 H   0  0  0  0  0  0  0  0  0  0  0  0
   -0.3675    0.6209    1.3539 H   0  0  0  0  0  0  0  0  0  0  0  0
   -1.5992    2.4249    0.2862 H   0  0  0  0  0  0  0  0  0  0  0  0
   -1.0595    1.9116   -1.3055 H   0  0  0  0  0  0  0  0  0  0  0  0
   -3.2666    0.7244    0.3399 H   0  0  0  0  0  0  0  0  0  0  0  0
   -3.0030    0.6112   -1.3853 H   0  0  0  0  0  0  0  0  0  0  0  0
   -2.2549   -1.6039   -0.9288 H   0  0  0  0  0  0  0  0  0  0  0  0
   -2.0796   -1.2429    0.7821 H   0  0  0  0  0  0  0  0  0  0  0  0
   -0.1432   -0.5121   -1.4391 H   0  0  0  0  0  0  0  0  0  0  0  0
    0.4720   -2.6209   -0.2799 H   0  0  0  0  0  0  0  0  0  0  0  0
    0.3601   -1.7986    1.2704 H   0  0  0  0  0  0  0  0  0  0  0  0
  1  2  1  0
  1  9  1  0
  1 10  1  0
  1 11  1  0
  2  3  1  0
  2 12  1  0
  2 13  1  0
  3  4  1  0
  3 14  1  0
  3 15  1  0
  4  5  1  0
  4  8  1  0
  4 16  1  0
  5  6  1  0
  5 17  1  0
  5 18  1  0
  6  7  1  0
  6 19  1  0
  6 20  1  0
  7  8  1  0
  7 21  1  0
  7 22  1  0
  8  9  1  0
  8 23  1  0
  9 24  1  0
  9 25  1  0
M  END
>  <reaction>  (1) 
rxn_594

>  <mol_properties>  (1) 
{"3": {"label": "donator", "atom_type": "Cs"}, "17": {"label": "d_hydrogen", "atom_type": "H0"}}

>  <type>  (1) 
r1h

$$$$

     RDKit          3D

  5  4  0  0  0  0  0  0  0  0999 V2000
    0.0397    0.7134    0.0000 C   0  0  0  0  0  3  0  0  0  0  0  0
    0.0458   -0.5870    0.0000 C   0  0  0  0  0  0  0  0  0  0  0  0
   -0.6871    1.5118    0.0000 H   0  0  0  0  0  0  0  0  0  0  0  0
   -0.8806   -1.1637    0.0000 H   0  0  0  0  0  0  0  0  0  0  0  0
    0.9690   -1.1600    0.0000 H   0  0  0  0  0  0  0  0  0  0  0  0
  1  2  2  3
  1  3  1  0
  2  4  1  0
  2  5  1  0
M  RAD  1   1   2
M  END
>  <reaction>  (2) 
rxn_594

>  <mol_properties>  (2) 
{"1": {"label": "acceptor", "atom_type": "Cd"}}

>  <type>  (2) 
r2

$$$$

     RDKit          3D

  6  5  0  0  0  0  0  0  0  0999 V2000
    0.6594    0.0438   -0.0050 C   0  0  0  0  0  0  0  0  0  0  0  0
   -0.6594   -0.0438    0.0050 C   0  0  0  0  0  0  0  0  0  0  0  0
    1.1706    0.8681   -0.4881 H   0  0  0  0  0  0  0  0  0  0  0  0
    1.2824   -0.7051    0.4696 H   0  0  0  0  0  0  0  0  0  0  0  0
   -1.2824    0.7051   -0.4696 H   0  0  0  0  0  0  0  0  0  0  0  0
   -1.1706   -0.8681    0.4881 H   0  0  0  0  0  0  0  0  0  0  0  0
  1  2  2  3
  1  3  1  0
  1  4  1  0
  2  5  1  0
  2  6  1  0
M  END
>  <reaction>  (3) 
rxn_594

>  <mol_properties>  (3) 
{"1": {"label": "acceptor", "atom_type": "Cd"}, "2": {"label": "a_hydrogen", "atom_type": "H0"}}

>  <type>  (3) 
r2h

$$$$

     RDKit          3D

 30 30  0  0  0  0  0  0  0  0999 V2000
    0.2300   -0.3812   -0.1357 C   0  0  0  0  0  0  0  0  0  0  0  0
   -0.9533    0.5159    0.3189 C   0  0  0  0  0  0  0  0  0  0  0  0
   -0.2807   -1.7448   -0.5924 C   0  0  0  0  0  0  0  0  0  0  0  0
    0.9360    0.4143   -1.2353 C   0  0  0  0  0  0  0  0  0  0  0  0
   -1.2190    1.4240   -0.8828 C   0  0  0  0  0  0  0  0  0  0  0  0
   -2.1608   -0.2932    0.7987 C   0  0  0  0  0  0  0  0  0  0  0  0
   -1.7033   -1.5576    1.5193 C   0  0  0  0  0  0  0  0  0  0  0  0
   -0.9573   -2.5022    0.5596 C   0  0  0  0  0  0  0  0  0  0  0  0
    0.1737    1.7192   -1.4396 C   0  0  0  0  0  0  0  0  0  0  0  0
    3.1136    1.6118    1.0292 C   0  0  0  0  0  0  0  0  0  0  0  0
    3.2895    1.1055   -0.1685 C   0  0  0  0  0  3  0  0  0  0  0  0
    0.9144   -0.5475    0.7025 H   0  0  0  0  0  0  0  0  0  0  0  0
   -0.6031    1.1399    1.1488 H   0  0  0  0  0  0  0  0  0  0  0  0
   -2.5510   -2.0742    1.9728 H   0  0  0  0  0  0  0  0  0  0  0  0
   -1.0438   -1.2679    2.3430 H   0  0  0  0  0  0  0  0  0  0  0  0
   -1.6528   -3.2360    0.1455 H   0  0  0  0  0  0  0  0  0  0  0  0
   -0.2077   -3.0685    1.1174 H   0  0  0  0  0  0  0  0  0  0  0  0
   -0.9912   -1.5970   -1.4125 H   0  0  0  0  0  0  0  0  0  0  0  0
    0.5398   -2.3366   -1.0044 H   0  0  0  0  0  0  0  0  0  0  0  0
    2.0939    0.6919   -0.8397 H   0  0  0  0  0  0  0  0  0  0  0  0
    1.1069   -0.1580   -2.1482 H   0  0  0  0  0  0  0  0  0  0  0  0
    0.1618    2.0450   -2.4799 H   0  0  0  0  0  0  0  0  0  0  0  0
    0.6419    2.5199   -0.8580 H   0  0  0  0  0  0  0  0  0  0  0  0
   -1.7795    2.3232   -0.6209 H   0  0  0  0  0  0  0  0  0  0  0  0
   -1.8083    0.8771   -1.6263 H   0  0  0  0  0  0  0  0  0  0  0  0
   -2.7834   -0.5721   -0.0581 H   0  0  0  0  0  0  0  0  0  0  0  0
   -2.7904    0.3184    1.4485 H   0  0  0  0  0  0  0  0  0  0  0  0
    3.9422    1.9634    1.6403 H   0  0  0  0  0  0  0  0  0  0  0  0
    2.1216    1.7021    1.4645 H   0  0  0  0  0  0  0  0  0  0  0  0
    4.2199    0.9652   -0.7067 H   0  0  0  0  0  0  0  0  0  0  0  0
  1  3  1  0
  1  4  1  0
  1  2  1  0
  1 12  1  0
  2  6  1  0
  2  5  1  0
  2 13  1  0
  3  8  1  0
  3 18  1  0
  3 19  1  0
  4  9  1  0
  4 20  1  0
  4 21  1  0
  5  9  1  0
  5 24  1  0
  5 25  1  0
  6  7  1  0
  6 26  1  0
  6 27  1  0
  7  8  1  0
  7 14  1  0
  7 15  1  0
  8 16  1  0
  8 17  1  0
  9 22  1  0
  9 23  1  0
 10 11  2  3
 10 28  1  0
 10 29  1  0
 11 30  1  0
M  RAD  1  11   2
M  END
>  <reaction>  (4) 
rxn_594

>  <mol_properties>  (4) 
{"0": {"label": "*0", "atom_type": "Cs"}, "3": {"label": "*1", "atom_type": "Cs"}, "9": {"label": "*4", "atom_type": "Cd"}, "10": {"label": "*3", "atom_type": "Cd"}, "19": {"label": "*2", "atom_type": "H0"}}

>  <type>  (4) 
ts

$$$$
