
     RDKit          3D

 18 17  0  0  0  0  0  0  0  0999 V2000
   -1.9678   -0.6898    0.3341 C   0  0  0  0  0  0  0  0  0  0  0  0
   -0.7096   -0.1423   -0.3331 C   0  0  0  0  0  0  0  0  0  0  0  0
    0.5332   -0.5083    0.4732 C   0  0  0  0  0  0  0  0  0  0  0  0
   -0.5630   -0.6300   -1.7765 C   0  0  0  0  0  0  0  0  0  0  0  0
   -1.6976   -0.2443   -2.7138 C   0  0  0  0  0  0  0  0  0  0  0  0
   -1.9245    1.1511   -2.7759 O   0  0  0  0  0  0  0  0  0  0  0  0
   -2.0212   -0.3717    1.3771 H   0  0  0  0  0  0  0  0  0  0  0  0
   -1.9700   -1.7841    0.3194 H   0  0  0  0  0  0  0  0  0  0  0  0
   -2.8747   -0.3416   -0.1615 H   0  0  0  0  0  0  0  0  0  0  0  0
   -0.7920    0.9483   -0.3590 H   0  0  0  0  0  0  0  0  0  0  0  0
    0.6497   -1.5944    0.5338 H   0  0  0  0  0  0  0  0  0  0  0  0
    0.4690   -0.1237    1.4929 H   0  0  0  0  0  0  0  0  0  0  0  0
    1.4384   -0.1014    0.0169 H   0  0  0  0  0  0  0  0  0  0  0  0
    0.3780   -0.2443   -2.1878 H   0  0  0  0  0  0  0  0  0  0  0  0
   -0.4713   -1.7228   -1.7836 H   0  0  0  0  0  0  0  0  0  0  0  0
   -2.6401   -0.6786   -2.3778 H   0  0  0  0  0  0  0  0  0  0  0  0
   -1.4964   -0.6488   -3.7137 H   0  0  0  0  0  0  0  0  0  0  0  0
   -1.1201    1.5761   -3.0783 H   0  0  0  0  0  0  0  0  0  0  0  0
  1  2  1  0
  1  7  1  0
  1  8  1  0
  1  9  1  0
  2  3  1  0
  2  4  1  0
  2 10  1  0
  3 11  1  0
  3 12  1  0
  3 13  1  0
  4  5  1  0
  4 14  1  0
  4 15  1  0
  5  6  1  0
  5 16  1  0
  5 17  1  0
  6 18  1  0
M  END
>  <reaction>  (1) 
rxn_772

>  <mol_properties>  (1) 
{"1": {"label": "donator", "atom_type": "Cs"}, "9": {"label": "d_hydrogen", "atom_type": "H0"}}

>  <type>  (1) 
r1h

$$$$

     RDKit          3D

  4  3  0  0  0  0  0  0  0  0999 V2000
    0.0000    0.0000    0.0000 C   0  0  0  0  0  3  0  0  0  0  0  0
    1.0638   -0.1747    0.0540 H   0  0  0  0  0  0  0  0  0  0  0  0
   -0.6833   -0.8351   -0.0280 H   0  0  0  0  0  0  0  0  0  0  0  0
   -0.3805    1.0098   -0.0260 H   0  0  0  0  0  0  0  0  0  0  0  0
  1  2  1  0
  1  3  1  0
  1  4  1  0
M  RAD  1   1   2
M  END
>  <reaction>  (2) 
rxn_772

>  <mol_properties>  (2) 
{"0": {"label": "acceptor", "atom_type": "Cs"}}

>  <type>  (2) 
r2

$$$$

     RDKit          3D

  5  4  0  0  0  0  0  0  0  0999 V2000
    0.0000    0.0000    0.0000 C   0  0  0  0  0  0  0  0  0  0  0  0
   -0.6486   -0.7720   -0.4113 H   0  0  0  0  0  0  0  0  0  0  0  0
   -0.3482    0.9787   -0.3267 H   0  0  0  0  0  0  0  0  0  0  0  0
   -0.0223   -0.0487    1.0876 H   0  0  0  0  0  0  0  0  0  0  0  0
    1.0191   -0.1580   -0.3496 H   0  0  0  0  0  0  0  0  0  0  0  0
  1  2  1  0
  1  3  1  0
  1  4  1  0
  1  5  1  0
M  END
>  <reaction>  (3) 
rxn_772

>  <mol_properties>  (3) 
{"0": {"label": "a_hydrogen", "atom_type": "H0"}, "1": {"label": "acceptor", "atom_type": "Cs"}}

>  <type>  (3) 
r2h

$$$$

     RDKit          3D

 22 20  0  0  0  0  0  0  0  0999 V2000
    0.0651    0.6782   -1.6912 C   0  0  0  0  0  0  0  0  0  0  0  0
   -0.0295    0.8401   -0.1916 C   0  0  0  0  0  0  0  0  0  0  0  0
    0.0460    2.2797    0.2677 C   0  0  0  0  0  0  0  0  0  0  0  0
   -1.1705    0.0882    0.4714 C   0  0  0  0  0  0  0  0  0  0  0  0
   -1.3979   -1.3423    0.0065 C   0  0  0  0  0  0  0  0  0  0  0  0
   -0.2535   -2.1664    0.1037 O   0  0  0  0  0  0  0  0  0  0  0  0
    0.9058    1.2512   -2.0871 H   0  0  0  0  0  0  0  0  0  0  0  0
   -0.8439    1.0417   -2.1851 H   0  0  0  0  0  0  0  0  0  0  0  0
    0.2087   -0.3659   -1.9723 H   0  0  0  0  0  0  0  0  0  0  0  0
    1.0453    0.3216    0.2662 H   0  0  0  0  0  0  0  0  0  0  0  0
   -0.8134    2.8530   -0.0980 H   0  0  0  0  0  0  0  0  0  0  0  0
    0.9505    2.7649   -0.1047 H   0  0  0  0  0  0  0  0  0  0  0  0
    0.0502    2.3487    1.3581 H   0  0  0  0  0  0  0  0  0  0  0  0
   -1.0114    0.0929    1.5573 H   0  0  0  0  0  0  0  0  0  0  0  0
   -2.1080    0.6381    0.3086 H   0  0  0  0  0  0  0  0  0  0  0  0
   -1.6837   -1.3596   -1.0465 H   0  0  0  0  0  0  0  0  0  0  0  0
   -2.2329   -1.7729    0.5736 H   0  0  0  0  0  0  0  0  0  0  0  0
    0.1311   -2.0563    0.9751 H   0  0  0  0  0  0  0  0  0  0  0  0
    2.2718   -0.1679    0.7873 C   0  0  0  0  0  3  0  0  0  0  0  0
    2.9766    0.6412    0.6224 H   0  0  0  0  0  0  0  0  0  0  0  0
    2.4608   -1.0558    0.1933 H   0  0  0  0  0  0  0  0  0  0  0  0
    2.0745   -0.3640    1.8379 H   0  0  0  0  0  0  0  0  0  0  0  0
  1  2  1  0
  1  7  1  0
  1  8  1  0
  1  9  1  0
  2  3  1  0
  2  4  1  0
  2 10  1  0
  3 11  1  0
  3 12  1  0
  3 13  1  0
  4  5  1  0
  4 14  1  0
  4 15  1  0
  5  6  1  0
  5 16  1  0
  5 17  1  0
  6 18  1  0
 19 20  1  0
 19 21  1  0
 19 22  1  0
M  RAD  1  19   2
M  END
>  <reaction>  (4) 
rxn_772

>  <mol_properties>  (4) 
{"1": {"label": "*1", "atom_type": "Cs"}, "3": {"label": "*0", "atom_type": "Cs"}, "9": {"label": "*2", "atom_type": "H0"}, "18": {"label": "*3", "atom_type": "Cs"}, "19": {"label": "*4", "atom_type": "H0"}}

>  <type>  (4) 
ts

$$$$
