
     RDKit          3D

  8  7  0  0  0  0  0  0  0  0999 V2000
    1.9029    0.9046   -0.2050 C   0  0  0  0  0  0  0  0  0  0  0  0
    0.8517    0.4283    0.1217 C   0  0  0  0  0  0  0  0  0  0  0  0
   -0.3908   -0.1311    0.5404 C   0  0  0  0  0  0  0  0  0  0  0  0
   -1.2847   -0.6576   -0.2899 C   0  0  0  0  0  0  0  0  0  0  0  0
    2.8335    1.3255   -0.5014 H   0  0  0  0  0  0  0  0  0  0  0  0
   -0.5867   -0.1096    1.6074 H   0  0  0  0  0  0  0  0  0  0  0  0
   -2.2126   -1.0686    0.0850 H   0  0  0  0  0  0  0  0  0  0  0  0
   -1.1134   -0.6914   -1.3582 H   0  0  0  0  0  0  0  0  0  0  0  0
  1  2  3  0
  1  5  1  0
  2  3  1  0
  3  4  2  3
  3  6  1  0
  4  7  1  0
  4  8  1  0
M  END
>  <reaction>  (1) 
rxn_1786

>  <mol_properties>  (1) 
{"2": {"label": "donator", "atom_type": "Cd"}, "5": {"label": "d_hydrogen", "atom_type": "H0"}}

>  <type>  (1) 
r1h

$$$$

     RDKit          3D

 18 18  0  0  0  0  0  0  0  0999 V2000
    2.7512    0.0489   -0.5734 C   0  0  0  0  0  0  0  0  0  0  0  0
    1.4277   -0.4568   -0.0957 C   0  0  0  0  0  3  0  0  0  0  0  0
    0.5787   -1.2468   -0.9255 C   0  0  0  0  0  0  0  0  0  0  0  0
    0.9949   -1.6342   -2.2194 C   0  0  0  0  0  0  0  0  0  0  0  0
    0.1850   -2.4001   -3.0330 C   0  0  0  0  0  0  0  0  0  0  0  0
   -1.0677   -2.8151   -2.5986 C   0  0  0  0  0  0  0  0  0  0  0  0
   -1.4988   -2.4481   -1.3288 C   0  0  0  0  0  0  0  0  0  0  0  0
   -0.6986   -1.6827   -0.5072 C   0  0  0  0  0  0  0  0  0  0  0  0
    0.9655   -0.2084    1.5666 S   0  0  0  0  0  0  0  0  0  0  0  0
    3.1739    0.7873    0.1063 H   0  0  0  0  0  0  0  0  0  0  0  0
    3.4796   -0.7649   -0.6651 H   0  0  0  0  0  0  0  0  0  0  0  0
    2.6603    0.5178   -1.5558 H   0  0  0  0  0  0  0  0  0  0  0  0
    1.9693   -1.3375   -2.5829 H   0  0  0  0  0  0  0  0  0  0  0  0
    0.5357   -2.6808   -4.0185 H   0  0  0  0  0  0  0  0  0  0  0  0
   -1.6995   -3.4158   -3.2398 H   0  0  0  0  0  0  0  0  0  0  0  0
   -2.4742   -2.7614   -0.9778 H   0  0  0  0  0  0  0  0  0  0  0  0
   -1.0689   -1.4003    0.4702 H   0  0  0  0  0  0  0  0  0  0  0  0
    1.8478    0.7580    1.8433 H   0  0  0  0  0  0  0  0  0  0  0  0
  1  2  1  0
  1 10  1  0
  1 11  1  0
  1 12  1  0
  2  3  1  0
  2  9  1  0
  3  4  2  0
  3  8  1  0
  4  5  1  0
  4 13  1  0
  5  6  2  0
  5 14  1  0
  6  7  1  0
  6 15  1  0
  7  8  2  0
  7 16  1  0
  8 17  1  0
  9 18  1  0
M  RAD  1   2   2
M  END
>  <reaction>  (2) 
rxn_1786

>  <mol_properties>  (2) 
{"1": {"label": "acceptor", "atom_type": "Cs"}}

>  <type>  (2) 
r2

$$$$

     RDKit          3D

 19 19  0  0  0  0  0  0  0  0999 V2000
    2.2396    0.0552    0.8759 C   0  0  0  0  0  0  0  0  0  0  0  0
    1.4030   -0.9182    0.0491 C   0  0  0  0  0  0  0  0  0  0  0  0
    1.9465   -1.1096   -1.3460 C   0  0  0  0  0  0  0  0  0  0  0  0
    3.2062   -1.6607   -1.5671 C   0  0  0  0  0  0  0  0  0  0  0  0
    3.7015   -1.7950   -2.8519 C   0  0  0  0  0  0  0  0  0  0  0  0
    2.9436   -1.3845   -3.9410 C   0  0  0  0  0  0  0  0  0  0  0  0
    1.6880   -0.8403   -3.7327 C   0  0  0  0  0  0  0  0  0  0  0  0
    1.1950   -0.7046   -2.4420 C   0  0  0  0  0  0  0  0  0  0  0  0
    1.2970   -2.4864    0.9925 S   0  0  0  0  0  0  0  0  0  0  0  0
    2.2863    1.0196    0.3684 H   0  0  0  0  0  0  0  0  0  0  0  0
    1.8023    0.2034    1.8644 H   0  0  0  0  0  0  0  0  0  0  0  0
    3.2592   -0.3118    1.0018 H   0  0  0  0  0  0  0  0  0  0  0  0
    0.3897   -0.5237   -0.0274 H   0  0  0  0  0  0  0  0  0  0  0  0
    3.7943   -2.0027   -0.7240 H   0  0  0  0  0  0  0  0  0  0  0  0
    4.6828   -2.2258   -3.0068 H   0  0  0  0  0  0  0  0  0  0  0  0
    3.3313   -1.4930   -4.9459 H   0  0  0  0  0  0  0  0  0  0  0  0
    1.0868   -0.5204   -4.5746 H   0  0  0  0  0  0  0  0  0  0  0  0
    0.2111   -0.2764   -2.2859 H   0  0  0  0  0  0  0  0  0  0  0  0
    0.6371   -3.1863    0.0608 H   0  0  0  0  0  0  0  0  0  0  0  0
  1  2  1  0
  1 10  1  0
  1 11  1  0
  1 12  1  0
  2  3  1  0
  2  9  1  0
  2 13  1  0
  3  4  2  0
  3  8  1  0
  4  5  1  0
  4 14  1  0
  5  6  2  0
  5 15  1  0
  6  7  1  0
  6 16  1  0
  7  8  2  0
  7 17  1  0
  8 18  1  0
  9 19  1  0
M  END
>  <reaction>  (3) 
rxn_1786

>  <mol_properties>  (3) 
{"0": {"label": "a_hydrogen", "atom_type": "H0"}, "2": {"label": "acceptor", "atom_type": "Cs"}}

>  <type>  (3) 
r2h

$$$$

     RDKit          3D

 26 25  0  0  0  0  0  0  0  0999 V2000
    0.7650   -1.9846   -3.1771 C   0  0  0  0  0  0  0  0  0  0  0  0
    0.1063   -2.1142   -2.1748 C   0  0  0  0  0  0  0  0  0  0  0  0
   -0.6411   -2.1269   -1.0031 C   0  0  0  0  0  3  0  0  0  0  0  0
   -1.3082   -3.0609   -0.3560 C   0  0  0  0  0  0  0  0  0  0  0  0
    1.3425   -1.9063   -4.0667 H   0  0  0  0  0  0  0  0  0  0  0  0
   -0.7599   -0.8411   -0.3665 H   0  0  0  0  0  0  0  0  0  0  0  0
   -1.8552   -2.8253    0.5503 H   0  0  0  0  0  0  0  0  0  0  0  0
   -1.3422   -4.0879   -0.7093 H   0  0  0  0  0  0  0  0  0  0  0  0
   -1.6748    1.0213   -1.0273 C   0  0  0  0  0  0  0  0  0  0  0  0
   -0.9887    0.3017    0.1212 C   0  0  0  0  0  0  0  0  0  0  0  0
    0.3498    0.8669    0.4951 C   0  0  0  0  0  0  0  0  0  0  0  0
    0.5914    1.5311    1.6940 C   0  0  0  0  0  0  0  0  0  0  0  0
    1.8459    2.0519    1.9756 C   0  0  0  0  0  0  0  0  0  0  0  0
    2.8822    1.9124    1.0678 C   0  0  0  0  0  0  0  0  0  0  0  0
    2.6535    1.2509   -0.1303 C   0  0  0  0  0  0  0  0  0  0  0  0
    1.4011    0.7365   -0.4144 C   0  0  0  0  0  0  0  0  0  0  0  0
   -2.1663    0.0289    1.4467 S   0  0  0  0  0  0  0  0  0  0  0  0
   -2.5872    0.5013   -1.3231 H   0  0  0  0  0  0  0  0  0  0  0  0
   -1.9256    2.0478   -0.7495 H   0  0  0  0  0  0  0  0  0  0  0  0
   -1.0081    1.0565   -1.8894 H   0  0  0  0  0  0  0  0  0  0  0  0
   -0.2125    1.6572    2.4073 H   0  0  0  0  0  0  0  0  0  0  0  0
    2.0100    2.5709    2.9117 H   0  0  0  0  0  0  0  0  0  0  0  0
    3.8621    2.3147    1.2911 H   0  0  0  0  0  0  0  0  0  0  0  0
    3.4565    1.1304   -0.8466 H   0  0  0  0  0  0  0  0  0  0  0  0
    1.2394    0.2141   -1.3495 H   0  0  0  0  0  0  0  0  0  0  0  0
   -1.3256   -0.5792    2.2951 H   0  0  0  0  0  0  0  0  0  0  0  0
  1  2  3  0
  1  5  1  0
  2  3  1  0
  3  4  2  3
  4  7  1  0
  4  8  1  0
  6 10  1  0
  9 10  1  0
  9 18  1  0
  9 19  1  0
  9 20  1  0
 10 11  1  0
 10 17  1  0
 11 12  2  0
 11 16  1  0
 12 13  1  0
 12 21  1  0
 13 14  2  0
 13 22  1  0
 14 15  1  0
 14 23  1  0
 15 16  2  0
 15 24  1  0
 16 25  1  0
 17 26  1  0
M  RAD  1   3   2
M  END
>  <reaction>  (4) 
rxn_1786

>  <mol_properties>  (4) 
{"1": {"label": "*4", "atom_type": "Ct"}, "2": {"label": "*3", "atom_type": "Cd"}, "5": {"label": "*2", "atom_type": "H0"}, "9": {"label": "*1", "atom_type": "Cs"}, "10": {"label": "*0", "atom_type": "Cd"}}

>  <type>  (4) 
ts

$$$$
