
     RDKit          3D

 22 23  0  0  0  0  0  0  0  0999 V2000
   -2.1093   -0.3263    0.3079 C   0  0  0  0  0  0  0  0  0  0  0  0
   -1.3270    0.9803    0.4115 C   0  0  0  0  0  0  0  0  0  0  0  0
   -0.1818    0.8289   -0.6044 C   0  0  0  0  0  0  0  0  0  0  0  0
    1.1682    1.3904   -0.1341 C   0  0  0  0  0  0  0  0  0  0  0  0
    1.8508    0.2041    0.5479 C   0  0  0  0  0  0  0  0  0  0  0  0
    1.4982   -0.9663   -0.3710 C   0  0  0  0  0  0  0  0  0  0  0  0
    0.0340   -0.7124   -0.7594 C   0  0  0  0  0  0  0  0  0  0  0  0
   -0.9986   -1.3650    0.1756 C   0  0  0  0  0  0  0  0  0  0  0  0
   -2.7686   -0.5042    1.1589 H   0  0  0  0  0  0  0  0  0  0  0  0
   -2.7285   -0.3223   -0.5943 H   0  0  0  0  0  0  0  0  0  0  0  0
   -1.9339    1.8682    0.2289 H   0  0  0  0  0  0  0  0  0  0  0  0
   -0.9144    1.0729    1.4218 H   0  0  0  0  0  0  0  0  0  0  0  0
   -0.4804    1.2763   -1.5535 H   0  0  0  0  0  0  0  0  0  0  0  0
    1.7667    1.7058   -0.9931 H   0  0  0  0  0  0  0  0  0  0  0  0
    1.0540    2.2578    0.5189 H   0  0  0  0  0  0  0  0  0  0  0  0
    1.4197    0.0438    1.5410 H   0  0  0  0  0  0  0  0  0  0  0  0
    2.9248    0.3413    0.6788 H   0  0  0  0  0  0  0  0  0  0  0  0
    2.1362   -0.9329   -1.2584 H   0  0  0  0  0  0  0  0  0  0  0  0
    1.6421   -1.9421    0.0966 H   0  0  0  0  0  0  0  0  0  0  0  0
   -0.1575   -1.0299   -1.7854 H   0  0  0  0  0  0  0  0  0  0  0  0
   -1.3459   -2.3310   -0.1933 H   0  0  0  0  0  0  0  0  0  0  0  0
   -0.5489   -1.5373    1.1593 H   0  0  0  0  0  0  0  0  0  0  0  0
  1  2  1  0
  1  8  1  0
  1  9  1  0
  1 10  1  0
  2  3  1  0
  2 11  1  0
  2 12  1  0
  3  4  1  0
  3  7  1  0
  3 13  1  0
  4  5  1  0
  4 14  1  0
  4 15  1  0
  5  6  1  0
  5 16  1  0
  5 17  1  0
  6  7  1  0
  6 18  1  0
  6 19  1  0
  7  8  1  0
  7 20  1  0
  8 21  1  0
  8 22  1  0
M  END
>  <reaction>  (1) 
rxn_556

>  <mol_properties>  (1) 
{"2": {"label": "donator", "atom_type": "Cs"}, "12": {"label": "d_hydrogen", "atom_type": "H0"}}

>  <type>  (1) 
r1h

$$$$

     RDKit          3D

  7  6  0  0  0  0  0  0  0  0999 V2000
   -0.6201    0.0189   -0.0017 C   0  0  0  0  0  0  0  0  0  0  0  0
    0.8589   -0.0553    0.0500 C   0  0  0  0  0  3  0  0  0  0  0  0
   -1.0738   -0.9730   -0.0559 H   0  0  0  0  0  0  0  0  0  0  0  0
   -0.9680    0.5706   -0.8872 H   0  0  0  0  0  0  0  0  0  0  0  0
   -1.0303    0.5369    0.8678 H   0  0  0  0  0  0  0  0  0  0  0  0
    1.3939   -0.8386   -0.4695 H   0  0  0  0  0  0  0  0  0  0  0  0
    1.4394    0.7404    0.4965 H   0  0  0  0  0  0  0  0  0  0  0  0
  1  2  1  0
  1  3  1  0
  1  4  1  0
  1  5  1  0
  2  6  1  0
  2  7  1  0
M  RAD  1   2   2
M  END
>  <reaction>  (2) 
rxn_556

>  <mol_properties>  (2) 
{"1": {"label": "acceptor", "atom_type": "Cs"}}

>  <type>  (2) 
r2

$$$$

     RDKit          3D

  8  7  0  0  0  0  0  0  0  0999 V2000
    0.7610    0.0250    0.0051 C   0  0  0  0  0  0  0  0  0  0  0  0
   -0.7610   -0.0250   -0.0051 C   0  0  0  0  0  0  0  0  0  0  0  0
    1.1904   -0.9237   -0.3217 H   0  0  0  0  0  0  0  0  0  0  0  0
    1.1359    0.8041   -0.6609 H   0  0  0  0  0  0  0  0  0  0  0  0
    1.1435    0.2336    1.0058 H   0  0  0  0  0  0  0  0  0  0  0  0
   -1.1435   -0.2336   -1.0058 H   0  0  0  0  0  0  0  0  0  0  0  0
   -1.1904    0.9237    0.3216 H   0  0  0  0  0  0  0  0  0  0  0  0
   -1.1359   -0.8041    0.6609 H   0  0  0  0  0  0  0  0  0  0  0  0
  1  2  1  0
  1  3  1  0
  1  4  1  0
  1  5  1  0
  2  6  1  0
  2  7  1  0
  2  8  1  0
M  END
>  <reaction>  (3) 
rxn_556

>  <mol_properties>  (3) 
{"1": {"label": "acceptor", "atom_type": "Cs"}, "7": {"label": "a_hydrogen", "atom_type": "H0"}}

>  <type>  (3) 
r2h

$$$$

     RDKit          3D

 29 29  0  0  0  0  0  0  0  0999 V2000
   -2.4826   -2.1344    0.0128 C   0  0  0  0  0  0  0  0  0  0  0  0
   -2.2466   -1.1424    1.1190 C   0  0  0  0  0  3  0  0  0  0  0  0
   -3.4485   -2.6402    0.1146 H   0  0  0  0  0  0  0  0  0  0  0  0
   -1.7108   -2.9071    0.0033 H   0  0  0  0  0  0  0  0  0  0  0  0
   -2.4733   -1.6461   -0.9642 H   0  0  0  0  0  0  0  0  0  0  0  0
   -2.1304   -1.5729    2.1117 H   0  0  0  0  0  0  0  0  0  0  0  0
   -2.9188   -0.2862    1.1244 H   0  0  0  0  0  0  0  0  0  0  0  0
    1.0166   -1.3607   -1.3000 C   0  0  0  0  0  0  0  0  0  0  0  0
    1.0604   -1.2358    0.2247 C   0  0  0  0  0  0  0  0  0  0  0  0
    0.1340   -0.0691    0.5381 C   0  0  0  0  0  0  0  0  0  0  0  0
    0.5416    0.9119    1.6256 C   0  0  0  0  0  0  0  0  0  0  0  0
    1.1474    2.0858    0.8469 C   0  0  0  0  0  0  0  0  0  0  0  0
    0.2419    2.1947   -0.3829 C   0  0  0  0  0  0  0  0  0  0  0  0
   -0.0584    0.7365   -0.7619 C   0  0  0  0  0  0  0  0  0  0  0  0
    0.9175    0.0932   -1.7593 C   0  0  0  0  0  0  0  0  0  0  0  0
    1.8780   -1.8871   -1.7131 H   0  0  0  0  0  0  0  0  0  0  0  0
    0.1187   -1.9067   -1.6028 H   0  0  0  0  0  0  0  0  0  0  0  0
    0.7718   -2.1550    0.7407 H   0  0  0  0  0  0  0  0  0  0  0  0
    2.0811   -0.9980    0.5482 H   0  0  0  0  0  0  0  0  0  0  0  0
   -1.0163   -0.5766    0.8643 H   0  0  0  0  0  0  0  0  0  0  0  0
   -0.3389    1.2567    2.1784 H   0  0  0  0  0  0  0  0  0  0  0  0
    1.2291    0.4740    2.3514 H   0  0  0  0  0  0  0  0  0  0  0  0
    2.1672    1.8360    0.5388 H   0  0  0  0  0  0  0  0  0  0  0  0
    1.1988    3.0088    1.4261 H   0  0  0  0  0  0  0  0  0  0  0  0
   -0.6828    2.7090   -0.1081 H   0  0  0  0  0  0  0  0  0  0  0  0
    0.6953    2.7552   -1.2025 H   0  0  0  0  0  0  0  0  0  0  0  0
   -1.0790    0.6340   -1.1426 H   0  0  0  0  0  0  0  0  0  0  0  0
    0.5954    0.2012   -2.7961 H   0  0  0  0  0  0  0  0  0  0  0  0
    1.8997    0.5699   -1.6707 H   0  0  0  0  0  0  0  0  0  0  0  0
  1  2  1  0
  1  3  1  0
  1  4  1  0
  1  5  1  0
  2  6  1  0
  2  7  1  0
  8  9  1  0
  8 15  1  0
  8 16  1  0
  8 17  1  0
  9 10  1  0
  9 18  1  0
  9 19  1  0
 10 11  1  0
 10 14  1  0
 10 20  1  0
 11 12  1  0
 11 21  1  0
 11 22  1  0
 12 13  1  0
 12 23  1  0
 12 24  1  0
 13 14  1  0
 13 25  1  0
 13 26  1  0
 14 15  1  0
 14 27  1  0
 15 28  1  0
 15 29  1  0
M  RAD  1   2   2
M  END
>  <reaction>  (4) 
rxn_556

>  <mol_properties>  (4) 
{"0": {"label": "*4", "atom_type": "Cs"}, "1": {"label": "*3", "atom_type": "Cs"}, "9": {"label": "*1", "atom_type": "Cs"}, "13": {"label": "*0", "atom_type": "Cs"}, "19": {"label": "*2", "atom_type": "H0"}}

>  <type>  (4) 
ts

$$$$
