
     RDKit          3D

 13 12  0  0  0  0  0  0  0  0999 V2000
    2.2975   -0.6134    0.7685 C   0  0  0  0  0  0  0  0  0  0  0  0
    1.1676   -0.5248    0.3802 C   0  0  0  0  0  0  0  0  0  0  0  0
   -0.2109   -0.3926   -0.0948 C   0  0  0  0  0  0  0  0  0  0  0  0
   -0.2501    0.2584   -1.4808 C   0  0  0  0  0  0  0  0  0  0  0  0
   -1.0633    0.3831    0.9141 C   0  0  0  0  0  0  0  0  0  0  0  0
    3.2999   -0.6974    1.1133 H   0  0  0  0  0  0  0  0  0  0  0  0
   -0.6209   -1.4038   -0.1814 H   0  0  0  0  0  0  0  0  0  0  0  0
    0.3402   -0.3102   -2.1992 H   0  0  0  0  0  0  0  0  0  0  0  0
    0.1511    1.2724   -1.4369 H   0  0  0  0  0  0  0  0  0  0  0  0
   -1.2791    0.3109   -1.8407 H   0  0  0  0  0  0  0  0  0  0  0  0
   -0.6861    1.4008    1.0287 H   0  0  0  0  0  0  0  0  0  0  0  0
   -1.0492   -0.0971    1.8924 H   0  0  0  0  0  0  0  0  0  0  0  0
   -2.0971    0.4363    0.5680 H   0  0  0  0  0  0  0  0  0  0  0  0
  1  2  3  0
  1  6  1  0
  2  3  1  0
  3  4  1  0
  3  5  1  0
  3  7  1  0
  4  8  1  0
  4  9  1  0
  4 10  1  0
  5 11  1  0
  5 12  1  0
  5 13  1  0
M  END
>  <reaction>  (1) 
rxn_1304

>  <mol_properties>  (1) 
{"2": {"label": "donator", "atom_type": "Cs"}, "6": {"label": "d_hydrogen", "atom_type": "H0"}}

>  <type>  (1) 
r1h

$$$$

     RDKit          3D

 10  9  0  0  0  0  0  0  0  0999 V2000
    1.2930    0.1441    0.3288 C   0  0  0  0  0  0  0  0  0  0  0  0
   -0.0374   -0.1647    0.9100 C   0  0  0  0  0  3  0  0  0  0  0  0
   -1.2664    0.4569    0.3567 C   0  0  0  0  0  0  0  0  0  0  0  0
    1.4384    1.2242    0.2174 H   0  0  0  0  0  0  0  0  0  0  0  0
    2.1077   -0.2477    0.9385 H   0  0  0  0  0  0  0  0  0  0  0  0
    1.4057   -0.2836   -0.6789 H   0  0  0  0  0  0  0  0  0  0  0  0
   -0.1309   -0.9912    1.6030 H   0  0  0  0  0  0  0  0  0  0  0  0
   -1.5005    0.0716   -0.6471 H   0  0  0  0  0  0  0  0  0  0  0  0
   -2.1382    0.2713    0.9849 H   0  0  0  0  0  0  0  0  0  0  0  0
   -1.1497    1.5406    0.2456 H   0  0  0  0  0  0  0  0  0  0  0  0
  1  2  1  0
  1  4  1  0
  1  5  1  0
  1  6  1  0
  2  3  1  0
  2  7  1  0
  3  8  1  0
  3  9  1  0
  3 10  1  0
M  RAD  1   2   2
M  END
>  <reaction>  (2) 
rxn_1304

>  <mol_properties>  (2) 
{"1": {"label": "acceptor", "atom_type": "Cs"}}

>  <type>  (2) 
r2

$$$$

     RDKit          3D

 11 10  0  0  0  0  0  0  0  0999 V2000
   -1.2710    0.1907   -0.2084 C   0  0  0  0  0  0  0  0  0  0  0  0
    0.0202   -0.6130   -0.2928 C   0  0  0  0  0  0  0  0  0  0  0  0
    0.1086   -1.6953    0.7756 C   0  0  0  0  0  0  0  0  0  0  0  0
   -1.3607    0.6851    0.7620 H   0  0  0  0  0  0  0  0  0  0  0  0
   -2.1429   -0.4567   -0.3299 H   0  0  0  0  0  0  0  0  0  0  0  0
   -1.3158    0.9602   -0.9809 H   0  0  0  0  0  0  0  0  0  0  0  0
    0.8757    0.0616   -0.1992 H   0  0  0  0  0  0  0  0  0  0  0  0
    0.0997   -1.0712   -1.2825 H   0  0  0  0  0  0  0  0  0  0  0  0
   -0.7198   -2.4022    0.6850 H   0  0  0  0  0  0  0  0  0  0  0  0
    1.0395   -2.2596    0.6989 H   0  0  0  0  0  0  0  0  0  0  0  0
    0.0624   -1.2603    1.7770 H   0  0  0  0  0  0  0  0  0  0  0  0
  1  2  1  0
  1  4  1  0
  1  5  1  0
  1  6  1  0
  2  3  1  0
  2  7  1  0
  2  8  1  0
  3  9  1  0
  3 10  1  0
  3 11  1  0
M  END
>  <reaction>  (3) 
rxn_1304

>  <mol_properties>  (3) 
{"0": {"label": "a_hydrogen", "atom_type": "H0"}, "2": {"label": "acceptor", "atom_type": "Cs"}}

>  <type>  (3) 
r2h

$$$$

     RDKit          3D

 23 21  0  0  0  0  0  0  0  0999 V2000
   -0.5853    0.5738   -2.4208 C   0  0  0  0  0  0  0  0  0  0  0  0
   -0.3058    0.7972   -1.2725 C   0  0  0  0  0  0  0  0  0  0  0  0
    0.0264    1.0038    0.1083 C   0  0  0  0  0  0  0  0  0  0  0  0
   -1.0559    1.6986    0.9140 C   0  0  0  0  0  0  0  0  0  0  0  0
    1.4247    1.5466    0.3399 C   0  0  0  0  0  0  0  0  0  0  0  0
   -0.8320    0.3929   -3.4389 H   0  0  0  0  0  0  0  0  0  0  0  0
    0.0689   -0.1889    0.6078 H   0  0  0  0  0  0  0  0  0  0  0  0
   -2.0261    1.2266    0.7574 H   0  0  0  0  0  0  0  0  0  0  0  0
   -1.1420    2.7513    0.6299 H   0  0  0  0  0  0  0  0  0  0  0  0
   -0.8168    1.6543    1.9788 H   0  0  0  0  0  0  0  0  0  0  0  0
    1.4991    2.5894    0.0186 H   0  0  0  0  0  0  0  0  0  0  0  0
    2.1664    0.9697   -0.2129 H   0  0  0  0  0  0  0  0  0  0  0  0
    1.6725    1.5017    1.4026 H   0  0  0  0  0  0  0  0  0  0  0  0
    1.1783   -2.1373    0.2395 C   0  0  0  0  0  0  0  0  0  0  0  0
    0.0951   -1.5116    1.0712 C   0  0  0  0  0  3  0  0  0  0  0  0
   -1.3073   -1.9849    0.8148 C   0  0  0  0  0  0  0  0  0  0  0  0
    0.9762   -1.9951   -0.8256 H   0  0  0  0  0  0  0  0  0  0  0  0
    2.1559   -1.7058    0.4599 H   0  0  0  0  0  0  0  0  0  0  0  0
    1.2441   -3.2170    0.4190 H   0  0  0  0  0  0  0  0  0  0  0  0
    0.3462   -1.3948    2.1251 H   0  0  0  0  0  0  0  0  0  0  0  0
   -1.4126   -3.0541    1.0339 H   0  0  0  0  0  0  0  0  0  0  0  0
   -2.0324   -1.4490    1.4293 H   0  0  0  0  0  0  0  0  0  0  0  0
   -1.5770   -1.8385   -0.2346 H   0  0  0  0  0  0  0  0  0  0  0  0
  1  2  3  0
  1  6  1  0
  2  3  1  0
  3  4  1  0
  3  5  1  0
  3  7  1  0
  4  8  1  0
  4  9  1  0
  4 10  1  0
  5 11  1  0
  5 12  1  0
  5 13  1  0
 14 15  1  0
 14 17  1  0
 14 18  1  0
 14 19  1  0
 15 16  1  0
 15 20  1  0
 16 21  1  0
 16 22  1  0
 16 23  1  0
M  RAD  1  15   2
M  END
>  <reaction>  (4) 
rxn_1304

>  <mol_properties>  (4) 
{"1": {"label": "*0", "atom_type": "Ct"}, "2": {"label": "*1", "atom_type": "Cs"}, "6": {"label": "*2", "atom_type": "H0"}, "13": {"label": "*4", "atom_type": "Cs"}, "14": {"label": "*3", "atom_type": "Cs"}}

>  <type>  (4) 
ts

$$$$
