
     RDKit          3D

  2  1  0  0  0  0  0  0  0  0999 V2000
    0.0000    0.0000    0.3721 H   0  0  0  0  0  0  0  0  0  0  0  0
    0.0000    0.0000   -0.3721 H   0  0  0  0  0  0  0  0  0  0  0  0
  1  2  1  0
M  END
>  <reaction>  (1) 
rxn_807

>  <mol_properties>  (1) 
{"0": {"label": "donator", "atom_type": "H0"}, "1": {"label": "d_hydrogen", "atom_type": "H0"}}

>  <type>  (1) 
r1h

$$$$

     RDKit          3D

  8  7  0  0  0  0  0  0  0  0999 V2000
   -1.0607    0.1793   -0.1423 C   0  0  0  0  0  0  0  0  0  0  0  0
    0.2796    0.0327    0.4820 C   0  0  0  0  0  3  0  0  0  0  0  0
    0.8817   -1.4663    1.0791 S   0  0  0  0  0  0  0  0  0  0  0  0
   -1.3043    1.2328   -0.2850 H   0  0  0  0  0  0  0  0  0  0  0  0
   -1.8444   -0.2641    0.4799 H   0  0  0  0  0  0  0  0  0  0  0  0
   -1.1164   -0.3100   -1.1237 H   0  0  0  0  0  0  0  0  0  0  0  0
    1.0449    0.7826    0.3391 H   0  0  0  0  0  0  0  0  0  0  0  0
   -0.2993   -2.0726    1.2718 H   0  0  0  0  0  0  0  0  0  0  0  0
  1  2  1  0
  1  4  1  0
  1  5  1  0
  1  6  1  0
  2  3  1  0
  2  7  1  0
  3  8  1  0
M  RAD  1   2   2
M  END
>  <reaction>  (2) 
rxn_807

>  <mol_properties>  (2) 
{"1": {"label": "acceptor", "atom_type": "Cs"}}

>  <type>  (2) 
r2

$$$$

     RDKit          3D

  9  8  0  0  0  0  0  0  0  0999 V2000
   -0.8818   -0.3578    0.1297 C   0  0  0  0  0  0  0  0  0  0  0  0
    0.6153   -0.3021   -0.1188 C   0  0  0  0  0  0  0  0  0  0  0  0
    1.5354   -1.7170    0.5545 S   0  0  0  0  0  0  0  0  0  0  0  0
   -1.1018   -0.3317    1.1984 H   0  0  0  0  0  0  0  0  0  0  0  0
   -1.3114   -1.2723   -0.2799 H   0  0  0  0  0  0  0  0  0  0  0  0
   -1.3767    0.4976   -0.3363 H   0  0  0  0  0  0  0  0  0  0  0  0
    1.0467    0.6194    0.2718 H   0  0  0  0  0  0  0  0  0  0  0  0
    0.8295   -0.3275   -1.1882 H   0  0  0  0  0  0  0  0  0  0  0  0
    1.2306   -1.5077    1.8423 H   0  0  0  0  0  0  0  0  0  0  0  0
  1  2  1  0
  1  4  1  0
  1  5  1  0
  1  6  1  0
  2  3  1  0
  2  7  1  0
  2  8  1  0
  3  9  1  0
M  END
>  <reaction>  (3) 
rxn_807

>  <mol_properties>  (3) 
{"0": {"label": "a_hydrogen", "atom_type": "H0"}, "2": {"label": "acceptor", "atom_type": "Cs"}}

>  <type>  (3) 
r2h

$$$$

     RDKit          3D

 10  8  0  0  0  0  0  0  0  0999 V2000
    0.4435    0.2719   -2.4529 H   0  0  0  0  0 15  0  0  0  0  0  0
    0.6244    0.1333   -1.4378 H   0  0  0  0  0  0  0  0  0  0  0  0
    0.8484    1.5154    0.2760 C   0  0  0  0  0  0  0  0  0  0  0  0
    0.8864    0.0907   -0.2201 C   0  0  0  0  0  0  0  0  0  0  0  0
   -0.2105   -1.0736    0.5637 S   0  0  0  0  0  0  0  0  0  0  0  0
    1.5418    2.1325   -0.2984 H   0  0  0  0  0  0  0  0  0  0  0  0
    1.1258    1.5695    1.3304 H   0  0  0  0  0  0  0  0  0  0  0  0
   -0.1513    1.9397    0.1661 H   0  0  0  0  0  0  0  0  0  0  0  0
    1.8841   -0.3471   -0.2004 H   0  0  0  0  0  0  0  0  0  0  0  0
   -1.3223   -0.3299    0.4774 H   0  0  0  0  0  0  0  0  0  0  0  0
  2  4  1  0
  3  4  1  0
  3  6  1  0
  3  7  1  0
  3  8  1  0
  4  5  1  0
  4  9  1  0
  5 10  1  0
M  END
>  <reaction>  (4) 
rxn_807

>  <mol_properties>  (4) 
{"0": {"label": "*1", "atom_type": "H0"}, "1": {"label": "*2", "atom_type": "H0"}, "3": {"label": "*3", "atom_type": "Cs"}, "4": {"label": "*4", "atom_type": "S2s"}}

>  <type>  (4) 
ts

$$$$
