
     RDKit          3D

 16 15  0  0  0  0  0  0  0  0999 V2000
    1.7961   -0.3807    1.6176 C   0  0  0  0  0  0  0  0  0  0  0  0
    0.8562   -0.8708    0.8256 C   0  0  0  0  0  0  0  0  0  0  0  0
    0.0895   -0.0826   -0.2048 C   0  0  0  0  0  0  0  0  0  0  0  0
   -1.4061   -0.1111    0.0982 C   0  0  0  0  0  0  0  0  0  0  0  0
    0.4476   -0.5902   -1.5797 C   0  0  0  0  0  0  0  0  0  0  0  0
   -0.3793   -1.1113   -2.4728 C   0  0  0  0  0  0  0  0  0  0  0  0
    2.3110   -1.0032    2.3386 H   0  0  0  0  0  0  0  0  0  0  0  0
    2.0846    0.6643    1.5737 H   0  0  0  0  0  0  0  0  0  0  0  0
    0.5921   -1.9241    0.8925 H   0  0  0  0  0  0  0  0  0  0  0  0
    0.4358    0.9557   -0.1462 H   0  0  0  0  0  0  0  0  0  0  0  0
   -1.5968    0.3080    1.0865 H   0  0  0  0  0  0  0  0  0  0  0  0
   -1.9674    0.4693   -0.6359 H   0  0  0  0  0  0  0  0  0  0  0  0
   -1.7902   -1.1338    0.0883 H   0  0  0  0  0  0  0  0  0  0  0  0
    1.5049   -0.5197   -1.8214 H   0  0  0  0  0  0  0  0  0  0  0  0
   -1.4421   -1.2131   -2.2889 H   0  0  0  0  0  0  0  0  0  0  0  0
   -0.0162   -1.4558   -3.4328 H   0  0  0  0  0  0  0  0  0  0  0  0
  1  2  2  3
  1  7  1  0
  1  8  1  0
  2  3  1  0
  2  9  1  0
  3  4  1  0
  3  5  1  0
  3 10  1  0
  4 11  1  0
  4 12  1  0
  4 13  1  0
  5  6  2  3
  5 14  1  0
  6 15  1  0
  6 16  1  0
M  END
>  <reaction>  (1) 
rxn_1169

>  <mol_properties>  (1) 
{"2": {"label": "donator", "atom_type": "Cs"}, "9": {"label": "d_hydrogen", "atom_type": "H0"}}

>  <type>  (1) 
r1h

$$$$

     RDKit          3D

  1  0  0  0  0  0  0  0  0  0999 V2000
    0.0000    0.0000    0.0000 H   0  0  0  0  0 15  0  0  0  0  0  0
M  END
>  <reaction>  (2) 
rxn_1169

>  <mol_properties>  (2) 
{"0": {"label": "acceptor", "atom_type": "H0"}}

>  <type>  (2) 
r2

$$$$

     RDKit          3D

  2  1  0  0  0  0  0  0  0  0999 V2000
    0.0000    0.0000    0.3721 H   0  0  0  0  0  0  0  0  0  0  0  0
    0.0000    0.0000   -0.3721 H   0  0  0  0  0  0  0  0  0  0  0  0
  1  2  1  0
M  END
>  <reaction>  (3) 
rxn_1169

>  <mol_properties>  (3) 
{"0": {"label": "acceptor", "atom_type": "H0"}, "1": {"label": "a_hydrogen", "atom_type": "H0"}}

>  <type>  (3) 
r2h

$$$$

     RDKit          3D

 17 15  0  0  0  0  0  0  0  0999 V2000
    0.4270    2.1308   -1.4146 H   0  0  0  0  0 15  0  0  0  0  0  0
    0.1436   -0.8332   -2.3239 C   0  0  0  0  0  0  0  0  0  0  0  0
    0.2837   -0.9045   -1.0104 C   0  0  0  0  0  0  0  0  0  0  0  0
    0.2340    0.2544   -0.0601 C   0  0  0  0  0  0  0  0  0  0  0  0
    1.4678    0.3454    0.8176 C   0  0  0  0  0  0  0  0  0  0  0  0
   -1.0766    0.3406    0.6436 C   0  0  0  0  0  0  0  0  0  0  0  0
   -1.2590    0.5255    1.9449 C   0  0  0  0  0  0  0  0  0  0  0  0
    0.1820   -1.7205   -2.9428 H   0  0  0  0  0  0  0  0  0  0  0  0
   -0.0107    0.1156   -2.8260 H   0  0  0  0  0  0  0  0  0  0  0  0
    0.4429   -1.8742   -0.5406 H   0  0  0  0  0  0  0  0  0  0  0  0
    0.2737    1.2355   -0.7653 H   0  0  0  0  0  0  0  0  0  0  0  0
    2.3677    0.3490    0.2024 H   0  0  0  0  0  0  0  0  0  0  0  0
    1.4595    1.2569    1.4166 H   0  0  0  0  0  0  0  0  0  0  0  0
    1.5245   -0.5090    1.4974 H   0  0  0  0  0  0  0  0  0  0  0  0
   -1.9442    0.2430   -0.0028 H   0  0  0  0  0  0  0  0  0  0  0  0
   -0.4322    0.6206    2.6381 H   0  0  0  0  0  0  0  0  0  0  0  0
   -2.2557    0.5830    2.3631 H   0  0  0  0  0  0  0  0  0  0  0  0
  2  3  2  3
  2  8  1  0
  2  9  1  0
  3  4  1  0
  3 10  1  0
  4  5  1  0
  4  6  1  0
  4 11  1  0
  5 12  1  0
  5 13  1  0
  5 14  1  0
  6  7  2  3
  6 15  1  0
  7 16  1  0
  7 17  1  0
M  END
>  <reaction>  (4) 
rxn_1169

>  <mol_properties>  (4) 
{"0": {"label": "*1", "atom_type": "H0"}, "2": {"label": "*4", "atom_type": "Cd"}, "3": {"label": "*3", "atom_type": "Cs"}, "10": {"label": "*2", "atom_type": "H0"}}

>  <type>  (4) 
ts

$$$$
