
     RDKit          3D

  6  5  0  0  0  0  0  0  0  0999 V2000
    1.2314    0.0428    0.5088 O   0  0  0  0  0  0  0  0  0  0  0  0
    0.2987    0.2341   -0.4915 N   0  0  0  0  0  0  0  0  0  0  0  0
   -0.8599   -0.1122   -0.1290 C   0  0  0  0  0  0  0  0  0  0  0  0
    2.0507    0.3401    0.1082 H   0  0  0  0  0  0  0  0  0  0  0  0
   -1.0700   -0.5112    0.8610 H   0  0  0  0  0  0  0  0  0  0  0  0
   -1.6509    0.0064   -0.8574 H   0  0  0  0  0  0  0  0  0  0  0  0
  1  2  1  0
  1  4  1  0
  2  3  2  3
  3  5  1  0
  3  6  1  0
M  END
>  <reaction>  (1) 
rxn_660

>  <mol_properties>  (1) 
{"0": {"label": "donator", "atom_type": "O2s"}, "3": {"label": "d_hydrogen", "atom_type": "H0"}}

>  <type>  (1) 
r1h

$$$$

     RDKit          3D

  3  2  0  0  0  0  0  0  0  0999 V2000
    0.0002    0.4233    0.0000 N   0  0  0  0  0  2  0  0  0  0  0  0
   -0.8051   -0.2112    0.0000 H   0  0  0  0  0  0  0  0  0  0  0  0
    0.8049   -0.2121    0.0000 H   0  0  0  0  0  0  0  0  0  0  0  0
  1  2  1  0
  1  3  1  0
M  RAD  1   1   2
M  END
>  <reaction>  (2) 
rxn_660

>  <mol_properties>  (2) 
{"0": {"label": "acceptor", "atom_type": "N3s"}}

>  <type>  (2) 
r2

$$$$

     RDKit          3D

  4  3  0  0  0  0  0  0  0  0999 V2000
    0.0006   -0.0009    0.2762 N   0  0  0  0  0  0  0  0  0  0  0  0
   -0.4188    0.8439   -0.0883 H   0  0  0  0  0  0  0  0  0  0  0  0
   -0.5215   -0.7840   -0.0936 H   0  0  0  0  0  0  0  0  0  0  0  0
    0.9397   -0.0590   -0.0943 H   0  0  0  0  0  0  0  0  0  0  0  0
  1  2  1  0
  1  3  1  0
  1  4  1  0
M  END
>  <reaction>  (3) 
rxn_660

>  <mol_properties>  (3) 
{"0": {"label": "acceptor", "atom_type": "N3s"}, "3": {"label": "a_hydrogen", "atom_type": "H0"}}

>  <type>  (3) 
r2h

$$$$

     RDKit          3D

  9  7  0  0  0  0  0  0  0  0999 V2000
   -0.0209    0.3237    2.2184 N   0  0  0  0  0  2  0  0  0  0  0  0
    0.2306   -0.6642    2.2405 H   0  0  0  0  0  0  0  0  0  0  0  0
    0.7835    0.8291    2.5877 H   0  0  0  0  0  0  0  0  0  0  0  0
    0.0558    0.7009   -0.1166 O   0  0  0  0  0  0  0  0  0  0  0  0
   -0.0751   -0.5329   -0.6148 N   0  0  0  0  0  0  0  0  0  0  0  0
   -0.0253   -0.6080   -1.8784 C   0  0  0  0  0  0  0  0  0  0  0  0
   -0.1866    0.6184    1.0006 H   0  0  0  0  0  0  0  0  0  0  0  0
    0.1045    0.2663   -2.5123 H   0  0  0  0  0  0  0  0  0  0  0  0
   -0.1255   -1.5938   -2.3120 H   0  0  0  0  0  0  0  0  0  0  0  0
  1  2  1  0
  1  3  1  0
  4  5  1  0
  4  7  1  0
  5  6  2  3
  6  8  1  0
  6  9  1  0
M  RAD  1   1   2
M  END
>  <reaction>  (4) 
rxn_660

>  <mol_properties>  (4) 
{"0": {"label": "*3", "atom_type": "N3s"}, "1": {"label": "*4", "atom_type": "H0"}, "3": {"label": "*1", "atom_type": "O2s"}, "4": {"label": "*0", "atom_type": "N3d"}, "6": {"label": "*2", "atom_type": "H0"}}

>  <type>  (4) 
ts

$$$$
