
     RDKit          3D

 12 11  0  0  0  0  0  0  0  0999 V2000
    1.9877    0.1011    0.4814 C   0  0  0  0  0  0  0  0  0  0  0  0
    0.8179    0.5502    0.0525 C   0  0  0  0  0  0  0  0  0  0  0  0
   -0.2939   -0.2692   -0.5320 C   0  0  0  0  0  0  0  0  0  0  0  0
   -0.0292   -1.7631   -0.6328 C   0  0  0  0  0  0  0  0  0  0  0  0
    2.2522   -0.9490    0.4436 H   0  0  0  0  0  0  0  0  0  0  0  0
    2.7295    0.7757    0.8896 H   0  0  0  0  0  0  0  0  0  0  0  0
    0.6162    1.6164    0.1190 H   0  0  0  0  0  0  0  0  0  0  0  0
   -0.5268    0.1319   -1.5245 H   0  0  0  0  0  0  0  0  0  0  0  0
   -1.1959   -0.0938    0.0644 H   0  0  0  0  0  0  0  0  0  0  0  0
    0.1590   -2.1992    0.3502 H   0  0  0  0  0  0  0  0  0  0  0  0
    0.8382   -1.9701   -1.2626 H   0  0  0  0  0  0  0  0  0  0  0  0
   -0.8879   -2.2759   -1.0672 H   0  0  0  0  0  0  0  0  0  0  0  0
  1  2  2  3
  1  5  1  0
  1  6  1  0
  2  3  1  0
  2  7  1  0
  3  4  1  0
  3  8  1  0
  3  9  1  0
  4 10  1  0
  4 11  1  0
  4 12  1  0
M  END
>  <reaction>  (1) 
rxn_1053

>  <mol_properties>  (1) 
{"2": {"label": "donator", "atom_type": "Cs"}, "7": {"label": "d_hydrogen", "atom_type": "H0"}}

>  <type>  (1) 
r1h

$$$$

     RDKit          3D

 20 20  0  0  0  0  0  0  0  0999 V2000
   -2.4774    0.8083    0.1488 C   0  0  0  0  0  0  0  0  0  0  0  0
   -1.4172   -0.1696   -0.2476 C   0  0  0  0  0  3  0  0  0  0  0  0
   -0.2904    0.2932   -1.1156 C   0  0  0  0  0  0  0  0  0  0  0  0
   -1.4797   -1.5204    0.1947 C   0  0  0  0  0  0  0  0  0  0  0  0
   -0.4907   -2.4664   -0.1650 C   0  0  0  0  0  0  0  0  0  0  0  0
   -0.5559   -3.7750    0.2665 C   0  0  0  0  0  0  0  0  0  0  0  0
   -1.6038   -4.2041    1.0733 C   0  0  0  0  0  0  0  0  0  0  0  0
   -2.5899   -3.2959    1.4424 C   0  0  0  0  0  0  0  0  0  0  0  0
   -2.5339   -1.9852    1.0162 C   0  0  0  0  0  0  0  0  0  0  0  0
   -3.4697    0.4933   -0.1924 H   0  0  0  0  0  0  0  0  0  0  0  0
   -2.5434    0.9184    1.2368 H   0  0  0  0  0  0  0  0  0  0  0  0
   -2.2829    1.7944   -0.2706 H   0  0  0  0  0  0  0  0  0  0  0  0
   -0.2452   -0.2661   -2.0565 H   0  0  0  0  0  0  0  0  0  0  0  0
   -0.3905    1.3487   -1.3647 H   0  0  0  0  0  0  0  0  0  0  0  0
    0.6811    0.1589   -0.6274 H   0  0  0  0  0  0  0  0  0  0  0  0
    0.3373   -2.1635   -0.7918 H   0  0  0  0  0  0  0  0  0  0  0  0
    0.2187   -4.4725   -0.0281 H   0  0  0  0  0  0  0  0  0  0  0  0
   -1.6513   -5.2316    1.4097 H   0  0  0  0  0  0  0  0  0  0  0  0
   -3.4116   -3.6175    2.0706 H   0  0  0  0  0  0  0  0  0  0  0  0
   -3.3164   -1.3029    1.3205 H   0  0  0  0  0  0  0  0  0  0  0  0
  1  2  1  0
  1 10  1  0
  1 11  1  0
  1 12  1  0
  2  3  1  0
  2  4  1  0
  3 13  1  0
  3 14  1  0
  3 15  1  0
  4  5  2  0
  4  9  1  0
  5  6  1  0
  5 16  1  0
  6  7  2  0
  6 17  1  0
  7  8  1  0
  7 18  1  0
  8  9  2  0
  8 19  1  0
  9 20  1  0
M  RAD  1   2   2
M  END
>  <reaction>  (2) 
rxn_1053

>  <mol_properties>  (2) 
{"1": {"label": "acceptor", "atom_type": "Cs"}}

>  <type>  (2) 
r2

$$$$

     RDKit          3D

 21 21  0  0  0  0  0  0  0  0999 V2000
   -1.3695    1.3367   -1.0719 C   0  0  0  0  0  0  0  0  0  0  0  0
   -1.4091   -0.0981   -0.5428 C   0  0  0  0  0  0  0  0  0  0  0  0
   -0.1819   -0.3999    0.3191 C   0  0  0  0  0  0  0  0  0  0  0  0
   -1.5636   -1.1028   -1.6652 C   0  0  0  0  0  0  0  0  0  0  0  0
   -0.5920   -1.2314   -2.6553 C   0  0  0  0  0  0  0  0  0  0  0  0
   -0.7353   -2.1509   -3.6809 C   0  0  0  0  0  0  0  0  0  0  0  0
   -1.8582   -2.9642   -3.7377 C   0  0  0  0  0  0  0  0  0  0  0  0
   -2.8325   -2.8475   -2.7602 C   0  0  0  0  0  0  0  0  0  0  0  0
   -2.6828   -1.9241   -1.7351 C   0  0  0  0  0  0  0  0  0  0  0  0
   -0.4920    1.4974   -1.7025 H   0  0  0  0  0  0  0  0  0  0  0  0
   -2.2553    1.5607   -1.6679 H   0  0  0  0  0  0  0  0  0  0  0  0
   -1.3211    2.0496   -0.2461 H   0  0  0  0  0  0  0  0  0  0  0  0
   -2.2930   -0.1918    0.0948 H   0  0  0  0  0  0  0  0  0  0  0  0
   -0.1215    0.2955    1.1588 H   0  0  0  0  0  0  0  0  0  0  0  0
   -0.2200   -1.4155    0.7159 H   0  0  0  0  0  0  0  0  0  0  0  0
    0.7383   -0.3016   -0.2615 H   0  0  0  0  0  0  0  0  0  0  0  0
    0.2915   -0.6040   -2.6263 H   0  0  0  0  0  0  0  0  0  0  0  0
    0.0326   -2.2338   -4.4401 H   0  0  0  0  0  0  0  0  0  0  0  0
   -1.9712   -3.6833   -4.5391 H   0  0  0  0  0  0  0  0  0  0  0  0
   -3.7135   -3.4765   -2.7932 H   0  0  0  0  0  0  0  0  0  0  0  0
   -3.4509   -1.8400   -0.9743 H   0  0  0  0  0  0  0  0  0  0  0  0
  1  2  1  0
  1 10  1  0
  1 11  1  0
  1 12  1  0
  2  3  1  0
  2  4  1  0
  2 13  1  0
  3 14  1  0
  3 15  1  0
  3 16  1  0
  4  5  2  0
  4  9  1  0
  5  6  1  0
  5 17  1  0
  6  7  2  0
  6 18  1  0
  7  8  1  0
  7 19  1  0
  8  9  2  0
  8 20  1  0
  9 21  1  0
M  END
>  <reaction>  (3) 
rxn_1053

>  <mol_properties>  (3) 
{"0": {"label": "a_hydrogen", "atom_type": "H0"}, "2": {"label": "acceptor", "atom_type": "Cs"}}

>  <type>  (3) 
r2h

$$$$

     RDKit          3D

 32 31  0  0  0  0  0  0  0  0999 V2000
   -2.0633   -1.0397   -2.6676 C   0  0  0  0  0  0  0  0  0  0  0  0
   -1.9957   -0.1998   -1.6274 C   0  0  0  0  0  0  0  0  0  0  0  0
   -1.3469    1.1017   -1.6148 C   0  0  0  0  0  3  0  0  0  0  0  0
   -0.9489    1.7429   -2.9188 C   0  0  0  0  0  0  0  0  0  0  0  0
   -1.6633   -0.7843   -3.6416 H   0  0  0  0  0  0  0  0  0  0  0  0
   -2.5392   -2.0069   -2.5729 H   0  0  0  0  0  0  0  0  0  0  0  0
   -2.4211   -0.5196   -0.6806 H   0  0  0  0  0  0  0  0  0  0  0  0
   -0.1758    0.8740   -0.9876 H   0  0  0  0  0  0  0  0  0  0  0  0
   -1.7799    1.7926   -0.8923 H   0  0  0  0  0  0  0  0  0  0  0  0
   -1.8237    1.9573   -3.5400 H   0  0  0  0  0  0  0  0  0  0  0  0
   -0.2885    1.0936   -3.4974 H   0  0  0  0  0  0  0  0  0  0  0  0
   -0.4224    2.6819   -2.7443 H   0  0  0  0  0  0  0  0  0  0  0  0
    1.6680   -0.2251   -1.5340 C   0  0  0  0  0  0  0  0  0  0  0  0
    1.0336    0.6218   -0.4515 C   0  0  0  0  0  0  0  0  0  0  0  0
    1.6428    1.9975   -0.3132 C   0  0  0  0  0  0  0  0  0  0  0  0
    0.6572   -0.0789    0.7974 C   0  0  0  0  0  0  0  0  0  0  0  0
    0.6517    0.5700    2.0371 C   0  0  0  0  0  0  0  0  0  0  0  0
    0.2414   -0.0802    3.1893 C   0  0  0  0  0  0  0  0  0  0  0  0
   -0.1835   -1.3985    3.1392 C   0  0  0  0  0  0  0  0  0  0  0  0
   -0.1886   -2.0592    1.9196 C   0  0  0  0  0  0  0  0  0  0  0  0
    0.2254   -1.4114    0.7691 C   0  0  0  0  0  0  0  0  0  0  0  0
    1.0012   -1.0170   -1.8783 H   0  0  0  0  0  0  0  0  0  0  0  0
    1.9170    0.3893   -2.4001 H   0  0  0  0  0  0  0  0  0  0  0  0
    2.5902   -0.6958   -1.1781 H   0  0  0  0  0  0  0  0  0  0  0  0
    2.6075    1.9599    0.2045 H   0  0  0  0  0  0  0  0  0  0  0  0
    1.8132    2.4340   -1.2981 H   0  0  0  0  0  0  0  0  0  0  0  0
    0.9954    2.6795    0.2406 H   0  0  0  0  0  0  0  0  0  0  0  0
    0.9837    1.5965    2.1118 H   0  0  0  0  0  0  0  0  0  0  0  0
    0.2565    0.4490    4.1342 H   0  0  0  0  0  0  0  0  0  0  0  0
   -0.5047   -1.9061    4.0397 H   0  0  0  0  0  0  0  0  0  0  0  0
   -0.5176   -3.0895    1.8625 H   0  0  0  0  0  0  0  0  0  0  0  0
    0.2020   -1.9491   -0.1688 H   0  0  0  0  0  0  0  0  0  0  0  0
  1  2  2  3
  1  5  1  0
  1  6  1  0
  2  3  1  0
  2  7  1  0
  3  4  1  0
  3  9  1  0
  4 10  1  0
  4 11  1  0
  4 12  1  0
  8 14  1  0
 13 14  1  0
 13 22  1  0
 13 23  1  0
 13 24  1  0
 14 15  1  0
 14 16  1  0
 15 25  1  0
 15 26  1  0
 15 27  1  0
 16 17  2  0
 16 21  1  0
 17 18  1  0
 17 28  1  0
 18 19  2  0
 18 29  1  0
 19 20  1  0
 19 30  1  0
 20 21  2  0
 20 31  1  0
 21 32  1  0
M  RAD  1   3   2
M  END
>  <reaction>  (4) 
rxn_1053

>  <mol_properties>  (4) 
{"1": {"label": "*4", "atom_type": "Cd"}, "2": {"label": "*3", "atom_type": "Cs"}, "7": {"label": "*2", "atom_type": "H0"}, "13": {"label": "*1", "atom_type": "Cs"}, "15": {"label": "*0", "atom_type": "Cd"}}

>  <type>  (4) 
ts

$$$$
