
     RDKit          3D

 13 12  0  0  0  0  0  0  0  0999 V2000
    3.0977   -0.3549   -0.5105 C   0  0  0  0  0  0  0  0  0  0  0  0
    2.0556    0.4221   -0.2627 C   0  0  0  0  0  0  0  0  0  0  0  0
    0.6313   -0.0354   -0.2366 C   0  0  0  0  0  0  0  0  0  0  0  0
   -0.2567    0.6038   -1.2694 C   0  0  0  0  0  0  0  0  0  0  0  0
    0.1459    1.3456   -2.2891 C   0  0  0  0  0  0  0  0  0  0  0  0
    4.1081    0.0344   -0.5074 H   0  0  0  0  0  0  0  0  0  0  0  0
    2.9777   -1.4116   -0.7243 H   0  0  0  0  0  0  0  0  0  0  0  0
    2.2171    1.4781   -0.0618 H   0  0  0  0  0  0  0  0  0  0  0  0
    0.5865   -1.1233   -0.3540 H   0  0  0  0  0  0  0  0  0  0  0  0
    0.2065    0.1743    0.7521 H   0  0  0  0  0  0  0  0  0  0  0  0
   -1.3190    0.4126   -1.1445 H   0  0  0  0  0  0  0  0  0  0  0  0
    1.1948    1.5564   -2.4628 H   0  0  0  0  0  0  0  0  0  0  0  0
   -0.5644    1.7621   -2.9918 H   0  0  0  0  0  0  0  0  0  0  0  0
  1  2  2  3
  1  6  1  0
  1  7  1  0
  2  3  1  0
  2  8  1  0
  3  4  1  0
  3  9  1  0
  3 10  1  0
  4  5  2  3
  4 11  1  0
  5 12  1  0
  5 13  1  0
M  END
>  <reaction>  (1) 
rxn_1125

>  <mol_properties>  (1) 
{"2": {"label": "donator", "atom_type": "Cs"}, "8": {"label": "d_hydrogen", "atom_type": "H0"}}

>  <type>  (1) 
r1h

$$$$

     RDKit          3D

  1  0  0  0  0  0  0  0  0  0999 V2000
    0.0000    0.0000    0.0000 H   0  0  0  0  0 15  0  0  0  0  0  0
M  END
>  <reaction>  (2) 
rxn_1125

>  <mol_properties>  (2) 
{"0": {"label": "acceptor", "atom_type": "H0"}}

>  <type>  (2) 
r2

$$$$

     RDKit          3D

  2  1  0  0  0  0  0  0  0  0999 V2000
    0.0000    0.0000    0.3721 H   0  0  0  0  0  0  0  0  0  0  0  0
    0.0000    0.0000   -0.3721 H   0  0  0  0  0  0  0  0  0  0  0  0
  1  2  1  0
M  END
>  <reaction>  (3) 
rxn_1125

>  <mol_properties>  (3) 
{"0": {"label": "acceptor", "atom_type": "H0"}, "1": {"label": "a_hydrogen", "atom_type": "H0"}}

>  <type>  (3) 
r2h

$$$$

     RDKit          3D

 14 12  0  0  0  0  0  0  0  0999 V2000
   -0.9346    2.3069   -1.0400 H   0  0  0  0  0 15  0  0  0  0  0  0
   -0.5874   -0.6844   -1.8442 C   0  0  0  0  0  0  0  0  0  0  0  0
   -0.7751   -0.7041   -0.5345 C   0  0  0  0  0  0  0  0  0  0  0  0
   -0.7286    0.4858    0.3612 C   0  0  0  0  0  0  0  0  0  0  0  0
    0.4857    0.6568    1.1932 C   0  0  0  0  0  0  0  0  0  0  0  0
    1.6440    0.0357    1.0006 C   0  0  0  0  0  0  0  0  0  0  0  0
   -0.6311   -1.5920   -2.4326 H   0  0  0  0  0  0  0  0  0  0  0  0
   -0.3890    0.2413   -2.3728 H   0  0  0  0  0  0  0  0  0  0  0  0
   -0.9689   -1.6535   -0.0396 H   0  0  0  0  0  0  0  0  0  0  0  0
   -0.8113    1.4763   -0.3563 H   0  0  0  0  0  0  0  0  0  0  0  0
   -1.6358    0.5752    0.9633 H   0  0  0  0  0  0  0  0  0  0  0  0
    0.3997    1.3743    2.0037 H   0  0  0  0  0  0  0  0  0  0  0  0
    1.7769   -0.6822    0.1997 H   0  0  0  0  0  0  0  0  0  0  0  0
    2.4937    0.2288    1.6425 H   0  0  0  0  0  0  0  0  0  0  0  0
  2  3  2  3
  2  7  1  0
  2  8  1  0
  3  4  1  0
  3  9  1  0
  4  5  1  0
  4 10  1  0
  4 11  1  0
  5  6  2  3
  5 12  1  0
  6 13  1  0
  6 14  1  0
M  END
>  <reaction>  (4) 
rxn_1125

>  <mol_properties>  (4) 
{"0": {"label": "*1", "atom_type": "H0"}, "2": {"label": "*4", "atom_type": "Cd"}, "3": {"label": "*3", "atom_type": "Cs"}, "9": {"label": "*2", "atom_type": "H0"}}

>  <type>  (4) 
ts

$$$$
