
     RDKit          3D

 13 12  0  0  0  0  0  0  0  0999 V2000
    2.2975   -0.6134    0.7685 C   0  0  0  0  0  0  0  0  0  0  0  0
    1.1676   -0.5248    0.3802 C   0  0  0  0  0  0  0  0  0  0  0  0
   -0.2109   -0.3926   -0.0948 C   0  0  0  0  0  0  0  0  0  0  0  0
   -0.2501    0.2584   -1.4808 C   0  0  0  0  0  0  0  0  0  0  0  0
   -1.0633    0.3831    0.9141 C   0  0  0  0  0  0  0  0  0  0  0  0
    3.2999   -0.6974    1.1133 H   0  0  0  0  0  0  0  0  0  0  0  0
   -0.6209   -1.4038   -0.1814 H   0  0  0  0  0  0  0  0  0  0  0  0
    0.3402   -0.3102   -2.1992 H   0  0  0  0  0  0  0  0  0  0  0  0
    0.1511    1.2724   -1.4369 H   0  0  0  0  0  0  0  0  0  0  0  0
   -1.2791    0.3109   -1.8407 H   0  0  0  0  0  0  0  0  0  0  0  0
   -0.6861    1.4008    1.0287 H   0  0  0  0  0  0  0  0  0  0  0  0
   -1.0492   -0.0971    1.8924 H   0  0  0  0  0  0  0  0  0  0  0  0
   -2.0971    0.4363    0.5680 H   0  0  0  0  0  0  0  0  0  0  0  0
  1  2  3  0
  1  6  1  0
  2  3  1  0
  3  4  1  0
  3  5  1  0
  3  7  1  0
  4  8  1  0
  4  9  1  0
  4 10  1  0
  5 11  1  0
  5 12  1  0
  5 13  1  0
M  END
>  <reaction>  (1) 
rxn_1331

>  <mol_properties>  (1) 
{"2": {"label": "donator", "atom_type": "Cs"}, "6": {"label": "d_hydrogen", "atom_type": "H0"}}

>  <type>  (1) 
r1h

$$$$

     RDKit          3D

  9  8  0  0  0  0  0  0  0  0999 V2000
    2.3991   -0.1292   -0.2384 S   0  0  0  0  0  0  0  0  0  0  0  0
    0.7460    0.2807    0.0931 C   0  0  0  0  0  3  0  0  0  0  0  0
   -0.3131   -0.5719   -0.2043 C   0  0  0  0  0  0  0  0  0  0  0  0
   -0.2286   -1.8095   -0.7775 C   0  0  0  0  0  0  0  0  0  0  0  0
    2.9373    1.0009    0.2312 H   0  0  0  0  0  0  0  0  0  0  0  0
    0.5618    1.2421    0.5487 H   0  0  0  0  0  0  0  0  0  0  0  0
   -1.2978   -0.1954    0.0537 H   0  0  0  0  0  0  0  0  0  0  0  0
    0.7207   -2.2479   -1.0607 H   0  0  0  0  0  0  0  0  0  0  0  0
   -1.1177   -2.3938   -0.9670 H   0  0  0  0  0  0  0  0  0  0  0  0
  1  2  1  0
  1  5  1  0
  2  3  1  0
  2  6  1  0
  3  4  2  3
  3  7  1  0
  4  8  1  0
  4  9  1  0
M  RAD  1   2   2
M  END
>  <reaction>  (2) 
rxn_1331

>  <mol_properties>  (2) 
{"1": {"label": "acceptor", "atom_type": "Cs"}}

>  <type>  (2) 
r2

$$$$

     RDKit          3D

 10  9  0  0  0  0  0  0  0  0999 V2000
    2.2097   -0.5315    0.2575 S   0  0  0  0  0  0  0  0  0  0  0  0
    0.5401   -0.7188   -0.4494 C   0  0  0  0  0  0  0  0  0  0  0  0
   -0.5263   -0.1678    0.4365 C   0  0  0  0  0  0  0  0  0  0  0  0
   -1.3394    0.8185    0.0912 C   0  0  0  0  0  0  0  0  0  0  0  0
    2.1701    0.8016    0.3806 H   0  0  0  0  0  0  0  0  0  0  0  0
    0.4238   -1.7978   -0.5701 H   0  0  0  0  0  0  0  0  0  0  0  0
    0.5053   -0.2663   -1.4400 H   0  0  0  0  0  0  0  0  0  0  0  0
   -0.6005   -0.6141    1.4236 H   0  0  0  0  0  0  0  0  0  0  0  0
   -2.0960    1.1907    0.7700 H   0  0  0  0  0  0  0  0  0  0  0  0
   -1.2784    1.2877   -0.8850 H   0  0  0  0  0  0  0  0  0  0  0  0
  1  2  1  0
  1  5  1  0
  2  3  1  0
  2  6  1  0
  2  7  1  0
  3  4  2  3
  3  8  1  0
  4  9  1  0
  4 10  1  0
M  END
>  <reaction>  (3) 
rxn_1331

>  <mol_properties>  (3) 
{"0": {"label": "a_hydrogen", "atom_type": "H0"}, "2": {"label": "acceptor", "atom_type": "Cs"}}

>  <type>  (3) 
r2h

$$$$

     RDKit          3D

 22 20  0  0  0  0  0  0  0  0999 V2000
    0.7303    0.7565   -2.6585 C   0  0  0  0  0  0  0  0  0  0  0  0
    0.3419    1.0904   -1.5688 C   0  0  0  0  0  0  0  0  0  0  0  0
   -0.1155    1.4008   -0.2525 C   0  0  0  0  0  3  0  0  0  0  0  0
   -1.5827    1.7562   -0.1452 C   0  0  0  0  0  0  0  0  0  0  0  0
    0.8266    2.2399    0.5828 C   0  0  0  0  0  0  0  0  0  0  0  0
    1.0690    0.4945   -3.6318 H   0  0  0  0  0  0  0  0  0  0  0  0
   -0.0579    0.1842    0.3388 H   0  0  0  0  0  0  0  0  0  0  0  0
   -2.2021    1.0281   -0.6686 H   0  0  0  0  0  0  0  0  0  0  0  0
   -1.7767    2.7433   -0.5757 H   0  0  0  0  0  0  0  0  0  0  0  0
   -1.8875    1.7806    0.9030 H   0  0  0  0  0  0  0  0  0  0  0  0
    0.8564    3.2709    0.2176 H   0  0  0  0  0  0  0  0  0  0  0  0
    1.8391    1.8377    0.5552 H   0  0  0  0  0  0  0  0  0  0  0  0
    0.4906    2.2605    1.6214 H   0  0  0  0  0  0  0  0  0  0  0  0
    1.7388   -1.4650    0.7446 S   0  0  0  0  0  0  0  0  0  0  0  0
    0.0147   -1.0382    0.8779 C   0  0  0  0  0  0  0  0  0  0  0  0
   -0.9701   -1.8350    0.1492 C   0  0  0  0  0  0  0  0  0  0  0  0
   -2.2260   -2.0262    0.5517 C   0  0  0  0  0  0  0  0  0  0  0  0
    1.8354   -1.2762   -0.5807 H   0  0  0  0  0  0  0  0  0  0  0  0
   -0.2333   -0.8518    1.9215 H   0  0  0  0  0  0  0  0  0  0  0  0
   -0.6484   -2.2402   -0.8056 H   0  0  0  0  0  0  0  0  0  0  0  0
   -2.5832   -1.6367    1.4987 H   0  0  0  0  0  0  0  0  0  0  0  0
   -2.9310   -2.5833   -0.0510 H   0  0  0  0  0  0  0  0  0  0  0  0
  1  2  3  0
  1  6  1  0
  2  3  1  0
  3  4  1  0
  3  5  1  0
  4  8  1  0
  4  9  1  0
  4 10  1  0
  5 11  1  0
  5 12  1  0
  5 13  1  0
  7 15  1  0
 14 15  1  0
 14 18  1  0
 15 16  1  0
 15 19  1  0
 16 17  2  3
 16 20  1  0
 17 21  1  0
 17 22  1  0
M  RAD  1   3   2
M  END
>  <reaction>  (4) 
rxn_1331

>  <mol_properties>  (4) 
{"1": {"label": "*4", "atom_type": "Ct"}, "2": {"label": "*3", "atom_type": "Cs"}, "6": {"label": "*2", "atom_type": "H0"}, "13": {"label": "*0", "atom_type": "S2s"}, "14": {"label": "*1", "atom_type": "Cs"}}

>  <type>  (4) 
ts

$$$$
