
     RDKit          3D

 12 11  0  0  0  0  0  0  0  0999 V2000
    2.1696    0.6854    1.1310 C   0  0  0  0  0  0  0  0  0  0  0  0
    1.2518    0.4145    0.4134 C   0  0  0  0  0  0  0  0  0  0  0  0
    0.1391    0.0443   -0.4683 C   0  0  0  0  0  0  0  0  0  0  0  0
   -0.2054   -1.4492   -0.3339 C   0  0  0  0  0  0  0  0  0  0  0  0
   -1.0375    0.8853   -0.2222 C   0  0  0  0  0  0  0  0  0  0  0  0
   -2.0160    1.5463   -0.0311 C   0  0  0  0  0  0  0  0  0  0  0  0
    2.9819    0.9356    1.7702 H   0  0  0  0  0  0  0  0  0  0  0  0
    0.4629    0.2285   -1.4981 H   0  0  0  0  0  0  0  0  0  0  0  0
   -0.5327   -1.6703    0.6812 H   0  0  0  0  0  0  0  0  0  0  0  0
    0.6727   -2.0535   -0.5593 H   0  0  0  0  0  0  0  0  0  0  0  0
   -1.0064   -1.7081   -1.0256 H   0  0  0  0  0  0  0  0  0  0  0  0
   -2.8802    2.1413    0.1426 H   0  0  0  0  0  0  0  0  0  0  0  0
  1  2  3  0
  1  7  1  0
  2  3  1  0
  3  4  1  0
  3  5  1  0
  3  8  1  0
  4  9  1  0
  4 10  1  0
  4 11  1  0
  5  6  3  0
  6 12  1  0
M  END
>  <reaction>  (1) 
rxn_1389

>  <mol_properties>  (1) 
{"2": {"label": "donator", "atom_type": "Cs"}, "7": {"label": "d_hydrogen", "atom_type": "H0"}}

>  <type>  (1) 
r1h

$$$$

     RDKit          3D

  1  0  0  0  0  0  0  0  0  0999 V2000
    0.0000    0.0000    0.0000 H   0  0  0  0  0 15  0  0  0  0  0  0
M  END
>  <reaction>  (2) 
rxn_1389

>  <mol_properties>  (2) 
{"0": {"label": "acceptor", "atom_type": "H0"}}

>  <type>  (2) 
r2

$$$$

     RDKit          3D

  2  1  0  0  0  0  0  0  0  0999 V2000
    0.0000    0.0000    0.3721 H   0  0  0  0  0  0  0  0  0  0  0  0
    0.0000    0.0000   -0.3721 H   0  0  0  0  0  0  0  0  0  0  0  0
  1  2  1  0
M  END
>  <reaction>  (3) 
rxn_1389

>  <mol_properties>  (3) 
{"0": {"label": "acceptor", "atom_type": "H0"}, "1": {"label": "a_hydrogen", "atom_type": "H0"}}

>  <type>  (3) 
r2h

$$$$

     RDKit          3D

 13 11  0  0  0  0  0  0  0  0999 V2000
    2.4395    0.1414    1.2986 H   0  0  0  0  0 15  0  0  0  0  0  0
    0.7273    0.3375   -2.3313 C   0  0  0  0  0  0  0  0  0  0  0  0
    0.5242    0.2912   -1.1524 C   0  0  0  0  0  0  0  0  0  0  0  0
    0.3092    0.2711    0.2846 C   0  0  0  0  0  0  0  0  0  0  0  0
   -0.2353    1.5925    0.8319 C   0  0  0  0  0  0  0  0  0  0  0  0
   -0.4444   -0.8882    0.7316 C   0  0  0  0  0  0  0  0  0  0  0  0
   -1.0560   -1.8340    1.1374 C   0  0  0  0  0  0  0  0  0  0  0  0
    0.8998    0.3697   -3.3803 H   0  0  0  0  0  0  0  0  0  0  0  0
    1.3878    0.1572    0.7679 H   0  0  0  0  0  0  0  0  0  0  0  0
   -0.2902    1.5479    1.9191 H   0  0  0  0  0  0  0  0  0  0  0  0
   -1.2335    1.7805    0.4365 H   0  0  0  0  0  0  0  0  0  0  0  0
    0.4195    2.4122    0.5385 H   0  0  0  0  0  0  0  0  0  0  0  0
   -1.6023   -2.6771    1.4865 H   0  0  0  0  0  0  0  0  0  0  0  0
  2  3  3  0
  2  8  1  0
  3  4  1  0
  4  5  1  0
  4  6  1  0
  4  9  1  0
  5 10  1  0
  5 11  1  0
  5 12  1  0
  6  7  3  0
  7 13  1  0
M  END
>  <reaction>  (4) 
rxn_1389

>  <mol_properties>  (4) 
{"0": {"label": "*1", "atom_type": "H0"}, "2": {"label": "*4", "atom_type": "Ct"}, "3": {"label": "*3", "atom_type": "Cs"}, "8": {"label": "*2", "atom_type": "H0"}}

>  <type>  (4) 
ts

$$$$
