
     RDKit          3D

  5  4  0  0  0  0  0  0  0  0999 V2000
    0.0000    0.0000    0.0000 C   0  0  0  0  0  0  0  0  0  0  0  0
   -0.6486   -0.7720   -0.4113 H   0  0  0  0  0  0  0  0  0  0  0  0
   -0.3482    0.9787   -0.3267 H   0  0  0  0  0  0  0  0  0  0  0  0
   -0.0223   -0.0487    1.0876 H   0  0  0  0  0  0  0  0  0  0  0  0
    1.0191   -0.1580   -0.3496 H   0  0  0  0  0  0  0  0  0  0  0  0
  1  2  1  0
  1  3  1  0
  1  4  1  0
  1  5  1  0
M  END
>  <reaction>  (1) 
rxn_843

>  <mol_properties>  (1) 
{"0": {"label": "donator", "atom_type": "Cs"}, "1": {"label": "d_hydrogen", "atom_type": "H0"}}

>  <type>  (1) 
r1h

$$$$

     RDKit          3D

  8  7  0  0  0  0  0  0  0  0999 V2000
    1.4038   -0.4003    0.0140 C   0  0  0  0  0  0  0  0  0  0  0  0
    0.2804    0.0563    0.4920 C   0  0  0  0  0  3  0  0  0  0  0  0
   -1.0935    0.3323    0.0625 C   0  0  0  0  0  0  0  0  0  0  0  0
    1.4898   -0.7154   -1.0285 H   0  0  0  0  0  0  0  0  0  0  0  0
    2.2990   -0.4891    0.6210 H   0  0  0  0  0  0  0  0  0  0  0  0
   -1.3399    1.3883    0.1900 H   0  0  0  0  0  0  0  0  0  0  0  0
   -1.2285    0.0762   -0.9967 H   0  0  0  0  0  0  0  0  0  0  0  0
   -1.8111   -0.2482    0.6457 H   0  0  0  0  0  0  0  0  0  0  0  0
  1  2  2  3
  1  4  1  0
  1  5  1  0
  2  3  1  0
  3  6  1  0
  3  7  1  0
  3  8  1  0
M  RAD  1   2   2
M  END
>  <reaction>  (2) 
rxn_843

>  <mol_properties>  (2) 
{"1": {"label": "acceptor", "atom_type": "Cd"}}

>  <type>  (2) 
r2

$$$$

     RDKit          3D

  9  8  0  0  0  0  0  0  0  0999 V2000
    1.1303   -0.2933   -0.7510 C   0  0  0  0  0  0  0  0  0  0  0  0
    0.2866    0.4560   -0.0588 C   0  0  0  0  0  0  0  0  0  0  0  0
   -0.9719   -0.0331    0.5823 C   0  0  0  0  0  0  0  0  0  0  0  0
    2.0274    0.1230   -1.1916 H   0  0  0  0  0  0  0  0  0  0  0  0
    0.9532   -1.3530   -0.9023 H   0  0  0  0  0  0  0  0  0  0  0  0
    0.5065    1.5132    0.0659 H   0  0  0  0  0  0  0  0  0  0  0  0
   -0.9526    0.1426    1.6610 H   0  0  0  0  0  0  0  0  0  0  0  0
   -1.1182   -1.1002    0.4106 H   0  0  0  0  0  0  0  0  0  0  0  0
   -1.8412    0.5010    0.1901 H   0  0  0  0  0  0  0  0  0  0  0  0
  1  2  2  3
  1  4  1  0
  1  5  1  0
  2  3  1  0
  2  6  1  0
  3  7  1  0
  3  8  1  0
  3  9  1  0
M  END
>  <reaction>  (3) 
rxn_843

>  <mol_properties>  (3) 
{"1": {"label": "acceptor", "atom_type": "Cd"}, "8": {"label": "a_hydrogen", "atom_type": "H0"}}

>  <type>  (3) 
r2h

$$$$

     RDKit          3D

 13 11  0  0  0  0  0  0  0  0999 V2000
   -0.8099    1.2454   -0.6066 C   0  0  0  0  0  0  0  0  0  0  0  0
   -0.1047    0.4067    0.1204 C   0  0  0  0  0  3  0  0  0  0  0  0
    0.6464    0.6160    1.3815 C   0  0  0  0  0  0  0  0  0  0  0  0
   -0.9236    2.2898   -0.3222 H   0  0  0  0  0  0  0  0  0  0  0  0
   -1.3057    0.9293   -1.5177 H   0  0  0  0  0  0  0  0  0  0  0  0
    1.7036    0.3743    1.2483 H   0  0  0  0  0  0  0  0  0  0  0  0
    0.5702    1.6530    1.7209 H   0  0  0  0  0  0  0  0  0  0  0  0
    0.2653   -0.0340    2.1727 H   0  0  0  0  0  0  0  0  0  0  0  0
   -0.0044   -2.0893   -0.8262 C   0  0  0  0  0  0  0  0  0  0  0  0
   -0.0460   -0.8455   -0.3414 H   0  0  0  0  0  0  0  0  0  0  0  0
   -0.5986   -2.0534   -1.7349 H   0  0  0  0  0  0  0  0  0  0  0  0
    1.0468   -2.2944   -1.0079 H   0  0  0  0  0  0  0  0  0  0  0  0
   -0.4392   -2.7163   -0.0528 H   0  0  0  0  0  0  0  0  0  0  0  0
  1  2  2  3
  1  4  1  0
  1  5  1  0
  2  3  1  0
  3  6  1  0
  3  7  1  0
  3  8  1  0
  9 10  1  0
  9 11  1  0
  9 12  1  0
  9 13  1  0
M  RAD  1   2   2
M  END
>  <reaction>  (4) 
rxn_843

>  <mol_properties>  (4) 
{"0": {"label": "*4", "atom_type": "Cd"}, "1": {"label": "*3", "atom_type": "Cd"}, "8": {"label": "*1", "atom_type": "Cs"}, "9": {"label": "*2", "atom_type": "H0"}, "10": {"label": "*0", "atom_type": "H0"}}

>  <type>  (4) 
ts

$$$$
