
     RDKit          3D

 16 15  0  0  0  0  0  0  0  0999 V2000
    1.7961   -0.3807    1.6176 C   0  0  0  0  0  0  0  0  0  0  0  0
    0.8562   -0.8708    0.8256 C   0  0  0  0  0  0  0  0  0  0  0  0
    0.0895   -0.0826   -0.2048 C   0  0  0  0  0  0  0  0  0  0  0  0
   -1.4061   -0.1111    0.0982 C   0  0  0  0  0  0  0  0  0  0  0  0
    0.4476   -0.5902   -1.5797 C   0  0  0  0  0  0  0  0  0  0  0  0
   -0.3793   -1.1113   -2.4728 C   0  0  0  0  0  0  0  0  0  0  0  0
    2.3110   -1.0032    2.3386 H   0  0  0  0  0  0  0  0  0  0  0  0
    2.0846    0.6643    1.5737 H   0  0  0  0  0  0  0  0  0  0  0  0
    0.5921   -1.9241    0.8925 H   0  0  0  0  0  0  0  0  0  0  0  0
    0.4358    0.9557   -0.1462 H   0  0  0  0  0  0  0  0  0  0  0  0
   -1.5968    0.3080    1.0865 H   0  0  0  0  0  0  0  0  0  0  0  0
   -1.9674    0.4693   -0.6359 H   0  0  0  0  0  0  0  0  0  0  0  0
   -1.7902   -1.1338    0.0883 H   0  0  0  0  0  0  0  0  0  0  0  0
    1.5049   -0.5197   -1.8214 H   0  0  0  0  0  0  0  0  0  0  0  0
   -1.4421   -1.2131   -2.2889 H   0  0  0  0  0  0  0  0  0  0  0  0
   -0.0162   -1.4558   -3.4328 H   0  0  0  0  0  0  0  0  0  0  0  0
  1  2  2  3
  1  7  1  0
  1  8  1  0
  2  3  1  0
  2  9  1  0
  3  4  1  0
  3  5  1  0
  3 10  1  0
  4 11  1  0
  4 12  1  0
  4 13  1  0
  5  6  2  3
  5 14  1  0
  6 15  1  0
  6 16  1  0
M  END
>  <reaction>  (1) 
rxn_1201

>  <mol_properties>  (1) 
{"2": {"label": "donator", "atom_type": "Cs"}, "9": {"label": "d_hydrogen", "atom_type": "H0"}}

>  <type>  (1) 
r1h

$$$$

     RDKit          3D

 12 11  0  0  0  0  0  0  0  0999 V2000
   -0.9951    0.1196   -0.8321 C   0  0  0  0  0  0  0  0  0  0  0  0
   -0.3760    0.2571    0.5231 C   0  0  0  0  0  3  0  0  0  0  0  0
    0.9330   -0.1537    0.7810 C   0  0  0  0  0  0  0  0  0  0  0  0
    1.5987   -0.1880    1.9734 C   0  0  0  0  0  0  0  0  0  0  0  0
   -1.4483    0.9449    1.7152 S   0  0  0  0  0  0  0  0  0  0  0  0
   -1.9164   -0.4696   -0.7936 H   0  0  0  0  0  0  0  0  0  0  0  0
   -1.2565    1.0958   -1.2506 H   0  0  0  0  0  0  0  0  0  0  0  0
   -0.3088   -0.3780   -1.5170 H   0  0  0  0  0  0  0  0  0  0  0  0
    1.4783   -0.4898   -0.0971 H   0  0  0  0  0  0  0  0  0  0  0  0
    2.6278   -0.5153    2.0142 H   0  0  0  0  0  0  0  0  0  0  0  0
    1.1316    0.0690    2.9151 H   0  0  0  0  0  0  0  0  0  0  0  0
   -0.5306    1.3052    2.6211 H   0  0  0  0  0  0  0  0  0  0  0  0
  1  2  1  0
  1  6  1  0
  1  7  1  0
  1  8  1  0
  2  3  1  0
  2  5  1  0
  3  4  2  3
  3  9  1  0
  4 10  1  0
  4 11  1  0
  5 12  1  0
M  RAD  1   2   2
M  END
>  <reaction>  (2) 
rxn_1201

>  <mol_properties>  (2) 
{"1": {"label": "acceptor", "atom_type": "Cs"}}

>  <type>  (2) 
r2

$$$$

     RDKit          3D

 13 12  0  0  0  0  0  0  0  0999 V2000
   -1.1828    0.8269   -0.1645 C   0  0  0  0  0  0  0  0  0  0  0  0
   -0.4827   -0.4584   -0.5736 C   0  0  0  0  0  0  0  0  0  0  0  0
   -0.9759   -1.7030    0.1030 C   0  0  0  0  0  0  0  0  0  0  0  0
   -2.0084   -1.7831    0.9287 C   0  0  0  0  0  0  0  0  0  0  0  0
   -0.4908   -0.7025   -2.3913 S   0  0  0  0  0  0  0  0  0  0  0  0
   -1.0941    0.9860    0.9125 H   0  0  0  0  0  0  0  0  0  0  0  0
   -0.7405    1.6784   -0.6793 H   0  0  0  0  0  0  0  0  0  0  0  0
   -2.2437    0.7943   -0.4195 H   0  0  0  0  0  0  0  0  0  0  0  0
    0.5870   -0.3637   -0.3637 H   0  0  0  0  0  0  0  0  0  0  0  0
   -0.4209   -2.6026   -0.1443 H   0  0  0  0  0  0  0  0  0  0  0  0
   -2.2982   -2.7315    1.3623 H   0  0  0  0  0  0  0  0  0  0  0  0
   -2.5999   -0.9190    1.2055 H   0  0  0  0  0  0  0  0  0  0  0  0
   -1.8040   -0.9489   -2.4971 H   0  0  0  0  0  0  0  0  0  0  0  0
  1  2  1  0
  1  6  1  0
  1  7  1  0
  1  8  1  0
  2  3  1  0
  2  5  1  0
  2  9  1  0
  3  4  2  3
  3 10  1  0
  4 11  1  0
  4 12  1  0
  5 13  1  0
M  END
>  <reaction>  (3) 
rxn_1201

>  <mol_properties>  (3) 
{"1": {"label": "acceptor", "atom_type": "Cs"}, "12": {"label": "a_hydrogen", "atom_type": "H0"}}

>  <type>  (3) 
r2h

$$$$

     RDKit          3D

 28 26  0  0  0  0  0  0  0  0999 V2000
    0.1000    2.3004    0.5107 C   0  0  0  0  0  0  0  0  0  0  0  0
    0.0740    1.2944   -0.6126 C   0  0  0  0  0  3  0  0  0  0  0  0
   -1.1289    1.1987   -1.4355 C   0  0  0  0  0  0  0  0  0  0  0  0
   -2.3354    1.6582   -1.0979 C   0  0  0  0  0  0  0  0  0  0  0  0
    1.6401    1.1977   -1.4621 S   0  0  0  0  0  0  0  0  0  0  0  0
   -0.0300    3.3195    0.1357 H   0  0  0  0  0  0  0  0  0  0  0  0
   -0.7042    2.0918    1.2185 H   0  0  0  0  0  0  0  0  0  0  0  0
    1.0427    2.2493    1.0558 H   0  0  0  0  0  0  0  0  0  0  0  0
   -1.0259    0.6474   -2.3654 H   0  0  0  0  0  0  0  0  0  0  0  0
   -3.1891    1.4940   -1.7421 H   0  0  0  0  0  0  0  0  0  0  0  0
   -2.5085    2.2148   -0.1856 H   0  0  0  0  0  0  0  0  0  0  0  0
    1.3411    0.1419   -2.2321 H   0  0  0  0  0  0  0  0  0  0  0  0
    0.8659   -2.6931   -0.8200 C   0  0  0  0  0  0  0  0  0  0  0  0
   -0.1405   -1.9974   -0.2917 C   0  0  0  0  0  0  0  0  0  0  0  0
   -0.0567   -1.0142    0.8006 C   0  0  0  0  0  0  0  0  0  0  0  0
    1.2344   -0.9516    1.5799 C   0  0  0  0  0  0  0  0  0  0  0  0
   -1.3125   -0.8361    1.5457 C   0  0  0  0  0  0  0  0  0  0  0  0
   -1.4434   -0.4666    2.8200 C   0  0  0  0  0  0  0  0  0  0  0  0
    0.6957   -3.3718   -1.6457 H   0  0  0  0  0  0  0  0  0  0  0  0
    1.8783   -2.6268   -0.4416 H   0  0  0  0  0  0  0  0  0  0  0  0
   -1.1317   -2.1226   -0.7210 H   0  0  0  0  0  0  0  0  0  0  0  0
   -0.0039    0.0954    0.0905 H   0  0  0  0  0  0  0  0  0  0  0  0
    2.0881   -0.8479    0.9100 H   0  0  0  0  0  0  0  0  0  0  0  0
    1.2439   -0.0923    2.2507 H   0  0  0  0  0  0  0  0  0  0  0  0
    1.3740   -1.8543    2.1812 H   0  0  0  0  0  0  0  0  0  0  0  0
   -2.2166   -1.0020    0.9653 H   0  0  0  0  0  0  0  0  0  0  0  0
   -0.5916   -0.2929    3.4656 H   0  0  0  0  0  0  0  0  0  0  0  0
   -2.4236   -0.3422    3.2613 H   0  0  0  0  0  0  0  0  0  0  0  0
  1  2  1  0
  1  6  1  0
  1  7  1  0
  1  8  1  0
  2  3  1  0
  2  5  1  0
  3  4  2  3
  3  9  1  0
  4 10  1  0
  4 11  1  0
  5 12  1  0
 13 14  2  3
 13 19  1  0
 13 20  1  0
 14 15  1  0
 14 21  1  0
 15 16  1  0
 15 17  1  0
 15 22  1  0
 16 23  1  0
 16 24  1  0
 16 25  1  0
 17 18  2  3
 17 26  1  0
 18 27  1  0
 18 28  1  0
M  RAD  1   2   2
M  END
>  <reaction>  (4) 
rxn_1201

>  <mol_properties>  (4) 
{"1": {"label": "*3", "atom_type": "Cs"}, "4": {"label": "*4", "atom_type": "S2s"}, "13": {"label": "*0", "atom_type": "Cd"}, "14": {"label": "*1", "atom_type": "Cs"}, "21": {"label": "*2", "atom_type": "H0"}}

>  <type>  (4) 
ts

$$$$
