
     RDKit          3D

  7  6  0  0  0  0  0  0  0  0999 V2000
    1.2985   -0.0065   -0.2721 C   0  0  0  0  0  0  0  0  0  0  0  0
    0.0000    0.0000   -0.2926 C   0  0  0  0  0  0  0  0  0  0  0  0
   -1.2985    0.0065   -0.3130 C   0  0  0  0  0  0  0  0  0  0  0  0
    1.8444   -0.7551    0.2895 H   0  0  0  0  0  0  0  0  0  0  0  0
    1.8693    0.7364   -0.8162 H   0  0  0  0  0  0  0  0  0  0  0  0
   -1.8658    0.5623    0.4239 H   0  0  0  0  0  0  0  0  0  0  0  0
   -1.8479   -0.5437   -1.0675 H   0  0  0  0  0  0  0  0  0  0  0  0
  1  2  2  0
  1  4  1  0
  1  5  1  0
  2  3  2  0
  3  6  1  0
  3  7  1  0
M  END
>  <reaction>  (1) 
rxn_1832

>  <mol_properties>  (1) 
{"0": {"label": "donator", "atom_type": "Cd"}, "3": {"label": "d_hydrogen", "atom_type": "H0"}}

>  <type>  (1) 
r1h

$$$$

     RDKit          3D

  3  2  0  0  0  0  0  0  0  0999 V2000
   -0.0365   -0.2870   -0.2626 C   0  0  0  0  0  3  0  0  0  0  0  0
    1.0501    0.7548    0.1070 S   0  0  0  0  0  0  0  0  0  0  0  0
   -1.0136   -0.5217    0.1556 H   0  0  0  0  0  0  0  0  0  0  0  0
  1  2  2  0
  1  3  1  0
M  RAD  1   1   2
M  END
>  <reaction>  (2) 
rxn_1832

>  <mol_properties>  (2) 
{"0": {"label": "acceptor", "atom_type": "CS"}}

>  <type>  (2) 
r2

$$$$

     RDKit          3D

  4  3  0  0  0  0  0  0  0  0999 V2000
   -0.1097    0.0067    0.0027 C   0  0  0  0  0  0  0  0  0  0  0  0
    1.4849   -0.0901   -0.0362 S   0  0  0  0  0  0  0  0  0  0  0  0
   -0.6318    0.9620    0.0167 H   0  0  0  0  0  0  0  0  0  0  0  0
   -0.7434   -0.8786    0.0168 H   0  0  0  0  0  0  0  0  0  0  0  0
  1  2  2  0
  1  3  1  0
  1  4  1  0
M  END
>  <reaction>  (3) 
rxn_1832

>  <mol_properties>  (3) 
{"0": {"label": "acceptor", "atom_type": "CS"}, "3": {"label": "a_hydrogen", "atom_type": "H0"}}

>  <type>  (3) 
r2h

$$$$

     RDKit          3D

 10  8  0  0  0  0  0  0  0  0999 V2000
   -0.3066   -0.3704    1.3423 C   0  0  0  0  0  0  0  0  0  0  0  0
   -1.0336   -1.2919    0.2963 S   0  0  0  0  0  0  0  0  0  0  0  0
   -0.3564   -0.4436    2.4293 H   0  0  0  0  0  0  0  0  0  0  0  0
    1.1902    1.5556    0.2330 C   0  0  0  0  0  0  0  0  0  0  0  0
    1.0901    1.4384   -1.0288 C   0  0  0  0  0  0  0  0  0  0  0  0
    0.9045    1.2121   -2.3131 C   0  0  0  0  0  3  0  0  0  0  0  0
    0.4645    0.6209    0.8830 H   0  0  0  0  0  0  0  0  0  0  0  0
    1.7302    2.2414    0.8660 H   0  0  0  0  0  0  0  0  0  0  0  0
    0.1007    1.6968   -2.8527 H   0  0  0  0  0  0  0  0  0  0  0  0
    1.5648    0.5531   -2.8627 H   0  0  0  0  0  0  0  0  0  0  0  0
  1  2  2  0
  1  3  1  0
  1  7  1  0
  4  5  3  0
  4  8  1  0
  5  6  1  0
  6  9  1  0
  6 10  1  0
M  RAD  1   6   2
M  END
>  <reaction>  (4) 
rxn_1832

>  <mol_properties>  (4) 
{"0": {"label": "*1", "atom_type": "CS"}, "1": {"label": "*0", "atom_type": "S2d"}, "3": {"label": "*3", "atom_type": "Ct"}, "4": {"label": "*4", "atom_type": "Ct"}, "6": {"label": "*2", "atom_type": "H0"}}

>  <type>  (4) 
ts

$$$$
