
     RDKit          3D

 12 11  0  0  0  0  0  0  0  0999 V2000
    2.1696    0.6854    1.1310 C   0  0  0  0  0  0  0  0  0  0  0  0
    1.2518    0.4145    0.4134 C   0  0  0  0  0  0  0  0  0  0  0  0
    0.1391    0.0443   -0.4683 C   0  0  0  0  0  0  0  0  0  0  0  0
   -0.2054   -1.4492   -0.3339 C   0  0  0  0  0  0  0  0  0  0  0  0
   -1.0375    0.8853   -0.2222 C   0  0  0  0  0  0  0  0  0  0  0  0
   -2.0160    1.5463   -0.0311 C   0  0  0  0  0  0  0  0  0  0  0  0
    2.9819    0.9356    1.7702 H   0  0  0  0  0  0  0  0  0  0  0  0
    0.4629    0.2285   -1.4981 H   0  0  0  0  0  0  0  0  0  0  0  0
   -0.5327   -1.6703    0.6812 H   0  0  0  0  0  0  0  0  0  0  0  0
    0.6727   -2.0535   -0.5593 H   0  0  0  0  0  0  0  0  0  0  0  0
   -1.0064   -1.7081   -1.0256 H   0  0  0  0  0  0  0  0  0  0  0  0
   -2.8802    2.1413    0.1426 H   0  0  0  0  0  0  0  0  0  0  0  0
  1  2  3  0
  1  7  1  0
  2  3  1  0
  3  4  1  0
  3  5  1  0
  3  8  1  0
  4  9  1  0
  4 10  1  0
  4 11  1  0
  5  6  3  0
  6 12  1  0
M  END
>  <reaction>  (1) 
rxn_1430

>  <mol_properties>  (1) 
{"2": {"label": "donator", "atom_type": "Cs"}, "7": {"label": "d_hydrogen", "atom_type": "H0"}}

>  <type>  (1) 
r1h

$$$$

     RDKit          3D

  4  3  0  0  0  0  0  0  0  0999 V2000
   -0.7528   -0.8706   -0.3839 S   0  0  0  0  0  0  0  0  0  0  0  0
    0.7502   -0.2564   -0.0649 C   0  0  0  0  0  3  0  0  0  0  0  0
    1.5655    0.9691    0.4633 S   0  0  0  0  0  0  0  0  0  0  0  0
   -1.5629    0.1579   -0.0146 H   0  0  0  0  0  0  0  0  0  0  0  0
  1  2  1  0
  1  4  1  0
  2  3  2  0
M  RAD  1   2   2
M  END
>  <reaction>  (2) 
rxn_1430

>  <mol_properties>  (2) 
{"1": {"label": "acceptor", "atom_type": "CS"}}

>  <type>  (2) 
r2

$$$$

     RDKit          3D

  5  4  0  0  0  0  0  0  0  0999 V2000
    1.2280   -0.4626    0.1225 S   0  0  0  0  0  0  0  0  0  0  0  0
   -0.4732   -0.2566   -0.0746 C   0  0  0  0  0  0  0  0  0  0  0  0
   -1.3314    1.1074   -0.0947 S   0  0  0  0  0  0  0  0  0  0  0  0
    1.5289    0.8405    0.2416 H   0  0  0  0  0  0  0  0  0  0  0  0
   -0.9523   -1.2286   -0.1949 H   0  0  0  0  0  0  0  0  0  0  0  0
  1  2  1  0
  1  4  1  0
  2  3  2  0
  2  5  1  0
M  END
>  <reaction>  (3) 
rxn_1430

>  <mol_properties>  (3) 
{"0": {"label": "a_hydrogen", "atom_type": "H0"}, "2": {"label": "acceptor", "atom_type": "CS"}}

>  <type>  (3) 
r2h

$$$$

     RDKit          3D

 16 14  0  0  0  0  0  0  0  0999 V2000
   -1.3137    0.1992   -2.9825 C   0  0  0  0  0  0  0  0  0  0  0  0
   -1.4164    0.1764   -1.7873 C   0  0  0  0  0  0  0  0  0  0  0  0
   -1.4703    0.1851   -0.3490 C   0  0  0  0  0  0  0  0  0  0  0  0
   -1.9315    1.4938    0.2795 C   0  0  0  0  0  0  0  0  0  0  0  0
   -2.0176   -1.0021    0.2493 C   0  0  0  0  0  0  0  0  0  0  0  0
   -2.4278   -1.9862    0.7995 C   0  0  0  0  0  0  0  0  0  0  0  0
   -1.2404    0.2108   -4.0433 H   0  0  0  0  0  0  0  0  0  0  0  0
   -0.2148    0.1453    0.0176 H   0  0  0  0  0  0  0  0  0  0  0  0
   -2.9977    1.6488    0.1060 H   0  0  0  0  0  0  0  0  0  0  0  0
   -1.3819    2.3292   -0.1538 H   0  0  0  0  0  0  0  0  0  0  0  0
   -1.7522    1.4688    1.3546 H   0  0  0  0  0  0  0  0  0  0  0  0
   -2.8036   -2.8596    1.2755 H   0  0  0  0  0  0  0  0  0  0  0  0
    2.1289   -0.1121   -0.8030 S   0  0  0  0  0  0  0  0  0  0  0  0
    1.1058    0.1621    0.5216 C   0  0  0  0  0  3  0  0  0  0  0  0
    1.3069    0.3847    2.0793 S   0  0  0  0  0  0  0  0  0  0  0  0
    3.3118   -0.1015   -0.1548 H   0  0  0  0  0  0  0  0  0  0  0  0
  1  2  3  0
  1  7  1  0
  2  3  1  0
  3  4  1  0
  3  5  1  0
  3  8  1  0
  4  9  1  0
  4 10  1  0
  4 11  1  0
  5  6  3  0
  6 12  1  0
 13 14  1  0
 13 16  1  0
 14 15  2  0
M  RAD  1  14   2
M  END
>  <reaction>  (4) 
rxn_1430

>  <mol_properties>  (4) 
{"1": {"label": "*0", "atom_type": "Ct"}, "2": {"label": "*1", "atom_type": "Cs"}, "7": {"label": "*2", "atom_type": "H0"}, "12": {"label": "*4", "atom_type": "S2s"}, "13": {"label": "*3", "atom_type": "CS"}}

>  <type>  (4) 
ts

$$$$
