
     RDKit          3D

 13 12  0  0  0  0  0  0  0  0999 V2000
    2.2975   -0.6134    0.7685 C   0  0  0  0  0  0  0  0  0  0  0  0
    1.1676   -0.5248    0.3802 C   0  0  0  0  0  0  0  0  0  0  0  0
   -0.2109   -0.3926   -0.0948 C   0  0  0  0  0  0  0  0  0  0  0  0
   -0.2501    0.2584   -1.4808 C   0  0  0  0  0  0  0  0  0  0  0  0
   -1.0633    0.3831    0.9141 C   0  0  0  0  0  0  0  0  0  0  0  0
    3.2999   -0.6974    1.1133 H   0  0  0  0  0  0  0  0  0  0  0  0
   -0.6209   -1.4038   -0.1814 H   0  0  0  0  0  0  0  0  0  0  0  0
    0.3402   -0.3102   -2.1992 H   0  0  0  0  0  0  0  0  0  0  0  0
    0.1511    1.2724   -1.4369 H   0  0  0  0  0  0  0  0  0  0  0  0
   -1.2791    0.3109   -1.8407 H   0  0  0  0  0  0  0  0  0  0  0  0
   -0.6861    1.4008    1.0287 H   0  0  0  0  0  0  0  0  0  0  0  0
   -1.0492   -0.0971    1.8924 H   0  0  0  0  0  0  0  0  0  0  0  0
   -2.0971    0.4363    0.5680 H   0  0  0  0  0  0  0  0  0  0  0  0
  1  2  3  0
  1  6  1  0
  2  3  1  0
  3  4  1  0
  3  5  1  0
  3  7  1  0
  4  8  1  0
  4  9  1  0
  4 10  1  0
  5 11  1  0
  5 12  1  0
  5 13  1  0
M  END
>  <reaction>  (1) 
rxn_1342

>  <mol_properties>  (1) 
{"2": {"label": "donator", "atom_type": "Cs"}, "6": {"label": "d_hydrogen", "atom_type": "H0"}}

>  <type>  (1) 
r1h

$$$$

     RDKit          3D

  4  3  0  0  0  0  0  0  0  0999 V2000
   -0.7528   -0.8706   -0.3839 S   0  0  0  0  0  0  0  0  0  0  0  0
    0.7502   -0.2564   -0.0649 C   0  0  0  0  0  3  0  0  0  0  0  0
    1.5655    0.9691    0.4633 S   0  0  0  0  0  0  0  0  0  0  0  0
   -1.5629    0.1579   -0.0146 H   0  0  0  0  0  0  0  0  0  0  0  0
  1  2  1  0
  1  4  1  0
  2  3  2  0
M  RAD  1   2   2
M  END
>  <reaction>  (2) 
rxn_1342

>  <mol_properties>  (2) 
{"1": {"label": "acceptor", "atom_type": "CS"}}

>  <type>  (2) 
r2

$$$$

     RDKit          3D

  5  4  0  0  0  0  0  0  0  0999 V2000
    1.2280   -0.4626    0.1225 S   0  0  0  0  0  0  0  0  0  0  0  0
   -0.4732   -0.2566   -0.0746 C   0  0  0  0  0  0  0  0  0  0  0  0
   -1.3314    1.1074   -0.0947 S   0  0  0  0  0  0  0  0  0  0  0  0
    1.5289    0.8405    0.2416 H   0  0  0  0  0  0  0  0  0  0  0  0
   -0.9523   -1.2286   -0.1949 H   0  0  0  0  0  0  0  0  0  0  0  0
  1  2  1  0
  1  4  1  0
  2  3  2  0
  2  5  1  0
M  END
>  <reaction>  (3) 
rxn_1342

>  <mol_properties>  (3) 
{"0": {"label": "a_hydrogen", "atom_type": "H0"}, "2": {"label": "acceptor", "atom_type": "CS"}}

>  <type>  (3) 
r2h

$$$$

     RDKit          3D

 17 15  0  0  0  0  0  0  0  0999 V2000
    0.0049    1.4926   -2.9475 C   0  0  0  0  0  0  0  0  0  0  0  0
    0.0022    1.5826   -1.7485 C   0  0  0  0  0  0  0  0  0  0  0  0
   -0.0009    1.6287   -0.3175 C   0  0  0  0  0  0  0  0  0  0  0  0
   -1.2799    2.1445    0.3101 C   0  0  0  0  0  0  0  0  0  0  0  0
    1.2735    2.1493    0.3155 C   0  0  0  0  0  0  0  0  0  0  0  0
    0.0073    1.4267   -4.0088 H   0  0  0  0  0  0  0  0  0  0  0  0
    0.0007    0.3631    0.0501 H   0  0  0  0  0  0  0  0  0  0  0  0
   -2.1569    1.6805   -0.1408 H   0  0  0  0  0  0  0  0  0  0  0  0
   -1.3622    3.2274    0.1793 H   0  0  0  0  0  0  0  0  0  0  0  0
   -1.2816    1.9299    1.3806 H   0  0  0  0  0  0  0  0  0  0  0  0
    1.3523    3.2325    0.1851 H   0  0  0  0  0  0  0  0  0  0  0  0
    2.1542    1.6886   -0.1317 H   0  0  0  0  0  0  0  0  0  0  0  0
    1.2715    1.9347    1.3860 H   0  0  0  0  0  0  0  0  0  0  0  0
    0.0068   -2.0100   -0.6943 S   0  0  0  0  0  0  0  0  0  0  0  0
    0.0020   -0.9126    0.6032 C   0  0  0  0  0  3  0  0  0  0  0  0
   -0.0011   -1.0690    2.1884 S   0  0  0  0  0  0  0  0  0  0  0  0
    0.0075   -3.1610    0.0091 H   0  0  0  0  0  0  0  0  0  0  0  0
  1  2  3  0
  1  6  1  0
  2  3  1  0
  3  4  1  0
  3  5  1  0
  3  7  1  0
  4  8  1  0
  4  9  1  0
  4 10  1  0
  5 11  1  0
  5 12  1  0
  5 13  1  0
 14 15  1  0
 14 17  1  0
 15 16  2  0
M  RAD  1  15   2
M  END
>  <reaction>  (4) 
rxn_1342

>  <mol_properties>  (4) 
{"1": {"label": "*0", "atom_type": "Ct"}, "2": {"label": "*1", "atom_type": "Cs"}, "6": {"label": "*2", "atom_type": "H0"}, "13": {"label": "*4", "atom_type": "S2s"}, "14": {"label": "*3", "atom_type": "CS"}}

>  <type>  (4) 
ts

$$$$
