
     RDKit          3D

 25 26  0  0  0  0  0  0  0  0999 V2000
    2.0298   -1.1515    0.0571 C   0  0  0  0  0  0  0  0  0  0  0  0
    2.2278    0.2445    0.6528 C   0  0  0  0  0  0  0  0  0  0  0  0
    1.2292    1.2625    0.0947 C   0  0  0  0  0  0  0  0  0  0  0  0
   -0.1869    0.7454    0.2762 C   0  0  0  0  0  0  0  0  0  0  0  0
   -1.3415    1.5501   -0.3122 C   0  0  0  0  0  0  0  0  0  0  0  0
   -2.5060    0.5338   -0.4178 C   0  0  0  0  0  0  0  0  0  0  0  0
   -1.8709   -0.8658   -0.2234 C   0  0  0  0  0  0  0  0  0  0  0  0
   -0.3715   -0.6265   -0.3693 C   0  0  0  0  0  0  0  0  0  0  0  0
    0.5898   -1.6500    0.2086 C   0  0  0  0  0  0  0  0  0  0  0  0
    2.2820   -1.1226   -1.0088 H   0  0  0  0  0  0  0  0  0  0  0  0
    2.7243   -1.8549    0.5221 H   0  0  0  0  0  0  0  0  0  0  0  0
    2.1030    0.1885    1.7400 H   0  0  0  0  0  0  0  0  0  0  0  0
    3.2514    0.5819    0.4743 H   0  0  0  0  0  0  0  0  0  0  0  0
    1.3611    2.2304    0.5855 H   0  0  0  0  0  0  0  0  0  0  0  0
    1.4198    1.4194   -0.9737 H   0  0  0  0  0  0  0  0  0  0  0  0
   -0.3675    0.6209    1.3539 H   0  0  0  0  0  0  0  0  0  0  0  0
   -1.5992    2.4249    0.2862 H   0  0  0  0  0  0  0  0  0  0  0  0
   -1.0595    1.9116   -1.3055 H   0  0  0  0  0  0  0  0  0  0  0  0
   -3.2666    0.7244    0.3399 H   0  0  0  0  0  0  0  0  0  0  0  0
   -3.0030    0.6112   -1.3853 H   0  0  0  0  0  0  0  0  0  0  0  0
   -2.2549   -1.6039   -0.9288 H   0  0  0  0  0  0  0  0  0  0  0  0
   -2.0796   -1.2429    0.7821 H   0  0  0  0  0  0  0  0  0  0  0  0
   -0.1432   -0.5121   -1.4391 H   0  0  0  0  0  0  0  0  0  0  0  0
    0.4720   -2.6209   -0.2799 H   0  0  0  0  0  0  0  0  0  0  0  0
    0.3601   -1.7986    1.2704 H   0  0  0  0  0  0  0  0  0  0  0  0
  1  2  1  0
  1  9  1  0
  1 10  1  0
  1 11  1  0
  2  3  1  0
  2 12  1  0
  2 13  1  0
  3  4  1  0
  3 14  1  0
  3 15  1  0
  4  5  1  0
  4  8  1  0
  4 16  1  0
  5  6  1  0
  5 17  1  0
  5 18  1  0
  6  7  1  0
  6 19  1  0
  6 20  1  0
  7  8  1  0
  7 21  1  0
  7 22  1  0
  8  9  1  0
  8 23  1  0
  9 24  1  0
  9 25  1  0
M  END
>  <reaction>  (1) 
rxn_602

>  <mol_properties>  (1) 
{"5": {"label": "donator", "atom_type": "Cs"}, "18": {"label": "d_hydrogen", "atom_type": "H0"}}

>  <type>  (1) 
r1h

$$$$

     RDKit          3D

 13 12  0  0  0  0  0  0  0  0999 V2000
   -1.3649   -0.5967   -0.3477 C   0  0  0  0  0  0  0  0  0  0  0  0
   -0.1601   -0.2776    0.4669 C   0  0  0  0  0  3  0  0  0  0  0  0
    1.1241   -0.9571    0.1414 C   0  0  0  0  0  0  0  0  0  0  0  0
   -0.1188    1.0130    1.2082 C   0  0  0  0  0  0  0  0  0  0  0  0
   -1.4265   -1.6632   -0.5770 H   0  0  0  0  0  0  0  0  0  0  0  0
   -2.2859   -0.3004    0.1602 H   0  0  0  0  0  0  0  0  0  0  0  0
   -1.3532   -0.0668   -1.3139 H   0  0  0  0  0  0  0  0  0  0  0  0
    1.6174   -0.4963   -0.7297 H   0  0  0  0  0  0  0  0  0  0  0  0
    0.9723   -2.0104   -0.1064 H   0  0  0  0  0  0  0  0  0  0  0  0
    1.8338   -0.8977    0.9701 H   0  0  0  0  0  0  0  0  0  0  0  0
   -1.0851    1.2507    1.6593 H   0  0  0  0  0  0  0  0  0  0  0  0
    0.6358    1.0009    1.9983 H   0  0  0  0  0  0  0  0  0  0  0  0
    0.1343    1.8546    0.5434 H   0  0  0  0  0  0  0  0  0  0  0  0
  1  2  1  0
  1  5  1  0
  1  6  1  0
  1  7  1  0
  2  3  1  0
  2  4  1  0
  3  8  1  0
  3  9  1  0
  3 10  1  0
  4 11  1  0
  4 12  1  0
  4 13  1  0
M  RAD  1   2   2
M  END
>  <reaction>  (2) 
rxn_602

>  <mol_properties>  (2) 
{"1": {"label": "acceptor", "atom_type": "Cs"}}

>  <type>  (2) 
r2

$$$$

     RDKit          3D

 14 13  0  0  0  0  0  0  0  0999 V2000
   -0.7647   -1.2352   -0.0349 C   0  0  0  0  0  0  0  0  0  0  0  0
    0.0570   -0.0126    0.3624 C   0  0  0  0  0  0  0  0  0  0  0  0
    1.4161   -0.0194   -0.3307 C   0  0  0  0  0  0  0  0  0  0  0  0
   -0.7022    1.2765    0.0629 C   0  0  0  0  0  0  0  0  0  0  0  0
   -0.2387   -2.1618    0.2040 H   0  0  0  0  0  0  0  0  0  0  0  0
   -0.9624   -1.2316   -1.1108 H   0  0  0  0  0  0  0  0  0  0  0  0
   -1.7273   -1.2512    0.4805 H   0  0  0  0  0  0  0  0  0  0  0  0
    0.2295   -0.0590    1.4432 H   0  0  0  0  0  0  0  0  0  0  0  0
    1.2933    0.0260   -1.4168 H   0  0  0  0  0  0  0  0  0  0  0  0
    2.0207    0.8381   -0.0278 H   0  0  0  0  0  0  0  0  0  0  0  0
    1.9766   -0.9269   -0.0966 H   0  0  0  0  0  0  0  0  0  0  0  0
   -1.6638    1.3002    0.5800 H   0  0  0  0  0  0  0  0  0  0  0  0
   -0.8979    1.3663   -1.0096 H   0  0  0  0  0  0  0  0  0  0  0  0
   -0.1313    2.1545    0.3720 H   0  0  0  0  0  0  0  0  0  0  0  0
  1  2  1  0
  1  5  1  0
  1  6  1  0
  1  7  1  0
  2  3  1  0
  2  4  1  0
  2  8  1  0
  3  9  1  0
  3 10  1  0
  3 11  1  0
  4 12  1  0
  4 13  1  0
  4 14  1  0
M  END
>  <reaction>  (3) 
rxn_602

>  <mol_properties>  (3) 
{"1": {"label": "acceptor", "atom_type": "Cs"}, "13": {"label": "a_hydrogen", "atom_type": "H0"}}

>  <type>  (3) 
r2h

$$$$

     RDKit          3D

 38 38  0  0  0  0  0  0  0  0999 V2000
    1.1343    3.5326    1.2975 C   0  0  0  0  0  0  0  0  0  0  0  0
    0.1854    2.8985    0.3097 C   0  0  0  0  0  0  0  0  0  0  0  0
   -1.1024    2.4074    0.9248 C   0  0  0  0  0  0  0  0  0  0  0  0
   -0.0049    3.6998   -0.9552 C   0  0  0  0  0  0  0  0  0  0  0  0
    1.3174    2.8760    2.1511 H   0  0  0  0  0  0  0  0  0  0  0  0
    2.0967    3.7587    0.8327 H   0  0  0  0  0  0  0  0  0  0  0  0
    0.7271    4.4740    1.6874 H   0  0  0  0  0  0  0  0  0  0  0  0
   -1.7136    3.2462    1.2815 H   0  0  0  0  0  0  0  0  0  0  0  0
   -0.9111    1.7545    1.7795 H   0  0  0  0  0  0  0  0  0  0  0  0
   -1.7019    1.8497    0.2013 H   0  0  0  0  0  0  0  0  0  0  0  0
    0.9528    3.9183   -1.4331 H   0  0  0  0  0  0  0  0  0  0  0  0
   -0.6274    3.1650   -1.6760 H   0  0  0  0  0  0  0  0  0  0  0  0
   -0.4948    4.6588   -0.7442 H   0  0  0  0  0  0  0  0  0  0  0  0
   -1.2994   -3.3211   -0.7138 C   0  0  0  0  0  0  0  0  0  0  0  0
   -1.2488   -3.1330    0.8046 C   0  0  0  0  0  0  0  0  0  0  0  0
    0.0247   -2.4156    1.2622 C   0  0  0  0  0  0  0  0  0  0  0  0
    0.1725   -1.1086    0.5050 C   0  0  0  0  0  0  0  0  0  0  0  0
    1.4214   -0.2597    0.7222 C   0  0  0  0  0  0  0  0  0  0  0  0
    1.4314    0.6625   -0.4910 C   0  0  0  0  0  3  0  0  0  0  0  0
    0.5376    0.0431   -1.5652 C   0  0  0  0  0  0  0  0  0  0  0  0
    0.1808   -1.3361   -1.0065 C   0  0  0  0  0  0  0  0  0  0  0  0
   -1.0997   -2.0057   -1.4724 C   0  0  0  0  0  0  0  0  0  0  0  0
   -0.5111   -4.0214   -1.0120 H   0  0  0  0  0  0  0  0  0  0  0  0
   -2.2482   -3.7817   -0.9983 H   0  0  0  0  0  0  0  0  0  0  0  0
   -2.1165   -2.5423    1.1190 H   0  0  0  0  0  0  0  0  0  0  0  0
   -1.3362   -4.1023    1.3008 H   0  0  0  0  0  0  0  0  0  0  0  0
   -0.0051   -2.2446    2.3416 H   0  0  0  0  0  0  0  0  0  0  0  0
    0.8980   -3.0483    1.0642 H   0  0  0  0  0  0  0  0  0  0  0  0
   -0.7024   -0.4837    0.7325 H   0  0  0  0  0  0  0  0  0  0  0  0
    1.4097    0.2866    1.6696 H   0  0  0  0  0  0  0  0  0  0  0  0
    2.3102   -0.9023    0.7364 H   0  0  0  0  0  0  0  0  0  0  0  0
    0.8212    1.7995   -0.0935 H   0  0  0  0  0  0  0  0  0  0  0  0
    2.4069    1.0183   -0.8153 H   0  0  0  0  0  0  0  0  0  0  0  0
    1.0202   -0.0075   -2.5428 H   0  0  0  0  0  0  0  0  0  0  0  0
   -0.3780    0.6338   -1.6973 H   0  0  0  0  0  0  0  0  0  0  0  0
    1.0172   -2.0157   -1.2229 H   0  0  0  0  0  0  0  0  0  0  0  0
   -1.0794   -2.1899   -2.5498 H   0  0  0  0  0  0  0  0  0  0  0  0
   -1.9457   -1.3349   -1.2802 H   0  0  0  0  0  0  0  0  0  0  0  0
  1  2  1  0
  1  5  1  0
  1  6  1  0
  1  7  1  0
  2  3  1  0
  2  4  1  0
  2 32  1  0
  3  8  1  0
  3  9  1  0
  3 10  1  0
  4 11  1  0
  4 12  1  0
  4 13  1  0
 14 15  1  0
 14 22  1  0
 14 23  1  0
 14 24  1  0
 15 16  1  0
 15 25  1  0
 15 26  1  0
 16 17  1  0
 16 27  1  0
 16 28  1  0
 17 18  1  0
 17 21  1  0
 17 29  1  0
 18 19  1  0
 18 30  1  0
 18 31  1  0
 19 20  1  0
 19 33  1  0
 20 21  1  0
 20 34  1  0
 20 35  1  0
 21 22  1  0
 21 36  1  0
 22 37  1  0
 22 38  1  0
M  RAD  1  19   2
M  END
>  <reaction>  (4) 
rxn_602

>  <mol_properties>  (4) 
{"0": {"label": "*0", "atom_type": "Cs"}, "1": {"label": "*1", "atom_type": "Cs"}, "17": {"label": "*4", "atom_type": "Cs"}, "18": {"label": "*3", "atom_type": "Cs"}, "31": {"label": "*2", "atom_type": "H0"}}

>  <type>  (4) 
ts

$$$$
