
     RDKit          3D

 15 15  0  0  0  0  0  0  0  0999 V2000
    2.2031   -0.2111   -0.1693 C   0  0  0  0  0  0  0  0  0  0  0  0
    0.7140   -0.0314   -0.0623 C   0  0  0  0  0  0  0  0  0  0  0  0
   -0.0114    0.5491   -1.0982 C   0  0  0  0  0  0  0  0  0  0  0  0
   -1.3882    0.6886   -1.0150 C   0  0  0  0  0  0  0  0  0  0  0  0
   -2.0661    0.2493    0.1118 C   0  0  0  0  0  0  0  0  0  0  0  0
   -1.3551   -0.3278    1.1528 C   0  0  0  0  0  0  0  0  0  0  0  0
    0.0216   -0.4648    1.0642 C   0  0  0  0  0  0  0  0  0  0  0  0
    2.6776   -0.1836    0.8122 H   0  0  0  0  0  0  0  0  0  0  0  0
    2.4446   -1.1749   -0.6249 H   0  0  0  0  0  0  0  0  0  0  0  0
    2.6532    0.5664   -0.7875 H   0  0  0  0  0  0  0  0  0  0  0  0
    0.5104    0.8989   -1.9819 H   0  0  0  0  0  0  0  0  0  0  0  0
   -1.9328    1.1452   -1.8322 H   0  0  0  0  0  0  0  0  0  0  0  0
   -3.1409    0.3597    0.1800 H   0  0  0  0  0  0  0  0  0  0  0  0
   -1.8736   -0.6702    2.0398 H   0  0  0  0  0  0  0  0  0  0  0  0
    0.5695   -0.9141    1.8849 H   0  0  0  0  0  0  0  0  0  0  0  0
  1  2  1  0
  1  8  1  0
  1  9  1  0
  1 10  1  0
  2  3  2  0
  2  7  1  0
  3  4  1  0
  3 11  1  0
  4  5  2  0
  4 12  1  0
  5  6  1  0
  5 13  1  0
  6  7  2  0
  6 14  1  0
  7 15  1  0
M  END
>  <reaction>  (1) 
rxn_258

>  <mol_properties>  (1) 
{"2": {"label": "donator", "atom_type": "Cd"}, "10": {"label": "d_hydrogen", "atom_type": "H0"}}

>  <type>  (1) 
r1h

$$$$

     RDKit          3D

  2  1  0  0  0  0  0  0  0  0999 V2000
    0.0000    0.0000    0.4855 O   0  0  0  0  0  1  0  0  0  0  0  0
    0.0000    0.0000   -0.4855 H   0  0  0  0  0  0  0  0  0  0  0  0
  1  2  1  0
M  RAD  1   1   2
M  END
>  <reaction>  (2) 
rxn_258

>  <mol_properties>  (2) 
{"0": {"label": "acceptor", "atom_type": "O2s"}}

>  <type>  (2) 
r2

$$$$

     RDKit          3D

  3  2  0  0  0  0  0  0  0  0999 V2000
   -0.0003    0.3867    0.0000 O   0  0  0  0  0  0  0  0  0  0  0  0
   -0.7617   -0.1940    0.0000 H   0  0  0  0  0  0  0  0  0  0  0  0
    0.7620   -0.1927    0.0000 H   0  0  0  0  0  0  0  0  0  0  0  0
  1  2  1  0
  1  3  1  0
M  END
>  <reaction>  (3) 
rxn_258

>  <mol_properties>  (3) 
{"0": {"label": "a_hydrogen", "atom_type": "H0"}, "1": {"label": "acceptor", "atom_type": "O2s"}}

>  <type>  (3) 
r2h

$$$$

     RDKit          3D

 17 16  0  0  0  0  0  0  0  0999 V2000
    0.1348   -0.5994   -2.2715 C   0  0  0  0  0  0  0  0  0  0  0  0
    0.0613   -0.5508   -0.7715 C   0  0  0  0  0  0  0  0  0  0  0  0
    0.1661    0.6295   -0.0612 C   0  0  0  0  0  0  0  0  0  0  0  0
    0.0932    0.7162    1.3133 C   0  0  0  0  0  0  0  0  0  0  0  0
   -0.0794   -0.4540    2.0388 C   0  0  0  0  0  0  0  0  0  0  0  0
   -0.1809   -1.6649    1.3672 C   0  0  0  0  0  0  0  0  0  0  0  0
   -0.1111   -1.7119   -0.0151 C   0  0  0  0  0  0  0  0  0  0  0  0
    0.9660   -1.2280   -2.5962 H   0  0  0  0  0  0  0  0  0  0  0  0
   -0.7801   -1.0241   -2.6895 H   0  0  0  0  0  0  0  0  0  0  0  0
    0.2752    0.3965   -2.6890 H   0  0  0  0  0  0  0  0  0  0  0  0
    0.3622    1.6674   -0.6856 H   0  0  0  0  0  0  0  0  0  0  0  0
    0.1775    1.6745    1.8093 H   0  0  0  0  0  0  0  0  0  0  0  0
   -0.1339   -0.4198    3.1194 H   0  0  0  0  0  0  0  0  0  0  0  0
   -0.3170   -2.5815    1.9272 H   0  0  0  0  0  0  0  0  0  0  0  0
   -0.1922   -2.6647   -0.5268 H   0  0  0  0  0  0  0  0  0  0  0  0
    0.2428    2.7578   -1.3288 O   0  0  0  0  0  1  0  0  0  0  0  0
   -0.7184    2.8568   -1.2983 H   0  0  0  0  0  0  0  0  0  0  0  0
  1  2  1  0
  1  8  1  0
  1  9  1  0
  1 10  1  0
  2  3  2  0
  2  7  1  0
  3  4  1  0
  3 11  1  0
  4  5  2  0
  4 12  1  0
  5  6  1  0
  5 13  1  0
  6  7  2  0
  6 14  1  0
  7 15  1  0
 16 17  1  0
M  RAD  1  16   2
M  END
>  <reaction>  (4) 
rxn_258

>  <mol_properties>  (4) 
{"1": {"label": "*0", "atom_type": "Cd"}, "2": {"label": "*1", "atom_type": "Cd"}, "10": {"label": "*2", "atom_type": "H0"}, "15": {"label": "*3", "atom_type": "O2s"}, "16": {"label": "*4", "atom_type": "H0"}}

>  <type>  (4) 
ts

$$$$
