
     RDKit          3D

 25 26  0  0  0  0  0  0  0  0999 V2000
    2.0298   -1.1515    0.0571 C   0  0  0  0  0  0  0  0  0  0  0  0
    2.2278    0.2445    0.6528 C   0  0  0  0  0  0  0  0  0  0  0  0
    1.2292    1.2625    0.0947 C   0  0  0  0  0  0  0  0  0  0  0  0
   -0.1869    0.7454    0.2762 C   0  0  0  0  0  0  0  0  0  0  0  0
   -1.3415    1.5501   -0.3122 C   0  0  0  0  0  0  0  0  0  0  0  0
   -2.5060    0.5338   -0.4178 C   0  0  0  0  0  0  0  0  0  0  0  0
   -1.8709   -0.8658   -0.2234 C   0  0  0  0  0  0  0  0  0  0  0  0
   -0.3715   -0.6265   -0.3693 C   0  0  0  0  0  0  0  0  0  0  0  0
    0.5898   -1.6500    0.2086 C   0  0  0  0  0  0  0  0  0  0  0  0
    2.2820   -1.1226   -1.0088 H   0  0  0  0  0  0  0  0  0  0  0  0
    2.7243   -1.8549    0.5221 H   0  0  0  0  0  0  0  0  0  0  0  0
    2.1030    0.1885    1.7400 H   0  0  0  0  0  0  0  0  0  0  0  0
    3.2514    0.5819    0.4743 H   0  0  0  0  0  0  0  0  0  0  0  0
    1.3611    2.2304    0.5855 H   0  0  0  0  0  0  0  0  0  0  0  0
    1.4198    1.4194   -0.9737 H   0  0  0  0  0  0  0  0  0  0  0  0
   -0.3675    0.6209    1.3539 H   0  0  0  0  0  0  0  0  0  0  0  0
   -1.5992    2.4249    0.2862 H   0  0  0  0  0  0  0  0  0  0  0  0
   -1.0595    1.9116   -1.3055 H   0  0  0  0  0  0  0  0  0  0  0  0
   -3.2666    0.7244    0.3399 H   0  0  0  0  0  0  0  0  0  0  0  0
   -3.0030    0.6112   -1.3853 H   0  0  0  0  0  0  0  0  0  0  0  0
   -2.2549   -1.6039   -0.9288 H   0  0  0  0  0  0  0  0  0  0  0  0
   -2.0796   -1.2429    0.7821 H   0  0  0  0  0  0  0  0  0  0  0  0
   -0.1432   -0.5121   -1.4391 H   0  0  0  0  0  0  0  0  0  0  0  0
    0.4720   -2.6209   -0.2799 H   0  0  0  0  0  0  0  0  0  0  0  0
    0.3601   -1.7986    1.2704 H   0  0  0  0  0  0  0  0  0  0  0  0
  1  2  1  0
  1  9  1  0
  1 10  1  0
  1 11  1  0
  2  3  1  0
  2 12  1  0
  2 13  1  0
  3  4  1  0
  3 14  1  0
  3 15  1  0
  4  5  1  0
  4  8  1  0
  4 16  1  0
  5  6  1  0
  5 17  1  0
  5 18  1  0
  6  7  1  0
  6 19  1  0
  6 20  1  0
  7  8  1  0
  7 21  1  0
  7 22  1  0
  8  9  1  0
  8 23  1  0
  9 24  1  0
  9 25  1  0
M  END
>  <reaction>  (1) 
rxn_599

>  <mol_properties>  (1) 
{"5": {"label": "donator", "atom_type": "Cs"}, "18": {"label": "d_hydrogen", "atom_type": "H0"}}

>  <type>  (1) 
r1h

$$$$

     RDKit          3D

  4  3  0  0  0  0  0  0  0  0999 V2000
    0.0000    0.0000    0.0000 C   0  0  0  0  0  3  0  0  0  0  0  0
    1.0638   -0.1747    0.0540 H   0  0  0  0  0  0  0  0  0  0  0  0
   -0.6833   -0.8351   -0.0280 H   0  0  0  0  0  0  0  0  0  0  0  0
   -0.3805    1.0098   -0.0260 H   0  0  0  0  0  0  0  0  0  0  0  0
  1  2  1  0
  1  3  1  0
  1  4  1  0
M  RAD  1   1   2
M  END
>  <reaction>  (2) 
rxn_599

>  <mol_properties>  (2) 
{"0": {"label": "acceptor", "atom_type": "Cs"}}

>  <type>  (2) 
r2

$$$$

     RDKit          3D

  5  4  0  0  0  0  0  0  0  0999 V2000
    0.0000    0.0000    0.0000 C   0  0  0  0  0  0  0  0  0  0  0  0
   -0.6486   -0.7720   -0.4113 H   0  0  0  0  0  0  0  0  0  0  0  0
   -0.3482    0.9787   -0.3267 H   0  0  0  0  0  0  0  0  0  0  0  0
   -0.0223   -0.0487    1.0876 H   0  0  0  0  0  0  0  0  0  0  0  0
    1.0191   -0.1580   -0.3496 H   0  0  0  0  0  0  0  0  0  0  0  0
  1  2  1  0
  1  3  1  0
  1  4  1  0
  1  5  1  0
M  END
>  <reaction>  (3) 
rxn_599

>  <mol_properties>  (3) 
{"0": {"label": "acceptor", "atom_type": "Cs"}, "4": {"label": "a_hydrogen", "atom_type": "H0"}}

>  <type>  (3) 
r2h

$$$$

     RDKit          3D

 29 29  0  0  0  0  0  0  0  0999 V2000
   -0.1525    3.7414    0.8188 C   0  0  0  0  0  3  0  0  0  0  0  0
    0.4740    4.2448    1.5486 H   0  0  0  0  0  0  0  0  0  0  0  0
   -0.9858    3.1976    1.2540 H   0  0  0  0  0  0  0  0  0  0  0  0
   -0.4258    4.3592   -0.0311 H   0  0  0  0  0  0  0  0  0  0  0  0
   -1.1424   -2.3536   -0.7894 C   0  0  0  0  0  0  0  0  0  0  0  0
   -1.1270   -2.2821    0.7397 C   0  0  0  0  0  0  0  0  0  0  0  0
    0.0991   -1.5382    1.2773 C   0  0  0  0  0  0  0  0  0  0  0  0
    0.1908   -0.1699    0.6271 C   0  0  0  0  0  0  0  0  0  0  0  0
    1.3925    0.7189    0.9282 C   0  0  0  0  0  0  0  0  0  0  0  0
    1.3417    1.7547   -0.1910 C   0  0  0  0  0  0  0  0  0  0  0  0
    0.5242    1.1586   -1.3424 C   0  0  0  0  0  0  0  0  0  0  0  0
    0.2333   -0.2768   -0.8971 C   0  0  0  0  0  0  0  0  0  0  0  0
   -1.0014   -0.9743   -1.4402 C   0  0  0  0  0  0  0  0  0  0  0  0
   -0.3131   -2.9865   -1.1244 H   0  0  0  0  0  0  0  0  0  0  0  0
   -2.0604   -2.8391   -1.1280 H   0  0  0  0  0  0  0  0  0  0  0  0
   -2.0299   -1.7635    1.0808 H   0  0  0  0  0  0  0  0  0  0  0  0
   -1.1710   -3.2904    1.1578 H   0  0  0  0  0  0  0  0  0  0  0  0
    0.0434   -1.4544    2.3658 H   0  0  0  0  0  0  0  0  0  0  0  0
    1.0076   -2.1076    1.0478 H   0  0  0  0  0  0  0  0  0  0  0  0
   -0.7169    0.3938    0.8884 H   0  0  0  0  0  0  0  0  0  0  0  0
    1.3593    1.1718    1.9221 H   0  0  0  0  0  0  0  0  0  0  0  0
    2.3143    0.1281    0.8721 H   0  0  0  0  0  0  0  0  0  0  0  0
    0.6694    2.7400    0.2739 H   0  0  0  0  0  0  0  0  0  0  0  0
    2.2950    2.2038   -0.4628 H   0  0  0  0  0  0  0  0  0  0  0  0
    1.0461    1.2052   -2.2994 H   0  0  0  0  0  0  0  0  0  0  0  0
   -0.4171    1.7066   -1.4677 H   0  0  0  0  0  0  0  0  0  0  0  0
    1.1074   -0.8943   -1.1479 H   0  0  0  0  0  0  0  0  0  0  0  0
   -0.9522   -1.0727   -2.5278 H   0  0  0  0  0  0  0  0  0  0  0  0
   -1.8856   -0.3661   -1.2156 H   0  0  0  0  0  0  0  0  0  0  0  0
  1  2  1  0
  1  3  1  0
  1  4  1  0
  5  6  1  0
  5 13  1  0
  5 14  1  0
  5 15  1  0
  6  7  1  0
  6 16  1  0
  6 17  1  0
  7  8  1  0
  7 18  1  0
  7 19  1  0
  8  9  1  0
  8 12  1  0
  8 20  1  0
  9 10  1  0
  9 21  1  0
  9 22  1  0
 10 11  1  0
 10 23  1  0
 10 24  1  0
 11 12  1  0
 11 25  1  0
 11 26  1  0
 12 13  1  0
 12 27  1  0
 13 28  1  0
 13 29  1  0
M  RAD  1   1   2
M  END
>  <reaction>  (4) 
rxn_599

>  <mol_properties>  (4) 
{"0": {"label": "*3", "atom_type": "Cs"}, "1": {"label": "*4", "atom_type": "H0"}, "8": {"label": "*0", "atom_type": "Cs"}, "9": {"label": "*1", "atom_type": "Cs"}, "22": {"label": "*2", "atom_type": "H0"}}

>  <type>  (4) 
ts

$$$$
