
     RDKit          3D

 16 15  0  0  0  0  0  0  0  0999 V2000
    1.7961   -0.3807    1.6176 C   0  0  0  0  0  0  0  0  0  0  0  0
    0.8562   -0.8708    0.8256 C   0  0  0  0  0  0  0  0  0  0  0  0
    0.0895   -0.0826   -0.2048 C   0  0  0  0  0  0  0  0  0  0  0  0
   -1.4061   -0.1111    0.0982 C   0  0  0  0  0  0  0  0  0  0  0  0
    0.4476   -0.5902   -1.5797 C   0  0  0  0  0  0  0  0  0  0  0  0
   -0.3793   -1.1113   -2.4728 C   0  0  0  0  0  0  0  0  0  0  0  0
    2.3110   -1.0032    2.3386 H   0  0  0  0  0  0  0  0  0  0  0  0
    2.0846    0.6643    1.5737 H   0  0  0  0  0  0  0  0  0  0  0  0
    0.5921   -1.9241    0.8925 H   0  0  0  0  0  0  0  0  0  0  0  0
    0.4358    0.9557   -0.1462 H   0  0  0  0  0  0  0  0  0  0  0  0
   -1.5968    0.3080    1.0865 H   0  0  0  0  0  0  0  0  0  0  0  0
   -1.9674    0.4693   -0.6359 H   0  0  0  0  0  0  0  0  0  0  0  0
   -1.7902   -1.1338    0.0883 H   0  0  0  0  0  0  0  0  0  0  0  0
    1.5049   -0.5197   -1.8214 H   0  0  0  0  0  0  0  0  0  0  0  0
   -1.4421   -1.2131   -2.2889 H   0  0  0  0  0  0  0  0  0  0  0  0
   -0.0162   -1.4558   -3.4328 H   0  0  0  0  0  0  0  0  0  0  0  0
  1  2  2  3
  1  7  1  0
  1  8  1  0
  2  3  1  0
  2  9  1  0
  3  4  1  0
  3  5  1  0
  3 10  1  0
  4 11  1  0
  4 12  1  0
  4 13  1  0
  5  6  2  3
  5 14  1  0
  6 15  1  0
  6 16  1  0
M  END
>  <reaction>  (1) 
rxn_1204

>  <mol_properties>  (1) 
{"2": {"label": "donator", "atom_type": "Cs"}, "9": {"label": "d_hydrogen", "atom_type": "H0"}}

>  <type>  (1) 
r1h

$$$$

     RDKit          3D

  7  6  0  0  0  0  0  0  0  0999 V2000
   -2.0652    0.3855   -0.2963 S   0  0  0  0  0  0  0  0  0  0  0  0
   -0.7169   -0.5853    0.1792 C   0  0  0  0  0  3  0  0  0  0  0  0
    0.5987   -0.2168    0.0254 C   0  0  0  0  0  0  0  0  0  0  0  0
    1.7547    0.1211   -0.1163 C   0  0  0  0  0  0  0  0  0  0  0  0
   -1.3643    1.4227   -0.7731 H   0  0  0  0  0  0  0  0  0  0  0  0
   -0.9781   -1.5363    0.6220 H   0  0  0  0  0  0  0  0  0  0  0  0
    2.7711    0.4089   -0.2366 H   0  0  0  0  0  0  0  0  0  0  0  0
  1  2  1  0
  1  5  1  0
  2  3  1  0
  2  6  1  0
  3  4  3  0
  4  7  1  0
M  RAD  1   2   2
M  END
>  <reaction>  (2) 
rxn_1204

>  <mol_properties>  (2) 
{"1": {"label": "acceptor", "atom_type": "Cs"}}

>  <type>  (2) 
r2

$$$$

     RDKit          3D

  8  7  0  0  0  0  0  0  0  0999 V2000
   -0.7014    1.0753    1.5530 S   0  0  0  0  0  0  0  0  0  0  0  0
   -0.3105   -0.4583    0.6462 C   0  0  0  0  0  0  0  0  0  0  0  0
    0.0935   -0.2424   -0.7319 C   0  0  0  0  0  0  0  0  0  0  0  0
    0.4431   -0.0604   -1.8621 C   0  0  0  0  0  0  0  0  0  0  0  0
    0.4994    1.6466    1.3970 H   0  0  0  0  0  0  0  0  0  0  0  0
   -1.2277   -1.0477    0.6819 H   0  0  0  0  0  0  0  0  0  0  0  0
    0.4563   -1.0151    1.1841 H   0  0  0  0  0  0  0  0  0  0  0  0
    0.7474    0.1020   -2.8681 H   0  0  0  0  0  0  0  0  0  0  0  0
  1  2  1  0
  1  5  1  0
  2  3  1  0
  2  6  1  0
  2  7  1  0
  3  4  3  0
  4  8  1  0
M  END
>  <reaction>  (3) 
rxn_1204

>  <mol_properties>  (3) 
{"1": {"label": "acceptor", "atom_type": "Cs"}, "7": {"label": "a_hydrogen", "atom_type": "H0"}}

>  <type>  (3) 
r2h

$$$$

     RDKit          3D

 23 21  0  0  0  0  0  0  0  0999 V2000
   -1.3014    1.6550   -1.2040 S   0  0  0  0  0  0  0  0  0  0  0  0
    0.1376    1.6748   -0.1665 C   0  0  0  0  0  3  0  0  0  0  0  0
    1.4144    1.7870   -0.7696 C   0  0  0  0  0  0  0  0  0  0  0  0
    2.5081    1.7890   -1.2713 C   0  0  0  0  0  0  0  0  0  0  0  0
   -0.8353    0.7558   -2.0820 H   0  0  0  0  0  0  0  0  0  0  0  0
   -0.0317    2.3071    0.7010 H   0  0  0  0  0  0  0  0  0  0  0  0
    3.4718    1.8256   -1.7193 H   0  0  0  0  0  0  0  0  0  0  0  0
   -0.4330   -2.3654   -0.9328 C   0  0  0  0  0  0  0  0  0  0  0  0
    0.4297   -1.5829   -0.2868 C   0  0  0  0  0  0  0  0  0  0  0  0
    0.1898   -0.8008    0.9412 C   0  0  0  0  0  0  0  0  0  0  0  0
    1.3848   -0.7112    1.8664 C   0  0  0  0  0  0  0  0  0  0  0  0
   -1.1403   -0.9064    1.5626 C   0  0  0  0  0  0  0  0  0  0  0  0
   -1.4003   -0.8754    2.8674 C   0  0  0  0  0  0  0  0  0  0  0  0
   -0.1452   -2.8639   -1.8495 H   0  0  0  0  0  0  0  0  0  0  0  0
   -1.4351   -2.5533   -0.5685 H   0  0  0  0  0  0  0  0  0  0  0  0
    1.4247   -1.4594   -0.7072 H   0  0  0  0  0  0  0  0  0  0  0  0
    0.1538    0.3967    0.4375 H   0  0  0  0  0  0  0  0  0  0  0  0
    2.2917   -0.5081    1.2953 H   0  0  0  0  0  0  0  0  0  0  0  0
    1.2620    0.0907    2.5961 H   0  0  0  0  0  0  0  0  0  0  0  0
    1.5294   -1.6472    2.4130 H   0  0  0  0  0  0  0  0  0  0  0  0
   -1.9762   -0.9631    0.8723 H   0  0  0  0  0  0  0  0  0  0  0  0
   -0.6174   -0.8182    3.6137 H   0  0  0  0  0  0  0  0  0  0  0  0
   -2.4187   -0.9196    3.2312 H   0  0  0  0  0  0  0  0  0  0  0  0
  1  2  1  0
  1  5  1  0
  2  3  1  0
  2  6  1  0
  3  4  3  0
  4  7  1  0
  8  9  2  3
  8 14  1  0
  8 15  1  0
  9 10  1  0
  9 16  1  0
 10 11  1  0
 10 12  1  0
 10 17  1  0
 11 18  1  0
 11 19  1  0
 11 20  1  0
 12 13  2  3
 12 21  1  0
 13 22  1  0
 13 23  1  0
M  RAD  1   2   2
M  END
>  <reaction>  (4) 
rxn_1204

>  <mol_properties>  (4) 
{"0": {"label": "*4", "atom_type": "S2s"}, "1": {"label": "*3", "atom_type": "Cs"}, "8": {"label": "*0", "atom_type": "Cd"}, "9": {"label": "*1", "atom_type": "Cs"}, "16": {"label": "*2", "atom_type": "H0"}}

>  <type>  (4) 
ts

$$$$
