
     RDKit          3D

 10  9  0  0  0  0  0  0  0  0999 V2000
    1.8334    0.0847   -0.1062 C   0  0  0  0  0  0  0  0  0  0  0  0
    0.5993   -0.4071   -0.0750 C   0  0  0  0  0  0  0  0  0  0  0  0
   -0.5993    0.4071    0.0750 C   0  0  0  0  0  0  0  0  0  0  0  0
   -1.8334   -0.0847    0.1062 C   0  0  0  0  0  0  0  0  0  0  0  0
    2.0179    1.1498   -0.0189 H   0  0  0  0  0  0  0  0  0  0  0  0
    2.6972   -0.5572   -0.2194 H   0  0  0  0  0  0  0  0  0  0  0  0
    0.4465   -1.4793   -0.1649 H   0  0  0  0  0  0  0  0  0  0  0  0
   -0.4465    1.4793    0.1649 H   0  0  0  0  0  0  0  0  0  0  0  0
   -2.0179   -1.1498    0.0189 H   0  0  0  0  0  0  0  0  0  0  0  0
   -2.6972    0.5572    0.2194 H   0  0  0  0  0  0  0  0  0  0  0  0
  1  2  2  3
  1  5  1  0
  1  6  1  0
  2  3  1  0
  2  7  1  0
  3  4  2  3
  3  8  1  0
  4  9  1  0
  4 10  1  0
M  END
>  <reaction>  (1) 
rxn_1647

>  <mol_properties>  (1) 
{"2": {"label": "donator", "atom_type": "Cd"}, "7": {"label": "d_hydrogen", "atom_type": "H0"}}

>  <type>  (1) 
r1h

$$$$

     RDKit          3D

  4  3  0  0  0  0  0  0  0  0999 V2000
    0.0000    0.0000    0.0000 C   0  0  0  0  0  3  0  0  0  0  0  0
    1.0638   -0.1747    0.0540 H   0  0  0  0  0  0  0  0  0  0  0  0
   -0.6833   -0.8351   -0.0280 H   0  0  0  0  0  0  0  0  0  0  0  0
   -0.3805    1.0098   -0.0260 H   0  0  0  0  0  0  0  0  0  0  0  0
  1  2  1  0
  1  3  1  0
  1  4  1  0
M  RAD  1   1   2
M  END
>  <reaction>  (2) 
rxn_1647

>  <mol_properties>  (2) 
{"0": {"label": "acceptor", "atom_type": "Cs"}}

>  <type>  (2) 
r2

$$$$

     RDKit          3D

  5  4  0  0  0  0  0  0  0  0999 V2000
    0.0000    0.0000    0.0000 C   0  0  0  0  0  0  0  0  0  0  0  0
   -0.6486   -0.7720   -0.4113 H   0  0  0  0  0  0  0  0  0  0  0  0
   -0.3482    0.9787   -0.3267 H   0  0  0  0  0  0  0  0  0  0  0  0
   -0.0223   -0.0487    1.0876 H   0  0  0  0  0  0  0  0  0  0  0  0
    1.0191   -0.1580   -0.3496 H   0  0  0  0  0  0  0  0  0  0  0  0
  1  2  1  0
  1  3  1  0
  1  4  1  0
  1  5  1  0
M  END
>  <reaction>  (3) 
rxn_1647

>  <mol_properties>  (3) 
{"0": {"label": "acceptor", "atom_type": "Cs"}, "4": {"label": "a_hydrogen", "atom_type": "H0"}}

>  <type>  (3) 
r2h

$$$$

     RDKit          3D

 14 12  0  0  0  0  0  0  0  0999 V2000
    0.0140    2.2820   -0.5613 C   0  0  0  0  0  0  0  0  0  0  0  0
    0.9394    2.3212   -1.1293 H   0  0  0  0  0  0  0  0  0  0  0  0
   -0.0108    2.9853    0.2663 H   0  0  0  0  0  0  0  0  0  0  0  0
   -0.8769    2.3190   -1.1819 H   0  0  0  0  0  0  0  0  0  0  0  0
    0.0475   -1.1901   -1.5713 C   0  0  0  0  0  0  0  0  0  0  0  0
    0.0090   -1.2560   -0.2443 C   0  0  0  0  0  0  0  0  0  0  0  0
   -0.0178   -0.1059    0.6339 C   0  0  0  0  0  3  0  0  0  0  0  0
   -0.0561   -0.0660    1.9529 C   0  0  0  0  0  0  0  0  0  0  0  0
    0.0613   -0.2374   -2.0874 H   0  0  0  0  0  0  0  0  0  0  0  0
    0.0662   -2.0849   -2.1792 H   0  0  0  0  0  0  0  0  0  0  0  0
   -0.0039   -2.2305    0.2433 H   0  0  0  0  0  0  0  0  0  0  0  0
   -0.0011    1.0877    0.0077 H   0  0  0  0  0  0  0  0  0  0  0  0
   -0.0723   -0.9761    2.5489 H   0  0  0  0  0  0  0  0  0  0  0  0
   -0.0729    0.8736    2.4929 H   0  0  0  0  0  0  0  0  0  0  0  0
  1  2  1  0
  1  3  1  0
  1  4  1  0
  1 12  1  0
  5  6  2  3
  5  9  1  0
  5 10  1  0
  6  7  1  0
  6 11  1  0
  7  8  2  3
  8 13  1  0
  8 14  1  0
M  RAD  1   7   2
M  END
>  <reaction>  (4) 
rxn_1647

>  <mol_properties>  (4) 
{"0": {"label": "*1", "atom_type": "Cs"}, "1": {"label": "*0", "atom_type": "H0"}, "5": {"label": "*4", "atom_type": "Cd"}, "6": {"label": "*3", "atom_type": "Cd"}, "11": {"label": "*2", "atom_type": "H0"}}

>  <type>  (4) 
ts

$$$$
