
     RDKit          3D

  8  7  0  0  0  0  0  0  0  0999 V2000
    0.7610    0.0250    0.0051 C   0  0  0  0  0  0  0  0  0  0  0  0
   -0.7610   -0.0250   -0.0051 C   0  0  0  0  0  0  0  0  0  0  0  0
    1.1904   -0.9237   -0.3217 H   0  0  0  0  0  0  0  0  0  0  0  0
    1.1359    0.8041   -0.6609 H   0  0  0  0  0  0  0  0  0  0  0  0
    1.1435    0.2336    1.0058 H   0  0  0  0  0  0  0  0  0  0  0  0
   -1.1435   -0.2336   -1.0058 H   0  0  0  0  0  0  0  0  0  0  0  0
   -1.1904    0.9237    0.3216 H   0  0  0  0  0  0  0  0  0  0  0  0
   -1.1359   -0.8041    0.6609 H   0  0  0  0  0  0  0  0  0  0  0  0
  1  2  1  0
  1  3  1  0
  1  4  1  0
  1  5  1  0
  2  6  1  0
  2  7  1  0
  2  8  1  0
M  END
>  <reaction>  (1) 
rxn_129

>  <mol_properties>  (1) 
{"1": {"label": "donator", "atom_type": "Cs"}, "5": {"label": "d_hydrogen", "atom_type": "H0"}}

>  <type>  (1) 
r1h

$$$$

     RDKit          3D

  2  1  0  0  0  0  0  0  0  0999 V2000
    0.0000    0.0000    0.5193 N   0  0  0  0  0  1  0  0  0  0  0  0
    0.0000    0.0000   -0.5193 H   0  0  0  0  0  0  0  0  0  0  0  0
  1  2  1  0
M  RAD  1   1   3
M  END
>  <reaction>  (2) 
rxn_129

>  <mol_properties>  (2) 
{"0": {"label": "acceptor", "atom_type": "N3s"}}

>  <type>  (2) 
r2

$$$$

     RDKit          3D

  3  2  0  0  0  0  0  0  0  0999 V2000
    0.0002    0.4233    0.0000 N   0  0  0  0  0  2  0  0  0  0  0  0
   -0.8051   -0.2112    0.0000 H   0  0  0  0  0  0  0  0  0  0  0  0
    0.8049   -0.2121    0.0000 H   0  0  0  0  0  0  0  0  0  0  0  0
  1  2  1  0
  1  3  1  0
M  RAD  1   1   2
M  END
>  <reaction>  (3) 
rxn_129

>  <mol_properties>  (3) 
{"0": {"label": "acceptor", "atom_type": "N3s"}, "2": {"label": "a_hydrogen", "atom_type": "H0"}}

>  <type>  (3) 
r2h

$$$$

     RDKit          3D

 10  8  0  0  0  0  0  0  0  0999 V2000
    0.0380    1.8045    0.5694 N   0  0  0  0  0  2  0  0  0  0  0  0
   -0.1279    1.7811    1.5883 H   0  0  0  0  0  0  0  0  0  0  0  0
    0.1182   -0.9183   -1.3683 C   0  0  0  0  0  0  0  0  0  0  0  0
   -0.1054   -0.7510    0.1073 C   0  0  0  0  0  3  0  0  0  0  0  0
   -0.6407   -0.3902   -1.9471 H   0  0  0  0  0  0  0  0  0  0  0  0
    1.0961   -0.5383   -1.6671 H   0  0  0  0  0  0  0  0  0  0  0  0
    0.0741   -1.9750   -1.6531 H   0  0  0  0  0  0  0  0  0  0  0  0
   -0.0248    0.6015    0.3228 H   0  0  0  0  0  0  0  0  0  0  0  0
    0.6748   -1.1530    0.7507 H   0  0  0  0  0  0  0  0  0  0  0  0
   -1.1024   -1.0015    0.4641 H   0  0  0  0  0  0  0  0  0  0  0  0
  1  2  1  0
  1  8  1  0
  3  4  1  0
  3  5  1  0
  3  6  1  0
  3  7  1  0
  4  9  1  0
  4 10  1  0
M  RAD  2   1   2   4   2
M  END
>  <reaction>  (4) 
rxn_129

>  <mol_properties>  (4) 
{"0": {"label": "*1", "atom_type": "N3s"}, "1": {"label": "*0", "atom_type": "H0"}, "2": {"label": "*4", "atom_type": "Cs"}, "3": {"label": "*3", "atom_type": "Cs"}, "7": {"label": "*2", "atom_type": "H0"}}

>  <type>  (4) 
ts

$$$$
