
     RDKit          3D

  5  4  0  0  0  0  0  0  0  0999 V2000
   -1.2625    0.9482    0.0857 O   0  0  0  0  0  0  0  0  0  0  0  0
   -0.5905    0.0369   -0.2890 C   0  0  0  0  0  0  0  0  0  0  0  0
    0.8561   -0.0368   -0.0218 C   0  0  0  0  0  0  0  0  0  0  0  0
    1.9840   -0.1310    0.1657 N   0  0  0  0  0  0  0  0  0  0  0  0
   -0.9871   -0.8172   -0.8597 H   0  0  0  0  0  0  0  0  0  0  0  0
  1  2  2  0
  2  3  1  0
  2  5  1  0
  3  4  3  0
M  END
>  <reaction>  (1) 
rxn_3156

>  <mol_properties>  (1) 
{"1": {"label": "donator", "atom_type": "CO"}, "4": {"label": "d_hydrogen", "atom_type": "H0"}}

>  <type>  (1) 
r1h

$$$$

     RDKit          3D

  6  6  0  0  0  0  0  0  0  0999 V2000
    1.9594    0.0134   -0.3734 N   0  0  0  0  0  2  0  0  0  0  0  0
    0.7437    0.0051   -0.0788 C   0  0  0  0  0  0  0  0  0  0  0  0
   -0.0745    1.0868    0.0233 O   0  0  0  0  0  0  0  0  0  0  0  0
   -1.3223    0.5972    0.3682 N   0  0  0  0  0  0  0  0  0  0  0  0
   -1.2899   -0.6150    0.4676 N   0  0  0  0  0  0  0  0  0  0  0  0
   -0.0165   -1.0874    0.2015 O   0  0  0  0  0  0  0  0  0  0  0  0
  1  2  2  0
  2  3  1  0
  2  6  1  0
  3  4  1  0
  4  5  2  0
  5  6  1  0
M  RAD  1   1   2
M  END
>  <reaction>  (2) 
rxn_3156

>  <mol_properties>  (2) 
{"0": {"label": "acceptor", "atom_type": "N3d"}}

>  <type>  (2) 
r2

$$$$

     RDKit          3D

  7  7  0  0  0  0  0  0  0  0999 V2000
    1.6064   -0.4313    0.1905 N   0  0  0  0  0  0  0  0  0  0  0  0
    0.3982   -0.1725    0.0701 C   0  0  0  0  0  0  0  0  0  0  0  0
   -0.6051   -1.0481    0.3497 O   0  0  0  0  0  0  0  0  0  0  0  0
   -1.7906   -0.4044    0.0958 N   0  0  0  0  0  0  0  0  0  0  0  0
   -1.5819    0.7348   -0.2956 N   0  0  0  0  0  0  0  0  0  0  0  0
   -0.2229    0.9708   -0.3436 O   0  0  0  0  0  0  0  0  0  0  0  0
    2.1958    0.3506   -0.0669 H   0  0  0  0  0  0  0  0  0  0  0  0
  1  2  2  3
  1  7  1  0
  2  3  1  0
  2  6  1  0
  3  4  1  0
  4  5  2  0
  5  6  1  0
M  END
>  <reaction>  (3) 
rxn_3156

>  <mol_properties>  (3) 
{"0": {"label": "acceptor", "atom_type": "N3d"}, "6": {"label": "a_hydrogen", "atom_type": "H0"}}

>  <type>  (3) 
r2h

$$$$

     RDKit          3D

 11 10  0  0  0  0  0  0  0  0999 V2000
   -1.2033   -0.2324    0.9091 N   0  0  0  0  0  2  0  0  0  0  0  0
   -0.3842   -1.0454    0.4269 C   0  0  0  0  0  0  0  0  0  0  0  0
   -0.3110   -2.3649    0.7458 O   0  0  0  0  0  0  0  0  0  0  0  0
    0.7203   -2.8989    0.0006 N   0  0  0  0  0  0  0  0  0  0  0  0
    1.2319   -2.0402   -0.6962 N   0  0  0  0  0  0  0  0  0  0  0  0
    0.5951   -0.8273   -0.4949 O   0  0  0  0  0  0  0  0  0  0  0  0
   -1.2931    2.5041   -1.1354 O   0  0  0  0  0  0  0  0  0  0  0  0
   -0.6362    2.0455   -0.2664 C   0  0  0  0  0  0  0  0  0  0  0  0
    0.6238    2.5988    0.2268 C   0  0  0  0  0  0  0  0  0  0  0  0
    1.6199    2.9406    0.6836 N   0  0  0  0  0  0  0  0  0  0  0  0
   -0.9632    1.0007    0.3351 H   0  0  0  0  0  0  0  0  0  0  0  0
  1  2  2  0
  2  3  1  0
  2  6  1  0
  3  4  1  0
  4  5  2  0
  5  6  1  0
  7  8  2  0
  8  9  1  0
  8 11  1  0
  9 10  3  0
M  RAD  1   1   2
M  END
>  <reaction>  (4) 
rxn_3156

>  <mol_properties>  (4) 
{"0": {"label": "*3", "atom_type": "N3d"}, "1": {"label": "*4", "atom_type": "Cd"}, "7": {"label": "*1", "atom_type": "CO"}, "8": {"label": "*0", "atom_type": "Ct"}, "10": {"label": "*2", "atom_type": "H0"}}

>  <type>  (4) 
ts

$$$$
