
     RDKit          3D

  4  3  0  0  0  0  0  0  0  0999 V2000
    0.5949   -0.3853    0.2659 O   0  0  0  0  0  0  0  0  0  0  0  0
   -0.5918    0.4028    0.2462 O   0  0  0  0  0  0  0  0  0  0  0  0
    1.1865    0.1539   -0.2689 H   0  0  0  0  0  0  0  0  0  0  0  0
   -1.1896   -0.1714   -0.2432 H   0  0  0  0  0  0  0  0  0  0  0  0
  1  2  1  0
  1  3  1  0
  2  4  1  0
M  END
>  <reaction>  (1) 
rxn_3

>  <mol_properties>  (1) 
{"1": {"label": "donator", "atom_type": "O2s"}, "3": {"label": "d_hydrogen", "atom_type": "H0"}}

>  <type>  (1) 
r1h

$$$$

     RDKit          3D

 14 13  0  0  0  0  0  0  0  0999 V2000
   -2.0549    0.2623    0.0650 C   0  0  0  0  0  0  0  0  0  0  0  0
   -0.7130   -0.4576    0.0784 C   0  0  0  0  0  0  0  0  0  0  0  0
   -0.2828   -0.9493    1.4745 C   0  0  0  0  0  0  0  0  0  0  0  0
   -1.1621   -1.9735    2.0965 C   0  0  0  0  0  3  0  0  0  0  0  0
   -2.3417   -1.6116    2.6806 O   0  0  0  0  0  0  0  0  0  0  0  0
   -2.0434    1.1229    0.7405 H   0  0  0  0  0  0  0  0  0  0  0  0
   -2.8644   -0.3995    0.3763 H   0  0  0  0  0  0  0  0  0  0  0  0
   -2.2917    0.6330   -0.9335 H   0  0  0  0  0  0  0  0  0  0  0  0
   -0.7490   -1.3143   -0.6001 H   0  0  0  0  0  0  0  0  0  0  0  0
    0.0643    0.2104   -0.3044 H   0  0  0  0  0  0  0  0  0  0  0  0
   -0.2040   -0.0811    2.1439 H   0  0  0  0  0  0  0  0  0  0  0  0
    0.7250   -1.3665    1.4012 H   0  0  0  0  0  0  0  0  0  0  0  0
   -1.1898   -2.9907    1.7275 H   0  0  0  0  0  0  0  0  0  0  0  0
   -2.3046   -0.6828    2.9200 H   0  0  0  0  0  0  0  0  0  0  0  0
  1  2  1  0
  1  6  1  0
  1  7  1  0
  1  8  1  0
  2  3  1  0
  2  9  1  0
  2 10  1  0
  3  4  1  0
  3 11  1  0
  3 12  1  0
  4  5  1  0
  4 13  1  0
  5 14  1  0
M  RAD  1   4   2
M  END
>  <reaction>  (2) 
rxn_3

>  <mol_properties>  (2) 
{"3": {"label": "acceptor", "atom_type": "Cs"}}

>  <type>  (2) 
r2

$$$$

     RDKit          3D

 15 14  0  0  0  0  0  0  0  0999 V2000
   -2.2618    0.1177   -0.2204 C   0  0  0  0  0  0  0  0  0  0  0  0
   -0.8307    0.6124   -0.3805 C   0  0  0  0  0  0  0  0  0  0  0  0
   -0.4944    1.7618    0.5615 C   0  0  0  0  0  0  0  0  0  0  0  0
    0.9172    2.3011    0.3897 C   0  0  0  0  0  0  0  0  0  0  0  0
    1.1609    2.8330   -0.8989 O   0  0  0  0  0  0  0  0  0  0  0  0
   -2.9781    0.9158   -0.4300 H   0  0  0  0  0  0  0  0  0  0  0  0
   -2.4760   -0.7079   -0.9008 H   0  0  0  0  0  0  0  0  0  0  0  0
   -2.4470   -0.2324    0.7981 H   0  0  0  0  0  0  0  0  0  0  0  0
   -0.6600    0.9333   -1.4104 H   0  0  0  0  0  0  0  0  0  0  0  0
   -0.1335   -0.2114   -0.1978 H   0  0  0  0  0  0  0  0  0  0  0  0
   -0.6152    1.4377    1.6009 H   0  0  0  0  0  0  0  0  0  0  0  0
   -1.2104    2.5804    0.4144 H   0  0  0  0  0  0  0  0  0  0  0  0
    1.6427    1.4942    0.5142 H   0  0  0  0  0  0  0  0  0  0  0  0
    1.1261    3.0513    1.1627 H   0  0  0  0  0  0  0  0  0  0  0  0
    0.5617    3.5677   -1.0406 H   0  0  0  0  0  0  0  0  0  0  0  0
  1  2  1  0
  1  6  1  0
  1  7  1  0
  1  8  1  0
  2  3  1  0
  2  9  1  0
  2 10  1  0
  3  4  1  0
  3 11  1  0
  3 12  1  0
  4  5  1  0
  4 13  1  0
  4 14  1  0
  5 15  1  0
M  END
>  <reaction>  (3) 
rxn_3

>  <mol_properties>  (3) 
{"0": {"label": "a_hydrogen", "atom_type": "H0"}, "4": {"label": "acceptor", "atom_type": "Cs"}}

>  <type>  (3) 
r2h

$$$$

     RDKit          3D

 18 16  0  0  0  0  0  0  0  0999 V2000
    1.1848   -2.0355   -0.1490 O   0  0  0  0  0  0  0  0  0  0  0  0
   -0.1846   -2.0886    0.0775 O   0  0  0  0  0  0  0  0  0  0  0  0
    1.5509   -2.4959    0.6153 H   0  0  0  0  0  0  0  0  0  0  0  0
   -0.4073   -1.0370    0.6728 H   0  0  0  0  0  0  0  0  0  0  0  0
   -0.7380    2.0501   -2.1606 C   0  0  0  0  0  0  0  0  0  0  0  0
   -0.0947    1.1281   -1.1335 C   0  0  0  0  0  0  0  0  0  0  0  0
   -0.8644    1.1075    0.1841 C   0  0  0  0  0  0  0  0  0  0  0  0
   -0.3209    0.1521    1.2201 C   0  0  0  0  0  3  0  0  0  0  0  0
    1.0024    0.2842    1.5663 O   0  0  0  0  0  0  0  0  0  0  0  0
   -0.1699    2.0613   -3.0915 H   0  0  0  0  0  0  0  0  0  0  0  0
   -1.7540    1.7243   -2.3934 H   0  0  0  0  0  0  0  0  0  0  0  0
   -0.7942    3.0760   -1.7894 H   0  0  0  0  0  0  0  0  0  0  0  0
   -0.0341    0.1120   -1.5299 H   0  0  0  0  0  0  0  0  0  0  0  0
    0.9336    1.4622   -0.9593 H   0  0  0  0  0  0  0  0  0  0  0  0
   -1.9053    0.8309   -0.0060 H   0  0  0  0  0  0  0  0  0  0  0  0
   -0.8807    2.1160    0.6171 H   0  0  0  0  0  0  0  0  0  0  0  0
   -0.9146    0.0856    2.1310 H   0  0  0  0  0  0  0  0  0  0  0  0
    1.5344    0.2683    0.7641 H   0  0  0  0  0  0  0  0  0  0  0  0
  1  2  1  0
  1  3  1  0
  2  4  1  0
  5  6  1  0
  5 10  1  0
  5 11  1  0
  5 12  1  0
  6  7  1  0
  6 13  1  0
  6 14  1  0
  7  8  1  0
  7 15  1  0
  7 16  1  0
  8  9  1  0
  8 17  1  0
  9 18  1  0
M  RAD  1   8   2
M  END
>  <reaction>  (4) 
rxn_3

>  <mol_properties>  (4) 
{"0": {"label": "*0", "atom_type": "O2s"}, "1": {"label": "*1", "atom_type": "O2s"}, "3": {"label": "*2", "atom_type": "H0"}, "6": {"label": "*4", "atom_type": "Cs"}, "7": {"label": "*3", "atom_type": "Cs"}}

>  <type>  (4) 
ts

$$$$
