
     RDKit          3D

 16 15  0  0  0  0  0  0  0  0999 V2000
    1.7961   -0.3807    1.6176 C   0  0  0  0  0  0  0  0  0  0  0  0
    0.8562   -0.8708    0.8256 C   0  0  0  0  0  0  0  0  0  0  0  0
    0.0895   -0.0826   -0.2048 C   0  0  0  0  0  0  0  0  0  0  0  0
   -1.4061   -0.1111    0.0982 C   0  0  0  0  0  0  0  0  0  0  0  0
    0.4476   -0.5902   -1.5797 C   0  0  0  0  0  0  0  0  0  0  0  0
   -0.3793   -1.1113   -2.4728 C   0  0  0  0  0  0  0  0  0  0  0  0
    2.3110   -1.0032    2.3386 H   0  0  0  0  0  0  0  0  0  0  0  0
    2.0846    0.6643    1.5737 H   0  0  0  0  0  0  0  0  0  0  0  0
    0.5921   -1.9241    0.8925 H   0  0  0  0  0  0  0  0  0  0  0  0
    0.4358    0.9557   -0.1462 H   0  0  0  0  0  0  0  0  0  0  0  0
   -1.5968    0.3080    1.0865 H   0  0  0  0  0  0  0  0  0  0  0  0
   -1.9674    0.4693   -0.6359 H   0  0  0  0  0  0  0  0  0  0  0  0
   -1.7902   -1.1338    0.0883 H   0  0  0  0  0  0  0  0  0  0  0  0
    1.5049   -0.5197   -1.8214 H   0  0  0  0  0  0  0  0  0  0  0  0
   -1.4421   -1.2131   -2.2889 H   0  0  0  0  0  0  0  0  0  0  0  0
   -0.0162   -1.4558   -3.4328 H   0  0  0  0  0  0  0  0  0  0  0  0
  1  2  2  3
  1  7  1  0
  1  8  1  0
  2  3  1  0
  2  9  1  0
  3  4  1  0
  3  5  1  0
  3 10  1  0
  4 11  1  0
  4 12  1  0
  4 13  1  0
  5  6  2  3
  5 14  1  0
  6 15  1  0
  6 16  1  0
M  END
>  <reaction>  (1) 
rxn_1180

>  <mol_properties>  (1) 
{"2": {"label": "donator", "atom_type": "Cs"}, "9": {"label": "d_hydrogen", "atom_type": "H0"}}

>  <type>  (1) 
r1h

$$$$

     RDKit          3D

 12 11  0  0  0  0  0  0  0  0999 V2000
    2.5164   -0.5559   -0.0242 C   0  0  0  0  0  0  0  0  0  0  0  0
    1.3287   -0.2938   -0.0132 C   0  0  0  0  0  0  0  0  0  0  0  0
   -0.0146    0.0027   -0.0006 C   0  0  0  0  0  3  0  0  0  0  0  0
   -1.0396   -1.0729   -0.1642 C   0  0  0  0  0  0  0  0  0  0  0  0
   -0.4887    1.4091    0.1769 C   0  0  0  0  0  0  0  0  0  0  0  0
    3.5543   -0.7850   -0.0339 H   0  0  0  0  0  0  0  0  0  0  0  0
   -1.7064   -1.1056    0.7044 H   0  0  0  0  0  0  0  0  0  0  0  0
   -0.5831   -2.0533   -0.2854 H   0  0  0  0  0  0  0  0  0  0  0  0
   -1.6716   -0.8741   -1.0367 H   0  0  0  0  0  0  0  0  0  0  0  0
   -1.0951    1.7228   -0.6798 H   0  0  0  0  0  0  0  0  0  0  0  0
    0.3401    2.1059    0.2861 H   0  0  0  0  0  0  0  0  0  0  0  0
   -1.1300    1.4913    1.0613 H   0  0  0  0  0  0  0  0  0  0  0  0
  1  2  3  0
  1  6  1  0
  2  3  1  0
  3  4  1  0
  3  5  1  0
  4  7  1  0
  4  8  1  0
  4  9  1  0
  5 10  1  0
  5 11  1  0
  5 12  1  0
M  RAD  1   3   2
M  END
>  <reaction>  (2) 
rxn_1180

>  <mol_properties>  (2) 
{"2": {"label": "acceptor", "atom_type": "Cs"}}

>  <type>  (2) 
r2

$$$$

     RDKit          3D

 13 12  0  0  0  0  0  0  0  0999 V2000
    2.2975   -0.6134    0.7685 C   0  0  0  0  0  0  0  0  0  0  0  0
    1.1676   -0.5248    0.3802 C   0  0  0  0  0  0  0  0  0  0  0  0
   -0.2109   -0.3926   -0.0948 C   0  0  0  0  0  0  0  0  0  0  0  0
   -0.2501    0.2584   -1.4808 C   0  0  0  0  0  0  0  0  0  0  0  0
   -1.0633    0.3831    0.9141 C   0  0  0  0  0  0  0  0  0  0  0  0
    3.2999   -0.6974    1.1133 H   0  0  0  0  0  0  0  0  0  0  0  0
   -0.6209   -1.4038   -0.1814 H   0  0  0  0  0  0  0  0  0  0  0  0
    0.3402   -0.3102   -2.1992 H   0  0  0  0  0  0  0  0  0  0  0  0
    0.1511    1.2724   -1.4369 H   0  0  0  0  0  0  0  0  0  0  0  0
   -1.2791    0.3109   -1.8407 H   0  0  0  0  0  0  0  0  0  0  0  0
   -0.6861    1.4008    1.0287 H   0  0  0  0  0  0  0  0  0  0  0  0
   -1.0492   -0.0971    1.8924 H   0  0  0  0  0  0  0  0  0  0  0  0
   -2.0971    0.4363    0.5680 H   0  0  0  0  0  0  0  0  0  0  0  0
  1  2  3  0
  1  6  1  0
  2  3  1  0
  3  4  1  0
  3  5  1  0
  3  7  1  0
  4  8  1  0
  4  9  1  0
  4 10  1  0
  5 11  1  0
  5 12  1  0
  5 13  1  0
M  END
>  <reaction>  (3) 
rxn_1180

>  <mol_properties>  (3) 
{"2": {"label": "acceptor", "atom_type": "Cs"}, "12": {"label": "a_hydrogen", "atom_type": "H0"}}

>  <type>  (3) 
r2h

$$$$

     RDKit          3D

 28 26  0  0  0  0  0  0  0  0999 V2000
    2.2316    1.7944   -1.3692 C   0  0  0  0  0  0  0  0  0  0  0  0
    1.0805    1.6371   -1.0494 C   0  0  0  0  0  0  0  0  0  0  0  0
   -0.2607    1.4000   -0.6497 C   0  0  0  0  0  3  0  0  0  0  0  0
   -1.2534    1.1519   -1.7605 C   0  0  0  0  0  0  0  0  0  0  0  0
   -0.7670    2.2106    0.5196 C   0  0  0  0  0  0  0  0  0  0  0  0
    3.2434    1.9429   -1.6596 H   0  0  0  0  0  0  0  0  0  0  0  0
   -2.1787    0.7400   -1.3509 H   0  0  0  0  0  0  0  0  0  0  0  0
   -0.8527    0.4528   -2.4947 H   0  0  0  0  0  0  0  0  0  0  0  0
   -1.5014    2.0836   -2.2780 H   0  0  0  0  0  0  0  0  0  0  0  0
   -1.0284    3.2255    0.2026 H   0  0  0  0  0  0  0  0  0  0  0  0
   -0.0136    2.2867    1.3033 H   0  0  0  0  0  0  0  0  0  0  0  0
   -1.6612    1.7463    0.9402 H   0  0  0  0  0  0  0  0  0  0  0  0
    1.3978   -2.3022   -1.1337 C   0  0  0  0  0  0  0  0  0  0  0  0
    0.1925   -1.9190   -0.7196 C   0  0  0  0  0  0  0  0  0  0  0  0
   -0.1108   -1.0732    0.4506 C   0  0  0  0  0  0  0  0  0  0  0  0
    1.0105   -0.8400    1.4359 C   0  0  0  0  0  0  0  0  0  0  0  0
   -1.4615   -1.2886    1.0031 C   0  0  0  0  0  0  0  0  0  0  0  0
   -1.8462   -1.1327    2.2684 C   0  0  0  0  0  0  0  0  0  0  0  0
    1.5112   -2.8990   -2.0293 H   0  0  0  0  0  0  0  0  0  0  0  0
    2.3038   -2.0434   -0.6008 H   0  0  0  0  0  0  0  0  0  0  0  0
   -0.6716   -2.2185   -1.3080 H   0  0  0  0  0  0  0  0  0  0  0  0
   -0.1984    0.0943   -0.0965 H   0  0  0  0  0  0  0  0  0  0  0  0
    1.8994   -0.4684    0.9258 H   0  0  0  0  0  0  0  0  0  0  0  0
    0.7278   -0.0930    2.1779 H   0  0  0  0  0  0  0  0  0  0  0  0
    1.2710   -1.7629    1.9605 H   0  0  0  0  0  0  0  0  0  0  0  0
   -2.2116   -1.5881    0.2746 H   0  0  0  0  0  0  0  0  0  0  0  0
   -1.1573   -0.8500    3.0545 H   0  0  0  0  0  0  0  0  0  0  0  0
   -2.8754   -1.2996    2.5584 H   0  0  0  0  0  0  0  0  0  0  0  0
  1  2  3  0
  1  6  1  0
  2  3  1  0
  3  4  1  0
  3  5  1  0
  4  7  1  0
  4  8  1  0
  4  9  1  0
  5 10  1  0
  5 11  1  0
  5 12  1  0
 13 14  2  3
 13 19  1  0
 13 20  1  0
 14 15  1  0
 14 21  1  0
 15 16  1  0
 15 17  1  0
 15 22  1  0
 16 23  1  0
 16 24  1  0
 16 25  1  0
 17 18  2  3
 17 26  1  0
 18 27  1  0
 18 28  1  0
M  RAD  1   3   2
M  END
>  <reaction>  (4) 
rxn_1180

>  <mol_properties>  (4) 
{"1": {"label": "*4", "atom_type": "Ct"}, "2": {"label": "*3", "atom_type": "Cs"}, "13": {"label": "*0", "atom_type": "Cd"}, "14": {"label": "*1", "atom_type": "Cs"}, "21": {"label": "*2", "atom_type": "H0"}}

>  <type>  (4) 
ts

$$$$
