
     RDKit          3D

  8  7  0  0  0  0  0  0  0  0999 V2000
    0.7610    0.0250    0.0051 C   0  0  0  0  0  0  0  0  0  0  0  0
   -0.7610   -0.0250   -0.0051 C   0  0  0  0  0  0  0  0  0  0  0  0
    1.1904   -0.9237   -0.3217 H   0  0  0  0  0  0  0  0  0  0  0  0
    1.1359    0.8041   -0.6609 H   0  0  0  0  0  0  0  0  0  0  0  0
    1.1435    0.2336    1.0058 H   0  0  0  0  0  0  0  0  0  0  0  0
   -1.1435   -0.2336   -1.0058 H   0  0  0  0  0  0  0  0  0  0  0  0
   -1.1904    0.9237    0.3216 H   0  0  0  0  0  0  0  0  0  0  0  0
   -1.1359   -0.8041    0.6609 H   0  0  0  0  0  0  0  0  0  0  0  0
  1  2  1  0
  1  3  1  0
  1  4  1  0
  1  5  1  0
  2  6  1  0
  2  7  1  0
  2  8  1  0
M  END
>  <reaction>  (1) 
rxn_324

>  <mol_properties>  (1) 
{"1": {"label": "donator", "atom_type": "Cs"}, "5": {"label": "d_hydrogen", "atom_type": "H0"}}

>  <type>  (1) 
r1h

$$$$

     RDKit          3D

 11 11  0  0  0  0  0  0  0  0999 V2000
    0.1524   -1.5397    0.0698 C   0  0  0  0  0  3  0  0  0  0  0  0
   -1.1218   -1.0406    0.0516 C   0  0  0  0  0  0  0  0  0  0  0  0
   -1.2464    0.3470   -0.0114 C   0  0  0  0  0  0  0  0  0  0  0  0
   -0.1137    1.1487   -0.0521 C   0  0  0  0  0  0  0  0  0  0  0  0
    1.1542    0.5837   -0.0308 C   0  0  0  0  0  0  0  0  0  0  0  0
    1.3041   -0.8014    0.0319 C   0  0  0  0  0  0  0  0  0  0  0  0
   -1.9955   -1.6793    0.0840 H   0  0  0  0  0  0  0  0  0  0  0  0
   -2.2319    0.7966   -0.0284 H   0  0  0  0  0  0  0  0  0  0  0  0
   -0.2203    2.2248   -0.1009 H   0  0  0  0  0  0  0  0  0  0  0  0
    2.0325    1.2173   -0.0630 H   0  0  0  0  0  0  0  0  0  0  0  0
    2.2862   -1.2570    0.0492 H   0  0  0  0  0  0  0  0  0  0  0  0
  1  2  2  0
  1  6  1  0
  2  3  1  0
  2  7  1  0
  3  4  2  0
  3  8  1  0
  4  5  1  0
  4  9  1  0
  5  6  2  0
  5 10  1  0
  6 11  1  0
M  RAD  1   1   2
M  END
>  <reaction>  (2) 
rxn_324

>  <mol_properties>  (2) 
{"0": {"label": "acceptor", "atom_type": "Cd"}}

>  <type>  (2) 
r2

$$$$

     RDKit          3D

 12 12  0  0  0  0  0  0  0  0999 V2000
   -1.2385    0.6248   -0.0199 C   0  0  0  0  0  0  0  0  0  0  0  0
   -0.0779    1.3848   -0.0298 C   0  0  0  0  0  0  0  0  0  0  0  0
    1.1605    0.7600   -0.0100 C   0  0  0  0  0  0  0  0  0  0  0  0
    1.2385   -0.6248    0.0199 C   0  0  0  0  0  0  0  0  0  0  0  0
    0.0779   -1.3848    0.0298 C   0  0  0  0  0  0  0  0  0  0  0  0
   -1.1606   -0.7600    0.0100 C   0  0  0  0  0  0  0  0  0  0  0  0
   -2.2052    1.1125   -0.0354 H   0  0  0  0  0  0  0  0  0  0  0  0
   -0.1387    2.4657   -0.0531 H   0  0  0  0  0  0  0  0  0  0  0  0
    2.0664    1.3532   -0.0177 H   0  0  0  0  0  0  0  0  0  0  0  0
    2.2052   -1.1125    0.0354 H   0  0  0  0  0  0  0  0  0  0  0  0
    0.1387   -2.4657    0.0531 H   0  0  0  0  0  0  0  0  0  0  0  0
   -2.0664   -1.3532    0.0177 H   0  0  0  0  0  0  0  0  0  0  0  0
  1  2  2  0
  1  6  1  0
  1  7  1  0
  2  3  1  0
  2  8  1  0
  3  4  2  0
  3  9  1  0
  4  5  1  0
  4 10  1  0
  5  6  2  0
  5 11  1  0
  6 12  1  0
M  END
>  <reaction>  (3) 
rxn_324

>  <mol_properties>  (3) 
{"0": {"label": "acceptor", "atom_type": "Cd"}, "11": {"label": "a_hydrogen", "atom_type": "H0"}}

>  <type>  (3) 
r2h

$$$$

     RDKit          3D

 19 18  0  0  0  0  0  0  0  0999 V2000
   -0.0008   -0.2902    0.1571 C   0  0  0  0  0  3  0  0  0  0  0  0
    0.0270    0.7338   -0.7643 C   0  0  0  0  0  0  0  0  0  0  0  0
    0.0501    2.0451   -0.3008 C   0  0  0  0  0  0  0  0  0  0  0  0
    0.0450    2.2989    1.0637 C   0  0  0  0  0  0  0  0  0  0  0  0
    0.0169    1.2492    1.9717 C   0  0  0  0  0  0  0  0  0  0  0  0
   -0.0064   -0.0647    1.5164 C   0  0  0  0  0  0  0  0  0  0  0  0
    0.0307    0.5265   -1.8282 H   0  0  0  0  0  0  0  0  0  0  0  0
    0.0721    2.8679   -1.0053 H   0  0  0  0  0  0  0  0  0  0  0  0
    0.0631    3.3206    1.4217 H   0  0  0  0  0  0  0  0  0  0  0  0
    0.0130    1.4532    3.0357 H   0  0  0  0  0  0  0  0  0  0  0  0
   -0.0284   -0.8897    2.2189 H   0  0  0  0  0  0  0  0  0  0  0  0
   -0.0284   -2.5948   -2.3381 C   0  0  0  0  0  0  0  0  0  0  0  0
   -0.0437   -2.7754   -0.8407 C   0  0  0  0  0  0  0  0  0  0  0  0
   -0.8977   -2.0272   -2.6760 H   0  0  0  0  0  0  0  0  0  0  0  0
    0.8682   -2.0631   -2.6624 H   0  0  0  0  0  0  0  0  0  0  0  0
   -0.0440   -3.5575   -2.8570 H   0  0  0  0  0  0  0  0  0  0  0  0
   -0.0241   -1.6163   -0.3190 H   0  0  0  0  0  0  0  0  0  0  0  0
    0.8414   -3.2676   -0.4397 H   0  0  0  0  0  0  0  0  0  0  0  0
   -0.9541   -3.2311   -0.4535 H   0  0  0  0  0  0  0  0  0  0  0  0
  1  2  2  0
  1  6  1  0
  2  3  1  0
  2  7  1  0
  3  4  2  0
  3  8  1  0
  4  5  1  0
  4  9  1  0
  5  6  2  0
  5 10  1  0
  6 11  1  0
 12 13  1  0
 12 14  1  0
 12 15  1  0
 12 16  1  0
 13 17  1  0
 13 18  1  0
 13 19  1  0
M  RAD  1   1   2
M  END
>  <reaction>  (4) 
rxn_324

>  <mol_properties>  (4) 
{"0": {"label": "*3", "atom_type": "Cd"}, "1": {"label": "*4", "atom_type": "Cd"}, "11": {"label": "*0", "atom_type": "Cs"}, "12": {"label": "*1", "atom_type": "Cs"}, "16": {"label": "*2", "atom_type": "H0"}}

>  <type>  (4) 
ts

$$$$
