
     RDKit          3D

  6  5  0  0  0  0  0  0  0  0999 V2000
    1.5050   -0.1493    0.2580 C   0  0  0  0  0  0  0  0  0  0  0  0
    0.3282   -0.0584    0.0516 C   0  0  0  0  0  0  0  0  0  0  0  0
   -1.0939    0.1069   -0.1804 C   0  0  0  0  0  0  0  0  0  0  0  0
   -1.8068   -0.7644   -0.5961 O   0  0  0  0  0  0  0  0  0  0  0  0
    2.5502   -0.2472    0.4359 H   0  0  0  0  0  0  0  0  0  0  0  0
   -1.4827    1.1125    0.0574 H   0  0  0  0  0  0  0  0  0  0  0  0
  1  2  3  0
  1  5  1  0
  2  3  1  0
  3  4  2  0
  3  6  1  0
M  END
>  <reaction>  (1) 
rxn_3223

>  <mol_properties>  (1) 
{"2": {"label": "donator", "atom_type": "CO"}, "5": {"label": "d_hydrogen", "atom_type": "H0"}}

>  <type>  (1) 
r1h

$$$$

     RDKit          3D

  7  6  0  0  0  0  0  0  0  0999 V2000
   -1.3059    0.5497   -0.1304 N   0  0  0  0  0  2  0  0  0  0  0  0
   -0.2700   -0.4288    0.0448 C   0  0  0  0  0  0  0  0  0  0  0  0
    1.1109    0.0669    0.0401 C   0  0  0  0  0  0  0  0  0  0  0  0
    2.1758    0.4925    0.0308 N   0  0  0  0  0  0  0  0  0  0  0  0
   -0.8815    1.4733   -0.2339 H   0  0  0  0  0  0  0  0  0  0  0  0
   -0.3767   -1.1909   -0.7373 H   0  0  0  0  0  0  0  0  0  0  0  0
   -0.4527   -0.9628    0.9858 H   0  0  0  0  0  0  0  0  0  0  0  0
  1  2  1  0
  1  5  1  0
  2  3  1  0
  2  6  1  0
  2  7  1  0
  3  4  3  0
M  RAD  1   1   2
M  END
>  <reaction>  (2) 
rxn_3223

>  <mol_properties>  (2) 
{"0": {"label": "acceptor", "atom_type": "N3s"}}

>  <type>  (2) 
r2

$$$$

     RDKit          3D

  8  7  0  0  0  0  0  0  0  0999 V2000
   -1.0805    0.5317    0.0204 N   0  0  0  0  0  0  0  0  0  0  0  0
   -0.1080   -0.5393    0.0956 C   0  0  0  0  0  0  0  0  0  0  0  0
    1.2945   -0.1247   -0.1005 C   0  0  0  0  0  0  0  0  0  0  0  0
    2.3714    0.2386   -0.2580 N   0  0  0  0  0  0  0  0  0  0  0  0
   -1.0516    0.9857   -0.8822 H   0  0  0  0  0  0  0  0  0  0  0  0
   -0.9009    1.2352    0.7235 H   0  0  0  0  0  0  0  0  0  0  0  0
   -0.3427   -1.2965   -0.6542 H   0  0  0  0  0  0  0  0  0  0  0  0
   -0.1810   -1.0288    1.0680 H   0  0  0  0  0  0  0  0  0  0  0  0
  1  2  1  0
  1  5  1  0
  1  6  1  0
  2  3  1  0
  2  7  1  0
  2  8  1  0
  3  4  3  0
M  END
>  <reaction>  (3) 
rxn_3223

>  <mol_properties>  (3) 
{"0": {"label": "acceptor", "atom_type": "N3s"}, "7": {"label": "a_hydrogen", "atom_type": "H0"}}

>  <type>  (3) 
r2h

$$$$

     RDKit          3D

 13 11  0  0  0  0  0  0  0  0999 V2000
    1.0147    1.0629    0.8681 N   0  0  0  0  0  2  0  0  0  0  0  0
   -0.1447    1.1522    1.7349 C   0  0  0  0  0  0  0  0  0  0  0  0
   -1.3882    1.5668    1.0727 C   0  0  0  0  0  0  0  0  0  0  0  0
   -2.3299    1.9020    0.5097 N   0  0  0  0  0  0  0  0  0  0  0  0
    0.9195    1.7496    0.1189 H   0  0  0  0  0  0  0  0  0  0  0  0
    0.0714    1.8677    2.5367 H   0  0  0  0  0  0  0  0  0  0  0  0
   -0.3101    0.1854    2.2169 H   0  0  0  0  0  0  0  0  0  0  0  0
    1.0368   -1.3957   -2.8563 C   0  0  0  0  0  0  0  0  0  0  0  0
    0.6838   -1.3519   -1.7112 C   0  0  0  0  0  0  0  0  0  0  0  0
    0.3397   -1.1625   -0.3315 C   0  0  0  0  0  0  0  0  0  0  0  0
   -0.3268   -1.8739    0.3538 O   0  0  0  0  0  0  0  0  0  0  0  0
    1.3343   -1.4602   -3.8770 H   0  0  0  0  0  0  0  0  0  0  0  0
    0.8124   -0.1170    0.1669 H   0  0  0  0  0  0  0  0  0  0  0  0
  1  2  1  0
  1  5  1  0
  2  3  1  0
  2  6  1  0
  2  7  1  0
  3  4  3  0
  8  9  3  0
  8 12  1  0
  9 10  1  0
 10 11  2  0
 10 13  1  0
M  RAD  1   1   2
M  END
>  <reaction>  (4) 
rxn_3223

>  <mol_properties>  (4) 
{"0": {"label": "*3", "atom_type": "N3s"}, "1": {"label": "*4", "atom_type": "Cs"}, "8": {"label": "*0", "atom_type": "Ct"}, "9": {"label": "*1", "atom_type": "CO"}, "12": {"label": "*2", "atom_type": "H0"}}

>  <type>  (4) 
ts

$$$$
