
     RDKit          3D

 15 15  0  0  0  0  0  0  0  0999 V2000
    2.2031   -0.2111   -0.1693 C   0  0  0  0  0  0  0  0  0  0  0  0
    0.7140   -0.0314   -0.0623 C   0  0  0  0  0  0  0  0  0  0  0  0
   -0.0114    0.5491   -1.0982 C   0  0  0  0  0  0  0  0  0  0  0  0
   -1.3882    0.6886   -1.0150 C   0  0  0  0  0  0  0  0  0  0  0  0
   -2.0661    0.2493    0.1118 C   0  0  0  0  0  0  0  0  0  0  0  0
   -1.3551   -0.3278    1.1528 C   0  0  0  0  0  0  0  0  0  0  0  0
    0.0216   -0.4648    1.0642 C   0  0  0  0  0  0  0  0  0  0  0  0
    2.6776   -0.1836    0.8122 H   0  0  0  0  0  0  0  0  0  0  0  0
    2.4446   -1.1749   -0.6249 H   0  0  0  0  0  0  0  0  0  0  0  0
    2.6532    0.5664   -0.7875 H   0  0  0  0  0  0  0  0  0  0  0  0
    0.5104    0.8989   -1.9819 H   0  0  0  0  0  0  0  0  0  0  0  0
   -1.9328    1.1452   -1.8322 H   0  0  0  0  0  0  0  0  0  0  0  0
   -3.1409    0.3597    0.1800 H   0  0  0  0  0  0  0  0  0  0  0  0
   -1.8736   -0.6702    2.0398 H   0  0  0  0  0  0  0  0  0  0  0  0
    0.5695   -0.9141    1.8849 H   0  0  0  0  0  0  0  0  0  0  0  0
  1  2  1  0
  1  8  1  0
  1  9  1  0
  1 10  1  0
  2  3  2  0
  2  7  1  0
  3  4  1  0
  3 11  1  0
  4  5  2  0
  4 12  1  0
  5  6  1  0
  5 13  1  0
  6  7  2  0
  6 14  1  0
  7 15  1  0
M  END
>  <reaction>  (1) 
rxn_261

>  <mol_properties>  (1) 
{"4": {"label": "donator", "atom_type": "Cd"}, "11": {"label": "d_hydrogen", "atom_type": "H0"}}

>  <type>  (1) 
r1h

$$$$

     RDKit          3D

  1  0  0  0  0  0  0  0  0  0999 V2000
    0.0000    0.0000    0.0000 H   0  0  0  0  0 15  0  0  0  0  0  0
M  END
>  <reaction>  (2) 
rxn_261

>  <mol_properties>  (2) 
{"0": {"label": "acceptor", "atom_type": "H0"}}

>  <type>  (2) 
r2

$$$$

     RDKit          3D

  2  1  0  0  0  0  0  0  0  0999 V2000
    0.0000    0.0000    0.3721 H   0  0  0  0  0  0  0  0  0  0  0  0
    0.0000    0.0000   -0.3721 H   0  0  0  0  0  0  0  0  0  0  0  0
  1  2  1  0
M  END
>  <reaction>  (3) 
rxn_261

>  <mol_properties>  (3) 
{"0": {"label": "a_hydrogen", "atom_type": "H0"}, "1": {"label": "acceptor", "atom_type": "H0"}}

>  <type>  (3) 
r2h

$$$$

     RDKit          3D

 16 15  0  0  0  0  0  0  0  0999 V2000
    2.3476    0.1716   -0.4619 C   0  0  0  0  0  0  0  0  0  0  0  0
    0.8703    0.1980   -0.1831 C   0  0  0  0  0  0  0  0  0  0  0  0
    0.1951   -0.9668    0.1870 C   0  0  0  0  0  0  0  0  0  0  0  0
    0.1355    1.3737   -0.3110 C   0  0  0  0  0  0  0  0  0  0  0  0
   -1.1588   -0.9026    0.4022 C   0  0  0  0  0  0  0  0  0  0  0  0
   -1.9078    0.2421    0.2804 C   0  0  0  0  0  0  0  0  0  0  0  0
   -1.2330    1.4018   -0.0847 C   0  0  0  0  0  0  0  0  0  0  0  0
    2.5387   -0.1068   -1.5013 H   0  0  0  0  0  0  0  0  0  0  0  0
    2.7997    1.1492   -0.2932 H   0  0  0  0  0  0  0  0  0  0  0  0
    2.8573   -0.5547    0.1720 H   0  0  0  0  0  0  0  0  0  0  0  0
    0.7353   -1.8999    0.3027 H   0  0  0  0  0  0  0  0  0  0  0  0
   -1.8356   -2.1209    0.7885 H   0  0  0  0  0  0  0  0  0  0  0  0
   -2.9749    0.2463    0.4634 H   0  0  0  0  0  0  0  0  0  0  0  0
   -1.7775    2.3325   -0.1899 H   0  0  0  0  0  0  0  0  0  0  0  0
    0.6464    2.2875   -0.5915 H   0  0  0  0  0  0  0  0  0  0  0  0
   -2.2384   -2.8510    1.0204 H   0  0  0  0  0 15  0  0  0  0  0  0
  1  2  1  0
  1  8  1  0
  1  9  1  0
  1 10  1  0
  2  3  2  0
  2  4  1  0
  3  5  1  0
  3 11  1  0
  4  7  2  0
  4 15  1  0
  5  6  2  0
  5 12  1  0
  6  7  1  0
  6 13  1  0
  7 14  1  0
M  END
>  <reaction>  (4) 
rxn_261

>  <mol_properties>  (4) 
{"2": {"label": "*4", "atom_type": "Cd"}, "4": {"label": "*3", "atom_type": "Cd"}, "11": {"label": "*2", "atom_type": "H0"}, "15": {"label": "*1", "atom_type": "H0"}}

>  <type>  (4) 
ts

$$$$
