
     RDKit          3D

 10  9  0  0  0  0  0  0  0  0999 V2000
    2.2738    0.0217   -0.0992 C   0  0  0  0  0  0  0  0  0  0  0  0
    1.1083    0.2960   -0.0695 C   0  0  0  0  0  0  0  0  0  0  0  0
   -0.3173    0.6046   -0.0227 C   0  0  0  0  0  0  0  0  0  0  0  0
   -1.1561   -0.5495    0.5292 C   0  0  0  0  0  0  0  0  0  0  0  0
    3.3097   -0.2166   -0.1277 H   0  0  0  0  0  0  0  0  0  0  0  0
   -0.6542    0.8617   -1.0302 H   0  0  0  0  0  0  0  0  0  0  0  0
   -0.4633    1.4978    0.5900 H   0  0  0  0  0  0  0  0  0  0  0  0
   -0.8485   -0.7997    1.5447 H   0  0  0  0  0  0  0  0  0  0  0  0
   -2.2115   -0.2752    0.5459 H   0  0  0  0  0  0  0  0  0  0  0  0
   -1.0409   -1.4407   -0.0879 H   0  0  0  0  0  0  0  0  0  0  0  0
  1  2  3  0
  1  5  1  0
  2  3  1  0
  3  4  1  0
  3  6  1  0
  3  7  1  0
  4  8  1  0
  4  9  1  0
  4 10  1  0
M  END
>  <reaction>  (1) 
rxn_253

>  <mol_properties>  (1) 
{"2": {"label": "donator", "atom_type": "Cs"}, "5": {"label": "d_hydrogen", "atom_type": "H0"}}

>  <type>  (1) 
r1h

$$$$

     RDKit          3D

  4  3  0  0  0  0  0  0  0  0999 V2000
    0.0000    0.0000    0.0000 C   0  0  0  0  0  3  0  0  0  0  0  0
    1.0638   -0.1747    0.0540 H   0  0  0  0  0  0  0  0  0  0  0  0
   -0.6833   -0.8351   -0.0280 H   0  0  0  0  0  0  0  0  0  0  0  0
   -0.3805    1.0098   -0.0260 H   0  0  0  0  0  0  0  0  0  0  0  0
  1  2  1  0
  1  3  1  0
  1  4  1  0
M  RAD  1   1   2
M  END
>  <reaction>  (2) 
rxn_253

>  <mol_properties>  (2) 
{"0": {"label": "acceptor", "atom_type": "Cs"}}

>  <type>  (2) 
r2

$$$$

     RDKit          3D

  5  4  0  0  0  0  0  0  0  0999 V2000
    0.0000    0.0000    0.0000 C   0  0  0  0  0  0  0  0  0  0  0  0
   -0.6486   -0.7720   -0.4113 H   0  0  0  0  0  0  0  0  0  0  0  0
   -0.3482    0.9787   -0.3267 H   0  0  0  0  0  0  0  0  0  0  0  0
   -0.0223   -0.0487    1.0876 H   0  0  0  0  0  0  0  0  0  0  0  0
    1.0191   -0.1580   -0.3496 H   0  0  0  0  0  0  0  0  0  0  0  0
  1  2  1  0
  1  3  1  0
  1  4  1  0
  1  5  1  0
M  END
>  <reaction>  (3) 
rxn_253

>  <mol_properties>  (3) 
{"0": {"label": "a_hydrogen", "atom_type": "H0"}, "1": {"label": "acceptor", "atom_type": "Cs"}}

>  <type>  (3) 
r2h

$$$$

     RDKit          3D

 14 12  0  0  0  0  0  0  0  0999 V2000
   -0.2846   -0.0384   -2.2243 C   0  0  0  0  0  0  0  0  0  0  0  0
   -0.4369   -0.0152   -1.0331 C   0  0  0  0  0  0  0  0  0  0  0  0
   -0.5626    0.0057    0.3960 C   0  0  0  0  0  0  0  0  0  0  0  0
   -0.5014    1.3752    1.0457 C   0  0  0  0  0  0  0  0  0  0  0  0
   -0.1638   -0.0570   -3.2805 H   0  0  0  0  0  0  0  0  0  0  0  0
    0.4282   -0.6368    0.8542 H   0  0  0  0  0  0  0  0  0  0  0  0
   -1.4105   -0.5897    0.7365 H   0  0  0  0  0  0  0  0  0  0  0  0
   -1.3534    1.9904    0.7490 H   0  0  0  0  0  0  0  0  0  0  0  0
   -0.5109    1.2789    2.1323 H   0  0  0  0  0  0  0  0  0  0  0  0
    0.4091    1.8995    0.7538 H   0  0  0  0  0  0  0  0  0  0  0  0
    1.5778   -1.2919    1.4161 C   0  0  0  0  0  3  0  0  0  0  0  0
    2.3724   -0.5727    1.2474 H   0  0  0  0  0  0  0  0  0  0  0  0
    1.6480   -2.1950    0.8196 H   0  0  0  0  0  0  0  0  0  0  0  0
    1.3179   -1.4490    2.4577 H   0  0  0  0  0  0  0  0  0  0  0  0
  1  2  3  0
  1  5  1  0
  2  3  1  0
  3  4  1  0
  3  6  1  0
  3  7  1  0
  4  8  1  0
  4  9  1  0
  4 10  1  0
 11 12  1  0
 11 13  1  0
 11 14  1  0
M  RAD  1  11   2
M  END
>  <reaction>  (4) 
rxn_253

>  <mol_properties>  (4) 
{"1": {"label": "*0", "atom_type": "Ct"}, "2": {"label": "*1", "atom_type": "Cs"}, "5": {"label": "*2", "atom_type": "H0"}, "10": {"label": "*3", "atom_type": "Cs"}, "11": {"label": "*4", "atom_type": "H0"}}

>  <type>  (4) 
ts

$$$$
