
     RDKit          3D

 13 12  0  0  0  0  0  0  0  0999 V2000
    2.2975   -0.6134    0.7685 C   0  0  0  0  0  0  0  0  0  0  0  0
    1.1676   -0.5248    0.3802 C   0  0  0  0  0  0  0  0  0  0  0  0
   -0.2109   -0.3926   -0.0948 C   0  0  0  0  0  0  0  0  0  0  0  0
   -0.2501    0.2584   -1.4808 C   0  0  0  0  0  0  0  0  0  0  0  0
   -1.0633    0.3831    0.9141 C   0  0  0  0  0  0  0  0  0  0  0  0
    3.2999   -0.6974    1.1133 H   0  0  0  0  0  0  0  0  0  0  0  0
   -0.6209   -1.4038   -0.1814 H   0  0  0  0  0  0  0  0  0  0  0  0
    0.3402   -0.3102   -2.1992 H   0  0  0  0  0  0  0  0  0  0  0  0
    0.1511    1.2724   -1.4369 H   0  0  0  0  0  0  0  0  0  0  0  0
   -1.2791    0.3109   -1.8407 H   0  0  0  0  0  0  0  0  0  0  0  0
   -0.6861    1.4008    1.0287 H   0  0  0  0  0  0  0  0  0  0  0  0
   -1.0492   -0.0971    1.8924 H   0  0  0  0  0  0  0  0  0  0  0  0
   -2.0971    0.4363    0.5680 H   0  0  0  0  0  0  0  0  0  0  0  0
  1  2  3  0
  1  6  1  0
  2  3  1  0
  3  4  1  0
  3  5  1  0
  3  7  1  0
  4  8  1  0
  4  9  1  0
  4 10  1  0
  5 11  1  0
  5 12  1  0
  5 13  1  0
M  END
>  <reaction>  (1) 
rxn_1318

>  <mol_properties>  (1) 
{"2": {"label": "donator", "atom_type": "Cs"}, "6": {"label": "d_hydrogen", "atom_type": "H0"}}

>  <type>  (1) 
r1h

$$$$

     RDKit          3D

  5  4  0  0  0  0  0  0  0  0999 V2000
    0.0397    0.7134    0.0000 C   0  0  0  0  0  3  0  0  0  0  0  0
    0.0458   -0.5870    0.0000 C   0  0  0  0  0  0  0  0  0  0  0  0
   -0.6871    1.5118    0.0000 H   0  0  0  0  0  0  0  0  0  0  0  0
   -0.8806   -1.1637    0.0000 H   0  0  0  0  0  0  0  0  0  0  0  0
    0.9690   -1.1600    0.0000 H   0  0  0  0  0  0  0  0  0  0  0  0
  1  2  2  3
  1  3  1  0
  2  4  1  0
  2  5  1  0
M  RAD  1   1   2
M  END
>  <reaction>  (2) 
rxn_1318

>  <mol_properties>  (2) 
{"0": {"label": "acceptor", "atom_type": "Cd"}}

>  <type>  (2) 
r2

$$$$

     RDKit          3D

  6  5  0  0  0  0  0  0  0  0999 V2000
    0.6594    0.0438   -0.0050 C   0  0  0  0  0  0  0  0  0  0  0  0
   -0.6594   -0.0438    0.0050 C   0  0  0  0  0  0  0  0  0  0  0  0
    1.1706    0.8681   -0.4881 H   0  0  0  0  0  0  0  0  0  0  0  0
    1.2824   -0.7051    0.4696 H   0  0  0  0  0  0  0  0  0  0  0  0
   -1.2824    0.7051   -0.4696 H   0  0  0  0  0  0  0  0  0  0  0  0
   -1.1706   -0.8681    0.4881 H   0  0  0  0  0  0  0  0  0  0  0  0
  1  2  2  3
  1  3  1  0
  1  4  1  0
  2  5  1  0
  2  6  1  0
M  END
>  <reaction>  (3) 
rxn_1318

>  <mol_properties>  (3) 
{"0": {"label": "a_hydrogen", "atom_type": "H0"}, "1": {"label": "acceptor", "atom_type": "Cd"}}

>  <type>  (3) 
r2h

$$$$

     RDKit          3D

 18 16  0  0  0  0  0  0  0  0999 V2000
   -0.2788    0.6035   -2.7201 C   0  0  0  0  0  0  0  0  0  0  0  0
   -0.1702    0.6189   -1.5248 C   0  0  0  0  0  0  0  0  0  0  0  0
   -0.0397    0.6052   -0.0861 C   0  0  0  0  0  0  0  0  0  0  0  0
   -1.2499    1.1814    0.6335 C   0  0  0  0  0  0  0  0  0  0  0  0
    1.2875    1.1653    0.4032 C   0  0  0  0  0  0  0  0  0  0  0  0
   -0.3749    0.5975   -3.7790 H   0  0  0  0  0  0  0  0  0  0  0  0
   -0.0192   -0.5794    0.2216 H   0  0  0  0  0  0  0  0  0  0  0  0
   -2.1692    0.6982    0.3034 H   0  0  0  0  0  0  0  0  0  0  0  0
   -1.3384    2.2536    0.4410 H   0  0  0  0  0  0  0  0  0  0  0  0
   -1.1503    1.0347    1.7105 H   0  0  0  0  0  0  0  0  0  0  0  0
    1.3533    2.2366    0.1966 H   0  0  0  0  0  0  0  0  0  0  0  0
    2.1262    0.6710   -0.0865 H   0  0  0  0  0  0  0  0  0  0  0  0
    1.3815    1.0187    1.4807 H   0  0  0  0  0  0  0  0  0  0  0  0
    0.0211   -1.9817    0.7635 C   0  0  0  0  0  3  0  0  0  0  0  0
    0.1382   -2.1014    2.0619 C   0  0  0  0  0  0  0  0  0  0  0  0
   -0.0539   -2.7367   -0.0091 H   0  0  0  0  0  0  0  0  0  0  0  0
    0.1764   -3.0738    2.5499 H   0  0  0  0  0  0  0  0  0  0  0  0
    0.2028   -1.2341    2.7126 H   0  0  0  0  0  0  0  0  0  0  0  0
  1  2  3  0
  1  6  1  0
  2  3  1  0
  3  4  1  0
  3  5  1  0
  3  7  1  0
  4  8  1  0
  4  9  1  0
  4 10  1  0
  5 11  1  0
  5 12  1  0
  5 13  1  0
 14 15  2  3
 14 16  1  0
 15 17  1  0
 15 18  1  0
M  RAD  1  14   2
M  END
>  <reaction>  (4) 
rxn_1318

>  <mol_properties>  (4) 
{"1": {"label": "*0", "atom_type": "Ct"}, "2": {"label": "*1", "atom_type": "Cs"}, "6": {"label": "*2", "atom_type": "H0"}, "13": {"label": "*3", "atom_type": "Cd"}, "14": {"label": "*4", "atom_type": "Cd"}}

>  <type>  (4) 
ts

$$$$
