
     RDKit          3D

 16 15  0  0  0  0  0  0  0  0999 V2000
    1.7961   -0.3807    1.6176 C   0  0  0  0  0  0  0  0  0  0  0  0
    0.8562   -0.8708    0.8256 C   0  0  0  0  0  0  0  0  0  0  0  0
    0.0895   -0.0826   -0.2048 C   0  0  0  0  0  0  0  0  0  0  0  0
   -1.4061   -0.1111    0.0982 C   0  0  0  0  0  0  0  0  0  0  0  0
    0.4476   -0.5902   -1.5797 C   0  0  0  0  0  0  0  0  0  0  0  0
   -0.3793   -1.1113   -2.4728 C   0  0  0  0  0  0  0  0  0  0  0  0
    2.3110   -1.0032    2.3386 H   0  0  0  0  0  0  0  0  0  0  0  0
    2.0846    0.6643    1.5737 H   0  0  0  0  0  0  0  0  0  0  0  0
    0.5921   -1.9241    0.8925 H   0  0  0  0  0  0  0  0  0  0  0  0
    0.4358    0.9557   -0.1462 H   0  0  0  0  0  0  0  0  0  0  0  0
   -1.5968    0.3080    1.0865 H   0  0  0  0  0  0  0  0  0  0  0  0
   -1.9674    0.4693   -0.6359 H   0  0  0  0  0  0  0  0  0  0  0  0
   -1.7902   -1.1338    0.0883 H   0  0  0  0  0  0  0  0  0  0  0  0
    1.5049   -0.5197   -1.8214 H   0  0  0  0  0  0  0  0  0  0  0  0
   -1.4421   -1.2131   -2.2889 H   0  0  0  0  0  0  0  0  0  0  0  0
   -0.0162   -1.4558   -3.4328 H   0  0  0  0  0  0  0  0  0  0  0  0
  1  2  2  3
  1  7  1  0
  1  8  1  0
  2  3  1  0
  2  9  1  0
  3  4  1  0
  3  5  1  0
  3 10  1  0
  4 11  1  0
  4 12  1  0
  4 13  1  0
  5  6  2  3
  5 14  1  0
  6 15  1  0
  6 16  1  0
M  END
>  <reaction>  (1) 
rxn_1175

>  <mol_properties>  (1) 
{"2": {"label": "donator", "atom_type": "Cs"}, "9": {"label": "d_hydrogen", "atom_type": "H0"}}

>  <type>  (1) 
r1h

$$$$

     RDKit          3D

 11 10  0  0  0  0  0  0  0  0999 V2000
    2.0591    0.2533   -0.1061 C   0  0  0  0  0  0  0  0  0  0  0  0
    0.8045   -0.3111   -0.1535 C   0  0  0  0  0  0  0  0  0  0  0  0
   -0.3816    0.3942   -0.1885 C   0  0  0  0  0  3  0  0  0  0  0  0
   -1.7316   -0.2294   -0.2396 C   0  0  0  0  0  0  0  0  0  0  0  0
    2.9505   -0.3576   -0.0805 H   0  0  0  0  0  0  0  0  0  0  0  0
    2.1872    1.3290   -0.0933 H   0  0  0  0  0  0  0  0  0  0  0  0
    0.7385   -1.3970   -0.1643 H   0  0  0  0  0  0  0  0  0  0  0  0
   -0.3340    1.4795   -0.1783 H   0  0  0  0  0  0  0  0  0  0  0  0
   -1.6704   -1.3186   -0.2461 H   0  0  0  0  0  0  0  0  0  0  0  0
   -2.3404    0.0713    0.6191 H   0  0  0  0  0  0  0  0  0  0  0  0
   -2.2805    0.0851   -1.1331 H   0  0  0  0  0  0  0  0  0  0  0  0
  1  2  2  3
  1  5  1  0
  1  6  1  0
  2  3  1  0
  2  7  1  0
  3  4  1  0
  3  8  1  0
  4  9  1  0
  4 10  1  0
  4 11  1  0
M  RAD  1   3   2
M  END
>  <reaction>  (2) 
rxn_1175

>  <mol_properties>  (2) 
{"2": {"label": "acceptor", "atom_type": "Cs"}}

>  <type>  (2) 
r2

$$$$

     RDKit          3D

 12 11  0  0  0  0  0  0  0  0999 V2000
    1.9877    0.1011    0.4814 C   0  0  0  0  0  0  0  0  0  0  0  0
    0.8179    0.5502    0.0525 C   0  0  0  0  0  0  0  0  0  0  0  0
   -0.2939   -0.2692   -0.5320 C   0  0  0  0  0  0  0  0  0  0  0  0
   -0.0292   -1.7631   -0.6328 C   0  0  0  0  0  0  0  0  0  0  0  0
    2.2522   -0.9490    0.4436 H   0  0  0  0  0  0  0  0  0  0  0  0
    2.7295    0.7757    0.8896 H   0  0  0  0  0  0  0  0  0  0  0  0
    0.6162    1.6164    0.1190 H   0  0  0  0  0  0  0  0  0  0  0  0
   -0.5268    0.1319   -1.5245 H   0  0  0  0  0  0  0  0  0  0  0  0
   -1.1959   -0.0938    0.0644 H   0  0  0  0  0  0  0  0  0  0  0  0
    0.1590   -2.1992    0.3502 H   0  0  0  0  0  0  0  0  0  0  0  0
    0.8382   -1.9701   -1.2626 H   0  0  0  0  0  0  0  0  0  0  0  0
   -0.8879   -2.2759   -1.0672 H   0  0  0  0  0  0  0  0  0  0  0  0
  1  2  2  3
  1  5  1  0
  1  6  1  0
  2  3  1  0
  2  7  1  0
  3  4  1  0
  3  8  1  0
  3  9  1  0
  4 10  1  0
  4 11  1  0
  4 12  1  0
M  END
>  <reaction>  (3) 
rxn_1175

>  <mol_properties>  (3) 
{"0": {"label": "a_hydrogen", "atom_type": "H0"}, "3": {"label": "acceptor", "atom_type": "Cs"}}

>  <type>  (3) 
r2h

$$$$

     RDKit          3D

 27 25  0  0  0  0  0  0  0  0999 V2000
    0.8223   -2.7828   -1.4695 C   0  0  0  0  0  0  0  0  0  0  0  0
   -0.0971   -2.0669   -0.8261 C   0  0  0  0  0  0  0  0  0  0  0  0
    0.1383   -1.0453    0.2107 C   0  0  0  0  0  0  0  0  0  0  0  0
    1.5397   -0.9278    0.7605 C   0  0  0  0  0  0  0  0  0  0  0  0
   -0.9709   -0.8934    1.1663 C   0  0  0  0  0  0  0  0  0  0  0  0
   -0.8984   -0.4092    2.4057 C   0  0  0  0  0  0  0  0  0  0  0  0
    0.5360   -3.4887   -2.2381 H   0  0  0  0  0  0  0  0  0  0  0  0
    1.8794   -2.7052   -1.2480 H   0  0  0  0  0  0  0  0  0  0  0  0
   -1.1404   -2.2119   -1.0972 H   0  0  0  0  0  0  0  0  0  0  0  0
    0.0604    0.0681   -0.4654 H   0  0  0  0  0  0  0  0  0  0  0  0
    2.2712   -0.8782   -0.0471 H   0  0  0  0  0  0  0  0  0  0  0  0
    1.6473   -0.0177    1.3512 H   0  0  0  0  0  0  0  0  0  0  0  0
    1.7866   -1.7822    1.3956 H   0  0  0  0  0  0  0  0  0  0  0  0
   -1.9485   -1.1811    0.7868 H   0  0  0  0  0  0  0  0  0  0  0  0
    0.0369   -0.1030    2.8565 H   0  0  0  0  0  0  0  0  0  0  0  0
   -1.7882   -0.3122    3.0139 H   0  0  0  0  0  0  0  0  0  0  0  0
    0.1264    3.0198    0.6540 C   0  0  0  0  0  0  0  0  0  0  0  0
    0.6801    2.2210   -0.2716 C   0  0  0  0  0  0  0  0  0  0  0  0
   -0.0249    1.3017   -1.1330 C   0  0  0  0  0  3  0  0  0  0  0  0
   -1.5149    1.4064   -1.3008 C   0  0  0  0  0  0  0  0  0  0  0  0
    0.7388    3.6547    1.2804 H   0  0  0  0  0  0  0  0  0  0  0  0
   -0.9446    3.0659    0.8066 H   0  0  0  0  0  0  0  0  0  0  0  0
    1.7622    2.2241   -0.3681 H   0  0  0  0  0  0  0  0  0  0  0  0
    0.5198    1.0106   -2.0289 H   0  0  0  0  0  0  0  0  0  0  0  0
   -1.7948    2.3457   -1.7867 H   0  0  0  0  0  0  0  0  0  0  0  0
   -1.8922    0.5849   -1.9113 H   0  0  0  0  0  0  0  0  0  0  0  0
   -2.0252    1.3678   -0.3359 H   0  0  0  0  0  0  0  0  0  0  0  0
  1  2  2  3
  1  7  1  0
  1  8  1  0
  2  3  1  0
  2  9  1  0
  3  4  1  0
  3  5  1  0
  3 10  1  0
  4 11  1  0
  4 12  1  0
  4 13  1  0
  5  6  2  3
  5 14  1  0
  6 15  1  0
  6 16  1  0
 17 18  2  3
 17 21  1  0
 17 22  1  0
 18 19  1  0
 18 23  1  0
 19 20  1  0
 19 24  1  0
 20 25  1  0
 20 26  1  0
 20 27  1  0
M  RAD  1  19   2
M  END
>  <reaction>  (4) 
rxn_1175

>  <mol_properties>  (4) 
{"1": {"label": "*0", "atom_type": "Cd"}, "2": {"label": "*1", "atom_type": "Cs"}, "9": {"label": "*2", "atom_type": "H0"}, "17": {"label": "*4", "atom_type": "Cd"}, "18": {"label": "*3", "atom_type": "Cs"}}

>  <type>  (4) 
ts

$$$$
