
     RDKit          3D

 10  9  0  0  0  0  0  0  0  0999 V2000
   -1.0989    0.2495   -0.1782 C   0  0  0  0  0  0  0  0  0  0  0  0
    0.1603   -0.4979    0.2013 C   0  0  0  0  0  0  0  0  0  0  0  0
    1.1961   -0.9467   -1.2394 S   0  0  0  0  0  0  0  0  0  0  0  0
   -0.2201   -1.6155    0.9575 O   0  0  0  0  0  0  0  0  0  0  0  0
   -1.7398   -0.3820   -0.7953 H   0  0  0  0  0  0  0  0  0  0  0  0
   -0.8561    1.1556   -0.7305 H   0  0  0  0  0  0  0  0  0  0  0  0
   -1.6486    0.5163    0.7257 H   0  0  0  0  0  0  0  0  0  0  0  0
    0.8242    0.1583    0.7771 H   0  0  0  0  0  0  0  0  0  0  0  0
    0.2423   -1.6274   -1.8911 H   0  0  0  0  0  0  0  0  0  0  0  0
    0.5568   -2.1556    1.1170 H   0  0  0  0  0  0  0  0  0  0  0  0
  1  2  1  0
  1  5  1  0
  1  6  1  0
  1  7  1  0
  2  4  1  0
  2  3  1  0
  2  8  1  0
  3  9  1  0
  4 10  1  0
M  END
>  <reaction>  (1) 
rxn_476

>  <mol_properties>  (1) 
{"1": {"label": "donator", "atom_type": "Cs"}, "7": {"label": "d_hydrogen", "atom_type": "H0"}}

>  <type>  (1) 
r1h

$$$$

     RDKit          3D

  4  3  0  0  0  0  0  0  0  0999 V2000
    0.0000    0.0000    0.0000 C   0  0  0  0  0  3  0  0  0  0  0  0
    1.0638   -0.1747    0.0540 H   0  0  0  0  0  0  0  0  0  0  0  0
   -0.6833   -0.8351   -0.0280 H   0  0  0  0  0  0  0  0  0  0  0  0
   -0.3805    1.0098   -0.0260 H   0  0  0  0  0  0  0  0  0  0  0  0
  1  2  1  0
  1  3  1  0
  1  4  1  0
M  RAD  1   1   2
M  END
>  <reaction>  (2) 
rxn_476

>  <mol_properties>  (2) 
{"0": {"label": "acceptor", "atom_type": "Cs"}}

>  <type>  (2) 
r2

$$$$

     RDKit          3D

  5  4  0  0  0  0  0  0  0  0999 V2000
    0.0000    0.0000    0.0000 C   0  0  0  0  0  0  0  0  0  0  0  0
   -0.6486   -0.7720   -0.4113 H   0  0  0  0  0  0  0  0  0  0  0  0
   -0.3482    0.9787   -0.3267 H   0  0  0  0  0  0  0  0  0  0  0  0
   -0.0223   -0.0487    1.0876 H   0  0  0  0  0  0  0  0  0  0  0  0
    1.0191   -0.1580   -0.3496 H   0  0  0  0  0  0  0  0  0  0  0  0
  1  2  1  0
  1  3  1  0
  1  4  1  0
  1  5  1  0
M  END
>  <reaction>  (3) 
rxn_476

>  <mol_properties>  (3) 
{"0": {"label": "a_hydrogen", "atom_type": "H0"}, "1": {"label": "acceptor", "atom_type": "Cs"}}

>  <type>  (3) 
r2h

$$$$

     RDKit          3D

 14 12  0  0  0  0  0  0  0  0999 V2000
    0.1588    0.2215   -1.7359 C   0  0  0  0  0  0  0  0  0  0  0  0
    0.0778    0.3372   -0.2387 C   0  0  0  0  0  0  0  0  0  0  0  0
   -1.2908   -0.5499    0.5464 S   0  0  0  0  0  0  0  0  0  0  0  0
    0.1731    1.6690    0.1295 O   0  0  0  0  0  0  0  0  0  0  0  0
   -0.7018    0.7030   -2.2075 H   0  0  0  0  0  0  0  0  0  0  0  0
    0.1841   -0.8250   -2.0347 H   0  0  0  0  0  0  0  0  0  0  0  0
    1.0643    0.7172   -2.0898 H   0  0  0  0  0  0  0  0  0  0  0  0
    1.0775   -0.2966    0.2307 H   0  0  0  0  0  0  0  0  0  0  0  0
   -2.2859    0.0912   -0.0889 H   0  0  0  0  0  0  0  0  0  0  0  0
    0.0098    1.7384    1.0733 H   0  0  0  0  0  0  0  0  0  0  0  0
    2.2663   -0.9325    0.7378 C   0  0  0  0  0  3  0  0  0  0  0  0
    3.0367   -0.1906    0.5547 H   0  0  0  0  0  0  0  0  0  0  0  0
    2.3569   -1.8362    0.1441 H   0  0  0  0  0  0  0  0  0  0  0  0
    2.0448   -1.1051    1.7864 H   0  0  0  0  0  0  0  0  0  0  0  0
  1  2  1  0
  1  5  1  0
  1  6  1  0
  1  7  1  0
  2  4  1  0
  2  3  1  0
  2  8  1  0
  3  9  1  0
  4 10  1  0
 11 12  1  0
 11 13  1  0
 11 14  1  0
M  RAD  1  11   2
M  END
>  <reaction>  (4) 
rxn_476

>  <mol_properties>  (4) 
{"1": {"label": "*1", "atom_type": "Cs"}, "2": {"label": "*0", "atom_type": "S2s"}, "7": {"label": "*2", "atom_type": "H0"}, "10": {"label": "*3", "atom_type": "Cs"}, "11": {"label": "*4", "atom_type": "H0"}}

>  <type>  (4) 
ts

$$$$
