
     RDKit          3D

 15 15  0  0  0  0  0  0  0  0999 V2000
    2.2031   -0.2111   -0.1693 C   0  0  0  0  0  0  0  0  0  0  0  0
    0.7140   -0.0314   -0.0623 C   0  0  0  0  0  0  0  0  0  0  0  0
   -0.0114    0.5491   -1.0982 C   0  0  0  0  0  0  0  0  0  0  0  0
   -1.3882    0.6886   -1.0150 C   0  0  0  0  0  0  0  0  0  0  0  0
   -2.0661    0.2493    0.1118 C   0  0  0  0  0  0  0  0  0  0  0  0
   -1.3551   -0.3278    1.1528 C   0  0  0  0  0  0  0  0  0  0  0  0
    0.0216   -0.4648    1.0642 C   0  0  0  0  0  0  0  0  0  0  0  0
    2.6776   -0.1836    0.8122 H   0  0  0  0  0  0  0  0  0  0  0  0
    2.4446   -1.1749   -0.6249 H   0  0  0  0  0  0  0  0  0  0  0  0
    2.6532    0.5664   -0.7875 H   0  0  0  0  0  0  0  0  0  0  0  0
    0.5104    0.8989   -1.9819 H   0  0  0  0  0  0  0  0  0  0  0  0
   -1.9328    1.1452   -1.8322 H   0  0  0  0  0  0  0  0  0  0  0  0
   -3.1409    0.3597    0.1800 H   0  0  0  0  0  0  0  0  0  0  0  0
   -1.8736   -0.6702    2.0398 H   0  0  0  0  0  0  0  0  0  0  0  0
    0.5695   -0.9141    1.8849 H   0  0  0  0  0  0  0  0  0  0  0  0
  1  2  1  0
  1  8  1  0
  1  9  1  0
  1 10  1  0
  2  3  2  0
  2  7  1  0
  3  4  1  0
  3 11  1  0
  4  5  2  0
  4 12  1  0
  5  6  1  0
  5 13  1  0
  6  7  2  0
  6 14  1  0
  7 15  1  0
M  END
>  <reaction>  (1) 
rxn_1462

>  <mol_properties>  (1) 
{"0": {"label": "donator", "atom_type": "Cs"}, "7": {"label": "d_hydrogen", "atom_type": "H0"}}

>  <type>  (1) 
r1h

$$$$

     RDKit          3D

  7  6  0  0  0  0  0  0  0  0999 V2000
   -1.3496    0.0255    0.0758 C   0  0  0  0  0  0  0  0  0  0  0  0
   -0.0636   -0.0704   -0.0033 C   0  0  0  0  0  0  0  0  0  0  0  0
    1.2597   -0.1602   -0.0839 C   0  0  0  0  0  0  0  0  0  0  0  0
    2.2616    1.2090   -0.0064 S   0  0  0  0  0  1  0  0  0  0  0  0
   -1.8547   -0.0180    1.0345 H   0  0  0  0  0  0  0  0  0  0  0  0
   -1.9552    0.1601   -0.8138 H   0  0  0  0  0  0  0  0  0  0  0  0
    1.7017   -1.1460   -0.2029 H   0  0  0  0  0  0  0  0  0  0  0  0
  1  2  2  0
  1  5  1  0
  1  6  1  0
  2  3  2  0
  3  4  1  0
  3  7  1  0
M  RAD  1   4   2
M  END
>  <reaction>  (2) 
rxn_1462

>  <mol_properties>  (2) 
{"1": {"label": "acceptor", "atom_type": "Cd"}}

>  <type>  (2) 
r2

$$$$

     RDKit          3D

  8  7  0  0  0  0  0  0  0  0999 V2000
   -1.1617    0.0338    0.5053 C   0  0  0  0  0  0  0  0  0  0  0  0
   -0.1023    0.4503   -0.1863 C   0  0  0  0  0  0  0  0  0  0  0  0
    1.0978   -0.3557   -0.3104 C   0  0  0  0  0  0  0  0  0  0  0  0
    2.4251    0.0667   -1.1256 S   0  0  0  0  0  0  0  0  0  0  0  0
   -1.1653   -0.9292    1.0039 H   0  0  0  0  0  0  0  0  0  0  0  0
   -2.0546    0.6389    0.5948 H   0  0  0  0  0  0  0  0  0  0  0  0
   -0.0991    1.4132   -0.6847 H   0  0  0  0  0  0  0  0  0  0  0  0
    1.0601   -1.3180    0.2032 H   0  0  0  0  0  0  0  0  0  0  0  0
  1  2  2  3
  1  5  1  0
  1  6  1  0
  2  3  1  0
  2  7  1  0
  3  4  2  0
  3  8  1  0
M  END
>  <reaction>  (3) 
rxn_1462

>  <mol_properties>  (3) 
{"1": {"label": "acceptor", "atom_type": "Cd"}, "7": {"label": "a_hydrogen", "atom_type": "H0"}}

>  <type>  (3) 
r2h

$$$$

     RDKit          3D

 22 21  0  0  0  0  0  0  0  0999 V2000
   -2.0369   -0.8664    0.8841 C   0  0  0  0  0  0  0  0  0  0  0  0
   -1.0798   -0.7146    1.7726 C   0  0  0  0  0  0  0  0  0  0  0  0
   -0.6987   -1.2745    3.0193 C   0  0  0  0  0  0  0  0  0  0  0  0
    0.6842   -2.1031    3.2711 S   0  0  0  0  0  0  0  0  0  0  0  0
   -2.7968   -1.6342    0.9888 H   0  0  0  0  0  0  0  0  0  0  0  0
   -2.0725   -0.2476   -0.0063 H   0  0  0  0  0  0  0  0  0  0  0  0
   -1.3558   -1.0542    3.8622 H   0  0  0  0  0  0  0  0  0  0  0  0
    0.7628    0.8847    0.7413 C   0  0  0  0  0  0  0  0  0  0  0  0
    0.3628    0.9875   -0.6556 C   0  0  0  0  0  0  0  0  0  0  0  0
   -0.4000    2.0690   -1.1099 C   0  0  0  0  0  3  0  0  0  0  0  0
   -0.8268    2.1326   -2.4241 C   0  0  0  0  0  0  0  0  0  0  0  0
   -0.5062    1.1140   -3.3116 C   0  0  0  0  0  0  0  0  0  0  0  0
    0.2468    0.0321   -2.8746 C   0  0  0  0  0  0  0  0  0  0  0  0
    0.6755   -0.0324   -1.5615 C   0  0  0  0  0  0  0  0  0  0  0  0
   -0.1693    0.1390    1.3435 H   0  0  0  0  0  0  0  0  0  0  0  0
    1.6325    0.2708    0.9572 H   0  0  0  0  0  0  0  0  0  0  0  0
    0.7160    1.7976    1.3286 H   0  0  0  0  0  0  0  0  0  0  0  0
   -0.6550    2.8645   -0.4193 H   0  0  0  0  0  0  0  0  0  0  0  0
   -1.4115    2.9797   -2.7599 H   0  0  0  0  0  0  0  0  0  0  0  0
   -0.8406    1.1638   -4.3398 H   0  0  0  0  0  0  0  0  0  0  0  0
    0.4993   -0.7649   -3.5624 H   0  0  0  0  0  0  0  0  0  0  0  0
    1.2543   -0.8823   -1.2199 H   0  0  0  0  0  0  0  0  0  0  0  0
  1  2  2  3
  1  5  1  0
  1  6  1  0
  2  3  1  0
  2 15  1  0
  3  4  2  0
  3  7  1  0
  8  9  2  3
  8 16  1  0
  8 17  1  0
  9 10  1  0
  9 14  1  0
 10 11  1  0
 10 18  1  0
 11 12  2  0
 11 19  1  0
 12 13  1  0
 12 20  1  0
 13 14  2  0
 13 21  1  0
 14 22  1  0
M  RAD  1  10   2
M  END
>  <reaction>  (4) 
rxn_1462

>  <mol_properties>  (4) 
{"1": {"label": "*1", "atom_type": "Cd"}, "2": {"label": "*0", "atom_type": "CS"}, "7": {"label": "*3", "atom_type": "Cd"}, "8": {"label": "*4", "atom_type": "Cd"}, "14": {"label": "*2", "atom_type": "H0"}}

>  <type>  (4) 
ts

$$$$
