
     RDKit          3D

  4  3  0  0  0  0  0  0  0  0999 V2000
    1.6123   -0.2971    0.0070 N   0  0  0  0  0  2  0  0  0  0  0  0
    0.4838    0.0022    0.2070 C   0  0  0  0  0  0  0  0  0  0  0  0
   -0.6848    0.4027    0.4950 N   0  0  0  0  0  0  0  0  0  0  0  0
   -1.4113   -0.1079   -0.0045 H   0  0  0  0  0  0  0  0  0  0  0  0
  1  2  2  0
  2  3  2  0
  3  4  1  0
M  RAD  1   1   2
M  END
>  <reaction>  (1) 
rxn_62

>  <mol_properties>  (1) 
{"2": {"label": "donator", "atom_type": "N3d"}, "3": {"label": "d_hydrogen", "atom_type": "H0"}}

>  <type>  (1) 
r1h

$$$$

     RDKit          3D

  2  1  0  0  0  0  0  0  0  0999 V2000
    0.0000    0.0000    0.5973 O   0  0  0  0  0  1  0  0  0  0  0  0
    0.0000    0.0000   -0.5973 O   0  0  0  0  0  1  0  0  0  0  0  0
  1  2  1  0
M  RAD  2   1   2   2   2
M  END
>  <reaction>  (2) 
rxn_62

>  <mol_properties>  (2) 
{"1": {"label": "acceptor", "atom_type": "O2s"}}

>  <type>  (2) 
r2

$$$$

     RDKit          3D

  3  2  0  0  0  0  0  0  0  0999 V2000
    0.9943   -0.1797    0.0000 O   0  0  0  0  0  1  0  0  0  0  0  0
   -0.1595    0.4394    0.0000 O   0  0  0  0  0  0  0  0  0  0  0  0
   -0.8348   -0.2597    0.0000 H   0  0  0  0  0  0  0  0  0  0  0  0
  1  2  1  0
  2  3  1  0
M  RAD  1   1   2
M  END
>  <reaction>  (3) 
rxn_62

>  <mol_properties>  (3) 
{"1": {"label": "acceptor", "atom_type": "O2s"}, "2": {"label": "a_hydrogen", "atom_type": "H0"}}

>  <type>  (3) 
r2h

$$$$

     RDKit          3D

  6  4  0  0  0  0  0  0  0  0999 V2000
    0.0000   -1.5584    0.2327 O   0  0  0  0  0  1  0  0  0  0  0  0
    0.0000   -0.9528    1.3443 O   0  0  0  0  0  0  0  0  0  0  0  0
   -0.0000    0.6501   -1.9111 N   0  0  0  0  0  0  0  0  0  0  0  0
   -0.0000    1.0212   -0.7539 C   0  0  0  0  0  0  0  0  0  0  0  0
   -0.0000    1.3803    0.4173 N   0  0  0  0  0  1  0  0  0  0  0  0
    0.0000    0.0977    1.1404 H   0  0  0  0  0  0  0  0  0  0  0  0
  1  2  1  0
  2  6  1  0
  3  4  3  0
  4  5  1  0
M  RAD  2   1   2   5   3
M  END
>  <reaction>  (4) 
rxn_62

>  <mol_properties>  (4) 
{"0": {"label": "*0", "atom_type": "O2s"}, "1": {"label": "*1", "atom_type": "O2s"}, "3": {"label": "*4", "atom_type": "Ct"}, "4": {"label": "*3", "atom_type": "N3s"}, "5": {"label": "*2", "atom_type": "H0"}}

>  <type>  (4) 
ts

$$$$
