
     RDKit          3D

 12 11  0  0  0  0  0  0  0  0999 V2000
    1.2394   -0.3763   -0.3020 C   0  0  0  0  0  0  0  0  0  0  0  0
    0.1007    0.3024    0.4464 C   0  0  0  0  0  0  0  0  0  0  0  0
   -0.1187    2.0399   -0.0725 S   0  0  0  0  0  0  0  0  0  0  0  0
   -1.1974   -0.4877    0.3552 C   0  0  0  0  0  0  0  0  0  0  0  0
    2.1681    0.1850   -0.2048 H   0  0  0  0  0  0  0  0  0  0  0  0
    1.0030   -0.4604   -1.3656 H   0  0  0  0  0  0  0  0  0  0  0  0
    1.3993   -1.3856    0.0859 H   0  0  0  0  0  0  0  0  0  0  0  0
    0.3797    0.4050    1.4982 H   0  0  0  0  0  0  0  0  0  0  0  0
   -0.4500    1.7774   -1.3452 H   0  0  0  0  0  0  0  0  0  0  0  0
   -1.0545   -1.4977    0.7478 H   0  0  0  0  0  0  0  0  0  0  0  0
   -1.5206   -0.5758   -0.6849 H   0  0  0  0  0  0  0  0  0  0  0  0
   -1.9957   -0.0054    0.9183 H   0  0  0  0  0  0  0  0  0  0  0  0
  1  2  1  0
  1  5  1  0
  1  6  1  0
  1  7  1  0
  2  4  1  0
  2  3  1  0
  2  8  1  0
  3  9  1  0
  4 10  1  0
  4 11  1  0
  4 12  1  0
M  END
>  <reaction>  (1) 
rxn_1915

>  <mol_properties>  (1) 
{"1": {"label": "donator", "atom_type": "Cs"}, "7": {"label": "d_hydrogen", "atom_type": "H0"}}

>  <type>  (1) 
r1h

$$$$

     RDKit          3D

 12 11  0  0  0  0  0  0  0  0999 V2000
   -2.3791    0.4612   -0.5870 C   0  0  0  0  0  0  0  0  0  0  0  0
   -1.3422   -0.3138   -0.1893 C   0  0  0  0  0  0  0  0  0  0  0  0
   -1.4723   -1.6058    0.3589 C   0  0  0  0  0  3  0  0  0  0  0  0
   -0.3798   -2.3973    0.7671 C   0  0  0  0  0  0  0  0  0  0  0  0
   -0.4849   -3.6397    1.2956 C   0  0  0  0  0  0  0  0  0  0  0  0
   -2.2205    1.4472   -1.0017 H   0  0  0  0  0  0  0  0  0  0  0  0
   -3.4026    0.1153   -0.5011 H   0  0  0  0  0  0  0  0  0  0  0  0
   -0.3330    0.0765   -0.2952 H   0  0  0  0  0  0  0  0  0  0  0  0
   -2.4723   -2.0151    0.4735 H   0  0  0  0  0  0  0  0  0  0  0  0
    0.6117   -1.9687    0.6436 H   0  0  0  0  0  0  0  0  0  0  0  0
    0.3893   -4.2030    1.5920 H   0  0  0  0  0  0  0  0  0  0  0  0
   -1.4516   -4.1084    1.4378 H   0  0  0  0  0  0  0  0  0  0  0  0
  1  2  2  3
  1  6  1  0
  1  7  1  0
  2  3  1  0
  2  8  1  0
  3  4  1  0
  3  9  1  0
  4  5  2  3
  4 10  1  0
  5 11  1  0
  5 12  1  0
M  RAD  1   3   2
M  END
>  <reaction>  (2) 
rxn_1915

>  <mol_properties>  (2) 
{"2": {"label": "acceptor", "atom_type": "Cs"}}

>  <type>  (2) 
r2

$$$$

     RDKit          3D

 13 12  0  0  0  0  0  0  0  0999 V2000
    3.0977   -0.3549   -0.5105 C   0  0  0  0  0  0  0  0  0  0  0  0
    2.0556    0.4221   -0.2627 C   0  0  0  0  0  0  0  0  0  0  0  0
    0.6313   -0.0354   -0.2366 C   0  0  0  0  0  0  0  0  0  0  0  0
   -0.2567    0.6038   -1.2694 C   0  0  0  0  0  0  0  0  0  0  0  0
    0.1459    1.3456   -2.2891 C   0  0  0  0  0  0  0  0  0  0  0  0
    4.1081    0.0344   -0.5074 H   0  0  0  0  0  0  0  0  0  0  0  0
    2.9777   -1.4116   -0.7243 H   0  0  0  0  0  0  0  0  0  0  0  0
    2.2171    1.4781   -0.0618 H   0  0  0  0  0  0  0  0  0  0  0  0
    0.5865   -1.1233   -0.3540 H   0  0  0  0  0  0  0  0  0  0  0  0
    0.2065    0.1743    0.7521 H   0  0  0  0  0  0  0  0  0  0  0  0
   -1.3190    0.4126   -1.1445 H   0  0  0  0  0  0  0  0  0  0  0  0
    1.1948    1.5564   -2.4628 H   0  0  0  0  0  0  0  0  0  0  0  0
   -0.5644    1.7621   -2.9918 H   0  0  0  0  0  0  0  0  0  0  0  0
  1  2  2  3
  1  6  1  0
  1  7  1  0
  2  3  1  0
  2  8  1  0
  3  4  1  0
  3  9  1  0
  3 10  1  0
  4  5  2  3
  4 11  1  0
  5 12  1  0
  5 13  1  0
M  END
>  <reaction>  (3) 
rxn_1915

>  <mol_properties>  (3) 
{"0": {"label": "a_hydrogen", "atom_type": "H0"}, "3": {"label": "acceptor", "atom_type": "Cs"}}

>  <type>  (3) 
r2h

$$$$

     RDKit          3D

 24 22  0  0  0  0  0  0  0  0999 V2000
    0.8645   -0.0488   -2.2847 C   0  0  0  0  0  0  0  0  0  0  0  0
    1.0258    0.4395   -0.8705 C   0  0  0  0  0  3  0  0  0  0  0  0
    2.4961   -0.1944   -0.1024 S   0  0  0  0  0  0  0  0  0  0  0  0
    0.7152    1.8911   -0.6316 C   0  0  0  0  0  0  0  0  0  0  0  0
    1.0275   -1.1251   -2.3597 H   0  0  0  0  0  0  0  0  0  0  0  0
    1.5655    0.4490   -2.9637 H   0  0  0  0  0  0  0  0  0  0  0  0
   -0.1483    0.1691   -2.6305 H   0  0  0  0  0  0  0  0  0  0  0  0
   -0.0501   -0.1920   -0.1811 H   0  0  0  0  0  0  0  0  0  0  0  0
    2.3272    0.4035    1.0853 H   0  0  0  0  0  0  0  0  0  0  0  0
   -0.2593    2.1358   -1.0607 H   0  0  0  0  0  0  0  0  0  0  0  0
    1.4658    2.5392   -1.0957 H   0  0  0  0  0  0  0  0  0  0  0  0
    0.6830    2.1193    0.4358 H   0  0  0  0  0  0  0  0  0  0  0  0
   -3.0088   -0.1707   -1.0216 C   0  0  0  0  0  0  0  0  0  0  0  0
   -2.2055    0.1489   -0.0100 C   0  0  0  0  0  0  0  0  0  0  0  0
   -1.0694   -0.6648    0.4426 C   0  0  0  0  0  0  0  0  0  0  0  0
   -0.6387   -0.6200    1.8489 C   0  0  0  0  0  0  0  0  0  0  0  0
   -0.9716    0.2824    2.7717 C   0  0  0  0  0  0  0  0  0  0  0  0
   -3.8093    0.4857   -1.3370 H   0  0  0  0  0  0  0  0  0  0  0  0
   -2.8964   -1.1062   -1.5592 H   0  0  0  0  0  0  0  0  0  0  0  0
   -2.3619    1.0988    0.4927 H   0  0  0  0  0  0  0  0  0  0  0  0
   -1.0841   -1.6775    0.0382 H   0  0  0  0  0  0  0  0  0  0  0  0
    0.0700   -1.3949    2.1268 H   0  0  0  0  0  0  0  0  0  0  0  0
   -0.5542    0.2329    3.7689 H   0  0  0  0  0  0  0  0  0  0  0  0
   -1.6766    1.0822    2.5804 H   0  0  0  0  0  0  0  0  0  0  0  0
  1  2  1  0
  1  5  1  0
  1  6  1  0
  1  7  1  0
  2  4  1  0
  2  3  1  0
  3  9  1  0
  4 10  1  0
  4 11  1  0
  4 12  1  0
  8 15  1  0
 13 14  2  3
 13 18  1  0
 13 19  1  0
 14 15  1  0
 14 20  1  0
 15 16  1  0
 15 21  1  0
 16 17  2  3
 16 22  1  0
 17 23  1  0
 17 24  1  0
M  RAD  1   2   2
M  END
>  <reaction>  (4) 
rxn_1915

>  <mol_properties>  (4) 
{"1": {"label": "*3", "atom_type": "Cs"}, "2": {"label": "*4", "atom_type": "S2s"}, "7": {"label": "*2", "atom_type": "H0"}, "13": {"label": "*0", "atom_type": "Cd"}, "14": {"label": "*1", "atom_type": "Cs"}}

>  <type>  (4) 
ts

$$$$
