
     RDKit          3D

  6  5  0  0  0  0  0  0  0  0999 V2000
    1.3543    1.0529    0.1454 O   0  0  0  0  0  0  0  0  0  0  0  0
    0.7621    0.0240   -0.0005 C   0  0  0  0  0  0  0  0  0  0  0  0
   -0.7621   -0.0240    0.0005 C   0  0  0  0  0  0  0  0  0  0  0  0
   -1.3543   -1.0529   -0.1454 O   0  0  0  0  0  0  0  0  0  0  0  0
    1.2588   -0.9541   -0.1447 H   0  0  0  0  0  0  0  0  0  0  0  0
   -1.2588    0.9541    0.1447 H   0  0  0  0  0  0  0  0  0  0  0  0
  1  2  2  0
  2  3  1  0
  2  5  1  0
  3  4  2  0
  3  6  1  0
M  END
>  <reaction>  (1) 
kfir_rxn_11197

>  <mol_properties>  (1) 
{"2": {"label": "donator", "atom_type": "CO"}, "5": {"label": "d_hydrogen", "atom_type": "H0"}}

>  <type>  (1) 
r1h

$$$$

     RDKit          3D

  6  5  0  0  0  0  0  0  0  0999 V2000
   -1.0578    1.1910   -0.1492 O   0  0  0  0  0  1  0  0  0  0  0  0
   -0.4642   -0.0130    0.0051 C   0  0  0  0  0  0  0  0  0  0  0  0
    1.0136   -0.0026   -0.0071 C   0  0  0  0  0  0  0  0  0  0  0  0
    2.1596   -0.0104   -0.0146 N   0  0  0  0  0  0  0  0  0  0  0  0
   -0.8305   -0.6957   -0.7795 H   0  0  0  0  0  0  0  0  0  0  0  0
   -0.8178   -0.4685    0.9451 H   0  0  0  0  0  0  0  0  0  0  0  0
  1  2  1  0
  2  3  1  0
  2  5  1  0
  2  6  1  0
  3  4  3  0
M  RAD  1   1   2
M  END
>  <reaction>  (2) 
kfir_rxn_11197

>  <mol_properties>  (2) 
{"0": {"label": "acceptor", "atom_type": "O2s"}}

>  <type>  (2) 
r2

$$$$

     RDKit          3D

  7  6  0  0  0  0  0  0  0  0999 V2000
   -1.0240    0.8044   -0.4204 O   0  0  0  0  0  0  0  0  0  0  0  0
   -0.3365   -0.3409    0.0003 C   0  0  0  0  0  0  0  0  0  0  0  0
    1.1270   -0.1767   -0.0328 C   0  0  0  0  0  0  0  0  0  0  0  0
    2.2637   -0.0259   -0.0358 N   0  0  0  0  0  0  0  0  0  0  0  0
   -0.8050    1.5374    0.1584 H   0  0  0  0  0  0  0  0  0  0  0  0
   -0.6168   -0.6523    1.0127 H   0  0  0  0  0  0  0  0  0  0  0  0
   -0.6084   -1.1459   -0.6824 H   0  0  0  0  0  0  0  0  0  0  0  0
  1  2  1  0
  1  5  1  0
  2  3  1  0
  2  6  1  0
  2  7  1  0
  3  4  3  0
M  END
>  <reaction>  (3) 
kfir_rxn_11197

>  <mol_properties>  (3) 
{"0": {"label": "acceptor", "atom_type": "O2s"}, "6": {"label": "a_hydrogen", "atom_type": "H0"}}

>  <type>  (3) 
r2h

$$$$

     RDKit          3D

 12 10  0  0  0  0  0  0  0  0999 V2000
    0.6795    1.3649   -0.3147 O   0  0  0  0  0  1  0  0  0  0  0  0
   -0.5731    1.9053   -0.1550 C   0  0  0  0  0  0  0  0  0  0  0  0
   -1.5384    1.4910   -1.1941 C   0  0  0  0  0  0  0  0  0  0  0  0
   -2.2866    1.1463   -1.9916 N   0  0  0  0  0  0  0  0  0  0  0  0
   -0.4763    2.9986   -0.1747 H   0  0  0  0  0  0  0  0  0  0  0  0
   -1.0052    1.6591    0.8277 H   0  0  0  0  0  0  0  0  0  0  0  0
    2.0766   -2.1693    0.0963 O   0  0  0  0  0  0  0  0  0  0  0  0
    1.0832   -2.1402    0.7465 C   0  0  0  0  0  0  0  0  0  0  0  0
    0.2328   -0.8527    0.8775 C   0  0  0  0  0  0  0  0  0  0  0  0
   -0.7217   -0.7848    1.5732 O   0  0  0  0  0  0  0  0  0  0  0  0
    0.6785   -2.9995    1.3128 H   0  0  0  0  0  0  0  0  0  0  0  0
    0.6136    0.0827    0.2259 H   0  0  0  0  0  0  0  0  0  0  0  0
  1  2  1  0
  2  3  1  0
  2  5  1  0
  2  6  1  0
  3  4  3  0
  7  8  2  0
  8  9  1  0
  8 11  1  0
  9 10  2  0
  9 12  1  0
M  RAD  1   1   2
M  END
>  <reaction>  (4) 
kfir_rxn_11197

>  <mol_properties>  (4) 
{"0": {"label": "*3", "atom_type": "O2s"}, "1": {"label": "*4", "atom_type": "Cs"}, "7": {"label": "*0", "atom_type": "CO"}, "8": {"label": "*1", "atom_type": "CO"}, "11": {"label": "*2", "atom_type": "H0"}}

>  <type>  (4) 
ts

$$$$

     RDKit          3D

 12 10  0  0  0  0  0  0  0  0999 V2000
    0.7383    1.1443   -0.2703 O   0  0  0  0  0  0  0  0  0  0  0  0
   -0.4060    1.8969    0.0224 C   0  0  0  0  0  0  0  0  0  0  0  0
   -1.4411    1.7973   -1.0209 C   0  0  0  0  0  0  0  0  0  0  0  0
   -2.2498    1.6882   -1.8264 N   0  0  0  0  0  0  0  0  0  0  0  0
   -0.0929    2.9382    0.0988 H   0  0  0  0  0  0  0  0  0  0  0  0
   -0.8631    1.6144    0.9772 H   0  0  0  0  0  0  0  0  0  0  0  0
    0.7383   -2.2201   -0.8885 O   0  0  0  0  0  1  0  0  0  0  0  0
    0.7383   -2.2201    0.3076 C   0  0  0  0  0  0  0  0  0  0  0  0
    0.7383   -0.9191    1.1033 C   0  0  0  0  0  0  0  0  0  0  0  0
    0.7383   -0.9191    2.2994 O   0  0  0  0  0  0  0  0  0  0  0  0
    0.7383   -3.1411    0.9207 H   0  0  0  0  0  0  0  0  0  0  0  0
    0.7383    0.1861    0.3676 H   0  0  0  0  0  0  0  0  0  0  0  0
  1  2  1  0
  1 12  1  0
  2  3  1  0
  2  5  1  0
  2  6  1  0
  3  4  3  0
  7  8  1  0
  8  9  2  0
  8 11  1  0
  9 10  2  0
M  RAD  1   7   2
M  END
>  <reaction>  (5) 
kfir_rxn_11197

>  <mol_properties>  (5) 
{"0": {"label": "*3", "atom_type": "O2s"}, "1": {"label": "*4", "atom_type": "Cs"}, "7": {"label": "*0", "atom_type": "CO"}, "8": {"label": "*1", "atom_type": "CO"}, "11": {"label": "*2", "atom_type": "H0"}}

>  <type>  (5) 
unop_1

>  <geom_source>  (5) 
Heuristics

$$$$

     RDKit          3D

 12 10  0  0  0  0  0  0  0  0999 V2000
   -0.0331    1.6869    0.2496 O   0  0  0  0  0  0  0  0  0  0  0  0
   -0.6937    1.4394   -0.9602 C   0  0  0  0  0  0  0  0  0  0  0  0
    0.1572    0.7562   -1.9498 C   0  0  0  0  0  0  0  0  0  0  0  0
    0.8210    0.1988   -2.7003 N   0  0  0  0  0  0  0  0  0  0  0  0
   -0.9877    2.4066   -1.3678 H   0  0  0  0  0  0  0  0  0  0  0  0
   -1.6026    0.8418   -0.8292 H   0  0  0  0  0  0  0  0  0  0  0  0
   -0.0331   -1.6775   -0.3686 O   0  0  0  0  0  1  0  0  0  0  0  0
   -0.0331   -1.6775    0.8275 C   0  0  0  0  0  0  0  0  0  0  0  0
   -0.0331   -0.3765    1.6232 C   0  0  0  0  0  0  0  0  0  0  0  0
   -0.0331   -0.3765    2.8193 O   0  0  0  0  0  0  0  0  0  0  0  0
   -0.0331   -2.5985    1.4406 H   0  0  0  0  0  0  0  0  0  0  0  0
   -0.0331    0.7287    0.8875 H   0  0  0  0  0  0  0  0  0  0  0  0
  1  2  1  0
  1 12  1  0
  2  3  1  0
  2  5  1  0
  2  6  1  0
  3  4  3  0
  7  8  1  0
  8  9  2  0
  8 11  1  0
  9 10  2  0
M  RAD  1   7   2
M  END
>  <reaction>  (6) 
kfir_rxn_11197

>  <mol_properties>  (6) 
{"0": {"label": "*3", "atom_type": "O2s"}, "1": {"label": "*4", "atom_type": "Cs"}, "7": {"label": "*0", "atom_type": "CO"}, "8": {"label": "*1", "atom_type": "CO"}, "11": {"label": "*2", "atom_type": "H0"}}

>  <type>  (6) 
unop_2

>  <geom_source>  (6) 
Heuristics

$$$$

     RDKit          3D

 12 10  0  0  0  0  0  0  0  0999 V2000
    0.6917    0.9909   -0.6427 O   0  0  0  0  0  0  0  0  0  0  0  0
    0.0310    2.0115    0.0525 C   0  0  0  0  0  0  0  0  0  0  0  0
   -1.4034    2.0924   -0.2726 C   0  0  0  0  0  0  0  0  0  0  0  0
   -2.5241    2.1258   -0.5129 N   0  0  0  0  0  0  0  0  0  0  0  0
    0.5029    2.9512   -0.2345 H   0  0  0  0  0  0  0  0  0  0  0  0
    0.1239    1.9092    1.1394 H   0  0  0  0  0  0  0  0  0  0  0  0
    0.6916   -2.3735   -1.2610 O   0  0  0  0  0  1  0  0  0  0  0  0
    0.6916   -2.3735   -0.0649 C   0  0  0  0  0  0  0  0  0  0  0  0
    0.6916   -1.0726    0.7309 C   0  0  0  0  0  0  0  0  0  0  0  0
    0.6916   -1.0726    1.9270 O   0  0  0  0  0  0  0  0  0  0  0  0
    0.6916   -3.2946    0.5482 H   0  0  0  0  0  0  0  0  0  0  0  0
    0.6917    0.0326   -0.0049 H   0  0  0  0  0  0  0  0  0  0  0  0
  1  2  1  0
  1 12  1  0
  2  3  1  0
  2  5  1  0
  2  6  1  0
  3  4  3  0
  7  8  1  0
  8  9  2  0
  8 11  1  0
  9 10  2  0
M  RAD  1   7   2
M  END
>  <reaction>  (7) 
kfir_rxn_11197

>  <mol_properties>  (7) 
{"0": {"label": "*3", "atom_type": "O2s"}, "1": {"label": "*4", "atom_type": "Cs"}, "7": {"label": "*0", "atom_type": "CO"}, "8": {"label": "*1", "atom_type": "CO"}, "11": {"label": "*2", "atom_type": "H0"}}

>  <type>  (7) 
unop_3

>  <geom_source>  (7) 
Heuristics

$$$$

     RDKit          3D

 12 10  0  0  0  0  0  0  0  0999 V2000
   -0.7615    1.6214   -0.3848 O   0  0  0  0  0  0  0  0  0  0  0  0
    0.3828    1.6418   -1.1920 C   0  0  0  0  0  0  0  0  0  0  0  0
    1.4981    0.8629   -0.6270 C   0  0  0  0  0  0  0  0  0  0  0  0
    2.3484    0.2298   -0.1902 N   0  0  0  0  0  0  0  0  0  0  0  0
    0.6966    2.6823   -1.2756 H   0  0  0  0  0  0  0  0  0  0  0  0
    0.1910    1.2683   -2.2041 H   0  0  0  0  0  0  0  0  0  0  0  0
   -0.7615   -1.7430   -1.0031 O   0  0  0  0  0  1  0  0  0  0  0  0
   -0.7615   -1.7430    0.1931 C   0  0  0  0  0  0  0  0  0  0  0  0
   -0.7615   -0.4421    0.9888 C   0  0  0  0  0  0  0  0  0  0  0  0
   -0.7615   -0.4421    2.1849 O   0  0  0  0  0  0  0  0  0  0  0  0
   -0.7615   -2.6641    0.8062 H   0  0  0  0  0  0  0  0  0  0  0  0
   -0.7615    0.6631    0.2531 H   0  0  0  0  0  0  0  0  0  0  0  0
  1  2  1  0
  1 12  1  0
  2  3  1  0
  2  5  1  0
  2  6  1  0
  3  4  3  0
  7  8  1  0
  8  9  2  0
  8 11  1  0
  9 10  2  0
M  RAD  1   7   2
M  END
>  <reaction>  (8) 
kfir_rxn_11197

>  <mol_properties>  (8) 
{"0": {"label": "*3", "atom_type": "O2s"}, "1": {"label": "*4", "atom_type": "Cs"}, "7": {"label": "*0", "atom_type": "CO"}, "8": {"label": "*1", "atom_type": "CO"}, "11": {"label": "*2", "atom_type": "H0"}}

>  <type>  (8) 
unop_4

>  <geom_source>  (8) 
Heuristics

$$$$

     RDKit          3D

 12 10  0  0  0  0  0  0  0  0999 V2000
    0.3731    0.9631   -1.0771 O   0  0  0  0  0  0  0  0  0  0  0  0
    0.3731    2.0818   -0.2346 C   0  0  0  0  0  0  0  0  0  0  0  0
   -0.8077    2.1387    0.6442 C   0  0  0  0  0  0  0  0  0  0  0  0
   -1.7170    2.1558    1.3425 N   0  0  0  0  0  0  0  0  0  0  0  0
    0.3693    2.9641   -0.8745 H   0  0  0  0  0  0  0  0  0  0  0  0
    1.2658    2.1321    0.3986 H   0  0  0  0  0  0  0  0  0  0  0  0
    0.3731   -2.4013   -1.6954 O   0  0  0  0  0  1  0  0  0  0  0  0
    0.3731   -2.4013   -0.4993 C   0  0  0  0  0  0  0  0  0  0  0  0
    0.3731   -1.1004    0.2964 C   0  0  0  0  0  0  0  0  0  0  0  0
    0.3731   -1.1004    1.4926 O   0  0  0  0  0  0  0  0  0  0  0  0
    0.3731   -3.3224    0.1138 H   0  0  0  0  0  0  0  0  0  0  0  0
    0.3731    0.0048   -0.4393 H   0  0  0  0  0  0  0  0  0  0  0  0
  1  2  1  0
  1 12  1  0
  2  3  1  0
  2  5  1  0
  2  6  1  0
  3  4  3  0
  7  8  1  0
  8  9  2  0
  8 11  1  0
  9 10  2  0
M  RAD  1   7   2
M  END
>  <reaction>  (9) 
kfir_rxn_11197

>  <mol_properties>  (9) 
{"0": {"label": "*3", "atom_type": "O2s"}, "1": {"label": "*4", "atom_type": "Cs"}, "7": {"label": "*0", "atom_type": "CO"}, "8": {"label": "*1", "atom_type": "CO"}, "11": {"label": "*2", "atom_type": "H0"}}

>  <type>  (9) 
unop_5

>  <geom_source>  (9) 
Heuristics

$$$$

     RDKit          3D

 12 10  0  0  0  0  0  0  0  0999 V2000
   -0.7798    1.4416   -0.6921 O   0  0  0  0  0  0  0  0  0  0  0  0
    0.5414    1.8281   -0.9494 C   0  0  0  0  0  0  0  0  0  0  0  0
    1.5112    1.2034   -0.0333 C   0  0  0  0  0  0  0  0  0  0  0  0
    2.2582    0.6882    0.6676 N   0  0  0  0  0  0  0  0  0  0  0  0
    0.5898    2.9090   -0.8176 H   0  0  0  0  0  0  0  0  0  0  0  0
    0.8543    1.6021   -1.9748 H   0  0  0  0  0  0  0  0  0  0  0  0
   -0.7798   -1.9228   -1.3104 O   0  0  0  0  0  1  0  0  0  0  0  0
   -0.7798   -1.9228   -0.1142 C   0  0  0  0  0  0  0  0  0  0  0  0
   -0.7798   -0.6219    0.6815 C   0  0  0  0  0  0  0  0  0  0  0  0
   -0.7798   -0.6219    1.8776 O   0  0  0  0  0  0  0  0  0  0  0  0
   -0.7798   -2.8439    0.4989 H   0  0  0  0  0  0  0  0  0  0  0  0
   -0.7798    0.4833   -0.0542 H   0  0  0  0  0  0  0  0  0  0  0  0
  1  2  1  0
  1 12  1  0
  2  3  1  0
  2  5  1  0
  2  6  1  0
  3  4  3  0
  7  8  1  0
  8  9  2  0
  8 11  1  0
  9 10  2  0
M  RAD  1   7   2
M  END
>  <reaction>  (10) 
kfir_rxn_11197

>  <mol_properties>  (10) 
{"0": {"label": "*3", "atom_type": "O2s"}, "1": {"label": "*4", "atom_type": "Cs"}, "7": {"label": "*0", "atom_type": "CO"}, "8": {"label": "*1", "atom_type": "CO"}, "11": {"label": "*2", "atom_type": "H0"}}

>  <type>  (10) 
unop_6

>  <geom_source>  (10) 
Heuristics

$$$$

     RDKit          3D

 12 10  0  0  0  0  0  0  0  0999 V2000
   -0.6134    1.2382   -1.0000 O   0  0  0  0  0  0  0  0  0  0  0  0
    0.5309    1.9908   -0.7073 C   0  0  0  0  0  0  0  0  0  0  0  0
    1.1708    1.5940    0.5587 C   0  0  0  0  0  0  0  0  0  0  0  0
    1.6752    1.2561    1.5315 N   0  0  0  0  0  0  0  0  0  0  0  0
    0.2165    3.0311   -0.6234 H   0  0  0  0  0  0  0  0  0  0  0  0
    1.2867    1.9329   -1.4984 H   0  0  0  0  0  0  0  0  0  0  0  0
   -0.6134   -2.1262   -1.6182 O   0  0  0  0  0  1  0  0  0  0  0  0
   -0.6134   -2.1262   -0.4221 C   0  0  0  0  0  0  0  0  0  0  0  0
   -0.6134   -0.8253    0.3736 C   0  0  0  0  0  0  0  0  0  0  0  0
   -0.6134   -0.8253    1.5697 O   0  0  0  0  0  0  0  0  0  0  0  0
   -0.6134   -3.0472    0.1910 H   0  0  0  0  0  0  0  0  0  0  0  0
   -0.6134    0.2800   -0.3621 H   0  0  0  0  0  0  0  0  0  0  0  0
  1  2  1  0
  1 12  1  0
  2  3  1  0
  2  5  1  0
  2  6  1  0
  3  4  3  0
  7  8  1  0
  8  9  2  0
  8 11  1  0
  9 10  2  0
M  RAD  1   7   2
M  END
>  <reaction>  (11) 
kfir_rxn_11197

>  <mol_properties>  (11) 
{"0": {"label": "*3", "atom_type": "O2s"}, "1": {"label": "*4", "atom_type": "Cs"}, "7": {"label": "*0", "atom_type": "CO"}, "8": {"label": "*1", "atom_type": "CO"}, "11": {"label": "*2", "atom_type": "H0"}}

>  <type>  (11) 
unop_7

>  <geom_source>  (11) 
Heuristics

$$$$

     RDKit          3D

 12 10  0  0  0  0  0  0  0  0999 V2000
    0.6123    1.3488    0.0291 O   0  0  0  0  0  0  0  0  0  0  0  0
   -0.7090    1.7353   -0.2282 C   0  0  0  0  0  0  0  0  0  0  0  0
   -1.1484    1.4043   -1.5946 C   0  0  0  0  0  0  0  0  0  0  0  0
   -1.4870    1.1152   -2.6513 N   0  0  0  0  0  0  0  0  0  0  0  0
   -0.7557    2.8172   -0.1038 H   0  0  0  0  0  0  0  0  0  0  0  0
   -1.4229    1.2874    0.4720 H   0  0  0  0  0  0  0  0  0  0  0  0
    0.6122   -2.0156   -0.5891 O   0  0  0  0  0  1  0  0  0  0  0  0
    0.6122   -2.0156    0.6070 C   0  0  0  0  0  0  0  0  0  0  0  0
    0.6122   -0.7147    1.4027 C   0  0  0  0  0  0  0  0  0  0  0  0
    0.6122   -0.7147    2.5988 O   0  0  0  0  0  0  0  0  0  0  0  0
    0.6122   -2.9367    1.2201 H   0  0  0  0  0  0  0  0  0  0  0  0
    0.6123    0.3905    0.6670 H   0  0  0  0  0  0  0  0  0  0  0  0
  1  2  1  0
  1 12  1  0
  2  3  1  0
  2  5  1  0
  2  6  1  0
  3  4  3  0
  7  8  1  0
  8  9  2  0
  8 11  1  0
  9 10  2  0
M  RAD  1   7   2
M  END
>  <reaction>  (12) 
kfir_rxn_11197

>  <mol_properties>  (12) 
{"0": {"label": "*3", "atom_type": "O2s"}, "1": {"label": "*4", "atom_type": "Cs"}, "7": {"label": "*0", "atom_type": "CO"}, "8": {"label": "*1", "atom_type": "CO"}, "11": {"label": "*2", "atom_type": "H0"}}

>  <type>  (12) 
unop_8

>  <geom_source>  (12) 
Heuristics

$$$$

     RDKit          3D

 12 10  0  0  0  0  0  0  0  0999 V2000
   -0.6165    1.7338   -0.1147 O   0  0  0  0  0  0  0  0  0  0  0  0
    0.0441    1.4862   -1.3245 C   0  0  0  0  0  0  0  0  0  0  0  0
    1.2491    0.6548   -1.1611 C   0  0  0  0  0  0  0  0  0  0  0  0
    2.1682   -0.0168   -1.0239 N   0  0  0  0  0  0  0  0  0  0  0  0
    0.3448    2.4530   -1.7283 H   0  0  0  0  0  0  0  0  0  0  0  0
   -0.6011    1.0008   -2.0651 H   0  0  0  0  0  0  0  0  0  0  0  0
   -0.6165   -1.6306   -0.7329 O   0  0  0  0  0  1  0  0  0  0  0  0
   -0.6165   -1.6306    0.4632 C   0  0  0  0  0  0  0  0  0  0  0  0
   -0.6165   -0.3297    1.2589 C   0  0  0  0  0  0  0  0  0  0  0  0
   -0.6165   -0.3297    2.4550 O   0  0  0  0  0  0  0  0  0  0  0  0
   -0.6165   -2.5517    1.0763 H   0  0  0  0  0  0  0  0  0  0  0  0
   -0.6165    0.7756    0.5232 H   0  0  0  0  0  0  0  0  0  0  0  0
  1  2  1  0
  1 12  1  0
  2  3  1  0
  2  5  1  0
  2  6  1  0
  3  4  3  0
  7  8  1  0
  8  9  2  0
  8 11  1  0
  9 10  2  0
M  RAD  1   7   2
M  END
>  <reaction>  (13) 
kfir_rxn_11197

>  <mol_properties>  (13) 
{"0": {"label": "*3", "atom_type": "O2s"}, "1": {"label": "*4", "atom_type": "Cs"}, "7": {"label": "*0", "atom_type": "CO"}, "8": {"label": "*1", "atom_type": "CO"}, "11": {"label": "*2", "atom_type": "H0"}}

>  <type>  (13) 
unop_9

>  <geom_source>  (13) 
Heuristics

$$$$

     RDKit          3D

 12 10  0  0  0  0  0  0  0  0999 V2000
    0.3327    1.5434    0.2210 O   0  0  0  0  0  0  0  0  0  0  0  0
   -0.8115    1.5639   -0.5863 C   0  0  0  0  0  0  0  0  0  0  0  0
   -0.5699    1.0316   -1.9384 C   0  0  0  0  0  0  0  0  0  0  0  0
   -0.3754    0.5884   -2.9778 N   0  0  0  0  0  0  0  0  0  0  0  0
   -1.1210    2.6052   -0.6760 H   0  0  0  0  0  0  0  0  0  0  0  0
   -1.6456    1.0039   -0.1489 H   0  0  0  0  0  0  0  0  0  0  0  0
    0.3327   -1.8210   -0.3973 O   0  0  0  0  0  1  0  0  0  0  0  0
    0.3327   -1.8210    0.7988 C   0  0  0  0  0  0  0  0  0  0  0  0
    0.3327   -0.5200    1.5946 C   0  0  0  0  0  0  0  0  0  0  0  0
    0.3327   -0.5200    2.7907 O   0  0  0  0  0  0  0  0  0  0  0  0
    0.3327   -2.7420    1.4119 H   0  0  0  0  0  0  0  0  0  0  0  0
    0.3327    0.5852    0.8588 H   0  0  0  0  0  0  0  0  0  0  0  0
  1  2  1  0
  1 12  1  0
  2  3  1  0
  2  5  1  0
  2  6  1  0
  3  4  3  0
  7  8  1  0
  8  9  2  0
  8 11  1  0
  9 10  2  0
M  RAD  1   7   2
M  END
>  <reaction>  (14) 
kfir_rxn_11197

>  <mol_properties>  (14) 
{"0": {"label": "*3", "atom_type": "O2s"}, "1": {"label": "*4", "atom_type": "Cs"}, "7": {"label": "*0", "atom_type": "CO"}, "8": {"label": "*1", "atom_type": "CO"}, "11": {"label": "*2", "atom_type": "H0"}}

>  <type>  (14) 
unop_10

>  <geom_source>  (14) 
Heuristics

$$$$

     RDKit          3D

 12 10  0  0  0  0  0  0  0  0999 V2000
   -0.2095    1.0635   -1.2076 O   0  0  0  0  0  0  0  0  0  0  0  0
    0.4512    2.0841   -0.5124 C   0  0  0  0  0  0  0  0  0  0  0  0
    0.3596    1.9350    0.9502 C   0  0  0  0  0  0  0  0  0  0  0  0
    0.3052    1.7914    2.0865 N   0  0  0  0  0  0  0  0  0  0  0  0
   -0.0257    3.0231   -0.7935 H   0  0  0  0  0  0  0  0  0  0  0  0
    1.5120    2.1557   -0.7770 H   0  0  0  0  0  0  0  0  0  0  0  0
   -0.2095   -2.3009   -1.8259 O   0  0  0  0  0  1  0  0  0  0  0  0
   -0.2095   -2.3009   -0.6297 C   0  0  0  0  0  0  0  0  0  0  0  0
   -0.2095   -0.9999    0.1660 C   0  0  0  0  0  0  0  0  0  0  0  0
   -0.2095   -0.9999    1.3621 O   0  0  0  0  0  0  0  0  0  0  0  0
   -0.2095   -3.2219   -0.0166 H   0  0  0  0  0  0  0  0  0  0  0  0
   -0.2095    0.1053   -0.5697 H   0  0  0  0  0  0  0  0  0  0  0  0
  1  2  1  0
  1 12  1  0
  2  3  1  0
  2  5  1  0
  2  6  1  0
  3  4  3  0
  7  8  1  0
  8  9  2  0
  8 11  1  0
  9 10  2  0
M  RAD  1   7   2
M  END
>  <reaction>  (15) 
kfir_rxn_11197

>  <mol_properties>  (15) 
{"0": {"label": "*3", "atom_type": "O2s"}, "1": {"label": "*4", "atom_type": "Cs"}, "7": {"label": "*0", "atom_type": "CO"}, "8": {"label": "*1", "atom_type": "CO"}, "11": {"label": "*2", "atom_type": "H0"}}

>  <type>  (15) 
unop_11

>  <geom_source>  (15) 
Heuristics

$$$$

     RDKit          3D

 12 10  0  0  0  0  0  0  0  0999 V2000
   -0.3731    1.7553    0.1130 O   0  0  0  0  0  0  0  0  0  0  0  0
   -0.3731    1.4097   -1.2442 C   0  0  0  0  0  0  0  0  0  0  0  0
    0.8077    0.6210   -1.6359 C   0  0  0  0  0  0  0  0  0  0  0  0
    1.7170   -0.0167   -1.9211 N   0  0  0  0  0  0  0  0  0  0  0  0
   -0.3693    2.3406   -1.8112 H   0  0  0  0  0  0  0  0  0  0  0  0
   -1.2658    0.8449   -1.5350 H   0  0  0  0  0  0  0  0  0  0  0  0
   -0.3731   -1.6091   -0.5053 O   0  0  0  0  0  1  0  0  0  0  0  0
   -0.3731   -1.6091    0.6908 C   0  0  0  0  0  0  0  0  0  0  0  0
   -0.3731   -0.3081    1.4866 C   0  0  0  0  0  0  0  0  0  0  0  0
   -0.3731   -0.3081    2.6827 O   0  0  0  0  0  0  0  0  0  0  0  0
   -0.3731   -2.5301    1.3039 H   0  0  0  0  0  0  0  0  0  0  0  0
   -0.3731    0.7971    0.7508 H   0  0  0  0  0  0  0  0  0  0  0  0
  1  2  1  0
  1 12  1  0
  2  3  1  0
  2  5  1  0
  2  6  1  0
  3  4  3  0
  7  8  1  0
  8  9  2  0
  8 11  1  0
  9 10  2  0
M  RAD  1   7   2
M  END
>  <reaction>  (16) 
kfir_rxn_11197

>  <mol_properties>  (16) 
{"0": {"label": "*3", "atom_type": "O2s"}, "1": {"label": "*4", "atom_type": "Cs"}, "7": {"label": "*0", "atom_type": "CO"}, "8": {"label": "*1", "atom_type": "CO"}, "11": {"label": "*2", "atom_type": "H0"}}

>  <type>  (16) 
unop_12

>  <geom_source>  (16) 
Heuristics

$$$$

     RDKit          3D

 12 10  0  0  0  0  0  0  0  0999 V2000
   -0.0331    1.6869    0.2496 O   0  0  0  0  0  0  0  0  0  0  0  0
   -0.6937    1.4394   -0.9602 C   0  0  0  0  0  0  0  0  0  0  0  0
    0.1572    0.7562   -1.9498 C   0  0  0  0  0  0  0  0  0  0  0  0
    0.8210    0.1988   -2.7003 N   0  0  0  0  0  0  0  0  0  0  0  0
   -0.9877    2.4066   -1.3678 H   0  0  0  0  0  0  0  0  0  0  0  0
   -1.6026    0.8418   -0.8292 H   0  0  0  0  0  0  0  0  0  0  0  0
   -0.0331   -1.6775   -0.3686 O   0  0  0  0  0  1  0  0  0  0  0  0
   -0.0331   -1.6775    0.8275 C   0  0  0  0  0  0  0  0  0  0  0  0
   -0.0331   -0.3765    1.6232 C   0  0  0  0  0  0  0  0  0  0  0  0
   -0.0331   -0.3765    2.8193 O   0  0  0  0  0  0  0  0  0  0  0  0
   -0.0331   -2.5985    1.4406 H   0  0  0  0  0  0  0  0  0  0  0  0
   -0.0331    0.7287    0.8875 H   0  0  0  0  0  0  0  0  0  0  0  0
  1  2  1  0
  1 12  1  0
  2  3  1  0
  2  5  1  0
  2  6  1  0
  3  4  3  0
  7  8  1  0
  8  9  2  0
  8 11  1  0
  9 10  2  0
M  RAD  1   7   2
M  END
>  <reaction>  (17) 
kfir_rxn_11197

>  <mol_properties>  (17) 
{"0": {"label": "*3", "atom_type": "O2s"}, "1": {"label": "*4", "atom_type": "Cs"}, "7": {"label": "*0", "atom_type": "CO"}, "8": {"label": "*1", "atom_type": "CO"}, "11": {"label": "*2", "atom_type": "H0"}}

>  <type>  (17) 
unop_13

>  <geom_source>  (17) 
gaussian_log

$$$$
