
     RDKit          3D

  7  7  0  0  0  0  0  0  0  0999 V2000
   -0.7268   -0.0467    0.0634 C   0  0  0  0  0  0  0  0  0  0  0  0
    0.7235    0.1046    0.0109 C   0  0  0  0  0  0  0  0  0  0  0  0
    0.0414   -0.7158   -0.9186 O   0  0  0  0  0  0  0  0  0  0  0  0
   -1.3615    0.7523   -0.3079 H   0  0  0  0  0  0  0  0  0  0  0  0
   -1.1708   -0.6854    0.8209 H   0  0  0  0  0  0  0  0  0  0  0  0
    1.1518    1.0144   -0.3988 H   0  0  0  0  0  0  0  0  0  0  0  0
    1.3425   -0.4233    0.7300 H   0  0  0  0  0  0  0  0  0  0  0  0
  1  2  1  0
  1  3  1  0
  1  4  1  0
  1  5  1  0
  2  3  1  0
  2  6  1  0
  2  7  1  0
M  END
>  <reaction>  (1) 
kfir_rxn_10218

>  <mol_properties>  (1) 
{"0": {"label": "donator", "atom_type": "Cs"}, "3": {"label": "d_hydrogen", "atom_type": "H0"}}

>  <type>  (1) 
r1h

$$$$

     RDKit          3D

  7  6  0  0  0  0  0  0  0  0999 V2000
    0.2957    1.7744   -0.2652 O   0  0  0  0  0  1  0  0  0  0  0  0
    0.1775    0.5509   -0.0655 C   0  0  0  0  0  0  0  0  0  0  0  0
    1.3133   -0.2016    0.2938 C   0  0  0  0  0  0  0  0  0  0  0  0
    2.2819   -0.7248    0.5787 O   0  0  0  0  0  0  0  0  0  0  0  0
   -1.0599   -0.2683   -0.1587 C   0  0  0  0  0  0  0  0  0  0  0  0
   -1.0578   -1.4528    0.0574 O   0  0  0  0  0  0  0  0  0  0  0  0
   -1.9632    0.3007   -0.4391 H   0  0  0  0  0  0  0  0  0  0  0  0
  1  2  1  0
  2  5  1  0
  2  3  2  0
  3  4  2  0
  5  6  2  0
  5  7  1  0
M  RAD  1   1   2
M  END
>  <reaction>  (2) 
kfir_rxn_10218

>  <mol_properties>  (2) 
{"0": {"label": "acceptor", "atom_type": "O2s"}}

>  <type>  (2) 
r2

$$$$

     RDKit          3D

  8  7  0  0  0  0  0  0  0  0999 V2000
    2.5239   -0.6612   -0.4708 O   0  0  0  0  0  0  0  0  0  0  0  0
    1.4827   -0.1964   -0.3180 C   0  0  0  0  0  0  0  0  0  0  0  0
    0.2520    0.2657   -0.1185 C   0  0  0  0  0  0  0  0  0  0  0  0
   -0.0747    1.5717   -0.3208 O   0  0  0  0  0  0  0  0  0  0  0  0
   -0.7746   -0.6510    0.3287 C   0  0  0  0  0  0  0  0  0  0  0  0
   -1.9008   -0.2423    0.5142 O   0  0  0  0  0  0  0  0  0  0  0  0
   -1.0178    1.6170   -0.1014 H   0  0  0  0  0  0  0  0  0  0  0  0
   -0.4907   -1.7035    0.4866 H   0  0  0  0  0  0  0  0  0  0  0  0
  1  2  2  0
  2  3  2  0
  3  5  1  0
  3  4  1  0
  4  7  1  0
  5  6  2  0
  5  8  1  0
M  END
>  <reaction>  (3) 
kfir_rxn_10218

>  <mol_properties>  (3) 
{"0": {"label": "acceptor", "atom_type": "O2s"}, "7": {"label": "a_hydrogen", "atom_type": "H0"}}

>  <type>  (3) 
r2h

$$$$

     RDKit          3D

 14 13  0  0  0  0  0  0  0  0999 V2000
    0.5019   -1.3194    0.3236 O   0  0  0  0  0  0  0  0  0  0  0  0
    0.8932   -0.0504    0.4622 C   0  0  0  0  0  0  0  0  0  0  0  0
    0.9116    0.4870    1.6988 C   0  0  0  0  0  0  0  0  0  0  0  0
    0.9632    0.9323    2.7531 O   0  0  0  0  0  0  0  0  0  0  0  0
    1.2708    0.8224   -0.6440 C   0  0  0  0  0  0  0  0  0  0  0  0
    1.1988    0.4975   -1.8034 O   0  0  0  0  0  0  0  0  0  0  0  0
    1.6271    1.8286   -0.3448 H   0  0  0  0  0  0  0  0  0  0  0  0
   -1.8651   -1.1085   -0.5093 C   0  0  0  0  0  3  0  0  0  0  0  0
   -1.9290   -0.4846   -1.8172 C   0  0  0  0  0  0  0  0  0  0  0  0
   -2.1118    0.2317   -0.5669 O   0  0  0  0  0  0  0  0  0  0  0  0
   -0.5743   -1.3450   -0.0686 H   0  0  0  0  0  0  0  0  0  0  0  0
   -2.5831   -1.7683   -0.0266 H   0  0  0  0  0  0  0  0  0  0  0  0
   -1.0005   -0.2610   -2.3288 H   0  0  0  0  0  0  0  0  0  0  0  0
   -2.8314   -0.5502   -2.4148 H   0  0  0  0  0  0  0  0  0  0  0  0
  1  2  1  0
  1 11  1  0
  2  5  1  0
  2  3  2  0
  3  4  2  0
  5  6  2  0
  5  7  1  0
  8  9  1  0
  8 10  1  0
  8 12  1  0
  9 10  1  0
  9 13  1  0
  9 14  1  0
M  RAD  1   8   2
M  END
>  <reaction>  (4) 
kfir_rxn_10218

>  <mol_properties>  (4) 
{"0": {"label": "*1", "atom_type": "O2s"}, "1": {"label": "*0", "atom_type": "Cd"}, "7": {"label": "*3", "atom_type": "Cs"}, "9": {"label": "*4", "atom_type": "O2s"}, "10": {"label": "*2", "atom_type": "H0"}}

>  <type>  (4) 
ts

$$$$

     RDKit          3D

 14 13  0  0  0  0  0  0  0  0999 V2000
    0.5457   -1.2098    0.1325 O   0  0  0  0  0  0  0  0  0  0  0  0
    0.7785   -0.0901    0.8710 C   0  0  0  0  0  0  0  0  0  0  0  0
    1.2167   -0.1463    2.1252 C   0  0  0  0  0  0  0  0  0  0  0  0
    1.5946   -0.1230    3.2115 O   0  0  0  0  0  0  0  0  0  0  0  0
    0.5411    1.2053    0.2712 C   0  0  0  0  0  0  0  0  0  0  0  0
    0.1416    1.2703   -0.8716 O   0  0  0  0  0  0  0  0  0  0  0  0
    0.7353    2.0993    0.8846 H   0  0  0  0  0  0  0  0  0  0  0  0
   -1.5414   -0.7087   -1.0820 C   0  0  0  0  0  3  0  0  0  0  0  0
   -1.5414   -0.7087   -2.5410 C   0  0  0  0  0  0  0  0  0  0  0  0
   -1.5414    0.5037   -1.8115 O   0  0  0  0  0  0  0  0  0  0  0  0
   -0.4386   -0.9734   -0.4403 H   0  0  0  0  0  0  0  0  0  0  0  0
   -2.4603   -0.9293   -0.5472 H   0  0  0  0  0  0  0  0  0  0  0  0
   -0.6224   -0.9293   -3.0758 H   0  0  0  0  0  0  0  0  0  0  0  0
   -2.4603   -0.9293   -3.0758 H   0  0  0  0  0  0  0  0  0  0  0  0
  1  2  1  0
  1 11  1  0
  2  5  1  0
  2  3  2  0
  3  4  2  0
  5  6  2  0
  5  7  1  0
  8  9  1  0
  8 10  1  0
  8 12  1  0
  9 10  1  0
  9 13  1  0
  9 14  1  0
M  RAD  1   8   2
M  END
>  <reaction>  (5) 
kfir_rxn_10218

>  <mol_properties>  (5) 
{"0": {"label": "*1", "atom_type": "O2s"}, "1": {"label": "*0", "atom_type": "Cd"}, "7": {"label": "*3", "atom_type": "Cs"}, "9": {"label": "*4", "atom_type": "O2s"}, "10": {"label": "*2", "atom_type": "H0"}}

>  <type>  (5) 
unop_1

>  <geom_source>  (5) 
Heuristics

$$$$

     RDKit          3D

 14 13  0  0  0  0  0  0  0  0999 V2000
   -0.0160   -0.6541    1.3457 O   0  0  0  0  0  0  0  0  0  0  0  0
    0.9674   -0.2115    0.5149 C   0  0  0  0  0  0  0  0  0  0  0  0
    2.1926    0.0656    0.9510 C   0  0  0  0  0  3  0  0  0  0  0  0
    3.2703    0.3229    1.2608 O   0  0  0  0  0  0  0  0  0  0  0  0
    0.6697   -0.0364   -0.8904 C   0  0  0  0  0  0  0  0  0  0  0  0
   -0.4436   -0.2855   -1.3007 O   0  0  0  0  0  0  0  0  0  0  0  0
    1.4784    0.3225   -1.5464 H   0  0  0  0  0  0  0  0  0  0  0  0
   -2.1030   -0.1530    0.1312 C   0  0  0  0  0  0  0  0  0  0  0  0
   -2.1030   -0.1530   -1.3279 C   0  0  0  0  0  0  0  0  0  0  0  0
   -2.1030    1.0594   -0.5983 O   0  0  0  0  0  0  0  0  0  0  0  0
   -1.0003   -0.4177    0.7729 H   0  0  0  0  0  0  0  0  0  0  0  0
   -3.0219   -0.3736    0.6660 H   0  0  0  0  0  0  0  0  0  0  0  0
   -1.1841   -0.3736   -1.8626 H   0  0  0  0  0  0  0  0  0  0  0  0
   -3.0219   -0.3736   -1.8626 H   0  0  0  0  0  0  0  0  0  0  0  0
  1  2  1  0
  1 11  1  0
  2  5  2  3
  2  3  1  0
  3  4  2  0
  5  6  1  0
  5  7  1  0
  6 13  1  0
  8  9  2  0
  8 10  1  0
  8 12  1  0
  9 10  1  0
  9 14  1  0
M  RAD  1   3   2
M  END
>  <reaction>  (6) 
kfir_rxn_10218

>  <mol_properties>  (6) 
{"0": {"label": "*1", "atom_type": "O2s"}, "1": {"label": "*0", "atom_type": "Cd"}, "7": {"label": "*3", "atom_type": "Cs"}, "9": {"label": "*4", "atom_type": "O2s"}, "10": {"label": "*2", "atom_type": "H0"}}

>  <type>  (6) 
unop_2

>  <geom_source>  (6) 
Heuristics

$$$$

     RDKit          3D

 14 13  0  0  0  0  0  0  0  0999 V2000
    0.8271   -0.8952   -0.2088 O   0  0  0  0  0  0  0  0  0  0  0  0
    0.7158   -0.1897    0.9501 C   0  0  0  0  0  0  0  0  0  0  0  0
    1.3019   -0.5813    2.0777 C   0  0  0  0  0  0  0  0  0  0  0  0
    1.7810   -0.8620    3.0852 O   0  0  0  0  0  0  0  0  0  0  0  0
   -0.0668    1.0276    0.9557 C   0  0  0  0  0  0  0  0  0  0  0  0
   -0.6063    1.3955   -0.0658 O   0  0  0  0  0  0  0  0  0  0  0  0
   -0.1450    1.5842    1.9029 H   0  0  0  0  0  0  0  0  0  0  0  0
   -1.2599   -0.3941   -1.4233 C   0  0  0  0  0  3  0  0  0  0  0  0
   -1.2599   -0.3941   -2.8824 C   0  0  0  0  0  0  0  0  0  0  0  0
   -1.2599    0.8183   -2.1528 O   0  0  0  0  0  0  0  0  0  0  0  0
   -0.1572   -0.6588   -0.7816 H   0  0  0  0  0  0  0  0  0  0  0  0
   -2.1788   -0.6147   -0.8886 H   0  0  0  0  0  0  0  0  0  0  0  0
   -0.3410   -0.6147   -3.4171 H   0  0  0  0  0  0  0  0  0  0  0  0
   -2.1788   -0.6147   -3.4171 H   0  0  0  0  0  0  0  0  0  0  0  0
  1  2  1  0
  1 11  1  0
  2  5  1  0
  2  3  2  0
  3  4  2  0
  5  6  2  0
  5  7  1  0
  8  9  1  0
  8 10  1  0
  8 12  1  0
  9 10  1  0
  9 13  1  0
  9 14  1  0
M  RAD  1   8   2
M  END
>  <reaction>  (7) 
kfir_rxn_10218

>  <mol_properties>  (7) 
{"0": {"label": "*1", "atom_type": "O2s"}, "1": {"label": "*0", "atom_type": "Cd"}, "7": {"label": "*3", "atom_type": "Cs"}, "9": {"label": "*4", "atom_type": "O2s"}, "10": {"label": "*2", "atom_type": "H0"}}

>  <type>  (7) 
unop_3

>  <geom_source>  (7) 
Heuristics

$$$$

     RDKit          3D

 14 13  0  0  0  0  0  0  0  0999 V2000
    0.4740    0.6456    1.0279 O   0  0  0  0  0  0  0  0  0  0  0  0
    0.8051   -0.6095    0.6176 C   0  0  0  0  0  0  0  0  0  0  0  0
    1.3875   -1.4894    1.4267 C   0  0  0  0  0  0  0  0  0  0  0  0
    1.8911   -2.2976    2.0722 O   0  0  0  0  0  0  0  0  0  0  0  0
    0.5137   -0.9996   -0.7452 C   0  0  0  0  0  0  0  0  0  0  0  0
   -0.0171   -0.2066   -1.4930 O   0  0  0  0  0  0  0  0  0  0  0  0
    0.7891   -2.0191   -1.0582 H   0  0  0  0  0  0  0  0  0  0  0  0
   -1.6130    1.1467   -0.1866 C   0  0  0  0  0  3  0  0  0  0  0  0
   -1.6130    1.1467   -1.6457 C   0  0  0  0  0  0  0  0  0  0  0  0
   -1.6130    2.3591   -0.9162 O   0  0  0  0  0  0  0  0  0  0  0  0
   -0.5103    0.8820    0.4551 H   0  0  0  0  0  0  0  0  0  0  0  0
   -2.5319    0.9261    0.3481 H   0  0  0  0  0  0  0  0  0  0  0  0
   -0.6941    0.9261   -2.1804 H   0  0  0  0  0  0  0  0  0  0  0  0
   -2.5319    0.9261   -2.1804 H   0  0  0  0  0  0  0  0  0  0  0  0
  1  2  1  0
  1 11  1  0
  2  5  1  0
  2  3  2  0
  3  4  2  0
  5  6  2  0
  5  7  1  0
  8  9  1  0
  8 10  1  0
  8 12  1  0
  9 10  1  0
  9 13  1  0
  9 14  1  0
M  RAD  1   8   2
M  END
>  <reaction>  (8) 
kfir_rxn_10218

>  <mol_properties>  (8) 
{"0": {"label": "*1", "atom_type": "O2s"}, "1": {"label": "*0", "atom_type": "Cd"}, "7": {"label": "*3", "atom_type": "Cs"}, "9": {"label": "*4", "atom_type": "O2s"}, "10": {"label": "*2", "atom_type": "H0"}}

>  <type>  (8) 
unop_4

>  <geom_source>  (8) 
Heuristics

$$$$

     RDKit          3D

 14 13  0  0  0  0  0  0  0  0999 V2000
    1.0310   -0.3910   -0.3384 O   0  0  0  0  0  0  0  0  0  0  0  0
    0.6809   -0.3069    0.9744 C   0  0  0  0  0  0  0  0  0  0  0  0
    1.5534   -0.5164    1.9557 C   0  0  0  0  0  0  0  0  0  0  0  0
    2.2552   -0.6849    2.8516 O   0  0  0  0  0  0  0  0  0  0  0  0
   -0.6869    0.0215    1.3139 C   0  0  0  0  0  0  0  0  0  0  0  0
   -1.4922    0.2149    0.4285 O   0  0  0  0  0  0  0  0  0  0  0  0
   -0.9507    0.0848    2.3815 H   0  0  0  0  0  0  0  0  0  0  0  0
   -1.0560    0.1101   -1.5529 C   0  0  0  0  0  3  0  0  0  0  0  0
   -1.0560    0.1101   -3.0120 C   0  0  0  0  0  0  0  0  0  0  0  0
   -1.0560    1.3225   -2.2825 O   0  0  0  0  0  0  0  0  0  0  0  0
    0.0467   -0.1546   -0.9112 H   0  0  0  0  0  0  0  0  0  0  0  0
   -1.9749   -0.1105   -1.0182 H   0  0  0  0  0  0  0  0  0  0  0  0
   -0.1371   -0.1105   -3.5468 H   0  0  0  0  0  0  0  0  0  0  0  0
   -1.9749   -0.1105   -3.5468 H   0  0  0  0  0  0  0  0  0  0  0  0
  1  2  1  0
  1 11  1  0
  2  5  1  0
  2  3  2  0
  3  4  2  0
  5  6  2  0
  5  7  1  0
  8  9  1  0
  8 10  1  0
  8 12  1  0
  9 10  1  0
  9 13  1  0
  9 14  1  0
M  RAD  1   8   2
M  END
>  <reaction>  (9) 
kfir_rxn_10218

>  <mol_properties>  (9) 
{"0": {"label": "*1", "atom_type": "O2s"}, "1": {"label": "*0", "atom_type": "Cd"}, "7": {"label": "*3", "atom_type": "Cs"}, "9": {"label": "*4", "atom_type": "O2s"}, "10": {"label": "*2", "atom_type": "H0"}}

>  <type>  (9) 
unop_5

>  <geom_source>  (9) 
Heuristics

$$$$

     RDKit          3D

 14 13  0  0  0  0  0  0  0  0999 V2000
    0.7489    0.7362    0.5852 O   0  0  0  0  0  0  0  0  0  0  0  0
    0.7227   -0.6149    0.7492 C   0  0  0  0  0  0  0  0  0  0  0  0
    1.0904   -1.1984    1.8861 C   0  0  0  0  0  0  0  0  0  0  0  0
    1.3937   -1.7667    2.8393 O   0  0  0  0  0  0  0  0  0  0  0  0
    0.2798   -1.4447   -0.3506 C   0  0  0  0  0  0  0  0  0  0  0  0
   -0.0581   -0.9251   -1.3925 O   0  0  0  0  0  0  0  0  0  0  0  0
    0.2657   -2.5355   -0.1984 H   0  0  0  0  0  0  0  0  0  0  0  0
   -1.3381    1.2373   -0.6293 C   0  0  0  0  0  3  0  0  0  0  0  0
   -1.3381    1.2373   -2.0884 C   0  0  0  0  0  0  0  0  0  0  0  0
   -1.3381    2.4497   -1.3589 O   0  0  0  0  0  0  0  0  0  0  0  0
   -0.2354    0.9725    0.0124 H   0  0  0  0  0  0  0  0  0  0  0  0
   -2.2570    1.0167   -0.0946 H   0  0  0  0  0  0  0  0  0  0  0  0
   -0.4192    1.0167   -2.6232 H   0  0  0  0  0  0  0  0  0  0  0  0
   -2.2570    1.0167   -2.6232 H   0  0  0  0  0  0  0  0  0  0  0  0
  1  2  1  0
  1 11  1  0
  2  5  1  0
  2  3  2  0
  3  4  2  0
  5  6  2  0
  5  7  1  0
  8  9  1  0
  8 10  1  0
  8 12  1  0
  9 10  1  0
  9 13  1  0
  9 14  1  0
M  RAD  1   8   2
M  END
>  <reaction>  (10) 
kfir_rxn_10218

>  <mol_properties>  (10) 
{"0": {"label": "*1", "atom_type": "O2s"}, "1": {"label": "*0", "atom_type": "Cd"}, "7": {"label": "*3", "atom_type": "Cs"}, "9": {"label": "*4", "atom_type": "O2s"}, "10": {"label": "*2", "atom_type": "H0"}}

>  <type>  (10) 
unop_6

>  <geom_source>  (10) 
Heuristics

$$$$

     RDKit          3D

 14 13  0  0  0  0  0  0  0  0999 V2000
    0.9703    0.5590    0.1325 O   0  0  0  0  0  0  0  0  0  0  0  0
    0.6694   -0.5443    0.8710 C   0  0  0  0  0  0  0  0  0  0  0  0
    1.0853   -0.6932    2.1252 C   0  0  0  0  0  0  0  0  0  0  0  0
    1.4115   -0.8856    3.2115 O   0  0  0  0  0  0  0  0  0  0  0  0
   -0.1302   -1.5908    0.2712 C   0  0  0  0  0  0  0  0  0  0  0  0
   -0.5157   -1.4673   -0.8716 O   0  0  0  0  0  0  0  0  0  0  0  0
   -0.3631   -2.4755    0.8846 H   0  0  0  0  0  0  0  0  0  0  0  0
   -1.1167    1.0601   -1.0820 C   0  0  0  0  0  3  0  0  0  0  0  0
   -1.1167    1.0601   -2.5410 C   0  0  0  0  0  0  0  0  0  0  0  0
   -1.1167    2.2724   -1.8115 O   0  0  0  0  0  0  0  0  0  0  0  0
   -0.0140    0.7953   -0.4403 H   0  0  0  0  0  0  0  0  0  0  0  0
   -2.0356    0.8394   -0.5472 H   0  0  0  0  0  0  0  0  0  0  0  0
   -0.1978    0.8394   -3.0758 H   0  0  0  0  0  0  0  0  0  0  0  0
   -2.0356    0.8394   -3.0758 H   0  0  0  0  0  0  0  0  0  0  0  0
  1  2  1  0
  1 11  1  0
  2  5  1  0
  2  3  2  0
  3  4  2  0
  5  6  2  0
  5  7  1  0
  8  9  1  0
  8 10  1  0
  8 12  1  0
  9 10  1  0
  9 13  1  0
  9 14  1  0
M  RAD  1   8   2
M  END
>  <reaction>  (11) 
kfir_rxn_10218

>  <mol_properties>  (11) 
{"0": {"label": "*1", "atom_type": "O2s"}, "1": {"label": "*0", "atom_type": "Cd"}, "7": {"label": "*3", "atom_type": "Cs"}, "9": {"label": "*4", "atom_type": "O2s"}, "10": {"label": "*2", "atom_type": "H0"}}

>  <type>  (11) 
unop_7

>  <geom_source>  (11) 
Heuristics

$$$$

     RDKit          3D

 14 13  0  0  0  0  0  0  0  0999 V2000
    0.2679   -1.2672    0.5852 O   0  0  0  0  0  0  0  0  0  0  0  0
    0.8580   -0.0514    0.7492 C   0  0  0  0  0  0  0  0  0  0  0  0
    1.4505    0.3015    1.8861 C   0  0  0  0  0  0  0  0  0  0  0  0
    1.9788    0.6701    2.8393 O   0  0  0  0  0  0  0  0  0  0  0  0
    0.8401    0.8890   -0.3506 C   0  0  0  0  0  0  0  0  0  0  0  0
    0.3031    0.5794   -1.3925 O   0  0  0  0  0  0  0  0  0  0  0  0
    1.3228    1.8673   -0.1984 H   0  0  0  0  0  0  0  0  0  0  0  0
   -1.8191   -0.7661   -0.6293 C   0  0  0  0  0  3  0  0  0  0  0  0
   -1.8191   -0.7661   -2.0884 C   0  0  0  0  0  0  0  0  0  0  0  0
   -1.8191    0.4463   -1.3589 O   0  0  0  0  0  0  0  0  0  0  0  0
   -0.7164   -1.0308    0.0124 H   0  0  0  0  0  0  0  0  0  0  0  0
   -2.7380   -0.9867   -0.0946 H   0  0  0  0  0  0  0  0  0  0  0  0
   -0.9002   -0.9867   -2.6232 H   0  0  0  0  0  0  0  0  0  0  0  0
   -2.7380   -0.9867   -2.6232 H   0  0  0  0  0  0  0  0  0  0  0  0
  1  2  1  0
  1 11  1  0
  2  5  1  0
  2  3  2  0
  3  4  2  0
  5  6  2  0
  5  7  1  0
  8  9  1  0
  8 10  1  0
  8 12  1  0
  9 10  1  0
  9 13  1  0
  9 14  1  0
M  RAD  1   8   2
M  END
>  <reaction>  (12) 
kfir_rxn_10218

>  <mol_properties>  (12) 
{"0": {"label": "*1", "atom_type": "O2s"}, "1": {"label": "*0", "atom_type": "Cd"}, "7": {"label": "*3", "atom_type": "Cs"}, "9": {"label": "*4", "atom_type": "O2s"}, "10": {"label": "*2", "atom_type": "H0"}}

>  <type>  (12) 
unop_8

>  <geom_source>  (12) 
Heuristics

$$$$

     RDKit          3D

 14 13  0  0  0  0  0  0  0  0999 V2000
    0.2176    0.3188    1.3457 O   0  0  0  0  0  0  0  0  0  0  0  0
    0.8928   -0.5220    0.5149 C   0  0  0  0  0  0  0  0  0  0  0  0
    1.8587   -1.3251    0.9510 C   0  0  0  0  0  3  0  0  0  0  0  0
    2.7020   -2.0437    1.2608 O   0  0  0  0  0  0  0  0  0  0  0  0
    0.5481   -0.5428   -0.8904 C   0  0  0  0  0  0  0  0  0  0  0  0
   -0.3307    0.1846   -1.3007 O   0  0  0  0  0  0  0  0  0  0  0  0
    1.1057   -1.2298   -1.5464 H   0  0  0  0  0  0  0  0  0  0  0  0
   -1.8694    0.8199    0.1312 C   0  0  0  0  0  0  0  0  0  0  0  0
   -1.8694    0.8199   -1.3279 C   0  0  0  0  0  0  0  0  0  0  0  0
   -1.8694    2.0323   -0.5983 O   0  0  0  0  0  0  0  0  0  0  0  0
   -0.7667    0.5552    0.7729 H   0  0  0  0  0  0  0  0  0  0  0  0
   -2.7884    0.5993    0.6660 H   0  0  0  0  0  0  0  0  0  0  0  0
   -0.9505    0.5993   -1.8626 H   0  0  0  0  0  0  0  0  0  0  0  0
   -2.7884    0.5993   -1.8626 H   0  0  0  0  0  0  0  0  0  0  0  0
  1  2  1  0
  1 11  1  0
  2  5  2  3
  2  3  1  0
  3  4  2  0
  5  6  1  0
  5  7  1  0
  6 13  1  0
  8  9  2  0
  8 10  1  0
  8 12  1  0
  9 10  1  0
  9 14  1  0
M  RAD  1   3   2
M  END
>  <reaction>  (13) 
kfir_rxn_10218

>  <mol_properties>  (13) 
{"0": {"label": "*1", "atom_type": "O2s"}, "1": {"label": "*0", "atom_type": "Cd"}, "7": {"label": "*3", "atom_type": "Cs"}, "9": {"label": "*4", "atom_type": "O2s"}, "10": {"label": "*2", "atom_type": "H0"}}

>  <type>  (13) 
unop_9

>  <geom_source>  (13) 
Heuristics

$$$$

     RDKit          3D

 14 13  0  0  0  0  0  0  0  0999 V2000
    0.0641   -1.0616    1.0279 O   0  0  0  0  0  0  0  0  0  0  0  0
    0.9290   -0.0937    0.6176 C   0  0  0  0  0  0  0  0  0  0  0  0
    1.8474    0.4259    1.4267 C   0  0  0  0  0  0  0  0  0  0  0  0
    2.6630    0.9173    2.0722 O   0  0  0  0  0  0  0  0  0  0  0  0
    0.8464    0.3862   -0.7452 C   0  0  0  0  0  0  0  0  0  0  0  0
    0.0135   -0.0794   -1.4930 O   0  0  0  0  0  0  0  0  0  0  0  0
    1.5547    1.1695   -1.0582 H   0  0  0  0  0  0  0  0  0  0  0  0
   -2.0229   -0.5606   -0.1866 C   0  0  0  0  0  3  0  0  0  0  0  0
   -2.0229   -0.5606   -1.6457 C   0  0  0  0  0  0  0  0  0  0  0  0
   -2.0229    0.6518   -0.9162 O   0  0  0  0  0  0  0  0  0  0  0  0
   -0.9202   -0.8253    0.4551 H   0  0  0  0  0  0  0  0  0  0  0  0
   -2.9418   -0.7812    0.3481 H   0  0  0  0  0  0  0  0  0  0  0  0
   -1.1040   -0.7812   -2.1804 H   0  0  0  0  0  0  0  0  0  0  0  0
   -2.9418   -0.7812   -2.1804 H   0  0  0  0  0  0  0  0  0  0  0  0
  1  2  1  0
  1 11  1  0
  2  5  1  0
  2  3  2  0
  3  4  2  0
  5  6  2  0
  5  7  1  0
  8  9  1  0
  8 10  1  0
  8 12  1  0
  9 10  1  0
  9 13  1  0
  9 14  1  0
M  RAD  1   8   2
M  END
>  <reaction>  (14) 
kfir_rxn_10218

>  <mol_properties>  (14) 
{"0": {"label": "*1", "atom_type": "O2s"}, "1": {"label": "*0", "atom_type": "Cd"}, "7": {"label": "*3", "atom_type": "Cs"}, "9": {"label": "*4", "atom_type": "O2s"}, "10": {"label": "*2", "atom_type": "H0"}}

>  <type>  (14) 
unop_10

>  <geom_source>  (14) 
Heuristics

$$$$

     RDKit          3D

 14 13  0  0  0  0  0  0  0  0999 V2000
    1.0783    0.1509   -0.2088 O   0  0  0  0  0  0  0  0  0  0  0  0
    0.6588   -0.4271    0.9501 C   0  0  0  0  0  0  0  0  0  0  0  0
    1.3587   -0.3444    2.0777 C   0  0  0  0  0  0  0  0  0  0  0  0
    1.9131   -0.3118    3.0852 O   0  0  0  0  0  0  0  0  0  0  0  0
   -0.5912   -1.1564    0.9557 C   0  0  0  0  0  0  0  0  0  0  0  0
   -1.2389   -1.2393   -0.0658 O   0  0  0  0  0  0  0  0  0  0  0  0
   -0.9136   -1.6169    1.9029 H   0  0  0  0  0  0  0  0  0  0  0  0
   -1.0087    0.6520   -1.4233 C   0  0  0  0  0  3  0  0  0  0  0  0
   -1.0087    0.6520   -2.8824 C   0  0  0  0  0  0  0  0  0  0  0  0
   -1.0087    1.8643   -2.1528 O   0  0  0  0  0  0  0  0  0  0  0  0
    0.0940    0.3872   -0.7816 H   0  0  0  0  0  0  0  0  0  0  0  0
   -1.9277    0.4313   -0.8886 H   0  0  0  0  0  0  0  0  0  0  0  0
   -0.0898    0.4313   -3.4171 H   0  0  0  0  0  0  0  0  0  0  0  0
   -1.9277    0.4313   -3.4171 H   0  0  0  0  0  0  0  0  0  0  0  0
  1  2  1  0
  1 11  1  0
  2  5  1  0
  2  3  2  0
  3  4  2  0
  5  6  2  0
  5  7  1  0
  8  9  1  0
  8 10  1  0
  8 12  1  0
  9 10  1  0
  9 13  1  0
  9 14  1  0
M  RAD  1   8   2
M  END
>  <reaction>  (15) 
kfir_rxn_10218

>  <mol_properties>  (15) 
{"0": {"label": "*1", "atom_type": "O2s"}, "1": {"label": "*0", "atom_type": "Cd"}, "7": {"label": "*3", "atom_type": "Cs"}, "9": {"label": "*4", "atom_type": "O2s"}, "10": {"label": "*2", "atom_type": "H0"}}

>  <type>  (15) 
unop_11

>  <geom_source>  (15) 
Heuristics

$$$$

     RDKit          3D

 14 13  0  0  0  0  0  0  0  0999 V2000
    0.0413   -0.1533    1.4604 O   0  0  0  0  0  0  0  0  0  0  0  0
    0.9553   -0.3728    0.4757 C   0  0  0  0  0  0  0  0  0  0  0  0
    2.2226   -0.6771    0.7395 C   0  0  0  0  0  3  0  0  0  0  0  0
    3.3307   -0.9431    0.8969 O   0  0  0  0  0  0  0  0  0  0  0  0
    0.5340   -0.2716   -0.9051 C   0  0  0  0  0  0  0  0  0  0  0  0
   -0.6187    0.0051   -1.1591 O   0  0  0  0  0  0  0  0  0  0  0  0
    1.2880   -0.4527   -1.6873 H   0  0  0  0  0  0  0  0  0  0  0  0
   -2.0457    0.3478    0.2459 C   0  0  0  0  0  0  0  0  0  0  0  0
   -2.0457    0.3478   -1.2132 C   0  0  0  0  0  0  0  0  0  0  0  0
   -2.0457    1.5602   -0.4837 O   0  0  0  0  0  0  0  0  0  0  0  0
   -0.9430    0.0830    0.8876 H   0  0  0  0  0  0  0  0  0  0  0  0
   -2.9646    0.1271    0.7806 H   0  0  0  0  0  0  0  0  0  0  0  0
   -1.1268    0.1271   -1.7479 H   0  0  0  0  0  0  0  0  0  0  0  0
   -2.9646    0.1271   -1.7479 H   0  0  0  0  0  0  0  0  0  0  0  0
  1  2  1  0
  1 11  1  0
  2  5  2  3
  2  3  1  0
  3  4  2  0
  5  6  1  0
  5  7  1  0
  6 13  1  0
  8  9  2  0
  8 10  1  0
  8 12  1  0
  9 10  1  0
  9 14  1  0
M  RAD  1   3   2
M  END
>  <reaction>  (16) 
kfir_rxn_10218

>  <mol_properties>  (16) 
{"0": {"label": "*1", "atom_type": "O2s"}, "1": {"label": "*0", "atom_type": "Cd"}, "7": {"label": "*3", "atom_type": "Cs"}, "9": {"label": "*4", "atom_type": "O2s"}, "10": {"label": "*2", "atom_type": "H0"}}

>  <type>  (16) 
unop_12

>  <geom_source>  (16) 
Heuristics

$$$$

     RDKit          3D

 14 13  0  0  0  0  0  0  0  0999 V2000
   -0.0160   -0.6541    1.3457 O   0  0  0  0  0  0  0  0  0  0  0  0
    0.9674   -0.2115    0.5149 C   0  0  0  0  0  0  0  0  0  0  0  0
    2.1926    0.0656    0.9510 C   0  0  0  0  0  3  0  0  0  0  0  0
    3.2702    0.3230    1.2608 O   0  0  0  0  0  0  0  0  0  0  0  0
    0.6697   -0.0364   -0.8904 C   0  0  0  0  0  0  0  0  0  0  0  0
   -0.4436   -0.2854   -1.3007 O   0  0  0  0  0  0  0  0  0  0  0  0
    1.4785    0.3225   -1.5465 H   0  0  0  0  0  0  0  0  0  0  0  0
   -2.1030   -0.1530    0.1312 C   0  0  0  0  0  0  0  0  0  0  0  0
   -2.1030   -0.1530   -1.3279 C   0  0  0  0  0  0  0  0  0  0  0  0
   -2.1030    1.0594   -0.5983 O   0  0  0  0  0  0  0  0  0  0  0  0
   -1.0003   -0.4177    0.7729 H   0  0  0  0  0  0  0  0  0  0  0  0
   -3.0219   -0.3736    0.6660 H   0  0  0  0  0  0  0  0  0  0  0  0
   -1.1841   -0.3736   -1.8626 H   0  0  0  0  0  0  0  0  0  0  0  0
   -3.0219   -0.3736   -1.8626 H   0  0  0  0  0  0  0  0  0  0  0  0
  1  2  1  0
  1 11  1  0
  2  5  2  3
  2  3  1  0
  3  4  2  0
  5  6  1  0
  5  7  1  0
  6 13  1  0
  8  9  2  0
  8 10  1  0
  8 12  1  0
  9 10  1  0
  9 14  1  0
M  RAD  1   3   2
M  END
>  <reaction>  (17) 
kfir_rxn_10218

>  <mol_properties>  (17) 
{"0": {"label": "*1", "atom_type": "O2s"}, "1": {"label": "*0", "atom_type": "Cd"}, "7": {"label": "*3", "atom_type": "Cs"}, "9": {"label": "*4", "atom_type": "O2s"}, "10": {"label": "*2", "atom_type": "H0"}}

>  <type>  (17) 
unop_13

>  <geom_source>  (17) 
gaussian_log

$$$$
