
     RDKit          3D

  7  6  0  0  0  0  0  0  0  0999 V2000
    1.6899   -0.1839   -0.0115 C   0  0  0  0  0  0  0  0  0  0  0  0
    0.5000   -0.0544   -0.0034 C   0  0  0  0  0  0  0  0  0  0  0  0
   -0.9469    0.1030    0.0064 C   0  0  0  0  0  0  0  0  0  0  0  0
    2.7470   -0.2989   -0.0186 H   0  0  0  0  0  0  0  0  0  0  0  0
   -1.4140   -0.5835   -0.7010 H   0  0  0  0  0  0  0  0  0  0  0  0
   -1.2257    1.1206   -0.2707 H   0  0  0  0  0  0  0  0  0  0  0  0
   -1.3502   -0.1030    0.9988 H   0  0  0  0  0  0  0  0  0  0  0  0
  1  2  3  0
  1  4  1  0
  2  3  1  0
  3  5  1  0
  3  6  1  0
  3  7  1  0
M  END
>  <reaction>  (1) 
kfir_rxn_13651

>  <mol_properties>  (1) 
{"2": {"label": "donator", "atom_type": "Cs"}, "4": {"label": "d_hydrogen", "atom_type": "H0"}}

>  <type>  (1) 
r1h

$$$$

     RDKit          3D

  7  7  0  0  0  0  0  0  0  0999 V2000
    1.6410   -0.1736   -0.2133 O   0  0  0  0  0  0  0  0  0  0  0  0
    0.7709   -1.1009    0.0372 C   0  0  0  0  0  3  0  0  0  0  0  0
   -0.5127   -0.6809    0.0426 C   0  0  0  0  0  0  0  0  0  0  0  0
   -0.3286    0.6963   -0.2510 C   0  0  0  0  0  0  0  0  0  0  0  0
    0.9226    1.0285   -0.4073 N   0  0  0  0  0  0  0  0  0  0  0  0
   -1.4145   -1.2355    0.2195 H   0  0  0  0  0  0  0  0  0  0  0  0
   -1.0786    1.4661   -0.3546 H   0  0  0  0  0  0  0  0  0  0  0  0
  1  2  1  0
  1  5  1  0
  2  3  2  0
  3  4  1  0
  3  6  1  0
  4  5  2  0
  4  7  1  0
M  RAD  1   2   2
M  END
>  <reaction>  (2) 
kfir_rxn_13651

>  <mol_properties>  (2) 
{"1": {"label": "acceptor", "atom_type": "Cd"}}

>  <type>  (2) 
r2

$$$$

     RDKit          3D

  8  8  0  0  0  0  0  0  0  0999 V2000
    1.0625    0.1000    0.1457 C   0  0  0  0  0  0  0  0  0  0  0  0
   -0.0198    0.6562    0.7303 C   0  0  0  0  0  0  0  0  0  0  0  0
   -1.0600   -0.2414    0.3817 C   0  0  0  0  0  0  0  0  0  0  0  0
   -0.6257   -1.2322   -0.3409 N   0  0  0  0  0  0  0  0  0  0  0  0
    0.7230   -1.0184   -0.4928 O   0  0  0  0  0  0  0  0  0  0  0  0
    2.1030    0.3758    0.0990 H   0  0  0  0  0  0  0  0  0  0  0  0
   -0.0747    1.5569    1.3147 H   0  0  0  0  0  0  0  0  0  0  0  0
   -2.1082   -0.1970    0.6337 H   0  0  0  0  0  0  0  0  0  0  0  0
  1  2  2  0
  1  5  1  0
  1  6  1  0
  2  3  1  0
  2  7  1  0
  3  4  2  0
  3  8  1  0
  4  5  1  0
M  END
>  <reaction>  (3) 
kfir_rxn_13651

>  <mol_properties>  (3) 
{"1": {"label": "acceptor", "atom_type": "Cd"}, "7": {"label": "a_hydrogen", "atom_type": "H0"}}

>  <type>  (3) 
r2h

$$$$

     RDKit          3D

 14 13  0  0  0  0  0  0  0  0999 V2000
   -1.2831    0.6635    1.7278 O   0  0  0  0  0  0  0  0  0  0  0  0
   -0.4237    0.2193    0.8426 C   0  0  0  0  0  3  0  0  0  0  0  0
    0.6478    1.0295    0.7019 C   0  0  0  0  0  0  0  0  0  0  0  0
    0.3432    2.0585    1.6310 C   0  0  0  0  0  0  0  0  0  0  0  0
   -0.7883    1.8651    2.2471 N   0  0  0  0  0  0  0  0  0  0  0  0
    1.4987    0.9163    0.0560 H   0  0  0  0  0  0  0  0  0  0  0  0
    0.9168    2.9406    1.8723 H   0  0  0  0  0  0  0  0  0  0  0  0
    1.0918   -2.5261   -2.1038 C   0  0  0  0  0  0  0  0  0  0  0  0
    0.1584   -2.3641   -1.3686 C   0  0  0  0  0  0  0  0  0  0  0  0
   -0.9422   -2.1344   -0.4744 C   0  0  0  0  0  0  0  0  0  0  0  0
    1.9129   -2.6836   -2.7612 H   0  0  0  0  0  0  0  0  0  0  0  0
   -0.7451   -1.1151    0.1142 H   0  0  0  0  0  0  0  0  0  0  0  0
   -1.0328   -2.8951    0.2997 H   0  0  0  0  0  0  0  0  0  0  0  0
   -1.8902   -1.9850   -0.9893 H   0  0  0  0  0  0  0  0  0  0  0  0
  1  2  1  0
  1  5  1  0
  2  3  2  0
  3  4  1  0
  3  6  1  0
  4  5  2  0
  4  7  1  0
  8  9  3  0
  8 11  1  0
  9 10  1  0
 10 12  1  0
 10 13  1  0
 10 14  1  0
M  RAD  1   2   2
M  END
>  <reaction>  (4) 
kfir_rxn_13651

>  <mol_properties>  (4) 
{"0": {"label": "*4", "atom_type": "O2s"}, "1": {"label": "*3", "atom_type": "Cd"}, "8": {"label": "*0", "atom_type": "Ct"}, "9": {"label": "*1", "atom_type": "Cs"}, "11": {"label": "*2", "atom_type": "H0"}}

>  <type>  (4) 
ts

$$$$

     RDKit          3D

 14 13  0  0  0  0  0  0  0  0999 V2000
    1.0518    0.4960    0.7184 O   0  0  0  0  0  0  0  0  0  0  0  0
   -0.1719    0.5933    0.2019 C   0  0  0  0  0  0  0  0  0  0  0  0
   -0.9558    1.3612    0.9884 C   0  0  0  0  0  0  0  0  0  0  0  0
   -0.0812    1.7245    2.0430 C   0  0  0  0  0  0  0  0  0  0  0  0
    1.1059    1.2156    1.8876 N   0  0  0  0  0  0  0  0  0  0  0  0
   -1.9874    1.6283    0.8462 H   0  0  0  0  0  0  0  0  0  0  0  0
   -0.2786    2.3389    2.9077 H   0  0  0  0  0  0  0  0  0  0  0  0
   -0.3881   -1.8312   -3.3697 C   0  0  0  0  0  0  0  0  0  0  0  0
   -0.3881   -1.8312   -2.1726 C   0  0  0  0  0  0  0  0  0  0  0  0
   -0.3881   -1.8312   -0.7172 C   0  0  0  0  0  3  0  0  0  0  0  0
   -0.3881   -1.8312   -4.4329 H   0  0  0  0  0  0  0  0  0  0  0  0
   -0.2794   -0.6114   -0.2548 H   0  0  0  0  0  0  0  0  0  0  0  0
    0.4469   -2.4180   -0.3318 H   0  0  0  0  0  0  0  0  0  0  0  0
   -1.3138   -2.2610   -0.3318 H   0  0  0  0  0  0  0  0  0  0  0  0
  1  2  1  0
  1  5  1  0
  2  3  2  0
  2 12  1  0
  3  4  1  0
  3  6  1  0
  4  5  2  0
  4  7  1  0
  8  9  3  0
  8 11  1  0
  9 10  1  0
 10 13  1  0
 10 14  1  0
M  RAD  1  10   2
M  END
>  <reaction>  (5) 
kfir_rxn_13651

>  <mol_properties>  (5) 
{"0": {"label": "*4", "atom_type": "O2s"}, "1": {"label": "*3", "atom_type": "Cd"}, "8": {"label": "*0", "atom_type": "Ct"}, "9": {"label": "*1", "atom_type": "Cs"}, "11": {"label": "*2", "atom_type": "H0"}}

>  <type>  (5) 
unop_1

>  <geom_source>  (5) 
Heuristics

$$$$

     RDKit          3D

 14 13  0  0  0  0  0  0  0  0999 V2000
    0.3805    0.3756    1.6881 O   0  0  0  0  0  0  0  0  0  0  0  0
    0.1320    0.3116    0.3812 C   0  0  0  0  0  0  0  0  0  0  0  0
   -0.2525    1.5188   -0.0852 C   0  0  0  0  0  0  0  0  0  0  0  0
   -0.2131    2.3303    1.0763 C   0  0  0  0  0  0  0  0  0  0  0  0
    0.1603    1.6590    2.1263 N   0  0  0  0  0  0  0  0  0  0  0  0
   -0.5211    1.7924   -1.0896 H   0  0  0  0  0  0  0  0  0  0  0  0
   -0.4444    3.3790    1.1802 H   0  0  0  0  0  0  0  0  0  0  0  0
   -0.0842   -2.1129   -3.1904 C   0  0  0  0  0  0  0  0  0  0  0  0
   -0.0842   -2.1129   -1.9934 C   0  0  0  0  0  0  0  0  0  0  0  0
   -0.0842   -2.1129   -0.5380 C   0  0  0  0  0  3  0  0  0  0  0  0
   -0.0842   -2.1129   -4.2537 H   0  0  0  0  0  0  0  0  0  0  0  0
    0.0245   -0.8931   -0.0756 H   0  0  0  0  0  0  0  0  0  0  0  0
    0.7508   -2.6997   -0.1526 H   0  0  0  0  0  0  0  0  0  0  0  0
   -1.0099   -2.5427   -0.1526 H   0  0  0  0  0  0  0  0  0  0  0  0
  1  2  1  0
  1  5  1  0
  2  3  2  0
  2 12  1  0
  3  4  1  0
  3  6  1  0
  4  5  2  0
  4  7  1  0
  8  9  3  0
  8 11  1  0
  9 10  1  0
 10 13  1  0
 10 14  1  0
M  RAD  1  10   2
M  END
>  <reaction>  (6) 
kfir_rxn_13651

>  <mol_properties>  (6) 
{"0": {"label": "*4", "atom_type": "O2s"}, "1": {"label": "*3", "atom_type": "Cd"}, "8": {"label": "*0", "atom_type": "Ct"}, "9": {"label": "*1", "atom_type": "Cs"}, "11": {"label": "*2", "atom_type": "H0"}}

>  <type>  (6) 
unop_2

>  <geom_source>  (6) 
Heuristics

$$$$

     RDKit          3D

 14 13  0  0  0  0  0  0  0  0999 V2000
    0.9414    0.6845    0.2471 O   0  0  0  0  0  0  0  0  0  0  0  0
   -0.3784    0.5501    0.3647 C   0  0  0  0  0  0  0  0  0  0  0  0
   -0.8162    1.1598    1.4869 C   0  0  0  0  0  0  0  0  0  0  0  0
    0.3772    1.6828    2.0451 C   0  0  0  0  0  0  0  0  0  0  0  0
    1.4180    1.4043    1.3159 N   0  0  0  0  0  0  0  0  0  0  0  0
   -1.8218    1.2291    1.8607 H   0  0  0  0  0  0  0  0  0  0  0  0
    0.5103    2.2515    2.9522 H   0  0  0  0  0  0  0  0  0  0  0  0
   -0.5946   -1.8745   -3.2069 C   0  0  0  0  0  0  0  0  0  0  0  0
   -0.5946   -1.8745   -2.0098 C   0  0  0  0  0  0  0  0  0  0  0  0
   -0.5946   -1.8745   -0.5544 C   0  0  0  0  0  3  0  0  0  0  0  0
   -0.5946   -1.8745   -4.2701 H   0  0  0  0  0  0  0  0  0  0  0  0
   -0.4858   -0.6546   -0.0920 H   0  0  0  0  0  0  0  0  0  0  0  0
    0.2404   -2.4612   -0.1690 H   0  0  0  0  0  0  0  0  0  0  0  0
   -1.5202   -2.3042   -0.1690 H   0  0  0  0  0  0  0  0  0  0  0  0
  1  2  1  0
  1  5  1  0
  2  3  2  0
  2 12  1  0
  3  4  1  0
  3  6  1  0
  4  5  2  0
  4  7  1  0
  8  9  3  0
  8 11  1  0
  9 10  1  0
 10 13  1  0
 10 14  1  0
M  RAD  1  10   2
M  END
>  <reaction>  (7) 
kfir_rxn_13651

>  <mol_properties>  (7) 
{"0": {"label": "*4", "atom_type": "O2s"}, "1": {"label": "*3", "atom_type": "Cd"}, "8": {"label": "*0", "atom_type": "Ct"}, "9": {"label": "*1", "atom_type": "Cs"}, "11": {"label": "*2", "atom_type": "H0"}}

>  <type>  (7) 
unop_3

>  <geom_source>  (7) 
Heuristics

$$$$

     RDKit          3D

 14 13  0  0  0  0  0  0  0  0999 V2000
   -0.6284    0.4830    1.4852 O   0  0  0  0  0  0  0  0  0  0  0  0
   -0.0719    0.4287    0.2764 C   0  0  0  0  0  0  0  0  0  0  0  0
    0.8662    1.3908    0.1457 C   0  0  0  0  0  0  0  0  0  0  0  0
    0.8254    2.0411    1.4045 C   0  0  0  0  0  0  0  0  0  0  0  0
   -0.0563    1.5080    2.1990 N   0  0  0  0  0  0  0  0  0  0  0  0
    1.4879    1.6066   -0.7044 H   0  0  0  0  0  0  0  0  0  0  0  0
    1.4086    2.8781    1.7557 H   0  0  0  0  0  0  0  0  0  0  0  0
   -0.2881   -1.9958   -3.2952 C   0  0  0  0  0  0  0  0  0  0  0  0
   -0.2881   -1.9958   -2.0982 C   0  0  0  0  0  0  0  0  0  0  0  0
   -0.2881   -1.9958   -0.6428 C   0  0  0  0  0  3  0  0  0  0  0  0
   -0.2881   -1.9958   -4.3585 H   0  0  0  0  0  0  0  0  0  0  0  0
   -0.1794   -0.7760   -0.1803 H   0  0  0  0  0  0  0  0  0  0  0  0
    0.5469   -2.5825   -0.2574 H   0  0  0  0  0  0  0  0  0  0  0  0
   -1.2138   -2.4255   -0.2574 H   0  0  0  0  0  0  0  0  0  0  0  0
  1  2  1  0
  1  5  1  0
  2  3  2  0
  2 12  1  0
  3  4  1  0
  3  6  1  0
  4  5  2  0
  4  7  1  0
  8  9  3  0
  8 11  1  0
  9 10  1  0
 10 13  1  0
 10 14  1  0
M  RAD  1  10   2
M  END
>  <reaction>  (8) 
kfir_rxn_13651

>  <mol_properties>  (8) 
{"0": {"label": "*4", "atom_type": "O2s"}, "1": {"label": "*3", "atom_type": "Cd"}, "8": {"label": "*0", "atom_type": "Ct"}, "9": {"label": "*1", "atom_type": "Cs"}, "11": {"label": "*2", "atom_type": "H0"}}

>  <type>  (8) 
unop_4

>  <geom_source>  (8) 
Heuristics

$$$$

     RDKit          3D

 14 13  0  0  0  0  0  0  0  0999 V2000
    0.1019    1.1427   -0.2067 O   0  0  0  0  0  0  0  0  0  0  0  0
    0.0156    0.1754    0.7047 C   0  0  0  0  0  0  0  0  0  0  0  0
    0.0620    0.6954    1.9498 C   0  0  0  0  0  0  0  0  0  0  0  0
    0.1860    2.0859    1.7040 C   0  0  0  0  0  0  0  0  0  0  0  0
    0.2099    2.3547    0.4313 N   0  0  0  0  0  0  0  0  0  0  0  0
    0.0160    0.1791    2.8916 H   0  0  0  0  0  0  0  0  0  0  0  0
    0.2583    2.8968    2.4120 H   0  0  0  0  0  0  0  0  0  0  0  0
   -0.2005   -2.2491   -2.8669 C   0  0  0  0  0  0  0  0  0  0  0  0
   -0.2005   -2.2491   -1.6698 C   0  0  0  0  0  0  0  0  0  0  0  0
   -0.2005   -2.2491   -0.2144 C   0  0  0  0  0  3  0  0  0  0  0  0
   -0.2005   -2.2491   -3.9301 H   0  0  0  0  0  0  0  0  0  0  0  0
   -0.0918   -1.0293    0.2480 H   0  0  0  0  0  0  0  0  0  0  0  0
    0.6345   -2.8359    0.1710 H   0  0  0  0  0  0  0  0  0  0  0  0
   -1.1262   -2.6789    0.1710 H   0  0  0  0  0  0  0  0  0  0  0  0
  1  2  1  0
  1  5  1  0
  2  3  2  0
  2 12  1  0
  3  4  1  0
  3  6  1  0
  4  5  2  0
  4  7  1  0
  8  9  3  0
  8 11  1  0
  9 10  1  0
 10 13  1  0
 10 14  1  0
M  RAD  1  10   2
M  END
>  <reaction>  (9) 
kfir_rxn_13651

>  <mol_properties>  (9) 
{"0": {"label": "*4", "atom_type": "O2s"}, "1": {"label": "*3", "atom_type": "Cd"}, "8": {"label": "*0", "atom_type": "Ct"}, "9": {"label": "*1", "atom_type": "Cs"}, "11": {"label": "*2", "atom_type": "H0"}}

>  <type>  (9) 
unop_5

>  <geom_source>  (9) 
Heuristics

$$$$

     RDKit          3D

 14 13  0  0  0  0  0  0  0  0999 V2000
   -0.8658    0.5612    1.1493 O   0  0  0  0  0  0  0  0  0  0  0  0
    0.0591    0.5192    0.1919 C   0  0  0  0  0  0  0  0  0  0  0  0
    1.1127    1.2970    0.5198 C   0  0  0  0  0  0  0  0  0  0  0  0
    0.7346    1.8209    1.7814 C   0  0  0  0  0  0  0  0  0  0  0  0
   -0.4336    1.3888    2.1572 N   0  0  0  0  0  0  0  0  0  0  0  0
    2.0133    1.4728   -0.0403 H   0  0  0  0  0  0  0  0  0  0  0  0
    1.2750    2.4970    2.4256 H   0  0  0  0  0  0  0  0  0  0  0  0
   -0.1571   -1.9054   -3.3797 C   0  0  0  0  0  0  0  0  0  0  0  0
   -0.1571   -1.9054   -2.1827 C   0  0  0  0  0  0  0  0  0  0  0  0
   -0.1571   -1.9054   -0.7273 C   0  0  0  0  0  3  0  0  0  0  0  0
   -0.1571   -1.9054   -4.4430 H   0  0  0  0  0  0  0  0  0  0  0  0
   -0.0483   -0.6856   -0.2649 H   0  0  0  0  0  0  0  0  0  0  0  0
    0.6779   -2.4921   -0.3419 H   0  0  0  0  0  0  0  0  0  0  0  0
   -1.0827   -2.3351   -0.3419 H   0  0  0  0  0  0  0  0  0  0  0  0
  1  2  1  0
  1  5  1  0
  2  3  2  0
  2 12  1  0
  3  4  1  0
  3  6  1  0
  4  5  2  0
  4  7  1  0
  8  9  3  0
  8 11  1  0
  9 10  1  0
 10 13  1  0
 10 14  1  0
M  RAD  1  10   2
M  END
>  <reaction>  (10) 
kfir_rxn_13651

>  <mol_properties>  (10) 
{"0": {"label": "*4", "atom_type": "O2s"}, "1": {"label": "*3", "atom_type": "Cd"}, "8": {"label": "*0", "atom_type": "Ct"}, "9": {"label": "*1", "atom_type": "Cs"}, "11": {"label": "*2", "atom_type": "H0"}}

>  <type>  (10) 
unop_6

>  <geom_source>  (10) 
Heuristics

$$$$

     RDKit          3D

 14 13  0  0  0  0  0  0  0  0999 V2000
   -0.9475    0.6743    0.7184 O   0  0  0  0  0  0  0  0  0  0  0  0
    0.2742    0.5535    0.2019 C   0  0  0  0  0  0  0  0  0  0  0  0
    1.1816    1.1706    0.9884 C   0  0  0  0  0  0  0  0  0  0  0  0
    0.3851    1.6830    2.0430 C   0  0  0  0  0  0  0  0  0  0  0  0
   -0.8734    1.3921    1.8876 N   0  0  0  0  0  0  0  0  0  0  0  0
    2.2442    1.2510    0.8462 H   0  0  0  0  0  0  0  0  0  0  0  0
    0.6880    2.2527    2.9077 H   0  0  0  0  0  0  0  0  0  0  0  0
    0.0580   -1.8710   -3.3696 C   0  0  0  0  0  0  0  0  0  0  0  0
    0.0580   -1.8710   -2.1726 C   0  0  0  0  0  0  0  0  0  0  0  0
    0.0580   -1.8710   -0.7172 C   0  0  0  0  0  3  0  0  0  0  0  0
    0.0580   -1.8710   -4.4329 H   0  0  0  0  0  0  0  0  0  0  0  0
    0.1668   -0.6512   -0.2548 H   0  0  0  0  0  0  0  0  0  0  0  0
    0.8930   -2.4578   -0.3318 H   0  0  0  0  0  0  0  0  0  0  0  0
   -0.8676   -2.3008   -0.3318 H   0  0  0  0  0  0  0  0  0  0  0  0
  1  2  1  0
  1  5  1  0
  2  3  2  0
  2 12  1  0
  3  4  1  0
  3  6  1  0
  4  5  2  0
  4  7  1  0
  8  9  3  0
  8 11  1  0
  9 10  1  0
 10 13  1  0
 10 14  1  0
M  RAD  1  10   2
M  END
>  <reaction>  (11) 
kfir_rxn_13651

>  <mol_properties>  (11) 
{"0": {"label": "*4", "atom_type": "O2s"}, "1": {"label": "*3", "atom_type": "Cd"}, "8": {"label": "*0", "atom_type": "Ct"}, "9": {"label": "*1", "atom_type": "Cs"}, "11": {"label": "*2", "atom_type": "H0"}}

>  <type>  (11) 
unop_7

>  <geom_source>  (11) 
Heuristics

$$$$

     RDKit          3D

 14 13  0  0  0  0  0  0  0  0999 V2000
    0.9514    0.3992    1.1493 O   0  0  0  0  0  0  0  0  0  0  0  0
    0.0337    0.5214    0.1919 C   0  0  0  0  0  0  0  0  0  0  0  0
   -0.8657    1.4734    0.5198 C   0  0  0  0  0  0  0  0  0  0  0  0
   -0.4009    1.9221    1.7814 C   0  0  0  0  0  0  0  0  0  0  0  0
    0.6725    1.2902    2.1572 N   0  0  0  0  0  0  0  0  0  0  0  0
   -1.7210    1.8057   -0.0404 H   0  0  0  0  0  0  0  0  0  0  0  0
   -0.8131    2.6831    2.4256 H   0  0  0  0  0  0  0  0  0  0  0  0
   -0.1825   -1.9031   -3.3797 C   0  0  0  0  0  0  0  0  0  0  0  0
   -0.1825   -1.9031   -2.1827 C   0  0  0  0  0  0  0  0  0  0  0  0
   -0.1825   -1.9031   -0.7273 C   0  0  0  0  0  3  0  0  0  0  0  0
   -0.1825   -1.9031   -4.4430 H   0  0  0  0  0  0  0  0  0  0  0  0
   -0.0737   -0.6833   -0.2649 H   0  0  0  0  0  0  0  0  0  0  0  0
    0.6525   -2.4898   -0.3419 H   0  0  0  0  0  0  0  0  0  0  0  0
   -1.1081   -2.3329   -0.3419 H   0  0  0  0  0  0  0  0  0  0  0  0
  1  2  1  0
  1  5  1  0
  2  3  2  0
  2 12  1  0
  3  4  1  0
  3  6  1  0
  4  5  2  0
  4  7  1  0
  8  9  3  0
  8 11  1  0
  9 10  1  0
 10 13  1  0
 10 14  1  0
M  RAD  1  10   2
M  END
>  <reaction>  (12) 
kfir_rxn_13651

>  <mol_properties>  (12) 
{"0": {"label": "*4", "atom_type": "O2s"}, "1": {"label": "*3", "atom_type": "Cd"}, "8": {"label": "*0", "atom_type": "Ct"}, "9": {"label": "*1", "atom_type": "Cs"}, "11": {"label": "*2", "atom_type": "H0"}}

>  <type>  (12) 
unop_8

>  <geom_source>  (12) 
Heuristics

$$$$

     RDKit          3D

 14 13  0  0  0  0  0  0  0  0999 V2000
   -0.3080    0.4370    1.6881 O   0  0  0  0  0  0  0  0  0  0  0  0
   -0.0747    0.3300    0.3812 C   0  0  0  0  0  0  0  0  0  0  0  0
    0.5172    1.4502   -0.0852 C   0  0  0  0  0  0  0  0  0  0  0  0
    0.6220    2.2559    1.0763 C   0  0  0  0  0  0  0  0  0  0  0  0
    0.1357    1.6612    2.1263 N   0  0  0  0  0  0  0  0  0  0  0  0
    0.8300    1.6719   -1.0896 H   0  0  0  0  0  0  0  0  0  0  0  0
    1.0351    3.2471    1.1802 H   0  0  0  0  0  0  0  0  0  0  0  0
   -0.2909   -2.0945   -3.1904 C   0  0  0  0  0  0  0  0  0  0  0  0
   -0.2909   -2.0945   -1.9934 C   0  0  0  0  0  0  0  0  0  0  0  0
   -0.2909   -2.0945   -0.5380 C   0  0  0  0  0  3  0  0  0  0  0  0
   -0.2909   -2.0945   -4.2537 H   0  0  0  0  0  0  0  0  0  0  0  0
   -0.1822   -0.8747   -0.0756 H   0  0  0  0  0  0  0  0  0  0  0  0
    0.5441   -2.6812   -0.1526 H   0  0  0  0  0  0  0  0  0  0  0  0
   -1.2166   -2.5243   -0.1526 H   0  0  0  0  0  0  0  0  0  0  0  0
  1  2  1  0
  1  5  1  0
  2  3  2  0
  2 12  1  0
  3  4  1  0
  3  6  1  0
  4  5  2  0
  4  7  1  0
  8  9  3  0
  8 11  1  0
  9 10  1  0
 10 13  1  0
 10 14  1  0
M  RAD  1  10   2
M  END
>  <reaction>  (13) 
kfir_rxn_13651

>  <mol_properties>  (13) 
{"0": {"label": "*4", "atom_type": "O2s"}, "1": {"label": "*3", "atom_type": "Cd"}, "8": {"label": "*0", "atom_type": "Ct"}, "9": {"label": "*1", "atom_type": "Cs"}, "11": {"label": "*2", "atom_type": "H0"}}

>  <type>  (13) 
unop_9

>  <geom_source>  (13) 
Heuristics

$$$$

     RDKit          3D

 14 13  0  0  0  0  0  0  0  0999 V2000
    0.7040    0.3642    1.4852 O   0  0  0  0  0  0  0  0  0  0  0  0
    0.1467    0.4093    0.2764 C   0  0  0  0  0  0  0  0  0  0  0  0
   -0.6065    1.5221    0.1457 C   0  0  0  0  0  0  0  0  0  0  0  0
   -0.4513    2.1549    1.4045 C   0  0  0  0  0  0  0  0  0  0  0  0
    0.3222    1.4743    2.1990 N   0  0  0  0  0  0  0  0  0  0  0  0
   -1.1802    1.8445   -0.7044 H   0  0  0  0  0  0  0  0  0  0  0  0
   -0.8772    3.0819    1.7557 H   0  0  0  0  0  0  0  0  0  0  0  0
   -0.0695   -2.0153   -3.2952 C   0  0  0  0  0  0  0  0  0  0  0  0
   -0.0695   -2.0153   -2.0982 C   0  0  0  0  0  0  0  0  0  0  0  0
   -0.0695   -2.0153   -0.6428 C   0  0  0  0  0  3  0  0  0  0  0  0
   -0.0695   -2.0153   -4.3585 H   0  0  0  0  0  0  0  0  0  0  0  0
    0.0392   -0.7955   -0.1803 H   0  0  0  0  0  0  0  0  0  0  0  0
    0.7655   -2.6020   -0.2574 H   0  0  0  0  0  0  0  0  0  0  0  0
   -0.9952   -2.4450   -0.2574 H   0  0  0  0  0  0  0  0  0  0  0  0
  1  2  1  0
  1  5  1  0
  2  3  2  0
  2 12  1  0
  3  4  1  0
  3  6  1  0
  4  5  2  0
  4  7  1  0
  8  9  3  0
  8 11  1  0
  9 10  1  0
 10 13  1  0
 10 14  1  0
M  RAD  1  10   2
M  END
>  <reaction>  (14) 
kfir_rxn_13651

>  <mol_properties>  (14) 
{"0": {"label": "*4", "atom_type": "O2s"}, "1": {"label": "*3", "atom_type": "Cd"}, "8": {"label": "*0", "atom_type": "Ct"}, "9": {"label": "*1", "atom_type": "Cs"}, "11": {"label": "*2", "atom_type": "H0"}}

>  <type>  (14) 
unop_10

>  <geom_source>  (14) 
Heuristics

$$$$

     RDKit          3D

 14 13  0  0  0  0  0  0  0  0999 V2000
   -0.8055    0.8402    0.2471 O   0  0  0  0  0  0  0  0  0  0  0  0
    0.4698    0.4745    0.3647 C   0  0  0  0  0  0  0  0  0  0  0  0
    1.0085    0.9971    1.4869 C   0  0  0  0  0  0  0  0  0  0  0  0
   -0.0735    1.7230    2.0451 C   0  0  0  0  0  0  0  0  0  0  0  0
   -1.1472    1.6330    1.3159 N   0  0  0  0  0  0  0  0  0  0  0  0
    2.0105    0.8874    1.8607 H   0  0  0  0  0  0  0  0  0  0  0  0
   -0.1039    2.3062    2.9522 H   0  0  0  0  0  0  0  0  0  0  0  0
    0.2536   -1.9501   -3.2069 C   0  0  0  0  0  0  0  0  0  0  0  0
    0.2536   -1.9501   -2.0098 C   0  0  0  0  0  0  0  0  0  0  0  0
    0.2536   -1.9501   -0.5544 C   0  0  0  0  0  3  0  0  0  0  0  0
    0.2536   -1.9501   -4.2701 H   0  0  0  0  0  0  0  0  0  0  0  0
    0.3624   -0.7303   -0.0920 H   0  0  0  0  0  0  0  0  0  0  0  0
    1.0886   -2.5368   -0.1690 H   0  0  0  0  0  0  0  0  0  0  0  0
   -0.6720   -2.3798   -0.1690 H   0  0  0  0  0  0  0  0  0  0  0  0
  1  2  1  0
  1  5  1  0
  2  3  2  0
  2 12  1  0
  3  4  1  0
  3  6  1  0
  4  5  2  0
  4  7  1  0
  8  9  3  0
  8 11  1  0
  9 10  1  0
 10 13  1  0
 10 14  1  0
M  RAD  1  10   2
M  END
>  <reaction>  (15) 
kfir_rxn_13651

>  <mol_properties>  (15) 
{"0": {"label": "*4", "atom_type": "O2s"}, "1": {"label": "*3", "atom_type": "Cd"}, "8": {"label": "*0", "atom_type": "Ct"}, "9": {"label": "*1", "atom_type": "Cs"}, "11": {"label": "*2", "atom_type": "H0"}}

>  <type>  (15) 
unop_11

>  <geom_source>  (15) 
Heuristics

$$$$

     RDKit          3D

 14 13  0  0  0  0  0  0  0  0999 V2000
    0.0361    0.4053    1.7538 O   0  0  0  0  0  0  0  0  0  0  0  0
    0.0249    0.2795    0.4280 C   0  0  0  0  0  0  0  0  0  0  0  0
    0.1328    1.4894   -0.1613 C   0  0  0  0  0  0  0  0  0  0  0  0
    0.2114    2.3710    0.9458 C   0  0  0  0  0  0  0  0  0  0  0  0
    0.1547    1.7348    2.0793 N   0  0  0  0  0  0  0  0  0  0  0  0
    0.1535    1.7219   -1.2107 H   0  0  0  0  0  0  0  0  0  0  0  0
    0.3072    3.4457    0.9527 H   0  0  0  0  0  0  0  0  0  0  0  0
   -0.1913   -2.1450   -3.1436 C   0  0  0  0  0  0  0  0  0  0  0  0
   -0.1913   -2.1450   -1.9466 C   0  0  0  0  0  0  0  0  0  0  0  0
   -0.1913   -2.1450   -0.4912 C   0  0  0  0  0  3  0  0  0  0  0  0
   -0.1913   -2.1450   -4.2069 H   0  0  0  0  0  0  0  0  0  0  0  0
   -0.0825   -0.9252   -0.0287 H   0  0  0  0  0  0  0  0  0  0  0  0
    0.6438   -2.7318   -0.1058 H   0  0  0  0  0  0  0  0  0  0  0  0
   -1.1169   -2.5748   -0.1058 H   0  0  0  0  0  0  0  0  0  0  0  0
  1  2  1  0
  1  5  1  0
  2  3  2  0
  2 12  1  0
  3  4  1  0
  3  6  1  0
  4  5  2  0
  4  7  1  0
  8  9  3  0
  8 11  1  0
  9 10  1  0
 10 13  1  0
 10 14  1  0
M  RAD  1  10   2
M  END
>  <reaction>  (16) 
kfir_rxn_13651

>  <mol_properties>  (16) 
{"0": {"label": "*4", "atom_type": "O2s"}, "1": {"label": "*3", "atom_type": "Cd"}, "8": {"label": "*0", "atom_type": "Ct"}, "9": {"label": "*1", "atom_type": "Cs"}, "11": {"label": "*2", "atom_type": "H0"}}

>  <type>  (16) 
unop_12

>  <geom_source>  (16) 
Heuristics

$$$$

     RDKit          3D

 14 13  0  0  0  0  0  0  0  0999 V2000
    0.3805    0.3756    1.6881 O   0  0  0  0  0  0  0  0  0  0  0  0
    0.1320    0.3116    0.3811 C   0  0  0  0  0  0  0  0  0  0  0  0
   -0.2525    1.5188   -0.0852 C   0  0  0  0  0  0  0  0  0  0  0  0
   -0.2131    2.3303    1.0763 C   0  0  0  0  0  0  0  0  0  0  0  0
    0.1603    1.6590    2.1263 N   0  0  0  0  0  0  0  0  0  0  0  0
   -0.5211    1.7924   -1.0896 H   0  0  0  0  0  0  0  0  0  0  0  0
   -0.4444    3.3790    1.1802 H   0  0  0  0  0  0  0  0  0  0  0  0
   -0.0842   -2.1129   -3.1904 C   0  0  0  0  0  0  0  0  0  0  0  0
   -0.0842   -2.1129   -1.9934 C   0  0  0  0  0  0  0  0  0  0  0  0
   -0.0842   -2.1129   -0.5380 C   0  0  0  0  0  3  0  0  0  0  0  0
   -0.0842   -2.1129   -4.2537 H   0  0  0  0  0  0  0  0  0  0  0  0
    0.0245   -0.8931   -0.0756 H   0  0  0  0  0  0  0  0  0  0  0  0
    0.7508   -2.6997   -0.1526 H   0  0  0  0  0  0  0  0  0  0  0  0
   -1.0099   -2.5427   -0.1526 H   0  0  0  0  0  0  0  0  0  0  0  0
  1  2  1  0
  1  5  1  0
  2  3  2  0
  2 12  1  0
  3  4  1  0
  3  6  1  0
  4  5  2  0
  4  7  1  0
  8  9  3  0
  8 11  1  0
  9 10  1  0
 10 13  1  0
 10 14  1  0
M  RAD  1  10   2
M  END
>  <reaction>  (17) 
kfir_rxn_13651

>  <mol_properties>  (17) 
{"0": {"label": "*4", "atom_type": "O2s"}, "1": {"label": "*3", "atom_type": "Cd"}, "8": {"label": "*0", "atom_type": "Ct"}, "9": {"label": "*1", "atom_type": "Cs"}, "11": {"label": "*2", "atom_type": "H0"}}

>  <type>  (17) 
unop_13

>  <geom_source>  (17) 
gaussian_log

$$$$
