
     RDKit          3D

  7  7  0  0  0  0  0  0  0  0999 V2000
   -0.2697    0.7649    0.0640 C   0  0  0  0  0  0  0  0  0  0  0  0
   -0.5205   -0.6227   -0.0575 C   0  0  0  0  0  0  0  0  0  0  0  0
    0.6182   -1.2406   -0.1024 N   0  0  0  0  0  0  0  0  0  0  0  0
    1.5618   -0.2812   -0.0128 O   0  0  0  0  0  0  0  0  0  0  0  0
    1.0136    0.9469    0.0891 N   0  0  0  0  0  0  0  0  0  0  0  0
   -0.9525    1.5949    0.1305 H   0  0  0  0  0  0  0  0  0  0  0  0
   -1.4508   -1.1622   -0.1109 H   0  0  0  0  0  0  0  0  0  0  0  0
  1  2  1  0
  1  5  2  0
  1  6  1  0
  2  3  2  0
  2  7  1  0
  3  4  1  0
  4  5  1  0
M  END
>  <reaction>  (1) 
kfir_rxn_13108

>  <mol_properties>  (1) 
{"0": {"label": "donator", "atom_type": "Cd"}, "5": {"label": "d_hydrogen", "atom_type": "H0"}}

>  <type>  (1) 
r1h

$$$$

     RDKit          3D

  7  6  0  0  0  0  0  0  0  0999 V2000
    3.3502   -0.4762    0.0152 O   0  0  0  0  0  0  0  0  0  0  0  0
    2.2075   -0.3145    0.0868 C   0  0  0  0  0  3  0  0  0  0  0  0
    0.9276   -0.1341    0.1700 C   0  0  0  0  0  0  0  0  0  0  0  0
   -0.3032    0.0437    0.2323 C   0  0  0  0  0  0  0  0  0  0  0  0
   -1.6911    0.2397    0.3206 C   0  0  0  0  0  0  0  0  0  0  0  0
   -2.3837    0.5831   -0.6231 O   0  0  0  0  0  0  0  0  0  0  0  0
   -2.1071    0.0549    1.3269 H   0  0  0  0  0  0  0  0  0  0  0  0
  1  2  2  0
  2  3  1  0
  3  4  3  0
  4  5  1  0
  5  6  2  0
  5  7  1  0
M  RAD  1   2   2
M  END
>  <reaction>  (2) 
kfir_rxn_13108

>  <mol_properties>  (2) 
{"1": {"label": "acceptor", "atom_type": "CO"}}

>  <type>  (2) 
r2

$$$$

     RDKit          3D

  8  7  0  0  0  0  0  0  0  0999 V2000
    2.8741   -0.2718    0.4288 O   0  0  0  0  0  0  0  0  0  0  0  0
    1.9458    0.4693    0.5915 C   0  0  0  0  0  0  0  0  0  0  0  0
    0.5775    0.1174    0.2611 C   0  0  0  0  0  0  0  0  0  0  0  0
   -0.5670   -0.1294   -0.0152 C   0  0  0  0  0  0  0  0  0  0  0  0
   -1.9461   -0.4690   -0.3120 C   0  0  0  0  0  0  0  0  0  0  0  0
   -2.4958   -0.1596   -1.3316 O   0  0  0  0  0  0  0  0  0  0  0  0
    2.0665    1.4839    1.0090 H   0  0  0  0  0  0  0  0  0  0  0  0
   -2.4551   -1.0409    0.4831 H   0  0  0  0  0  0  0  0  0  0  0  0
  1  2  2  0
  2  3  1  0
  2  7  1  0
  3  4  3  0
  4  5  1  0
  5  6  2  0
  5  8  1  0
M  END
>  <reaction>  (3) 
kfir_rxn_13108

>  <mol_properties>  (3) 
{"1": {"label": "acceptor", "atom_type": "CO"}, "7": {"label": "a_hydrogen", "atom_type": "H0"}}

>  <type>  (3) 
r2h

$$$$

     RDKit          3D

 14 13  0  0  0  0  0  0  0  0999 V2000
    0.7739    0.0238    2.6096 O   0  0  0  0  0  0  0  0  0  0  0  0
    0.4777   -0.3250    1.5088 C   0  0  0  0  0  0  0  0  0  0  0  0
    0.4106   -1.6834    1.0361 C   0  0  0  0  0  0  0  0  0  0  0  0
    0.3432   -2.7822    0.5513 C   0  0  0  0  0  0  0  0  0  0  0  0
    0.2237   -4.1182   -0.0064 C   0  0  0  0  0  0  0  0  0  0  0  0
    1.1395   -4.6966   -0.5186 O   0  0  0  0  0  0  0  0  0  0  0  0
   -0.7844   -4.5584    0.0795 H   0  0  0  0  0  0  0  0  0  0  0  0
   -0.3363    1.4889   -0.6263 C   0  0  0  0  0  0  0  0  0  0  0  0
   -0.2715    2.8808   -0.8866 C   0  0  0  0  0  0  0  0  0  0  0  0
   -0.8487    3.0765   -2.0306 N   0  0  0  0  0  2  0  0  0  0  0  0
   -1.2588    1.8652   -2.4710 O   0  0  0  0  0  0  0  0  0  0  0  0
   -0.9292    0.8793   -1.5769 N   0  0  0  0  0  0  0  0  0  0  0  0
    0.2005    0.4420    0.6895 H   0  0  0  0  0  0  0  0  0  0  0  0
    0.1495    3.6876   -0.3129 H   0  0  0  0  0  0  0  0  0  0  0  0
  1  2  2  0
  2  3  1  0
  2 13  1  0
  3  4  3  0
  4  5  1  0
  5  6  2  0
  5  7  1  0
  8  9  2  0
  8 12  2  0
  9 10  1  0
  9 14  1  0
 10 11  1  0
 11 12  1  0
M  RAD  1  10   2
M  END
>  <reaction>  (4) 
kfir_rxn_13108

>  <mol_properties>  (4) 
{"1": {"label": "*1", "atom_type": "CO"}, "2": {"label": "*0", "atom_type": "Ct"}, "7": {"label": "*3", "atom_type": "Cdd"}, "11": {"label": "*4", "atom_type": "N3d"}, "12": {"label": "*2", "atom_type": "H0"}}

>  <type>  (4) 
ts

$$$$

     RDKit          3D

 14 13  0  0  0  0  0  0  0  0999 V2000
   -1.9409   -1.6495    0.7044 O   0  0  0  0  0  0  0  0  0  0  0  0
   -0.8230   -1.4032    0.3479 C   0  0  0  0  0  3  0  0  0  0  0  0
    0.3218   -1.4297    1.2389 C   0  0  0  0  0  0  0  0  0  0  0  0
    1.2933   -1.4240    1.9483 C   0  0  0  0  0  0  0  0  0  0  0  0
    2.4567   -1.4710    2.8142 C   0  0  0  0  0  0  0  0  0  0  0  0
    2.9247   -0.5015    3.3419 O   0  0  0  0  0  0  0  0  0  0  0  0
    2.8818   -2.4805    2.9505 H   0  0  0  0  0  0  0  0  0  0  0  0
   -0.8230    0.5884   -1.3494 C   0  0  0  0  0  0  0  0  0  0  0  0
   -0.8230    0.5884   -2.7647 C   0  0  0  0  0  0  0  0  0  0  0  0
   -0.8230    1.8188   -3.1726 N   0  0  0  0  0  0  0  0  0  0  0  0
   -0.8230    2.5767   -2.0570 O   0  0  0  0  0  0  0  0  0  0  0  0
   -0.8230    1.8188   -0.9414 N   0  0  0  0  0  0  0  0  0  0  0  0
   -0.8230   -0.3951   -0.5112 H   0  0  0  0  0  0  0  0  0  0  0  0
   -0.8230   -0.2312   -3.4631 H   0  0  0  0  0  0  0  0  0  0  0  0
  1  2  2  0
  2  3  1  0
  3  4  3  0
  4  5  1  0
  5  6  2  0
  5  7  1  0
  8  9  1  0
  8 12  2  0
  8 13  1  0
  9 10  2  0
  9 14  1  0
 10 11  1  0
 11 12  1  0
M  RAD  1   2   2
M  END
>  <reaction>  (5) 
kfir_rxn_13108

>  <mol_properties>  (5) 
{"1": {"label": "*1", "atom_type": "CO"}, "2": {"label": "*0", "atom_type": "Ct"}, "7": {"label": "*3", "atom_type": "Cdd"}, "11": {"label": "*4", "atom_type": "N3d"}, "12": {"label": "*2", "atom_type": "H0"}}

>  <type>  (5) 
unop_1

>  <geom_source>  (5) 
Heuristics

$$$$

     RDKit          3D

 14 13  0  0  0  0  0  0  0  0999 V2000
   -0.8332   -0.2418    2.5639 O   0  0  0  0  0  0  0  0  0  0  0  0
   -0.6007   -0.4437    1.4052 C   0  0  0  0  0  3  0  0  0  0  0  0
    0.0603   -1.6415    0.9218 C   0  0  0  0  0  0  0  0  0  0  0  0
    0.6204   -2.6115    0.4829 C   0  0  0  0  0  0  0  0  0  0  0  0
    1.2546   -3.8130   -0.0264 C   0  0  0  0  0  0  0  0  0  0  0  0
    2.4255   -3.8852   -0.2741 O   0  0  0  0  0  0  0  0  0  0  0  0
    0.5673   -4.6646   -0.1696 H   0  0  0  0  0  0  0  0  0  0  0  0
   -0.6007    1.5479   -0.2921 C   0  0  0  0  0  0  0  0  0  0  0  0
   -0.6007    1.5479   -1.7074 C   0  0  0  0  0  0  0  0  0  0  0  0
   -0.6007    2.7784   -2.1153 N   0  0  0  0  0  0  0  0  0  0  0  0
   -0.6007    3.5363   -0.9997 O   0  0  0  0  0  0  0  0  0  0  0  0
   -0.6007    2.7784    0.1158 N   0  0  0  0  0  0  0  0  0  0  0  0
   -0.6007    0.5644    0.5461 H   0  0  0  0  0  0  0  0  0  0  0  0
   -0.6007    0.7283   -2.4058 H   0  0  0  0  0  0  0  0  0  0  0  0
  1  2  2  0
  2  3  1  0
  3  4  3  0
  4  5  1  0
  5  6  2  0
  5  7  1  0
  8  9  1  0
  8 12  2  0
  8 13  1  0
  9 10  2  0
  9 14  1  0
 10 11  1  0
 11 12  1  0
M  RAD  1   2   2
M  END
>  <reaction>  (6) 
kfir_rxn_13108

>  <mol_properties>  (6) 
{"1": {"label": "*1", "atom_type": "CO"}, "2": {"label": "*0", "atom_type": "Ct"}, "7": {"label": "*3", "atom_type": "Cdd"}, "11": {"label": "*4", "atom_type": "N3d"}, "12": {"label": "*2", "atom_type": "H0"}}

>  <type>  (6) 
unop_2

>  <geom_source>  (6) 
Heuristics

$$$$

     RDKit          3D

 14 13  0  0  0  0  0  0  0  0999 V2000
   -1.3183   -2.3598   -0.0117 O   0  0  0  0  0  0  0  0  0  0  0  0
   -0.4003   -1.5955    0.0909 C   0  0  0  0  0  3  0  0  0  0  0  0
    0.2607   -1.3081    1.3502 C   0  0  0  0  0  0  0  0  0  0  0  0
    0.8236   -1.0300    2.3764 C   0  0  0  0  0  0  0  0  0  0  0  0
    1.5176   -0.7480    3.6190 C   0  0  0  0  0  0  0  0  0  0  0  0
    1.2743    0.2024    4.3082 O   0  0  0  0  0  0  0  0  0  0  0  0
    2.2957   -1.4850    3.8830 H   0  0  0  0  0  0  0  0  0  0  0  0
   -0.4003    0.3961   -1.6063 C   0  0  0  0  0  0  0  0  0  0  0  0
   -0.4003    0.3961   -3.0216 C   0  0  0  0  0  0  0  0  0  0  0  0
   -0.4003    1.6266   -3.4295 N   0  0  0  0  0  0  0  0  0  0  0  0
   -0.4003    2.3845   -2.3140 O   0  0  0  0  0  0  0  0  0  0  0  0
   -0.4003    1.6266   -1.1984 N   0  0  0  0  0  0  0  0  0  0  0  0
   -0.4003   -0.5874   -0.7682 H   0  0  0  0  0  0  0  0  0  0  0  0
   -0.4003   -0.4234   -3.7201 H   0  0  0  0  0  0  0  0  0  0  0  0
  1  2  2  0
  2  3  1  0
  3  4  3  0
  4  5  1  0
  5  6  2  0
  5  7  1  0
  8  9  1  0
  8 12  2  0
  8 13  1  0
  9 10  2  0
  9 14  1  0
 10 11  1  0
 11 12  1  0
M  RAD  1   2   2
M  END
>  <reaction>  (7) 
kfir_rxn_13108

>  <mol_properties>  (7) 
{"1": {"label": "*1", "atom_type": "CO"}, "2": {"label": "*0", "atom_type": "Ct"}, "7": {"label": "*3", "atom_type": "Cdd"}, "11": {"label": "*4", "atom_type": "N3d"}, "12": {"label": "*2", "atom_type": "H0"}}

>  <type>  (7) 
unop_3

>  <geom_source>  (7) 
Heuristics

$$$$

     RDKit          3D

 14 13  0  0  0  0  0  0  0  0999 V2000
    1.3831   -0.3626    2.1801 O   0  0  0  0  0  0  0  0  0  0  0  0
    0.8203   -0.5798    1.1439 C   0  0  0  0  0  3  0  0  0  0  0  0
   -0.3245   -1.4638    1.0288 C   0  0  0  0  0  0  0  0  0  0  0  0
   -1.2642   -2.2016    0.8885 C   0  0  0  0  0  0  0  0  0  0  0  0
   -2.4269   -3.0591    0.7538 C   0  0  0  0  0  0  0  0  0  0  0  0
   -2.3636   -4.2047    0.4058 O   0  0  0  0  0  0  0  0  0  0  0  0
   -3.3848   -2.5688    0.9995 H   0  0  0  0  0  0  0  0  0  0  0  0
    0.8203    1.4118   -0.5533 C   0  0  0  0  0  0  0  0  0  0  0  0
    0.8203    1.4118   -1.9686 C   0  0  0  0  0  0  0  0  0  0  0  0
    0.8203    2.6422   -2.3765 N   0  0  0  0  0  0  0  0  0  0  0  0
    0.8203    3.4001   -1.2610 O   0  0  0  0  0  0  0  0  0  0  0  0
    0.8203    2.6422   -0.1454 N   0  0  0  0  0  0  0  0  0  0  0  0
    0.8203    0.4283    0.2848 H   0  0  0  0  0  0  0  0  0  0  0  0
    0.8203    0.5922   -2.6671 H   0  0  0  0  0  0  0  0  0  0  0  0
  1  2  2  0
  2  3  1  0
  3  4  3  0
  4  5  1  0
  5  6  2  0
  5  7  1  0
  8  9  1  0
  8 12  2  0
  8 13  1  0
  9 10  2  0
  9 14  1  0
 10 11  1  0
 11 12  1  0
M  RAD  1   2   2
M  END
>  <reaction>  (8) 
kfir_rxn_13108

>  <mol_properties>  (8) 
{"1": {"label": "*1", "atom_type": "CO"}, "2": {"label": "*0", "atom_type": "Ct"}, "7": {"label": "*3", "atom_type": "Cdd"}, "11": {"label": "*4", "atom_type": "N3d"}, "12": {"label": "*2", "atom_type": "H0"}}

>  <type>  (8) 
unop_4

>  <geom_source>  (8) 
Heuristics

$$$$

     RDKit          3D

 14 13  0  0  0  0  0  0  0  0999 V2000
    0.0967   -2.7317   -0.3374 O   0  0  0  0  0  0  0  0  0  0  0  0
    0.0966   -1.5865    0.0177 C   0  0  0  0  0  3  0  0  0  0  0  0
    0.0966   -1.1843    1.4118 C   0  0  0  0  0  0  0  0  0  0  0  0
    0.0793   -0.8099    2.5549 C   0  0  0  0  0  0  0  0  0  0  0  0
    0.1073   -0.3840    3.9417 C   0  0  0  0  0  0  0  0  0  0  0  0
   -0.8748   -0.0731    4.5551 O   0  0  0  0  0  0  0  0  0  0  0  0
    1.1146   -0.3683    4.3926 H   0  0  0  0  0  0  0  0  0  0  0  0
    0.0966    0.4051   -1.6796 C   0  0  0  0  0  0  0  0  0  0  0  0
    0.0966    0.4051   -3.0948 C   0  0  0  0  0  0  0  0  0  0  0  0
    0.0966    1.6355   -3.5028 N   0  0  0  0  0  0  0  0  0  0  0  0
    0.0966    2.3935   -2.3872 O   0  0  0  0  0  0  0  0  0  0  0  0
    0.0966    1.6356   -1.2716 N   0  0  0  0  0  0  0  0  0  0  0  0
    0.0966   -0.5784   -0.8414 H   0  0  0  0  0  0  0  0  0  0  0  0
    0.0966   -0.4145   -3.7933 H   0  0  0  0  0  0  0  0  0  0  0  0
  1  2  2  0
  2  3  1  0
  3  4  3  0
  4  5  1  0
  5  6  2  0
  5  7  1  0
  8  9  1  0
  8 12  2  0
  8 13  1  0
  9 10  2  0
  9 14  1  0
 10 11  1  0
 11 12  1  0
M  RAD  1   2   2
M  END
>  <reaction>  (9) 
kfir_rxn_13108

>  <mol_properties>  (9) 
{"1": {"label": "*1", "atom_type": "CO"}, "2": {"label": "*0", "atom_type": "Ct"}, "7": {"label": "*3", "atom_type": "Cdd"}, "11": {"label": "*4", "atom_type": "N3d"}, "12": {"label": "*2", "atom_type": "H0"}}

>  <type>  (9) 
unop_5

>  <geom_source>  (9) 
Heuristics

$$$$

     RDKit          3D

 14 13  0  0  0  0  0  0  0  0999 V2000
    1.8877   -0.8125    1.5291 O   0  0  0  0  0  0  0  0  0  0  0  0
    0.9696   -0.8989    0.7628 C   0  0  0  0  0  3  0  0  0  0  0  0
   -0.3523   -1.3541    1.1508 C   0  0  0  0  0  0  0  0  0  0  0  0
   -1.4566   -1.7424    1.4283 C   0  0  0  0  0  0  0  0  0  0  0  0
   -2.7933   -2.1681    1.7986 C   0  0  0  0  0  0  0  0  0  0  0  0
   -3.1913   -3.2897    1.6531 O   0  0  0  0  0  0  0  0  0  0  0  0
   -3.4221   -1.3699    2.2296 H   0  0  0  0  0  0  0  0  0  0  0  0
    0.9696    1.0927   -0.9345 C   0  0  0  0  0  0  0  0  0  0  0  0
    0.9696    1.0927   -2.3497 C   0  0  0  0  0  0  0  0  0  0  0  0
    0.9696    2.3232   -2.7577 N   0  0  0  0  0  0  0  0  0  0  0  0
    0.9696    3.0811   -1.6421 O   0  0  0  0  0  0  0  0  0  0  0  0
    0.9696    2.3232   -0.5265 N   0  0  0  0  0  0  0  0  0  0  0  0
    0.9696    0.1092   -0.0963 H   0  0  0  0  0  0  0  0  0  0  0  0
    0.9696    0.2732   -3.0482 H   0  0  0  0  0  0  0  0  0  0  0  0
  1  2  2  0
  2  3  1  0
  3  4  3  0
  4  5  1  0
  5  6  2  0
  5  7  1  0
  8  9  1  0
  8 12  2  0
  8 13  1  0
  9 10  2  0
  9 14  1  0
 10 11  1  0
 11 12  1  0
M  RAD  1   2   2
M  END
>  <reaction>  (10) 
kfir_rxn_13108

>  <mol_properties>  (10) 
{"1": {"label": "*1", "atom_type": "CO"}, "2": {"label": "*0", "atom_type": "Ct"}, "7": {"label": "*3", "atom_type": "Cdd"}, "11": {"label": "*4", "atom_type": "N3d"}, "12": {"label": "*2", "atom_type": "H0"}}

>  <type>  (10) 
unop_6

>  <geom_source>  (10) 
Heuristics

$$$$

     RDKit          3D

 14 13  0  0  0  0  0  0  0  0999 V2000
    1.9689   -1.4628    0.7458 O   0  0  0  0  0  0  0  0  0  0  0  0
    0.8509   -1.2166    0.3893 C   0  0  0  0  0  3  0  0  0  0  0  0
   -0.2939   -1.2431    1.2803 C   0  0  0  0  0  0  0  0  0  0  0  0
   -1.2704   -1.2707    1.9823 C   0  0  0  0  0  0  0  0  0  0  0  0
   -2.4257   -1.2638    2.8602 C   0  0  0  0  0  0  0  0  0  0  0  0
   -3.1774   -2.1917    2.9669 O   0  0  0  0  0  0  0  0  0  0  0  0
   -2.5598   -0.3270    3.4283 H   0  0  0  0  0  0  0  0  0  0  0  0
    0.8509    0.7750   -1.3080 C   0  0  0  0  0  0  0  0  0  0  0  0
    0.8509    0.7750   -2.7232 C   0  0  0  0  0  0  0  0  0  0  0  0
    0.8509    2.0055   -3.1312 N   0  0  0  0  0  0  0  0  0  0  0  0
    0.8509    2.7634   -2.0156 O   0  0  0  0  0  0  0  0  0  0  0  0
    0.8509    2.0055   -0.9000 N   0  0  0  0  0  0  0  0  0  0  0  0
    0.8509   -0.2085   -0.4698 H   0  0  0  0  0  0  0  0  0  0  0  0
    0.8509   -0.0445   -3.4217 H   0  0  0  0  0  0  0  0  0  0  0  0
  1  2  2  0
  2  3  1  0
  3  4  3  0
  4  5  1  0
  5  6  2  0
  5  7  1  0
  8  9  1  0
  8 12  2  0
  8 13  1  0
  9 10  2  0
  9 14  1  0
 10 11  1  0
 11 12  1  0
M  RAD  1   2   2
M  END
>  <reaction>  (11) 
kfir_rxn_13108

>  <mol_properties>  (11) 
{"1": {"label": "*1", "atom_type": "CO"}, "2": {"label": "*0", "atom_type": "Ct"}, "7": {"label": "*3", "atom_type": "Cdd"}, "11": {"label": "*4", "atom_type": "N3d"}, "12": {"label": "*2", "atom_type": "H0"}}

>  <type>  (11) 
unop_7

>  <geom_source>  (11) 
Heuristics

$$$$

     RDKit          3D

 14 13  0  0  0  0  0  0  0  0999 V2000
   -1.9385   -0.9946    1.4887 O   0  0  0  0  0  0  0  0  0  0  0  0
   -1.0205   -1.0809    0.7224 C   0  0  0  0  0  3  0  0  0  0  0  0
    0.3015   -1.5361    1.1104 C   0  0  0  0  0  0  0  0  0  0  0  0
    1.4148   -1.8918    1.3952 C   0  0  0  0  0  0  0  0  0  0  0  0
    2.7369   -2.3702    1.7538 C   0  0  0  0  0  0  0  0  0  0  0  0
    3.6515   -1.6417    2.0187 O   0  0  0  0  0  0  0  0  0  0  0  0
    2.8357   -3.4695    1.7637 H   0  0  0  0  0  0  0  0  0  0  0  0
   -1.0205    0.9107   -0.9748 C   0  0  0  0  0  0  0  0  0  0  0  0
   -1.0205    0.9107   -2.3901 C   0  0  0  0  0  0  0  0  0  0  0  0
   -1.0205    2.1412   -2.7980 N   0  0  0  0  0  0  0  0  0  0  0  0
   -1.0205    2.8991   -1.6825 O   0  0  0  0  0  0  0  0  0  0  0  0
   -1.0205    2.1412   -0.5669 N   0  0  0  0  0  0  0  0  0  0  0  0
   -1.0205   -0.0728   -0.1367 H   0  0  0  0  0  0  0  0  0  0  0  0
   -1.0205    0.0911   -3.0886 H   0  0  0  0  0  0  0  0  0  0  0  0
  1  2  2  0
  2  3  1  0
  3  4  3  0
  4  5  1  0
  5  6  2  0
  5  7  1  0
  8  9  1  0
  8 12  2  0
  8 13  1  0
  9 10  2  0
  9 14  1  0
 10 11  1  0
 11 12  1  0
M  RAD  1   2   2
M  END
>  <reaction>  (12) 
kfir_rxn_13108

>  <mol_properties>  (12) 
{"1": {"label": "*1", "atom_type": "CO"}, "2": {"label": "*0", "atom_type": "Ct"}, "7": {"label": "*3", "atom_type": "Cdd"}, "11": {"label": "*4", "atom_type": "N3d"}, "12": {"label": "*2", "atom_type": "H0"}}

>  <type>  (12) 
unop_8

>  <geom_source>  (12) 
Heuristics

$$$$

     RDKit          3D

 14 13  0  0  0  0  0  0  0  0999 V2000
    0.6616   -0.1549    2.5832 O   0  0  0  0  0  0  0  0  0  0  0  0
    0.4291   -0.3568    1.4245 C   0  0  0  0  0  3  0  0  0  0  0  0
   -0.2318   -1.5546    0.9411 C   0  0  0  0  0  0  0  0  0  0  0  0
   -0.7612   -2.5401    0.4988 C   0  0  0  0  0  0  0  0  0  0  0  0
   -1.4451   -3.7165   -0.0050 C   0  0  0  0  0  0  0  0  0  0  0  0
   -0.8724   -4.6719   -0.4486 O   0  0  0  0  0  0  0  0  0  0  0  0
   -2.5460   -3.6624    0.0528 H   0  0  0  0  0  0  0  0  0  0  0  0
    0.4291    1.6348   -0.2728 C   0  0  0  0  0  0  0  0  0  0  0  0
    0.4291    1.6348   -1.6881 C   0  0  0  0  0  0  0  0  0  0  0  0
    0.4291    2.8653   -2.0960 N   0  0  0  0  0  0  0  0  0  0  0  0
    0.4291    3.6232   -0.9805 O   0  0  0  0  0  0  0  0  0  0  0  0
    0.4291    2.8653    0.1351 N   0  0  0  0  0  0  0  0  0  0  0  0
    0.4291    0.6513    0.5653 H   0  0  0  0  0  0  0  0  0  0  0  0
    0.4291    0.8152   -2.3866 H   0  0  0  0  0  0  0  0  0  0  0  0
  1  2  2  0
  2  3  1  0
  3  4  3  0
  4  5  1  0
  5  6  2  0
  5  7  1  0
  8  9  1  0
  8 12  2  0
  8 13  1  0
  9 10  2  0
  9 14  1  0
 10 11  1  0
 11 12  1  0
M  RAD  1   2   2
M  END
>  <reaction>  (13) 
kfir_rxn_13108

>  <mol_properties>  (13) 
{"1": {"label": "*1", "atom_type": "CO"}, "2": {"label": "*0", "atom_type": "Ct"}, "7": {"label": "*3", "atom_type": "Cdd"}, "11": {"label": "*4", "atom_type": "N3d"}, "12": {"label": "*2", "atom_type": "H0"}}

>  <type>  (13) 
unop_9

>  <geom_source>  (13) 
Heuristics

$$$$

     RDKit          3D

 14 13  0  0  0  0  0  0  0  0999 V2000
   -1.5016   -0.5117    2.1470 O   0  0  0  0  0  0  0  0  0  0  0  0
   -0.9388   -0.7289    1.1109 C   0  0  0  0  0  3  0  0  0  0  0  0
    0.2061   -1.6129    0.9957 C   0  0  0  0  0  0  0  0  0  0  0  0
    1.1670   -2.3240    0.8613 C   0  0  0  0  0  0  0  0  0  0  0  0
    2.2954   -3.2247    0.7171 C   0  0  0  0  0  0  0  0  0  0  0  0
    3.4359   -2.8549    0.7053 O   0  0  0  0  0  0  0  0  0  0  0  0
    2.0186   -4.2885    0.6179 H   0  0  0  0  0  0  0  0  0  0  0  0
   -0.9388    1.2627   -0.5864 C   0  0  0  0  0  0  0  0  0  0  0  0
   -0.9388    1.2627   -2.0017 C   0  0  0  0  0  0  0  0  0  0  0  0
   -0.9388    2.4931   -2.4096 N   0  0  0  0  0  0  0  0  0  0  0  0
   -0.9388    3.2510   -1.2940 O   0  0  0  0  0  0  0  0  0  0  0  0
   -0.9388    2.4931   -0.1785 N   0  0  0  0  0  0  0  0  0  0  0  0
   -0.9388    0.2792    0.2517 H   0  0  0  0  0  0  0  0  0  0  0  0
   -0.9388    0.4431   -2.7001 H   0  0  0  0  0  0  0  0  0  0  0  0
  1  2  2  0
  2  3  1  0
  3  4  3  0
  4  5  1  0
  5  6  2  0
  5  7  1  0
  8  9  1  0
  8 12  2  0
  8 13  1  0
  9 10  2  0
  9 14  1  0
 10 11  1  0
 11 12  1  0
M  RAD  1   2   2
M  END
>  <reaction>  (14) 
kfir_rxn_13108

>  <mol_properties>  (14) 
{"1": {"label": "*1", "atom_type": "CO"}, "2": {"label": "*0", "atom_type": "Ct"}, "7": {"label": "*3", "atom_type": "Cdd"}, "11": {"label": "*4", "atom_type": "N3d"}, "12": {"label": "*2", "atom_type": "H0"}}

>  <type>  (14) 
unop_10

>  <geom_source>  (14) 
Heuristics

$$$$

     RDKit          3D

 14 13  0  0  0  0  0  0  0  0999 V2000
    1.4424   -2.2151    0.0204 O   0  0  0  0  0  0  0  0  0  0  0  0
    0.5243   -1.4508    0.1230 C   0  0  0  0  0  3  0  0  0  0  0  0
   -0.1366   -1.1634    1.3823 C   0  0  0  0  0  0  0  0  0  0  0  0
   -0.7217   -0.9113    2.4028 C   0  0  0  0  0  0  0  0  0  0  0  0
   -1.3799   -0.5874    3.6546 C   0  0  0  0  0  0  0  0  0  0  0  0
   -2.3973   -1.1074    4.0176 O   0  0  0  0  0  0  0  0  0  0  0  0
   -0.8648    0.1838    4.2532 H   0  0  0  0  0  0  0  0  0  0  0  0
    0.5243    0.5408   -1.5742 C   0  0  0  0  0  0  0  0  0  0  0  0
    0.5243    0.5408   -2.9895 C   0  0  0  0  0  0  0  0  0  0  0  0
    0.5243    1.7713   -3.3974 N   0  0  0  0  0  0  0  0  0  0  0  0
    0.5243    2.5292   -2.2819 O   0  0  0  0  0  0  0  0  0  0  0  0
    0.5243    1.7713   -1.1663 N   0  0  0  0  0  0  0  0  0  0  0  0
    0.5243   -0.4427   -0.7361 H   0  0  0  0  0  0  0  0  0  0  0  0
    0.5243   -0.2788   -3.6880 H   0  0  0  0  0  0  0  0  0  0  0  0
  1  2  2  0
  2  3  1  0
  3  4  3  0
  4  5  1  0
  5  6  2  0
  5  7  1  0
  8  9  1  0
  8 12  2  0
  8 13  1  0
  9 10  2  0
  9 14  1  0
 10 11  1  0
 11 12  1  0
M  RAD  1   2   2
M  END
>  <reaction>  (15) 
kfir_rxn_13108

>  <mol_properties>  (15) 
{"1": {"label": "*1", "atom_type": "CO"}, "2": {"label": "*0", "atom_type": "Ct"}, "7": {"label": "*3", "atom_type": "Cdd"}, "11": {"label": "*4", "atom_type": "N3d"}, "12": {"label": "*2", "atom_type": "H0"}}

>  <type>  (15) 
unop_11

>  <geom_source>  (15) 
Heuristics

$$$$

     RDKit          3D

 14 13  0  0  0  0  0  0  0  0999 V2000
   -0.0967   -0.1361    2.7083 O   0  0  0  0  0  0  0  0  0  0  0  0
   -0.0966   -0.3051    1.5213 C   0  0  0  0  0  3  0  0  0  0  0  0
   -0.0966   -1.6178    0.9031 C   0  0  0  0  0  0  0  0  0  0  0  0
   -0.0793   -2.6871    0.3523 C   0  0  0  0  0  0  0  0  0  0  0  0
   -0.1073   -3.9888   -0.2882 C   0  0  0  0  0  0  0  0  0  0  0  0
    0.8749   -4.5452   -0.6924 O   0  0  0  0  0  0  0  0  0  0  0  0
   -1.1146   -4.4315   -0.3752 H   0  0  0  0  0  0  0  0  0  0  0  0
   -0.0966    1.6865   -0.1760 C   0  0  0  0  0  0  0  0  0  0  0  0
   -0.0966    1.6865   -1.5912 C   0  0  0  0  0  0  0  0  0  0  0  0
   -0.0966    2.9169   -1.9992 N   0  0  0  0  0  0  0  0  0  0  0  0
   -0.0966    3.6748   -0.8836 O   0  0  0  0  0  0  0  0  0  0  0  0
   -0.0966    2.9169    0.2320 N   0  0  0  0  0  0  0  0  0  0  0  0
   -0.0966    0.7030    0.6622 H   0  0  0  0  0  0  0  0  0  0  0  0
   -0.0966    0.8669   -2.2897 H   0  0  0  0  0  0  0  0  0  0  0  0
  1  2  2  0
  2  3  1  0
  3  4  3  0
  4  5  1  0
  5  6  2  0
  5  7  1  0
  8  9  1  0
  8 12  2  0
  8 13  1  0
  9 10  2  0
  9 14  1  0
 10 11  1  0
 11 12  1  0
M  RAD  1   2   2
M  END
>  <reaction>  (16) 
kfir_rxn_13108

>  <mol_properties>  (16) 
{"1": {"label": "*1", "atom_type": "CO"}, "2": {"label": "*0", "atom_type": "Ct"}, "7": {"label": "*3", "atom_type": "Cdd"}, "11": {"label": "*4", "atom_type": "N3d"}, "12": {"label": "*2", "atom_type": "H0"}}

>  <type>  (16) 
unop_12

>  <geom_source>  (16) 
Heuristics

$$$$
