
     RDKit          3D

  7  6  0  0  0  0  0  0  0  0999 V2000
   -2.1655    1.0146    0.0087 N   0  0  0  0  0  0  0  0  0  0  0  0
   -1.2095    0.3846    0.0054 C   0  0  0  0  0  0  0  0  0  0  0  0
   -0.0101   -0.4520    0.0013 C   0  0  0  0  0  0  0  0  0  0  0  0
    1.2256    0.3300   -0.0075 C   0  0  0  0  0  0  0  0  0  0  0  0
    2.2088    0.9164   -0.0144 N   0  0  0  0  0  0  0  0  0  0  0  0
   -0.0199   -1.0943    0.8846 H   0  0  0  0  0  0  0  0  0  0  0  0
   -0.0293   -1.0993   -0.8781 H   0  0  0  0  0  0  0  0  0  0  0  0
  1  2  3  0
  2  3  1  0
  3  4  1  0
  3  6  1  0
  3  7  1  0
  4  5  3  0
M  END
>  <reaction>  (1) 
kfir_rxn_13712

>  <mol_properties>  (1) 
{"2": {"label": "donator", "atom_type": "Cs"}, "5": {"label": "d_hydrogen", "atom_type": "H0"}}

>  <type>  (1) 
r1h

$$$$

     RDKit          3D

  7  7  0  0  0  0  0  0  0  0999 V2000
   -1.2563   -0.1887   -0.1652 C   0  0  0  0  0  3  0  0  0  0  0  0
   -0.8762    0.2757    1.0458 O   0  0  0  0  0  0  0  0  0  0  0  0
    0.0069    0.5193   -0.0759 C   0  0  0  0  0  0  0  0  0  0  0  0
    1.2682   -0.1856   -0.0305 C   0  0  0  0  0  0  0  0  0  0  0  0
    2.2734   -0.7380   -0.0315 N   0  0  0  0  0  0  0  0  0  0  0  0
   -1.4852   -1.2346   -0.3436 H   0  0  0  0  0  0  0  0  0  0  0  0
    0.0691    1.5520   -0.3991 H   0  0  0  0  0  0  0  0  0  0  0  0
  1  3  1  0
  1  2  1  0
  1  6  1  0
  2  3  1  0
  3  4  1  0
  3  7  1  0
  4  5  3  0
M  RAD  1   1   2
M  END
>  <reaction>  (2) 
kfir_rxn_13712

>  <mol_properties>  (2) 
{"0": {"label": "acceptor", "atom_type": "Cs"}}

>  <type>  (2) 
r2

$$$$

     RDKit          3D

  8  8  0  0  0  0  0  0  0  0999 V2000
   -1.0326   -0.2211    0.1256 C   0  0  0  0  0  0  0  0  0  0  0  0
   -0.6806    0.6423   -0.9351 O   0  0  0  0  0  0  0  0  0  0  0  0
    0.2609    0.4685    0.1012 C   0  0  0  0  0  0  0  0  0  0  0  0
    1.4683   -0.2600   -0.2326 C   0  0  0  0  0  0  0  0  0  0  0  0
    2.4332   -0.8311   -0.4724 N   0  0  0  0  0  0  0  0  0  0  0  0
   -1.8016    0.1476    0.7963 H   0  0  0  0  0  0  0  0  0  0  0  0
   -1.0701   -1.2763   -0.1236 H   0  0  0  0  0  0  0  0  0  0  0  0
    0.4225    1.3301    0.7407 H   0  0  0  0  0  0  0  0  0  0  0  0
  1  3  1  0
  1  2  1  0
  1  6  1  0
  1  7  1  0
  2  3  1  0
  3  4  1  0
  3  8  1  0
  4  5  3  0
M  END
>  <reaction>  (3) 
kfir_rxn_13712

>  <mol_properties>  (3) 
{"0": {"label": "acceptor", "atom_type": "Cs"}, "7": {"label": "a_hydrogen", "atom_type": "H0"}}

>  <type>  (3) 
r2h

$$$$

     RDKit          3D

 14 13  0  0  0  0  0  0  0  0999 V2000
    1.2721    0.1815    1.0432 C   0  0  0  0  0  3  0  0  0  0  0  0
    1.2674    1.3577    1.7313 O   0  0  0  0  0  0  0  0  0  0  0  0
    1.7348    1.3893    0.3722 C   0  0  0  0  0  0  0  0  0  0  0  0
    0.8638    2.0469   -0.5783 C   0  0  0  0  0  0  0  0  0  0  0  0
    0.1616    2.5454   -1.3349 N   0  0  0  0  0  0  0  0  0  0  0  0
    1.8712   -0.6614    1.3780 H   0  0  0  0  0  0  0  0  0  0  0  0
    2.7926    1.5954    0.2569 H   0  0  0  0  0  0  0  0  0  0  0  0
   -0.5831   -2.3355   -1.6616 N   0  0  0  0  0  0  0  0  0  0  0  0
   -0.8831   -1.5764   -0.8546 C   0  0  0  0  0  0  0  0  0  0  0  0
   -1.1671   -0.5961    0.1612 C   0  0  0  0  0  0  0  0  0  0  0  0
   -1.9108   -1.0693    1.2989 C   0  0  0  0  0  0  0  0  0  0  0  0
   -2.4606   -1.4177    2.2443 N   0  0  0  0  0  0  0  0  0  0  0  0
   -0.0089   -0.2473    0.6175 H   0  0  0  0  0  0  0  0  0  0  0  0
   -1.5616    0.3328   -0.2494 H   0  0  0  0  0  0  0  0  0  0  0  0
  1  3  1  0
  1  2  1  0
  1  6  1  0
  2  3  1  0
  3  4  1  0
  3  7  1  0
  4  5  3  0
  8  9  3  0
  9 10  1  0
 10 11  1  0
 10 13  1  0
 10 14  1  0
 11 12  3  0
M  RAD  1   1   2
M  END
>  <reaction>  (4) 
kfir_rxn_13712

>  <mol_properties>  (4) 
{"0": {"label": "*3", "atom_type": "Cs"}, "1": {"label": "*4", "atom_type": "O2s"}, "8": {"label": "*0", "atom_type": "Ct"}, "9": {"label": "*1", "atom_type": "Cs"}, "12": {"label": "*2", "atom_type": "H0"}}

>  <type>  (4) 
ts

$$$$

     RDKit          3D

 14 13  0  0  0  0  0  0  0  0999 V2000
    1.4289    0.3863    0.3524 C   0  0  0  0  0  0  0  0  0  0  0  0
    0.7550    0.3467    1.5929 O   0  0  0  0  0  0  0  0  0  0  0  0
    1.2447    1.5966    1.1588 C   0  0  0  0  0  0  0  0  0  0  0  0
    0.2563    2.5843    0.7744 C   0  0  0  0  0  0  0  0  0  0  0  0
   -0.5062    3.3836    0.4670 N   0  0  0  0  0  0  0  0  0  0  0  0
    2.4093   -0.0781    0.3350 H   0  0  0  0  0  0  0  0  0  0  0  0
    2.0795    1.9980    1.7239 H   0  0  0  0  0  0  0  0  0  0  0  0
   -0.6793   -0.9593   -3.0741 N   0  0  0  0  0  2  0  0  0  0  0  0
   -0.6793   -0.9593   -1.9292 C   0  0  0  0  0  0  0  0  0  0  0  0
   -0.6793   -0.9206   -0.4674 C   0  0  0  0  0  0  0  0  0  0  0  0
   -0.6793   -2.2535    0.1342 C   0  0  0  0  0  0  0  0  0  0  0  0
   -0.6793   -3.2842    0.6326 N   0  0  0  0  0  0  0  0  0  0  0  0
    0.3784   -0.2649   -0.0561 H   0  0  0  0  0  0  0  0  0  0  0  0
   -1.5607   -0.3742   -0.1246 H   0  0  0  0  0  0  0  0  0  0  0  0
  1  3  1  0
  1  2  1  0
  1  6  1  0
  1 13  1  0
  2  3  1  0
  3  4  1  0
  3  7  1  0
  4  5  3  0
  8  9  2  0
  9 10  2  0
 10 11  1  0
 10 14  1  0
 11 12  3  0
M  RAD  1   8   2
M  END
>  <reaction>  (5) 
kfir_rxn_13712

>  <mol_properties>  (5) 
{"0": {"label": "*3", "atom_type": "Cs"}, "1": {"label": "*4", "atom_type": "O2s"}, "8": {"label": "*0", "atom_type": "Ct"}, "9": {"label": "*1", "atom_type": "Cs"}, "12": {"label": "*2", "atom_type": "H0"}}

>  <type>  (5) 
unop_1

>  <geom_source>  (5) 
Heuristics

$$$$

     RDKit          3D

 14 13  0  0  0  0  0  0  0  0999 V2000
    1.0158    0.5245    1.2526 C   0  0  0  0  0  0  0  0  0  0  0  0
    0.5214    1.8457    1.3202 O   0  0  0  0  0  0  0  0  0  0  0  0
    1.5650    1.5883    0.4064 C   0  0  0  0  0  0  0  0  0  0  0  0
    1.2259    1.6471   -1.0013 C   0  0  0  0  0  0  0  0  0  0  0  0
    0.9834    1.6899   -2.1212 N   0  0  0  0  0  0  0  0  0  0  0  0
    1.5952    0.1950    2.1087 H   0  0  0  0  0  0  0  0  0  0  0  0
    2.5261    2.0281    0.6521 H   0  0  0  0  0  0  0  0  0  0  0  0
   -1.0924   -0.8211   -2.1739 N   0  0  0  0  0  2  0  0  0  0  0  0
   -1.0924   -0.8211   -1.0290 C   0  0  0  0  0  0  0  0  0  0  0  0
   -1.0924   -0.7824    0.4328 C   0  0  0  0  0  0  0  0  0  0  0  0
   -1.0924   -2.1153    1.0344 C   0  0  0  0  0  0  0  0  0  0  0  0
   -1.0924   -3.1460    1.5328 N   0  0  0  0  0  0  0  0  0  0  0  0
   -0.0347   -0.1267    0.8441 H   0  0  0  0  0  0  0  0  0  0  0  0
   -1.9738   -0.2360    0.7756 H   0  0  0  0  0  0  0  0  0  0  0  0
  1  3  1  0
  1  2  1  0
  1  6  1  0
  1 13  1  0
  2  3  1  0
  3  4  1  0
  3  7  1  0
  4  5  3  0
  8  9  2  0
  9 10  2  0
 10 11  1  0
 10 14  1  0
 11 12  3  0
M  RAD  1   8   2
M  END
>  <reaction>  (6) 
kfir_rxn_13712

>  <mol_properties>  (6) 
{"0": {"label": "*3", "atom_type": "Cs"}, "1": {"label": "*4", "atom_type": "O2s"}, "8": {"label": "*0", "atom_type": "Ct"}, "9": {"label": "*1", "atom_type": "Cs"}, "12": {"label": "*2", "atom_type": "H0"}}

>  <type>  (6) 
unop_2

>  <geom_source>  (6) 
Heuristics

$$$$

     RDKit          3D

 14 13  0  0  0  0  0  0  0  0999 V2000
    1.3936    0.6834    0.0110 C   0  0  0  0  0  0  0  0  0  0  0  0
    1.2995    0.0144    1.2512 O   0  0  0  0  0  0  0  0  0  0  0  0
    1.3226    1.4249    1.2737 C   0  0  0  0  0  0  0  0  0  0  0  0
    0.0940    2.0893    1.6599 C   0  0  0  0  0  0  0  0  0  0  0  0
   -0.8653    2.6384    1.9646 N   0  0  0  0  0  0  0  0  0  0  0  0
    2.3526    0.6098   -0.4912 H   0  0  0  0  0  0  0  0  0  0  0  0
    2.2207    1.8752    1.6836 H   0  0  0  0  0  0  0  0  0  0  0  0
   -0.7146   -0.6622   -3.4155 N   0  0  0  0  0  2  0  0  0  0  0  0
   -0.7146   -0.6622   -2.2706 C   0  0  0  0  0  0  0  0  0  0  0  0
   -0.7146   -0.6235   -0.8088 C   0  0  0  0  0  0  0  0  0  0  0  0
   -0.7146   -1.9564   -0.2072 C   0  0  0  0  0  0  0  0  0  0  0  0
   -0.7146   -2.9871    0.2912 N   0  0  0  0  0  0  0  0  0  0  0  0
    0.3431    0.0322   -0.3975 H   0  0  0  0  0  0  0  0  0  0  0  0
   -1.5960   -0.0771   -0.4660 H   0  0  0  0  0  0  0  0  0  0  0  0
  1  3  1  0
  1  2  1  0
  1  6  1  0
  1 13  1  0
  2  3  1  0
  3  4  1  0
  3  7  1  0
  4  5  3  0
  8  9  2  0
  9 10  2  0
 10 11  1  0
 10 14  1  0
 11 12  3  0
M  RAD  1   8   2
M  END
>  <reaction>  (7) 
kfir_rxn_13712

>  <mol_properties>  (7) 
{"0": {"label": "*3", "atom_type": "Cs"}, "1": {"label": "*4", "atom_type": "O2s"}, "8": {"label": "*0", "atom_type": "Ct"}, "9": {"label": "*1", "atom_type": "Cs"}, "12": {"label": "*2", "atom_type": "H0"}}

>  <type>  (7) 
unop_3

>  <geom_source>  (7) 
Heuristics

$$$$

     RDKit          3D

 14 13  0  0  0  0  0  0  0  0999 V2000
    0.4699    1.2487    1.1222 C   0  0  0  0  0  0  0  0  0  0  0  0
    1.4851    2.1209    0.6714 O   0  0  0  0  0  0  0  0  0  0  0  0
    1.7999    0.7486    0.7612 C   0  0  0  0  0  0  0  0  0  0  0  0
    1.9981    0.0437   -0.4894 C   0  0  0  0  0  0  0  0  0  0  0  0
    2.1621   -0.5357   -1.4651 N   0  0  0  0  0  0  0  0  0  0  0  0
    0.2159    1.3270    2.1741 H   0  0  0  0  0  0  0  0  0  0  0  0
    2.5018    0.4760    1.5425 H   0  0  0  0  0  0  0  0  0  0  0  0
   -1.6383   -0.0969   -2.3043 N   0  0  0  0  0  2  0  0  0  0  0  0
   -1.6383   -0.0969   -1.1594 C   0  0  0  0  0  0  0  0  0  0  0  0
   -1.6383   -0.0582    0.3024 C   0  0  0  0  0  0  0  0  0  0  0  0
   -1.6383   -1.3911    0.9040 C   0  0  0  0  0  0  0  0  0  0  0  0
   -1.6383   -2.4218    1.4024 N   0  0  0  0  0  0  0  0  0  0  0  0
   -0.5806    0.5975    0.7137 H   0  0  0  0  0  0  0  0  0  0  0  0
   -2.5197    0.4882    0.6452 H   0  0  0  0  0  0  0  0  0  0  0  0
  1  3  1  0
  1  2  1  0
  1  6  1  0
  1 13  1  0
  2  3  1  0
  3  4  1  0
  3  7  1  0
  4  5  3  0
  8  9  2  0
  9 10  2  0
 10 11  1  0
 10 14  1  0
 11 12  3  0
M  RAD  1   8   2
M  END
>  <reaction>  (8) 
kfir_rxn_13712

>  <mol_properties>  (8) 
{"0": {"label": "*3", "atom_type": "Cs"}, "1": {"label": "*4", "atom_type": "O2s"}, "8": {"label": "*0", "atom_type": "Ct"}, "9": {"label": "*1", "atom_type": "Cs"}, "12": {"label": "*2", "atom_type": "H0"}}

>  <type>  (8) 
unop_4

>  <geom_source>  (8) 
Heuristics

$$$$

     RDKit          3D

 14 13  0  0  0  0  0  0  0  0999 V2000
    1.1183    1.1845   -0.1300 C   0  0  0  0  0  0  0  0  0  0  0  0
    2.0784    0.4161    0.5645 O   0  0  0  0  0  0  0  0  0  0  0  0
    1.3331    1.3535    1.3103 C   0  0  0  0  0  0  0  0  0  0  0  0
    0.3757    0.8177    2.2571 C   0  0  0  0  0  0  0  0  0  0  0  0
   -0.3868    0.4185    3.0148 N   0  0  0  0  0  0  0  0  0  0  0  0
    1.5159    1.9370   -0.8030 H   0  0  0  0  0  0  0  0  0  0  0  0
    1.8859    2.2135    1.6738 H   0  0  0  0  0  0  0  0  0  0  0  0
   -0.9899   -0.1611   -3.5565 N   0  0  0  0  0  2  0  0  0  0  0  0
   -0.9899   -0.1611   -2.4117 C   0  0  0  0  0  0  0  0  0  0  0  0
   -0.9899   -0.1224   -0.9498 C   0  0  0  0  0  0  0  0  0  0  0  0
   -0.9900   -1.4553   -0.3482 C   0  0  0  0  0  0  0  0  0  0  0  0
   -0.9900   -2.4860    0.1502 N   0  0  0  0  0  0  0  0  0  0  0  0
    0.0677    0.5333   -0.5385 H   0  0  0  0  0  0  0  0  0  0  0  0
   -1.8713    0.4240   -0.6071 H   0  0  0  0  0  0  0  0  0  0  0  0
  1  3  1  0
  1  2  1  0
  1  6  1  0
  1 13  1  0
  2  3  1  0
  3  4  1  0
  3  7  1  0
  4  5  3  0
  8  9  2  0
  9 10  2  0
 10 11  1  0
 10 14  1  0
 11 12  3  0
M  RAD  1   8   2
M  END
>  <reaction>  (9) 
kfir_rxn_13712

>  <mol_properties>  (9) 
{"0": {"label": "*3", "atom_type": "Cs"}, "1": {"label": "*4", "atom_type": "O2s"}, "8": {"label": "*0", "atom_type": "Ct"}, "9": {"label": "*1", "atom_type": "Cs"}, "12": {"label": "*2", "atom_type": "H0"}}

>  <type>  (9) 
unop_5

>  <geom_source>  (9) 
Heuristics

$$$$

     RDKit          3D

 14 13  0  0  0  0  0  0  0  0999 V2000
    0.4136    1.4489    0.8233 C   0  0  0  0  0  0  0  0  0  0  0  0
    1.6769    2.0207    0.5559 O   0  0  0  0  0  0  0  0  0  0  0  0
    1.6540    0.7090    1.0751 C   0  0  0  0  0  0  0  0  0  0  0  0
    2.0634   -0.3528    0.1778 C   0  0  0  0  0  0  0  0  0  0  0  0
    2.3853   -1.2103   -0.5120 N   0  0  0  0  0  0  0  0  0  0  0  0
   -0.1206    1.8647    1.6713 H   0  0  0  0  0  0  0  0  0  0  0  0
    2.0165    0.5980    2.0917 H   0  0  0  0  0  0  0  0  0  0  0  0
   -1.6946    0.1033   -2.6032 N   0  0  0  0  0  2  0  0  0  0  0  0
   -1.6946    0.1033   -1.4583 C   0  0  0  0  0  0  0  0  0  0  0  0
   -1.6946    0.1420    0.0036 C   0  0  0  0  0  0  0  0  0  0  0  0
   -1.6946   -1.1910    0.6051 C   0  0  0  0  0  0  0  0  0  0  0  0
   -1.6947   -2.2217    1.1035 N   0  0  0  0  0  0  0  0  0  0  0  0
   -0.6369    0.7976    0.4149 H   0  0  0  0  0  0  0  0  0  0  0  0
   -2.5760    0.6884    0.3463 H   0  0  0  0  0  0  0  0  0  0  0  0
  1  3  1  0
  1  2  1  0
  1  6  1  0
  1 13  1  0
  2  3  1  0
  3  4  1  0
  3  7  1  0
  4  5  3  0
  8  9  2  0
  9 10  2  0
 10 11  1  0
 10 14  1  0
 11 12  3  0
M  RAD  1   8   2
M  END
>  <reaction>  (10) 
kfir_rxn_13712

>  <mol_properties>  (10) 
{"0": {"label": "*3", "atom_type": "Cs"}, "1": {"label": "*4", "atom_type": "O2s"}, "8": {"label": "*0", "atom_type": "Ct"}, "9": {"label": "*1", "atom_type": "Cs"}, "12": {"label": "*2", "atom_type": "H0"}}

>  <type>  (10) 
unop_6

>  <geom_source>  (10) 
Heuristics

$$$$

     RDKit          3D

 14 13  0  0  0  0  0  0  0  0999 V2000
    0.4834    1.5400    0.4594 C   0  0  0  0  0  0  0  0  0  0  0  0
    1.8598    1.8515    0.4042 O   0  0  0  0  0  0  0  0  0  0  0  0
    1.4553    0.8539    1.3161 C   0  0  0  0  0  0  0  0  0  0  0  0
    1.8598   -0.5048    1.0150 C   0  0  0  0  0  0  0  0  0  0  0  0
    2.1695   -1.5877    0.8002 N   0  0  0  0  0  0  0  0  0  0  0  0
   -0.1525    2.2980    0.9047 H   0  0  0  0  0  0  0  0  0  0  0  0
    1.5268    1.1179    2.3661 H   0  0  0  0  0  0  0  0  0  0  0  0
   -1.6248    0.1945   -2.9671 N   0  0  0  0  0  2  0  0  0  0  0  0
   -1.6248    0.1945   -1.8222 C   0  0  0  0  0  0  0  0  0  0  0  0
   -1.6248    0.2331   -0.3603 C   0  0  0  0  0  0  0  0  0  0  0  0
   -1.6248   -1.0998    0.2412 C   0  0  0  0  0  0  0  0  0  0  0  0
   -1.6248   -2.1305    0.7396 N   0  0  0  0  0  0  0  0  0  0  0  0
   -0.5671    0.8888    0.0509 H   0  0  0  0  0  0  0  0  0  0  0  0
   -2.5062    0.7796   -0.0176 H   0  0  0  0  0  0  0  0  0  0  0  0
  1  3  1  0
  1  2  1  0
  1  6  1  0
  1 13  1  0
  2  3  1  0
  3  4  1  0
  3  7  1  0
  4  5  3  0
  8  9  2  0
  9 10  2  0
 10 11  1  0
 10 14  1  0
 11 12  3  0
M  RAD  1   8   2
M  END
>  <reaction>  (11) 
kfir_rxn_13712

>  <mol_properties>  (11) 
{"0": {"label": "*3", "atom_type": "Cs"}, "1": {"label": "*4", "atom_type": "O2s"}, "8": {"label": "*0", "atom_type": "Ct"}, "9": {"label": "*1", "atom_type": "Cs"}, "12": {"label": "*2", "atom_type": "H0"}}

>  <type>  (11) 
unop_7

>  <geom_source>  (11) 
Heuristics

$$$$

     RDKit          3D

 14 13  0  0  0  0  0  0  0  0999 V2000
    1.3490    0.2918    0.7233 C   0  0  0  0  0  0  0  0  0  0  0  0
    0.4703    0.8493    1.6781 O   0  0  0  0  0  0  0  0  0  0  0  0
    1.2543    1.7419    0.9171 C   0  0  0  0  0  0  0  0  0  0  0  0
    0.5524    2.5615   -0.0502 C   0  0  0  0  0  0  0  0  0  0  0  0
    0.0199    3.2228   -0.8208 N   0  0  0  0  0  0  0  0  0  0  0  0
    2.2124   -0.2275    1.1258 H   0  0  0  0  0  0  0  0  0  0  0  0
    2.0357    2.2636    1.4598 H   0  0  0  0  0  0  0  0  0  0  0  0
   -0.7593   -1.0538   -2.7032 N   0  0  0  0  0  2  0  0  0  0  0  0
   -0.7593   -1.0538   -1.5584 C   0  0  0  0  0  0  0  0  0  0  0  0
   -0.7593   -1.0151   -0.0965 C   0  0  0  0  0  0  0  0  0  0  0  0
   -0.7593   -2.3481    0.5051 C   0  0  0  0  0  0  0  0  0  0  0  0
   -0.7593   -3.3788    1.0035 N   0  0  0  0  0  0  0  0  0  0  0  0
    0.2984   -0.3595    0.3148 H   0  0  0  0  0  0  0  0  0  0  0  0
   -1.6406   -0.4687    0.2462 H   0  0  0  0  0  0  0  0  0  0  0  0
  1  3  1  0
  1  2  1  0
  1  6  1  0
  1 13  1  0
  2  3  1  0
  3  4  1  0
  3  7  1  0
  4  5  3  0
  8  9  2  0
  9 10  2  0
 10 11  1  0
 10 14  1  0
 11 12  3  0
M  RAD  1   8   2
M  END
>  <reaction>  (12) 
kfir_rxn_13712

>  <mol_properties>  (12) 
{"0": {"label": "*3", "atom_type": "Cs"}, "1": {"label": "*4", "atom_type": "O2s"}, "8": {"label": "*0", "atom_type": "Ct"}, "9": {"label": "*1", "atom_type": "Cs"}, "12": {"label": "*2", "atom_type": "H0"}}

>  <type>  (12) 
unop_8

>  <geom_source>  (12) 
Heuristics

$$$$

     RDKit          3D

 14 13  0  0  0  0  0  0  0  0999 V2000
    0.6216    0.9965    1.3006 C   0  0  0  0  0  0  0  0  0  0  0  0
    1.2046    2.1839    0.8060 O   0  0  0  0  0  0  0  0  0  0  0  0
    1.8383    0.9653    0.4834 C   0  0  0  0  0  0  0  0  0  0  0  0
    1.7742    0.5460   -0.9023 C   0  0  0  0  0  0  0  0  0  0  0  0
    1.7395    0.1936   -1.9929 N   0  0  0  0  0  0  0  0  0  0  0  0
    0.7137    0.8376    2.3699 H   0  0  0  0  0  0  0  0  0  0  0  0
    2.7994    0.7938    0.9569 H   0  0  0  0  0  0  0  0  0  0  0  0
   -1.4867   -0.3491   -2.1259 N   0  0  0  0  0  2  0  0  0  0  0  0
   -1.4867   -0.3491   -0.9810 C   0  0  0  0  0  0  0  0  0  0  0  0
   -1.4867   -0.3104    0.4809 C   0  0  0  0  0  0  0  0  0  0  0  0
   -1.4867   -1.6433    1.0824 C   0  0  0  0  0  0  0  0  0  0  0  0
   -1.4867   -2.6740    1.5808 N   0  0  0  0  0  0  0  0  0  0  0  0
   -0.4290    0.3453    0.8921 H   0  0  0  0  0  0  0  0  0  0  0  0
   -2.3681    0.2360    0.8236 H   0  0  0  0  0  0  0  0  0  0  0  0
  1  3  1  0
  1  2  1  0
  1  6  1  0
  1 13  1  0
  2  3  1  0
  3  4  1  0
  3  7  1  0
  4  5  3  0
  8  9  2  0
  9 10  2  0
 10 11  1  0
 10 14  1  0
 11 12  3  0
M  RAD  1   8   2
M  END
>  <reaction>  (13) 
kfir_rxn_13712

>  <mol_properties>  (13) 
{"0": {"label": "*3", "atom_type": "Cs"}, "1": {"label": "*4", "atom_type": "O2s"}, "8": {"label": "*0", "atom_type": "Ct"}, "9": {"label": "*1", "atom_type": "Cs"}, "12": {"label": "*2", "atom_type": "H0"}}

>  <type>  (13) 
unop_9

>  <geom_source>  (13) 
Heuristics

$$$$

     RDKit          3D

 14 13  0  0  0  0  0  0  0  0999 V2000
    1.1996    0.3556    1.0406 C   0  0  0  0  0  0  0  0  0  0  0  0
    0.3882    1.3833    1.5696 O   0  0  0  0  0  0  0  0  0  0  0  0
    1.3734    1.7520    0.6295 C   0  0  0  0  0  0  0  0  0  0  0  0
    0.9016    2.1933   -0.6678 C   0  0  0  0  0  0  0  0  0  0  0  0
    0.5534    2.5483   -1.7009 N   0  0  0  0  0  0  0  0  0  0  0  0
    1.9214   -0.0740    1.7274 H   0  0  0  0  0  0  0  0  0  0  0  0
    2.2061    2.3276    1.0203 H   0  0  0  0  0  0  0  0  0  0  0  0
   -0.9086   -0.9900   -2.3859 N   0  0  0  0  0  2  0  0  0  0  0  0
   -0.9086   -0.9900   -1.2410 C   0  0  0  0  0  0  0  0  0  0  0  0
   -0.9086   -0.9513    0.2208 C   0  0  0  0  0  0  0  0  0  0  0  0
   -0.9086   -2.2842    0.8224 C   0  0  0  0  0  0  0  0  0  0  0  0
   -0.9087   -3.3149    1.3208 N   0  0  0  0  0  0  0  0  0  0  0  0
    0.1490   -0.2956    0.6321 H   0  0  0  0  0  0  0  0  0  0  0  0
   -1.7900   -0.4049    0.5636 H   0  0  0  0  0  0  0  0  0  0  0  0
  1  3  1  0
  1  2  1  0
  1  6  1  0
  1 13  1  0
  2  3  1  0
  3  4  1  0
  3  7  1  0
  4  5  3  0
  8  9  2  0
  9 10  2  0
 10 11  1  0
 10 14  1  0
 11 12  3  0
M  RAD  1   8   2
M  END
>  <reaction>  (14) 
kfir_rxn_13712

>  <mol_properties>  (14) 
{"0": {"label": "*3", "atom_type": "Cs"}, "1": {"label": "*4", "atom_type": "O2s"}, "8": {"label": "*0", "atom_type": "Ct"}, "9": {"label": "*1", "atom_type": "Cs"}, "12": {"label": "*2", "atom_type": "H0"}}

>  <type>  (14) 
unop_10

>  <geom_source>  (14) 
Heuristics

$$$$

     RDKit          3D

 14 13  0  0  0  0  0  0  0  0999 V2000
    0.7053    1.4863    0.1028 C   0  0  0  0  0  0  0  0  0  0  0  0
    2.1058    1.4164    0.2703 O   0  0  0  0  0  0  0  0  0  0  0  0
    1.3018    1.1328    1.3945 C   0  0  0  0  0  0  0  0  0  0  0  0
    1.2856   -0.2422    1.8521 C   0  0  0  0  0  0  0  0  0  0  0  0
    1.2578   -1.3226    2.2350 N   0  0  0  0  0  0  0  0  0  0  0  0
    0.2959    2.4834   -0.0212 H   0  0  0  0  0  0  0  0  0  0  0  0
    1.3305    1.8677    2.1922 H   0  0  0  0  0  0  0  0  0  0  0  0
   -1.4029    0.1407   -3.3237 N   0  0  0  0  0  2  0  0  0  0  0  0
   -1.4029    0.1407   -2.1789 C   0  0  0  0  0  0  0  0  0  0  0  0
   -1.4029    0.1794   -0.7170 C   0  0  0  0  0  0  0  0  0  0  0  0
   -1.4030   -1.1535   -0.1154 C   0  0  0  0  0  0  0  0  0  0  0  0
   -1.4030   -2.1842    0.3829 N   0  0  0  0  0  0  0  0  0  0  0  0
   -0.3453    0.8351   -0.3057 H   0  0  0  0  0  0  0  0  0  0  0  0
   -2.2843    0.7258   -0.3743 H   0  0  0  0  0  0  0  0  0  0  0  0
  1  3  1  0
  1  2  1  0
  1  6  1  0
  1 13  1  0
  2  3  1  0
  3  4  1  0
  3  7  1  0
  4  5  3  0
  8  9  2  0
  9 10  2  0
 10 11  1  0
 10 14  1  0
 11 12  3  0
M  RAD  1   8   2
M  END
>  <reaction>  (15) 
kfir_rxn_13712

>  <mol_properties>  (15) 
{"0": {"label": "*3", "atom_type": "Cs"}, "1": {"label": "*4", "atom_type": "O2s"}, "8": {"label": "*0", "atom_type": "Ct"}, "9": {"label": "*1", "atom_type": "Cs"}, "12": {"label": "*2", "atom_type": "H0"}}

>  <type>  (15) 
unop_11

>  <geom_source>  (15) 
Heuristics

$$$$

     RDKit          3D

 14 13  0  0  0  0  0  0  0  0999 V2000
    0.8176    0.7467    1.3413 C   0  0  0  0  0  0  0  0  0  0  0  0
    0.8394    2.1237    1.0286 O   0  0  0  0  0  0  0  0  0  0  0  0
    1.7485    1.2879    0.3465 C   0  0  0  0  0  0  0  0  0  0  0  0
    1.5058    1.0798   -1.0670 C   0  0  0  0  0  0  0  0  0  0  0  0
    1.3365    0.9013   -2.1869 N   0  0  0  0  0  0  0  0  0  0  0  0
    1.2046    0.4806    2.3194 H   0  0  0  0  0  0  0  0  0  0  0  0
    2.7943    1.4189    0.6046 H   0  0  0  0  0  0  0  0  0  0  0  0
   -1.2906   -0.5989   -2.0852 N   0  0  0  0  0  2  0  0  0  0  0  0
   -1.2906   -0.5989   -0.9403 C   0  0  0  0  0  0  0  0  0  0  0  0
   -1.2906   -0.5602    0.5216 C   0  0  0  0  0  0  0  0  0  0  0  0
   -1.2907   -1.8932    1.1232 C   0  0  0  0  0  0  0  0  0  0  0  0
   -1.2907   -2.9239    1.6215 N   0  0  0  0  0  0  0  0  0  0  0  0
   -0.2330    0.0954    0.9329 H   0  0  0  0  0  0  0  0  0  0  0  0
   -2.1720   -0.0138    0.8643 H   0  0  0  0  0  0  0  0  0  0  0  0
  1  3  1  0
  1  2  1  0
  1  6  1  0
  1 13  1  0
  2  3  1  0
  3  4  1  0
  3  7  1  0
  4  5  3  0
  8  9  2  0
  9 10  2  0
 10 11  1  0
 10 14  1  0
 11 12  3  0
M  RAD  1   8   2
M  END
>  <reaction>  (16) 
kfir_rxn_13712

>  <mol_properties>  (16) 
{"0": {"label": "*3", "atom_type": "Cs"}, "1": {"label": "*4", "atom_type": "O2s"}, "8": {"label": "*0", "atom_type": "Ct"}, "9": {"label": "*1", "atom_type": "Cs"}, "12": {"label": "*2", "atom_type": "H0"}}

>  <type>  (16) 
unop_12

>  <geom_source>  (16) 
Heuristics

$$$$
