
     RDKit          3D

  7  7  0  0  0  0  0  0  0  0999 V2000
    1.6064   -0.4313    0.1905 N   0  0  0  0  0  0  0  0  0  0  0  0
    0.3982   -0.1725    0.0701 C   0  0  0  0  0  0  0  0  0  0  0  0
   -0.6051   -1.0481    0.3497 O   0  0  0  0  0  0  0  0  0  0  0  0
   -1.7906   -0.4044    0.0958 N   0  0  0  0  0  0  0  0  0  0  0  0
   -1.5819    0.7348   -0.2956 N   0  0  0  0  0  0  0  0  0  0  0  0
   -0.2229    0.9708   -0.3436 O   0  0  0  0  0  0  0  0  0  0  0  0
    2.1958    0.3506   -0.0669 H   0  0  0  0  0  0  0  0  0  0  0  0
  1  2  2  3
  1  7  1  0
  2  3  1  0
  2  6  1  0
  3  4  1  0
  4  5  2  0
  5  6  1  0
M  END
>  <reaction>  (1) 
kfir_rxn_8008

>  <mol_properties>  (1) 
{"0": {"label": "donator", "atom_type": "N3d"}, "6": {"label": "d_hydrogen", "atom_type": "H0"}}

>  <type>  (1) 
r1h

$$$$

     RDKit          3D

  7  6  0  0  0  0  0  0  0  0999 V2000
    1.5908   -0.4705   -0.0314 N   0  0  0  0  0  2  0  0  0  0  0  0
    0.4296    0.2954    0.0888 C   0  0  0  0  0  0  0  0  0  0  0  0
   -0.6441   -0.1234   -0.3027 O   0  0  0  0  0  0  0  0  0  0  0  0
    0.6092    1.4698    0.7362 N   0  0  0  0  0  0  0  0  0  0  0  0
    1.5173   -0.9809   -0.9127 H   0  0  0  0  0  0  0  0  0  0  0  0
   -0.1983    2.0227    0.9586 H   0  0  0  0  0  0  0  0  0  0  0  0
    1.4791    1.6542    1.2001 H   0  0  0  0  0  0  0  0  0  0  0  0
  1  2  1  0
  1  5  1  0
  2  4  1  0
  2  3  2  0
  4  6  1  0
  4  7  1  0
M  RAD  1   1   2
M  END
>  <reaction>  (2) 
kfir_rxn_8008

>  <mol_properties>  (2) 
{"0": {"label": "acceptor", "atom_type": "N3s"}}

>  <type>  (2) 
r2

$$$$

     RDKit          3D

  8  7  0  0  0  0  0  0  0  0999 V2000
    1.1554   -0.2577    0.1712 N   0  0  0  0  0  0  0  0  0  0  0  0
    0.0272    0.4243   -0.2312 C   0  0  0  0  0  0  0  0  0  0  0  0
    0.0718    1.4846   -0.8131 O   0  0  0  0  0  0  0  0  0  0  0  0
   -1.1563   -0.2067    0.0868 N   0  0  0  0  0  0  0  0  0  0  0  0
    1.9990    0.2851    0.1089 H   0  0  0  0  0  0  0  0  0  0  0  0
    1.0907   -0.8628    0.9709 H   0  0  0  0  0  0  0  0  0  0  0  0
   -1.9603    0.1907   -0.3668 H   0  0  0  0  0  0  0  0  0  0  0  0
   -1.1592   -1.2083    0.1688 H   0  0  0  0  0  0  0  0  0  0  0  0
  1  2  1  0
  1  5  1  0
  1  6  1  0
  2  4  1  0
  2  3  2  0
  4  7  1  0
  4  8  1  0
M  END
>  <reaction>  (3) 
kfir_rxn_8008

>  <mol_properties>  (3) 
{"0": {"label": "acceptor", "atom_type": "N3s"}, "7": {"label": "a_hydrogen", "atom_type": "H0"}}

>  <type>  (3) 
r2h

$$$$

     RDKit          3D

 14 13  0  0  0  0  0  0  0  0999 V2000
    0.3509   -1.9814    0.8724 N   0  0  0  0  0  2  0  0  0  0  0  0
    0.0828   -1.3940    2.1098 C   0  0  0  0  0  0  0  0  0  0  0  0
   -0.8544   -1.7706    2.7838 O   0  0  0  0  0  0  0  0  0  0  0  0
    0.9721   -0.4484    2.5013 N   0  0  0  0  0  0  0  0  0  0  0  0
   -0.5173   -2.3335    0.4797 H   0  0  0  0  0  0  0  0  0  0  0  0
    0.9052   -0.1122    3.4439 H   0  0  0  0  0  0  0  0  0  0  0  0
    1.8112   -0.2767    1.9780 H   0  0  0  0  0  0  0  0  0  0  0  0
    1.3175   -0.3461   -0.6596 N   0  0  0  0  0  0  0  0  0  0  0  0
    0.3877    0.4062   -1.0044 C   0  0  0  0  0  0  0  0  0  0  0  0
    0.5307    1.5091   -1.7913 O   0  0  0  0  0  0  0  0  0  0  0  0
   -0.7206    2.0635   -1.9424 N   0  0  0  0  0  0  0  0  0  0  0  0
   -1.5517    1.4070   -1.3362 N   0  0  0  0  0  0  0  0  0  0  0  0
   -0.9434    0.3366   -0.7116 O   0  0  0  0  0  0  0  0  0  0  0  0
    0.9891   -1.2802    0.0570 H   0  0  0  0  0  0  0  0  0  0  0  0
  1  2  1  0
  1  5  1  0
  2  4  1  0
  2  3  2  0
  4  6  1  0
  4  7  1  0
  8  9  2  3
  8 14  1  0
  9 10  1  0
  9 13  1  0
 10 11  1  0
 11 12  2  0
 12 13  1  0
M  RAD  1   1   2
M  END
>  <reaction>  (4) 
kfir_rxn_8008

>  <mol_properties>  (4) 
{"0": {"label": "*3", "atom_type": "N3s"}, "1": {"label": "*4", "atom_type": "CO"}, "7": {"label": "*1", "atom_type": "N3d"}, "8": {"label": "*0", "atom_type": "Cd"}, "13": {"label": "*2", "atom_type": "H0"}}

>  <type>  (4) 
ts

$$$$

     RDKit          3D

 14 13  0  0  0  0  0  0  0  0999 V2000
   -0.4329   -1.2011    1.4422 N   0  0  0  0  0  0  0  0  0  0  0  0
    0.6160   -1.5791    2.2529 C   0  0  0  0  0  0  0  0  0  0  0  0
    0.5137   -1.6862    3.4540 O   0  0  0  0  0  0  0  0  0  0  0  0
    1.7914   -1.8244    1.5761 N   0  0  0  0  0  0  0  0  0  0  0  0
   -1.2252   -0.8443    1.9472 H   0  0  0  0  0  0  0  0  0  0  0  0
    2.4931   -2.2762    2.1361 H   0  0  0  0  0  0  0  0  0  0  0  0
    1.7399   -2.1310    0.6204 H   0  0  0  0  0  0  0  0  0  0  0  0
   -0.4329    1.0372    0.5202 N   0  0  0  0  0  2  0  0  0  0  0  0
   -0.4329    1.0372   -0.7213 C   0  0  0  0  0  0  0  0  0  0  0  0
   -0.4329    2.1613   -1.4880 O   0  0  0  0  0  0  0  0  0  0  0  0
   -0.4329    1.7596   -2.8006 N   0  0  0  0  0  0  0  0  0  0  0  0
   -0.4329    0.5393   -2.8729 N   0  0  0  0  0  0  0  0  0  0  0  0
   -0.4329   -0.0041   -1.6042 O   0  0  0  0  0  0  0  0  0  0  0  0
   -0.4329   -0.0861    0.9829 H   0  0  0  0  0  0  0  0  0  0  0  0
  1  2  1  0
  1  5  1  0
  1 14  1  0
  2  4  1  0
  2  3  2  0
  4  6  1  0
  4  7  1  0
  8  9  2  0
  9 10  1  0
  9 13  1  0
 10 11  1  0
 11 12  2  0
 12 13  1  0
M  RAD  1   8   2
M  END
>  <reaction>  (5) 
kfir_rxn_8008

>  <mol_properties>  (5) 
{"0": {"label": "*3", "atom_type": "N3s"}, "1": {"label": "*4", "atom_type": "CO"}, "7": {"label": "*1", "atom_type": "N3d"}, "8": {"label": "*0", "atom_type": "Cd"}, "13": {"label": "*2", "atom_type": "H0"}}

>  <type>  (5) 
unop_1

>  <geom_source>  (5) 
Heuristics

$$$$

     RDKit          3D

 14 13  0  0  0  0  0  0  0  0999 V2000
    0.4938   -1.1443    1.6254 N   0  0  0  0  0  0  0  0  0  0  0  0
   -0.7685   -1.6563    1.8363 C   0  0  0  0  0  0  0  0  0  0  0  0
   -1.6109   -1.7081    0.9688 O   0  0  0  0  0  0  0  0  0  0  0  0
   -0.9877   -2.1041    3.1214 N   0  0  0  0  0  0  0  0  0  0  0  0
    0.9844   -0.7411    2.4042 H   0  0  0  0  0  0  0  0  0  0  0  0
   -1.8303   -2.6424    3.2231 H   0  0  0  0  0  0  0  0  0  0  0  0
   -0.2018   -2.4288    3.6569 H   0  0  0  0  0  0  0  0  0  0  0  0
    0.4938    1.0942    0.7033 N   0  0  0  0  0  2  0  0  0  0  0  0
    0.4938    1.0942   -0.5382 C   0  0  0  0  0  0  0  0  0  0  0  0
    0.4938    2.2183   -1.3049 O   0  0  0  0  0  0  0  0  0  0  0  0
    0.4938    1.8166   -2.6175 N   0  0  0  0  0  0  0  0  0  0  0  0
    0.4938    0.5963   -2.6899 N   0  0  0  0  0  0  0  0  0  0  0  0
    0.4938    0.0529   -1.4211 O   0  0  0  0  0  0  0  0  0  0  0  0
    0.4938   -0.0291    1.1660 H   0  0  0  0  0  0  0  0  0  0  0  0
  1  2  1  0
  1  5  1  0
  1 14  1  0
  2  4  1  0
  2  3  2  0
  4  6  1  0
  4  7  1  0
  8  9  2  0
  9 10  1  0
  9 13  1  0
 10 11  1  0
 11 12  2  0
 12 13  1  0
M  RAD  1   8   2
M  END
>  <reaction>  (6) 
kfir_rxn_8008

>  <mol_properties>  (6) 
{"0": {"label": "*3", "atom_type": "N3s"}, "1": {"label": "*4", "atom_type": "CO"}, "7": {"label": "*1", "atom_type": "N3d"}, "8": {"label": "*0", "atom_type": "Cd"}, "13": {"label": "*2", "atom_type": "H0"}}

>  <type>  (6) 
unop_2

>  <geom_source>  (6) 
Heuristics

$$$$

     RDKit          3D

 14 13  0  0  0  0  0  0  0  0999 V2000
   -0.4144   -1.2266    1.4063 N   0  0  0  0  0  0  0  0  0  0  0  0
    0.6788   -1.4982    2.2008 C   0  0  0  0  0  0  0  0  0  0  0  0
    1.7692   -1.0093    2.0091 O   0  0  0  0  0  0  0  0  0  0  0  0
    0.4217   -2.3752    3.2327 N   0  0  0  0  0  0  0  0  0  0  0  0
   -1.1339   -1.9234    1.3256 H   0  0  0  0  0  0  0  0  0  0  0  0
    1.1592   -2.4246    3.9137 H   0  0  0  0  0  0  0  0  0  0  0  0
   -0.5111   -2.4191    3.6040 H   0  0  0  0  0  0  0  0  0  0  0  0
   -0.4144    1.0119    0.4842 N   0  0  0  0  0  2  0  0  0  0  0  0
   -0.4144    1.0119   -0.7573 C   0  0  0  0  0  0  0  0  0  0  0  0
   -0.4144    2.1360   -1.5240 O   0  0  0  0  0  0  0  0  0  0  0  0
   -0.4144    1.7343   -2.8366 N   0  0  0  0  0  0  0  0  0  0  0  0
   -0.4144    0.5140   -2.9089 N   0  0  0  0  0  0  0  0  0  0  0  0
   -0.4144   -0.0294   -1.6402 O   0  0  0  0  0  0  0  0  0  0  0  0
   -0.4144   -0.1114    0.9470 H   0  0  0  0  0  0  0  0  0  0  0  0
  1  2  1  0
  1  5  1  0
  1 14  1  0
  2  4  1  0
  2  3  2  0
  4  6  1  0
  4  7  1  0
  8  9  2  0
  9 10  1  0
  9 13  1  0
 10 11  1  0
 11 12  2  0
 12 13  1  0
M  RAD  1   8   2
M  END
>  <reaction>  (7) 
kfir_rxn_8008

>  <mol_properties>  (7) 
{"0": {"label": "*3", "atom_type": "N3s"}, "1": {"label": "*4", "atom_type": "CO"}, "7": {"label": "*1", "atom_type": "N3d"}, "8": {"label": "*0", "atom_type": "Cd"}, "13": {"label": "*2", "atom_type": "H0"}}

>  <type>  (7) 
unop_3

>  <geom_source>  (7) 
Heuristics

$$$$

     RDKit          3D

 14 13  0  0  0  0  0  0  0  0999 V2000
    0.2605   -0.9667    2.0331 N   0  0  0  0  0  0  0  0  0  0  0  0
   -0.3706   -1.8950    1.2333 C   0  0  0  0  0  0  0  0  0  0  0  0
   -0.3961   -1.8144    0.0260 O   0  0  0  0  0  0  0  0  0  0  0  0
   -0.9701   -2.9233    1.9284 N   0  0  0  0  0  0  0  0  0  0  0  0
   -0.0795   -0.8291    2.9687 H   0  0  0  0  0  0  0  0  0  0  0  0
   -1.2623   -3.6882    1.3456 H   0  0  0  0  0  0  0  0  0  0  0  0
   -0.5915   -3.1831    2.8223 H   0  0  0  0  0  0  0  0  0  0  0  0
    0.2605    1.2718    1.1110 N   0  0  0  0  0  2  0  0  0  0  0  0
    0.2605    1.2718   -0.1305 C   0  0  0  0  0  0  0  0  0  0  0  0
    0.2605    2.3959   -0.8972 O   0  0  0  0  0  0  0  0  0  0  0  0
    0.2605    1.9942   -2.2098 N   0  0  0  0  0  0  0  0  0  0  0  0
    0.2605    0.7739   -2.2821 N   0  0  0  0  0  0  0  0  0  0  0  0
    0.2605    0.2305   -1.0134 O   0  0  0  0  0  0  0  0  0  0  0  0
    0.2605    0.1485    1.5738 H   0  0  0  0  0  0  0  0  0  0  0  0
  1  2  1  0
  1  5  1  0
  1 14  1  0
  2  4  1  0
  2  3  2  0
  4  6  1  0
  4  7  1  0
  8  9  2  0
  9 10  1  0
  9 13  1  0
 10 11  1  0
 11 12  2  0
 12 13  1  0
M  RAD  1   8   2
M  END
>  <reaction>  (8) 
kfir_rxn_8008

>  <mol_properties>  (8) 
{"0": {"label": "*3", "atom_type": "N3s"}, "1": {"label": "*4", "atom_type": "CO"}, "7": {"label": "*1", "atom_type": "N3d"}, "8": {"label": "*0", "atom_type": "Cd"}, "13": {"label": "*2", "atom_type": "H0"}}

>  <type>  (8) 
unop_4

>  <geom_source>  (8) 
Heuristics

$$$$

     RDKit          3D

 14 13  0  0  0  0  0  0  0  0999 V2000
    0.2239   -1.2967    1.2453 N   0  0  0  0  0  0  0  0  0  0  0  0
   -0.4073   -1.3923    2.4670 C   0  0  0  0  0  0  0  0  0  0  0  0
   -1.4774   -0.8758    2.6969 O   0  0  0  0  0  0  0  0  0  0  0  0
    0.2866   -2.1276    3.4039 N   0  0  0  0  0  0  0  0  0  0  0  0
    1.2267   -1.3553    1.2173 H   0  0  0  0  0  0  0  0  0  0  0  0
   -0.2534   -2.3528    4.2211 H   0  0  0  0  0  0  0  0  0  0  0  0
    0.9053   -2.8517    3.0834 H   0  0  0  0  0  0  0  0  0  0  0  0
    0.2238    0.9418    0.3232 N   0  0  0  0  0  2  0  0  0  0  0  0
    0.2238    0.9418   -0.9183 C   0  0  0  0  0  0  0  0  0  0  0  0
    0.2238    2.0659   -1.6851 O   0  0  0  0  0  0  0  0  0  0  0  0
    0.2238    1.6641   -2.9976 N   0  0  0  0  0  0  0  0  0  0  0  0
    0.2238    0.4438   -3.0700 N   0  0  0  0  0  0  0  0  0  0  0  0
    0.2238   -0.0995   -1.8012 O   0  0  0  0  0  0  0  0  0  0  0  0
    0.2238   -0.1816    0.7859 H   0  0  0  0  0  0  0  0  0  0  0  0
  1  2  1  0
  1  5  1  0
  1 14  1  0
  2  4  1  0
  2  3  2  0
  4  6  1  0
  4  7  1  0
  8  9  2  0
  9 10  1  0
  9 13  1  0
 10 11  1  0
 11 12  2  0
 12 13  1  0
M  RAD  1   8   2
M  END
>  <reaction>  (9) 
kfir_rxn_8008

>  <mol_properties>  (9) 
{"0": {"label": "*3", "atom_type": "N3s"}, "1": {"label": "*4", "atom_type": "CO"}, "7": {"label": "*1", "atom_type": "N3d"}, "8": {"label": "*0", "atom_type": "Cd"}, "13": {"label": "*2", "atom_type": "H0"}}

>  <type>  (9) 
unop_5

>  <geom_source>  (9) 
Heuristics

$$$$

     RDKit          3D

 14 13  0  0  0  0  0  0  0  0999 V2000
   -0.2274   -0.9607    2.0522 N   0  0  0  0  0  0  0  0  0  0  0  0
    0.3781   -1.9688    1.3331 C   0  0  0  0  0  0  0  0  0  0  0  0
    1.1377   -2.7680    1.8321 O   0  0  0  0  0  0  0  0  0  0  0  0
    0.0430   -1.9872   -0.0038 N   0  0  0  0  0  0  0  0  0  0  0  0
    0.1578   -0.8331    2.9717 H   0  0  0  0  0  0  0  0  0  0  0  0
    0.3313   -2.8235   -0.4808 H   0  0  0  0  0  0  0  0  0  0  0  0
   -0.8510   -1.6205   -0.2795 H   0  0  0  0  0  0  0  0  0  0  0  0
   -0.2274    1.2776    1.1302 N   0  0  0  0  0  2  0  0  0  0  0  0
   -0.2274    1.2776   -0.1113 C   0  0  0  0  0  0  0  0  0  0  0  0
   -0.2274    2.4017   -0.8780 O   0  0  0  0  0  0  0  0  0  0  0  0
   -0.2274    2.0000   -2.1906 N   0  0  0  0  0  0  0  0  0  0  0  0
   -0.2274    0.7797   -2.2630 N   0  0  0  0  0  0  0  0  0  0  0  0
   -0.2274    0.2363   -0.9942 O   0  0  0  0  0  0  0  0  0  0  0  0
   -0.2274    0.1543    1.5929 H   0  0  0  0  0  0  0  0  0  0  0  0
  1  2  1  0
  1  5  1  0
  1 14  1  0
  2  4  1  0
  2  3  2  0
  4  6  1  0
  4  7  1  0
  8  9  2  0
  9 10  1  0
  9 13  1  0
 10 11  1  0
 11 12  2  0
 12 13  1  0
M  RAD  1   8   2
M  END
>  <reaction>  (10) 
kfir_rxn_8008

>  <mol_properties>  (10) 
{"0": {"label": "*3", "atom_type": "N3s"}, "1": {"label": "*4", "atom_type": "CO"}, "7": {"label": "*1", "atom_type": "N3d"}, "8": {"label": "*0", "atom_type": "Cd"}, "13": {"label": "*2", "atom_type": "H0"}}

>  <type>  (10) 
unop_6

>  <geom_source>  (10) 
Heuristics

$$$$

     RDKit          3D

 14 13  0  0  0  0  0  0  0  0999 V2000
   -0.2317   -1.2878    1.2500 N   0  0  0  0  0  0  0  0  0  0  0  0
    0.3995   -1.3834    2.4717 C   0  0  0  0  0  0  0  0  0  0  0  0
    1.2146   -0.5756    2.8562 O   0  0  0  0  0  0  0  0  0  0  0  0
    0.0213   -2.4793    3.2173 N   0  0  0  0  0  0  0  0  0  0  0  0
   -0.5467   -2.1320    0.8052 H   0  0  0  0  0  0  0  0  0  0  0  0
    0.3352   -2.4463    4.1715 H   0  0  0  0  0  0  0  0  0  0  0  0
   -0.8988   -2.8591    3.0795 H   0  0  0  0  0  0  0  0  0  0  0  0
   -0.2317    0.9507    0.3279 N   0  0  0  0  0  2  0  0  0  0  0  0
   -0.2317    0.9507   -0.9136 C   0  0  0  0  0  0  0  0  0  0  0  0
   -0.2317    2.0748   -1.6803 O   0  0  0  0  0  0  0  0  0  0  0  0
   -0.2317    1.6731   -2.9929 N   0  0  0  0  0  0  0  0  0  0  0  0
   -0.2317    0.4528   -3.0653 N   0  0  0  0  0  0  0  0  0  0  0  0
   -0.2317   -0.0906   -1.7965 O   0  0  0  0  0  0  0  0  0  0  0  0
   -0.2317   -0.1726    0.7906 H   0  0  0  0  0  0  0  0  0  0  0  0
  1  2  1  0
  1  5  1  0
  1 14  1  0
  2  4  1  0
  2  3  2  0
  4  6  1  0
  4  7  1  0
  8  9  2  0
  9 10  1  0
  9 13  1  0
 10 11  1  0
 11 12  2  0
 12 13  1  0
M  RAD  1   8   2
M  END
>  <reaction>  (11) 
kfir_rxn_8008

>  <mol_properties>  (11) 
{"0": {"label": "*3", "atom_type": "N3s"}, "1": {"label": "*4", "atom_type": "CO"}, "7": {"label": "*1", "atom_type": "N3d"}, "8": {"label": "*0", "atom_type": "Cd"}, "13": {"label": "*2", "atom_type": "H0"}}

>  <type>  (11) 
unop_7

>  <geom_source>  (11) 
Heuristics

$$$$

     RDKit          3D

 14 13  0  0  0  0  0  0  0  0999 V2000
   -0.2648   -1.2762    1.2688 N   0  0  0  0  0  0  0  0  0  0  0  0
    0.3408   -1.4853    2.4893 C   0  0  0  0  0  0  0  0  0  0  0  0
   -0.2711   -1.8186    3.4789 O   0  0  0  0  0  0  0  0  0  0  0  0
    1.7041   -1.2818    2.4844 N   0  0  0  0  0  0  0  0  0  0  0  0
   -1.2680   -1.2404    1.3167 H   0  0  0  0  0  0  0  0  0  0  0  0
    2.1647   -1.6131    3.3139 H   0  0  0  0  0  0  0  0  0  0  0  0
    2.2074   -1.4239    1.6263 H   0  0  0  0  0  0  0  0  0  0  0  0
   -0.2648    0.9621    0.3468 N   0  0  0  0  0  2  0  0  0  0  0  0
   -0.2648    0.9621   -0.8947 C   0  0  0  0  0  0  0  0  0  0  0  0
   -0.2648    2.0862   -1.6615 O   0  0  0  0  0  0  0  0  0  0  0  0
   -0.2648    1.6845   -2.9740 N   0  0  0  0  0  0  0  0  0  0  0  0
   -0.2648    0.4641   -3.0464 N   0  0  0  0  0  0  0  0  0  0  0  0
   -0.2648   -0.0792   -1.7776 O   0  0  0  0  0  0  0  0  0  0  0  0
   -0.2648   -0.1612    0.8095 H   0  0  0  0  0  0  0  0  0  0  0  0
  1  2  1  0
  1  5  1  0
  1 14  1  0
  2  4  1  0
  2  3  2  0
  4  6  1  0
  4  7  1  0
  8  9  2  0
  9 10  1  0
  9 13  1  0
 10 11  1  0
 11 12  2  0
 12 13  1  0
M  RAD  1   8   2
M  END
>  <reaction>  (12) 
kfir_rxn_8008

>  <mol_properties>  (12) 
{"0": {"label": "*3", "atom_type": "N3s"}, "1": {"label": "*4", "atom_type": "CO"}, "7": {"label": "*1", "atom_type": "N3d"}, "8": {"label": "*0", "atom_type": "Cd"}, "13": {"label": "*2", "atom_type": "H0"}}

>  <type>  (12) 
unop_8

>  <geom_source>  (12) 
Heuristics

$$$$

     RDKit          3D

 14 13  0  0  0  0  0  0  0  0999 V2000
    0.4291   -1.0404    1.8822 N   0  0  0  0  0  0  0  0  0  0  0  0
   -0.6197   -1.8797    1.5730 C   0  0  0  0  0  0  0  0  0  0  0  0
   -0.7556   -2.9741    2.0716 O   0  0  0  0  0  0  0  0  0  0  0  0
   -1.5002   -1.3637    0.6465 N   0  0  0  0  0  0  0  0  0  0  0  0
    1.1618   -1.4860    2.4064 H   0  0  0  0  0  0  0  0  0  0  0  0
   -2.3534   -1.8885    0.5645 H   0  0  0  0  0  0  0  0  0  0  0  0
   -1.6006   -0.3658    0.5838 H   0  0  0  0  0  0  0  0  0  0  0  0
    0.4291    1.1979    0.9602 N   0  0  0  0  0  2  0  0  0  0  0  0
    0.4291    1.1979   -0.2813 C   0  0  0  0  0  0  0  0  0  0  0  0
    0.4291    2.3220   -1.0480 O   0  0  0  0  0  0  0  0  0  0  0  0
    0.4291    1.9203   -2.3606 N   0  0  0  0  0  0  0  0  0  0  0  0
    0.4291    0.7000   -2.4329 N   0  0  0  0  0  0  0  0  0  0  0  0
    0.4291    0.1566   -1.1642 O   0  0  0  0  0  0  0  0  0  0  0  0
    0.4291    0.0746    1.4230 H   0  0  0  0  0  0  0  0  0  0  0  0
  1  2  1  0
  1  5  1  0
  1 14  1  0
  2  4  1  0
  2  3  2  0
  4  6  1  0
  4  7  1  0
  8  9  2  0
  9 10  1  0
  9 13  1  0
 10 11  1  0
 11 12  2  0
 12 13  1  0
M  RAD  1   8   2
M  END
>  <reaction>  (13) 
kfir_rxn_8008

>  <mol_properties>  (13) 
{"0": {"label": "*3", "atom_type": "N3s"}, "1": {"label": "*4", "atom_type": "CO"}, "7": {"label": "*1", "atom_type": "N3d"}, "8": {"label": "*0", "atom_type": "Cd"}, "13": {"label": "*2", "atom_type": "H0"}}

>  <type>  (13) 
unop_9

>  <geom_source>  (13) 
Heuristics

$$$$

     RDKit          3D

 14 13  0  0  0  0  0  0  0  0999 V2000
   -0.4903   -1.1334    1.6312 N   0  0  0  0  0  0  0  0  0  0  0  0
    0.7720   -1.6454    1.8421 C   0  0  0  0  0  0  0  0  0  0  0  0
    1.7267   -1.3426    1.1627 O   0  0  0  0  0  0  0  0  0  0  0  0
    0.8520   -2.5323    2.8942 N   0  0  0  0  0  0  0  0  0  0  0  0
   -1.2841   -1.6866    1.9026 H   0  0  0  0  0  0  0  0  0  0  0  0
    1.7942   -2.7562    3.1627 H   0  0  0  0  0  0  0  0  0  0  0  0
    0.1990   -2.4378    3.6521 H   0  0  0  0  0  0  0  0  0  0  0  0
   -0.4903    1.1051    0.7090 N   0  0  0  0  0  2  0  0  0  0  0  0
   -0.4903    1.1051   -0.5324 C   0  0  0  0  0  0  0  0  0  0  0  0
   -0.4903    2.2292   -1.2992 O   0  0  0  0  0  0  0  0  0  0  0  0
   -0.4903    1.8274   -2.6118 N   0  0  0  0  0  0  0  0  0  0  0  0
   -0.4903    0.6071   -2.6841 N   0  0  0  0  0  0  0  0  0  0  0  0
   -0.4903    0.0638   -1.4154 O   0  0  0  0  0  0  0  0  0  0  0  0
   -0.4903   -0.0183    1.1718 H   0  0  0  0  0  0  0  0  0  0  0  0
  1  2  1  0
  1  5  1  0
  1 14  1  0
  2  4  1  0
  2  3  2  0
  4  6  1  0
  4  7  1  0
  8  9  2  0
  9 10  1  0
  9 13  1  0
 10 11  1  0
 11 12  2  0
 12 13  1  0
M  RAD  1   8   2
M  END
>  <reaction>  (14) 
kfir_rxn_8008

>  <mol_properties>  (14) 
{"0": {"label": "*3", "atom_type": "N3s"}, "1": {"label": "*4", "atom_type": "CO"}, "7": {"label": "*1", "atom_type": "N3d"}, "8": {"label": "*0", "atom_type": "Cd"}, "13": {"label": "*2", "atom_type": "H0"}}

>  <type>  (14) 
unop_10

>  <geom_source>  (14) 
Heuristics

$$$$

     RDKit          3D

 14 13  0  0  0  0  0  0  0  0999 V2000
   -0.0145   -1.3190    1.1957 N   0  0  0  0  0  0  0  0  0  0  0  0
   -0.0145   -1.4663    2.5662 C   0  0  0  0  0  0  0  0  0  0  0  0
   -0.4868   -2.4309    3.1243 O   0  0  0  0  0  0  0  0  0  0  0  0
    0.5704   -0.4193    3.2457 N   0  0  0  0  0  0  0  0  0  0  0  0
   -0.6005   -1.9815    0.7184 H   0  0  0  0  0  0  0  0  0  0  0  0
    0.7376   -0.6121    4.2178 H   0  0  0  0  0  0  0  0  0  0  0  0
    1.2861    0.1130    2.7828 H   0  0  0  0  0  0  0  0  0  0  0  0
   -0.0145    0.9193    0.2737 N   0  0  0  0  0  2  0  0  0  0  0  0
   -0.0145    0.9193   -0.9678 C   0  0  0  0  0  0  0  0  0  0  0  0
   -0.0145    2.0434   -1.7346 O   0  0  0  0  0  0  0  0  0  0  0  0
   -0.0145    1.6417   -3.0472 N   0  0  0  0  0  0  0  0  0  0  0  0
   -0.0145    0.4213   -3.1195 N   0  0  0  0  0  0  0  0  0  0  0  0
   -0.0145   -0.1220   -1.8507 O   0  0  0  0  0  0  0  0  0  0  0  0
   -0.0145   -0.2040    0.7364 H   0  0  0  0  0  0  0  0  0  0  0  0
  1  2  1  0
  1  5  1  0
  1 14  1  0
  2  4  1  0
  2  3  2  0
  4  6  1  0
  4  7  1  0
  8  9  2  0
  9 10  1  0
  9 13  1  0
 10 11  1  0
 11 12  2  0
 12 13  1  0
M  RAD  1   8   2
M  END
>  <reaction>  (15) 
kfir_rxn_8008

>  <mol_properties>  (15) 
{"0": {"label": "*3", "atom_type": "N3s"}, "1": {"label": "*4", "atom_type": "CO"}, "7": {"label": "*1", "atom_type": "N3d"}, "8": {"label": "*0", "atom_type": "Cd"}, "13": {"label": "*2", "atom_type": "H0"}}

>  <type>  (15) 
unop_11

>  <geom_source>  (15) 
Heuristics

$$$$

     RDKit          3D

 14 13  0  0  0  0  0  0  0  0999 V2000
    0.4390   -1.0443    1.8581 N   0  0  0  0  0  0  0  0  0  0  0  0
   -0.6542   -1.7967    1.4855 C   0  0  0  0  0  0  0  0  0  0  0  0
   -1.0624   -1.8450    0.3471 O   0  0  0  0  0  0  0  0  0  0  0  0
   -1.2418   -2.4892    2.5223 N   0  0  0  0  0  0  0  0  0  0  0  0
    0.4864   -0.7013    2.8015 H   0  0  0  0  0  0  0  0  0  0  0  0
   -1.9116   -3.1753    2.2212 H   0  0  0  0  0  0  0  0  0  0  0  0
   -0.6705   -2.7589    3.3038 H   0  0  0  0  0  0  0  0  0  0  0  0
    0.4390    1.1942    0.9360 N   0  0  0  0  0  2  0  0  0  0  0  0
    0.4390    1.1942   -0.3055 C   0  0  0  0  0  0  0  0  0  0  0  0
    0.4390    2.3183   -1.0722 O   0  0  0  0  0  0  0  0  0  0  0  0
    0.4390    1.9166   -2.3848 N   0  0  0  0  0  0  0  0  0  0  0  0
    0.4390    0.6963   -2.4571 N   0  0  0  0  0  0  0  0  0  0  0  0
    0.4390    0.1529   -1.1884 O   0  0  0  0  0  0  0  0  0  0  0  0
    0.4390    0.0709    1.3988 H   0  0  0  0  0  0  0  0  0  0  0  0
  1  2  1  0
  1  5  1  0
  1 14  1  0
  2  4  1  0
  2  3  2  0
  4  6  1  0
  4  7  1  0
  8  9  2  0
  9 10  1  0
  9 13  1  0
 10 11  1  0
 11 12  2  0
 12 13  1  0
M  RAD  1   8   2
M  END
>  <reaction>  (16) 
kfir_rxn_8008

>  <mol_properties>  (16) 
{"0": {"label": "*3", "atom_type": "N3s"}, "1": {"label": "*4", "atom_type": "CO"}, "7": {"label": "*1", "atom_type": "N3d"}, "8": {"label": "*0", "atom_type": "Cd"}, "13": {"label": "*2", "atom_type": "H0"}}

>  <type>  (16) 
unop_12

>  <geom_source>  (16) 
Heuristics

$$$$

     RDKit          3D

 14 13  0  0  0  0  0  0  0  0999 V2000
   -0.4312   -1.0353    1.8629 N   0  0  0  0  0  0  0  0  0  0  0  0
    0.6619   -1.7877    1.4902 C   0  0  0  0  0  0  0  0  0  0  0  0
    1.3240   -1.5440    0.5068 O   0  0  0  0  0  0  0  0  0  0  0  0
    0.9352   -2.8419    2.3352 N   0  0  0  0  0  0  0  0  0  0  0  0
   -1.1633   -1.4801    2.3883 H   0  0  0  0  0  0  0  0  0  0  0  0
    1.8301   -3.2691    2.1715 H   0  0  0  0  0  0  0  0  0  0  0  0
    0.6640   -2.7664    3.2999 H   0  0  0  0  0  0  0  0  0  0  0  0
   -0.4312    1.2032    0.9408 N   0  0  0  0  0  2  0  0  0  0  0  0
   -0.4312    1.2032   -0.3007 C   0  0  0  0  0  0  0  0  0  0  0  0
   -0.4312    2.3273   -1.0675 O   0  0  0  0  0  0  0  0  0  0  0  0
   -0.4312    1.9255   -2.3801 N   0  0  0  0  0  0  0  0  0  0  0  0
   -0.4312    0.7052   -2.4524 N   0  0  0  0  0  0  0  0  0  0  0  0
   -0.4312    0.1618   -1.1836 O   0  0  0  0  0  0  0  0  0  0  0  0
   -0.4312    0.0798    1.4035 H   0  0  0  0  0  0  0  0  0  0  0  0
  1  2  1  0
  1  5  1  0
  1 14  1  0
  2  4  1  0
  2  3  2  0
  4  6  1  0
  4  7  1  0
  8  9  2  0
  9 10  1  0
  9 13  1  0
 10 11  1  0
 11 12  2  0
 12 13  1  0
M  RAD  1   8   2
M  END
>  <reaction>  (17) 
kfir_rxn_8008

>  <mol_properties>  (17) 
{"0": {"label": "*3", "atom_type": "N3s"}, "1": {"label": "*4", "atom_type": "CO"}, "7": {"label": "*1", "atom_type": "N3d"}, "8": {"label": "*0", "atom_type": "Cd"}, "13": {"label": "*2", "atom_type": "H0"}}

>  <type>  (17) 
unop_13

>  <geom_source>  (17) 
Heuristics

$$$$

     RDKit          3D

 14 13  0  0  0  0  0  0  0  0999 V2000
    0.4953   -1.1328    1.6571 N   0  0  0  0  0  0  0  0  0  0  0  0
   -0.7158   -1.7414    1.9078 C   0  0  0  0  0  0  0  0  0  0  0  0
   -0.8268   -2.7224    2.6080 O   0  0  0  0  0  0  0  0  0  0  0  0
   -1.7895   -1.1354    1.2914 N   0  0  0  0  0  0  0  0  0  0  0  0
    1.2885   -1.6774    1.9474 H   0  0  0  0  0  0  0  0  0  0  0  0
   -2.6812   -1.4606    1.6220 H   0  0  0  0  0  0  0  0  0  0  0  0
   -1.7364   -0.1517    1.0929 H   0  0  0  0  0  0  0  0  0  0  0  0
    0.4953    1.1055    0.7350 N   0  0  0  0  0  2  0  0  0  0  0  0
    0.4953    1.1055   -0.5065 C   0  0  0  0  0  0  0  0  0  0  0  0
    0.4953    2.2296   -1.2732 O   0  0  0  0  0  0  0  0  0  0  0  0
    0.4953    1.8278   -2.5858 N   0  0  0  0  0  0  0  0  0  0  0  0
    0.4953    0.6075   -2.6581 N   0  0  0  0  0  0  0  0  0  0  0  0
    0.4953    0.0642   -1.3894 O   0  0  0  0  0  0  0  0  0  0  0  0
    0.4953   -0.0179    1.1978 H   0  0  0  0  0  0  0  0  0  0  0  0
  1  2  1  0
  1  5  1  0
  1 14  1  0
  2  4  1  0
  2  3  2  0
  4  6  1  0
  4  7  1  0
  8  9  2  0
  9 10  1  0
  9 13  1  0
 10 11  1  0
 11 12  2  0
 12 13  1  0
M  RAD  1   8   2
M  END
>  <reaction>  (18) 
kfir_rxn_8008

>  <mol_properties>  (18) 
{"0": {"label": "*3", "atom_type": "N3s"}, "1": {"label": "*4", "atom_type": "CO"}, "7": {"label": "*1", "atom_type": "N3d"}, "8": {"label": "*0", "atom_type": "Cd"}, "13": {"label": "*2", "atom_type": "H0"}}

>  <type>  (18) 
unop_14

>  <geom_source>  (18) 
Heuristics

$$$$

     RDKit          3D

 14 13  0  0  0  0  0  0  0  0999 V2000
   -0.2492   -0.9614    2.0359 N   0  0  0  0  0  0  0  0  0  0  0  0
    0.3819   -1.8898    1.2361 C   0  0  0  0  0  0  0  0  0  0  0  0
    0.7760   -1.6371    0.1200 O   0  0  0  0  0  0  0  0  0  0  0  0
    0.5251   -3.1310    1.8182 N   0  0  0  0  0  0  0  0  0  0  0  0
   -0.9034   -1.2877    2.7254 H   0  0  0  0  0  0  0  0  0  0  0  0
    1.1440   -3.7434    1.3163 H   0  0  0  0  0  0  0  0  0  0  0  0
    0.5821   -3.1875    2.8199 H   0  0  0  0  0  0  0  0  0  0  0  0
   -0.2492    1.2771    1.1138 N   0  0  0  0  0  2  0  0  0  0  0  0
   -0.2492    1.2771   -0.1277 C   0  0  0  0  0  0  0  0  0  0  0  0
   -0.2492    2.4012   -0.8944 O   0  0  0  0  0  0  0  0  0  0  0  0
   -0.2492    1.9995   -2.2070 N   0  0  0  0  0  0  0  0  0  0  0  0
   -0.2492    0.7791   -2.2793 N   0  0  0  0  0  0  0  0  0  0  0  0
   -0.2492    0.2358   -1.0106 O   0  0  0  0  0  0  0  0  0  0  0  0
   -0.2492    0.1538    1.5766 H   0  0  0  0  0  0  0  0  0  0  0  0
  1  2  1  0
  1  5  1  0
  1 14  1  0
  2  4  1  0
  2  3  2  0
  4  6  1  0
  4  7  1  0
  8  9  2  0
  9 10  1  0
  9 13  1  0
 10 11  1  0
 11 12  2  0
 12 13  1  0
M  RAD  1   8   2
M  END
>  <reaction>  (19) 
kfir_rxn_8008

>  <mol_properties>  (19) 
{"0": {"label": "*3", "atom_type": "N3s"}, "1": {"label": "*4", "atom_type": "CO"}, "7": {"label": "*1", "atom_type": "N3d"}, "8": {"label": "*0", "atom_type": "Cd"}, "13": {"label": "*2", "atom_type": "H0"}}

>  <type>  (19) 
unop_15

>  <geom_source>  (19) 
Heuristics

$$$$

     RDKit          3D

 14 13  0  0  0  0  0  0  0  0999 V2000
    0.4316   -1.2267    1.4287 N   0  0  0  0  0  0  0  0  0  0  0  0
   -0.6172   -1.6046    2.2393 C   0  0  0  0  0  0  0  0  0  0  0  0
   -0.5563   -2.5454    2.9983 O   0  0  0  0  0  0  0  0  0  0  0  0
   -1.7415   -0.8176    2.1101 N   0  0  0  0  0  0  0  0  0  0  0  0
    1.1726   -1.9042    1.3850 H   0  0  0  0  0  0  0  0  0  0  0  0
   -2.4285   -0.9743    2.8268 H   0  0  0  0  0  0  0  0  0  0  0  0
   -1.6273    0.1391    1.8246 H   0  0  0  0  0  0  0  0  0  0  0  0
    0.4316    1.0117    0.5067 N   0  0  0  0  0  2  0  0  0  0  0  0
    0.4316    1.0117   -0.7348 C   0  0  0  0  0  0  0  0  0  0  0  0
    0.4316    2.1358   -1.5016 O   0  0  0  0  0  0  0  0  0  0  0  0
    0.4316    1.7340   -2.8142 N   0  0  0  0  0  0  0  0  0  0  0  0
    0.4316    0.5137   -2.8865 N   0  0  0  0  0  0  0  0  0  0  0  0
    0.4316   -0.0297   -1.6177 O   0  0  0  0  0  0  0  0  0  0  0  0
    0.4316   -0.1117    0.9694 H   0  0  0  0  0  0  0  0  0  0  0  0
  1  2  1  0
  1  5  1  0
  1 14  1  0
  2  4  1  0
  2  3  2  0
  4  6  1  0
  4  7  1  0
  8  9  2  0
  9 10  1  0
  9 13  1  0
 10 11  1  0
 11 12  2  0
 12 13  1  0
M  RAD  1   8   2
M  END
>  <reaction>  (20) 
kfir_rxn_8008

>  <mol_properties>  (20) 
{"0": {"label": "*3", "atom_type": "N3s"}, "1": {"label": "*4", "atom_type": "CO"}, "7": {"label": "*1", "atom_type": "N3d"}, "8": {"label": "*0", "atom_type": "Cd"}, "13": {"label": "*2", "atom_type": "H0"}}

>  <type>  (20) 
unop_16

>  <geom_source>  (20) 
Heuristics

$$$$

     RDKit          3D

 14 13  0  0  0  0  0  0  0  0999 V2000
   -0.0064   -1.3073    1.1964 N   0  0  0  0  0  0  0  0  0  0  0  0
   -0.0064   -1.3385    2.5744 C   0  0  0  0  0  0  0  0  0  0  0  0
   -0.2148   -0.3595    3.2547 O   0  0  0  0  0  0  0  0  0  0  0  0
    0.2517   -2.5821    3.1101 N   0  0  0  0  0  0  0  0  0  0  0  0
    0.5558   -1.9771    0.7012 H   0  0  0  0  0  0  0  0  0  0  0  0
    0.0669   -2.6432    4.0961 H   0  0  0  0  0  0  0  0  0  0  0  0
    0.0053   -3.3958    2.5744 H   0  0  0  0  0  0  0  0  0  0  0  0
   -0.0064    0.9312    0.2743 N   0  0  0  0  0  2  0  0  0  0  0  0
   -0.0064    0.9312   -0.9672 C   0  0  0  0  0  0  0  0  0  0  0  0
   -0.0064    2.0553   -1.7340 O   0  0  0  0  0  0  0  0  0  0  0  0
   -0.0064    1.6535   -3.0465 N   0  0  0  0  0  0  0  0  0  0  0  0
   -0.0064    0.4332   -3.1189 N   0  0  0  0  0  0  0  0  0  0  0  0
   -0.0064   -0.1101   -1.8501 O   0  0  0  0  0  0  0  0  0  0  0  0
   -0.0064   -0.1922    0.7370 H   0  0  0  0  0  0  0  0  0  0  0  0
  1  2  1  0
  1  5  1  0
  1 14  1  0
  2  4  1  0
  2  3  2  0
  4  6  1  0
  4  7  1  0
  8  9  2  0
  9 10  1  0
  9 13  1  0
 10 11  1  0
 11 12  2  0
 12 13  1  0
M  RAD  1   8   2
M  END
>  <reaction>  (21) 
kfir_rxn_8008

>  <mol_properties>  (21) 
{"0": {"label": "*3", "atom_type": "N3s"}, "1": {"label": "*4", "atom_type": "CO"}, "7": {"label": "*1", "atom_type": "N3d"}, "8": {"label": "*0", "atom_type": "Cd"}, "13": {"label": "*2", "atom_type": "H0"}}

>  <type>  (21) 
unop_17

>  <geom_source>  (21) 
Heuristics

$$$$

     RDKit          3D

 14 13  0  0  0  0  0  0  0  0999 V2000
   -0.4858   -1.1087    1.6699 N   0  0  0  0  0  0  0  0  0  0  0  0
    0.7253   -1.7173    1.9206 C   0  0  0  0  0  0  0  0  0  0  0  0
    1.1459   -1.9098    3.0390 O   0  0  0  0  0  0  0  0  0  0  0  0
    1.4156   -2.0875    0.7864 N   0  0  0  0  0  0  0  0  0  0  0  0
   -0.8949   -0.6751    2.4790 H   0  0  0  0  0  0  0  0  0  0  0  0
    2.1977   -2.6918    0.9689 H   0  0  0  0  0  0  0  0  0  0  0  0
    0.8934   -2.2985   -0.0458 H   0  0  0  0  0  0  0  0  0  0  0  0
   -0.4858    1.1296    0.7479 N   0  0  0  0  0  2  0  0  0  0  0  0
   -0.4858    1.1296   -0.4936 C   0  0  0  0  0  0  0  0  0  0  0  0
   -0.4858    2.2537   -1.2604 O   0  0  0  0  0  0  0  0  0  0  0  0
   -0.4858    1.8520   -2.5730 N   0  0  0  0  0  0  0  0  0  0  0  0
   -0.4858    0.6317   -2.6453 N   0  0  0  0  0  0  0  0  0  0  0  0
   -0.4858    0.0883   -1.3765 O   0  0  0  0  0  0  0  0  0  0  0  0
   -0.4858    0.0063    1.2106 H   0  0  0  0  0  0  0  0  0  0  0  0
  1  2  1  0
  1  5  1  0
  1 14  1  0
  2  4  1  0
  2  3  2  0
  4  6  1  0
  4  7  1  0
  8  9  2  0
  9 10  1  0
  9 13  1  0
 10 11  1  0
 11 12  2  0
 12 13  1  0
M  RAD  1   8   2
M  END
>  <reaction>  (22) 
kfir_rxn_8008

>  <mol_properties>  (22) 
{"0": {"label": "*3", "atom_type": "N3s"}, "1": {"label": "*4", "atom_type": "CO"}, "7": {"label": "*1", "atom_type": "N3d"}, "8": {"label": "*0", "atom_type": "Cd"}, "13": {"label": "*2", "atom_type": "H0"}}

>  <type>  (22) 
unop_18

>  <geom_source>  (22) 
Heuristics

$$$$

     RDKit          3D

 14 13  0  0  0  0  0  0  0  0999 V2000
    0.0064   -0.9354    2.0992 N   0  0  0  0  0  0  0  0  0  0  0  0
    0.0064   -1.9282    1.1430 C   0  0  0  0  0  0  0  0  0  0  0  0
    0.2148   -1.7123   -0.0295 O   0  0  0  0  0  0  0  0  0  0  0  0
   -0.2517   -3.1882    1.6386 N   0  0  0  0  0  0  0  0  0  0  0  0
   -0.5558   -1.0621    2.9225 H   0  0  0  0  0  0  0  0  0  0  0  0
   -0.0669   -3.9261    0.9818 H   0  0  0  0  0  0  0  0  0  0  0  0
   -0.0053   -3.3886    2.5921 H   0  0  0  0  0  0  0  0  0  0  0  0
    0.0064    1.3031    1.1771 N   0  0  0  0  0  2  0  0  0  0  0  0
    0.0064    1.3031   -0.0644 C   0  0  0  0  0  0  0  0  0  0  0  0
    0.0064    2.4272   -0.8311 O   0  0  0  0  0  0  0  0  0  0  0  0
    0.0064    2.0254   -2.1437 N   0  0  0  0  0  0  0  0  0  0  0  0
    0.0064    0.8051   -2.2160 N   0  0  0  0  0  0  0  0  0  0  0  0
    0.0064    0.2618   -0.9473 O   0  0  0  0  0  0  0  0  0  0  0  0
    0.0064    0.1797    1.6399 H   0  0  0  0  0  0  0  0  0  0  0  0
  1  2  1  0
  1  5  1  0
  1 14  1  0
  2  4  1  0
  2  3  2  0
  4  6  1  0
  4  7  1  0
  8  9  2  0
  9 10  1  0
  9 13  1  0
 10 11  1  0
 11 12  2  0
 12 13  1  0
M  RAD  1   8   2
M  END
>  <reaction>  (23) 
kfir_rxn_8008

>  <mol_properties>  (23) 
{"0": {"label": "*3", "atom_type": "N3s"}, "1": {"label": "*4", "atom_type": "CO"}, "7": {"label": "*1", "atom_type": "N3d"}, "8": {"label": "*0", "atom_type": "Cd"}, "13": {"label": "*2", "atom_type": "H0"}}

>  <type>  (23) 
unop_19

>  <geom_source>  (23) 
Heuristics

$$$$

     RDKit          3D

 14 13  0  0  0  0  0  0  0  0999 V2000
    0.2534   -0.9720    2.0462 N   0  0  0  0  0  0  0  0  0  0  0  0
   -0.3522   -1.9801    1.3271 C   0  0  0  0  0  0  0  0  0  0  0  0
   -0.2646   -3.1485    1.6303 O   0  0  0  0  0  0  0  0  0  0  0  0
   -1.0661   -1.5413    0.2327 N   0  0  0  0  0  0  0  0  0  0  0  0
    0.9192   -1.3024    2.7227 H   0  0  0  0  0  0  0  0  0  0  0  0
   -1.6543   -2.2470   -0.1750 H   0  0  0  0  0  0  0  0  0  0  0  0
   -1.4557   -0.6153    0.2537 H   0  0  0  0  0  0  0  0  0  0  0  0
    0.2534    1.2663    1.1242 N   0  0  0  0  0  2  0  0  0  0  0  0
    0.2534    1.2663   -0.1173 C   0  0  0  0  0  0  0  0  0  0  0  0
    0.2534    2.3904   -0.8840 O   0  0  0  0  0  0  0  0  0  0  0  0
    0.2534    1.9887   -2.1966 N   0  0  0  0  0  0  0  0  0  0  0  0
    0.2534    0.7684   -2.2690 N   0  0  0  0  0  0  0  0  0  0  0  0
    0.2534    0.2250   -1.0002 O   0  0  0  0  0  0  0  0  0  0  0  0
    0.2534    0.1430    1.5869 H   0  0  0  0  0  0  0  0  0  0  0  0
  1  2  1  0
  1  5  1  0
  1 14  1  0
  2  4  1  0
  2  3  2  0
  4  6  1  0
  4  7  1  0
  8  9  2  0
  9 10  1  0
  9 13  1  0
 10 11  1  0
 11 12  2  0
 12 13  1  0
M  RAD  1   8   2
M  END
>  <reaction>  (24) 
kfir_rxn_8008

>  <mol_properties>  (24) 
{"0": {"label": "*3", "atom_type": "N3s"}, "1": {"label": "*4", "atom_type": "CO"}, "7": {"label": "*1", "atom_type": "N3d"}, "8": {"label": "*0", "atom_type": "Cd"}, "13": {"label": "*2", "atom_type": "H0"}}

>  <type>  (24) 
unop_20

>  <geom_source>  (24) 
Heuristics

$$$$

     RDKit          3D

 14 13  0  0  0  0  0  0  0  0999 V2000
   -0.4104   -1.0209    1.8926 N   0  0  0  0  0  0  0  0  0  0  0  0
    0.6384   -1.8601    1.5834 C   0  0  0  0  0  0  0  0  0  0  0  0
    1.3840   -2.3172    2.4200 O   0  0  0  0  0  0  0  0  0  0  0  0
    0.7640   -2.1334    0.2382 N   0  0  0  0  0  0  0  0  0  0  0  0
   -0.3867   -0.6757    2.8362 H   0  0  0  0  0  0  0  0  0  0  0  0
    1.4013   -2.8839    0.0365 H   0  0  0  0  0  0  0  0  0  0  0  0
   -0.0595   -2.1014   -0.3369 H   0  0  0  0  0  0  0  0  0  0  0  0
   -0.4104    1.2174    0.9706 N   0  0  0  0  0  2  0  0  0  0  0  0
   -0.4104    1.2174   -0.2709 C   0  0  0  0  0  0  0  0  0  0  0  0
   -0.4104    2.3415   -1.0377 O   0  0  0  0  0  0  0  0  0  0  0  0
   -0.4104    1.9398   -2.3502 N   0  0  0  0  0  0  0  0  0  0  0  0
   -0.4104    0.7195   -2.4226 N   0  0  0  0  0  0  0  0  0  0  0  0
   -0.4104    0.1761   -1.1538 O   0  0  0  0  0  0  0  0  0  0  0  0
   -0.4104    0.0941    1.4333 H   0  0  0  0  0  0  0  0  0  0  0  0
  1  2  1  0
  1  5  1  0
  1 14  1  0
  2  4  1  0
  2  3  2  0
  4  6  1  0
  4  7  1  0
  8  9  2  0
  9 10  1  0
  9 13  1  0
 10 11  1  0
 11 12  2  0
 12 13  1  0
M  RAD  1   8   2
M  END
>  <reaction>  (25) 
kfir_rxn_8008

>  <mol_properties>  (25) 
{"0": {"label": "*3", "atom_type": "N3s"}, "1": {"label": "*4", "atom_type": "CO"}, "7": {"label": "*1", "atom_type": "N3d"}, "8": {"label": "*0", "atom_type": "Cd"}, "13": {"label": "*2", "atom_type": "H0"}}

>  <type>  (25) 
unop_21

>  <geom_source>  (25) 
Heuristics

$$$$

     RDKit          3D

 14 13  0  0  0  0  0  0  0  0999 V2000
    0.2492   -1.2978    1.2574 N   0  0  0  0  0  0  0  0  0  0  0  0
   -0.3564   -1.5069    2.4779 C   0  0  0  0  0  0  0  0  0  0  0  0
   -0.2533   -2.5432    3.0945 O   0  0  0  0  0  0  0  0  0  0  0  0
   -1.0895   -0.4328    2.9348 N   0  0  0  0  0  0  0  0  0  0  0  0
    0.6211   -2.1343    0.8426 H   0  0  0  0  0  0  0  0  0  0  0  0
   -1.3701   -0.5152    3.8963 H   0  0  0  0  0  0  0  0  0  0  0  0
   -0.8218    0.4904    2.6418 H   0  0  0  0  0  0  0  0  0  0  0  0
    0.2492    0.9406    0.3353 N   0  0  0  0  0  2  0  0  0  0  0  0
    0.2492    0.9406   -0.9062 C   0  0  0  0  0  0  0  0  0  0  0  0
    0.2492    2.0647   -1.6729 O   0  0  0  0  0  0  0  0  0  0  0  0
    0.2492    1.6629   -2.9855 N   0  0  0  0  0  0  0  0  0  0  0  0
    0.2492    0.4426   -3.0578 N   0  0  0  0  0  0  0  0  0  0  0  0
    0.2492   -0.1008   -1.7891 O   0  0  0  0  0  0  0  0  0  0  0  0
    0.2492   -0.1828    0.7981 H   0  0  0  0  0  0  0  0  0  0  0  0
  1  2  1  0
  1  5  1  0
  1 14  1  0
  2  4  1  0
  2  3  2  0
  4  6  1  0
  4  7  1  0
  8  9  2  0
  9 10  1  0
  9 13  1  0
 10 11  1  0
 11 12  2  0
 12 13  1  0
M  RAD  1   8   2
M  END
>  <reaction>  (26) 
kfir_rxn_8008

>  <mol_properties>  (26) 
{"0": {"label": "*3", "atom_type": "N3s"}, "1": {"label": "*4", "atom_type": "CO"}, "7": {"label": "*1", "atom_type": "N3d"}, "8": {"label": "*0", "atom_type": "Cd"}, "13": {"label": "*2", "atom_type": "H0"}}

>  <type>  (26) 
unop_22

>  <geom_source>  (26) 
Heuristics

$$$$

     RDKit          3D

 14 13  0  0  0  0  0  0  0  0999 V2000
    0.0145   -0.9432    2.1080 N   0  0  0  0  0  0  0  0  0  0  0  0
    0.0145   -2.0131    1.2389 C   0  0  0  0  0  0  0  0  0  0  0  0
    0.4868   -3.0908    1.5221 O   0  0  0  0  0  0  0  0  0  0  0  0
   -0.5704   -1.7485    0.0191 N   0  0  0  0  0  0  0  0  0  0  0  0
    0.6005   -1.0773    2.9134 H   0  0  0  0  0  0  0  0  0  0  0  0
   -0.7376   -2.5700   -0.5353 H   0  0  0  0  0  0  0  0  0  0  0  0
   -1.2861   -1.0446   -0.0273 H   0  0  0  0  0  0  0  0  0  0  0  0
    0.0145    1.2951    1.1859 N   0  0  0  0  0  2  0  0  0  0  0  0
    0.0145    1.2951   -0.0556 C   0  0  0  0  0  0  0  0  0  0  0  0
    0.0145    2.4192   -0.8223 O   0  0  0  0  0  0  0  0  0  0  0  0
    0.0145    2.0174   -2.1349 N   0  0  0  0  0  0  0  0  0  0  0  0
    0.0145    0.7971   -2.2072 N   0  0  0  0  0  0  0  0  0  0  0  0
    0.0145    0.2538   -0.9385 O   0  0  0  0  0  0  0  0  0  0  0  0
    0.0145    0.1717    1.6487 H   0  0  0  0  0  0  0  0  0  0  0  0
  1  2  1  0
  1  5  1  0
  1 14  1  0
  2  4  1  0
  2  3  2  0
  4  6  1  0
  4  7  1  0
  8  9  2  0
  9 10  1  0
  9 13  1  0
 10 11  1  0
 11 12  2  0
 12 13  1  0
M  RAD  1   8   2
M  END
>  <reaction>  (27) 
kfir_rxn_8008

>  <mol_properties>  (27) 
{"0": {"label": "*3", "atom_type": "N3s"}, "1": {"label": "*4", "atom_type": "CO"}, "7": {"label": "*1", "atom_type": "N3d"}, "8": {"label": "*0", "atom_type": "Cd"}, "13": {"label": "*2", "atom_type": "H0"}}

>  <type>  (27) 
unop_23

>  <geom_source>  (27) 
Heuristics

$$$$

     RDKit          3D

 14 13  0  0  0  0  0  0  0  0999 V2000
    0.4129   -1.2378    1.4004 N   0  0  0  0  0  0  0  0  0  0  0  0
   -0.6803   -1.5094    2.1949 C   0  0  0  0  0  0  0  0  0  0  0  0
   -1.8208   -1.3860    1.8092 O   0  0  0  0  0  0  0  0  0  0  0  0
   -0.3612   -1.9337    3.4669 N   0  0  0  0  0  0  0  0  0  0  0  0
    1.2676   -0.9486    1.8427 H   0  0  0  0  0  0  0  0  0  0  0  0
   -1.1431   -2.3073    3.9760 H   0  0  0  0  0  0  0  0  0  0  0  0
    0.5123   -2.4098    3.6089 H   0  0  0  0  0  0  0  0  0  0  0  0
    0.4129    1.0007    0.4783 N   0  0  0  0  0  2  0  0  0  0  0  0
    0.4129    1.0007   -0.7632 C   0  0  0  0  0  0  0  0  0  0  0  0
    0.4129    2.1248   -1.5299 O   0  0  0  0  0  0  0  0  0  0  0  0
    0.4129    1.7231   -2.8425 N   0  0  0  0  0  0  0  0  0  0  0  0
    0.4129    0.5028   -2.9149 N   0  0  0  0  0  0  0  0  0  0  0  0
    0.4129   -0.0406   -1.6461 O   0  0  0  0  0  0  0  0  0  0  0  0
    0.4129   -0.1226    0.9410 H   0  0  0  0  0  0  0  0  0  0  0  0
  1  2  1  0
  1  5  1  0
  1 14  1  0
  2  4  1  0
  2  3  2  0
  4  6  1  0
  4  7  1  0
  8  9  2  0
  9 10  1  0
  9 13  1  0
 10 11  1  0
 11 12  2  0
 12 13  1  0
M  RAD  1   8   2
M  END
>  <reaction>  (28) 
kfir_rxn_8008

>  <mol_properties>  (28) 
{"0": {"label": "*3", "atom_type": "N3s"}, "1": {"label": "*4", "atom_type": "CO"}, "7": {"label": "*1", "atom_type": "N3d"}, "8": {"label": "*0", "atom_type": "Cd"}, "13": {"label": "*2", "atom_type": "H0"}}

>  <type>  (28) 
unop_24

>  <geom_source>  (28) 
Heuristics

$$$$
