
     RDKit          3D

  5  4  0  0  0  0  0  0  0  0999 V2000
    0.0000    0.0000    0.0000 C   0  0  0  0  0  0  0  0  0  0  0  0
   -0.6486   -0.7720   -0.4113 H   0  0  0  0  0  0  0  0  0  0  0  0
   -0.3482    0.9787   -0.3267 H   0  0  0  0  0  0  0  0  0  0  0  0
   -0.0223   -0.0487    1.0876 H   0  0  0  0  0  0  0  0  0  0  0  0
    1.0191   -0.1580   -0.3496 H   0  0  0  0  0  0  0  0  0  0  0  0
  1  2  1  0
  1  3  1  0
  1  4  1  0
  1  5  1  0
M  END
>  <reaction>  (1) 
kfir_rxn_5161

>  <mol_properties>  (1) 
{"0": {"label": "donator", "atom_type": "Cs"}, "1": {"label": "d_hydrogen", "atom_type": "H0"}}

>  <type>  (1) 
r1h

$$$$

     RDKit          3D

  7  6  0  0  0  0  0  0  0  0999 V2000
    1.7226   -0.1951    0.0912 C   0  0  0  0  0  0  0  0  0  0  0  0
    0.5628    0.1604    0.0147 C   0  0  0  0  0  0  0  0  0  0  0  0
   -0.7543    0.5408   -0.0706 C   0  0  0  0  0  3  0  0  0  0  0  0
   -1.7774   -0.3442   -0.0573 O   0  0  0  0  0  0  0  0  0  0  0  0
    2.7403   -0.4960    0.1575 H   0  0  0  0  0  0  0  0  0  0  0  0
   -1.0692    1.5689   -0.1540 H   0  0  0  0  0  0  0  0  0  0  0  0
   -1.4248   -1.2349    0.0186 H   0  0  0  0  0  0  0  0  0  0  0  0
  1  2  3  0
  1  5  1  0
  2  3  1  0
  3  4  1  0
  3  6  1  0
  4  7  1  0
M  RAD  1   3   2
M  END
>  <reaction>  (2) 
kfir_rxn_5161

>  <mol_properties>  (2) 
{"2": {"label": "acceptor", "atom_type": "Cs"}}

>  <type>  (2) 
r2

$$$$

     RDKit          3D

  8  7  0  0  0  0  0  0  0  0999 V2000
    1.8755    0.0087   -0.3125 C   0  0  0  0  0  0  0  0  0  0  0  0
    0.6942   -0.1768   -0.2515 C   0  0  0  0  0  0  0  0  0  0  0  0
   -0.7557   -0.3636   -0.1629 C   0  0  0  0  0  0  0  0  0  0  0  0
   -1.4886    0.6056   -0.8787 O   0  0  0  0  0  0  0  0  0  0  0  0
    2.9260    0.1640   -0.3742 H   0  0  0  0  0  0  0  0  0  0  0  0
   -1.0251   -1.3300   -0.5912 H   0  0  0  0  0  0  0  0  0  0  0  0
   -1.0444   -0.3826    0.8950 H   0  0  0  0  0  0  0  0  0  0  0  0
   -1.1818    1.4746   -0.6137 H   0  0  0  0  0  0  0  0  0  0  0  0
  1  2  3  0
  1  5  1  0
  2  3  1  0
  3  4  1  0
  3  6  1  0
  3  7  1  0
  4  8  1  0
M  END
>  <reaction>  (3) 
kfir_rxn_5161

>  <mol_properties>  (3) 
{"2": {"label": "acceptor", "atom_type": "Cs"}, "7": {"label": "a_hydrogen", "atom_type": "H0"}}

>  <type>  (3) 
r2h

$$$$

     RDKit          3D

 12 10  0  0  0  0  0  0  0  0999 V2000
   -1.1475    1.6163   -1.0721 C   0  0  0  0  0  0  0  0  0  0  0  0
   -0.5323    0.9393   -0.2953 C   0  0  0  0  0  0  0  0  0  0  0  0
    0.2135    0.0556    0.5680 C   0  0  0  0  0  0  0  0  0  0  0  0
    1.5977    0.2146    0.5388 O   0  0  0  0  0  0  0  0  0  0  0  0
   -1.6964    2.2332   -1.7426 H   0  0  0  0  0  0  0  0  0  0  0  0
   -0.1168    0.0968    1.6046 H   0  0  0  0  0  0  0  0  0  0  0  0
    1.8705    0.3615   -0.3692 H   0  0  0  0  0  0  0  0  0  0  0  0
   -0.2565   -2.5031   -0.2440 C   0  0  0  0  0  3  0  0  0  0  0  0
   -0.0676   -1.1121    0.2048 H   0  0  0  0  0  0  0  0  0  0  0  0
   -0.3885   -2.3893   -1.3146 H   0  0  0  0  0  0  0  0  0  0  0  0
    0.6700   -2.9759    0.0629 H   0  0  0  0  0  0  0  0  0  0  0  0
   -1.1410   -2.8253    0.2947 H   0  0  0  0  0  0  0  0  0  0  0  0
  1  2  3  0
  1  5  1  0
  2  3  1  0
  3  4  1  0
  3  6  1  0
  3  9  1  0
  4  7  1  0
  8 10  1  0
  8 11  1  0
  8 12  1  0
M  RAD  1   8   2
M  END
>  <reaction>  (4) 
kfir_rxn_5161

>  <mol_properties>  (4) 
{"1": {"label": "*0", "atom_type": "Ct"}, "2": {"label": "*1", "atom_type": "Cs"}, "7": {"label": "*3", "atom_type": "Cs"}, "8": {"label": "*2", "atom_type": "H0"}, "9": {"label": "*4", "atom_type": "H0"}}

>  <type>  (4) 
ts

$$$$

     RDKit          3D

 12 10  0  0  0  0  0  0  0  0999 V2000
   -1.7267    0.5608    1.3307 C   0  0  0  0  0  0  0  0  0  0  0  0
   -0.7316    0.3672    0.6935 C   0  0  0  0  0  0  0  0  0  0  0  0
    0.4696    0.1550   -0.1171 C   0  0  0  0  0  3  0  0  0  0  0  0
    1.0831    1.3553   -0.5315 O   0  0  0  0  0  0  0  0  0  0  0  0
   -2.6107    0.7328    1.8968 H   0  0  0  0  0  0  0  0  0  0  0  0
    1.2145   -0.3835    0.4702 H   0  0  0  0  0  0  0  0  0  0  0  0
    0.4177    1.9098   -0.9428 H   0  0  0  0  0  0  0  0  0  0  0  0
    0.4696   -2.3179   -0.9914 C   0  0  0  0  0  0  0  0  0  0  0  0
    0.4696   -1.0859   -0.5558 H   0  0  0  0  0  0  0  0  0  0  0  0
    1.3587   -2.8312   -0.6284 H   0  0  0  0  0  0  0  0  0  0  0  0
   -0.4196   -2.8312   -0.6284 H   0  0  0  0  0  0  0  0  0  0  0  0
    0.4696   -2.3179   -2.0804 H   0  0  0  0  0  0  0  0  0  0  0  0
  1  2  3  0
  1  5  1  0
  2  3  1  0
  3  4  1  0
  3  6  1  0
  4  7  1  0
  8  9  1  0
  8 10  1  0
  8 11  1  0
  8 12  1  0
M  RAD  1   3   2
M  END
>  <reaction>  (5) 
kfir_rxn_5161

>  <mol_properties>  (5) 
{"1": {"label": "*0", "atom_type": "Ct"}, "2": {"label": "*1", "atom_type": "Cs"}, "7": {"label": "*3", "atom_type": "Cs"}, "8": {"label": "*2", "atom_type": "H0"}, "9": {"label": "*4", "atom_type": "H0"}}

>  <type>  (5) 
unop_1

>  <geom_source>  (5) 
Heuristics

$$$$

     RDKit          3D

 12 10  0  0  0  0  0  0  0  0999 V2000
   -1.1451    1.5078   -1.2354 C   0  0  0  0  0  0  0  0  0  0  0  0
   -0.6085    0.8133   -0.4210 C   0  0  0  0  0  0  0  0  0  0  0  0
    0.0850   -0.0305    0.5548 C   0  0  0  0  0  3  0  0  0  0  0  0
    1.1957    0.6019    1.1508 O   0  0  0  0  0  0  0  0  0  0  0  0
   -1.6218    2.1248   -1.9590 H   0  0  0  0  0  0  0  0  0  0  0  0
   -0.5971   -0.2829    1.3677 H   0  0  0  0  0  0  0  0  0  0  0  0
    1.7563    0.9495    0.4549 H   0  0  0  0  0  0  0  0  0  0  0  0
    0.0850   -2.5034   -0.3196 C   0  0  0  0  0  0  0  0  0  0  0  0
    0.0850   -1.2714    0.1160 H   0  0  0  0  0  0  0  0  0  0  0  0
    0.9742   -3.0167    0.0434 H   0  0  0  0  0  0  0  0  0  0  0  0
   -0.8041   -3.0168    0.0434 H   0  0  0  0  0  0  0  0  0  0  0  0
    0.0850   -2.5034   -1.4085 H   0  0  0  0  0  0  0  0  0  0  0  0
  1  2  3  0
  1  5  1  0
  2  3  1  0
  3  4  1  0
  3  6  1  0
  4  7  1  0
  8  9  1  0
  8 10  1  0
  8 11  1  0
  8 12  1  0
M  RAD  1   3   2
M  END
>  <reaction>  (6) 
kfir_rxn_5161

>  <mol_properties>  (6) 
{"1": {"label": "*0", "atom_type": "Ct"}, "2": {"label": "*1", "atom_type": "Cs"}, "7": {"label": "*3", "atom_type": "Cs"}, "8": {"label": "*2", "atom_type": "H0"}, "9": {"label": "*4", "atom_type": "H0"}}

>  <type>  (6) 
unop_2

>  <geom_source>  (6) 
Heuristics

$$$$

     RDKit          3D

 12 10  0  0  0  0  0  0  0  0999 V2000
   -0.9109    0.3288    2.0367 C   0  0  0  0  0  0  0  0  0  0  0  0
   -0.3149    0.2835    0.9993 C   0  0  0  0  0  0  0  0  0  0  0  0
    0.3786    0.2405   -0.2899 C   0  0  0  0  0  3  0  0  0  0  0  0
    0.2956    1.4505   -1.0095 O   0  0  0  0  0  0  0  0  0  0  0  0
   -1.4405    0.3691    2.9584 H   0  0  0  0  0  0  0  0  0  0  0  0
    1.4406    0.0532   -0.1259 H   0  0  0  0  0  0  0  0  0  0  0  0
   -0.6260    1.7100   -1.0613 H   0  0  0  0  0  0  0  0  0  0  0  0
    0.3786   -2.2324   -1.1643 C   0  0  0  0  0  0  0  0  0  0  0  0
    0.3786   -1.0004   -0.7287 H   0  0  0  0  0  0  0  0  0  0  0  0
    1.2677   -2.7457   -0.8013 H   0  0  0  0  0  0  0  0  0  0  0  0
   -0.5105   -2.7458   -0.8013 H   0  0  0  0  0  0  0  0  0  0  0  0
    0.3786   -2.2324   -2.2532 H   0  0  0  0  0  0  0  0  0  0  0  0
  1  2  3  0
  1  5  1  0
  2  3  1  0
  3  4  1  0
  3  6  1  0
  4  7  1  0
  8  9  1  0
  8 10  1  0
  8 11  1  0
  8 12  1  0
M  RAD  1   3   2
M  END
>  <reaction>  (7) 
kfir_rxn_5161

>  <mol_properties>  (7) 
{"1": {"label": "*0", "atom_type": "Ct"}, "2": {"label": "*1", "atom_type": "Cs"}, "7": {"label": "*3", "atom_type": "Cs"}, "8": {"label": "*2", "atom_type": "H0"}, "9": {"label": "*4", "atom_type": "H0"}}

>  <type>  (7) 
unop_3

>  <geom_source>  (7) 
Heuristics

$$$$

     RDKit          3D

 12 10  0  0  0  0  0  0  0  0999 V2000
    1.5423    1.5476   -0.7549 C   0  0  0  0  0  0  0  0  0  0  0  0
    0.5422    1.0256   -0.3537 C   0  0  0  0  0  0  0  0  0  0  0  0
   -0.6590    0.3511    0.1434 C   0  0  0  0  0  3  0  0  0  0  0  0
   -0.4884   -0.2258    1.4189 O   0  0  0  0  0  0  0  0  0  0  0  0
    2.4308    2.0113   -1.1114 H   0  0  0  0  0  0  0  0  0  0  0  0
   -1.4693    1.0749    0.2399 H   0  0  0  0  0  0  0  0  0  0  0  0
    0.2980   -0.7742    1.4010 H   0  0  0  0  0  0  0  0  0  0  0  0
   -0.6590   -2.1219   -0.7310 C   0  0  0  0  0  0  0  0  0  0  0  0
   -0.6590   -0.8898   -0.2954 H   0  0  0  0  0  0  0  0  0  0  0  0
    0.2302   -2.6352   -0.3680 H   0  0  0  0  0  0  0  0  0  0  0  0
   -1.5481   -2.6352   -0.3680 H   0  0  0  0  0  0  0  0  0  0  0  0
   -0.6590   -2.1219   -1.8199 H   0  0  0  0  0  0  0  0  0  0  0  0
  1  2  3  0
  1  5  1  0
  2  3  1  0
  3  4  1  0
  3  6  1  0
  4  7  1  0
  8  9  1  0
  8 10  1  0
  8 11  1  0
  8 12  1  0
M  RAD  1   3   2
M  END
>  <reaction>  (8) 
kfir_rxn_5161

>  <mol_properties>  (8) 
{"1": {"label": "*0", "atom_type": "Ct"}, "2": {"label": "*1", "atom_type": "Cs"}, "7": {"label": "*3", "atom_type": "Cs"}, "8": {"label": "*2", "atom_type": "H0"}, "9": {"label": "*4", "atom_type": "H0"}}

>  <type>  (8) 
unop_4

>  <geom_source>  (8) 
Heuristics

$$$$

     RDKit          3D

 12 10  0  0  0  0  0  0  0  0999 V2000
    0.2277    0.3414    2.2385 C   0  0  0  0  0  0  0  0  0  0  0  0
    0.2606    0.3688    1.0420 C   0  0  0  0  0  0  0  0  0  0  0  0
    0.2606    0.3878   -0.4225 C   0  0  0  0  0  3  0  0  0  0  0  0
   -0.8072    1.1274   -0.9716 O   0  0  0  0  0  0  0  0  0  0  0  0
    0.1984    0.3170    3.3016 H   0  0  0  0  0  0  0  0  0  0  0  0
    1.1767    0.8595   -0.7804 H   0  0  0  0  0  0  0  0  0  0  0  0
   -1.6247    0.8185   -0.5771 H   0  0  0  0  0  0  0  0  0  0  0  0
    0.2606   -2.0851   -1.2968 C   0  0  0  0  0  0  0  0  0  0  0  0
    0.2606   -0.8531   -0.8612 H   0  0  0  0  0  0  0  0  0  0  0  0
    1.1497   -2.5984   -0.9338 H   0  0  0  0  0  0  0  0  0  0  0  0
   -0.6286   -2.5985   -0.9338 H   0  0  0  0  0  0  0  0  0  0  0  0
    0.2606   -2.0851   -2.3857 H   0  0  0  0  0  0  0  0  0  0  0  0
  1  2  3  0
  1  5  1  0
  2  3  1  0
  3  4  1  0
  3  6  1  0
  4  7  1  0
  8  9  1  0
  8 10  1  0
  8 11  1  0
  8 12  1  0
M  RAD  1   3   2
M  END
>  <reaction>  (9) 
kfir_rxn_5161

>  <mol_properties>  (9) 
{"1": {"label": "*0", "atom_type": "Ct"}, "2": {"label": "*1", "atom_type": "Cs"}, "7": {"label": "*3", "atom_type": "Cs"}, "8": {"label": "*2", "atom_type": "H0"}, "9": {"label": "*4", "atom_type": "H0"}}

>  <type>  (9) 
unop_5

>  <geom_source>  (9) 
Heuristics

$$$$

     RDKit          3D

 12 10  0  0  0  0  0  0  0  0999 V2000
    1.9377    1.2692    0.1361 C   0  0  0  0  0  0  0  0  0  0  0  0
    0.7947    0.9396    0.0003 C   0  0  0  0  0  0  0  0  0  0  0  0
   -0.5923    0.4963   -0.1564 C   0  0  0  0  0  3  0  0  0  0  0  0
   -1.0903   -0.1898    0.9706 O   0  0  0  0  0  0  0  0  0  0  0  0
    2.9532    1.5620    0.2568 H   0  0  0  0  0  0  0  0  0  0  0  0
   -1.2381    1.3640   -0.2976 H   0  0  0  0  0  0  0  0  0  0  0  0
   -0.4726   -0.8867    1.1988 H   0  0  0  0  0  0  0  0  0  0  0  0
   -0.5923   -1.9767   -1.0308 C   0  0  0  0  0  0  0  0  0  0  0  0
   -0.5923   -0.7446   -0.5952 H   0  0  0  0  0  0  0  0  0  0  0  0
    0.2968   -2.4899   -0.6678 H   0  0  0  0  0  0  0  0  0  0  0  0
   -1.4814   -2.4900   -0.6678 H   0  0  0  0  0  0  0  0  0  0  0  0
   -0.5923   -1.9767   -2.1197 H   0  0  0  0  0  0  0  0  0  0  0  0
  1  2  3  0
  1  5  1  0
  2  3  1  0
  3  4  1  0
  3  6  1  0
  4  7  1  0
  8  9  1  0
  8 10  1  0
  8 11  1  0
  8 12  1  0
M  RAD  1   3   2
M  END
>  <reaction>  (10) 
kfir_rxn_5161

>  <mol_properties>  (10) 
{"1": {"label": "*0", "atom_type": "Ct"}, "2": {"label": "*1", "atom_type": "Cs"}, "7": {"label": "*3", "atom_type": "Cs"}, "8": {"label": "*2", "atom_type": "H0"}, "9": {"label": "*4", "atom_type": "H0"}}

>  <type>  (10) 
unop_6

>  <geom_source>  (10) 
Heuristics

$$$$

     RDKit          3D

 12 10  0  0  0  0  0  0  0  0999 V2000
    1.8257    0.9323    1.0867 C   0  0  0  0  0  0  0  0  0  0  0  0
    0.8450    0.7924    0.4143 C   0  0  0  0  0  0  0  0  0  0  0  0
   -0.3562    0.5802   -0.3963 C   0  0  0  0  0  3  0  0  0  0  0  0
   -1.4342    0.0383    0.3337 O   0  0  0  0  0  0  0  0  0  0  0  0
    2.6970    1.0566    1.6841 H   0  0  0  0  0  0  0  0  0  0  0  0
   -0.7026    1.5363   -0.7910 H   0  0  0  0  0  0  0  0  0  0  0  0
   -1.1245   -0.7410    0.7986 H   0  0  0  0  0  0  0  0  0  0  0  0
   -0.3562   -1.8927   -1.2707 C   0  0  0  0  0  0  0  0  0  0  0  0
   -0.3562   -0.6607   -0.8351 H   0  0  0  0  0  0  0  0  0  0  0  0
    0.5330   -2.4060   -0.9077 H   0  0  0  0  0  0  0  0  0  0  0  0
   -1.2453   -2.4061   -0.9077 H   0  0  0  0  0  0  0  0  0  0  0  0
   -0.3562   -1.8927   -2.3596 H   0  0  0  0  0  0  0  0  0  0  0  0
  1  2  3  0
  1  5  1  0
  2  3  1  0
  3  4  1  0
  3  6  1  0
  4  7  1  0
  8  9  1  0
  8 10  1  0
  8 11  1  0
  8 12  1  0
M  RAD  1   3   2
M  END
>  <reaction>  (11) 
kfir_rxn_5161

>  <mol_properties>  (11) 
{"1": {"label": "*0", "atom_type": "Ct"}, "2": {"label": "*1", "atom_type": "Cs"}, "7": {"label": "*3", "atom_type": "Cs"}, "8": {"label": "*2", "atom_type": "H0"}, "9": {"label": "*4", "atom_type": "H0"}}

>  <type>  (11) 
unop_7

>  <geom_source>  (11) 
Heuristics

$$$$

     RDKit          3D

 12 10  0  0  0  0  0  0  0  0999 V2000
   -2.0292    0.8964    0.3810 C   0  0  0  0  0  0  0  0  0  0  0  0
   -0.8994    0.5130    0.2806 C   0  0  0  0  0  0  0  0  0  0  0  0
    0.4876    0.0696    0.1238 C   0  0  0  0  0  3  0  0  0  0  0  0
    1.4147    1.1320    0.1023 O   0  0  0  0  0  0  0  0  0  0  0  0
   -3.0330    1.2371    0.4703 H   0  0  0  0  0  0  0  0  0  0  0  0
    0.7652   -0.5628    0.9682 H   0  0  0  0  0  0  0  0  0  0  0  0
    1.1255    1.7738   -0.5489 H   0  0  0  0  0  0  0  0  0  0  0  0
    0.4876   -2.4033   -0.7505 C   0  0  0  0  0  0  0  0  0  0  0  0
    0.4876   -1.1713   -0.3149 H   0  0  0  0  0  0  0  0  0  0  0  0
    1.3767   -2.9166   -0.3875 H   0  0  0  0  0  0  0  0  0  0  0  0
   -0.4015   -2.9167   -0.3875 H   0  0  0  0  0  0  0  0  0  0  0  0
    0.4876   -2.4033   -1.8394 H   0  0  0  0  0  0  0  0  0  0  0  0
  1  2  3  0
  1  5  1  0
  2  3  1  0
  3  4  1  0
  3  6  1  0
  4  7  1  0
  8  9  1  0
  8 10  1  0
  8 11  1  0
  8 12  1  0
M  RAD  1   3   2
M  END
>  <reaction>  (12) 
kfir_rxn_5161

>  <mol_properties>  (12) 
{"1": {"label": "*0", "atom_type": "Ct"}, "2": {"label": "*1", "atom_type": "Cs"}, "7": {"label": "*3", "atom_type": "Cs"}, "8": {"label": "*2", "atom_type": "H0"}, "9": {"label": "*4", "atom_type": "H0"}}

>  <type>  (12) 
unop_8

>  <geom_source>  (12) 
Heuristics

$$$$

     RDKit          3D

 12 10  0  0  0  0  0  0  0  0999 V2000
    0.7476    1.6934   -1.3573 C   0  0  0  0  0  0  0  0  0  0  0  0
    0.1536    1.0258   -0.5605 C   0  0  0  0  0  0  0  0  0  0  0  0
   -0.5399    0.1820    0.4152 C   0  0  0  0  0  3  0  0  0  0  0  0
    0.2135   -0.0564    1.5832 O   0  0  0  0  0  0  0  0  0  0  0  0
    1.2754    2.2866   -2.0653 H   0  0  0  0  0  0  0  0  0  0  0  0
   -1.4572    0.6766    0.7374 H   0  0  0  0  0  0  0  0  0  0  0  0
    1.0802   -0.3754    1.3252 H   0  0  0  0  0  0  0  0  0  0  0  0
   -0.5399   -2.2909   -0.4591 C   0  0  0  0  0  0  0  0  0  0  0  0
   -0.5399   -1.0589   -0.0235 H   0  0  0  0  0  0  0  0  0  0  0  0
    0.3492   -2.8042   -0.0962 H   0  0  0  0  0  0  0  0  0  0  0  0
   -1.4290   -2.8043   -0.0961 H   0  0  0  0  0  0  0  0  0  0  0  0
   -0.5399   -2.2909   -1.5481 H   0  0  0  0  0  0  0  0  0  0  0  0
  1  2  3  0
  1  5  1  0
  2  3  1  0
  3  4  1  0
  3  6  1  0
  4  7  1  0
  8  9  1  0
  8 10  1  0
  8 11  1  0
  8 12  1  0
M  RAD  1   3   2
M  END
>  <reaction>  (13) 
kfir_rxn_5161

>  <mol_properties>  (13) 
{"1": {"label": "*0", "atom_type": "Ct"}, "2": {"label": "*1", "atom_type": "Cs"}, "7": {"label": "*3", "atom_type": "Cs"}, "8": {"label": "*2", "atom_type": "H0"}, "9": {"label": "*4", "atom_type": "H0"}}

>  <type>  (13) 
unop_9

>  <geom_source>  (13) 
Heuristics

$$$$

     RDKit          3D

 12 10  0  0  0  0  0  0  0  0999 V2000
   -1.8025    1.2353   -0.5498 C   0  0  0  0  0  0  0  0  0  0  0  0
   -0.8401    0.6682   -0.1189 C   0  0  0  0  0  0  0  0  0  0  0  0
    0.3611   -0.0063    0.3781 C   0  0  0  0  0  3  0  0  0  0  0  0
    1.4111    0.8814    0.6915 O   0  0  0  0  0  0  0  0  0  0  0  0
   -2.6576    1.7391   -0.9326 H   0  0  0  0  0  0  0  0  0  0  0  0
    0.1242   -0.5391    1.3001 H   0  0  0  0  0  0  0  0  0  0  0  0
    1.5593    1.4544   -0.0629 H   0  0  0  0  0  0  0  0  0  0  0  0
    0.3611   -2.4792   -0.4962 C   0  0  0  0  0  0  0  0  0  0  0  0
    0.3611   -1.2472   -0.0606 H   0  0  0  0  0  0  0  0  0  0  0  0
    1.2503   -2.9925   -0.1332 H   0  0  0  0  0  0  0  0  0  0  0  0
   -0.5280   -2.9926   -0.1332 H   0  0  0  0  0  0  0  0  0  0  0  0
    0.3611   -2.4792   -1.5851 H   0  0  0  0  0  0  0  0  0  0  0  0
  1  2  3  0
  1  5  1  0
  2  3  1  0
  3  4  1  0
  3  6  1  0
  4  7  1  0
  8  9  1  0
  8 10  1  0
  8 11  1  0
  8 12  1  0
M  RAD  1   3   2
M  END
>  <reaction>  (14) 
kfir_rxn_5161

>  <mol_properties>  (14) 
{"1": {"label": "*0", "atom_type": "Ct"}, "2": {"label": "*1", "atom_type": "Cs"}, "7": {"label": "*3", "atom_type": "Cs"}, "8": {"label": "*2", "atom_type": "H0"}, "9": {"label": "*4", "atom_type": "H0"}}

>  <type>  (14) 
unop_10

>  <geom_source>  (14) 
Heuristics

$$$$

     RDKit          3D

 12 10  0  0  0  0  0  0  0  0999 V2000
    1.2278    0.6021    1.8572 C   0  0  0  0  0  0  0  0  0  0  0  0
    0.6775    0.5963    0.7938 C   0  0  0  0  0  0  0  0  0  0  0  0
   -0.0160    0.5533   -0.4954 C   0  0  0  0  0  3  0  0  0  0  0  0
   -1.4190    0.4814   -0.3729 O   0  0  0  0  0  0  0  0  0  0  0  0
    1.7167    0.6073    2.8019 H   0  0  0  0  0  0  0  0  0  0  0  0
    0.1969    1.4658   -1.0539 H   0  0  0  0  0  0  0  0  0  0  0  0
   -1.6352   -0.2405    0.2200 H   0  0  0  0  0  0  0  0  0  0  0  0
   -0.0160   -1.9196   -1.3698 C   0  0  0  0  0  0  0  0  0  0  0  0
   -0.0160   -0.6876   -0.9342 H   0  0  0  0  0  0  0  0  0  0  0  0
    0.8732   -2.4329   -1.0068 H   0  0  0  0  0  0  0  0  0  0  0  0
   -0.9051   -2.4330   -1.0067 H   0  0  0  0  0  0  0  0  0  0  0  0
   -0.0160   -1.9196   -2.4587 H   0  0  0  0  0  0  0  0  0  0  0  0
  1  2  3  0
  1  5  1  0
  2  3  1  0
  3  4  1  0
  3  6  1  0
  4  7  1  0
  8  9  1  0
  8 10  1  0
  8 11  1  0
  8 12  1  0
M  RAD  1   3   2
M  END
>  <reaction>  (15) 
kfir_rxn_5161

>  <mol_properties>  (15) 
{"1": {"label": "*0", "atom_type": "Ct"}, "2": {"label": "*1", "atom_type": "Cs"}, "7": {"label": "*3", "atom_type": "Cs"}, "8": {"label": "*2", "atom_type": "H0"}, "9": {"label": "*4", "atom_type": "H0"}}

>  <type>  (15) 
unop_11

>  <geom_source>  (15) 
Heuristics

$$$$

     RDKit          3D

 12 10  0  0  0  0  0  0  0  0999 V2000
   -0.2277    1.6726   -1.5265 C   0  0  0  0  0  0  0  0  0  0  0  0
   -0.2606    0.9418   -0.5786 C   0  0  0  0  0  0  0  0  0  0  0  0
   -0.2606    0.0361    0.5723 C   0  0  0  0  0  3  0  0  0  0  0  0
    0.8072    0.2662    1.4643 O   0  0  0  0  0  0  0  0  0  0  0  0
   -0.1984    2.3218   -2.3686 H   0  0  0  0  0  0  0  0  0  0  0  0
   -1.1767    0.1780    1.1472 H   0  0  0  0  0  0  0  0  0  0  0  0
    1.6247    0.2738    0.9633 H   0  0  0  0  0  0  0  0  0  0  0  0
   -0.2606   -2.4368   -0.3020 C   0  0  0  0  0  0  0  0  0  0  0  0
   -0.2606   -1.2048    0.1336 H   0  0  0  0  0  0  0  0  0  0  0  0
    0.6286   -2.9501    0.0610 H   0  0  0  0  0  0  0  0  0  0  0  0
   -1.1497   -2.9502    0.0610 H   0  0  0  0  0  0  0  0  0  0  0  0
   -0.2606   -2.4368   -1.3910 H   0  0  0  0  0  0  0  0  0  0  0  0
  1  2  3  0
  1  5  1  0
  2  3  1  0
  3  4  1  0
  3  6  1  0
  4  7  1  0
  8  9  1  0
  8 10  1  0
  8 11  1  0
  8 12  1  0
M  RAD  1   3   2
M  END
>  <reaction>  (16) 
kfir_rxn_5161

>  <mol_properties>  (16) 
{"1": {"label": "*0", "atom_type": "Ct"}, "2": {"label": "*1", "atom_type": "Cs"}, "7": {"label": "*3", "atom_type": "Cs"}, "8": {"label": "*2", "atom_type": "H0"}, "9": {"label": "*4", "atom_type": "H0"}}

>  <type>  (16) 
unop_12

>  <geom_source>  (16) 
Heuristics

$$$$
