
     RDKit          3D

  6  5  0  0  0  0  0  0  0  0999 V2000
   -1.8827    0.0174   -0.0633 C   0  0  0  0  0  0  0  0  0  0  0  0
   -0.6850    0.0063    0.0090 C   0  0  0  0  0  0  0  0  0  0  0  0
    0.6850   -0.0063    0.0916 C   0  0  0  0  0  0  0  0  0  0  0  0
    1.8827   -0.0174    0.1639 C   0  0  0  0  0  0  0  0  0  0  0  0
   -2.9444    0.0272   -0.1273 H   0  0  0  0  0  0  0  0  0  0  0  0
    2.9444   -0.0272    0.2279 H   0  0  0  0  0  0  0  0  0  0  0  0
  1  2  3  0
  1  5  1  0
  2  3  1  0
  3  4  3  0
  4  6  1  0
M  END
>  <reaction>  (1) 
kfir_rxn_4836

>  <mol_properties>  (1) 
{"3": {"label": "donator", "atom_type": "Ct"}, "5": {"label": "d_hydrogen", "atom_type": "H0"}}

>  <type>  (1) 
r1h

$$$$

     RDKit          3D

  7  7  0  0  0  0  0  0  0  0999 V2000
    2.7823   -0.0018    0.7222 N   0  0  0  0  0  0  0  0  0  0  0  0
    1.6508    0.0255    0.5366 C   0  0  0  0  0  0  0  0  0  0  0  0
    0.2560    0.0785    0.3071 C   0  0  0  0  0  0  0  0  0  0  0  0
   -0.6261    1.0849    0.1233 C   0  0  0  0  0  0  0  0  0  0  0  0
   -1.8411    0.5642   -0.0542 N   0  0  0  0  0  0  0  0  0  0  0  0
   -1.7715   -0.6951    0.0072 N   0  0  0  0  0  2  0  0  0  0  0  0
   -0.4504   -1.0562    0.2369 O   0  0  0  0  0  0  0  0  0  0  0  0
  1  2  3  0
  2  3  1  0
  3  4  2  0
  3  7  1  0
  4  5  2  0
  5  6  1  0
  6  7  1  0
M  RAD  1   6   2
M  END
>  <reaction>  (2) 
kfir_rxn_4836

>  <mol_properties>  (2) 
{"3": {"label": "acceptor", "atom_type": "Cd"}}

>  <type>  (2) 
r2

$$$$

     RDKit          3D

  8  8  0  0  0  0  0  0  0  0999 V2000
    2.8762   -0.1181    0.0699 N   0  0  0  0  0  0  0  0  0  0  0  0
    1.7331   -0.1539   -0.0183 C   0  0  0  0  0  0  0  0  0  0  0  0
    0.3188   -0.1646   -0.1110 C   0  0  0  0  0  0  0  0  0  0  0  0
   -0.6229    0.7281    0.2667 C   0  0  0  0  0  0  0  0  0  0  0  0
   -1.8259    0.1746   -0.0780 N   0  0  0  0  0  0  0  0  0  0  0  0
   -1.6561   -0.9414   -0.6124 N   0  0  0  0  0  0  0  0  0  0  0  0
   -0.2904   -1.2128   -0.6605 O   0  0  0  0  0  0  0  0  0  0  0  0
   -0.5328    1.6882    0.7410 H   0  0  0  0  0  0  0  0  0  0  0  0
  1  2  3  0
  2  3  1  0
  3  4  2  0
  3  7  1  0
  4  5  1  0
  4  8  1  0
  5  6  2  0
  6  7  1  0
M  END
>  <reaction>  (3) 
kfir_rxn_4836

>  <mol_properties>  (3) 
{"3": {"label": "acceptor", "atom_type": "Cd"}, "7": {"label": "a_hydrogen", "atom_type": "H0"}}

>  <type>  (3) 
r2h

$$$$

     RDKit          3D

 13 12  0  0  0  0  0  0  0  0999 V2000
   -3.0527   -0.0000    1.2952 N   0  0  0  0  0  0  0  0  0  0  0  0
   -1.9238   -0.0000    1.4974 C   0  0  0  0  0  0  0  0  0  0  0  0
   -0.5258    0.0000    1.7233 C   0  0  0  0  0  0  0  0  0  0  0  0
    0.5402    0.0000    0.8929 C   0  0  0  0  0  0  0  0  0  0  0  0
    1.6538    0.0000    1.6644 N   0  0  0  0  0  0  0  0  0  0  0  0
    1.3323    0.0000    2.8752 N   0  0  0  0  0  0  0  0  0  0  0  0
   -0.0594    0.0000    2.9705 O   0  0  0  0  0  0  0  0  0  0  0  0
    0.4332    0.0000   -5.4876 C   0  0  0  0  0  0  0  0  0  0  0  0
    0.4724    0.0000   -4.2885 C   0  0  0  0  0  0  0  0  0  0  0  0
    0.5161    0.0000   -2.9178 C   0  0  0  0  0  0  0  0  0  0  0  0
    0.5641    0.0000   -1.7145 C   0  0  0  0  0  3  0  0  0  0  0  0
    0.3981    0.0000   -6.5511 H   0  0  0  0  0  0  0  0  0  0  0  0
    0.5735    0.0000   -0.3124 H   0  0  0  0  0  0  0  0  0  0  0  0
  1  2  3  0
  2  3  1  0
  3  4  2  0
  3  7  1  0
  4  5  1  0
  4 13  1  0
  5  6  2  0
  6  7  1  0
  8  9  3  0
  8 12  1  0
  9 10  1  0
 10 11  3  0
M  RAD  1  11   2
M  END
>  <reaction>  (4) 
kfir_rxn_4836

>  <mol_properties>  (4) 
{"3": {"label": "*1", "atom_type": "Cd"}, "4": {"label": "*0", "atom_type": "N3d"}, "9": {"label": "*4", "atom_type": "Ct"}, "10": {"label": "*3", "atom_type": "Ct"}, "12": {"label": "*2", "atom_type": "H0"}}

>  <type>  (4) 
ts

$$$$

     RDKit          3D

 13 12  0  0  0  0  0  0  0  0999 V2000
   -3.0687   -0.0000    1.4085 N   0  0  0  0  0  0  0  0  0  0  0  0
   -1.9338   -0.0000    1.5753 C   0  0  0  0  0  0  0  0  0  0  0  0
   -0.5266    0.0000    1.7444 C   0  0  0  0  0  0  0  0  0  0  0  0
    0.4945    0.0000    0.8590 C   0  0  0  0  0  0  0  0  0  0  0  0
    1.6406    0.0000    1.6066 N   0  0  0  0  0  0  0  0  0  0  0  0
    1.3672    0.0000    2.8252 N   0  0  0  0  0  2  0  0  0  0  0  0
   -0.0180    0.0000    2.9744 O   0  0  0  0  0  0  0  0  0  0  0  0
    0.4945    0.0000   -5.4794 C   0  0  0  0  0  0  0  0  0  0  0  0
    0.4945    0.0000   -4.2795 C   0  0  0  0  0  0  0  0  0  0  0  0
    0.4945    0.0000   -2.9069 C   0  0  0  0  0  0  0  0  0  0  0  0
    0.4945    0.0000   -1.7070 C   0  0  0  0  0  0  0  0  0  0  0  0
    0.4945    0.0000   -6.5431 H   0  0  0  0  0  0  0  0  0  0  0  0
    0.4945    0.0000   -0.4306 H   0  0  0  0  0  0  0  0  0  0  0  0
  1  2  3  0
  2  3  1  0
  3  4  2  0
  3  7  1  0
  4  5  2  0
  5  6  1  0
  6  7  1  0
  8  9  3  0
  8 12  1  0
  9 10  1  0
 10 11  3  0
 11 13  1  0
M  RAD  1   6   2
M  END
>  <reaction>  (5) 
kfir_rxn_4836

>  <mol_properties>  (5) 
{"3": {"label": "*1", "atom_type": "Cd"}, "4": {"label": "*0", "atom_type": "N3d"}, "9": {"label": "*4", "atom_type": "Ct"}, "10": {"label": "*3", "atom_type": "Ct"}, "12": {"label": "*2", "atom_type": "H0"}}

>  <type>  (5) 
unop_1

>  <geom_source>  (5) 
Heuristics

$$$$
