
     RDKit          3D

  6  5  0  0  0  0  0  0  0  0999 V2000
    1.3543    1.0529    0.1454 O   0  0  0  0  0  0  0  0  0  0  0  0
    0.7621    0.0240   -0.0005 C   0  0  0  0  0  0  0  0  0  0  0  0
   -0.7621   -0.0240    0.0005 C   0  0  0  0  0  0  0  0  0  0  0  0
   -1.3543   -1.0529   -0.1454 O   0  0  0  0  0  0  0  0  0  0  0  0
    1.2588   -0.9541   -0.1447 H   0  0  0  0  0  0  0  0  0  0  0  0
   -1.2588    0.9541    0.1447 H   0  0  0  0  0  0  0  0  0  0  0  0
  1  2  2  0
  2  3  1  0
  2  5  1  0
  3  4  2  0
  3  6  1  0
M  END
>  <reaction>  (1) 
kfir_rxn_11663

>  <mol_properties>  (1) 
{"2": {"label": "donator", "atom_type": "CO"}, "5": {"label": "d_hydrogen", "atom_type": "H0"}}

>  <type>  (1) 
r1h

$$$$

     RDKit          3D

  7  7  0  0  0  0  0  0  0  0999 V2000
    2.1173    0.2159   -0.7465 F   0  0  0  0  0  0  0  0  0  0  0  0
    0.8958    0.1038   -0.3131 C   0  0  0  0  0  0  0  0  0  0  0  0
    0.1698    1.1809    0.1961 C   0  0  0  0  0  0  0  0  0  0  0  0
   -1.0053    0.9932    0.5955 N   0  0  0  0  0  0  0  0  0  0  0  0
   -1.5959   -0.2293    0.5481 N   0  0  0  0  0  2  0  0  0  0  0  0
   -0.9111   -1.2019    0.0773 N   0  0  0  0  0  0  0  0  0  0  0  0
    0.3295   -1.0627   -0.3573 N   0  0  0  0  0  0  0  0  0  0  0  0
  1  2  1  0
  2  3  2  0
  2  7  1  0
  3  4  2  0
  4  5  1  0
  5  6  1  0
  6  7  2  0
M  RAD  1   5   2
M  END
>  <reaction>  (2) 
kfir_rxn_11663

>  <mol_properties>  (2) 
{"4": {"label": "acceptor", "atom_type": "N3s"}}

>  <type>  (2) 
r2

$$$$

     RDKit          3D

  8  8  0  0  0  0  0  0  0  0999 V2000
   -2.5077    0.0854    0.0624 F   0  0  0  0  0  0  0  0  0  0  0  0
   -1.2046    0.0034    0.0286 C   0  0  0  0  0  0  0  0  0  0  0  0
   -0.6220   -1.2943   -0.0333 C   0  0  0  0  0  0  0  0  0  0  0  0
    0.7206   -1.1981   -0.0615 N   0  0  0  0  0  0  0  0  0  0  0  0
    1.2572    0.0138   -0.0292 N   0  0  0  0  0  0  0  0  0  0  0  0
    0.6978    1.1668    0.0268 N   0  0  0  0  0  0  0  0  0  0  0  0
   -0.6110    1.1780    0.0581 N   0  0  0  0  0  0  0  0  0  0  0  0
    2.2698    0.0451   -0.0519 H   0  0  0  0  0  0  0  0  0  0  0  0
  1  2  1  0
  2  3  2  0
  2  7  1  0
  3  4  2  0
  4  5  1  0
  5  6  1  0
  5  8  1  0
  6  7  2  0
M  END
>  <reaction>  (3) 
kfir_rxn_11663

>  <mol_properties>  (3) 
{"4": {"label": "acceptor", "atom_type": "N3s"}, "7": {"label": "a_hydrogen", "atom_type": "H0"}}

>  <type>  (3) 
r2h

$$$$

     RDKit          3D

 13 12  0  0  0  0  0  0  0  0999 V2000
   -0.3047    3.2748   -1.9228 F   0  0  0  0  0  0  0  0  0  0  0  0
   -0.1228    2.2044   -1.1964 C   0  0  0  0  0  0  0  0  0  0  0  0
    0.8468    1.2581   -1.6167 C   0  0  0  0  0  0  0  0  0  0  0  0
    0.9755    0.2141   -0.8331 N   0  0  0  0  0  0  0  0  0  0  0  0
    0.1438    0.1877    0.2539 N   0  0  0  0  0  0  0  0  0  0  0  0
   -0.7131    1.0375    0.5938 N   0  0  0  0  0  0  0  0  0  0  0  0
   -0.8789    2.1332   -0.1330 N   0  0  0  0  0  0  0  0  0  0  0  0
   -1.1114   -3.0198   -0.0461 O   0  0  0  0  0  1  0  0  0  0  0  0
   -0.3613   -3.2501    0.8414 C   0  0  0  0  0  0  0  0  0  0  0  0
    0.3986   -2.0919    1.5891 C   0  0  0  0  0  0  0  0  0  0  0  0
    1.0112   -2.2813    2.5749 O   0  0  0  0  0  0  0  0  0  0  0  0
   -0.1289   -4.2610    1.2273 H   0  0  0  0  0  0  0  0  0  0  0  0
    0.2452   -0.8805    0.9497 H   0  0  0  0  0  0  0  0  0  0  0  0
  1  2  1  0
  2  3  2  0
  2  7  1  0
  3  4  2  0
  4  5  1  0
  5  6  1  0
  5 13  1  0
  6  7  2  0
  8  9  1  0
  9 10  2  0
  9 12  1  0
 10 11  2  0
M  RAD  1   8   2
M  END
>  <reaction>  (4) 
kfir_rxn_11663

>  <mol_properties>  (4) 
{"4": {"label": "*1", "atom_type": "N3s"}, "5": {"label": "*0", "atom_type": "N3d"}, "8": {"label": "*4", "atom_type": "Cd"}, "9": {"label": "*3", "atom_type": "Cdd"}, "12": {"label": "*2", "atom_type": "H0"}}

>  <type>  (4) 
ts

$$$$

     RDKit          3D

 13 12  0  0  0  0  0  0  0  0999 V2000
    0.7390    3.6265   -0.1795 F   0  0  0  0  0  0  0  0  0  0  0  0
    0.3352    2.3874   -0.2665 C   0  0  0  0  0  0  0  0  0  0  0  0
   -1.0620    2.1351   -0.1593 C   0  0  0  0  0  0  0  0  0  0  0  0
   -1.3038    0.8153   -0.2699 N   0  0  0  0  0  0  0  0  0  0  0  0
   -0.2683    0.0071   -0.4501 N   0  0  0  0  0  0  0  0  0  0  0  0
    0.9835    0.2717   -0.5423 N   0  0  0  0  0  0  0  0  0  0  0  0
    1.3204    1.5332   -0.4466 N   0  0  0  0  0  0  0  0  0  0  0  0
   -0.2683   -3.4113   -1.0324 O   0  0  0  0  0  1  0  0  0  0  0  0
   -0.2683   -3.4113    0.1637 C   0  0  0  0  0  0  0  0  0  0  0  0
   -0.2683   -2.1104    0.9594 C   0  0  0  0  0  0  0  0  0  0  0  0
   -0.2683   -2.1104    2.1556 O   0  0  0  0  0  0  0  0  0  0  0  0
   -0.2683   -4.3324    0.7768 H   0  0  0  0  0  0  0  0  0  0  0  0
   -0.2683   -1.0052    0.2237 H   0  0  0  0  0  0  0  0  0  0  0  0
  1  2  1  0
  2  3  2  0
  2  7  1  0
  3  4  2  0
  4  5  1  0
  5  6  1  0
  5 13  1  0
  6  7  2  0
  8  9  1  0
  9 10  2  0
  9 12  1  0
 10 11  2  0
M  RAD  1   8   2
M  END
>  <reaction>  (5) 
kfir_rxn_11663

>  <mol_properties>  (5) 
{"4": {"label": "*1", "atom_type": "N3s"}, "5": {"label": "*0", "atom_type": "N3d"}, "8": {"label": "*4", "atom_type": "Cd"}, "9": {"label": "*3", "atom_type": "Cdd"}, "12": {"label": "*2", "atom_type": "H0"}}

>  <type>  (5) 
unop_1

>  <geom_source>  (5) 
Heuristics

$$$$

     RDKit          3D

 13 12  0  0  0  0  0  0  0  0999 V2000
   -0.6537    3.4451   -1.4065 F   0  0  0  0  0  0  0  0  0  0  0  0
   -0.3591    2.2572   -0.9505 C   0  0  0  0  0  0  0  0  0  0  0  0
   -0.7099    1.1328   -1.7505 C   0  0  0  0  0  0  0  0  0  0  0  0
   -0.3373   -0.0061   -1.1368 N   0  0  0  0  0  0  0  0  0  0  0  0
    0.2606    0.0908    0.0426 N   0  0  0  0  0  0  0  0  0  0  0  0
    0.5617    1.1267    0.7366 N   0  0  0  0  0  0  0  0  0  0  0  0
    0.2386    2.2863    0.2220 N   0  0  0  0  0  0  0  0  0  0  0  0
    0.2606   -3.3277   -0.5397 O   0  0  0  0  0  1  0  0  0  0  0  0
    0.2606   -3.3277    0.6565 C   0  0  0  0  0  0  0  0  0  0  0  0
    0.2606   -2.0268    1.4522 C   0  0  0  0  0  0  0  0  0  0  0  0
    0.2606   -2.0268    2.6483 O   0  0  0  0  0  0  0  0  0  0  0  0
    0.2606   -4.2488    1.2696 H   0  0  0  0  0  0  0  0  0  0  0  0
    0.2606   -0.9215    0.7165 H   0  0  0  0  0  0  0  0  0  0  0  0
  1  2  1  0
  2  3  2  0
  2  7  1  0
  3  4  2  0
  4  5  1  0
  5  6  1  0
  5 13  1  0
  6  7  2  0
  8  9  1  0
  9 10  2  0
  9 12  1  0
 10 11  2  0
M  RAD  1   8   2
M  END
>  <reaction>  (6) 
kfir_rxn_11663

>  <mol_properties>  (6) 
{"4": {"label": "*1", "atom_type": "N3s"}, "5": {"label": "*0", "atom_type": "N3d"}, "8": {"label": "*4", "atom_type": "Cd"}, "9": {"label": "*3", "atom_type": "Cdd"}, "12": {"label": "*2", "atom_type": "H0"}}

>  <type>  (6) 
unop_2

>  <geom_source>  (6) 
Heuristics

$$$$

     RDKit          3D

 13 12  0  0  0  0  0  0  0  0999 V2000
    1.2146    3.3598   -1.0264 F   0  0  0  0  0  0  0  0  0  0  0  0
    0.5966    2.2610   -0.6847 C   0  0  0  0  0  0  0  0  0  0  0  0
   -0.5426    2.3755    0.1618 C   0  0  0  0  0  0  0  0  0  0  0  0
   -1.0558    1.1567    0.4145 N   0  0  0  0  0  0  0  0  0  0  0  0
   -0.4579    0.1060   -0.1300 N   0  0  0  0  0  0  0  0  0  0  0  0
    0.5722    0.0409   -0.8916 N   0  0  0  0  0  0  0  0  0  0  0  0
    1.1443    1.1786   -1.1957 N   0  0  0  0  0  0  0  0  0  0  0  0
   -0.4579   -3.3125   -0.7123 O   0  0  0  0  0  1  0  0  0  0  0  0
   -0.4579   -3.3125    0.4838 C   0  0  0  0  0  0  0  0  0  0  0  0
   -0.4579   -2.0115    1.2796 C   0  0  0  0  0  0  0  0  0  0  0  0
   -0.4579   -2.0115    2.4757 O   0  0  0  0  0  0  0  0  0  0  0  0
   -0.4579   -4.2335    1.0969 H   0  0  0  0  0  0  0  0  0  0  0  0
   -0.4579   -0.9063    0.5439 H   0  0  0  0  0  0  0  0  0  0  0  0
  1  2  1  0
  2  3  2  0
  2  7  1  0
  3  4  2  0
  4  5  1  0
  5  6  1  0
  5 13  1  0
  6  7  2  0
  8  9  1  0
  9 10  2  0
  9 12  1  0
 10 11  2  0
M  RAD  1   8   2
M  END
>  <reaction>  (7) 
kfir_rxn_11663

>  <mol_properties>  (7) 
{"4": {"label": "*1", "atom_type": "N3s"}, "5": {"label": "*0", "atom_type": "N3d"}, "8": {"label": "*4", "atom_type": "Cd"}, "9": {"label": "*3", "atom_type": "Cdd"}, "12": {"label": "*2", "atom_type": "H0"}}

>  <type>  (7) 
unop_3

>  <geom_source>  (7) 
Heuristics

$$$$

     RDKit          3D

 13 12  0  0  0  0  0  0  0  0999 V2000
    0.7171    3.6212   -0.6844 F   0  0  0  0  0  0  0  0  0  0  0  0
    0.4097    2.3573   -0.5660 C   0  0  0  0  0  0  0  0  0  0  0  0
    1.1924    1.4128   -1.2889 C   0  0  0  0  0  0  0  0  0  0  0  0
    0.7438    0.1649   -1.0558 N   0  0  0  0  0  0  0  0  0  0  0  0
   -0.2916    0.0193   -0.2407 N   0  0  0  0  0  0  0  0  0  0  0  0
   -0.9753    0.8983    0.3961 N   0  0  0  0  0  0  0  0  0  0  0  0
   -0.6146    2.1463    0.2335 N   0  0  0  0  0  0  0  0  0  0  0  0
   -0.2916   -3.3992   -0.8229 O   0  0  0  0  0  1  0  0  0  0  0  0
   -0.2916   -3.3992    0.3732 C   0  0  0  0  0  0  0  0  0  0  0  0
   -0.2916   -2.0982    1.1689 C   0  0  0  0  0  0  0  0  0  0  0  0
   -0.2916   -2.0982    2.3650 O   0  0  0  0  0  0  0  0  0  0  0  0
   -0.2916   -4.3202    0.9863 H   0  0  0  0  0  0  0  0  0  0  0  0
   -0.2916   -0.9930    0.4332 H   0  0  0  0  0  0  0  0  0  0  0  0
  1  2  1  0
  2  3  2  0
  2  7  1  0
  3  4  2  0
  4  5  1  0
  5  6  1  0
  5 13  1  0
  6  7  2  0
  8  9  1  0
  9 10  2  0
  9 12  1  0
 10 11  2  0
M  RAD  1   8   2
M  END
>  <reaction>  (8) 
kfir_rxn_11663

>  <mol_properties>  (8) 
{"4": {"label": "*1", "atom_type": "N3s"}, "5": {"label": "*0", "atom_type": "N3d"}, "8": {"label": "*4", "atom_type": "Cd"}, "9": {"label": "*3", "atom_type": "Cdd"}, "12": {"label": "*2", "atom_type": "H0"}}

>  <type>  (8) 
unop_4

>  <geom_source>  (8) 
Heuristics

$$$$

     RDKit          3D

 13 12  0  0  0  0  0  0  0  0999 V2000
   -0.0000    3.1954   -1.9990 F   0  0  0  0  0  0  0  0  0  0  0  0
    0.0000    2.1806   -1.1767 C   0  0  0  0  0  0  0  0  0  0  0  0
    0.0000    2.4575    0.2200 C   0  0  0  0  0  0  0  0  0  0  0  0
    0.0000    1.3073    0.9198 N   0  0  0  0  0  0  0  0  0  0  0  0
    0.0000    0.1678    0.2420 N   0  0  0  0  0  0  0  0  0  0  0  0
    0.0000   -0.0440   -1.0232 N   0  0  0  0  0  0  0  0  0  0  0  0
    0.0000    1.0164   -1.7910 N   0  0  0  0  0  0  0  0  0  0  0  0
   -0.0000   -3.2506   -0.3403 O   0  0  0  0  0  1  0  0  0  0  0  0
   -0.0000   -3.2506    0.8558 C   0  0  0  0  0  0  0  0  0  0  0  0
   -0.0000   -1.9497    1.6515 C   0  0  0  0  0  0  0  0  0  0  0  0
   -0.0000   -1.9497    2.8477 O   0  0  0  0  0  0  0  0  0  0  0  0
   -0.0000   -4.1717    1.4689 H   0  0  0  0  0  0  0  0  0  0  0  0
   -0.0000   -0.8445    0.9158 H   0  0  0  0  0  0  0  0  0  0  0  0
  1  2  1  0
  2  3  2  0
  2  7  1  0
  3  4  2  0
  4  5  1  0
  5  6  1  0
  5 13  1  0
  6  7  2  0
  8  9  1  0
  9 10  2  0
  9 12  1  0
 10 11  2  0
M  RAD  1   8   2
M  END
>  <reaction>  (9) 
kfir_rxn_11663

>  <mol_properties>  (9) 
{"4": {"label": "*1", "atom_type": "N3s"}, "5": {"label": "*0", "atom_type": "N3d"}, "8": {"label": "*4", "atom_type": "Cd"}, "9": {"label": "*3", "atom_type": "Cdd"}, "12": {"label": "*2", "atom_type": "H0"}}

>  <type>  (9) 
unop_5

>  <geom_source>  (9) 
Heuristics

$$$$

     RDKit          3D

 13 12  0  0  0  0  0  0  0  0999 V2000
    0.1342    3.7229   -0.1405 F   0  0  0  0  0  0  0  0  0  0  0  0
    0.1181    2.4230   -0.2672 C   0  0  0  0  0  0  0  0  0  0  0  0
    1.3147    1.7828   -0.6980 C   0  0  0  0  0  0  0  0  0  0  0  0
    1.1257    0.4520   -0.7749 N   0  0  0  0  0  0  0  0  0  0  0  0
   -0.0699   -0.0249   -0.4575 N   0  0  0  0  0  0  0  0  0  0  0  0
   -1.1300    0.5856   -0.0714 N   0  0  0  0  0  0  0  0  0  0  0  0
   -1.0460    1.8878    0.0347 N   0  0  0  0  0  0  0  0  0  0  0  0
   -0.0699   -3.4433   -1.0397 O   0  0  0  0  0  1  0  0  0  0  0  0
   -0.0699   -3.4433    0.1564 C   0  0  0  0  0  0  0  0  0  0  0  0
   -0.0699   -2.1424    0.9521 C   0  0  0  0  0  0  0  0  0  0  0  0
   -0.0699   -2.1424    2.1482 O   0  0  0  0  0  0  0  0  0  0  0  0
   -0.0699   -4.3644    0.7695 H   0  0  0  0  0  0  0  0  0  0  0  0
   -0.0699   -1.0372    0.2164 H   0  0  0  0  0  0  0  0  0  0  0  0
  1  2  1  0
  2  3  2  0
  2  7  1  0
  3  4  2  0
  4  5  1  0
  5  6  1  0
  5 13  1  0
  6  7  2  0
  8  9  1  0
  9 10  2  0
  9 12  1  0
 10 11  2  0
M  RAD  1   8   2
M  END
>  <reaction>  (10) 
kfir_rxn_11663

>  <mol_properties>  (10) 
{"4": {"label": "*1", "atom_type": "N3s"}, "5": {"label": "*0", "atom_type": "N3d"}, "8": {"label": "*4", "atom_type": "Cd"}, "9": {"label": "*3", "atom_type": "Cdd"}, "12": {"label": "*2", "atom_type": "H0"}}

>  <type>  (10) 
unop_6

>  <geom_source>  (10) 
Heuristics

$$$$

     RDKit          3D

 13 12  0  0  0  0  0  0  0  0999 V2000
   -0.7390    3.6265   -0.1795 F   0  0  0  0  0  0  0  0  0  0  0  0
   -0.3352    2.3874   -0.2665 C   0  0  0  0  0  0  0  0  0  0  0  0
    1.0620    2.1351   -0.1593 C   0  0  0  0  0  0  0  0  0  0  0  0
    1.3038    0.8153   -0.2699 N   0  0  0  0  0  0  0  0  0  0  0  0
    0.2683    0.0071   -0.4501 N   0  0  0  0  0  0  0  0  0  0  0  0
   -0.9834    0.2717   -0.5423 N   0  0  0  0  0  0  0  0  0  0  0  0
   -1.3204    1.5332   -0.4466 N   0  0  0  0  0  0  0  0  0  0  0  0
    0.2683   -3.4113   -1.0324 O   0  0  0  0  0  1  0  0  0  0  0  0
    0.2683   -3.4113    0.1637 C   0  0  0  0  0  0  0  0  0  0  0  0
    0.2683   -2.1104    0.9594 C   0  0  0  0  0  0  0  0  0  0  0  0
    0.2683   -2.1104    2.1556 O   0  0  0  0  0  0  0  0  0  0  0  0
    0.2683   -4.3324    0.7768 H   0  0  0  0  0  0  0  0  0  0  0  0
    0.2683   -1.0052    0.2237 H   0  0  0  0  0  0  0  0  0  0  0  0
  1  2  1  0
  2  3  2  0
  2  7  1  0
  3  4  2  0
  4  5  1  0
  5  6  1  0
  5 13  1  0
  6  7  2  0
  8  9  1  0
  9 10  2  0
  9 12  1  0
 10 11  2  0
M  RAD  1   8   2
M  END
>  <reaction>  (11) 
kfir_rxn_11663

>  <mol_properties>  (11) 
{"4": {"label": "*1", "atom_type": "N3s"}, "5": {"label": "*0", "atom_type": "N3d"}, "8": {"label": "*4", "atom_type": "Cd"}, "9": {"label": "*3", "atom_type": "Cdd"}, "12": {"label": "*2", "atom_type": "H0"}}

>  <type>  (11) 
unop_7

>  <geom_source>  (11) 
Heuristics

$$$$

     RDKit          3D

 13 12  0  0  0  0  0  0  0  0999 V2000
   -0.1342    3.7229   -0.1406 F   0  0  0  0  0  0  0  0  0  0  0  0
   -0.1181    2.4230   -0.2672 C   0  0  0  0  0  0  0  0  0  0  0  0
   -1.3147    1.7828   -0.6980 C   0  0  0  0  0  0  0  0  0  0  0  0
   -1.1257    0.4520   -0.7749 N   0  0  0  0  0  0  0  0  0  0  0  0
    0.0699   -0.0249   -0.4575 N   0  0  0  0  0  0  0  0  0  0  0  0
    1.1300    0.5856   -0.0714 N   0  0  0  0  0  0  0  0  0  0  0  0
    1.0460    1.8878    0.0347 N   0  0  0  0  0  0  0  0  0  0  0  0
    0.0699   -3.4433   -1.0397 O   0  0  0  0  0  1  0  0  0  0  0  0
    0.0699   -3.4433    0.1564 C   0  0  0  0  0  0  0  0  0  0  0  0
    0.0699   -2.1424    0.9521 C   0  0  0  0  0  0  0  0  0  0  0  0
    0.0699   -2.1424    2.1482 O   0  0  0  0  0  0  0  0  0  0  0  0
    0.0699   -4.3644    0.7695 H   0  0  0  0  0  0  0  0  0  0  0  0
    0.0699   -1.0372    0.2164 H   0  0  0  0  0  0  0  0  0  0  0  0
  1  2  1  0
  2  3  2  0
  2  7  1  0
  3  4  2  0
  4  5  1  0
  5  6  1  0
  5 13  1  0
  6  7  2  0
  8  9  1  0
  9 10  2  0
  9 12  1  0
 10 11  2  0
M  RAD  1   8   2
M  END
>  <reaction>  (12) 
kfir_rxn_11663

>  <mol_properties>  (12) 
{"4": {"label": "*1", "atom_type": "N3s"}, "5": {"label": "*0", "atom_type": "N3d"}, "8": {"label": "*4", "atom_type": "Cd"}, "9": {"label": "*3", "atom_type": "Cdd"}, "12": {"label": "*2", "atom_type": "H0"}}

>  <type>  (12) 
unop_8

>  <geom_source>  (12) 
Heuristics

$$$$

     RDKit          3D

 13 12  0  0  0  0  0  0  0  0999 V2000
    0.6537    3.4451   -1.4065 F   0  0  0  0  0  0  0  0  0  0  0  0
    0.3591    2.2572   -0.9505 C   0  0  0  0  0  0  0  0  0  0  0  0
    0.7099    1.1328   -1.7505 C   0  0  0  0  0  0  0  0  0  0  0  0
    0.3373   -0.0061   -1.1368 N   0  0  0  0  0  0  0  0  0  0  0  0
   -0.2606    0.0908    0.0426 N   0  0  0  0  0  0  0  0  0  0  0  0
   -0.5617    1.1267    0.7366 N   0  0  0  0  0  0  0  0  0  0  0  0
   -0.2386    2.2863    0.2220 N   0  0  0  0  0  0  0  0  0  0  0  0
   -0.2606   -3.3277   -0.5397 O   0  0  0  0  0  1  0  0  0  0  0  0
   -0.2606   -3.3277    0.6565 C   0  0  0  0  0  0  0  0  0  0  0  0
   -0.2606   -2.0268    1.4522 C   0  0  0  0  0  0  0  0  0  0  0  0
   -0.2606   -2.0268    2.6483 O   0  0  0  0  0  0  0  0  0  0  0  0
   -0.2606   -4.2487    1.2696 H   0  0  0  0  0  0  0  0  0  0  0  0
   -0.2606   -0.9215    0.7165 H   0  0  0  0  0  0  0  0  0  0  0  0
  1  2  1  0
  2  3  2  0
  2  7  1  0
  3  4  2  0
  4  5  1  0
  5  6  1  0
  5 13  1  0
  6  7  2  0
  8  9  1  0
  9 10  2  0
  9 12  1  0
 10 11  2  0
M  RAD  1   8   2
M  END
>  <reaction>  (13) 
kfir_rxn_11663

>  <mol_properties>  (13) 
{"4": {"label": "*1", "atom_type": "N3s"}, "5": {"label": "*0", "atom_type": "N3d"}, "8": {"label": "*4", "atom_type": "Cd"}, "9": {"label": "*3", "atom_type": "Cdd"}, "12": {"label": "*2", "atom_type": "H0"}}

>  <type>  (13) 
unop_9

>  <geom_source>  (13) 
Heuristics

$$$$

     RDKit          3D

 13 12  0  0  0  0  0  0  0  0999 V2000
   -0.7170    3.6212   -0.6845 F   0  0  0  0  0  0  0  0  0  0  0  0
   -0.4097    2.3573   -0.5660 C   0  0  0  0  0  0  0  0  0  0  0  0
   -1.1924    1.4128   -1.2889 C   0  0  0  0  0  0  0  0  0  0  0  0
   -0.7438    0.1649   -1.0558 N   0  0  0  0  0  0  0  0  0  0  0  0
    0.2916    0.0193   -0.2407 N   0  0  0  0  0  0  0  0  0  0  0  0
    0.9752    0.8983    0.3962 N   0  0  0  0  0  0  0  0  0  0  0  0
    0.6146    2.1463    0.2335 N   0  0  0  0  0  0  0  0  0  0  0  0
    0.2916   -3.3992   -0.8229 O   0  0  0  0  0  1  0  0  0  0  0  0
    0.2916   -3.3992    0.3732 C   0  0  0  0  0  0  0  0  0  0  0  0
    0.2916   -2.0982    1.1689 C   0  0  0  0  0  0  0  0  0  0  0  0
    0.2916   -2.0982    2.3650 O   0  0  0  0  0  0  0  0  0  0  0  0
    0.2916   -4.3202    0.9863 H   0  0  0  0  0  0  0  0  0  0  0  0
    0.2916   -0.9930    0.4332 H   0  0  0  0  0  0  0  0  0  0  0  0
  1  2  1  0
  2  3  2  0
  2  7  1  0
  3  4  2  0
  4  5  1  0
  5  6  1  0
  5 13  1  0
  6  7  2  0
  8  9  1  0
  9 10  2  0
  9 12  1  0
 10 11  2  0
M  RAD  1   8   2
M  END
>  <reaction>  (14) 
kfir_rxn_11663

>  <mol_properties>  (14) 
{"4": {"label": "*1", "atom_type": "N3s"}, "5": {"label": "*0", "atom_type": "N3d"}, "8": {"label": "*4", "atom_type": "Cd"}, "9": {"label": "*3", "atom_type": "Cdd"}, "12": {"label": "*2", "atom_type": "H0"}}

>  <type>  (14) 
unop_10

>  <geom_source>  (14) 
Heuristics

$$$$

     RDKit          3D

 13 12  0  0  0  0  0  0  0  0999 V2000
   -1.2146    3.3598   -1.0264 F   0  0  0  0  0  0  0  0  0  0  0  0
   -0.5966    2.2610   -0.6847 C   0  0  0  0  0  0  0  0  0  0  0  0
    0.5426    2.3755    0.1618 C   0  0  0  0  0  0  0  0  0  0  0  0
    1.0558    1.1567    0.4145 N   0  0  0  0  0  0  0  0  0  0  0  0
    0.4579    0.1060   -0.1300 N   0  0  0  0  0  0  0  0  0  0  0  0
   -0.5722    0.0409   -0.8916 N   0  0  0  0  0  0  0  0  0  0  0  0
   -1.1443    1.1786   -1.1957 N   0  0  0  0  0  0  0  0  0  0  0  0
    0.4579   -3.3125   -0.7123 O   0  0  0  0  0  1  0  0  0  0  0  0
    0.4579   -3.3125    0.4838 C   0  0  0  0  0  0  0  0  0  0  0  0
    0.4579   -2.0115    1.2796 C   0  0  0  0  0  0  0  0  0  0  0  0
    0.4579   -2.0115    2.4757 O   0  0  0  0  0  0  0  0  0  0  0  0
    0.4579   -4.2335    1.0969 H   0  0  0  0  0  0  0  0  0  0  0  0
    0.4579   -0.9063    0.5438 H   0  0  0  0  0  0  0  0  0  0  0  0
  1  2  1  0
  2  3  2  0
  2  7  1  0
  3  4  2  0
  4  5  1  0
  5  6  1  0
  5 13  1  0
  6  7  2  0
  8  9  1  0
  9 10  2  0
  9 12  1  0
 10 11  2  0
M  RAD  1   8   2
M  END
>  <reaction>  (15) 
kfir_rxn_11663

>  <mol_properties>  (15) 
{"4": {"label": "*1", "atom_type": "N3s"}, "5": {"label": "*0", "atom_type": "N3d"}, "8": {"label": "*4", "atom_type": "Cd"}, "9": {"label": "*3", "atom_type": "Cdd"}, "12": {"label": "*2", "atom_type": "H0"}}

>  <type>  (15) 
unop_11

>  <geom_source>  (15) 
Heuristics

$$$$

     RDKit          3D

 13 12  0  0  0  0  0  0  0  0999 V2000
    0.0000    3.3604   -1.7512 F   0  0  0  0  0  0  0  0  0  0  0  0
    0.0000    2.2102   -1.1323 C   0  0  0  0  0  0  0  0  0  0  0  0
    0.0000    1.0285   -1.9266 C   0  0  0  0  0  0  0  0  0  0  0  0
   -0.0000   -0.0609   -1.1356 N   0  0  0  0  0  0  0  0  0  0  0  0
   -0.0000    0.1247    0.1772 N   0  0  0  0  0  0  0  0  0  0  0  0
   -0.0000    1.2101    0.8608 N   0  0  0  0  0  0  0  0  0  0  0  0
    0.0000    2.3277    0.1788 N   0  0  0  0  0  0  0  0  0  0  0  0
   -0.0000   -3.2938   -0.4051 O   0  0  0  0  0  1  0  0  0  0  0  0
   -0.0000   -3.2938    0.7910 C   0  0  0  0  0  0  0  0  0  0  0  0
   -0.0000   -1.9928    1.5868 C   0  0  0  0  0  0  0  0  0  0  0  0
   -0.0000   -1.9928    2.7829 O   0  0  0  0  0  0  0  0  0  0  0  0
   -0.0000   -4.2148    1.4041 H   0  0  0  0  0  0  0  0  0  0  0  0
   -0.0000   -0.8876    0.8510 H   0  0  0  0  0  0  0  0  0  0  0  0
  1  2  1  0
  2  3  2  0
  2  7  1  0
  3  4  2  0
  4  5  1  0
  5  6  1  0
  5 13  1  0
  6  7  2  0
  8  9  1  0
  9 10  2  0
  9 12  1  0
 10 11  2  0
M  RAD  1   8   2
M  END
>  <reaction>  (16) 
kfir_rxn_11663

>  <mol_properties>  (16) 
{"4": {"label": "*1", "atom_type": "N3s"}, "5": {"label": "*0", "atom_type": "N3d"}, "8": {"label": "*4", "atom_type": "Cd"}, "9": {"label": "*3", "atom_type": "Cdd"}, "12": {"label": "*2", "atom_type": "H0"}}

>  <type>  (16) 
unop_12

>  <geom_source>  (16) 
Heuristics

$$$$
