
     RDKit          3D

  6  5  0  0  0  0  0  0  0  0999 V2000
   -0.6819   -0.1027   -0.0106 N   0  0  0  0  0  0  0  0  0  0  0  0
    0.6339    0.2147    0.0079 C   0  0  0  0  0  0  0  0  0  0  0  0
    1.0720    1.3374   -0.0025 O   0  0  0  0  0  0  0  0  0  0  0  0
   -1.3651    0.6341   -0.0350 H   0  0  0  0  0  0  0  0  0  0  0  0
   -0.9875   -1.0572   -0.0005 H   0  0  0  0  0  0  0  0  0  0  0  0
    1.2840   -0.6787    0.0343 H   0  0  0  0  0  0  0  0  0  0  0  0
  1  2  1  0
  1  4  1  0
  1  5  1  0
  2  3  2  0
  2  6  1  0
M  END
>  <reaction>  (1) 
kfir_rxn_1315

>  <mol_properties>  (1) 
{"0": {"label": "donator", "atom_type": "N3s"}, "3": {"label": "d_hydrogen", "atom_type": "H0"}}

>  <type>  (1) 
r1h

$$$$

     RDKit          3D

  7  6  0  0  0  0  0  0  0  0999 V2000
   -1.3409    1.0234    0.1140 O   0  0  0  0  0  1  0  0  0  0  0  0
   -0.6348   -0.1183    0.0484 C   0  0  0  0  0  0  0  0  0  0  0  0
    0.8807    0.1187    0.0062 C   0  0  0  0  0  0  0  0  0  0  0  0
    1.6671   -0.6528    0.4626 O   0  0  0  0  0  0  0  0  0  0  0  0
   -0.8526   -0.5621   -0.9466 H   0  0  0  0  0  0  0  0  0  0  0  0
   -0.8955   -0.8746    0.8021 H   0  0  0  0  0  0  0  0  0  0  0  0
    1.1760    1.0657   -0.4867 H   0  0  0  0  0  0  0  0  0  0  0  0
  1  2  1  0
  2  3  1  0
  2  5  1  0
  2  6  1  0
  3  4  2  0
  3  7  1  0
M  RAD  1   1   2
M  END
>  <reaction>  (2) 
kfir_rxn_1315

>  <mol_properties>  (2) 
{"0": {"label": "acceptor", "atom_type": "O2s"}}

>  <type>  (2) 
r2

$$$$

     RDKit          3D

  8  7  0  0  0  0  0  0  0  0999 V2000
    1.5069    0.8506    0.0871 O   0  0  0  0  0  0  0  0  0  0  0  0
    0.9333   -0.1960   -0.0499 C   0  0  0  0  0  0  0  0  0  0  0  0
   -0.5657   -0.2889   -0.0563 C   0  0  0  0  0  0  0  0  0  0  0  0
   -1.1748    0.9483    0.1107 O   0  0  0  0  0  0  0  0  0  0  0  0
    1.4850   -1.1460   -0.1785 H   0  0  0  0  0  0  0  0  0  0  0  0
   -0.8639   -0.7569   -1.0057 H   0  0  0  0  0  0  0  0  0  0  0  0
   -0.8570   -0.9892    0.7399 H   0  0  0  0  0  0  0  0  0  0  0  0
   -0.4646    1.5972    0.1942 H   0  0  0  0  0  0  0  0  0  0  0  0
  1  2  2  0
  2  3  1  0
  2  5  1  0
  3  4  1  0
  3  6  1  0
  3  7  1  0
  4  8  1  0
M  END
>  <reaction>  (3) 
kfir_rxn_1315

>  <mol_properties>  (3) 
{"0": {"label": "acceptor", "atom_type": "O2s"}, "7": {"label": "a_hydrogen", "atom_type": "H0"}}

>  <type>  (3) 
r2h

$$$$

     RDKit          3D

 13 11  0  0  0  0  0  0  0  0999 V2000
    1.2415    1.3682    0.4616 O   0  0  0  0  0  0  0  0  0  0  0  0
   -0.0276    1.8137    0.2137 C   0  0  0  0  0  0  0  0  0  0  0  0
   -1.1302    1.1622    1.0334 C   0  0  0  0  0  0  0  0  0  0  0  0
   -0.9827    0.2502    1.7929 O   0  0  0  0  0  0  0  0  0  0  0  0
   -0.3326    1.7241   -0.8401 H   0  0  0  0  0  0  0  0  0  0  0  0
   -0.0686    2.8799    0.4808 H   0  0  0  0  0  0  0  0  0  0  0  0
   -2.1294    1.6068    0.8533 H   0  0  0  0  0  0  0  0  0  0  0  0
    1.2128   -0.9930    0.3199 N   0  0  0  0  0  0  0  0  0  0  0  0
    0.1831   -1.4920   -0.4267 C   0  0  0  0  0  0  0  0  0  0  0  0
   -0.3451   -0.9091   -1.3430 O   0  0  0  0  0  1  0  0  0  0  0  0
    1.3865    0.2660    0.2421 H   0  0  0  0  0  0  0  0  0  0  0  0
    1.2217   -1.3455    1.2717 H   0  0  0  0  0  0  0  0  0  0  0  0
   -0.1012   -2.5254   -0.1516 H   0  0  0  0  0  0  0  0  0  0  0  0
  1  2  1  0
  1 11  1  0
  2  3  1  0
  2  5  1  0
  2  6  1  0
  3  4  2  0
  3  7  1  0
  8  9  2  3
  8 12  1  0
  9 10  1  0
  9 13  1  0
M  RAD  1  10   2
M  END
>  <reaction>  (4) 
kfir_rxn_1315

>  <mol_properties>  (4) 
{"0": {"label": "*1", "atom_type": "O2s"}, "1": {"label": "*0", "atom_type": "Cs"}, "7": {"label": "*3", "atom_type": "N3d"}, "8": {"label": "*4", "atom_type": "Cd"}, "10": {"label": "*2", "atom_type": "H0"}}

>  <type>  (4) 
ts

$$$$

     RDKit          3D

 13 11  0  0  0  0  0  0  0  0999 V2000
   -0.0000    1.1830   -0.8882 O   0  0  0  0  0  0  0  0  0  0  0  0
   -0.0000    2.1213    0.1361 C   0  0  0  0  0  0  0  0  0  0  0  0
   -0.0000    1.4853    1.4967 C   0  0  0  0  0  0  0  0  0  0  0  0
   -0.0000    0.2929    1.6435 O   0  0  0  0  0  0  0  0  0  0  0  0
   -0.8805    2.7774    0.0779 H   0  0  0  0  0  0  0  0  0  0  0  0
    0.8805    2.7774    0.0779 H   0  0  0  0  0  0  0  0  0  0  0  0
   -0.0000    2.1750    2.3614 H   0  0  0  0  0  0  0  0  0  0  0  0
    0.0000   -0.9453    0.1428 N   0  0  0  0  0  0  0  0  0  0  0  0
    0.0000   -2.0559   -0.6310 C   0  0  0  0  0  0  0  0  0  0  0  0
    0.0000   -2.0559   -1.8362 O   0  0  0  0  0  1  0  0  0  0  0  0
    0.0000    0.1402   -0.3830 H   0  0  0  0  0  0  0  0  0  0  0  0
   -0.0000   -1.0076    1.1431 H   0  0  0  0  0  0  0  0  0  0  0  0
   -0.0000   -2.9866   -0.0349 H   0  0  0  0  0  0  0  0  0  0  0  0
  1  2  1  0
  1 11  1  0
  2  3  1  0
  2  5  1  0
  2  6  1  0
  3  4  2  0
  3  7  1  0
  8  9  2  3
  8 12  1  0
  9 10  1  0
  9 13  1  0
M  RAD  1  10   2
M  END
>  <reaction>  (5) 
kfir_rxn_1315

>  <mol_properties>  (5) 
{"0": {"label": "*1", "atom_type": "O2s"}, "1": {"label": "*0", "atom_type": "Cs"}, "7": {"label": "*3", "atom_type": "N3d"}, "8": {"label": "*4", "atom_type": "Cd"}, "10": {"label": "*2", "atom_type": "H0"}}

>  <type>  (5) 
unop_1

>  <geom_source>  (5) 
Heuristics

$$$$

     RDKit          3D

 13 11  0  0  0  0  0  0  0  0999 V2000
    0.7309    1.5556    0.1792 O   0  0  0  0  0  0  0  0  0  0  0  0
   -0.6000    1.9137    0.0058 C   0  0  0  0  0  0  0  0  0  0  0  0
   -1.4451    0.7673   -0.4711 C   0  0  0  0  0  0  0  0  0  0  0  0
   -0.9853   -0.3247   -0.6697 O   0  0  0  0  0  0  0  0  0  0  0  0
   -0.7034    2.7276   -0.7264 H   0  0  0  0  0  0  0  0  0  0  0  0
   -1.0410    2.2818    0.9435 H   0  0  0  0  0  0  0  0  0  0  0  0
   -2.5184    0.9814   -0.6309 H   0  0  0  0  0  0  0  0  0  0  0  0
    0.7309   -0.5726    1.2102 N   0  0  0  0  0  0  0  0  0  0  0  0
    0.7309   -1.6833    0.4364 C   0  0  0  0  0  0  0  0  0  0  0  0
    0.7309   -1.6833   -0.7688 O   0  0  0  0  0  1  0  0  0  0  0  0
    0.7309    0.5128    0.6844 H   0  0  0  0  0  0  0  0  0  0  0  0
    0.7309   -0.6349    2.2105 H   0  0  0  0  0  0  0  0  0  0  0  0
    0.7309   -2.6139    1.0325 H   0  0  0  0  0  0  0  0  0  0  0  0
  1  2  1  0
  1 11  1  0
  2  3  1  0
  2  5  1  0
  2  6  1  0
  3  4  2  0
  3  7  1  0
  8  9  2  3
  8 12  1  0
  9 10  1  0
  9 13  1  0
M  RAD  1  10   2
M  END
>  <reaction>  (6) 
kfir_rxn_1315

>  <mol_properties>  (6) 
{"0": {"label": "*1", "atom_type": "O2s"}, "1": {"label": "*0", "atom_type": "Cs"}, "7": {"label": "*3", "atom_type": "N3d"}, "8": {"label": "*4", "atom_type": "Cd"}, "10": {"label": "*2", "atom_type": "H0"}}

>  <type>  (6) 
unop_2

>  <geom_source>  (6) 
Heuristics

$$$$

     RDKit          3D

 13 11  0  0  0  0  0  0  0  0999 V2000
   -0.6041    1.2319   -0.6305 O   0  0  0  0  0  0  0  0  0  0  0  0
    0.0614    2.0925    0.2333 C   0  0  0  0  0  0  0  0  0  0  0  0
    1.1112    1.3907    1.0463 C   0  0  0  0  0  0  0  0  0  0  0  0
    1.3235    0.2135    0.9343 O   0  0  0  0  0  0  0  0  0  0  0  0
   -0.6354    2.5719    0.9361 H   0  0  0  0  0  0  0  0  0  0  0  0
    0.5574    2.9061   -0.3156 H   0  0  0  0  0  0  0  0  0  0  0  0
    1.6820    2.0168    1.7573 H   0  0  0  0  0  0  0  0  0  0  0  0
   -0.6041   -0.8963    0.4005 N   0  0  0  0  0  0  0  0  0  0  0  0
   -0.6041   -2.0069   -0.3733 C   0  0  0  0  0  0  0  0  0  0  0  0
   -0.6041   -2.0069   -1.5786 O   0  0  0  0  0  1  0  0  0  0  0  0
   -0.6041    0.1892   -0.1254 H   0  0  0  0  0  0  0  0  0  0  0  0
   -0.6041   -0.9586    1.4008 H   0  0  0  0  0  0  0  0  0  0  0  0
   -0.6041   -2.9376    0.2227 H   0  0  0  0  0  0  0  0  0  0  0  0
  1  2  1  0
  1 11  1  0
  2  3  1  0
  2  5  1  0
  2  6  1  0
  3  4  2  0
  3  7  1  0
  8  9  2  3
  8 12  1  0
  9 10  1  0
  9 13  1  0
M  RAD  1  10   2
M  END
>  <reaction>  (7) 
kfir_rxn_1315

>  <mol_properties>  (7) 
{"0": {"label": "*1", "atom_type": "O2s"}, "1": {"label": "*0", "atom_type": "Cs"}, "7": {"label": "*3", "atom_type": "N3d"}, "8": {"label": "*4", "atom_type": "Cd"}, "10": {"label": "*2", "atom_type": "H0"}}

>  <type>  (7) 
unop_3

>  <geom_source>  (7) 
Heuristics

$$$$

     RDKit          3D

 13 11  0  0  0  0  0  0  0  0999 V2000
   -0.8094    1.3760   -0.1937 O   0  0  0  0  0  0  0  0  0  0  0  0
    0.3433    2.0242    0.2318 C   0  0  0  0  0  0  0  0  0  0  0  0
    1.5388    1.1153    0.2509 C   0  0  0  0  0  0  0  0  0  0  0  0
    1.4674   -0.0394   -0.0730 O   0  0  0  0  0  0  0  0  0  0  0  0
    0.2219    2.4323    1.2457 H   0  0  0  0  0  0  0  0  0  0  0  0
    0.5864    2.8767   -0.4189 H   0  0  0  0  0  0  0  0  0  0  0  0
    2.4935    1.5663    0.5803 H   0  0  0  0  0  0  0  0  0  0  0  0
   -0.8094   -0.7522    0.8373 N   0  0  0  0  0  0  0  0  0  0  0  0
   -0.8094   -1.8628    0.0635 C   0  0  0  0  0  0  0  0  0  0  0  0
   -0.8094   -1.8628   -1.1417 O   0  0  0  0  0  1  0  0  0  0  0  0
   -0.8094    0.3333    0.3115 H   0  0  0  0  0  0  0  0  0  0  0  0
   -0.8094   -0.8145    1.8376 H   0  0  0  0  0  0  0  0  0  0  0  0
   -0.8094   -2.7935    0.6596 H   0  0  0  0  0  0  0  0  0  0  0  0
  1  2  1  0
  1 11  1  0
  2  3  1  0
  2  5  1  0
  2  6  1  0
  3  4  2  0
  3  7  1  0
  8  9  2  3
  8 12  1  0
  9 10  1  0
  9 13  1  0
M  RAD  1  10   2
M  END
>  <reaction>  (8) 
kfir_rxn_1315

>  <mol_properties>  (8) 
{"0": {"label": "*1", "atom_type": "O2s"}, "1": {"label": "*0", "atom_type": "Cs"}, "7": {"label": "*3", "atom_type": "N3d"}, "8": {"label": "*4", "atom_type": "Cd"}, "10": {"label": "*2", "atom_type": "H0"}}

>  <type>  (8) 
unop_4

>  <geom_source>  (8) 
Heuristics

$$$$

     RDKit          3D

 13 12  0  0  0  0  0  0  0  0999 V2000
   -0.4934    1.7131    0.4119 O   0  0  0  0  0  0  0  0  0  0  0  0
    0.6593    1.7811   -0.3605 C   0  0  0  0  0  0  0  0  0  0  0  0
    1.0240    0.4553   -0.9646 C   0  0  0  0  0  3  0  0  0  0  0  0
    0.3671   -0.5331   -0.7779 O   0  0  0  0  0  0  0  0  0  0  0  0
    1.5197    2.1216    0.2336 H   0  0  0  0  0  0  0  0  0  0  0  0
    0.5470    2.5003   -1.1847 H   0  0  0  0  0  0  0  0  0  0  0  0
    1.9336    0.4356   -1.5936 H   0  0  0  0  0  0  0  0  0  0  0  0
   -0.4934   -0.4151    1.4429 N   0  0  0  0  0  0  0  0  0  0  0  0
   -0.4934   -1.5258    0.6691 C   0  0  0  0  0  0  0  0  0  0  0  0
   -0.4934   -1.5258   -0.5361 O   0  0  0  0  0  0  0  0  0  0  0  0
   -0.4934    0.6703    0.9170 H   0  0  0  0  0  0  0  0  0  0  0  0
   -0.4934   -0.4774    2.4432 H   0  0  0  0  0  0  0  0  0  0  0  0
   -0.4934   -2.4564    1.2652 H   0  0  0  0  0  0  0  0  0  0  0  0
  1  2  1  0
  1 11  1  0
  2  3  1  0
  2  5  1  0
  2  6  1  0
  3  4  1  0
  3  7  1  0
  4 10  1  0
  8  9  2  3
  8 12  1  0
  9 10  1  0
  9 13  1  0
M  RAD  1   3   2
M  END
>  <reaction>  (9) 
kfir_rxn_1315

>  <mol_properties>  (9) 
{"0": {"label": "*1", "atom_type": "O2s"}, "1": {"label": "*0", "atom_type": "Cs"}, "7": {"label": "*3", "atom_type": "N3d"}, "8": {"label": "*4", "atom_type": "Cd"}, "10": {"label": "*2", "atom_type": "H0"}}

>  <type>  (9) 
unop_5

>  <geom_source>  (9) 
Heuristics

$$$$

     RDKit          3D

 13 11  0  0  0  0  0  0  0  0999 V2000
    0.6041    1.2319   -0.6305 O   0  0  0  0  0  0  0  0  0  0  0  0
   -0.0614    2.0925    0.2333 C   0  0  0  0  0  0  0  0  0  0  0  0
   -1.1112    1.3907    1.0463 C   0  0  0  0  0  0  0  0  0  0  0  0
   -1.3235    0.2135    0.9343 O   0  0  0  0  0  0  0  0  0  0  0  0
   -0.5574    2.9061   -0.3156 H   0  0  0  0  0  0  0  0  0  0  0  0
    0.6354    2.5719    0.9361 H   0  0  0  0  0  0  0  0  0  0  0  0
   -1.6820    2.0168    1.7573 H   0  0  0  0  0  0  0  0  0  0  0  0
    0.6041   -0.8963    0.4005 N   0  0  0  0  0  0  0  0  0  0  0  0
    0.6041   -2.0069   -0.3733 C   0  0  0  0  0  0  0  0  0  0  0  0
    0.6041   -2.0069   -1.5786 O   0  0  0  0  0  1  0  0  0  0  0  0
    0.6041    0.1892   -0.1254 H   0  0  0  0  0  0  0  0  0  0  0  0
    0.6041   -0.9586    1.4008 H   0  0  0  0  0  0  0  0  0  0  0  0
    0.6041   -2.9376    0.2227 H   0  0  0  0  0  0  0  0  0  0  0  0
  1  2  1  0
  1 11  1  0
  2  3  1  0
  2  5  1  0
  2  6  1  0
  3  4  2  0
  3  7  1  0
  8  9  2  3
  8 12  1  0
  9 10  1  0
  9 13  1  0
M  RAD  1  10   2
M  END
>  <reaction>  (10) 
kfir_rxn_1315

>  <mol_properties>  (10) 
{"0": {"label": "*1", "atom_type": "O2s"}, "1": {"label": "*0", "atom_type": "Cs"}, "7": {"label": "*3", "atom_type": "N3d"}, "8": {"label": "*4", "atom_type": "Cd"}, "10": {"label": "*2", "atom_type": "H0"}}

>  <type>  (10) 
unop_6

>  <geom_source>  (10) 
Heuristics

$$$$

     RDKit          3D

 13 11  0  0  0  0  0  0  0  0999 V2000
    0.8094    1.3760   -0.1937 O   0  0  0  0  0  0  0  0  0  0  0  0
   -0.3433    2.0242    0.2318 C   0  0  0  0  0  0  0  0  0  0  0  0
   -1.5388    1.1153    0.2509 C   0  0  0  0  0  0  0  0  0  0  0  0
   -1.4674   -0.0394   -0.0730 O   0  0  0  0  0  0  0  0  0  0  0  0
   -0.5864    2.8767   -0.4189 H   0  0  0  0  0  0  0  0  0  0  0  0
   -0.2219    2.4323    1.2457 H   0  0  0  0  0  0  0  0  0  0  0  0
   -2.4935    1.5663    0.5803 H   0  0  0  0  0  0  0  0  0  0  0  0
    0.8094   -0.7522    0.8373 N   0  0  0  0  0  0  0  0  0  0  0  0
    0.8094   -1.8628    0.0635 C   0  0  0  0  0  0  0  0  0  0  0  0
    0.8094   -1.8628   -1.1417 O   0  0  0  0  0  1  0  0  0  0  0  0
    0.8094    0.3333    0.3115 H   0  0  0  0  0  0  0  0  0  0  0  0
    0.8094   -0.8145    1.8376 H   0  0  0  0  0  0  0  0  0  0  0  0
    0.8094   -2.7935    0.6596 H   0  0  0  0  0  0  0  0  0  0  0  0
  1  2  1  0
  1 11  1  0
  2  3  1  0
  2  5  1  0
  2  6  1  0
  3  4  2  0
  3  7  1  0
  8  9  2  3
  8 12  1  0
  9 10  1  0
  9 13  1  0
M  RAD  1  10   2
M  END
>  <reaction>  (11) 
kfir_rxn_1315

>  <mol_properties>  (11) 
{"0": {"label": "*1", "atom_type": "O2s"}, "1": {"label": "*0", "atom_type": "Cs"}, "7": {"label": "*3", "atom_type": "N3d"}, "8": {"label": "*4", "atom_type": "Cd"}, "10": {"label": "*2", "atom_type": "H0"}}

>  <type>  (11) 
unop_7

>  <geom_source>  (11) 
Heuristics

$$$$

     RDKit          3D

 13 11  0  0  0  0  0  0  0  0999 V2000
   -0.7309    1.5556    0.1792 O   0  0  0  0  0  0  0  0  0  0  0  0
    0.6000    1.9137    0.0058 C   0  0  0  0  0  0  0  0  0  0  0  0
    1.4451    0.7673   -0.4711 C   0  0  0  0  0  0  0  0  0  0  0  0
    0.9853   -0.3247   -0.6697 O   0  0  0  0  0  0  0  0  0  0  0  0
    1.0410    2.2818    0.9435 H   0  0  0  0  0  0  0  0  0  0  0  0
    0.7034    2.7276   -0.7264 H   0  0  0  0  0  0  0  0  0  0  0  0
    2.5184    0.9814   -0.6309 H   0  0  0  0  0  0  0  0  0  0  0  0
   -0.7309   -0.5726    1.2102 N   0  0  0  0  0  0  0  0  0  0  0  0
   -0.7309   -1.6833    0.4364 C   0  0  0  0  0  0  0  0  0  0  0  0
   -0.7309   -1.6833   -0.7688 O   0  0  0  0  0  1  0  0  0  0  0  0
   -0.7309    0.5128    0.6844 H   0  0  0  0  0  0  0  0  0  0  0  0
   -0.7309   -0.6349    2.2105 H   0  0  0  0  0  0  0  0  0  0  0  0
   -0.7309   -2.6139    1.0325 H   0  0  0  0  0  0  0  0  0  0  0  0
  1  2  1  0
  1 11  1  0
  2  3  1  0
  2  5  1  0
  2  6  1  0
  3  4  2  0
  3  7  1  0
  8  9  2  3
  8 12  1  0
  9 10  1  0
  9 13  1  0
M  RAD  1  10   2
M  END
>  <reaction>  (12) 
kfir_rxn_1315

>  <mol_properties>  (12) 
{"0": {"label": "*1", "atom_type": "O2s"}, "1": {"label": "*0", "atom_type": "Cs"}, "7": {"label": "*3", "atom_type": "N3d"}, "8": {"label": "*4", "atom_type": "Cd"}, "10": {"label": "*2", "atom_type": "H0"}}

>  <type>  (12) 
unop_8

>  <geom_source>  (12) 
Heuristics

$$$$

     RDKit          3D

 13 12  0  0  0  0  0  0  0  0999 V2000
    0.4934    1.7131    0.4119 O   0  0  0  0  0  0  0  0  0  0  0  0
   -0.6593    1.7811   -0.3605 C   0  0  0  0  0  0  0  0  0  0  0  0
   -1.0240    0.4553   -0.9646 C   0  0  0  0  0  3  0  0  0  0  0  0
   -0.3671   -0.5331   -0.7779 O   0  0  0  0  0  0  0  0  0  0  0  0
   -0.5470    2.5003   -1.1847 H   0  0  0  0  0  0  0  0  0  0  0  0
   -1.5197    2.1216    0.2337 H   0  0  0  0  0  0  0  0  0  0  0  0
   -1.9336    0.4356   -1.5936 H   0  0  0  0  0  0  0  0  0  0  0  0
    0.4934   -0.4151    1.4429 N   0  0  0  0  0  0  0  0  0  0  0  0
    0.4934   -1.5258    0.6691 C   0  0  0  0  0  0  0  0  0  0  0  0
    0.4934   -1.5258   -0.5361 O   0  0  0  0  0  0  0  0  0  0  0  0
    0.4934    0.6703    0.9170 H   0  0  0  0  0  0  0  0  0  0  0  0
    0.4934   -0.4774    2.4432 H   0  0  0  0  0  0  0  0  0  0  0  0
    0.4934   -2.4564    1.2652 H   0  0  0  0  0  0  0  0  0  0  0  0
  1  2  1  0
  1 11  1  0
  2  3  1  0
  2  5  1  0
  2  6  1  0
  3  4  1  0
  3  7  1  0
  4 10  1  0
  8  9  2  3
  8 12  1  0
  9 10  1  0
  9 13  1  0
M  RAD  1   3   2
M  END
>  <reaction>  (13) 
kfir_rxn_1315

>  <mol_properties>  (13) 
{"0": {"label": "*1", "atom_type": "O2s"}, "1": {"label": "*0", "atom_type": "Cs"}, "7": {"label": "*3", "atom_type": "N3d"}, "8": {"label": "*4", "atom_type": "Cd"}, "10": {"label": "*2", "atom_type": "H0"}}

>  <type>  (13) 
unop_9

>  <geom_source>  (13) 
Heuristics

$$$$

     RDKit          3D

 13 11  0  0  0  0  0  0  0  0999 V2000
    0.7309    1.5556    0.1792 O   0  0  0  0  0  0  0  0  0  0  0  0
   -0.6000    1.9137    0.0058 C   0  0  0  0  0  0  0  0  0  0  0  0
   -1.4451    0.7673   -0.4711 C   0  0  0  0  0  0  0  0  0  0  0  0
   -0.9853   -0.3247   -0.6697 O   0  0  0  0  0  0  0  0  0  0  0  0
   -0.7034    2.7276   -0.7264 H   0  0  0  0  0  0  0  0  0  0  0  0
   -1.0410    2.2818    0.9435 H   0  0  0  0  0  0  0  0  0  0  0  0
   -2.5184    0.9814   -0.6309 H   0  0  0  0  0  0  0  0  0  0  0  0
    0.7309   -0.5726    1.2103 N   0  0  0  0  0  0  0  0  0  0  0  0
    0.7309   -1.6832    0.4364 C   0  0  0  0  0  0  0  0  0  0  0  0
    0.7309   -1.6832   -0.7688 O   0  0  0  0  0  1  0  0  0  0  0  0
    0.7309    0.5129    0.6844 H   0  0  0  0  0  0  0  0  0  0  0  0
    0.7309   -0.6349    2.2106 H   0  0  0  0  0  0  0  0  0  0  0  0
    0.7309   -2.6139    1.0325 H   0  0  0  0  0  0  0  0  0  0  0  0
  1  2  1  0
  1 11  1  0
  2  3  1  0
  2  5  1  0
  2  6  1  0
  3  4  2  0
  3  7  1  0
  8  9  2  3
  8 12  1  0
  9 10  1  0
  9 13  1  0
M  RAD  1  10   2
M  END
>  <reaction>  (14) 
kfir_rxn_1315

>  <mol_properties>  (14) 
{"0": {"label": "*1", "atom_type": "O2s"}, "1": {"label": "*0", "atom_type": "Cs"}, "7": {"label": "*3", "atom_type": "N3d"}, "8": {"label": "*4", "atom_type": "Cd"}, "10": {"label": "*2", "atom_type": "H0"}}

>  <type>  (14) 
unop_10

>  <geom_source>  (14) 
gaussian_log

$$$$
