
     RDKit          3D

  7  6  0  0  0  0  0  0  0  0999 V2000
    1.3572   -0.1671    1.3611 O   0  0  0  0  0  0  0  0  0  0  0  0
    0.9236    0.0526    0.2798 C   0  0  0  0  0  0  0  0  0  0  0  0
   -0.5771   -0.0341   -0.0851 C   0  0  0  0  0  0  0  0  0  0  0  0
   -1.0319    1.5740   -0.6898 Cl  0  0  0  0  0  0  0  0  0  0  0  0
   -1.5652   -0.4943    1.2822 Cl  0  0  0  0  0  0  0  0  0  0  0  0
   -0.6988   -1.2311   -1.3932 Cl  0  0  0  0  0  0  0  0  0  0  0  0
    1.5409    0.3436   -0.5884 H   0  0  0  0  0  0  0  0  0  0  0  0
  1  2  2  0
  2  3  1  0
  2  7  1  0
  3  4  1  0
  3  5  1  0
  3  6  1  0
M  END
>  <reaction>  (1) 
kfir_rxn_13503

>  <mol_properties>  (1) 
{"1": {"label": "donator", "atom_type": "CO"}, "6": {"label": "d_hydrogen", "atom_type": "H0"}}

>  <type>  (1) 
r1h

$$$$

     RDKit          3D

  7  7  0  0  0  0  0  0  0  0999 V2000
   -0.6974   -0.5128    0.1087 C   0  0  0  0  0  0  0  0  0  0  0  0
   -0.2270    0.7561    0.0879 C   0  0  0  0  0  0  0  0  0  0  0  0
    1.1544    0.8516    0.0891 N   0  0  0  0  0  0  0  0  0  0  0  0
    1.6899   -0.2788    0.1096 C   0  0  0  0  0  3  0  0  0  0  0  0
    0.6275   -1.6248    0.1306 S   0  0  0  0  0  0  0  0  0  0  0  0
   -1.7227   -0.8458    0.1123 H   0  0  0  0  0  0  0  0  0  0  0  0
   -0.8247    1.6546    0.0713 H   0  0  0  0  0  0  0  0  0  0  0  0
  1  2  2  0
  1  5  1  0
  1  6  1  0
  2  3  1  0
  2  7  1  0
  3  4  2  0
  4  5  1  0
M  RAD  1   4   2
M  END
>  <reaction>  (2) 
kfir_rxn_13503

>  <mol_properties>  (2) 
{"0": {"label": "acceptor", "atom_type": "Cs"}}

>  <type>  (2) 
r2

$$$$

     RDKit          3D

  8  8  0  0  0  0  0  0  0  0999 V2000
   -0.7388   -0.3611    0.0063 C   0  0  0  0  0  0  0  0  0  0  0  0
    0.1080    0.8604    0.0055 C   0  0  0  0  0  0  0  0  0  0  0  0
    1.3808    0.7339   -0.0114 N   0  0  0  0  0  0  0  0  0  0  0  0
    1.8376   -0.6121   -0.0278 C   0  0  0  0  0  0  0  0  0  0  0  0
    0.5116   -1.6580   -0.0196 S   0  0  0  0  0  4  0  0  0  0  0  0
   -1.3671   -0.4136    0.8986 H   0  0  0  0  0  0  0  0  0  0  0  0
   -1.3892   -0.3996   -0.8707 H   0  0  0  0  0  0  0  0  0  0  0  0
   -0.3429    1.8502    0.0190 H   0  0  0  0  0  0  0  0  0  0  0  0
  1  2  1  0
  1  5  1  0
  1  6  1  0
  1  7  1  0
  2  3  2  0
  2  8  1  0
  3  4  1  0
  4  5  3  0
M  END
>  <reaction>  (3) 
kfir_rxn_13503

>  <mol_properties>  (3) 
{"0": {"label": "acceptor", "atom_type": "Cs"}, "7": {"label": "a_hydrogen", "atom_type": "H0"}}

>  <type>  (3) 
r2h

$$$$

     RDKit          3D

 14 13  0  0  0  0  0  0  0  0999 V2000
   -0.4644   -2.4260   -0.0777 C   0  0  0  0  0  0  0  0  0  0  0  0
    0.9884   -2.5176   -0.0989 C   0  0  0  0  0  0  0  0  0  0  0  0
    1.5999   -2.6515    1.0366 N   0  0  0  0  0  0  0  0  0  0  0  0
    0.7509   -2.8981    2.0944 C   0  0  0  0  0  0  0  0  0  0  0  0
   -0.8852   -2.7181    1.6107 S   0  0  0  0  0  4  0  0  0  0  0  0
   -1.0392   -2.9728   -0.8224 H   0  0  0  0  0  0  0  0  0  0  0  0
    1.5548   -2.4006   -1.0177 H   0  0  0  0  0  0  0  0  0  0  0  0
   -2.3327    0.3106   -1.0822 O   0  0  0  0  0  0  0  0  0  0  0  0
   -1.2116    0.1280   -0.8094 C   0  0  0  0  0  3  0  0  0  0  0  0
   -0.0708    1.1741   -0.7418 C   0  0  0  0  0  0  0  0  0  0  0  0
    0.6302    1.0346    0.8721 Cl  0  0  0  0  0  0  0  0  0  0  0  0
   -0.6441    2.8087   -1.0467 Cl  0  0  0  0  0  0  0  0  0  0  0  0
    1.0947    0.6755   -1.9833 Cl  0  0  0  0  0  0  0  0  0  0  0  0
   -0.7273   -1.2210   -0.4094 H   0  0  0  0  0  0  0  0  0  0  0  0
  1  2  1  0
  1  5  1  0
  1  6  1  0
  1 14  1  0
  2  3  2  0
  2  7  1  0
  3  4  1  0
  4  5  3  0
  8  9  2  0
  9 10  1  0
 10 11  1  0
 10 12  1  0
 10 13  1  0
M  RAD  1   9   2
M  END
>  <reaction>  (4) 
kfir_rxn_13503

>  <mol_properties>  (4) 
{"0": {"label": "*1", "atom_type": "Cs"}, "4": {"label": "*0", "atom_type": "S4t"}, "7": {"label": "*4", "atom_type": "O2d"}, "8": {"label": "*3", "atom_type": "CO"}, "13": {"label": "*2", "atom_type": "H0"}}

>  <type>  (4) 
ts

$$$$

     RDKit          3D

 14 13  0  0  0  0  0  0  0  0999 V2000
    0.0011   -2.4833    0.0079 C   0  0  0  0  0  0  0  0  0  0  0  0
    1.1981   -2.5474    0.8866 C   0  0  0  0  0  0  0  0  0  0  0  0
    1.2133   -1.8625    1.9668 N   0  0  0  0  0  0  0  0  0  0  0  0
    0.0363   -1.0988    2.1951 C   0  0  0  0  0  0  0  0  0  0  0  0
   -1.0502   -1.3435    0.9254 S   0  0  0  0  0  4  0  0  0  0  0  0
   -0.4629   -3.4653   -0.1110 H   0  0  0  0  0  0  0  0  0  0  0  0
    2.0519   -3.1664    0.6197 H   0  0  0  0  0  0  0  0  0  0  0  0
    0.0011   -0.3018   -2.6576 O   0  0  0  0  0  0  0  0  0  0  0  0
    0.0011   -0.3018   -1.4721 C   0  0  0  0  0  3  0  0  0  0  0  0
    0.0011    0.9801   -0.6065 C   0  0  0  0  0  0  0  0  0  0  0  0
   -1.4545    0.8900    0.4094 Cl  0  0  0  0  0  0  0  0  0  0  0  0
    0.0011    2.4344   -1.5774 Cl  0  0  0  0  0  0  0  0  0  0  0  0
    1.4567    0.8900    0.4094 Cl  0  0  0  0  0  0  0  0  0  0  0  0
    0.0011   -1.3984   -0.7281 H   0  0  0  0  0  0  0  0  0  0  0  0
  1  2  1  0
  1  5  1  0
  1  6  1  0
  1 14  1  0
  2  3  2  0
  2  7  1  0
  3  4  1  0
  4  5  3  0
  8  9  2  0
  9 10  1  0
 10 11  1  0
 10 12  1  0
 10 13  1  0
M  RAD  1   9   2
M  END
>  <reaction>  (5) 
kfir_rxn_13503

>  <mol_properties>  (5) 
{"0": {"label": "*1", "atom_type": "Cs"}, "4": {"label": "*0", "atom_type": "S4t"}, "7": {"label": "*4", "atom_type": "O2d"}, "8": {"label": "*3", "atom_type": "CO"}, "13": {"label": "*2", "atom_type": "H0"}}

>  <type>  (5) 
unop_1

>  <geom_source>  (5) 
Heuristics

$$$$

     RDKit          3D

 14 13  0  0  0  0  0  0  0  0999 V2000
   -0.4512   -2.1163    0.2813 C   0  0  0  0  0  0  0  0  0  0  0  0
    0.2399   -3.2405   -0.4026 C   0  0  0  0  0  0  0  0  0  0  0  0
    1.4372   -3.5338   -0.0608 N   0  0  0  0  0  0  0  0  0  0  0  0
    1.9719   -2.7134    0.9697 C   0  0  0  0  0  0  0  0  0  0  0  0
    0.8197   -1.5699    1.4356 S   0  0  0  0  0  4  0  0  0  0  0  0
   -1.3551   -2.4531    0.7942 H   0  0  0  0  0  0  0  0  0  0  0  0
   -0.2605   -3.8091   -1.1833 H   0  0  0  0  0  0  0  0  0  0  0  0
   -0.4512    0.0652   -2.3843 O   0  0  0  0  0  0  0  0  0  0  0  0
   -0.4512    0.0652   -1.1988 C   0  0  0  0  0  3  0  0  0  0  0  0
   -0.4512    1.3472   -0.3332 C   0  0  0  0  0  0  0  0  0  0  0  0
   -1.9068    1.2570    0.6827 Cl  0  0  0  0  0  0  0  0  0  0  0  0
   -0.4512    2.8014   -1.3041 Cl  0  0  0  0  0  0  0  0  0  0  0  0
    1.0044    1.2571    0.6827 Cl  0  0  0  0  0  0  0  0  0  0  0  0
   -0.4512   -1.0314   -0.4548 H   0  0  0  0  0  0  0  0  0  0  0  0
  1  2  1  0
  1  5  1  0
  1  6  1  0
  1 14  1  0
  2  3  2  0
  2  7  1  0
  3  4  1  0
  4  5  3  0
  8  9  2  0
  9 10  1  0
 10 11  1  0
 10 12  1  0
 10 13  1  0
M  RAD  1   9   2
M  END
>  <reaction>  (6) 
kfir_rxn_13503

>  <mol_properties>  (6) 
{"0": {"label": "*1", "atom_type": "Cs"}, "4": {"label": "*0", "atom_type": "S4t"}, "7": {"label": "*4", "atom_type": "O2d"}, "8": {"label": "*3", "atom_type": "CO"}, "13": {"label": "*2", "atom_type": "H0"}}

>  <type>  (6) 
unop_2

>  <geom_source>  (6) 
Heuristics

$$$$

     RDKit          3D

 14 13  0  0  0  0  0  0  0  0999 V2000
    0.2629   -2.3722    0.0385 C   0  0  0  0  0  0  0  0  0  0  0  0
    0.9540   -2.1522    1.3359 C   0  0  0  0  0  0  0  0  0  0  0  0
    0.2731   -1.7542    2.3429 N   0  0  0  0  0  0  0  0  0  0  0  0
   -1.1112   -1.5667    2.0794 C   0  0  0  0  0  0  0  0  0  0  0  0
   -1.4338   -1.9409    0.4644 S   0  0  0  0  0  4  0  0  0  0  0  0
    0.3524   -3.4092   -0.2935 H   0  0  0  0  0  0  0  0  0  0  0  0
    2.0234   -2.3257    1.4332 H   0  0  0  0  0  0  0  0  0  0  0  0
    0.2629   -0.1907   -2.6270 O   0  0  0  0  0  0  0  0  0  0  0  0
    0.2629   -0.1907   -1.4415 C   0  0  0  0  0  3  0  0  0  0  0  0
    0.2629    1.0913   -0.5759 C   0  0  0  0  0  0  0  0  0  0  0  0
   -1.1927    1.0011    0.4400 Cl  0  0  0  0  0  0  0  0  0  0  0  0
    0.2629    2.5455   -1.5468 Cl  0  0  0  0  0  0  0  0  0  0  0  0
    1.7185    1.0011    0.4400 Cl  0  0  0  0  0  0  0  0  0  0  0  0
    0.2629   -1.2873   -0.6975 H   0  0  0  0  0  0  0  0  0  0  0  0
  1  2  1  0
  1  5  1  0
  1  6  1  0
  1 14  1  0
  2  3  2  0
  2  7  1  0
  3  4  1  0
  4  5  3  0
  8  9  2  0
  9 10  1  0
 10 11  1  0
 10 12  1  0
 10 13  1  0
M  RAD  1   9   2
M  END
>  <reaction>  (7) 
kfir_rxn_13503

>  <mol_properties>  (7) 
{"0": {"label": "*1", "atom_type": "Cs"}, "4": {"label": "*0", "atom_type": "S4t"}, "7": {"label": "*4", "atom_type": "O2d"}, "8": {"label": "*3", "atom_type": "CO"}, "13": {"label": "*2", "atom_type": "H0"}}

>  <type>  (7) 
unop_3

>  <geom_source>  (7) 
Heuristics

$$$$

     RDKit          3D

 14 13  0  0  0  0  0  0  0  0999 V2000
   -0.0351   -1.7477    0.3503 C   0  0  0  0  0  0  0  0  0  0  0  0
   -1.2322   -2.5878    0.0851 C   0  0  0  0  0  0  0  0  0  0  0  0
   -1.1509   -3.8540    0.2477 N   0  0  0  0  0  0  0  0  0  0  0  0
    0.1246   -4.3106    0.6780 C   0  0  0  0  0  0  0  0  0  0  0  0
    1.1685   -2.9936    0.8453 S   0  0  0  0  0  4  0  0  0  0  0  0
   -0.2230   -1.0197    1.1430 H   0  0  0  0  0  0  0  0  0  0  0  0
   -2.1666   -2.1376   -0.2427 H   0  0  0  0  0  0  0  0  0  0  0  0
   -0.0351    0.4338   -2.3153 O   0  0  0  0  0  0  0  0  0  0  0  0
   -0.0351    0.4338   -1.1298 C   0  0  0  0  0  3  0  0  0  0  0  0
   -0.0351    1.7158   -0.2642 C   0  0  0  0  0  0  0  0  0  0  0  0
   -1.4907    1.6257    0.7517 Cl  0  0  0  0  0  0  0  0  0  0  0  0
   -0.0351    3.1701   -1.2351 Cl  0  0  0  0  0  0  0  0  0  0  0  0
    1.4205    1.6257    0.7517 Cl  0  0  0  0  0  0  0  0  0  0  0  0
   -0.0351   -0.6628   -0.3858 H   0  0  0  0  0  0  0  0  0  0  0  0
  1  2  1  0
  1  5  1  0
  1  6  1  0
  1 14  1  0
  2  3  2  0
  2  7  1  0
  3  4  1  0
  4  5  3  0
  8  9  2  0
  9 10  1  0
 10 11  1  0
 10 12  1  0
 10 13  1  0
M  RAD  1   9   2
M  END
>  <reaction>  (8) 
kfir_rxn_13503

>  <mol_properties>  (8) 
{"0": {"label": "*1", "atom_type": "Cs"}, "4": {"label": "*0", "atom_type": "S4t"}, "7": {"label": "*4", "atom_type": "O2d"}, "8": {"label": "*3", "atom_type": "CO"}, "13": {"label": "*2", "atom_type": "H0"}}

>  <type>  (8) 
unop_4

>  <geom_source>  (8) 
Heuristics

$$$$

     RDKit          3D

 14 13  0  0  0  0  0  0  0  0999 V2000
    0.3686   -2.0680    0.1464 C   0  0  0  0  0  0  0  0  0  0  0  0
    0.3686   -1.7441    1.5970 C   0  0  0  0  0  0  0  0  0  0  0  0
   -0.6050   -2.1452    2.3231 N   0  0  0  0  0  0  0  0  0  0  0  0
   -1.5998   -2.8778    1.6199 C   0  0  0  0  0  0  0  0  0  0  0  0
   -1.1698   -2.9928   -0.0092 S   0  0  0  0  0  4  0  0  0  0  0  0
    1.2386   -2.6677   -0.1312 H   0  0  0  0  0  0  0  0  0  0  0  0
    1.1824   -1.1743    2.0400 H   0  0  0  0  0  0  0  0  0  0  0  0
    0.3686    0.1135   -2.5192 O   0  0  0  0  0  0  0  0  0  0  0  0
    0.3686    0.1135   -1.3337 C   0  0  0  0  0  3  0  0  0  0  0  0
    0.3686    1.3955   -0.4681 C   0  0  0  0  0  0  0  0  0  0  0  0
   -1.0870    1.3053    0.5478 Cl  0  0  0  0  0  0  0  0  0  0  0  0
    0.3686    2.8497   -1.4390 Cl  0  0  0  0  0  0  0  0  0  0  0  0
    1.8242    1.3053    0.5478 Cl  0  0  0  0  0  0  0  0  0  0  0  0
    0.3686   -0.9831   -0.5897 H   0  0  0  0  0  0  0  0  0  0  0  0
  1  2  1  0
  1  5  1  0
  1  6  1  0
  1 14  1  0
  2  3  2  0
  2  7  1  0
  3  4  1  0
  4  5  3  0
  8  9  2  0
  9 10  1  0
 10 11  1  0
 10 12  1  0
 10 13  1  0
M  RAD  1   9   2
M  END
>  <reaction>  (9) 
kfir_rxn_13503

>  <mol_properties>  (9) 
{"0": {"label": "*1", "atom_type": "Cs"}, "4": {"label": "*0", "atom_type": "S4t"}, "7": {"label": "*4", "atom_type": "O2d"}, "8": {"label": "*3", "atom_type": "CO"}, "13": {"label": "*2", "atom_type": "H0"}}

>  <type>  (9) 
unop_5

>  <geom_source>  (9) 
Heuristics

$$$$

     RDKit          3D

 14 13  0  0  0  0  0  0  0  0999 V2000
    0.0674   -1.7648    0.2860 C   0  0  0  0  0  0  0  0  0  0  0  0
   -1.3149   -2.2169    0.5928 C   0  0  0  0  0  0  0  0  0  0  0  0
   -1.5094   -3.4351    0.9308 N   0  0  0  0  0  0  0  0  0  0  0  0
   -0.3311   -4.2293    0.9707 C   0  0  0  0  0  0  0  0  0  0  0  0
    1.0016   -3.2834    0.5447 S   0  0  0  0  0  4  0  0  0  0  0  0
    0.3872   -0.9657    0.9589 H   0  0  0  0  0  0  0  0  0  0  0  0
   -2.1528   -1.5259    0.5322 H   0  0  0  0  0  0  0  0  0  0  0  0
    0.0674    0.4168   -2.3796 O   0  0  0  0  0  0  0  0  0  0  0  0
    0.0674    0.4168   -1.1941 C   0  0  0  0  0  3  0  0  0  0  0  0
    0.0674    1.6987   -0.3284 C   0  0  0  0  0  0  0  0  0  0  0  0
   -1.3882    1.6086    0.6874 Cl  0  0  0  0  0  0  0  0  0  0  0  0
    0.0674    3.1530   -1.2994 Cl  0  0  0  0  0  0  0  0  0  0  0  0
    1.5230    1.6086    0.6874 Cl  0  0  0  0  0  0  0  0  0  0  0  0
    0.0674   -0.6798   -0.4501 H   0  0  0  0  0  0  0  0  0  0  0  0
  1  2  1  0
  1  5  1  0
  1  6  1  0
  1 14  1  0
  2  3  2  0
  2  7  1  0
  3  4  1  0
  4  5  3  0
  8  9  2  0
  9 10  1  0
 10 11  1  0
 10 12  1  0
 10 13  1  0
M  RAD  1   9   2
M  END
>  <reaction>  (10) 
kfir_rxn_13503

>  <mol_properties>  (10) 
{"0": {"label": "*1", "atom_type": "Cs"}, "4": {"label": "*0", "atom_type": "S4t"}, "7": {"label": "*4", "atom_type": "O2d"}, "8": {"label": "*3", "atom_type": "CO"}, "13": {"label": "*2", "atom_type": "H0"}}

>  <type>  (10) 
unop_6

>  <geom_source>  (10) 
Heuristics

$$$$

     RDKit          3D

 14 13  0  0  0  0  0  0  0  0999 V2000
    0.1311   -1.7956    0.2382 C   0  0  0  0  0  0  0  0  0  0  0  0
   -1.0660   -1.8597    1.1169 C   0  0  0  0  0  0  0  0  0  0  0  0
   -1.4303   -2.9914    1.5889 N   0  0  0  0  0  0  0  0  0  0  0  0
   -0.6100   -4.0837    1.1958 C   0  0  0  0  0  0  0  0  0  0  0  0
    0.6307   -3.5261    0.1947 S   0  0  0  0  0  4  0  0  0  0  0  0
    0.9070   -1.1542    0.6627 H   0  0  0  0  0  0  0  0  0  0  0  0
   -1.6279   -0.9602    1.3583 H   0  0  0  0  0  0  0  0  0  0  0  0
    0.1311    0.3859   -2.4274 O   0  0  0  0  0  0  0  0  0  0  0  0
    0.1311    0.3859   -1.2419 C   0  0  0  0  0  3  0  0  0  0  0  0
    0.1311    1.6679   -0.3763 C   0  0  0  0  0  0  0  0  0  0  0  0
   -1.3245    1.5777    0.6396 Cl  0  0  0  0  0  0  0  0  0  0  0  0
    0.1311    3.1221   -1.3472 Cl  0  0  0  0  0  0  0  0  0  0  0  0
    1.5867    1.5778    0.6396 Cl  0  0  0  0  0  0  0  0  0  0  0  0
    0.1311   -0.7107   -0.4979 H   0  0  0  0  0  0  0  0  0  0  0  0
  1  2  1  0
  1  5  1  0
  1  6  1  0
  1 14  1  0
  2  3  2  0
  2  7  1  0
  3  4  1  0
  4  5  3  0
  8  9  2  0
  9 10  1  0
 10 11  1  0
 10 12  1  0
 10 13  1  0
M  RAD  1   9   2
M  END
>  <reaction>  (11) 
kfir_rxn_13503

>  <mol_properties>  (11) 
{"0": {"label": "*1", "atom_type": "Cs"}, "4": {"label": "*0", "atom_type": "S4t"}, "7": {"label": "*4", "atom_type": "O2d"}, "8": {"label": "*3", "atom_type": "CO"}, "13": {"label": "*2", "atom_type": "H0"}}

>  <type>  (11) 
unop_7

>  <geom_source>  (11) 
Heuristics

$$$$

     RDKit          3D

 14 13  0  0  0  0  0  0  0  0999 V2000
   -0.2393   -2.4446    0.0584 C   0  0  0  0  0  0  0  0  0  0  0  0
    1.1430   -2.8967    0.3652 C   0  0  0  0  0  0  0  0  0  0  0  0
    1.7915   -2.3193    1.3044 N   0  0  0  0  0  0  0  0  0  0  0  0
    1.0770   -1.2788    1.9585 C   0  0  0  0  0  0  0  0  0  0  0  0
   -0.4562   -1.1261    1.2669 S   0  0  0  0  0  4  0  0  0  0  0  0
   -0.9647   -3.2501    0.1942 H   0  0  0  0  0  0  0  0  0  0  0  0
    1.6015   -3.7066   -0.1979 H   0  0  0  0  0  0  0  0  0  0  0  0
   -0.2393   -0.2631   -2.6071 O   0  0  0  0  0  0  0  0  0  0  0  0
   -0.2393   -0.2631   -1.4217 C   0  0  0  0  0  3  0  0  0  0  0  0
   -0.2393    1.0189   -0.5560 C   0  0  0  0  0  0  0  0  0  0  0  0
   -1.6948    0.9288    0.4598 Cl  0  0  0  0  0  0  0  0  0  0  0  0
   -0.2393    2.4732   -1.5270 Cl  0  0  0  0  0  0  0  0  0  0  0  0
    1.2163    0.9288    0.4598 Cl  0  0  0  0  0  0  0  0  0  0  0  0
   -0.2393   -1.3597   -0.6777 H   0  0  0  0  0  0  0  0  0  0  0  0
  1  2  1  0
  1  5  1  0
  1  6  1  0
  1 14  1  0
  2  3  2  0
  2  7  1  0
  3  4  1  0
  4  5  3  0
  8  9  2  0
  9 10  1  0
 10 11  1  0
 10 12  1  0
 10 13  1  0
M  RAD  1   9   2
M  END
>  <reaction>  (12) 
kfir_rxn_13503

>  <mol_properties>  (12) 
{"0": {"label": "*1", "atom_type": "Cs"}, "4": {"label": "*0", "atom_type": "S4t"}, "7": {"label": "*4", "atom_type": "O2d"}, "8": {"label": "*3", "atom_type": "CO"}, "13": {"label": "*2", "atom_type": "H0"}}

>  <type>  (12) 
unop_8

>  <geom_source>  (12) 
Heuristics

$$$$

     RDKit          3D

 14 13  0  0  0  0  0  0  0  0999 V2000
   -0.1979   -1.7848    0.3922 C   0  0  0  0  0  0  0  0  0  0  0  0
   -0.8890   -2.9090   -0.2916 C   0  0  0  0  0  0  0  0  0  0  0  0
   -0.3718   -4.0779   -0.2429 N   0  0  0  0  0  0  0  0  0  0  0  0
    0.8451   -4.1522    0.4880 C   0  0  0  0  0  0  0  0  0  0  0  0
    1.2401   -2.6219    1.0834 S   0  0  0  0  0  4  0  0  0  0  0  0
   -0.8259   -1.3391    1.1672 H   0  0  0  0  0  0  0  0  0  0  0  0
   -1.8216   -2.7457   -0.8272 H   0  0  0  0  0  0  0  0  0  0  0  0
   -0.1979    0.3967   -2.2733 O   0  0  0  0  0  0  0  0  0  0  0  0
   -0.1979    0.3967   -1.0878 C   0  0  0  0  0  3  0  0  0  0  0  0
   -0.1979    1.6787   -0.2222 C   0  0  0  0  0  0  0  0  0  0  0  0
   -1.6534    1.5885    0.7937 Cl  0  0  0  0  0  0  0  0  0  0  0  0
   -0.1979    3.1329   -1.1931 Cl  0  0  0  0  0  0  0  0  0  0  0  0
    1.2577    1.5886    0.7937 Cl  0  0  0  0  0  0  0  0  0  0  0  0
   -0.1979   -0.6999   -0.3438 H   0  0  0  0  0  0  0  0  0  0  0  0
  1  2  1  0
  1  5  1  0
  1  6  1  0
  1 14  1  0
  2  3  2  0
  2  7  1  0
  3  4  1  0
  4  5  3  0
  8  9  2  0
  9 10  1  0
 10 11  1  0
 10 12  1  0
 10 13  1  0
M  RAD  1   9   2
M  END
>  <reaction>  (13) 
kfir_rxn_13503

>  <mol_properties>  (13) 
{"0": {"label": "*1", "atom_type": "Cs"}, "4": {"label": "*0", "atom_type": "S4t"}, "7": {"label": "*4", "atom_type": "O2d"}, "8": {"label": "*3", "atom_type": "CO"}, "13": {"label": "*2", "atom_type": "H0"}}

>  <type>  (13) 
unop_9

>  <geom_source>  (13) 
Heuristics

$$$$

     RDKit          3D

 14 13  0  0  0  0  0  0  0  0999 V2000
   -0.4018   -2.3107    0.1618 C   0  0  0  0  0  0  0  0  0  0  0  0
    0.7952   -3.1509   -0.1034 C   0  0  0  0  0  0  0  0  0  0  0  0
    1.8681   -2.9298    0.5571 N   0  0  0  0  0  0  0  0  0  0  0  0
    1.7717   -1.8669    1.4961 C   0  0  0  0  0  0  0  0  0  0  0  0
    0.2181   -1.2067    1.4436 S   0  0  0  0  0  4  0  0  0  0  0  0
   -1.2453   -2.9118    0.5096 H   0  0  0  0  0  0  0  0  0  0  0  0
    0.7649   -3.9438   -0.8474 H   0  0  0  0  0  0  0  0  0  0  0  0
   -0.4018   -0.1292   -2.5038 O   0  0  0  0  0  0  0  0  0  0  0  0
   -0.4018   -0.1292   -1.3183 C   0  0  0  0  0  3  0  0  0  0  0  0
   -0.4018    1.1527   -0.4527 C   0  0  0  0  0  0  0  0  0  0  0  0
   -1.8574    1.0626    0.5632 Cl  0  0  0  0  0  0  0  0  0  0  0  0
   -0.4018    2.6070   -1.4236 Cl  0  0  0  0  0  0  0  0  0  0  0  0
    1.0538    1.0626    0.5632 Cl  0  0  0  0  0  0  0  0  0  0  0  0
   -0.4018   -1.2258   -0.5743 H   0  0  0  0  0  0  0  0  0  0  0  0
  1  2  1  0
  1  5  1  0
  1  6  1  0
  1 14  1  0
  2  3  2  0
  2  7  1  0
  3  4  1  0
  4  5  3  0
  8  9  2  0
  9 10  1  0
 10 11  1  0
 10 12  1  0
 10 13  1  0
M  RAD  1   9   2
M  END
>  <reaction>  (14) 
kfir_rxn_13503

>  <mol_properties>  (14) 
{"0": {"label": "*1", "atom_type": "Cs"}, "4": {"label": "*0", "atom_type": "S4t"}, "7": {"label": "*4", "atom_type": "O2d"}, "8": {"label": "*3", "atom_type": "CO"}, "13": {"label": "*2", "atom_type": "H0"}}

>  <type>  (14) 
unop_10

>  <geom_source>  (14) 
Heuristics

$$$$

     RDKit          3D

 14 13  0  0  0  0  0  0  0  0999 V2000
    0.2296   -1.8520    0.2127 C   0  0  0  0  0  0  0  0  0  0  0  0
   -0.4615   -1.6320    1.5101 C   0  0  0  0  0  0  0  0  0  0  0  0
   -1.0814   -2.6081    2.0571 N   0  0  0  0  0  0  0  0  0  0  0  0
   -1.0263   -3.8245    1.3235 C   0  0  0  0  0  0  0  0  0  0  0  0
   -0.1291   -3.5918   -0.0883 S   0  0  0  0  0  4  0  0  0  0  0  0
    1.3024   -1.6611    0.2918 H   0  0  0  0  0  0  0  0  0  0  0  0
   -0.4436   -0.6570    1.9919 H   0  0  0  0  0  0  0  0  0  0  0  0
    0.2296    0.3295   -2.4528 O   0  0  0  0  0  0  0  0  0  0  0  0
    0.2296    0.3295   -1.2674 C   0  0  0  0  0  3  0  0  0  0  0  0
    0.2296    1.6115   -0.4017 C   0  0  0  0  0  0  0  0  0  0  0  0
   -1.2260    1.5214    0.6142 Cl  0  0  0  0  0  0  0  0  0  0  0  0
    0.2296    3.0657   -1.3727 Cl  0  0  0  0  0  0  0  0  0  0  0  0
    1.6852    1.5214    0.6141 Cl  0  0  0  0  0  0  0  0  0  0  0  0
    0.2296   -0.7671   -0.5234 H   0  0  0  0  0  0  0  0  0  0  0  0
  1  2  1  0
  1  5  1  0
  1  6  1  0
  1 14  1  0
  2  3  2  0
  2  7  1  0
  3  4  1  0
  4  5  3  0
  8  9  2  0
  9 10  1  0
 10 11  1  0
 10 12  1  0
 10 13  1  0
M  RAD  1   9   2
M  END
>  <reaction>  (15) 
kfir_rxn_13503

>  <mol_properties>  (15) 
{"0": {"label": "*1", "atom_type": "Cs"}, "4": {"label": "*0", "atom_type": "S4t"}, "7": {"label": "*4", "atom_type": "O2d"}, "8": {"label": "*3", "atom_type": "CO"}, "13": {"label": "*2", "atom_type": "H0"}}

>  <type>  (15) 
unop_11

>  <geom_source>  (15) 
Heuristics

$$$$

     RDKit          3D

 14 13  0  0  0  0  0  0  0  0999 V2000
   -0.3686   -1.9157    0.3708 C   0  0  0  0  0  0  0  0  0  0  0  0
   -0.3686   -3.1439   -0.4663 C   0  0  0  0  0  0  0  0  0  0  0  0
    0.6050   -3.9669   -0.3619 N   0  0  0  0  0  0  0  0  0  0  0  0
    1.5998   -3.5842    0.5787 C   0  0  0  0  0  0  0  0  0  0  0  0
    1.1698   -2.1129    1.2876 S   0  0  0  0  0  4  0  0  0  0  0  0
   -1.2386   -1.8794    1.0306 H   0  0  0  0  0  0  0  0  0  0  0  0
   -1.1824   -3.3450   -1.1595 H   0  0  0  0  0  0  0  0  0  0  0  0
   -0.3686    0.2658   -2.2947 O   0  0  0  0  0  0  0  0  0  0  0  0
   -0.3686    0.2658   -1.1093 C   0  0  0  0  0  3  0  0  0  0  0  0
   -0.3686    1.5477   -0.2436 C   0  0  0  0  0  0  0  0  0  0  0  0
   -1.8242    1.4576    0.7723 Cl  0  0  0  0  0  0  0  0  0  0  0  0
   -0.3686    3.0020   -1.2146 Cl  0  0  0  0  0  0  0  0  0  0  0  0
    1.0870    1.4576    0.7722 Cl  0  0  0  0  0  0  0  0  0  0  0  0
   -0.3686   -0.8308   -0.3653 H   0  0  0  0  0  0  0  0  0  0  0  0
  1  2  1  0
  1  5  1  0
  1  6  1  0
  1 14  1  0
  2  3  2  0
  2  7  1  0
  3  4  1  0
  4  5  3  0
  8  9  2  0
  9 10  1  0
 10 11  1  0
 10 12  1  0
 10 13  1  0
M  RAD  1   9   2
M  END
>  <reaction>  (16) 
kfir_rxn_13503

>  <mol_properties>  (16) 
{"0": {"label": "*1", "atom_type": "Cs"}, "4": {"label": "*0", "atom_type": "S4t"}, "7": {"label": "*4", "atom_type": "O2d"}, "8": {"label": "*3", "atom_type": "CO"}, "13": {"label": "*2", "atom_type": "H0"}}

>  <type>  (16) 
unop_12

>  <geom_source>  (16) 
Heuristics

$$$$
