
     RDKit          3D

  7  6  0  0  0  0  0  0  0  0999 V2000
    1.6899   -0.1839   -0.0115 C   0  0  0  0  0  0  0  0  0  0  0  0
    0.5000   -0.0544   -0.0034 C   0  0  0  0  0  0  0  0  0  0  0  0
   -0.9469    0.1030    0.0064 C   0  0  0  0  0  0  0  0  0  0  0  0
    2.7470   -0.2989   -0.0186 H   0  0  0  0  0  0  0  0  0  0  0  0
   -1.4140   -0.5835   -0.7010 H   0  0  0  0  0  0  0  0  0  0  0  0
   -1.2257    1.1206   -0.2707 H   0  0  0  0  0  0  0  0  0  0  0  0
   -1.3502   -0.1030    0.9988 H   0  0  0  0  0  0  0  0  0  0  0  0
  1  2  3  0
  1  4  1  0
  2  3  1  0
  3  5  1  0
  3  6  1  0
  3  7  1  0
M  END
>  <reaction>  (1) 
kfir_rxn_10391

>  <mol_properties>  (1) 
{"2": {"label": "donator", "atom_type": "Cs"}, "4": {"label": "d_hydrogen", "atom_type": "H0"}}

>  <type>  (1) 
r1h

$$$$

     RDKit          3D

  7  7  0  0  0  0  0  0  0  0999 V2000
    2.2415   -0.3638    0.0188 O   0  0  0  0  0  1  0  0  0  0  0  0
    1.0665   -0.1070    0.0046 C   0  0  0  0  0  0  0  0  0  0  0  0
    0.5711    1.2135   -0.0799 N   0  0  0  0  0  0  0  0  0  0  0  0
   -0.7552    1.0761   -0.0681 O   0  0  0  0  0  0  0  0  0  0  0  0
   -1.0291   -0.2708    0.0198 C   0  0  0  0  0  0  0  0  0  0  0  0
   -0.0170   -1.0196    0.0661 N   0  0  0  0  0  0  0  0  0  0  0  0
   -2.0778   -0.5284    0.0387 H   0  0  0  0  0  0  0  0  0  0  0  0
  1  2  1  0
  2  6  1  0
  2  3  2  0
  3  4  1  0
  4  5  1  0
  5  6  2  0
  5  7  1  0
M  RAD  1   1   2
M  END
>  <reaction>  (2) 
kfir_rxn_10391

>  <mol_properties>  (2) 
{"0": {"label": "acceptor", "atom_type": "O2s"}}

>  <type>  (2) 
r2

$$$$

     RDKit          3D

  8  8  0  0  0  0  0  0  0  0999 V2000
    1.9174   -0.4552    0.1616 O   0  0  0  0  0  0  0  0  0  0  0  0
    0.6481   -0.1001    0.0411 C   0  0  0  0  0  0  0  0  0  0  0  0
    0.2591    1.1026   -0.2704 N   0  0  0  0  0  0  0  0  0  0  0  0
   -1.1256    0.9842   -0.2749 O   0  0  0  0  0  0  0  0  0  0  0  0
   -1.3900   -0.2729    0.0342 C   0  0  0  0  0  0  0  0  0  0  0  0
   -0.3517   -1.0058    0.2439 N   0  0  0  0  0  0  0  0  0  0  0  0
    2.4705    0.3119   -0.0173 H   0  0  0  0  0  0  0  0  0  0  0  0
   -2.4279   -0.5647    0.0818 H   0  0  0  0  0  0  0  0  0  0  0  0
  1  2  1  0
  1  7  1  0
  2  6  1  0
  2  3  2  0
  3  4  1  0
  4  5  1  0
  5  6  2  0
  5  8  1  0
M  END
>  <reaction>  (3) 
kfir_rxn_10391

>  <mol_properties>  (3) 
{"0": {"label": "acceptor", "atom_type": "O2s"}, "7": {"label": "a_hydrogen", "atom_type": "H0"}}

>  <type>  (3) 
r2h

$$$$

     RDKit          3D

 14 13  0  0  0  0  0  0  0  0999 V2000
   -1.5030    0.7443    0.4936 O   0  0  0  0  0  0  0  0  0  0  0  0
   -0.2186    0.7239    0.5151 C   0  0  0  0  0  0  0  0  0  0  0  0
    0.5215    1.2721   -0.4402 N   0  0  0  0  0  0  0  0  0  0  0  0
    1.8086    1.0499   -0.0233 O   0  0  0  0  0  0  0  0  0  0  0  0
    1.7281    0.3805    1.1297 C   0  0  0  0  0  0  0  0  0  0  0  0
    0.5350    0.1399    1.5212 N   0  0  0  0  0  0  0  0  0  0  0  0
    2.6603    0.1165    1.6058 H   0  0  0  0  0  0  0  0  0  0  0  0
    0.1505   -1.5538   -2.0555 C   0  0  0  0  0  0  0  0  0  0  0  0
   -0.9227   -1.5217   -1.5036 C   0  0  0  0  0  0  0  0  0  0  0  0
   -2.1263   -1.3544   -0.7952 C   0  0  0  0  0  3  0  0  0  0  0  0
    1.0836   -1.5966   -2.5650 H   0  0  0  0  0  0  0  0  0  0  0  0
   -1.9110   -0.2805   -0.1151 H   0  0  0  0  0  0  0  0  0  0  0  0
   -2.3275   -2.0976   -0.0271 H   0  0  0  0  0  0  0  0  0  0  0  0
   -2.9920   -1.0925   -1.3993 H   0  0  0  0  0  0  0  0  0  0  0  0
  1  2  1  0
  1 12  1  0
  2  6  1  0
  2  3  2  0
  3  4  1  0
  4  5  1  0
  5  6  2  0
  5  7  1  0
  8  9  3  0
  8 11  1  0
  9 10  1  0
 10 13  1  0
 10 14  1  0
M  RAD  1  10   2
M  END
>  <reaction>  (4) 
kfir_rxn_10391

>  <mol_properties>  (4) 
{"0": {"label": "*1", "atom_type": "O2s"}, "1": {"label": "*0", "atom_type": "Cd"}, "8": {"label": "*4", "atom_type": "Ct"}, "9": {"label": "*3", "atom_type": "Cs"}, "11": {"label": "*2", "atom_type": "H0"}}

>  <type>  (4) 
ts

$$$$

     RDKit          3D

 14 13  0  0  0  0  0  0  0  0999 V2000
    1.1461    0.4489   -0.0719 O   0  0  0  0  0  0  0  0  0  0  0  0
    0.0803    0.7199    0.6644 C   0  0  0  0  0  0  0  0  0  0  0  0
   -1.1350    0.3997    0.3245 N   0  0  0  0  0  0  0  0  0  0  0  0
   -1.8870    0.8818    1.3891 O   0  0  0  0  0  0  0  0  0  0  0  0
   -1.0278    1.4291    2.2306 C   0  0  0  0  0  0  0  0  0  0  0  0
    0.2035    1.3705    1.8571 N   0  0  0  0  0  0  0  0  0  0  0  0
   -1.4266    1.8654    3.1335 H   0  0  0  0  0  0  0  0  0  0  0  0
    0.9414   -1.8472   -3.5947 C   0  0  0  0  0  0  0  0  0  0  0  0
    0.9414   -1.8472   -2.3977 C   0  0  0  0  0  0  0  0  0  0  0  0
    0.9414   -1.8472   -0.9423 C   0  0  0  0  0  3  0  0  0  0  0  0
    0.9414   -1.8472   -4.6580 H   0  0  0  0  0  0  0  0  0  0  0  0
    1.0501   -0.6274   -0.4798 H   0  0  0  0  0  0  0  0  0  0  0  0
    1.7764   -2.4339   -0.5569 H   0  0  0  0  0  0  0  0  0  0  0  0
    0.0157   -2.2769   -0.5569 H   0  0  0  0  0  0  0  0  0  0  0  0
  1  2  1  0
  1 12  1  0
  2  6  1  0
  2  3  2  0
  3  4  1  0
  4  5  1  0
  5  6  2  0
  5  7  1  0
  8  9  3  0
  8 11  1  0
  9 10  1  0
 10 13  1  0
 10 14  1  0
M  RAD  1  10   2
M  END
>  <reaction>  (5) 
kfir_rxn_10391

>  <mol_properties>  (5) 
{"0": {"label": "*1", "atom_type": "O2s"}, "1": {"label": "*0", "atom_type": "Cd"}, "8": {"label": "*4", "atom_type": "Ct"}, "9": {"label": "*3", "atom_type": "Cs"}, "11": {"label": "*2", "atom_type": "H0"}}

>  <type>  (5) 
unop_1

>  <geom_source>  (5) 
Heuristics

$$$$

     RDKit          3D

 14 13  0  0  0  0  0  0  0  0999 V2000
    0.6347   -0.1303    1.5668 O   0  0  0  0  0  0  0  0  0  0  0  0
    0.0797    0.7026    0.7009 C   0  0  0  0  0  0  0  0  0  0  0  0
   -0.1319    0.4114   -0.5503 N   0  0  0  0  0  0  0  0  0  0  0  0
   -0.7183    1.5726   -1.0392 O   0  0  0  0  0  0  0  0  0  0  0  0
   -0.7835    2.4111   -0.0201 C   0  0  0  0  0  0  0  0  0  0  0  0
   -0.3126    1.9508    1.0870 N   0  0  0  0  0  0  0  0  0  0  0  0
   -1.2153    3.3830   -0.2036 H   0  0  0  0  0  0  0  0  0  0  0  0
    0.4300   -2.4263   -1.9561 C   0  0  0  0  0  0  0  0  0  0  0  0
    0.4300   -2.4263   -0.7590 C   0  0  0  0  0  0  0  0  0  0  0  0
    0.4300   -2.4263    0.6964 C   0  0  0  0  0  3  0  0  0  0  0  0
    0.4300   -2.4263   -3.0193 H   0  0  0  0  0  0  0  0  0  0  0  0
    0.5388   -1.2065    1.1588 H   0  0  0  0  0  0  0  0  0  0  0  0
    1.2650   -3.0130    1.0818 H   0  0  0  0  0  0  0  0  0  0  0  0
   -0.4956   -2.8561    1.0818 H   0  0  0  0  0  0  0  0  0  0  0  0
  1  2  1  0
  1 12  1  0
  2  6  1  0
  2  3  2  0
  3  4  1  0
  4  5  1  0
  5  6  2  0
  5  7  1  0
  8  9  3  0
  8 11  1  0
  9 10  1  0
 10 13  1  0
 10 14  1  0
M  RAD  1  10   2
M  END
>  <reaction>  (6) 
kfir_rxn_10391

>  <mol_properties>  (6) 
{"0": {"label": "*1", "atom_type": "O2s"}, "1": {"label": "*0", "atom_type": "Cd"}, "8": {"label": "*4", "atom_type": "Ct"}, "9": {"label": "*3", "atom_type": "Cs"}, "11": {"label": "*2", "atom_type": "H0"}}

>  <type>  (6) 
unop_2

>  <geom_source>  (6) 
Heuristics

$$$$

     RDKit          3D

 14 13  0  0  0  0  0  0  0  0999 V2000
    0.6920    0.6514   -0.5047 O   0  0  0  0  0  0  0  0  0  0  0  0
    0.0689    0.7203    0.6608 C   0  0  0  0  0  0  0  0  0  0  0  0
   -0.9785    0.0093    0.9650 N   0  0  0  0  0  0  0  0  0  0  0  0
   -1.2625    0.4228    2.2610 O   0  0  0  0  0  0  0  0  0  0  0  0
   -0.3503    1.3279    2.5684 C   0  0  0  0  0  0  0  0  0  0  0  0
    0.5059    1.5677    1.6364 N   0  0  0  0  0  0  0  0  0  0  0  0
   -0.4042    1.7737    3.5497 H   0  0  0  0  0  0  0  0  0  0  0  0
    0.4873   -1.6446   -4.0276 C   0  0  0  0  0  0  0  0  0  0  0  0
    0.4873   -1.6446   -2.8306 C   0  0  0  0  0  0  0  0  0  0  0  0
    0.4873   -1.6446   -1.3752 C   0  0  0  0  0  3  0  0  0  0  0  0
    0.4873   -1.6446   -5.0909 H   0  0  0  0  0  0  0  0  0  0  0  0
    0.5961   -0.4248   -0.9127 H   0  0  0  0  0  0  0  0  0  0  0  0
    1.3223   -2.2314   -0.9898 H   0  0  0  0  0  0  0  0  0  0  0  0
   -0.4383   -2.0744   -0.9898 H   0  0  0  0  0  0  0  0  0  0  0  0
  1  2  1  0
  1 12  1  0
  2  6  1  0
  2  3  2  0
  3  4  1  0
  4  5  1  0
  5  6  2  0
  5  7  1  0
  8  9  3  0
  8 11  1  0
  9 10  1  0
 10 13  1  0
 10 14  1  0
M  RAD  1  10   2
M  END
>  <reaction>  (7) 
kfir_rxn_10391

>  <mol_properties>  (7) 
{"0": {"label": "*1", "atom_type": "O2s"}, "1": {"label": "*0", "atom_type": "Cd"}, "8": {"label": "*4", "atom_type": "Ct"}, "9": {"label": "*3", "atom_type": "Cs"}, "11": {"label": "*2", "atom_type": "H0"}}

>  <type>  (7) 
unop_3

>  <geom_source>  (7) 
Heuristics

$$$$

     RDKit          3D

 14 13  0  0  0  0  0  0  0  0999 V2000
   -1.0989    0.1937    1.1252 O   0  0  0  0  0  0  0  0  0  0  0  0
    0.0374    0.7130    0.6886 C   0  0  0  0  0  0  0  0  0  0  0  0
    0.5502    0.4541   -0.4797 N   0  0  0  0  0  0  0  0  0  0  0  0
    1.7138    1.2139   -0.4778 O   0  0  0  0  0  0  0  0  0  0  0  0
    1.7504    1.8308    0.6901 C   0  0  0  0  0  0  0  0  0  0  0  0
    0.7543    1.5751    1.4657 N   0  0  0  0  0  0  0  0  0  0  0  0
    2.5921    2.4780    0.8835 H   0  0  0  0  0  0  0  0  0  0  0  0
   -1.3036   -2.1023   -2.3977 C   0  0  0  0  0  0  0  0  0  0  0  0
   -1.3036   -2.1023   -1.2006 C   0  0  0  0  0  0  0  0  0  0  0  0
   -1.3036   -2.1023    0.2548 C   0  0  0  0  0  3  0  0  0  0  0  0
   -1.3036   -2.1023   -3.4609 H   0  0  0  0  0  0  0  0  0  0  0  0
   -1.1949   -0.8825    0.7172 H   0  0  0  0  0  0  0  0  0  0  0  0
   -0.4686   -2.6891    0.6402 H   0  0  0  0  0  0  0  0  0  0  0  0
   -2.2293   -2.5321    0.6402 H   0  0  0  0  0  0  0  0  0  0  0  0
  1  2  1  0
  1 12  1  0
  2  6  1  0
  2  3  2  0
  3  4  1  0
  4  5  1  0
  5  6  2  0
  5  7  1  0
  8  9  3  0
  8 11  1  0
  9 10  1  0
 10 13  1  0
 10 14  1  0
M  RAD  1  10   2
M  END
>  <reaction>  (8) 
kfir_rxn_10391

>  <mol_properties>  (8) 
{"0": {"label": "*1", "atom_type": "O2s"}, "1": {"label": "*0", "atom_type": "Cd"}, "8": {"label": "*4", "atom_type": "Ct"}, "9": {"label": "*3", "atom_type": "Cs"}, "11": {"label": "*2", "atom_type": "H0"}}

>  <type>  (8) 
unop_4

>  <geom_source>  (8) 
Heuristics

$$$$

     RDKit          3D

 14 13  0  0  0  0  0  0  0  0999 V2000
    0.0681    0.7637   -0.6609 O   0  0  0  0  0  0  0  0  0  0  0  0
    0.0640    0.7178    0.6617 C   0  0  0  0  0  0  0  0  0  0  0  0
   -0.0343   -0.3844    1.3477 N   0  0  0  0  0  0  0  0  0  0  0  0
    0.0061    0.0685    2.6609 O   0  0  0  0  0  0  0  0  0  0  0  0
    0.1233    1.3830    2.5951 C   0  0  0  0  0  0  0  0  0  0  0  0
    0.1659    1.8607    1.3996 N   0  0  0  0  0  0  0  0  0  0  0  0
    0.1716    1.9244    3.5274 H   0  0  0  0  0  0  0  0  0  0  0  0
   -0.1366   -1.5323   -4.1838 C   0  0  0  0  0  0  0  0  0  0  0  0
   -0.1366   -1.5323   -2.9868 C   0  0  0  0  0  0  0  0  0  0  0  0
   -0.1366   -1.5323   -1.5313 C   0  0  0  0  0  3  0  0  0  0  0  0
   -0.1366   -1.5323   -5.2471 H   0  0  0  0  0  0  0  0  0  0  0  0
   -0.0279   -0.3125   -1.0689 H   0  0  0  0  0  0  0  0  0  0  0  0
    0.6984   -2.1190   -1.1460 H   0  0  0  0  0  0  0  0  0  0  0  0
   -1.0623   -1.9620   -1.1460 H   0  0  0  0  0  0  0  0  0  0  0  0
  1  2  1  0
  1 12  1  0
  2  6  1  0
  2  3  2  0
  3  4  1  0
  4  5  1  0
  5  6  2  0
  5  7  1  0
  8  9  3  0
  8 11  1  0
  9 10  1  0
 10 13  1  0
 10 14  1  0
M  RAD  1  10   2
M  END
>  <reaction>  (9) 
kfir_rxn_10391

>  <mol_properties>  (9) 
{"0": {"label": "*1", "atom_type": "O2s"}, "1": {"label": "*0", "atom_type": "Cd"}, "8": {"label": "*4", "atom_type": "Ct"}, "9": {"label": "*3", "atom_type": "Cs"}, "11": {"label": "*2", "atom_type": "H0"}}

>  <type>  (9) 
unop_5

>  <geom_source>  (9) 
Heuristics

$$$$

     RDKit          3D

 14 13  0  0  0  0  0  0  0  0999 V2000
   -1.2449    0.4357    0.5249 O   0  0  0  0  0  0  0  0  0  0  0  0
    0.0390    0.7196    0.6747 C   0  0  0  0  0  0  0  0  0  0  0  0
    0.9564    0.4041   -0.1935 N   0  0  0  0  0  0  0  0  0  0  0  0
    2.1150    0.8998    0.3925 O   0  0  0  0  0  0  0  0  0  0  0  0
    1.7449    1.4487    1.5360 C   0  0  0  0  0  0  0  0  0  0  0  0
    0.4828    1.3794    1.7833 N   0  0  0  0  0  0  0  0  0  0  0  0
    2.5162    1.8951    2.1449 H   0  0  0  0  0  0  0  0  0  0  0  0
   -1.4496   -1.8603   -2.9980 C   0  0  0  0  0  0  0  0  0  0  0  0
   -1.4496   -1.8603   -1.8009 C   0  0  0  0  0  0  0  0  0  0  0  0
   -1.4496   -1.8603   -0.3455 C   0  0  0  0  0  3  0  0  0  0  0  0
   -1.4496   -1.8603   -4.0612 H   0  0  0  0  0  0  0  0  0  0  0  0
   -1.3409   -0.6405    0.1169 H   0  0  0  0  0  0  0  0  0  0  0  0
   -0.6146   -2.4470    0.0399 H   0  0  0  0  0  0  0  0  0  0  0  0
   -2.3753   -2.2901    0.0399 H   0  0  0  0  0  0  0  0  0  0  0  0
  1  2  1  0
  1 12  1  0
  2  6  1  0
  2  3  2  0
  3  4  1  0
  4  5  1  0
  5  6  2  0
  5  7  1  0
  8  9  3  0
  8 11  1  0
  9 10  1  0
 10 13  1  0
 10 14  1  0
M  RAD  1  10   2
M  END
>  <reaction>  (10) 
kfir_rxn_10391

>  <mol_properties>  (10) 
{"0": {"label": "*1", "atom_type": "O2s"}, "1": {"label": "*0", "atom_type": "Cd"}, "8": {"label": "*4", "atom_type": "Ct"}, "9": {"label": "*3", "atom_type": "Cs"}, "11": {"label": "*2", "atom_type": "H0"}}

>  <type>  (10) 
unop_6

>  <geom_source>  (10) 
Heuristics

$$$$

     RDKit          3D

 14 13  0  0  0  0  0  0  0  0999 V2000
   -1.0486    0.6445   -0.0719 O   0  0  0  0  0  0  0  0  0  0  0  0
    0.0484    0.7228    0.6644 C   0  0  0  0  0  0  0  0  0  0  0  0
    1.1878    0.1925    0.3245 N   0  0  0  0  0  0  0  0  0  0  0  0
    2.0133    0.5341    1.3891 O   0  0  0  0  0  0  0  0  0  0  0  0
    1.2644    1.2247    2.2306 C   0  0  0  0  0  0  0  0  0  0  0  0
    0.0422    1.3849    1.8571 N   0  0  0  0  0  0  0  0  0  0  0  0
    1.7341    1.5836    3.1336 H   0  0  0  0  0  0  0  0  0  0  0  0
   -1.2533   -1.6515   -3.5947 C   0  0  0  0  0  0  0  0  0  0  0  0
   -1.2533   -1.6515   -2.3977 C   0  0  0  0  0  0  0  0  0  0  0  0
   -1.2533   -1.6515   -0.9423 C   0  0  0  0  0  3  0  0  0  0  0  0
   -1.2533   -1.6515   -4.6580 H   0  0  0  0  0  0  0  0  0  0  0  0
   -1.1446   -0.4317   -0.4798 H   0  0  0  0  0  0  0  0  0  0  0  0
   -0.4183   -2.2382   -0.5569 H   0  0  0  0  0  0  0  0  0  0  0  0
   -2.1790   -2.0812   -0.5569 H   0  0  0  0  0  0  0  0  0  0  0  0
  1  2  1  0
  1 12  1  0
  2  6  1  0
  2  3  2  0
  3  4  1  0
  4  5  1  0
  5  6  2  0
  5  7  1  0
  8  9  3  0
  8 11  1  0
  9 10  1  0
 10 13  1  0
 10 14  1  0
M  RAD  1  10   2
M  END
>  <reaction>  (11) 
kfir_rxn_10391

>  <mol_properties>  (11) 
{"0": {"label": "*1", "atom_type": "O2s"}, "1": {"label": "*0", "atom_type": "Cd"}, "8": {"label": "*4", "atom_type": "Ct"}, "9": {"label": "*3", "atom_type": "Cs"}, "11": {"label": "*2", "atom_type": "H0"}}

>  <type>  (11) 
unop_7

>  <geom_source>  (11) 
Heuristics

$$$$

     RDKit          3D

 14 13  0  0  0  0  0  0  0  0999 V2000
    1.3024    0.2086    0.5249 O   0  0  0  0  0  0  0  0  0  0  0  0
    0.0889    0.7151    0.6747 C   0  0  0  0  0  0  0  0  0  0  0  0
   -0.8699    0.5669   -0.1935 N   0  0  0  0  0  0  0  0  0  0  0  0
   -1.9224    1.2598    0.3925 O   0  0  0  0  0  0  0  0  0  0  0  0
   -1.4611    1.7346    1.5360 C   0  0  0  0  0  0  0  0  0  0  0  0
   -0.2311    1.4430    1.7833 N   0  0  0  0  0  0  0  0  0  0  0  0
   -2.1412    2.3103    2.1449 H   0  0  0  0  0  0  0  0  0  0  0  0
    1.0977   -2.0874   -2.9980 C   0  0  0  0  0  0  0  0  0  0  0  0
    1.0977   -2.0874   -1.8009 C   0  0  0  0  0  0  0  0  0  0  0  0
    1.0977   -2.0874   -0.3455 C   0  0  0  0  0  3  0  0  0  0  0  0
    1.0977   -2.0874   -4.0612 H   0  0  0  0  0  0  0  0  0  0  0  0
    1.2064   -0.8676    0.1169 H   0  0  0  0  0  0  0  0  0  0  0  0
    1.9327   -2.6742    0.0399 H   0  0  0  0  0  0  0  0  0  0  0  0
    0.1720   -2.5172    0.0399 H   0  0  0  0  0  0  0  0  0  0  0  0
  1  2  1  0
  1 12  1  0
  2  6  1  0
  2  3  2  0
  3  4  1  0
  4  5  1  0
  5  6  2  0
  5  7  1  0
  8  9  3  0
  8 11  1  0
  9 10  1  0
 10 13  1  0
 10 14  1  0
M  RAD  1  10   2
M  END
>  <reaction>  (12) 
kfir_rxn_10391

>  <mol_properties>  (12) 
{"0": {"label": "*1", "atom_type": "O2s"}, "1": {"label": "*0", "atom_type": "Cd"}, "8": {"label": "*4", "atom_type": "Ct"}, "9": {"label": "*3", "atom_type": "Cs"}, "11": {"label": "*2", "atom_type": "H0"}}

>  <type>  (12) 
unop_8

>  <geom_source>  (12) 
Heuristics

$$$$

     RDKit          3D

 14 13  0  0  0  0  0  0  0  0999 V2000
   -0.6478   -0.0159    1.5668 O   0  0  0  0  0  0  0  0  0  0  0  0
    0.0459    0.7056    0.7009 C   0  0  0  0  0  0  0  0  0  0  0  0
    0.2026    0.3816   -0.5503 N   0  0  0  0  0  0  0  0  0  0  0  0
    0.9852    1.4208   -1.0392 O   0  0  0  0  0  0  0  0  0  0  0  0
    1.1977    2.2345   -0.0201 C   0  0  0  0  0  0  0  0  0  0  0  0
    0.6528    1.8648    1.0870 N   0  0  0  0  0  0  0  0  0  0  0  0
    1.7946    3.1146   -0.2036 H   0  0  0  0  0  0  0  0  0  0  0  0
   -0.8525   -2.3120   -1.9561 C   0  0  0  0  0  0  0  0  0  0  0  0
   -0.8525   -2.3120   -0.7590 C   0  0  0  0  0  0  0  0  0  0  0  0
   -0.8525   -2.3120    0.6964 C   0  0  0  0  0  3  0  0  0  0  0  0
   -0.8525   -2.3120   -3.0193 H   0  0  0  0  0  0  0  0  0  0  0  0
   -0.7437   -1.0921    1.1588 H   0  0  0  0  0  0  0  0  0  0  0  0
   -0.0175   -2.8987    1.0818 H   0  0  0  0  0  0  0  0  0  0  0  0
   -1.7781   -2.7417    1.0818 H   0  0  0  0  0  0  0  0  0  0  0  0
  1  2  1  0
  1 12  1  0
  2  6  1  0
  2  3  2  0
  3  4  1  0
  4  5  1  0
  5  6  2  0
  5  7  1  0
  8  9  3  0
  8 11  1  0
  9 10  1  0
 10 13  1  0
 10 14  1  0
M  RAD  1  10   2
M  END
>  <reaction>  (13) 
kfir_rxn_10391

>  <mol_properties>  (13) 
{"0": {"label": "*1", "atom_type": "O2s"}, "1": {"label": "*0", "atom_type": "Cd"}, "8": {"label": "*4", "atom_type": "Ct"}, "9": {"label": "*3", "atom_type": "Cs"}, "11": {"label": "*2", "atom_type": "H0"}}

>  <type>  (13) 
unop_9

>  <geom_source>  (13) 
Heuristics

$$$$

     RDKit          3D

 14 13  0  0  0  0  0  0  0  0999 V2000
    1.1158   -0.0038    1.1252 O   0  0  0  0  0  0  0  0  0  0  0  0
    0.0893    0.7084    0.6886 C   0  0  0  0  0  0  0  0  0  0  0  0
   -0.4611    0.5443   -0.4797 N   0  0  0  0  0  0  0  0  0  0  0  0
   -1.4720    1.4980   -0.4778 O   0  0  0  0  0  0  0  0  0  0  0  0
   -1.3988    2.1116    0.6901 C   0  0  0  0  0  0  0  0  0  0  0  0
   -0.4638    1.6838    1.4657 N   0  0  0  0  0  0  0  0  0  0  0  0
   -2.1128    2.8975    0.8835 H   0  0  0  0  0  0  0  0  0  0  0  0
    0.9111   -2.2998   -2.3977 C   0  0  0  0  0  0  0  0  0  0  0  0
    0.9111   -2.2998   -1.2006 C   0  0  0  0  0  0  0  0  0  0  0  0
    0.9111   -2.2998    0.2548 C   0  0  0  0  0  3  0  0  0  0  0  0
    0.9111   -2.2998   -3.4609 H   0  0  0  0  0  0  0  0  0  0  0  0
    1.0199   -1.0800    0.7172 H   0  0  0  0  0  0  0  0  0  0  0  0
    1.7461   -2.8865    0.6402 H   0  0  0  0  0  0  0  0  0  0  0  0
   -0.0145   -2.7296    0.6402 H   0  0  0  0  0  0  0  0  0  0  0  0
  1  2  1  0
  1 12  1  0
  2  6  1  0
  2  3  2  0
  3  4  1  0
  4  5  1  0
  5  6  2  0
  5  7  1  0
  8  9  3  0
  8 11  1  0
  9 10  1  0
 10 13  1  0
 10 14  1  0
M  RAD  1  10   2
M  END
>  <reaction>  (14) 
kfir_rxn_10391

>  <mol_properties>  (14) 
{"0": {"label": "*1", "atom_type": "O2s"}, "1": {"label": "*0", "atom_type": "Cd"}, "8": {"label": "*4", "atom_type": "Ct"}, "9": {"label": "*3", "atom_type": "Cs"}, "11": {"label": "*2", "atom_type": "H0"}}

>  <type>  (14) 
unop_10

>  <geom_source>  (14) 
Heuristics

$$$$

     RDKit          3D

 14 13  0  0  0  0  0  0  0  0999 V2000
   -0.5659    0.7636   -0.5047 O   0  0  0  0  0  0  0  0  0  0  0  0
    0.0596    0.7211    0.6608 C   0  0  0  0  0  0  0  0  0  0  0  0
    0.9648   -0.1639    0.9650 N   0  0  0  0  0  0  0  0  0  0  0  0
    1.3174    0.1928    2.2610 O   0  0  0  0  0  0  0  0  0  0  0  0
    0.5797    1.2450    2.5684 C   0  0  0  0  0  0  0  0  0  0  0  0
   -0.2206    1.6325    1.6364 N   0  0  0  0  0  0  0  0  0  0  0  0
    0.7116    1.6742    3.5497 H   0  0  0  0  0  0  0  0  0  0  0  0
   -0.7706   -1.5325   -4.0276 C   0  0  0  0  0  0  0  0  0  0  0  0
   -0.7706   -1.5325   -2.8306 C   0  0  0  0  0  0  0  0  0  0  0  0
   -0.7706   -1.5325   -1.3752 C   0  0  0  0  0  3  0  0  0  0  0  0
   -0.7706   -1.5325   -5.0909 H   0  0  0  0  0  0  0  0  0  0  0  0
   -0.6618   -0.3127   -0.9127 H   0  0  0  0  0  0  0  0  0  0  0  0
    0.0644   -2.1192   -0.9898 H   0  0  0  0  0  0  0  0  0  0  0  0
   -1.6962   -1.9622   -0.9898 H   0  0  0  0  0  0  0  0  0  0  0  0
  1  2  1  0
  1 12  1  0
  2  6  1  0
  2  3  2  0
  3  4  1  0
  4  5  1  0
  5  6  2  0
  5  7  1  0
  8  9  3  0
  8 11  1  0
  9 10  1  0
 10 13  1  0
 10 14  1  0
M  RAD  1  10   2
M  END
>  <reaction>  (15) 
kfir_rxn_10391

>  <mol_properties>  (15) 
{"0": {"label": "*1", "atom_type": "O2s"}, "1": {"label": "*0", "atom_type": "Cd"}, "8": {"label": "*4", "atom_type": "Ct"}, "9": {"label": "*3", "atom_type": "Cs"}, "11": {"label": "*2", "atom_type": "H0"}}

>  <type>  (15) 
unop_11

>  <geom_source>  (15) 
Heuristics

$$$$

     RDKit          3D

 14 13  0  0  0  0  0  0  0  0999 V2000
   -0.0120   -0.1351    1.7290 O   0  0  0  0  0  0  0  0  0  0  0  0
    0.0625    0.7012    0.7060 C   0  0  0  0  0  0  0  0  0  0  0  0
    0.0290    0.3257   -0.5402 N   0  0  0  0  0  0  0  0  0  0  0  0
    0.1364    1.5301   -1.2251 O   0  0  0  0  0  0  0  0  0  0  0  0
    0.2205    2.4731   -0.3035 C   0  0  0  0  0  0  0  0  0  0  0  0
    0.1823    2.0446    0.9106 N   0  0  0  0  0  0  0  0  0  0  0  0
    0.3115    3.4932   -0.6438 H   0  0  0  0  0  0  0  0  0  0  0  0
   -0.2168   -2.4312   -1.7939 C   0  0  0  0  0  0  0  0  0  0  0  0
   -0.2168   -2.4312   -0.5969 C   0  0  0  0  0  0  0  0  0  0  0  0
   -0.2168   -2.4312    0.8586 C   0  0  0  0  0  3  0  0  0  0  0  0
   -0.2168   -2.4312   -2.8572 H   0  0  0  0  0  0  0  0  0  0  0  0
   -0.1080   -1.2113    1.3210 H   0  0  0  0  0  0  0  0  0  0  0  0
    0.6182   -3.0179    1.2439 H   0  0  0  0  0  0  0  0  0  0  0  0
   -1.1424   -2.8609    1.2439 H   0  0  0  0  0  0  0  0  0  0  0  0
  1  2  1  0
  1 12  1  0
  2  6  1  0
  2  3  2  0
  3  4  1  0
  4  5  1  0
  5  6  2  0
  5  7  1  0
  8  9  3  0
  8 11  1  0
  9 10  1  0
 10 13  1  0
 10 14  1  0
M  RAD  1  10   2
M  END
>  <reaction>  (16) 
kfir_rxn_10391

>  <mol_properties>  (16) 
{"0": {"label": "*1", "atom_type": "O2s"}, "1": {"label": "*0", "atom_type": "Cd"}, "8": {"label": "*4", "atom_type": "Ct"}, "9": {"label": "*3", "atom_type": "Cs"}, "11": {"label": "*2", "atom_type": "H0"}}

>  <type>  (16) 
unop_12

>  <geom_source>  (16) 
Heuristics

$$$$
