
     RDKit          3D

  7  7  0  0  0  0  0  0  0  0999 V2000
   -0.7268   -0.0467    0.0634 C   0  0  0  0  0  0  0  0  0  0  0  0
    0.7235    0.1046    0.0109 C   0  0  0  0  0  0  0  0  0  0  0  0
    0.0414   -0.7158   -0.9186 O   0  0  0  0  0  0  0  0  0  0  0  0
   -1.3615    0.7523   -0.3079 H   0  0  0  0  0  0  0  0  0  0  0  0
   -1.1708   -0.6854    0.8209 H   0  0  0  0  0  0  0  0  0  0  0  0
    1.1518    1.0144   -0.3988 H   0  0  0  0  0  0  0  0  0  0  0  0
    1.3425   -0.4233    0.7300 H   0  0  0  0  0  0  0  0  0  0  0  0
  1  2  1  0
  1  3  1  0
  1  4  1  0
  1  5  1  0
  2  3  1  0
  2  6  1  0
  2  7  1  0
M  END
>  <reaction>  (1) 
kfir_rxn_679

>  <mol_properties>  (1) 
{"0": {"label": "donator", "atom_type": "Cs"}, "3": {"label": "d_hydrogen", "atom_type": "H0"}}

>  <type>  (1) 
r1h

$$$$

     RDKit          3D

  7  7  0  0  0  0  0  0  0  0999 V2000
   -1.0734   -1.1219   -0.4060 N   0  0  0  0  0  2  0  0  0  0  0  0
    0.2044   -1.1420   -0.2116 N   0  0  0  0  0  0  0  0  0  0  0  0
    0.8470    0.0138   -0.0144 C   0  0  0  0  0  0  0  0  0  0  0  0
    2.5288   -0.0766    0.2360 Cl  0  0  0  0  0  0  0  0  0  0  0  0
    0.2573    1.1926   -0.0044 N   0  0  0  0  0  0  0  0  0  0  0  0
   -1.0196    1.0979   -0.2084 C   0  0  0  0  0  0  0  0  0  0  0  0
   -1.7445    0.0362   -0.4102 N   0  0  0  0  0  0  0  0  0  0  0  0
  1  7  1  0
  1  2  1  0
  2  3  2  0
  3  4  1  0
  3  5  1  0
  5  6  2  0
  6  7  2  0
M  RAD  1   1   2
M  END
>  <reaction>  (2) 
kfir_rxn_679

>  <mol_properties>  (2) 
{"4": {"label": "acceptor", "atom_type": "N5dc"}}

>  <type>  (2) 
r2

$$$$

     RDKit          3D

  8  8  0  0  0  0  0  0  0  0999 V2000
   -1.3253   -1.2351   -0.2287 N   0  0  0  0  0  2  0  0  0  0  0  0
   -0.0202   -1.4195    0.1109 N   0  0  0  0  0  0  0  0  0  0  0  0
    0.7198   -0.3689    0.1568 C   0  0  0  0  0  0  0  0  0  0  0  0
    2.3763   -0.4961    0.5743 Cl  0  0  0  0  0  0  0  0  0  0  0  0
    0.2371    0.8566   -0.1158 N   0  0  0  0  0  4  0  0  0  0  0  0
   -1.0528    1.0967   -0.4588 C   0  0  0  0  0  0  0  0  0  0  0  0
   -1.7999   -0.0820   -0.4902 N   0  0  0  0  0  0  0  0  0  0  0  0
    0.8651    1.6483   -0.0642 H   0  0  0  0  0  0  0  0  0  0  0  0
  1  7  1  0
  1  2  1  0
  2  3  2  0
  3  4  1  0
  3  5  1  0
  5  6  2  0
  5  8  1  0
  6  7  2  0
M  CHG  2   1  -1   5   1
M  END
>  <reaction>  (3) 
kfir_rxn_679

>  <mol_properties>  (3) 
{"4": {"label": "acceptor", "atom_type": "N5dc"}, "7": {"label": "a_hydrogen", "atom_type": "H0"}}

>  <type>  (3) 
r2h

$$$$

     RDKit          3D

 14 14  0  0  0  0  0  0  0  0999 V2000
    1.7227   -1.5072    1.5848 N   0  0  0  0  0  2  0  0  0  0  0  0
    1.2390   -0.3067    1.9404 N   0  0  0  0  0  0  0  0  0  0  0  0
    0.3266    0.2111    1.1771 C   0  0  0  0  0  0  0  0  0  0  0  0
   -0.3397    1.7400    1.5762 Cl  0  0  0  0  0  0  0  0  0  0  0  0
   -0.1138   -0.4102    0.0873 N   0  0  0  0  0  4  0  0  0  0  0  0
    0.3422   -1.5873   -0.2912 C   0  0  0  0  0  0  0  0  0  0  0  0
    1.3123   -2.1315    0.5418 N   0  0  0  0  0  0  0  0  0  0  0  0
   -1.7602    0.4943   -1.7140 C   0  0  0  0  0  3  0  0  0  0  0  0
   -2.0432   -0.6769   -2.5192 C   0  0  0  0  0  0  0  0  0  0  0  0
   -1.0815    0.3506   -2.8814 O   0  0  0  0  0  0  0  0  0  0  0  0
   -0.9422    0.1293   -0.6472 H   0  0  0  0  0  0  0  0  0  0  0  0
   -2.3603    1.3821   -1.5274 H   0  0  0  0  0  0  0  0  0  0  0  0
   -1.5893   -1.6209   -2.2371 H   0  0  0  0  0  0  0  0  0  0  0  0
   -2.9198   -0.7053   -3.1565 H   0  0  0  0  0  0  0  0  0  0  0  0
  1  7  1  0
  1  2  1  0
  2  3  2  0
  3  4  1  0
  3  5  1  0
  5  6  2  0
  5 11  1  0
  6  7  2  0
  8  9  1  0
  8 10  1  0
  8 12  1  0
  9 10  1  0
  9 13  1  0
  9 14  1  0
M  CHG  2   1  -1   5   1
M  RAD  1   8   2
M  END
>  <reaction>  (4) 
kfir_rxn_679

>  <mol_properties>  (4) 
{"2": {"label": "*0", "atom_type": "Cd"}, "4": {"label": "*1", "atom_type": "N5dc"}, "7": {"label": "*3", "atom_type": "Cs"}, "9": {"label": "*4", "atom_type": "O2s"}, "10": {"label": "*2", "atom_type": "H0"}}

>  <type>  (4) 
ts

$$$$

     RDKit          3D

 14 14  0  0  0  0  0  0  0  0999 V2000
    1.0589   -1.3135    2.2631 N   0  0  0  0  0  2  0  0  0  0  0  0
    1.1595   -0.0100    1.8844 N   0  0  0  0  0  0  0  0  0  0  0  0
    0.7523    0.2817    0.7001 C   0  0  0  0  0  0  0  0  0  0  0  0
    0.8371    1.8947    0.1298 Cl  0  0  0  0  0  0  0  0  0  0  0  0
    0.2500   -0.6487   -0.1313 N   0  0  0  0  0  4  0  0  0  0  0  0
    0.1272   -1.9595    0.1944 C   0  0  0  0  0  0  0  0  0  0  0  0
    0.5858   -2.2082    1.4892 N   0  0  0  0  0  0  0  0  0  0  0  0
   -1.8802   -0.1373   -1.3709 C   0  0  0  0  0  3  0  0  0  0  0  0
   -1.8802   -0.1373   -2.8300 C   0  0  0  0  0  0  0  0  0  0  0  0
   -1.8802    1.0751   -2.1005 O   0  0  0  0  0  0  0  0  0  0  0  0
   -0.7775   -0.4020   -0.7292 H   0  0  0  0  0  0  0  0  0  0  0  0
   -2.7992   -0.3579   -0.8362 H   0  0  0  0  0  0  0  0  0  0  0  0
   -0.9613   -0.3579   -3.3647 H   0  0  0  0  0  0  0  0  0  0  0  0
   -2.7992   -0.3579   -3.3647 H   0  0  0  0  0  0  0  0  0  0  0  0
  1  7  1  0
  1  2  1  0
  2  3  2  0
  3  4  1  0
  3  5  1  0
  5  6  2  0
  5 11  1  0
  6  7  2  0
  8  9  1  0
  8 10  1  0
  8 12  1  0
  9 10  1  0
  9 13  1  0
  9 14  1  0
M  CHG  2   1  -1   5   1
M  RAD  1   8   2
M  END
>  <reaction>  (5) 
kfir_rxn_679

>  <mol_properties>  (5) 
{"2": {"label": "*0", "atom_type": "Cd"}, "4": {"label": "*1", "atom_type": "N5dc"}, "7": {"label": "*3", "atom_type": "Cs"}, "9": {"label": "*4", "atom_type": "O2s"}, "10": {"label": "*2", "atom_type": "H0"}}

>  <type>  (5) 
unop_1

>  <geom_source>  (5) 
Heuristics

$$$$

     RDKit          3D

 14 14  0  0  0  0  0  0  0  0999 V2000
    1.9348   -0.2493    2.1184 N   0  0  0  0  0  2  0  0  0  0  0  0
    2.0261   -0.0126    0.7812 N   0  0  0  0  0  0  0  0  0  0  0  0
    0.9406   -0.1155    0.0998 C   0  0  0  0  0  0  0  0  0  0  0  0
    0.9514    0.1629   -1.5904 Cl  0  0  0  0  0  0  0  0  0  0  0  0
   -0.2329   -0.4406    0.6713 N   0  0  0  0  0  4  0  0  0  0  0  0
   -0.3802   -0.6863    1.9969 C   0  0  0  0  0  0  0  0  0  0  0  0
    0.8322   -0.5582    2.6770 N   0  0  0  0  0  0  0  0  0  0  0  0
   -2.3631    0.0709   -0.5683 C   0  0  0  0  0  3  0  0  0  0  0  0
   -2.3631    0.0709   -2.0274 C   0  0  0  0  0  0  0  0  0  0  0  0
   -2.3631    1.2833   -1.2979 O   0  0  0  0  0  0  0  0  0  0  0  0
   -1.2604   -0.1939    0.0734 H   0  0  0  0  0  0  0  0  0  0  0  0
   -3.2820   -0.1497   -0.0336 H   0  0  0  0  0  0  0  0  0  0  0  0
   -1.4441   -0.1497   -2.5622 H   0  0  0  0  0  0  0  0  0  0  0  0
   -3.2820   -0.1497   -2.5622 H   0  0  0  0  0  0  0  0  0  0  0  0
  1  7  1  0
  1  2  1  0
  2  3  2  0
  3  4  1  0
  3  5  1  0
  5  6  2  0
  5 11  1  0
  6  7  2  0
  8  9  1  0
  8 10  1  0
  8 12  1  0
  9 10  1  0
  9 13  1  0
  9 14  1  0
M  CHG  2   1  -1   5   1
M  RAD  1   8   2
M  END
>  <reaction>  (6) 
kfir_rxn_679

>  <mol_properties>  (6) 
{"2": {"label": "*0", "atom_type": "Cd"}, "4": {"label": "*1", "atom_type": "N5dc"}, "7": {"label": "*3", "atom_type": "Cs"}, "9": {"label": "*4", "atom_type": "O2s"}, "10": {"label": "*2", "atom_type": "H0"}}

>  <type>  (6) 
unop_2

>  <geom_source>  (6) 
Heuristics

$$$$

     RDKit          3D

 14 14  0  0  0  0  0  0  0  0999 V2000
    1.5301   -1.7382    1.6451 N   0  0  0  0  0  2  0  0  0  0  0  0
    1.1288   -0.4636    1.9040 N   0  0  0  0  0  0  0  0  0  0  0  0
    0.5590    0.1706    0.9415 C   0  0  0  0  0  0  0  0  0  0  0  0
    0.0181    1.7802    1.1677 Cl  0  0  0  0  0  0  0  0  0  0  0  0
    0.3643   -0.3895   -0.2658 N   0  0  0  0  0  4  0  0  0  0  0  0
    0.7437   -1.6537   -0.5774 C   0  0  0  0  0  0  0  0  0  0  0  0
    1.3540   -2.2849    0.5078 N   0  0  0  0  0  0  0  0  0  0  0  0
   -1.7659    0.1220   -1.5054 C   0  0  0  0  0  3  0  0  0  0  0  0
   -1.7659    0.1220   -2.9645 C   0  0  0  0  0  0  0  0  0  0  0  0
   -1.7659    1.3344   -2.2350 O   0  0  0  0  0  0  0  0  0  0  0  0
   -0.6632   -0.1428   -0.8637 H   0  0  0  0  0  0  0  0  0  0  0  0
   -2.6848   -0.0986   -0.9707 H   0  0  0  0  0  0  0  0  0  0  0  0
   -0.8470   -0.0986   -3.4993 H   0  0  0  0  0  0  0  0  0  0  0  0
   -2.6848   -0.0986   -3.4993 H   0  0  0  0  0  0  0  0  0  0  0  0
  1  7  1  0
  1  2  1  0
  2  3  2  0
  3  4  1  0
  3  5  1  0
  5  6  2  0
  5 11  1  0
  6  7  2  0
  8  9  1  0
  8 10  1  0
  8 12  1  0
  9 10  1  0
  9 13  1  0
  9 14  1  0
M  CHG  2   1  -1   5   1
M  RAD  1   8   2
M  END
>  <reaction>  (7) 
kfir_rxn_679

>  <mol_properties>  (7) 
{"2": {"label": "*0", "atom_type": "Cd"}, "4": {"label": "*1", "atom_type": "N5dc"}, "7": {"label": "*3", "atom_type": "Cs"}, "9": {"label": "*4", "atom_type": "O2s"}, "10": {"label": "*2", "atom_type": "H0"}}

>  <type>  (7) 
unop_3

>  <geom_source>  (7) 
Heuristics

$$$$

     RDKit          3D

 14 14  0  0  0  0  0  0  0  0999 V2000
    1.4337   -0.7130    2.3797 N   0  0  0  0  0  2  0  0  0  0  0  0
    1.3823   -1.3352    1.1703 N   0  0  0  0  0  0  0  0  0  0  0  0
    0.7451   -0.7273    0.2333 C   0  0  0  0  0  0  0  0  0  0  0  0
    0.6236   -1.4283   -1.3250 Cl  0  0  0  0  0  0  0  0  0  0  0  0
    0.1548    0.4654    0.4289 N   0  0  0  0  0  4  0  0  0  0  0  0
    0.1752    1.1285    1.6118 C   0  0  0  0  0  0  0  0  0  0  0  0
    0.8807    0.4166    2.5834 N   0  0  0  0  0  0  0  0  0  0  0  0
   -1.9754    0.9768   -0.8107 C   0  0  0  0  0  3  0  0  0  0  0  0
   -1.9754    0.9768   -2.2698 C   0  0  0  0  0  0  0  0  0  0  0  0
   -1.9754    2.1892   -1.5402 O   0  0  0  0  0  0  0  0  0  0  0  0
   -0.8727    0.7121   -0.1690 H   0  0  0  0  0  0  0  0  0  0  0  0
   -2.8943    0.7562   -0.2759 H   0  0  0  0  0  0  0  0  0  0  0  0
   -1.0564    0.7562   -2.8045 H   0  0  0  0  0  0  0  0  0  0  0  0
   -2.8943    0.7562   -2.8045 H   0  0  0  0  0  0  0  0  0  0  0  0
  1  7  1  0
  1  2  1  0
  2  3  2  0
  3  4  1  0
  3  5  1  0
  5  6  2  0
  5 11  1  0
  6  7  2  0
  8  9  1  0
  8 10  1  0
  8 12  1  0
  9 10  1  0
  9 13  1  0
  9 14  1  0
M  CHG  2   1  -1   5   1
M  RAD  1   8   2
M  END
>  <reaction>  (8) 
kfir_rxn_679

>  <mol_properties>  (8) 
{"2": {"label": "*0", "atom_type": "Cd"}, "4": {"label": "*1", "atom_type": "N5dc"}, "7": {"label": "*3", "atom_type": "Cs"}, "9": {"label": "*4", "atom_type": "O2s"}, "10": {"label": "*2", "atom_type": "H0"}}

>  <type>  (8) 
unop_4

>  <geom_source>  (8) 
Heuristics

$$$$

     RDKit          3D

 14 14  0  0  0  0  0  0  0  0999 V2000
    2.5338   -0.7247    1.0810 N   0  0  0  0  0  2  0  0  0  0  0  0
    1.3920   -0.4506    1.7693 N   0  0  0  0  0  0  0  0  0  0  0  0
    0.3419   -0.1984    1.0713 C   0  0  0  0  0  0  0  0  0  0  0  0
   -1.1446    0.1585    1.8444 Cl  0  0  0  0  0  0  0  0  0  0  0  0
    0.3606   -0.2030   -0.2736 N   0  0  0  0  0  4  0  0  0  0  0  0
    1.4690   -0.4691   -1.0085 C   0  0  0  0  0  0  0  0  0  0  0  0
    2.5704   -0.7335   -0.1925 N   0  0  0  0  0  0  0  0  0  0  0  0
   -1.7696    0.3085   -1.5132 C   0  0  0  0  0  3  0  0  0  0  0  0
   -1.7696    0.3085   -2.9723 C   0  0  0  0  0  0  0  0  0  0  0  0
   -1.7696    1.5209   -2.2428 O   0  0  0  0  0  0  0  0  0  0  0  0
   -0.6669    0.0437   -0.8715 H   0  0  0  0  0  0  0  0  0  0  0  0
   -2.6885    0.0879   -0.9785 H   0  0  0  0  0  0  0  0  0  0  0  0
   -0.8506    0.0879   -3.5071 H   0  0  0  0  0  0  0  0  0  0  0  0
   -2.6885    0.0879   -3.5071 H   0  0  0  0  0  0  0  0  0  0  0  0
  1  7  1  0
  1  2  1  0
  2  3  2  0
  3  4  1  0
  3  5  1  0
  5  6  2  0
  5 11  1  0
  6  7  2  0
  8  9  1  0
  8 10  1  0
  8 12  1  0
  9 10  1  0
  9 13  1  0
  9 14  1  0
M  CHG  2   1  -1   5   1
M  RAD  1   8   2
M  END
>  <reaction>  (9) 
kfir_rxn_679

>  <mol_properties>  (9) 
{"2": {"label": "*0", "atom_type": "Cd"}, "4": {"label": "*1", "atom_type": "N5dc"}, "7": {"label": "*3", "atom_type": "Cs"}, "9": {"label": "*4", "atom_type": "O2s"}, "10": {"label": "*2", "atom_type": "H0"}}

>  <type>  (9) 
unop_5

>  <geom_source>  (9) 
Heuristics

$$$$

     RDKit          3D

 14 14  0  0  0  0  0  0  0  0999 V2000
    1.2836   -0.1601    2.4931 N   0  0  0  0  0  2  0  0  0  0  0  0
    1.0819   -1.1667    1.5995 N   0  0  0  0  0  0  0  0  0  0  0  0
    0.6227   -0.8330    0.4457 C   0  0  0  0  0  0  0  0  0  0  0  0
    0.3348   -2.0271   -0.7483 Cl  0  0  0  0  0  0  0  0  0  0  0  0
    0.3519    0.4456    0.1278 N   0  0  0  0  0  4  0  0  0  0  0  0
    0.5341    1.4859    0.9786 C   0  0  0  0  0  0  0  0  0  0  0  0
    1.0329    1.0565    2.2096 N   0  0  0  0  0  0  0  0  0  0  0  0
   -1.7783    0.9571   -1.1118 C   0  0  0  0  0  3  0  0  0  0  0  0
   -1.7783    0.9571   -2.5709 C   0  0  0  0  0  0  0  0  0  0  0  0
   -1.7783    2.1695   -1.8414 O   0  0  0  0  0  0  0  0  0  0  0  0
   -0.6756    0.6923   -0.4701 H   0  0  0  0  0  0  0  0  0  0  0  0
   -2.6972    0.7364   -0.5771 H   0  0  0  0  0  0  0  0  0  0  0  0
   -0.8593    0.7364   -3.1057 H   0  0  0  0  0  0  0  0  0  0  0  0
   -2.6972    0.7364   -3.1057 H   0  0  0  0  0  0  0  0  0  0  0  0
  1  7  1  0
  1  2  1  0
  2  3  2  0
  3  4  1  0
  3  5  1  0
  5  6  2  0
  5 11  1  0
  6  7  2  0
  8  9  1  0
  8 10  1  0
  8 12  1  0
  9 10  1  0
  9 13  1  0
  9 14  1  0
M  CHG  2   1  -1   5   1
M  RAD  1   8   2
M  END
>  <reaction>  (10) 
kfir_rxn_679

>  <mol_properties>  (10) 
{"2": {"label": "*0", "atom_type": "Cd"}, "4": {"label": "*1", "atom_type": "N5dc"}, "7": {"label": "*3", "atom_type": "Cs"}, "9": {"label": "*4", "atom_type": "O2s"}, "10": {"label": "*2", "atom_type": "H0"}}

>  <type>  (10) 
unop_6

>  <geom_source>  (10) 
Heuristics

$$$$

     RDKit          3D

 14 14  0  0  0  0  0  0  0  0999 V2000
    1.4870    0.4695    2.2631 N   0  0  0  0  0  2  0  0  0  0  0  0
    0.9848   -0.7376    1.8844 N   0  0  0  0  0  0  0  0  0  0  0  0
    0.4896   -0.8126    0.7001 C   0  0  0  0  0  0  0  0  0  0  0  0
   -0.1672   -2.2883    0.1298 Cl  0  0  0  0  0  0  0  0  0  0  0  0
    0.4644    0.2445   -0.1313 N   0  0  0  0  0  4  0  0  0  0  0  0
    0.9502    1.4681    0.1944 C   0  0  0  0  0  0  0  0  0  0  0  0
    1.4717    1.4815    1.4892 N   0  0  0  0  0  0  0  0  0  0  0  0
   -1.6658    0.7559   -1.3709 C   0  0  0  0  0  3  0  0  0  0  0  0
   -1.6658    0.7559   -2.8300 C   0  0  0  0  0  0  0  0  0  0  0  0
   -1.6658    1.9683   -2.1005 O   0  0  0  0  0  0  0  0  0  0  0  0
   -0.5631    0.4912   -0.7292 H   0  0  0  0  0  0  0  0  0  0  0  0
   -2.5847    0.5353   -0.8362 H   0  0  0  0  0  0  0  0  0  0  0  0
   -0.7469    0.5353   -3.3647 H   0  0  0  0  0  0  0  0  0  0  0  0
   -2.5847    0.5353   -3.3647 H   0  0  0  0  0  0  0  0  0  0  0  0
  1  7  1  0
  1  2  1  0
  2  3  2  0
  3  4  1  0
  3  5  1  0
  5  6  2  0
  5 11  1  0
  6  7  2  0
  8  9  1  0
  8 10  1  0
  8 12  1  0
  9 10  1  0
  9 13  1  0
  9 14  1  0
M  CHG  2   1  -1   5   1
M  RAD  1   8   2
M  END
>  <reaction>  (11) 
kfir_rxn_679

>  <mol_properties>  (11) 
{"2": {"label": "*0", "atom_type": "Cd"}, "4": {"label": "*1", "atom_type": "N5dc"}, "7": {"label": "*3", "atom_type": "Cs"}, "9": {"label": "*4", "atom_type": "O2s"}, "10": {"label": "*2", "atom_type": "H0"}}

>  <type>  (11) 
unop_7

>  <geom_source>  (11) 
Heuristics

$$$$

     RDKit          3D

 14 14  0  0  0  0  0  0  0  0999 V2000
    1.1635   -0.6602    2.4931 N   0  0  0  0  0  2  0  0  0  0  0  0
    1.4408    0.3283    1.5995 N   0  0  0  0  0  0  0  0  0  0  0  0
    0.8802    0.2394    0.4457 C   0  0  0  0  0  0  0  0  0  0  0  0
    1.1658    1.4340   -0.7483 Cl  0  0  0  0  0  0  0  0  0  0  0  0
    0.0584   -0.7769    0.1278 N   0  0  0  0  0  4  0  0  0  0  0  0
   -0.2516   -1.7864    0.9786 C   0  0  0  0  0  0  0  0  0  0  0  0
    0.3878   -1.6303    2.2096 N   0  0  0  0  0  0  0  0  0  0  0  0
   -2.0718   -0.2654   -1.1118 C   0  0  0  0  0  3  0  0  0  0  0  0
   -2.0718   -0.2654   -2.5709 C   0  0  0  0  0  0  0  0  0  0  0  0
   -2.0718    0.9470   -1.8414 O   0  0  0  0  0  0  0  0  0  0  0  0
   -0.9691   -0.5302   -0.4701 H   0  0  0  0  0  0  0  0  0  0  0  0
   -2.9907   -0.4860   -0.5771 H   0  0  0  0  0  0  0  0  0  0  0  0
   -1.1529   -0.4860   -3.1057 H   0  0  0  0  0  0  0  0  0  0  0  0
   -2.9907   -0.4860   -3.1057 H   0  0  0  0  0  0  0  0  0  0  0  0
  1  7  1  0
  1  2  1  0
  2  3  2  0
  3  4  1  0
  3  5  1  0
  5  6  2  0
  5 11  1  0
  6  7  2  0
  8  9  1  0
  8 10  1  0
  8 12  1  0
  9 10  1  0
  9 13  1  0
  9 14  1  0
M  CHG  2   1  -1   5   1
M  RAD  1   8   2
M  END
>  <reaction>  (12) 
kfir_rxn_679

>  <mol_properties>  (12) 
{"2": {"label": "*0", "atom_type": "Cd"}, "4": {"label": "*1", "atom_type": "N5dc"}, "7": {"label": "*3", "atom_type": "Cs"}, "9": {"label": "*4", "atom_type": "O2s"}, "10": {"label": "*2", "atom_type": "H0"}}

>  <type>  (12) 
unop_8

>  <geom_source>  (12) 
Heuristics

$$$$

     RDKit          3D

 14 14  0  0  0  0  0  0  0  0999 V2000
    1.7842   -0.8764    2.1184 N   0  0  0  0  0  2  0  0  0  0  0  0
    1.7582   -1.1287    0.7812 N   0  0  0  0  0  0  0  0  0  0  0  0
    0.8376   -0.5441    0.0998 C   0  0  0  0  0  0  0  0  0  0  0  0
    0.7209   -0.7972   -1.5904 Cl  0  0  0  0  0  0  0  0  0  0  0  0
   -0.0603    0.2782    0.6713 N   0  0  0  0  0  4  0  0  0  0  0  0
   -0.0799    0.5641    1.9969 C   0  0  0  0  0  0  0  0  0  0  0  0
    0.9421   -0.1005    2.6770 N   0  0  0  0  0  0  0  0  0  0  0  0
   -2.1905    0.7897   -0.5683 C   0  0  0  0  0  3  0  0  0  0  0  0
   -2.1905    0.7897   -2.0274 C   0  0  0  0  0  0  0  0  0  0  0  0
   -2.1905    2.0021   -1.2979 O   0  0  0  0  0  0  0  0  0  0  0  0
   -1.0878    0.5249    0.0734 H   0  0  0  0  0  0  0  0  0  0  0  0
   -3.1094    0.5691   -0.0336 H   0  0  0  0  0  0  0  0  0  0  0  0
   -1.2716    0.5691   -2.5622 H   0  0  0  0  0  0  0  0  0  0  0  0
   -3.1094    0.5691   -2.5622 H   0  0  0  0  0  0  0  0  0  0  0  0
  1  7  1  0
  1  2  1  0
  2  3  2  0
  3  4  1  0
  3  5  1  0
  5  6  2  0
  5 11  1  0
  6  7  2  0
  8  9  1  0
  8 10  1  0
  8 12  1  0
  9 10  1  0
  9 13  1  0
  9 14  1  0
M  CHG  2   1  -1   5   1
M  RAD  1   8   2
M  END
>  <reaction>  (13) 
kfir_rxn_679

>  <mol_properties>  (13) 
{"2": {"label": "*0", "atom_type": "Cd"}, "4": {"label": "*1", "atom_type": "N5dc"}, "7": {"label": "*3", "atom_type": "Cs"}, "9": {"label": "*4", "atom_type": "O2s"}, "10": {"label": "*2", "atom_type": "H0"}}

>  <type>  (13) 
unop_9

>  <geom_source>  (13) 
Heuristics

$$$$

     RDKit          3D

 14 14  0  0  0  0  0  0  0  0999 V2000
    1.5483   -0.2357    2.3798 N   0  0  0  0  0  2  0  0  0  0  0  0
    1.7850    0.3420    1.1703 N   0  0  0  0  0  0  0  0  0  0  0  0
    0.9413    0.0897    0.2333 C   0  0  0  0  0  0  0  0  0  0  0  0
    1.1513    0.7694   -1.3250 Cl  0  0  0  0  0  0  0  0  0  0  0  0
   -0.1262   -0.7050    0.4289 N   0  0  0  0  0  4  0  0  0  0  0  0
   -0.4091   -1.3051    1.6118 C   0  0  0  0  0  0  0  0  0  0  0  0
    0.5427   -0.9911    2.5834 N   0  0  0  0  0  0  0  0  0  0  0  0
   -2.2564   -0.1935   -0.8107 C   0  0  0  0  0  3  0  0  0  0  0  0
   -2.2564   -0.1935   -2.2698 C   0  0  0  0  0  0  0  0  0  0  0  0
   -2.2564    1.0189   -1.5402 O   0  0  0  0  0  0  0  0  0  0  0  0
   -1.1537   -0.4583   -0.1690 H   0  0  0  0  0  0  0  0  0  0  0  0
   -3.1753   -0.4141   -0.2759 H   0  0  0  0  0  0  0  0  0  0  0  0
   -1.3374   -0.4141   -2.8045 H   0  0  0  0  0  0  0  0  0  0  0  0
   -3.1753   -0.4141   -2.8045 H   0  0  0  0  0  0  0  0  0  0  0  0
  1  7  1  0
  1  2  1  0
  2  3  2  0
  3  4  1  0
  3  5  1  0
  5  6  2  0
  5 11  1  0
  6  7  2  0
  8  9  1  0
  8 10  1  0
  8 12  1  0
  9 10  1  0
  9 13  1  0
  9 14  1  0
M  CHG  2   1  -1   5   1
M  RAD  1   8   2
M  END
>  <reaction>  (14) 
kfir_rxn_679

>  <mol_properties>  (14) 
{"2": {"label": "*0", "atom_type": "Cd"}, "4": {"label": "*1", "atom_type": "N5dc"}, "7": {"label": "*3", "atom_type": "Cs"}, "9": {"label": "*4", "atom_type": "O2s"}, "10": {"label": "*2", "atom_type": "H0"}}

>  <type>  (14) 
unop_10

>  <geom_source>  (14) 
Heuristics

$$$$

     RDKit          3D

 14 14  0  0  0  0  0  0  0  0999 V2000
    2.0996    0.6340    1.6451 N   0  0  0  0  0  2  0  0  0  0  0  0
    1.1635   -0.3195    1.9040 N   0  0  0  0  0  0  0  0  0  0  0  0
    0.3678   -0.6258    0.9415 C   0  0  0  0  0  0  0  0  0  0  0  0
   -0.8450   -1.8144    1.1677 Cl  0  0  0  0  0  0  0  0  0  0  0  0
    0.4486   -0.0384   -0.2658 N   0  0  0  0  0  4  0  0  0  0  0  0
    1.3606    0.9157   -0.5774 C   0  0  0  0  0  0  0  0  0  0  0  0
    2.1910    1.2010    0.5078 N   0  0  0  0  0  0  0  0  0  0  0  0
   -1.6816    0.4730   -1.5054 C   0  0  0  0  0  3  0  0  0  0  0  0
   -1.6816    0.4730   -2.9645 C   0  0  0  0  0  0  0  0  0  0  0  0
   -1.6816    1.6854   -2.2350 O   0  0  0  0  0  0  0  0  0  0  0  0
   -0.5789    0.2083   -0.8637 H   0  0  0  0  0  0  0  0  0  0  0  0
   -2.6005    0.2524   -0.9707 H   0  0  0  0  0  0  0  0  0  0  0  0
   -0.7627    0.2524   -3.4993 H   0  0  0  0  0  0  0  0  0  0  0  0
   -2.6005    0.2524   -3.4993 H   0  0  0  0  0  0  0  0  0  0  0  0
  1  7  1  0
  1  2  1  0
  2  3  2  0
  3  4  1  0
  3  5  1  0
  5  6  2  0
  5 11  1  0
  6  7  2  0
  8  9  1  0
  8 10  1  0
  8 12  1  0
  9 10  1  0
  9 13  1  0
  9 14  1  0
M  CHG  2   1  -1   5   1
M  RAD  1   8   2
M  END
>  <reaction>  (15) 
kfir_rxn_679

>  <mol_properties>  (15) 
{"2": {"label": "*0", "atom_type": "Cd"}, "4": {"label": "*1", "atom_type": "N5dc"}, "7": {"label": "*3", "atom_type": "Cs"}, "9": {"label": "*4", "atom_type": "O2s"}, "10": {"label": "*2", "atom_type": "H0"}}

>  <type>  (15) 
unop_11

>  <geom_source>  (15) 
Heuristics

$$$$

     RDKit          3D

 14 14  0  0  0  0  0  0  0  0999 V2000
    2.0374   -0.6055    1.9831 N   0  0  0  0  0  2  0  0  0  0  0  0
    2.0232   -0.6021    0.6221 N   0  0  0  0  0  0  0  0  0  0  0  0
    0.9006   -0.3326    0.0557 C   0  0  0  0  0  0  0  0  0  0  0  0
    0.7796   -0.3035   -1.6528 Cl  0  0  0  0  0  0  0  0  0  0  0  0
   -0.2107   -0.0658    0.7649 N   0  0  0  0  0  4  0  0  0  0  0  0
   -0.2525   -0.0557    2.1204 C   0  0  0  0  0  0  0  0  0  0  0  0
    0.9947   -0.3552    2.6711 N   0  0  0  0  0  0  0  0  0  0  0  0
   -2.3409    0.4457   -0.4748 C   0  0  0  0  0  3  0  0  0  0  0  0
   -2.3409    0.4457   -1.9338 C   0  0  0  0  0  0  0  0  0  0  0  0
   -2.3409    1.6581   -1.2043 O   0  0  0  0  0  0  0  0  0  0  0  0
   -1.2382    0.1809    0.1669 H   0  0  0  0  0  0  0  0  0  0  0  0
   -3.2598    0.2251    0.0600 H   0  0  0  0  0  0  0  0  0  0  0  0
   -1.4220    0.2251   -2.4686 H   0  0  0  0  0  0  0  0  0  0  0  0
   -3.2598    0.2251   -2.4686 H   0  0  0  0  0  0  0  0  0  0  0  0
  1  7  1  0
  1  2  1  0
  2  3  2  0
  3  4  1  0
  3  5  1  0
  5  6  2  0
  5 11  1  0
  6  7  2  0
  8  9  1  0
  8 10  1  0
  8 12  1  0
  9 10  1  0
  9 13  1  0
  9 14  1  0
M  CHG  2   1  -1   5   1
M  RAD  1   8   2
M  END
>  <reaction>  (16) 
kfir_rxn_679

>  <mol_properties>  (16) 
{"2": {"label": "*0", "atom_type": "Cd"}, "4": {"label": "*1", "atom_type": "N5dc"}, "7": {"label": "*3", "atom_type": "Cs"}, "9": {"label": "*4", "atom_type": "O2s"}, "10": {"label": "*2", "atom_type": "H0"}}

>  <type>  (16) 
unop_12

>  <geom_source>  (16) 
Heuristics

$$$$
