
     RDKit          3D

  7  6  0  0  0  0  0  0  0  0999 V2000
   -1.0240    0.8044   -0.4204 O   0  0  0  0  0  0  0  0  0  0  0  0
   -0.3365   -0.3409    0.0003 C   0  0  0  0  0  0  0  0  0  0  0  0
    1.1270   -0.1767   -0.0328 C   0  0  0  0  0  0  0  0  0  0  0  0
    2.2637   -0.0259   -0.0358 N   0  0  0  0  0  0  0  0  0  0  0  0
   -0.8050    1.5374    0.1584 H   0  0  0  0  0  0  0  0  0  0  0  0
   -0.6168   -0.6523    1.0127 H   0  0  0  0  0  0  0  0  0  0  0  0
   -0.6084   -1.1459   -0.6824 H   0  0  0  0  0  0  0  0  0  0  0  0
  1  2  1  0
  1  5  1  0
  2  3  1  0
  2  6  1  0
  2  7  1  0
  3  4  3  0
M  END
>  <reaction>  (1) 
kfir_rxn_9248

>  <mol_properties>  (1) 
{"1": {"label": "donator", "atom_type": "Cs"}, "5": {"label": "d_hydrogen", "atom_type": "H0"}}

>  <type>  (1) 
r1h

$$$$

     RDKit          3D

  7  7  0  0  0  0  0  0  0  0999 V2000
   -0.6451    1.1128   -0.1044 N   0  0  0  0  0  0  0  0  0  0  0  0
    0.6410    1.0758    0.0539 N   0  0  0  0  0  0  0  0  0  0  0  0
    1.0708   -0.2117    0.1359 C   0  0  0  0  0  0  0  0  0  0  0  0
   -0.0416   -0.9878    0.0175 C   0  0  0  0  0  3  0  0  0  0  0  0
   -1.0762   -0.1574   -0.1281 N   0  0  0  0  0  0  0  0  0  0  0  0
    2.1044   -0.4725    0.2684 H   0  0  0  0  0  0  0  0  0  0  0  0
   -2.0533   -0.3591   -0.2431 H   0  0  0  0  0  0  0  0  0  0  0  0
  1  2  2  0
  1  5  1  0
  2  3  1  0
  3  4  2  0
  3  6  1  0
  4  5  1  0
  5  7  1  0
M  RAD  1   4   2
M  END
>  <reaction>  (2) 
kfir_rxn_9248

>  <mol_properties>  (2) 
{"1": {"label": "acceptor", "atom_type": "N3s"}}

>  <type>  (2) 
r2

$$$$

     RDKit          3D

  8  8  0  0  0  0  0  0  0  0999 V2000
    0.4276   -1.1164   -0.5198 N   0  0  0  0  0  2  0  0  0  0  0  0
   -0.7321   -0.5944   -0.2494 N   0  0  0  0  0  0  0  0  0  0  0  0
   -0.6674    0.7414   -0.0172 C   0  0  0  0  0  0  0  0  0  0  0  0
    0.6571    1.1541   -0.1434 C   0  0  0  0  0  3  0  0  0  0  0  0
    1.2135   -0.0539   -0.4466 N   0  0  0  0  0  0  0  0  0  0  0  0
   -1.5302   -1.2079   -0.2394 H   0  0  0  0  0  0  0  0  0  0  0  0
   -1.5585    1.2976    0.2187 H   0  0  0  0  0  0  0  0  0  0  0  0
    2.1900   -0.2205   -0.6249 H   0  0  0  0  0  0  0  0  0  0  0  0
  1  2  1  0
  1  5  1  0
  2  3  1  0
  2  6  1  0
  3  4  2  0
  3  7  1  0
  4  5  1  0
  5  8  1  0
M  CHG  2   1  -1   4   1
M  END
>  <reaction>  (3) 
kfir_rxn_9248

>  <mol_properties>  (3) 
{"1": {"label": "acceptor", "atom_type": "N3s"}, "7": {"label": "a_hydrogen", "atom_type": "H0"}}

>  <type>  (3) 
r2h

$$$$

     RDKit          3D

 14 13  0  0  0  0  0  0  0  0999 V2000
   -1.0958   -0.5413   -0.3219 N   0  0  0  0  0  2  0  0  0  0  0  0
   -0.1883   -0.6520    0.6053 N   0  0  0  0  0  0  0  0  0  0  0  0
   -0.6156   -1.3533    1.6841 C   0  0  0  0  0  0  0  0  0  0  0  0
   -1.9131   -1.7291    1.4125 C   0  0  0  0  0  3  0  0  0  0  0  0
   -2.1203   -1.1937    0.1848 N   0  0  0  0  0  0  0  0  0  0  0  0
    0.0175   -1.5288    2.5344 H   0  0  0  0  0  0  0  0  0  0  0  0
   -2.9653   -1.2492   -0.3587 H   0  0  0  0  0  0  0  0  0  0  0  0
    1.5617    0.1142   -1.9085 O   0  0  0  0  0  0  0  0  0  0  0  0
    1.6665    0.6684   -0.6572 C   0  0  0  0  0  0  0  0  0  0  0  0
    1.2257    2.0354   -0.5130 C   0  0  0  0  0  0  0  0  0  0  0  0
    0.8151    3.0992   -0.3623 N   0  0  0  0  0  2  0  0  0  0  0  0
    0.6627    0.2311   -2.2326 H   0  0  0  0  0  0  0  0  0  0  0  0
    0.8502   -0.0130    0.1662 H   0  0  0  0  0  0  0  0  0  0  0  0
    2.6596    0.4946   -0.2484 H   0  0  0  0  0  0  0  0  0  0  0  0
  1  2  1  0
  1  5  1  0
  2  3  1  0
  2 13  1  0
  3  4  2  0
  3  6  1  0
  4  5  1  0
  5  7  1  0
  8  9  1  0
  8 12  1  0
  9 10  2  0
  9 14  1  0
 10 11  2  0
M  CHG  2   1  -1   4   1
M  RAD  1  11   2
M  END
>  <reaction>  (4) 
kfir_rxn_9248

>  <mol_properties>  (4) 
{"1": {"label": "*1", "atom_type": "N3s"}, "2": {"label": "*0", "atom_type": "Cd"}, "8": {"label": "*3", "atom_type": "Cd"}, "9": {"label": "*4", "atom_type": "Cdd"}, "12": {"label": "*2", "atom_type": "H0"}}

>  <type>  (4) 
ts

$$$$

     RDKit          3D

 14 13  0  0  0  0  0  0  0  0999 V2000
   -0.3619   -1.8943    0.7027 N   0  0  0  0  0  2  0  0  0  0  0  0
   -0.6135   -0.8726   -0.0610 N   0  0  0  0  0  0  0  0  0  0  0  0
   -1.5575   -0.0467    0.4580 C   0  0  0  0  0  0  0  0  0  0  0  0
   -1.9782   -0.5610    1.6823 C   0  0  0  0  0  3  0  0  0  0  0  0
   -1.1854   -1.6707    1.7145 N   0  0  0  0  0  0  0  0  0  0  0  0
   -1.8597    0.8388   -0.0746 H   0  0  0  0  0  0  0  0  0  0  0  0
   -1.1651   -2.3544    2.4528 H   0  0  0  0  0  0  0  0  0  0  0  0
    1.3513    0.3779   -2.4313 O   0  0  0  0  0  0  0  0  0  0  0  0
    1.3513    0.3779   -1.0308 C   0  0  0  0  0  0  0  0  0  0  0  0
    1.3513    1.7344   -0.4566 C   0  0  0  0  0  0  0  0  0  0  0  0
    1.3221    2.7955   -0.0229 N   0  0  0  0  0  2  0  0  0  0  0  0
    0.5635    0.8233   -2.7494 H   0  0  0  0  0  0  0  0  0  0  0  0
    0.3273   -0.2738   -0.5254 H   0  0  0  0  0  0  0  0  0  0  0  0
    2.2602   -0.1316   -0.7110 H   0  0  0  0  0  0  0  0  0  0  0  0
  1  2  1  0
  1  5  1  0
  2  3  1  0
  2 13  1  0
  3  4  2  0
  3  6  1  0
  4  5  1  0
  5  7  1  0
  8  9  1  0
  8 12  1  0
  9 10  2  0
  9 14  1  0
 10 11  2  0
M  CHG  2   1  -1   4   1
M  RAD  1  11   2
M  END
>  <reaction>  (5) 
kfir_rxn_9248

>  <mol_properties>  (5) 
{"1": {"label": "*1", "atom_type": "N3s"}, "2": {"label": "*0", "atom_type": "Cd"}, "8": {"label": "*3", "atom_type": "Cd"}, "9": {"label": "*4", "atom_type": "Cdd"}, "12": {"label": "*2", "atom_type": "H0"}}

>  <type>  (5) 
unop_1

>  <geom_source>  (5) 
Heuristics

$$$$

     RDKit          3D

 14 13  0  0  0  0  0  0  0  0999 V2000
   -1.0263   -1.5314   -0.4642 N   0  0  0  0  0  2  0  0  0  0  0  0
   -0.5417   -0.5406    0.2240 N   0  0  0  0  0  0  0  0  0  0  0  0
   -0.9030   -0.5808    1.5318 C   0  0  0  0  0  0  0  0  0  0  0  0
   -1.7037   -1.7014    1.7408 C   0  0  0  0  0  3  0  0  0  0  0  0
   -1.7017   -2.1874    0.4661 N   0  0  0  0  0  0  0  0  0  0  0  0
   -0.5685    0.1823    2.2137 H   0  0  0  0  0  0  0  0  0  0  0  0
   -2.1767   -3.0187    0.1558 H   0  0  0  0  0  0  0  0  0  0  0  0
    1.4231    0.7099   -2.1463 O   0  0  0  0  0  0  0  0  0  0  0  0
    1.4231    0.7099   -0.7458 C   0  0  0  0  0  0  0  0  0  0  0  0
    1.4231    2.0664   -0.1716 C   0  0  0  0  0  0  0  0  0  0  0  0
    1.3940    3.1275    0.2622 N   0  0  0  0  0  2  0  0  0  0  0  0
    0.6354    1.1553   -2.4643 H   0  0  0  0  0  0  0  0  0  0  0  0
    0.3992    0.0582   -0.2404 H   0  0  0  0  0  0  0  0  0  0  0  0
    2.3321    0.2004   -0.4260 H   0  0  0  0  0  0  0  0  0  0  0  0
  1  2  1  0
  1  5  1  0
  2  3  1  0
  2 13  1  0
  3  4  2  0
  3  6  1  0
  4  5  1  0
  5  7  1  0
  8  9  1  0
  8 12  1  0
  9 10  2  0
  9 14  1  0
 10 11  2  0
M  CHG  2   1  -1   4   1
M  RAD  1  11   2
M  END
>  <reaction>  (6) 
kfir_rxn_9248

>  <mol_properties>  (6) 
{"1": {"label": "*1", "atom_type": "N3s"}, "2": {"label": "*0", "atom_type": "Cd"}, "8": {"label": "*3", "atom_type": "Cd"}, "9": {"label": "*4", "atom_type": "Cdd"}, "12": {"label": "*2", "atom_type": "H0"}}

>  <type>  (6) 
unop_2

>  <geom_source>  (6) 
Heuristics

$$$$

     RDKit          3D

 14 13  0  0  0  0  0  0  0  0999 V2000
   -0.2972   -1.5181    1.1983 N   0  0  0  0  0  2  0  0  0  0  0  0
   -0.4592   -0.9388    0.0456 N   0  0  0  0  0  0  0  0  0  0  0  0
   -1.6980   -0.4051   -0.1064 C   0  0  0  0  0  0  0  0  0  0  0  0
   -2.4353   -0.6483    1.0502 C   0  0  0  0  0  3  0  0  0  0  0  0
   -1.4821   -1.3233    1.7550 N   0  0  0  0  0  0  0  0  0  0  0  0
   -1.9643    0.1043   -1.0167 H   0  0  0  0  0  0  0  0  0  0  0  0
   -1.5952   -1.6979    2.6824 H   0  0  0  0  0  0  0  0  0  0  0  0
    1.5056    0.3117   -2.3248 O   0  0  0  0  0  0  0  0  0  0  0  0
    1.5056    0.3117   -0.9242 C   0  0  0  0  0  0  0  0  0  0  0  0
    1.5056    1.6682   -0.3500 C   0  0  0  0  0  0  0  0  0  0  0  0
    1.4765    2.7292    0.0837 N   0  0  0  0  0  2  0  0  0  0  0  0
    0.7178    0.7571   -2.6428 H   0  0  0  0  0  0  0  0  0  0  0  0
    0.4816   -0.3400   -0.4188 H   0  0  0  0  0  0  0  0  0  0  0  0
    2.4145   -0.1979   -0.6045 H   0  0  0  0  0  0  0  0  0  0  0  0
  1  2  1  0
  1  5  1  0
  2  3  1  0
  2 13  1  0
  3  4  2  0
  3  6  1  0
  4  5  1  0
  5  7  1  0
  8  9  1  0
  8 12  1  0
  9 10  2  0
  9 14  1  0
 10 11  2  0
M  CHG  2   1  -1   4   1
M  RAD  1  11   2
M  END
>  <reaction>  (7) 
kfir_rxn_9248

>  <mol_properties>  (7) 
{"1": {"label": "*1", "atom_type": "N3s"}, "2": {"label": "*0", "atom_type": "Cd"}, "8": {"label": "*3", "atom_type": "Cd"}, "9": {"label": "*4", "atom_type": "Cdd"}, "12": {"label": "*2", "atom_type": "H0"}}

>  <type>  (7) 
unop_3

>  <geom_source>  (7) 
Heuristics

$$$$

     RDKit          3D

 14 13  0  0  0  0  0  0  0  0999 V2000
   -1.6166   -0.5114   -0.2139 N   0  0  0  0  0  2  0  0  0  0  0  0
   -0.4241   -0.9344    0.0853 N   0  0  0  0  0  0  0  0  0  0  0  0
   -0.3471   -1.4506    1.3384 C   0  0  0  0  0  0  0  0  0  0  0  0
   -1.6030   -1.3664    1.9352 C   0  0  0  0  0  3  0  0  0  0  0  0
   -2.2758   -0.7848    0.9008 N   0  0  0  0  0  0  0  0  0  0  0  0
    0.5855   -1.8369    1.7126 H   0  0  0  0  0  0  0  0  0  0  0  0
   -3.2513   -0.5366    0.9028 H   0  0  0  0  0  0  0  0  0  0  0  0
    1.5407    0.3161   -2.2850 O   0  0  0  0  0  0  0  0  0  0  0  0
    1.5407    0.3161   -0.8845 C   0  0  0  0  0  0  0  0  0  0  0  0
    1.5407    1.6726   -0.3103 C   0  0  0  0  0  0  0  0  0  0  0  0
    1.5116    2.7336    0.1234 N   0  0  0  0  0  2  0  0  0  0  0  0
    0.7529    0.7615   -2.6031 H   0  0  0  0  0  0  0  0  0  0  0  0
    0.5167   -0.3356   -0.3791 H   0  0  0  0  0  0  0  0  0  0  0  0
    2.4496   -0.1935   -0.5647 H   0  0  0  0  0  0  0  0  0  0  0  0
  1  2  1  0
  1  5  1  0
  2  3  1  0
  2 13  1  0
  3  4  2  0
  3  6  1  0
  4  5  1  0
  5  7  1  0
  8  9  1  0
  8 12  1  0
  9 10  2  0
  9 14  1  0
 10 11  2  0
M  CHG  2   1  -1   4   1
M  RAD  1  11   2
M  END
>  <reaction>  (8) 
kfir_rxn_9248

>  <mol_properties>  (8) 
{"1": {"label": "*1", "atom_type": "N3s"}, "2": {"label": "*0", "atom_type": "Cd"}, "8": {"label": "*3", "atom_type": "Cd"}, "9": {"label": "*4", "atom_type": "Cdd"}, "12": {"label": "*2", "atom_type": "H0"}}

>  <type>  (8) 
unop_4

>  <geom_source>  (8) 
Heuristics

$$$$

     RDKit          3D

 14 13  0  0  0  0  0  0  0  0999 V2000
   -0.5397   -0.7453    1.4744 N   0  0  0  0  0  2  0  0  0  0  0  0
   -0.4427   -0.6836    0.1793 N   0  0  0  0  0  0  0  0  0  0  0  0
   -1.4545   -1.3276   -0.4562 C   0  0  0  0  0  0  0  0  0  0  0  0
   -2.3093   -1.8716    0.4998 C   0  0  0  0  0  3  0  0  0  0  0  0
   -1.6498   -1.4518    1.6177 N   0  0  0  0  0  0  0  0  0  0  0  0
   -1.4944   -1.3529   -1.5318 H   0  0  0  0  0  0  0  0  0  0  0  0
   -1.9328   -1.6319    2.5667 H   0  0  0  0  0  0  0  0  0  0  0  0
    1.5221    0.5669   -2.1911 O   0  0  0  0  0  0  0  0  0  0  0  0
    1.5221    0.5669   -0.7905 C   0  0  0  0  0  0  0  0  0  0  0  0
    1.5221    1.9234   -0.2164 C   0  0  0  0  0  0  0  0  0  0  0  0
    1.4930    2.9845    0.2174 N   0  0  0  0  0  2  0  0  0  0  0  0
    0.7343    1.0123   -2.5091 H   0  0  0  0  0  0  0  0  0  0  0  0
    0.4982   -0.0848   -0.2851 H   0  0  0  0  0  0  0  0  0  0  0  0
    2.4311    0.0574   -0.4708 H   0  0  0  0  0  0  0  0  0  0  0  0
  1  2  1  0
  1  5  1  0
  2  3  1  0
  2 13  1  0
  3  4  2  0
  3  6  1  0
  4  5  1  0
  5  7  1  0
  8  9  1  0
  8 12  1  0
  9 10  2  0
  9 14  1  0
 10 11  2  0
M  CHG  2   1  -1   4   1
M  RAD  1  11   2
M  END
>  <reaction>  (9) 
kfir_rxn_9248

>  <mol_properties>  (9) 
{"1": {"label": "*1", "atom_type": "N3s"}, "2": {"label": "*0", "atom_type": "Cd"}, "8": {"label": "*3", "atom_type": "Cd"}, "9": {"label": "*4", "atom_type": "Cdd"}, "12": {"label": "*2", "atom_type": "H0"}}

>  <type>  (9) 
unop_5

>  <geom_source>  (9) 
Heuristics

$$$$

     RDKit          3D

 14 13  0  0  0  0  0  0  0  0999 V2000
   -1.6507   -0.2302    0.1968 N   0  0  0  0  0  2  0  0  0  0  0  0
   -0.5621   -0.9021   -0.0354 N   0  0  0  0  0  0  0  0  0  0  0  0
   -0.2462   -1.7574    0.9702 C   0  0  0  0  0  0  0  0  0  0  0  0
   -1.2111   -1.6499    1.9691 C   0  0  0  0  0  3  0  0  0  0  0  0
   -1.9976   -0.7012    1.3841 N   0  0  0  0  0  0  0  0  0  0  0  0
    0.6332   -2.3752    0.9046 H   0  0  0  0  0  0  0  0  0  0  0  0
   -2.8390   -0.3140    1.7782 H   0  0  0  0  0  0  0  0  0  0  0  0
    1.4027    0.3484   -2.4058 O   0  0  0  0  0  0  0  0  0  0  0  0
    1.4027    0.3484   -1.0052 C   0  0  0  0  0  0  0  0  0  0  0  0
    1.4027    1.7049   -0.4310 C   0  0  0  0  0  0  0  0  0  0  0  0
    1.3736    2.7659    0.0027 N   0  0  0  0  0  2  0  0  0  0  0  0
    0.6149    0.7938   -2.7238 H   0  0  0  0  0  0  0  0  0  0  0  0
    0.3788   -0.3033   -0.4998 H   0  0  0  0  0  0  0  0  0  0  0  0
    2.3117   -0.1612   -0.6855 H   0  0  0  0  0  0  0  0  0  0  0  0
  1  2  1  0
  1  5  1  0
  2  3  1  0
  2 13  1  0
  3  4  2  0
  3  6  1  0
  4  5  1  0
  5  7  1  0
  8  9  1  0
  8 12  1  0
  9 10  2  0
  9 14  1  0
 10 11  2  0
M  CHG  2   1  -1   4   1
M  RAD  1  11   2
M  END
>  <reaction>  (10) 
kfir_rxn_9248

>  <mol_properties>  (10) 
{"1": {"label": "*1", "atom_type": "N3s"}, "2": {"label": "*0", "atom_type": "Cd"}, "8": {"label": "*3", "atom_type": "Cd"}, "9": {"label": "*4", "atom_type": "Cdd"}, "12": {"label": "*2", "atom_type": "H0"}}

>  <type>  (10) 
unop_6

>  <geom_source>  (10) 
Heuristics

$$$$

     RDKit          3D

 14 13  0  0  0  0  0  0  0  0999 V2000
   -1.5053   -0.0977    0.7027 N   0  0  0  0  0  2  0  0  0  0  0  0
   -0.6862   -0.7583   -0.0610 N   0  0  0  0  0  0  0  0  0  0  0  0
   -0.3377   -1.9632    0.4580 C   0  0  0  0  0  0  0  0  0  0  0  0
   -0.9818   -2.1265    1.6823 C   0  0  0  0  0  3  0  0  0  0  0  0
   -1.6514   -0.9385    1.7145 N   0  0  0  0  0  0  0  0  0  0  0  0
    0.3365   -2.6119   -0.0746 H   0  0  0  0  0  0  0  0  0  0  0  0
   -2.2622   -0.6305    2.4528 H   0  0  0  0  0  0  0  0  0  0  0  0
    1.2786    0.4922   -2.4313 O   0  0  0  0  0  0  0  0  0  0  0  0
    1.2786    0.4922   -1.0308 C   0  0  0  0  0  0  0  0  0  0  0  0
    1.2786    1.8487   -0.4566 C   0  0  0  0  0  0  0  0  0  0  0  0
    1.2494    2.9097   -0.0229 N   0  0  0  0  0  2  0  0  0  0  0  0
    0.4908    0.9376   -2.7494 H   0  0  0  0  0  0  0  0  0  0  0  0
    0.2546   -0.1595   -0.5254 H   0  0  0  0  0  0  0  0  0  0  0  0
    2.1875   -0.0174   -0.7110 H   0  0  0  0  0  0  0  0  0  0  0  0
  1  2  1  0
  1  5  1  0
  2  3  1  0
  2 13  1  0
  3  4  2  0
  3  6  1  0
  4  5  1  0
  5  7  1  0
  8  9  1  0
  8 12  1  0
  9 10  2  0
  9 14  1  0
 10 11  2  0
M  CHG  2   1  -1   4   1
M  RAD  1  11   2
M  END
>  <reaction>  (11) 
kfir_rxn_9248

>  <mol_properties>  (11) 
{"1": {"label": "*1", "atom_type": "N3s"}, "2": {"label": "*0", "atom_type": "Cd"}, "8": {"label": "*3", "atom_type": "Cd"}, "9": {"label": "*4", "atom_type": "Cdd"}, "12": {"label": "*2", "atom_type": "H0"}}

>  <type>  (11) 
unop_7

>  <geom_source>  (11) 
Heuristics

$$$$

     RDKit          3D

 14 13  0  0  0  0  0  0  0  0999 V2000
   -0.5434   -1.9699    0.1968 N   0  0  0  0  0  2  0  0  0  0  0  0
   -0.6912   -0.6992   -0.0354 N   0  0  0  0  0  0  0  0  0  0  0  0
   -1.3323   -0.0509    0.9702 C   0  0  0  0  0  0  0  0  0  0  0  0
   -1.6435   -0.9706    1.9691 C   0  0  0  0  0  3  0  0  0  0  0  0
   -1.1170   -2.0848    1.3841 N   0  0  0  0  0  0  0  0  0  0  0  0
   -1.5196    1.0073    0.9046 H   0  0  0  0  0  0  0  0  0  0  0  0
   -1.1225   -3.0110    1.7782 H   0  0  0  0  0  0  0  0  0  0  0  0
    1.2736    0.5513   -2.4058 O   0  0  0  0  0  0  0  0  0  0  0  0
    1.2736    0.5513   -1.0052 C   0  0  0  0  0  0  0  0  0  0  0  0
    1.2736    1.9078   -0.4310 C   0  0  0  0  0  0  0  0  0  0  0  0
    1.2444    2.9688    0.0027 N   0  0  0  0  0  2  0  0  0  0  0  0
    0.4858    0.9967   -2.7238 H   0  0  0  0  0  0  0  0  0  0  0  0
    0.2496   -0.1004   -0.4998 H   0  0  0  0  0  0  0  0  0  0  0  0
    2.1825    0.0418   -0.6855 H   0  0  0  0  0  0  0  0  0  0  0  0
  1  2  1  0
  1  5  1  0
  2  3  1  0
  2 13  1  0
  3  4  2  0
  3  6  1  0
  4  5  1  0
  5  7  1  0
  8  9  1  0
  8 12  1  0
  9 10  2  0
  9 14  1  0
 10 11  2  0
M  CHG  2   1  -1   4   1
M  RAD  1  11   2
M  END
>  <reaction>  (12) 
kfir_rxn_9248

>  <mol_properties>  (12) 
{"1": {"label": "*1", "atom_type": "N3s"}, "2": {"label": "*0", "atom_type": "Cd"}, "8": {"label": "*3", "atom_type": "Cd"}, "9": {"label": "*4", "atom_type": "Cdd"}, "12": {"label": "*2", "atom_type": "H0"}}

>  <type>  (12) 
unop_8

>  <geom_source>  (12) 
Heuristics

$$$$

     RDKit          3D

 14 13  0  0  0  0  0  0  0  0999 V2000
   -1.4579   -0.8533   -0.4642 N   0  0  0  0  0  2  0  0  0  0  0  0
   -0.3550   -0.8338    0.2240 N   0  0  0  0  0  0  0  0  0  0  0  0
   -0.5445   -1.1441    1.5318 C   0  0  0  0  0  0  0  0  0  0  0  0
   -1.8987   -1.3950    1.7408 C   0  0  0  0  0  3  0  0  0  0  0  0
   -2.3381   -1.1874    0.4661 N   0  0  0  0  0  0  0  0  0  0  0  0
    0.2884   -1.1642    2.2137 H   0  0  0  0  0  0  0  0  0  0  0  0
   -3.2924   -1.2657    0.1558 H   0  0  0  0  0  0  0  0  0  0  0  0
    1.6098    0.4167   -2.1463 O   0  0  0  0  0  0  0  0  0  0  0  0
    1.6098    0.4167   -0.7458 C   0  0  0  0  0  0  0  0  0  0  0  0
    1.6098    1.7732   -0.1716 C   0  0  0  0  0  0  0  0  0  0  0  0
    1.5806    2.8342    0.2622 N   0  0  0  0  0  2  0  0  0  0  0  0
    0.8220    0.8621   -2.4643 H   0  0  0  0  0  0  0  0  0  0  0  0
    0.5858   -0.2350   -0.2404 H   0  0  0  0  0  0  0  0  0  0  0  0
    2.5187   -0.0928   -0.4260 H   0  0  0  0  0  0  0  0  0  0  0  0
  1  2  1  0
  1  5  1  0
  2  3  1  0
  2 13  1  0
  3  4  2  0
  3  6  1  0
  4  5  1  0
  5  7  1  0
  8  9  1  0
  8 12  1  0
  9 10  2  0
  9 14  1  0
 10 11  2  0
M  CHG  2   1  -1   4   1
M  RAD  1  11   2
M  END
>  <reaction>  (13) 
kfir_rxn_9248

>  <mol_properties>  (13) 
{"1": {"label": "*1", "atom_type": "N3s"}, "2": {"label": "*0", "atom_type": "Cd"}, "8": {"label": "*3", "atom_type": "Cd"}, "9": {"label": "*4", "atom_type": "Cdd"}, "12": {"label": "*2", "atom_type": "H0"}}

>  <type>  (13) 
unop_9

>  <geom_source>  (13) 
Heuristics

$$$$

     RDKit          3D

 14 13  0  0  0  0  0  0  0  0999 V2000
   -0.7838   -1.8200   -0.2139 N   0  0  0  0  0  2  0  0  0  0  0  0
   -0.6621   -0.5606    0.0853 N   0  0  0  0  0  0  0  0  0  0  0  0
   -1.0971   -0.2723    1.3384 C   0  0  0  0  0  0  0  0  0  0  0  0
   -1.5526   -1.4456    1.9352 C   0  0  0  0  0  3  0  0  0  0  0  0
   -1.3106   -2.3014    0.9008 N   0  0  0  0  0  0  0  0  0  0  0  0
   -1.0522    0.7362    1.7126 H   0  0  0  0  0  0  0  0  0  0  0  0
   -1.4988   -3.2902    0.9028 H   0  0  0  0  0  0  0  0  0  0  0  0
    1.3027    0.6899   -2.2850 O   0  0  0  0  0  0  0  0  0  0  0  0
    1.3027    0.6899   -0.8845 C   0  0  0  0  0  0  0  0  0  0  0  0
    1.3027    2.0465   -0.3103 C   0  0  0  0  0  0  0  0  0  0  0  0
    1.2736    3.1075    0.1234 N   0  0  0  0  0  2  0  0  0  0  0  0
    0.5149    1.1354   -2.6031 H   0  0  0  0  0  0  0  0  0  0  0  0
    0.2788    0.0382   -0.3791 H   0  0  0  0  0  0  0  0  0  0  0  0
    2.2117    0.1804   -0.5647 H   0  0  0  0  0  0  0  0  0  0  0  0
  1  2  1  0
  1  5  1  0
  2  3  1  0
  2 13  1  0
  3  4  2  0
  3  6  1  0
  4  5  1  0
  5  7  1  0
  8  9  1  0
  8 12  1  0
  9 10  2  0
  9 14  1  0
 10 11  2  0
M  CHG  2   1  -1   4   1
M  RAD  1  11   2
M  END
>  <reaction>  (14) 
kfir_rxn_9248

>  <mol_properties>  (14) 
{"1": {"label": "*1", "atom_type": "N3s"}, "2": {"label": "*0", "atom_type": "Cd"}, "8": {"label": "*3", "atom_type": "Cd"}, "9": {"label": "*4", "atom_type": "Cdd"}, "12": {"label": "*2", "atom_type": "H0"}}

>  <type>  (14) 
unop_10

>  <geom_source>  (14) 
Heuristics

$$$$

     RDKit          3D

 14 13  0  0  0  0  0  0  0  0999 V2000
   -1.1371   -0.1984    1.1983 N   0  0  0  0  0  2  0  0  0  0  0  0
   -0.6809   -0.5905    0.0456 N   0  0  0  0  0  0  0  0  0  0  0  0
   -0.7219   -1.9387   -0.1064 C   0  0  0  0  0  0  0  0  0  0  0  0
   -1.2545   -2.5037    1.0502 C   0  0  0  0  0  3  0  0  0  0  0  0
   -1.4624   -1.3544    1.7550 N   0  0  0  0  0  0  0  0  0  0  0  0
   -0.3732   -2.3957   -1.0167 H   0  0  0  0  0  0  0  0  0  0  0  0
   -1.8496   -1.2983    2.6824 H   0  0  0  0  0  0  0  0  0  0  0  0
    1.2839    0.6600   -2.3248 O   0  0  0  0  0  0  0  0  0  0  0  0
    1.2839    0.6600   -0.9242 C   0  0  0  0  0  0  0  0  0  0  0  0
    1.2839    2.0165   -0.3500 C   0  0  0  0  0  0  0  0  0  0  0  0
    1.2548    3.0775    0.0837 N   0  0  0  0  0  2  0  0  0  0  0  0
    0.4961    1.1054   -2.6428 H   0  0  0  0  0  0  0  0  0  0  0  0
    0.2599    0.0083   -0.4188 H   0  0  0  0  0  0  0  0  0  0  0  0
    2.1929    0.1505   -0.6045 H   0  0  0  0  0  0  0  0  0  0  0  0
  1  2  1  0
  1  5  1  0
  2  3  1  0
  2 13  1  0
  3  4  2  0
  3  6  1  0
  4  5  1  0
  5  7  1  0
  8  9  1  0
  8 12  1  0
  9 10  2  0
  9 14  1  0
 10 11  2  0
M  CHG  2   1  -1   4   1
M  RAD  1  11   2
M  END
>  <reaction>  (15) 
kfir_rxn_9248

>  <mol_properties>  (15) 
{"1": {"label": "*1", "atom_type": "N3s"}, "2": {"label": "*0", "atom_type": "Cd"}, "8": {"label": "*3", "atom_type": "Cd"}, "9": {"label": "*4", "atom_type": "Cdd"}, "12": {"label": "*2", "atom_type": "H0"}}

>  <type>  (15) 
unop_11

>  <geom_source>  (15) 
Heuristics

$$$$

     RDKit          3D

 14 13  0  0  0  0  0  0  0  0999 V2000
   -1.2489   -1.1967   -0.5444 N   0  0  0  0  0  2  0  0  0  0  0  0
   -0.4051   -0.6596    0.2863 N   0  0  0  0  0  0  0  0  0  0  0  0
   -0.7373   -0.8711    1.5853 C   0  0  0  0  0  0  0  0  0  0  0  0
   -1.9119   -1.6187    1.6309 C   0  0  0  0  0  3  0  0  0  0  0  0
   -2.1167   -1.7490    0.2886 N   0  0  0  0  0  0  0  0  0  0  0  0
   -0.1214   -0.4791    2.3765 H   0  0  0  0  0  0  0  0  0  0  0  0
   -2.8843   -2.2375   -0.1418 H   0  0  0  0  0  0  0  0  0  0  0  0
    1.5597    0.5908   -2.0841 O   0  0  0  0  0  0  0  0  0  0  0  0
    1.5597    0.5908   -0.6835 C   0  0  0  0  0  0  0  0  0  0  0  0
    1.5597    1.9474   -0.1094 C   0  0  0  0  0  0  0  0  0  0  0  0
    1.5306    3.0084    0.3244 N   0  0  0  0  0  2  0  0  0  0  0  0
    0.7719    1.0363   -2.4021 H   0  0  0  0  0  0  0  0  0  0  0  0
    0.5358   -0.0608   -0.1781 H   0  0  0  0  0  0  0  0  0  0  0  0
    2.4687    0.0813   -0.3638 H   0  0  0  0  0  0  0  0  0  0  0  0
  1  2  1  0
  1  5  1  0
  2  3  1  0
  2 13  1  0
  3  4  2  0
  3  6  1  0
  4  5  1  0
  5  7  1  0
  8  9  1  0
  8 12  1  0
  9 10  2  0
  9 14  1  0
 10 11  2  0
M  CHG  2   1  -1   4   1
M  RAD  1  11   2
M  END
>  <reaction>  (16) 
kfir_rxn_9248

>  <mol_properties>  (16) 
{"1": {"label": "*1", "atom_type": "N3s"}, "2": {"label": "*0", "atom_type": "Cd"}, "8": {"label": "*3", "atom_type": "Cd"}, "9": {"label": "*4", "atom_type": "Cdd"}, "12": {"label": "*2", "atom_type": "H0"}}

>  <type>  (16) 
unop_12

>  <geom_source>  (16) 
Heuristics

$$$$
