
     RDKit          3D

  7  6  0  0  0  0  0  0  0  0999 V2000
   -0.6468   -0.0443   -0.0231 C   0  0  0  0  0  0  0  0  0  0  0  0
    0.8470    0.0371    0.0688 C   0  0  0  0  0  0  0  0  0  0  0  0
    1.4866   -0.2280    1.0479 O   0  0  0  0  0  0  0  0  0  0  0  0
   -1.0466    0.9363   -0.2943 H   0  0  0  0  0  0  0  0  0  0  0  0
   -0.9229   -0.7318   -0.8269 H   0  0  0  0  0  0  0  0  0  0  0  0
   -1.0759   -0.3772    0.9198 H   0  0  0  0  0  0  0  0  0  0  0  0
    1.3584    0.3712   -0.8589 H   0  0  0  0  0  0  0  0  0  0  0  0
  1  2  1  0
  1  4  1  0
  1  5  1  0
  1  6  1  0
  2  3  2  0
  2  7  1  0
M  END
>  <reaction>  (1) 
kfir_rxn_7559

>  <mol_properties>  (1) 
{"0": {"label": "donator", "atom_type": "Cs"}, "3": {"label": "d_hydrogen", "atom_type": "H0"}}

>  <type>  (1) 
r1h

$$$$

     RDKit          3D

  7  6  0  0  0  0  0  0  0  0999 V2000
   -0.9673   -0.4220   -0.0861 N   0  0  0  0  0  0  0  0  0  0  0  0
    0.0644    0.4819   -0.0689 C   0  0  0  0  0  0  0  0  0  0  0  0
    1.2979    0.2151    0.0008 N   0  0  0  0  0  2  0  0  0  0  0  0
   -0.3128    1.8792   -0.1935 C   0  0  0  0  0  0  0  0  0  0  0  0
   -0.6166    2.9819   -0.2750 N   0  0  0  0  0  0  0  0  0  0  0  0
   -0.7341   -1.3660    0.1717 H   0  0  0  0  0  0  0  0  0  0  0  0
   -1.8696   -0.0956    0.2138 H   0  0  0  0  0  0  0  0  0  0  0  0
  1  2  1  0
  1  6  1  0
  1  7  1  0
  2  4  1  0
  2  3  2  0
  4  5  3  0
M  RAD  1   3   2
M  END
>  <reaction>  (2) 
kfir_rxn_7559

>  <mol_properties>  (2) 
{"2": {"label": "acceptor", "atom_type": "N3d"}}

>  <type>  (2) 
r2

$$$$

     RDKit          3D

  8  7  0  0  0  0  0  0  0  0999 V2000
   -1.1291   -0.3823    0.4003 N   0  0  0  0  0  0  0  0  0  0  0  0
    0.1759   -0.1441    0.0995 C   0  0  0  0  0  0  0  0  0  0  0  0
    1.1163   -0.9238    0.4406 N   0  0  0  0  0  0  0  0  0  0  0  0
    0.4005    1.1061   -0.6210 C   0  0  0  0  0  0  0  0  0  0  0  0
    0.6143    2.0747   -1.1970 N   0  0  0  0  0  0  0  0  0  0  0  0
   -1.8553    0.1184   -0.0761 H   0  0  0  0  0  0  0  0  0  0  0  0
   -1.3455   -1.2858    0.7840 H   0  0  0  0  0  0  0  0  0  0  0  0
    2.0230   -0.5632    0.1698 H   0  0  0  0  0  0  0  0  0  0  0  0
  1  2  1  0
  1  6  1  0
  1  7  1  0
  2  4  1  0
  2  3  2  3
  3  8  1  0
  4  5  3  0
M  END
>  <reaction>  (3) 
kfir_rxn_7559

>  <mol_properties>  (3) 
{"2": {"label": "acceptor", "atom_type": "N3d"}, "7": {"label": "a_hydrogen", "atom_type": "H0"}}

>  <type>  (3) 
r2h

$$$$

     RDKit          3D

 14 12  0  0  0  0  0  0  0  0999 V2000
   -2.3297   -0.0271    1.7709 N   0  0  0  0  0  0  0  0  0  0  0  0
   -1.1235    0.1240    1.1495 C   0  0  0  0  0  0  0  0  0  0  0  0
   -0.6813    1.2477    0.7548 N   0  0  0  0  0  2  0  0  0  0  0  0
   -0.3675   -1.1144    1.0144 C   0  0  0  0  0  0  0  0  0  0  0  0
    0.2287   -2.0863    0.8917 N   0  0  0  0  0  0  0  0  0  0  0  0
   -2.9446    0.7688    1.7583 H   0  0  0  0  0  0  0  0  0  0  0  0
   -2.7560   -0.9364    1.7855 H   0  0  0  0  0  0  0  0  0  0  0  0
    1.7160    0.9376   -0.1849 C   0  0  0  0  0  0  0  0  0  0  0  0
    1.5520    0.3797   -1.5410 C   0  0  0  0  0  0  0  0  0  0  0  0
    1.5722    1.0440   -2.5464 O   0  0  0  0  0  0  0  0  0  0  0  0
    0.5163    1.1235    0.2467 H   0  0  0  0  0  0  0  0  0  0  0  0
    2.1561    0.2584    0.5417 H   0  0  0  0  0  0  0  0  0  0  0  0
    2.1118    1.9500   -0.1635 H   0  0  0  0  0  0  0  0  0  0  0  0
    1.3783   -0.7129   -1.5908 H   0  0  0  0  0  0  0  0  0  0  0  0
  1  2  1  0
  1  6  1  0
  1  7  1  0
  2  4  1  0
  2  3  2  0
  4  5  3  0
  8  9  1  0
  8 11  1  0
  8 12  1  0
  8 13  1  0
  9 10  2  0
  9 14  1  0
M  RAD  1   3   2
M  END
>  <reaction>  (4) 
kfir_rxn_7559

>  <mol_properties>  (4) 
{"1": {"label": "*4", "atom_type": "Cd"}, "2": {"label": "*3", "atom_type": "N3d"}, "7": {"label": "*1", "atom_type": "Cs"}, "8": {"label": "*0", "atom_type": "CO"}, "10": {"label": "*2", "atom_type": "H0"}}

>  <type>  (4) 
ts

$$$$

     RDKit          3D

 14 12  0  0  0  0  0  0  0  0999 V2000
   -1.5701    1.1933    2.2260 N   0  0  0  0  0  0  0  0  0  0  0  0
   -0.8968    0.4666    1.2939 C   0  0  0  0  0  0  0  0  0  0  0  0
   -1.2181    0.4508    0.0669 N   0  0  0  0  0  0  0  0  0  0  0  0
    0.2070   -0.3198    1.8376 C   0  0  0  0  0  0  0  0  0  0  0  0
    1.0884   -0.9423    2.2267 N   0  0  0  0  0  0  0  0  0  0  0  0
   -2.2554    1.8432    1.8821 H   0  0  0  0  0  0  0  0  0  0  0  0
   -1.1579    1.3671    3.1232 H   0  0  0  0  0  0  0  0  0  0  0  0
    0.8108    0.4768   -1.4391 C   0  0  0  0  0  0  0  0  0  0  0  0
    0.8108   -0.7551   -2.2929 C   0  0  0  0  0  0  0  0  0  0  0  0
    0.8108   -0.7551   -3.4920 O   0  0  0  0  0  1  0  0  0  0  0  0
   -0.2424    0.4633   -0.6573 H   0  0  0  0  0  0  0  0  0  0  0  0
    1.6885    0.4655   -0.7876 H   0  0  0  0  0  0  0  0  0  0  0  0
    0.8108    1.3747   -2.0537 H   0  0  0  0  0  0  0  0  0  0  0  0
    0.8108   -1.7151   -1.7342 H   0  0  0  0  0  0  0  0  0  0  0  0
  1  2  1  0
  1  6  1  0
  1  7  1  0
  2  4  1  0
  2  3  2  3
  3 11  1  0
  4  5  3  0
  8  9  2  3
  8 12  1  0
  8 13  1  0
  9 10  1  0
  9 14  1  0
M  RAD  1  10   2
M  END
>  <reaction>  (5) 
kfir_rxn_7559

>  <mol_properties>  (5) 
{"1": {"label": "*4", "atom_type": "Cd"}, "2": {"label": "*3", "atom_type": "N3d"}, "7": {"label": "*1", "atom_type": "Cs"}, "8": {"label": "*0", "atom_type": "CO"}, "10": {"label": "*2", "atom_type": "H0"}}

>  <type>  (5) 
unop_1

>  <geom_source>  (5) 
Heuristics

$$$$

     RDKit          3D

 14 12  0  0  0  0  0  0  0  0999 V2000
   -1.8449   -0.1618    2.2489 N   0  0  0  0  0  0  0  0  0  0  0  0
   -1.0028    0.1241    1.2196 C   0  0  0  0  0  0  0  0  0  0  0  0
   -0.6450    1.3055    0.9282 N   0  0  0  0  0  0  0  0  0  0  0  0
   -0.5752   -1.0473    0.4596 C   0  0  0  0  0  0  0  0  0  0  0  0
   -0.2093   -1.9448   -0.1540 N   0  0  0  0  0  0  0  0  0  0  0  0
   -2.0658    0.5941    2.8737 H   0  0  0  0  0  0  0  0  0  0  0  0
   -1.9194   -1.1004    2.5929 H   0  0  0  0  0  0  0  0  0  0  0  0
    1.3839    1.3315   -0.5779 C   0  0  0  0  0  0  0  0  0  0  0  0
    1.3839    0.0996   -1.4316 C   0  0  0  0  0  0  0  0  0  0  0  0
    1.3839    0.0996   -2.6307 O   0  0  0  0  0  1  0  0  0  0  0  0
    0.3306    1.3180    0.2040 H   0  0  0  0  0  0  0  0  0  0  0  0
    2.2616    1.3202    0.0737 H   0  0  0  0  0  0  0  0  0  0  0  0
    1.3839    2.2294   -1.1924 H   0  0  0  0  0  0  0  0  0  0  0  0
    1.3839   -0.8604   -0.8730 H   0  0  0  0  0  0  0  0  0  0  0  0
  1  2  1  0
  1  6  1  0
  1  7  1  0
  2  4  1  0
  2  3  2  3
  3 11  1  0
  4  5  3  0
  8  9  2  3
  8 12  1  0
  8 13  1  0
  9 10  1  0
  9 14  1  0
M  RAD  1  10   2
M  END
>  <reaction>  (6) 
kfir_rxn_7559

>  <mol_properties>  (6) 
{"1": {"label": "*4", "atom_type": "Cd"}, "2": {"label": "*3", "atom_type": "N3d"}, "7": {"label": "*1", "atom_type": "Cs"}, "8": {"label": "*0", "atom_type": "CO"}, "10": {"label": "*2", "atom_type": "H0"}}

>  <type>  (6) 
unop_2

>  <geom_source>  (6) 
Heuristics

$$$$

     RDKit          3D

 14 12  0  0  0  0  0  0  0  0999 V2000
   -1.9534    1.1342    1.9379 N   0  0  0  0  0  0  0  0  0  0  0  0
   -0.9741    0.5084    1.2311 C   0  0  0  0  0  0  0  0  0  0  0  0
   -1.1904   -0.0929    0.1355 N   0  0  0  0  0  0  0  0  0  0  0  0
    0.3411    0.5617    1.8635 C   0  0  0  0  0  0  0  0  0  0  0  0
    1.3909    0.5923    2.3245 N   0  0  0  0  0  0  0  0  0  0  0  0
   -2.8452    1.2307    1.4842 H   0  0  0  0  0  0  0  0  0  0  0  0
   -1.7145    1.7863    2.6608 H   0  0  0  0  0  0  0  0  0  0  0  0
    0.8385   -0.0668   -1.3706 C   0  0  0  0  0  0  0  0  0  0  0  0
    0.8385   -1.2988   -2.2243 C   0  0  0  0  0  0  0  0  0  0  0  0
    0.8385   -1.2988   -3.4235 O   0  0  0  0  0  1  0  0  0  0  0  0
   -0.2148   -0.0804   -0.5888 H   0  0  0  0  0  0  0  0  0  0  0  0
    1.7162   -0.0781   -0.7190 H   0  0  0  0  0  0  0  0  0  0  0  0
    0.8385    0.8310   -1.9852 H   0  0  0  0  0  0  0  0  0  0  0  0
    0.8385   -2.2588   -1.6657 H   0  0  0  0  0  0  0  0  0  0  0  0
  1  2  1  0
  1  6  1  0
  1  7  1  0
  2  4  1  0
  2  3  2  3
  3 11  1  0
  4  5  3  0
  8  9  2  3
  8 12  1  0
  8 13  1  0
  9 10  1  0
  9 14  1  0
M  RAD  1  10   2
M  END
>  <reaction>  (7) 
kfir_rxn_7559

>  <mol_properties>  (7) 
{"1": {"label": "*4", "atom_type": "Cd"}, "2": {"label": "*3", "atom_type": "N3d"}, "7": {"label": "*1", "atom_type": "Cs"}, "8": {"label": "*0", "atom_type": "CO"}, "10": {"label": "*2", "atom_type": "H0"}}

>  <type>  (7) 
unop_3

>  <geom_source>  (7) 
Heuristics

$$$$

     RDKit          3D

 14 12  0  0  0  0  0  0  0  0999 V2000
   -2.2707    1.0921    1.3792 N   0  0  0  0  0  0  0  0  0  0  0  0
   -1.1454    0.4370    0.9858 C   0  0  0  0  0  0  0  0  0  0  0  0
   -0.0644    0.4626    1.6487 N   0  0  0  0  0  0  0  0  0  0  0  0
   -1.2833   -0.2698   -0.2846 C   0  0  0  0  0  0  0  0  0  0  0  0
   -1.3575   -0.8459   -1.2738 N   0  0  0  0  0  0  0  0  0  0  0  0
   -2.2622    1.4875    2.3033 H   0  0  0  0  0  0  0  0  0  0  0  0
   -3.1559    0.8648    0.9672 H   0  0  0  0  0  0  0  0  0  0  0  0
    1.9645    0.4886    0.1426 C   0  0  0  0  0  0  0  0  0  0  0  0
    1.9645   -0.7433   -0.7111 C   0  0  0  0  0  0  0  0  0  0  0  0
    1.9645   -0.7433   -1.9103 O   0  0  0  0  0  1  0  0  0  0  0  0
    0.9113    0.4751    0.9245 H   0  0  0  0  0  0  0  0  0  0  0  0
    2.8422    0.4773    0.7942 H   0  0  0  0  0  0  0  0  0  0  0  0
    1.9645    1.3865   -0.4720 H   0  0  0  0  0  0  0  0  0  0  0  0
    1.9645   -1.7033   -0.1525 H   0  0  0  0  0  0  0  0  0  0  0  0
  1  2  1  0
  1  6  1  0
  1  7  1  0
  2  4  1  0
  2  3  2  3
  3 11  1  0
  4  5  3  0
  8  9  2  3
  8 12  1  0
  8 13  1  0
  9 10  1  0
  9 14  1  0
M  RAD  1  10   2
M  END
>  <reaction>  (8) 
kfir_rxn_7559

>  <mol_properties>  (8) 
{"1": {"label": "*4", "atom_type": "Cd"}, "2": {"label": "*3", "atom_type": "N3d"}, "7": {"label": "*1", "atom_type": "Cs"}, "8": {"label": "*0", "atom_type": "CO"}, "10": {"label": "*2", "atom_type": "H0"}}

>  <type>  (8) 
unop_4

>  <geom_source>  (8) 
Heuristics

$$$$

     RDKit          3D

 14 12  0  0  0  0  0  0  0  0999 V2000
   -1.9733    0.6490    2.1767 N   0  0  0  0  0  0  0  0  0  0  0  0
   -1.0049    0.4604    1.2403 C   0  0  0  0  0  0  0  0  0  0  0  0
   -0.9565   -0.5640    0.4940 N   0  0  0  0  0  0  0  0  0  0  0  0
   -0.0074    1.5260    1.1948 C   0  0  0  0  0  0  0  0  0  0  0  0
    0.7883    2.3490    1.1226 N   0  0  0  0  0  0  0  0  0  0  0  0
   -2.7469    0.0074    2.1605 H   0  0  0  0  0  0  0  0  0  0  0  0
   -2.1165    1.5567    2.5775 H   0  0  0  0  0  0  0  0  0  0  0  0
    1.0724   -0.5379   -1.0121 C   0  0  0  0  0  0  0  0  0  0  0  0
    1.0724   -1.7698   -1.8658 C   0  0  0  0  0  0  0  0  0  0  0  0
    1.0724   -1.7698   -3.0650 O   0  0  0  0  0  1  0  0  0  0  0  0
    0.0192   -0.5514   -0.2303 H   0  0  0  0  0  0  0  0  0  0  0  0
    1.9501   -0.5492   -0.3605 H   0  0  0  0  0  0  0  0  0  0  0  0
    1.0724    0.3600   -1.6267 H   0  0  0  0  0  0  0  0  0  0  0  0
    1.0724   -2.7298   -1.3072 H   0  0  0  0  0  0  0  0  0  0  0  0
  1  2  1  0
  1  6  1  0
  1  7  1  0
  2  4  1  0
  2  3  2  3
  3 11  1  0
  4  5  3  0
  8  9  2  3
  8 12  1  0
  8 13  1  0
  9 10  1  0
  9 14  1  0
M  RAD  1  10   2
M  END
>  <reaction>  (9) 
kfir_rxn_7559

>  <mol_properties>  (9) 
{"1": {"label": "*4", "atom_type": "Cd"}, "2": {"label": "*3", "atom_type": "N3d"}, "7": {"label": "*1", "atom_type": "Cs"}, "8": {"label": "*0", "atom_type": "CO"}, "10": {"label": "*2", "atom_type": "H0"}}

>  <type>  (9) 
unop_5

>  <geom_source>  (9) 
Heuristics

$$$$

     RDKit          3D

 14 12  0  0  0  0  0  0  0  0999 V2000
   -1.8786    1.4171    1.7165 N   0  0  0  0  0  0  0  0  0  0  0  0
   -1.0725    0.5451    1.0532 C   0  0  0  0  0  0  0  0  0  0  0  0
   -0.0743   -0.0204    1.5942 N   0  0  0  0  0  0  0  0  0  0  0  0
   -1.4387    0.3448   -0.3462 C   0  0  0  0  0  0  0  0  0  0  0  0
   -1.7026    0.1540   -1.4461 N   0  0  0  0  0  0  0  0  0  0  0  0
   -1.7419    1.4911    2.7095 H   0  0  0  0  0  0  0  0  0  0  0  0
   -2.7759    1.6592    1.3405 H   0  0  0  0  0  0  0  0  0  0  0  0
    1.9546    0.0056    0.0881 C   0  0  0  0  0  0  0  0  0  0  0  0
    1.9546   -1.2263   -0.7656 C   0  0  0  0  0  0  0  0  0  0  0  0
    1.9546   -1.2263   -1.9648 O   0  0  0  0  0  1  0  0  0  0  0  0
    0.9013   -0.0079    0.8699 H   0  0  0  0  0  0  0  0  0  0  0  0
    2.8323   -0.0056    0.7397 H   0  0  0  0  0  0  0  0  0  0  0  0
    1.9546    0.9035   -0.5265 H   0  0  0  0  0  0  0  0  0  0  0  0
    1.9546   -2.1863   -0.2070 H   0  0  0  0  0  0  0  0  0  0  0  0
  1  2  1  0
  1  6  1  0
  1  7  1  0
  2  4  1  0
  2  3  2  3
  3 11  1  0
  4  5  3  0
  8  9  2  3
  8 12  1  0
  8 13  1  0
  9 10  1  0
  9 14  1  0
M  RAD  1  10   2
M  END
>  <reaction>  (10) 
kfir_rxn_7559

>  <mol_properties>  (10) 
{"1": {"label": "*4", "atom_type": "Cd"}, "2": {"label": "*3", "atom_type": "N3d"}, "7": {"label": "*1", "atom_type": "Cs"}, "8": {"label": "*0", "atom_type": "CO"}, "10": {"label": "*2", "atom_type": "H0"}}

>  <type>  (10) 
unop_6

>  <geom_source>  (10) 
Heuristics

$$$$

     RDKit          3D

 14 12  0  0  0  0  0  0  0  0999 V2000
   -1.5194    1.3057    2.1708 N   0  0  0  0  0  0  0  0  0  0  0  0
   -0.9901    0.5655    1.1598 C   0  0  0  0  0  0  0  0  0  0  0  0
   -0.2405   -0.4382    1.3584 N   0  0  0  0  0  0  0  0  0  0  0  0
   -1.3343    1.0501   -0.1740 C   0  0  0  0  0  0  0  0  0  0  0  0
   -1.5924    1.3949   -1.2372 N   0  0  0  0  0  0  0  0  0  0  0  0
   -1.4131    0.9396    3.1009 H   0  0  0  0  0  0  0  0  0  0  0  0
   -2.2801    1.9332    1.9907 H   0  0  0  0  0  0  0  0  0  0  0  0
    1.7884   -0.4122   -0.1477 C   0  0  0  0  0  0  0  0  0  0  0  0
    1.7884   -1.6441   -1.0014 C   0  0  0  0  0  0  0  0  0  0  0  0
    1.7884   -1.6441   -2.2006 O   0  0  0  0  0  1  0  0  0  0  0  0
    0.7351   -0.4257    0.6342 H   0  0  0  0  0  0  0  0  0  0  0  0
    2.6661   -0.4235    0.5039 H   0  0  0  0  0  0  0  0  0  0  0  0
    1.7884    0.4857   -0.7623 H   0  0  0  0  0  0  0  0  0  0  0  0
    1.7884   -2.6041   -0.4428 H   0  0  0  0  0  0  0  0  0  0  0  0
  1  2  1  0
  1  6  1  0
  1  7  1  0
  2  4  1  0
  2  3  2  3
  3 11  1  0
  4  5  3  0
  8  9  2  3
  8 12  1  0
  8 13  1  0
  9 10  1  0
  9 14  1  0
M  RAD  1  10   2
M  END
>  <reaction>  (11) 
kfir_rxn_7559

>  <mol_properties>  (11) 
{"1": {"label": "*4", "atom_type": "Cd"}, "2": {"label": "*3", "atom_type": "N3d"}, "7": {"label": "*1", "atom_type": "Cs"}, "8": {"label": "*0", "atom_type": "CO"}, "10": {"label": "*2", "atom_type": "H0"}}

>  <type>  (11) 
unop_7

>  <geom_source>  (11) 
Heuristics

$$$$

     RDKit          3D

 14 12  0  0  0  0  0  0  0  0999 V2000
   -1.3635    0.7858    2.5224 N   0  0  0  0  0  0  0  0  0  0  0  0
   -0.8676    0.3436    1.3355 C   0  0  0  0  0  0  0  0  0  0  0  0
   -1.1059    0.9188    0.2305 N   0  0  0  0  0  0  0  0  0  0  0  0
   -0.0649   -0.8716    1.4432 C   0  0  0  0  0  0  0  0  0  0  0  0
    0.5803   -1.8189    1.4903 N   0  0  0  0  0  0  0  0  0  0  0  0
   -1.8160    1.6834    2.5154 H   0  0  0  0  0  0  0  0  0  0  0  0
   -0.9737    0.4564    3.3853 H   0  0  0  0  0  0  0  0  0  0  0  0
    0.9229    0.9448   -1.2756 C   0  0  0  0  0  0  0  0  0  0  0  0
    0.9229   -0.2871   -2.1293 C   0  0  0  0  0  0  0  0  0  0  0  0
    0.9229   -0.2871   -3.3284 O   0  0  0  0  0  1  0  0  0  0  0  0
   -0.1303    0.9313   -0.4937 H   0  0  0  0  0  0  0  0  0  0  0  0
    1.8006    0.9335   -0.6240 H   0  0  0  0  0  0  0  0  0  0  0  0
    0.9230    1.8427   -1.8901 H   0  0  0  0  0  0  0  0  0  0  0  0
    0.9229   -1.2471   -1.5707 H   0  0  0  0  0  0  0  0  0  0  0  0
  1  2  1  0
  1  6  1  0
  1  7  1  0
  2  4  1  0
  2  3  2  3
  3 11  1  0
  4  5  3  0
  8  9  2  3
  8 12  1  0
  8 13  1  0
  9 10  1  0
  9 14  1  0
M  RAD  1  10   2
M  END
>  <reaction>  (12) 
kfir_rxn_7559

>  <mol_properties>  (12) 
{"1": {"label": "*4", "atom_type": "Cd"}, "2": {"label": "*3", "atom_type": "N3d"}, "7": {"label": "*1", "atom_type": "Cs"}, "8": {"label": "*0", "atom_type": "CO"}, "10": {"label": "*2", "atom_type": "H0"}}

>  <type>  (12) 
unop_8

>  <geom_source>  (12) 
Heuristics

$$$$

     RDKit          3D

 14 12  0  0  0  0  0  0  0  0999 V2000
   -2.4581    0.4805    1.3736 N   0  0  0  0  0  0  0  0  0  0  0  0
   -1.1662    0.2810    0.9973 C   0  0  0  0  0  0  0  0  0  0  0  0
   -0.1902    0.8921    1.5289 N   0  0  0  0  0  0  0  0  0  0  0  0
   -1.0071   -0.6739   -0.0960 C   0  0  0  0  0  0  0  0  0  0  0  0
   -0.8421   -1.4264   -0.9459 N   0  0  0  0  0  0  0  0  0  0  0  0
   -2.6065    1.0320    2.2008 H   0  0  0  0  0  0  0  0  0  0  0  0
   -3.1678   -0.1745    1.1050 H   0  0  0  0  0  0  0  0  0  0  0  0
    1.8387    0.9181    0.0229 C   0  0  0  0  0  0  0  0  0  0  0  0
    1.8387   -0.3138   -0.8309 C   0  0  0  0  0  0  0  0  0  0  0  0
    1.8387   -0.3138   -2.0300 O   0  0  0  0  0  1  0  0  0  0  0  0
    0.7854    0.9046    0.8047 H   0  0  0  0  0  0  0  0  0  0  0  0
    2.7164    0.9068    0.6744 H   0  0  0  0  0  0  0  0  0  0  0  0
    1.8387    1.8160   -0.5917 H   0  0  0  0  0  0  0  0  0  0  0  0
    1.8387   -1.2738   -0.2723 H   0  0  0  0  0  0  0  0  0  0  0  0
  1  2  1  0
  1  6  1  0
  1  7  1  0
  2  4  1  0
  2  3  2  3
  3 11  1  0
  4  5  3  0
  8  9  2  3
  8 12  1  0
  8 13  1  0
  9 10  1  0
  9 14  1  0
M  RAD  1  10   2
M  END
>  <reaction>  (13) 
kfir_rxn_7559

>  <mol_properties>  (13) 
{"1": {"label": "*4", "atom_type": "Cd"}, "2": {"label": "*3", "atom_type": "N3d"}, "7": {"label": "*1", "atom_type": "Cs"}, "8": {"label": "*0", "atom_type": "CO"}, "10": {"label": "*2", "atom_type": "H0"}}

>  <type>  (13) 
unop_9

>  <geom_source>  (13) 
Heuristics

$$$$

     RDKit          3D

 14 12  0  0  0  0  0  0  0  0999 V2000
   -1.4642    0.2188    2.5525 N   0  0  0  0  0  0  0  0  0  0  0  0
   -0.9064    0.2061    1.3120 C   0  0  0  0  0  0  0  0  0  0  0  0
   -0.8962    1.2196    0.5494 N   0  0  0  0  0  0  0  0  0  0  0  0
   -0.3512   -1.0875    0.9238 C   0  0  0  0  0  0  0  0  0  0  0  0
    0.1054   -2.0850    0.5886 N   0  0  0  0  0  0  0  0  0  0  0  0
   -1.7465    1.1145    2.9106 H   0  0  0  0  0  0  0  0  0  0  0  0
   -1.2523   -0.5100    3.2075 H   0  0  0  0  0  0  0  0  0  0  0  0
    1.1327    1.2456   -0.9567 C   0  0  0  0  0  0  0  0  0  0  0  0
    1.1327    0.0137   -1.8104 C   0  0  0  0  0  0  0  0  0  0  0  0
    1.1327    0.0137   -3.0096 O   0  0  0  0  0  1  0  0  0  0  0  0
    0.0794    1.2321   -0.1748 H   0  0  0  0  0  0  0  0  0  0  0  0
    2.0104    1.2343   -0.3051 H   0  0  0  0  0  0  0  0  0  0  0  0
    1.1327    2.1435   -1.5713 H   0  0  0  0  0  0  0  0  0  0  0  0
    1.1327   -0.9463   -1.2518 H   0  0  0  0  0  0  0  0  0  0  0  0
  1  2  1  0
  1  6  1  0
  1  7  1  0
  2  4  1  0
  2  3  2  3
  3 11  1  0
  4  5  3  0
  8  9  2  3
  8 12  1  0
  8 13  1  0
  9 10  1  0
  9 14  1  0
M  RAD  1  10   2
M  END
>  <reaction>  (14) 
kfir_rxn_7559

>  <mol_properties>  (14) 
{"1": {"label": "*4", "atom_type": "Cd"}, "2": {"label": "*3", "atom_type": "N3d"}, "7": {"label": "*1", "atom_type": "Cs"}, "8": {"label": "*0", "atom_type": "CO"}, "10": {"label": "*2", "atom_type": "H0"}}

>  <type>  (14) 
unop_10

>  <geom_source>  (14) 
Heuristics

$$$$

     RDKit          3D

 14 12  0  0  0  0  0  0  0  0999 V2000
   -1.4978    0.8380    2.4488 N   0  0  0  0  0  0  0  0  0  0  0  0
   -0.9564    0.5020    1.2470 C   0  0  0  0  0  0  0  0  0  0  0  0
   -0.5544   -0.6696    0.9744 N   0  0  0  0  0  0  0  0  0  0  0  0
   -0.8481    1.6182    0.3117 C   0  0  0  0  0  0  0  0  0  0  0  0
   -0.7571    2.4681   -0.4534 N   0  0  0  0  0  0  0  0  0  0  0  0
   -1.7061    0.0812    3.0767 H   0  0  0  0  0  0  0  0  0  0  0  0
   -2.0105    1.6937    2.5486 H   0  0  0  0  0  0  0  0  0  0  0  0
    1.4745   -0.6436   -0.5317 C   0  0  0  0  0  0  0  0  0  0  0  0
    1.4745   -1.8755   -1.3854 C   0  0  0  0  0  0  0  0  0  0  0  0
    1.4745   -1.8755   -2.5846 O   0  0  0  0  0  1  0  0  0  0  0  0
    0.4212   -0.6571    0.2502 H   0  0  0  0  0  0  0  0  0  0  0  0
    2.3522   -0.6549    0.1199 H   0  0  0  0  0  0  0  0  0  0  0  0
    1.4745    0.2543   -1.1462 H   0  0  0  0  0  0  0  0  0  0  0  0
    1.4745   -2.8355   -0.8268 H   0  0  0  0  0  0  0  0  0  0  0  0
  1  2  1  0
  1  6  1  0
  1  7  1  0
  2  4  1  0
  2  3  2  3
  3 11  1  0
  4  5  3  0
  8  9  2  3
  8 12  1  0
  8 13  1  0
  9 10  1  0
  9 14  1  0
M  RAD  1  10   2
M  END
>  <reaction>  (15) 
kfir_rxn_7559

>  <mol_properties>  (15) 
{"1": {"label": "*4", "atom_type": "Cd"}, "2": {"label": "*3", "atom_type": "N3d"}, "7": {"label": "*1", "atom_type": "Cs"}, "8": {"label": "*0", "atom_type": "CO"}, "10": {"label": "*2", "atom_type": "H0"}}

>  <type>  (15) 
unop_11

>  <geom_source>  (15) 
Heuristics

$$$$

     RDKit          3D

 14 12  0  0  0  0  0  0  0  0999 V2000
   -2.2842   -0.0644    1.7456 N   0  0  0  0  0  0  0  0  0  0  0  0
   -1.1109    0.1516    1.0922 C   0  0  0  0  0  0  0  0  0  0  0  0
   -0.3995    1.1858    1.2745 N   0  0  0  0  0  0  0  0  0  0  0  0
   -0.7611   -0.8966    0.1376 C   0  0  0  0  0  0  0  0  0  0  0  0
   -0.4481   -1.7054   -0.6132 N   0  0  0  0  0  0  0  0  0  0  0  0
   -2.5031    0.5645    2.4986 H   0  0  0  0  0  0  0  0  0  0  0  0
   -2.6941   -0.9792    1.7554 H   0  0  0  0  0  0  0  0  0  0  0  0
    1.6294    1.2118   -0.2316 C   0  0  0  0  0  0  0  0  0  0  0  0
    1.6294   -0.0201   -1.0853 C   0  0  0  0  0  0  0  0  0  0  0  0
    1.6294   -0.0201   -2.2845 O   0  0  0  0  0  1  0  0  0  0  0  0
    0.5761    1.1983    0.5503 H   0  0  0  0  0  0  0  0  0  0  0  0
    2.5071    1.2006    0.4200 H   0  0  0  0  0  0  0  0  0  0  0  0
    1.6294    2.1097   -0.8462 H   0  0  0  0  0  0  0  0  0  0  0  0
    1.6294   -0.9801   -0.5267 H   0  0  0  0  0  0  0  0  0  0  0  0
  1  2  1  0
  1  6  1  0
  1  7  1  0
  2  4  1  0
  2  3  2  3
  3 11  1  0
  4  5  3  0
  8  9  2  3
  8 12  1  0
  8 13  1  0
  9 10  1  0
  9 14  1  0
M  RAD  1  10   2
M  END
>  <reaction>  (16) 
kfir_rxn_7559

>  <mol_properties>  (16) 
{"1": {"label": "*4", "atom_type": "Cd"}, "2": {"label": "*3", "atom_type": "N3d"}, "7": {"label": "*1", "atom_type": "Cs"}, "8": {"label": "*0", "atom_type": "CO"}, "10": {"label": "*2", "atom_type": "H0"}}

>  <type>  (16) 
unop_12

>  <geom_source>  (16) 
Heuristics

$$$$

     RDKit          3D

 14 12  0  0  0  0  0  0  0  0999 V2000
   -1.8449   -0.1618    2.2489 N   0  0  0  0  0  0  0  0  0  0  0  0
   -1.0028    0.1240    1.2196 C   0  0  0  0  0  0  0  0  0  0  0  0
   -0.6450    1.3055    0.9282 N   0  0  0  0  0  0  0  0  0  0  0  0
   -0.5752   -1.0473    0.4596 C   0  0  0  0  0  0  0  0  0  0  0  0
   -0.2093   -1.9448   -0.1540 N   0  0  0  0  0  0  0  0  0  0  0  0
   -2.0658    0.5940    2.8737 H   0  0  0  0  0  0  0  0  0  0  0  0
   -1.9193   -1.1004    2.5929 H   0  0  0  0  0  0  0  0  0  0  0  0
    1.3839    1.3315   -0.5779 C   0  0  0  0  0  0  0  0  0  0  0  0
    1.3839    0.0996   -1.4316 C   0  0  0  0  0  0  0  0  0  0  0  0
    1.3839    0.0996   -2.6307 O   0  0  0  0  0  1  0  0  0  0  0  0
    0.3306    1.3180    0.2040 H   0  0  0  0  0  0  0  0  0  0  0  0
    2.2616    1.3202    0.0737 H   0  0  0  0  0  0  0  0  0  0  0  0
    1.3839    2.2294   -1.1924 H   0  0  0  0  0  0  0  0  0  0  0  0
    1.3839   -0.8604   -0.8730 H   0  0  0  0  0  0  0  0  0  0  0  0
  1  2  1  0
  1  6  1  0
  1  7  1  0
  2  4  1  0
  2  3  2  3
  3 11  1  0
  4  5  3  0
  8  9  2  3
  8 12  1  0
  8 13  1  0
  9 10  1  0
  9 14  1  0
M  RAD  1  10   2
M  END
>  <reaction>  (17) 
kfir_rxn_7559

>  <mol_properties>  (17) 
{"1": {"label": "*4", "atom_type": "Cd"}, "2": {"label": "*3", "atom_type": "N3d"}, "7": {"label": "*1", "atom_type": "Cs"}, "8": {"label": "*0", "atom_type": "CO"}, "10": {"label": "*2", "atom_type": "H0"}}

>  <type>  (17) 
unop_13

>  <geom_source>  (17) 
gaussian_log

$$$$
