
     RDKit          3D

  7  6  0  0  0  0  0  0  0  0999 V2000
   -1.0240    0.8044   -0.4204 O   0  0  0  0  0  0  0  0  0  0  0  0
   -0.3365   -0.3409    0.0003 C   0  0  0  0  0  0  0  0  0  0  0  0
    1.1270   -0.1767   -0.0328 C   0  0  0  0  0  0  0  0  0  0  0  0
    2.2637   -0.0259   -0.0358 N   0  0  0  0  0  0  0  0  0  0  0  0
   -0.8050    1.5374    0.1584 H   0  0  0  0  0  0  0  0  0  0  0  0
   -0.6168   -0.6523    1.0127 H   0  0  0  0  0  0  0  0  0  0  0  0
   -0.6084   -1.1459   -0.6824 H   0  0  0  0  0  0  0  0  0  0  0  0
  1  2  1  0
  1  5  1  0
  2  3  1  0
  2  6  1  0
  2  7  1  0
  3  4  3  0
M  END
>  <reaction>  (1) 
kfir_rxn_11915

>  <mol_properties>  (1) 
{"0": {"label": "donator", "atom_type": "O2s"}, "4": {"label": "d_hydrogen", "atom_type": "H0"}}

>  <type>  (1) 
r1h

$$$$

     RDKit          3D

  7  7  0  0  0  0  0  0  0  0999 V2000
   -0.5795   -0.9546    0.3448 C   0  0  0  0  0  0  0  0  0  0  0  0
   -1.2349    0.1340   -0.1073 C   0  0  0  0  0  0  0  0  0  0  0  0
   -0.0385    1.1836   -0.7712 S   0  0  0  0  0  0  0  0  0  0  0  0
    1.1783    0.0506   -0.3673 C   0  0  0  0  0  3  0  0  0  0  0  0
    0.7366   -1.0298    0.2176 N   0  0  0  0  0  0  0  0  0  0  0  0
   -2.2819    0.3808   -0.0978 H   0  0  0  0  0  0  0  0  0  0  0  0
    2.2200    0.2353   -0.5878 H   0  0  0  0  0  0  0  0  0  0  0  0
  1  2  2  0
  1  5  2  0
  2  3  1  0
  2  6  1  0
  3  4  1  0
  4  5  1  0
  4  7  1  0
M  RAD  1   4   2
M  END
>  <reaction>  (2) 
kfir_rxn_11915

>  <mol_properties>  (2) 
{"0": {"label": "acceptor", "atom_type": "Cd"}}

>  <type>  (2) 
r2

$$$$

     RDKit          3D

  8  8  0  0  0  0  0  0  0  0999 V2000
    1.3723   -0.0859    0.4324 C   0  0  0  0  0  0  0  0  0  0  0  0
    0.6856    1.0074    0.5303 N   0  0  0  0  0  0  0  0  0  0  0  0
   -0.6515    0.7383    0.4368 C   0  0  0  0  0  0  0  0  0  0  0  0
   -0.9797   -0.5682    0.2669 C   0  0  0  0  0  0  0  0  0  0  0  0
    0.4418   -1.5119    0.2206 S   0  0  0  0  0  0  0  0  0  0  0  0
    2.4514   -0.1248    0.4776 H   0  0  0  0  0  0  0  0  0  0  0  0
   -1.3608    1.5508    0.5003 H   0  0  0  0  0  0  0  0  0  0  0  0
   -1.9592   -1.0058    0.1699 H   0  0  0  0  0  0  0  0  0  0  0  0
  1  2  2  0
  1  5  1  0
  1  6  1  0
  2  3  1  0
  3  4  2  0
  3  7  1  0
  4  5  1  0
  4  8  1  0
M  END
>  <reaction>  (3) 
kfir_rxn_11915

>  <mol_properties>  (3) 
{"0": {"label": "acceptor", "atom_type": "Cd"}, "7": {"label": "a_hydrogen", "atom_type": "H0"}}

>  <type>  (3) 
r2h

$$$$

     RDKit          3D

 14 13  0  0  0  0  0  0  0  0999 V2000
   -0.3018    0.2694    0.6095 C   0  0  0  0  0  0  0  0  0  0  0  0
   -1.4291    1.0141    0.5515 C   0  0  0  0  0  0  0  0  0  0  0  0
   -1.0219    2.4980   -0.2047 S   0  0  0  0  0  0  0  0  0  0  0  0
    0.5972    1.9717   -0.3677 C   0  0  0  0  0  3  0  0  0  0  0  0
    0.8246    0.7802    0.1059 N   0  0  0  0  0  0  0  0  0  0  0  0
   -2.4253    0.7849    0.8879 H   0  0  0  0  0  0  0  0  0  0  0  0
    1.3517    2.5916   -0.8298 H   0  0  0  0  0  0  0  0  0  0  0  0
    0.0779   -2.0244    1.4167 O   0  0  0  0  0  0  0  0  0  0  0  0
    1.1228   -2.4008    0.5817 C   0  0  0  0  0  0  0  0  0  0  0  0
    0.6754   -2.8077   -0.7639 C   0  0  0  0  0  0  0  0  0  0  0  0
    0.3267   -3.1114   -1.8132 N   0  0  0  0  0  0  0  0  0  0  0  0
   -0.2355   -0.9484    1.1188 H   0  0  0  0  0  0  0  0  0  0  0  0
    1.8671   -1.6038    0.4668 H   0  0  0  0  0  0  0  0  0  0  0  0
    1.6220   -3.2512    1.0558 H   0  0  0  0  0  0  0  0  0  0  0  0
  1  2  2  0
  1  5  2  0
  2  3  1  0
  2  6  1  0
  3  4  1  0
  4  5  1  0
  4  7  1  0
  8  9  1  0
  8 12  1  0
  9 10  1  0
  9 13  1  0
  9 14  1  0
 10 11  3  0
M  RAD  1   4   2
M  END
>  <reaction>  (4) 
kfir_rxn_11915

>  <mol_properties>  (4) 
{"0": {"label": "*3", "atom_type": "Cdd"}, "4": {"label": "*4", "atom_type": "N3d"}, "7": {"label": "*1", "atom_type": "O2s"}, "8": {"label": "*0", "atom_type": "Cs"}, "11": {"label": "*2", "atom_type": "H0"}}

>  <type>  (4) 
ts

$$$$

     RDKit          3D

 14 13  0  0  0  0  0  0  0  0999 V2000
   -0.0437    0.3405   -0.0008 C   0  0  0  0  0  0  0  0  0  0  0  0
    0.3368    1.2094    0.9708 C   0  0  0  0  0  0  0  0  0  0  0  0
   -0.7183    2.5509    0.9811 S   0  0  0  0  0  0  0  0  0  0  0  0
   -1.5926    1.8489   -0.3178 C   0  0  0  0  0  3  0  0  0  0  0  0
   -1.1401    0.7080   -0.7300 N   0  0  0  0  0  0  0  0  0  0  0  0
    1.1616    1.1260    1.6585 H   0  0  0  0  0  0  0  0  0  0  0  0
   -2.4545    2.3436   -0.7427 H   0  0  0  0  0  0  0  0  0  0  0  0
    0.1494   -1.9661    0.7949 O   0  0  0  0  0  0  0  0  0  0  0  0
    1.3097   -2.5444    0.2651 C   0  0  0  0  0  0  0  0  0  0  0  0
    1.3097   -2.5860   -1.2073 C   0  0  0  0  0  0  0  0  0  0  0  0
    1.3097   -2.5860   -2.3540 N   0  0  0  0  0  0  0  0  0  0  0  0
    0.0586   -0.8813    0.4207 H   0  0  0  0  0  0  0  0  0  0  0  0
    2.2217   -2.0293    0.5866 H   0  0  0  0  0  0  0  0  0  0  0  0
    1.3564   -3.5673    0.6387 H   0  0  0  0  0  0  0  0  0  0  0  0
  1  2  2  0
  1  5  2  0
  2  3  1  0
  2  6  1  0
  3  4  1  0
  4  5  1  0
  4  7  1  0
  8  9  1  0
  8 12  1  0
  9 10  1  0
  9 13  1  0
  9 14  1  0
 10 11  3  0
M  RAD  1   4   2
M  END
>  <reaction>  (5) 
kfir_rxn_11915

>  <mol_properties>  (5) 
{"0": {"label": "*3", "atom_type": "Cdd"}, "4": {"label": "*4", "atom_type": "N3d"}, "7": {"label": "*1", "atom_type": "O2s"}, "8": {"label": "*0", "atom_type": "Cs"}, "11": {"label": "*2", "atom_type": "H0"}}

>  <type>  (5) 
unop_1

>  <geom_source>  (5) 
Heuristics

$$$$

     RDKit          3D

 14 13  0  0  0  0  0  0  0  0999 V2000
   -0.1257    0.3573    0.5644 C   0  0  0  0  0  0  0  0  0  0  0  0
   -1.0277    1.2305    1.0818 C   0  0  0  0  0  0  0  0  0  0  0  0
   -1.2492    2.5305   -0.0018 S   0  0  0  0  0  0  0  0  0  0  0  0
   -0.1164    1.8084   -1.0694 C   0  0  0  0  0  3  0  0  0  0  0  0
    0.3891    0.6898   -0.6576 N   0  0  0  0  0  0  0  0  0  0  0  0
   -1.5551    1.1720    2.0192 H   0  0  0  0  0  0  0  0  0  0  0  0
    0.1390    2.2738   -2.0108 H   0  0  0  0  0  0  0  0  0  0  0  0
    0.0675   -1.9492    1.3602 O   0  0  0  0  0  0  0  0  0  0  0  0
    1.2277   -2.5276    0.8303 C   0  0  0  0  0  0  0  0  0  0  0  0
    1.2277   -2.5691   -0.6421 C   0  0  0  0  0  0  0  0  0  0  0  0
    1.2277   -2.5691   -1.7887 N   0  0  0  0  0  0  0  0  0  0  0  0
   -0.0234   -0.8644    0.9859 H   0  0  0  0  0  0  0  0  0  0  0  0
    2.1397   -2.0124    1.1519 H   0  0  0  0  0  0  0  0  0  0  0  0
    1.2745   -3.5505    1.2040 H   0  0  0  0  0  0  0  0  0  0  0  0
  1  2  2  0
  1  5  2  0
  2  3  1  0
  2  6  1  0
  3  4  1  0
  4  5  1  0
  4  7  1  0
  8  9  1  0
  8 12  1  0
  9 10  1  0
  9 13  1  0
  9 14  1  0
 10 11  3  0
M  RAD  1   4   2
M  END
>  <reaction>  (6) 
kfir_rxn_11915

>  <mol_properties>  (6) 
{"0": {"label": "*3", "atom_type": "Cdd"}, "4": {"label": "*4", "atom_type": "N3d"}, "7": {"label": "*1", "atom_type": "O2s"}, "8": {"label": "*0", "atom_type": "Cs"}, "11": {"label": "*2", "atom_type": "H0"}}

>  <type>  (6) 
unop_2

>  <geom_source>  (6) 
Heuristics

$$$$

     RDKit          3D

 14 13  0  0  0  0  0  0  0  0999 V2000
   -0.3405    0.2520    0.0265 C   0  0  0  0  0  0  0  0  0  0  0  0
    0.6313    1.0977    0.4556 C   0  0  0  0  0  0  0  0  0  0  0  0
   -0.0260    2.6577    0.6737 S   0  0  0  0  0  0  0  0  0  0  0  0
   -1.5556    2.0622    0.1737 C   0  0  0  0  0  3  0  0  0  0  0  0
   -1.5810    0.8043   -0.1321 N   0  0  0  0  0  0  0  0  0  0  0  0
    1.6693    0.8832    0.6473 H   0  0  0  0  0  0  0  0  0  0  0  0
   -2.4190    2.7105    0.1263 H   0  0  0  0  0  0  0  0  0  0  0  0
   -0.1474   -2.0546    0.8222 O   0  0  0  0  0  0  0  0  0  0  0  0
    1.0129   -2.6329    0.2924 C   0  0  0  0  0  0  0  0  0  0  0  0
    1.0129   -2.6745   -1.1800 C   0  0  0  0  0  0  0  0  0  0  0  0
    1.0129   -2.6745   -2.3266 N   0  0  0  0  0  0  0  0  0  0  0  0
   -0.2382   -0.9698    0.4480 H   0  0  0  0  0  0  0  0  0  0  0  0
    1.9249   -2.1178    0.6139 H   0  0  0  0  0  0  0  0  0  0  0  0
    1.0596   -3.6558    0.6660 H   0  0  0  0  0  0  0  0  0  0  0  0
  1  2  2  0
  1  5  2  0
  2  3  1  0
  2  6  1  0
  3  4  1  0
  4  5  1  0
  4  7  1  0
  8  9  1  0
  8 12  1  0
  9 10  1  0
  9 13  1  0
  9 14  1  0
 10 11  3  0
M  RAD  1   4   2
M  END
>  <reaction>  (7) 
kfir_rxn_11915

>  <mol_properties>  (7) 
{"0": {"label": "*3", "atom_type": "Cdd"}, "4": {"label": "*4", "atom_type": "N3d"}, "7": {"label": "*1", "atom_type": "O2s"}, "8": {"label": "*0", "atom_type": "Cs"}, "11": {"label": "*2", "atom_type": "H0"}}

>  <type>  (7) 
unop_3

>  <geom_source>  (7) 
Heuristics

$$$$

     RDKit          3D

 14 13  0  0  0  0  0  0  0  0999 V2000
   -0.1675    0.2714    0.1040 C   0  0  0  0  0  0  0  0  0  0  0  0
   -1.4207    0.7865    0.0156 C   0  0  0  0  0  0  0  0  0  0  0  0
   -1.3687    2.4666    0.3116 S   0  0  0  0  0  0  0  0  0  0  0  0
    0.3293    2.3558    0.5322 C   0  0  0  0  0  3  0  0  0  0  0  0
    0.8232    1.1666    0.3976 N   0  0  0  0  0  0  0  0  0  0  0  0
   -2.3421    0.2731   -0.2026 H   0  0  0  0  0  0  0  0  0  0  0  0
    0.9203    3.2300    0.7657 H   0  0  0  0  0  0  0  0  0  0  0  0
    0.0257   -2.0352    0.8997 O   0  0  0  0  0  0  0  0  0  0  0  0
    1.1860   -2.6135    0.3699 C   0  0  0  0  0  0  0  0  0  0  0  0
    1.1860   -2.6551   -1.1025 C   0  0  0  0  0  0  0  0  0  0  0  0
    1.1860   -2.6551   -2.2491 N   0  0  0  0  0  0  0  0  0  0  0  0
   -0.0651   -0.9504    0.5255 H   0  0  0  0  0  0  0  0  0  0  0  0
    2.0980   -2.0984    0.6914 H   0  0  0  0  0  0  0  0  0  0  0  0
    1.2327   -3.6364    0.7435 H   0  0  0  0  0  0  0  0  0  0  0  0
  1  2  2  0
  1  5  2  0
  2  3  1  0
  2  6  1  0
  3  4  1  0
  4  5  1  0
  4  7  1  0
  8  9  1  0
  8 12  1  0
  9 10  1  0
  9 13  1  0
  9 14  1  0
 10 11  3  0
M  RAD  1   4   2
M  END
>  <reaction>  (8) 
kfir_rxn_11915

>  <mol_properties>  (8) 
{"0": {"label": "*3", "atom_type": "Cdd"}, "4": {"label": "*4", "atom_type": "N3d"}, "7": {"label": "*1", "atom_type": "O2s"}, "8": {"label": "*0", "atom_type": "Cs"}, "11": {"label": "*2", "atom_type": "H0"}}

>  <type>  (8) 
unop_4

>  <geom_source>  (8) 
Heuristics

$$$$

     RDKit          3D

 14 13  0  0  0  0  0  0  0  0999 V2000
   -0.3829    0.2850    0.5176 C   0  0  0  0  0  0  0  0  0  0  0  0
    0.5028    0.8986   -0.3087 C   0  0  0  0  0  0  0  0  0  0  0  0
   -0.0124    2.4977   -0.6103 S   0  0  0  0  0  0  0  0  0  0  0  0
   -1.3774    2.2267    0.3935 C   0  0  0  0  0  3  0  0  0  0  0  0
   -1.4492    1.0433    0.9138 N   0  0  0  0  0  0  0  0  0  0  0  0
    1.4048    0.4981   -0.7402 H   0  0  0  0  0  0  0  0  0  0  0  0
   -2.1092    3.0038    0.5627 H   0  0  0  0  0  0  0  0  0  0  0  0
   -0.1897   -2.0216    1.3134 O   0  0  0  0  0  0  0  0  0  0  0  0
    0.9706   -2.5999    0.7835 C   0  0  0  0  0  0  0  0  0  0  0  0
    0.9706   -2.6415   -0.6889 C   0  0  0  0  0  0  0  0  0  0  0  0
    0.9706   -2.6415   -1.8355 N   0  0  0  0  0  0  0  0  0  0  0  0
   -0.2806   -0.9368    0.9391 H   0  0  0  0  0  0  0  0  0  0  0  0
    1.8825   -2.0848    1.1051 H   0  0  0  0  0  0  0  0  0  0  0  0
    1.0173   -3.6228    1.1572 H   0  0  0  0  0  0  0  0  0  0  0  0
  1  2  2  0
  1  5  2  0
  2  3  1  0
  2  6  1  0
  3  4  1  0
  4  5  1  0
  4  7  1  0
  8  9  1  0
  8 12  1  0
  9 10  1  0
  9 13  1  0
  9 14  1  0
 10 11  3  0
M  RAD  1   4   2
M  END
>  <reaction>  (9) 
kfir_rxn_11915

>  <mol_properties>  (9) 
{"0": {"label": "*3", "atom_type": "Cdd"}, "4": {"label": "*4", "atom_type": "N3d"}, "7": {"label": "*1", "atom_type": "O2s"}, "8": {"label": "*0", "atom_type": "Cs"}, "11": {"label": "*2", "atom_type": "H0"}}

>  <type>  (9) 
unop_5

>  <geom_source>  (9) 
Heuristics

$$$$

     RDKit          3D

 14 13  0  0  0  0  0  0  0  0999 V2000
    0.0547    0.3698    0.1318 C   0  0  0  0  0  0  0  0  0  0  0  0
   -1.1757    0.6307   -0.3798 C   0  0  0  0  0  0  0  0  0  0  0  0
   -1.6545    2.2080    0.0630 S   0  0  0  0  0  0  0  0  0  0  0  0
   -0.1703    2.4024    0.9017 C   0  0  0  0  0  3  0  0  0  0  0  0
    0.6217    1.3791    0.8590 N   0  0  0  0  0  0  0  0  0  0  0  0
   -1.8025   -0.0101   -0.9771 H   0  0  0  0  0  0  0  0  0  0  0  0
    0.0621    3.3220    1.4198 H   0  0  0  0  0  0  0  0  0  0  0  0
    0.2479   -1.9367    0.9276 O   0  0  0  0  0  0  0  0  0  0  0  0
    1.4082   -2.5151    0.3978 C   0  0  0  0  0  0  0  0  0  0  0  0
    1.4082   -2.5567   -1.0747 C   0  0  0  0  0  0  0  0  0  0  0  0
    1.4082   -2.5567   -2.2213 N   0  0  0  0  0  0  0  0  0  0  0  0
    0.1570   -0.8520    0.5533 H   0  0  0  0  0  0  0  0  0  0  0  0
    2.3201   -1.9999    0.7193 H   0  0  0  0  0  0  0  0  0  0  0  0
    1.4549   -3.5380    0.7714 H   0  0  0  0  0  0  0  0  0  0  0  0
  1  2  2  0
  1  5  2  0
  2  3  1  0
  2  6  1  0
  3  4  1  0
  4  5  1  0
  4  7  1  0
  8  9  1  0
  8 12  1  0
  9 10  1  0
  9 13  1  0
  9 14  1  0
 10 11  3  0
M  RAD  1   4   2
M  END
>  <reaction>  (10) 
kfir_rxn_11915

>  <mol_properties>  (10) 
{"0": {"label": "*3", "atom_type": "Cdd"}, "4": {"label": "*4", "atom_type": "N3d"}, "7": {"label": "*1", "atom_type": "O2s"}, "8": {"label": "*0", "atom_type": "Cs"}, "11": {"label": "*2", "atom_type": "H0"}}

>  <type>  (10) 
unop_6

>  <geom_source>  (10) 
Heuristics

$$$$

     RDKit          3D

 14 13  0  0  0  0  0  0  0  0999 V2000
    0.1821    0.4782    0.3435 C   0  0  0  0  0  0  0  0  0  0  0  0
   -0.7314    0.5581   -0.6578 C   0  0  0  0  0  0  0  0  0  0  0  0
   -1.6668    1.9727   -0.4648 S   0  0  0  0  0  0  0  0  0  0  0  0
   -0.7648    2.3536    0.9443 C   0  0  0  0  0  3  0  0  0  0  0  0
    0.1594    1.5003    1.2511 N   0  0  0  0  0  0  0  0  0  0  0  0
   -0.8929   -0.1266   -1.4736 H   0  0  0  0  0  0  0  0  0  0  0  0
   -0.9728    3.2469    1.5160 H   0  0  0  0  0  0  0  0  0  0  0  0
    0.3753   -1.8284    1.1392 O   0  0  0  0  0  0  0  0  0  0  0  0
    1.5356   -2.4067    0.6094 C   0  0  0  0  0  0  0  0  0  0  0  0
    1.5356   -2.4483   -0.8630 C   0  0  0  0  0  0  0  0  0  0  0  0
    1.5356   -2.4483   -2.0096 N   0  0  0  0  0  0  0  0  0  0  0  0
    0.2845   -0.7436    0.7650 H   0  0  0  0  0  0  0  0  0  0  0  0
    2.4475   -1.8916    0.9310 H   0  0  0  0  0  0  0  0  0  0  0  0
    1.5823   -3.4296    0.9831 H   0  0  0  0  0  0  0  0  0  0  0  0
  1  2  2  0
  1  5  2  0
  2  3  1  0
  2  6  1  0
  3  4  1  0
  4  5  1  0
  4  7  1  0
  8  9  1  0
  8 12  1  0
  9 10  1  0
  9 13  1  0
  9 14  1  0
 10 11  3  0
M  RAD  1   4   2
M  END
>  <reaction>  (11) 
kfir_rxn_11915

>  <mol_properties>  (11) 
{"0": {"label": "*3", "atom_type": "Cdd"}, "4": {"label": "*4", "atom_type": "N3d"}, "7": {"label": "*1", "atom_type": "O2s"}, "8": {"label": "*0", "atom_type": "Cs"}, "11": {"label": "*2", "atom_type": "H0"}}

>  <type>  (11) 
unop_7

>  <geom_source>  (11) 
Heuristics

$$$$

     RDKit          3D

 14 13  0  0  0  0  0  0  0  0999 V2000
    0.1082    0.4024    0.2134 C   0  0  0  0  0  0  0  0  0  0  0  0
   -0.1203    1.2742    1.2290 C   0  0  0  0  0  0  0  0  0  0  0  0
   -1.2258    2.4694    0.7167 S   0  0  0  0  0  0  0  0  0  0  0  0
   -1.3008    1.7132   -0.8217 C   0  0  0  0  0  3  0  0  0  0  0  0
   -0.5645    0.6559   -0.9494 N   0  0  0  0  0  0  0  0  0  0  0  0
    0.2962    1.2695    2.2224 H   0  0  0  0  0  0  0  0  0  0  0  0
   -1.9250    2.1105   -1.6095 H   0  0  0  0  0  0  0  0  0  0  0  0
    0.3014   -1.9041    1.0091 O   0  0  0  0  0  0  0  0  0  0  0  0
    1.4617   -2.4825    0.4793 C   0  0  0  0  0  0  0  0  0  0  0  0
    1.4617   -2.5241   -0.9932 C   0  0  0  0  0  0  0  0  0  0  0  0
    1.4617   -2.5241   -2.1398 N   0  0  0  0  0  0  0  0  0  0  0  0
    0.2105   -0.8194    0.6349 H   0  0  0  0  0  0  0  0  0  0  0  0
    2.3736   -1.9673    0.8008 H   0  0  0  0  0  0  0  0  0  0  0  0
    1.5084   -3.5054    0.8529 H   0  0  0  0  0  0  0  0  0  0  0  0
  1  2  2  0
  1  5  2  0
  2  3  1  0
  2  6  1  0
  3  4  1  0
  4  5  1  0
  4  7  1  0
  8  9  1  0
  8 12  1  0
  9 10  1  0
  9 13  1  0
  9 14  1  0
 10 11  3  0
M  RAD  1   4   2
M  END
>  <reaction>  (12) 
kfir_rxn_11915

>  <mol_properties>  (12) 
{"0": {"label": "*3", "atom_type": "Cdd"}, "4": {"label": "*4", "atom_type": "N3d"}, "7": {"label": "*1", "atom_type": "O2s"}, "8": {"label": "*0", "atom_type": "Cs"}, "11": {"label": "*2", "atom_type": "H0"}}

>  <type>  (12) 
unop_8

>  <geom_source>  (12) 
Heuristics

$$$$

     RDKit          3D

 14 13  0  0  0  0  0  0  0  0999 V2000
   -0.3274    0.2344    0.2570 C   0  0  0  0  0  0  0  0  0  0  0  0
   -1.4562    0.9693    0.4286 C   0  0  0  0  0  0  0  0  0  0  0  0
   -1.0927    2.6259    0.2367 S   0  0  0  0  0  0  0  0  0  0  0  0
    0.5460    2.2123   -0.0595 C   0  0  0  0  0  3  0  0  0  0  0  0
    0.8073    0.9448   -0.0200 N   0  0  0  0  0  0  0  0  0  0  0  0
   -2.4522    0.6251    0.6516 H   0  0  0  0  0  0  0  0  0  0  0  0
    1.2863    2.9733   -0.2617 H   0  0  0  0  0  0  0  0  0  0  0  0
   -0.1342   -2.0722    1.0527 O   0  0  0  0  0  0  0  0  0  0  0  0
    1.0261   -2.6505    0.5229 C   0  0  0  0  0  0  0  0  0  0  0  0
    1.0261   -2.6921   -0.9495 C   0  0  0  0  0  0  0  0  0  0  0  0
    1.0261   -2.6921   -2.0961 N   0  0  0  0  0  0  0  0  0  0  0  0
   -0.2250   -0.9874    0.6785 H   0  0  0  0  0  0  0  0  0  0  0  0
    1.9381   -2.1354    0.8444 H   0  0  0  0  0  0  0  0  0  0  0  0
    1.0728   -3.6734    0.8965 H   0  0  0  0  0  0  0  0  0  0  0  0
  1  2  2  0
  1  5  2  0
  2  3  1  0
  2  6  1  0
  3  4  1  0
  4  5  1  0
  4  7  1  0
  8  9  1  0
  8 12  1  0
  9 10  1  0
  9 13  1  0
  9 14  1  0
 10 11  3  0
M  RAD  1   4   2
M  END
>  <reaction>  (13) 
kfir_rxn_11915

>  <mol_properties>  (13) 
{"0": {"label": "*3", "atom_type": "Cdd"}, "4": {"label": "*4", "atom_type": "N3d"}, "7": {"label": "*1", "atom_type": "O2s"}, "8": {"label": "*0", "atom_type": "Cs"}, "11": {"label": "*2", "atom_type": "H0"}}

>  <type>  (13) 
unop_9

>  <geom_source>  (13) 
Heuristics

$$$$

     RDKit          3D

 14 13  0  0  0  0  0  0  0  0999 V2000
    0.0617    0.4111    0.4533 C   0  0  0  0  0  0  0  0  0  0  0  0
   -0.6104    1.2805    1.2509 C   0  0  0  0  0  0  0  0  0  0  0  0
   -1.3851    2.4567    0.2867 S   0  0  0  0  0  0  0  0  0  0  0  0
   -0.7513    1.6970   -1.1152 C   0  0  0  0  0  3  0  0  0  0  0  0
   -0.0213    0.6517   -0.8899 N   0  0  0  0  0  0  0  0  0  0  0  0
   -0.6838    1.2841    2.3256 H   0  0  0  0  0  0  0  0  0  0  0  0
   -0.9613    2.0828   -2.1027 H   0  0  0  0  0  0  0  0  0  0  0  0
    0.2549   -1.8955    1.2491 O   0  0  0  0  0  0  0  0  0  0  0  0
    1.4151   -2.4738    0.7193 C   0  0  0  0  0  0  0  0  0  0  0  0
    1.4151   -2.5154   -0.7532 C   0  0  0  0  0  0  0  0  0  0  0  0
    1.4151   -2.5154   -1.8998 N   0  0  0  0  0  0  0  0  0  0  0  0
    0.1640   -0.8107    0.8748 H   0  0  0  0  0  0  0  0  0  0  0  0
    2.3271   -1.9587    1.0408 H   0  0  0  0  0  0  0  0  0  0  0  0
    1.4618   -3.4967    1.0929 H   0  0  0  0  0  0  0  0  0  0  0  0
  1  2  2  0
  1  5  2  0
  2  3  1  0
  2  6  1  0
  3  4  1  0
  4  5  1  0
  4  7  1  0
  8  9  1  0
  8 12  1  0
  9 10  1  0
  9 13  1  0
  9 14  1  0
 10 11  3  0
M  RAD  1   4   2
M  END
>  <reaction>  (14) 
kfir_rxn_11915

>  <mol_properties>  (14) 
{"0": {"label": "*3", "atom_type": "Cdd"}, "4": {"label": "*4", "atom_type": "N3d"}, "7": {"label": "*1", "atom_type": "O2s"}, "8": {"label": "*0", "atom_type": "Cs"}, "11": {"label": "*2", "atom_type": "H0"}}

>  <type>  (14) 
unop_10

>  <geom_source>  (14) 
Heuristics

$$$$

     RDKit          3D

 14 13  0  0  0  0  0  0  0  0999 V2000
    0.0526    0.4917    0.6258 C   0  0  0  0  0  0  0  0  0  0  0  0
   -0.1345    0.6309   -0.7118 C   0  0  0  0  0  0  0  0  0  0  0  0
   -1.1307    1.9842   -1.0104 S   0  0  0  0  0  0  0  0  0  0  0  0
   -1.2236    2.2646    0.6799 C   0  0  0  0  0  3  0  0  0  0  0  0
   -0.5680    1.4219    1.4122 N   0  0  0  0  0  0  0  0  0  0  0  0
    0.2543    0.0206   -1.5097 H   0  0  0  0  0  0  0  0  0  0  0  0
   -1.7945    3.0913    1.0783 H   0  0  0  0  0  0  0  0  0  0  0  0
    0.2458   -1.8149    1.4216 O   0  0  0  0  0  0  0  0  0  0  0  0
    1.4061   -2.3932    0.8918 C   0  0  0  0  0  0  0  0  0  0  0  0
    1.4061   -2.4348   -0.5807 C   0  0  0  0  0  0  0  0  0  0  0  0
    1.4061   -2.4348   -1.7273 N   0  0  0  0  0  0  0  0  0  0  0  0
    0.1549   -0.7301    1.0473 H   0  0  0  0  0  0  0  0  0  0  0  0
    2.3180   -1.8781    1.2133 H   0  0  0  0  0  0  0  0  0  0  0  0
    1.4528   -3.4161    1.2654 H   0  0  0  0  0  0  0  0  0  0  0  0
  1  2  2  0
  1  5  2  0
  2  3  1  0
  2  6  1  0
  3  4  1  0
  4  5  1  0
  4  7  1  0
  8  9  1  0
  8 12  1  0
  9 10  1  0
  9 13  1  0
  9 14  1  0
 10 11  3  0
M  RAD  1   4   2
M  END
>  <reaction>  (15) 
kfir_rxn_11915

>  <mol_properties>  (15) 
{"0": {"label": "*3", "atom_type": "Cdd"}, "4": {"label": "*4", "atom_type": "N3d"}, "7": {"label": "*1", "atom_type": "O2s"}, "8": {"label": "*0", "atom_type": "Cs"}, "11": {"label": "*2", "atom_type": "H0"}}

>  <type>  (15) 
unop_11

>  <geom_source>  (15) 
Heuristics

$$$$

     RDKit          3D

 14 13  0  0  0  0  0  0  0  0999 V2000
   -0.3069    0.2755    0.4716 C   0  0  0  0  0  0  0  0  0  0  0  0
   -1.3152    1.1264    0.7927 C   0  0  0  0  0  0  0  0  0  0  0  0
   -1.0598    2.6289    0.0243 S   0  0  0  0  0  0  0  0  0  0  0  0
    0.3800    2.0066   -0.6713 C   0  0  0  0  0  3  0  0  0  0  0  0
    0.6536    0.7799   -0.3602 N   0  0  0  0  0  0  0  0  0  0  0  0
   -2.1686    0.9457    1.4247 H   0  0  0  0  0  0  0  0  0  0  0  0
    0.9958    2.6149   -1.3185 H   0  0  0  0  0  0  0  0  0  0  0  0
   -0.1138   -2.0311    1.2674 O   0  0  0  0  0  0  0  0  0  0  0  0
    1.0465   -2.6094    0.7376 C   0  0  0  0  0  0  0  0  0  0  0  0
    1.0465   -2.6510   -0.7349 C   0  0  0  0  0  0  0  0  0  0  0  0
    1.0465   -2.6510   -1.8815 N   0  0  0  0  0  0  0  0  0  0  0  0
   -0.2046   -0.9463    0.8931 H   0  0  0  0  0  0  0  0  0  0  0  0
    1.9585   -2.0943    1.0591 H   0  0  0  0  0  0  0  0  0  0  0  0
    1.0932   -3.6323    1.1112 H   0  0  0  0  0  0  0  0  0  0  0  0
  1  2  2  0
  1  5  2  0
  2  3  1  0
  2  6  1  0
  3  4  1  0
  4  5  1  0
  4  7  1  0
  8  9  1  0
  8 12  1  0
  9 10  1  0
  9 13  1  0
  9 14  1  0
 10 11  3  0
M  RAD  1   4   2
M  END
>  <reaction>  (16) 
kfir_rxn_11915

>  <mol_properties>  (16) 
{"0": {"label": "*3", "atom_type": "Cdd"}, "4": {"label": "*4", "atom_type": "N3d"}, "7": {"label": "*1", "atom_type": "O2s"}, "8": {"label": "*0", "atom_type": "Cs"}, "11": {"label": "*2", "atom_type": "H0"}}

>  <type>  (16) 
unop_12

>  <geom_source>  (16) 
Heuristics

$$$$
