
     RDKit          3D

  7  7  0  0  0  0  0  0  0  0999 V2000
    1.6064   -0.4313    0.1905 N   0  0  0  0  0  0  0  0  0  0  0  0
    0.3982   -0.1725    0.0701 C   0  0  0  0  0  0  0  0  0  0  0  0
   -0.6051   -1.0481    0.3497 O   0  0  0  0  0  0  0  0  0  0  0  0
   -1.7906   -0.4044    0.0958 N   0  0  0  0  0  0  0  0  0  0  0  0
   -1.5819    0.7348   -0.2956 N   0  0  0  0  0  0  0  0  0  0  0  0
   -0.2229    0.9708   -0.3436 O   0  0  0  0  0  0  0  0  0  0  0  0
    2.1958    0.3506   -0.0669 H   0  0  0  0  0  0  0  0  0  0  0  0
  1  2  2  3
  1  7  1  0
  2  3  1  0
  2  6  1  0
  3  4  1  0
  4  5  2  0
  5  6  1  0
M  END
>  <reaction>  (1) 
kfir_rxn_13897

>  <mol_properties>  (1) 
{"0": {"label": "donator", "atom_type": "N3d"}, "6": {"label": "d_hydrogen", "atom_type": "H0"}}

>  <type>  (1) 
r1h

$$$$

     RDKit          3D

  7  7  0  0  0  0  0  0  0  0999 V2000
   -0.3098    0.7589    0.0547 N   0  0  0  0  0  0  0  0  0  0  0  0
   -0.5126   -0.5888   -0.0325 C   0  0  0  0  0  0  0  0  0  0  0  0
    0.6202   -1.2226   -0.0897 N   0  0  0  0  0  0  0  0  0  0  0  0
    1.6333   -0.2545   -0.0386 N   0  0  0  0  0  0  0  0  0  0  0  0
    1.0411    0.8615    0.0437 C   0  0  0  0  0  3  0  0  0  0  0  0
   -0.9860    1.4967    0.1129 H   0  0  0  0  0  0  0  0  0  0  0  0
   -1.4862   -1.0511   -0.0505 H   0  0  0  0  0  0  0  0  0  0  0  0
  1  2  1  0
  1  5  1  0
  1  6  1  0
  2  3  2  0
  2  7  1  0
  3  4  1  0
  4  5  2  0
M  RAD  1   5   2
M  END
>  <reaction>  (2) 
kfir_rxn_13897

>  <mol_properties>  (2) 
{"4": {"label": "acceptor", "atom_type": "Cd"}}

>  <type>  (2) 
r2

$$$$

     RDKit          3D

  8  8  0  0  0  0  0  0  0  0999 V2000
    0.0034    0.7224   -0.0235 N   0  0  0  0  0  0  0  0  0  0  0  0
    1.0702   -0.1167   -0.0872 C   0  0  0  0  0  0  0  0  0  0  0  0
    0.6770   -1.3528   -0.0140 N   0  0  0  0  0  0  0  0  0  0  0  0
   -0.6897   -1.3426    0.1018 N   0  0  0  0  0  0  0  0  0  0  0  0
   -1.0712   -0.1007    0.0943 C   0  0  0  0  0  0  0  0  0  0  0  0
    0.0081    1.7250   -0.0562 H   0  0  0  0  0  0  0  0  0  0  0  0
    2.0900    0.2170   -0.1846 H   0  0  0  0  0  0  0  0  0  0  0  0
   -2.0878    0.2483    0.1694 H   0  0  0  0  0  0  0  0  0  0  0  0
  1  2  1  0
  1  5  1  0
  1  6  1  0
  2  3  2  0
  2  7  1  0
  3  4  1  0
  4  5  2  0
  5  8  1  0
M  END
>  <reaction>  (3) 
kfir_rxn_13897

>  <mol_properties>  (3) 
{"4": {"label": "acceptor", "atom_type": "Cd"}, "7": {"label": "a_hydrogen", "atom_type": "H0"}}

>  <type>  (3) 
r2h

$$$$

     RDKit          3D

 14 14  0  0  0  0  0  0  0  0999 V2000
   -0.0017   -1.8854    0.6822 N   0  0  0  0  0  0  0  0  0  0  0  0
   -0.0024   -2.9527    1.5264 C   0  0  0  0  0  0  0  0  0  0  0  0
   -0.0003   -2.5564    2.7647 N   0  0  0  0  0  0  0  0  0  0  0  0
    0.0019   -1.1678    2.7518 N   0  0  0  0  0  0  0  0  0  0  0  0
    0.0010   -0.8186    1.5206 C   0  0  0  0  0  3  0  0  0  0  0  0
   -0.0029   -1.8722   -0.3212 H   0  0  0  0  0  0  0  0  0  0  0  0
   -0.0044   -3.9792    1.1985 H   0  0  0  0  0  0  0  0  0  0  0  0
    0.0037    1.5752    0.6001 N   0  0  0  0  0  0  0  0  0  0  0  0
    0.0020    1.4623   -0.6411 C   0  0  0  0  0  0  0  0  0  0  0  0
    0.0026    2.5093   -1.5121 O   0  0  0  0  0  0  0  0  0  0  0  0
    0.0002    1.9830   -2.7806 N   0  0  0  0  0  0  0  0  0  0  0  0
   -0.0017    0.7641   -2.7411 N   0  0  0  0  0  0  0  0  0  0  0  0
   -0.0008    0.3398   -1.4204 O   0  0  0  0  0  0  0  0  0  0  0  0
    0.0027    0.5092    1.1125 H   0  0  0  0  0  0  0  0  0  0  0  0
  1  2  1  0
  1  5  1  0
  1  6  1  0
  2  3  2  0
  2  7  1  0
  3  4  1  0
  4  5  2  0
  8  9  2  3
  8 14  1  0
  9 10  1  0
  9 13  1  0
 10 11  1  0
 11 12  2  0
 12 13  1  0
M  RAD  1   5   2
M  END
>  <reaction>  (4) 
kfir_rxn_13897

>  <mol_properties>  (4) 
{"0": {"label": "*4", "atom_type": "N3s"}, "4": {"label": "*3", "atom_type": "Cd"}, "7": {"label": "*1", "atom_type": "N3d"}, "8": {"label": "*0", "atom_type": "Cd"}, "13": {"label": "*2", "atom_type": "H0"}}

>  <type>  (4) 
ts

$$$$

     RDKit          3D

 14 14  0  0  0  0  0  0  0  0999 V2000
    1.0411   -1.5585    2.0383 N   0  0  0  0  0  0  0  0  0  0  0  0
    0.3736   -2.1389    3.0696 C   0  0  0  0  0  0  0  0  0  0  0  0
   -0.9090   -2.0187    2.9017 N   0  0  0  0  0  0  0  0  0  0  0  0
   -1.1072   -1.3395    1.7265 N   0  0  0  0  0  0  0  0  0  0  0  0
    0.0632   -1.0748    1.2284 C   0  0  0  0  0  3  0  0  0  0  0  0
    2.0336   -1.5000    1.9047 H   0  0  0  0  0  0  0  0  0  0  0  0
    0.8591   -2.6250    3.8996 H   0  0  0  0  0  0  0  0  0  0  0  0
    0.0632    1.2440    0.2732 N   0  0  0  0  0  0  0  0  0  0  0  0
    0.0632    1.2440   -0.9683 C   0  0  0  0  0  0  0  0  0  0  0  0
    0.0632    2.3681   -1.7350 O   0  0  0  0  0  0  0  0  0  0  0  0
    0.0632    1.9663   -3.0476 N   0  0  0  0  0  0  0  0  0  0  0  0
    0.0632    0.7460   -3.1199 N   0  0  0  0  0  0  0  0  0  0  0  0
    0.0632    0.2027   -1.8512 O   0  0  0  0  0  0  0  0  0  0  0  0
    0.0632    0.1206    0.7360 H   0  0  0  0  0  0  0  0  0  0  0  0
  1  2  1  0
  1  5  1  0
  1  6  1  0
  2  3  2  0
  2  7  1  0
  3  4  1  0
  4  5  2  0
  8  9  2  3
  8 14  1  0
  9 10  1  0
  9 13  1  0
 10 11  1  0
 11 12  2  0
 12 13  1  0
M  RAD  1   5   2
M  END
>  <reaction>  (5) 
kfir_rxn_13897

>  <mol_properties>  (5) 
{"0": {"label": "*4", "atom_type": "N3s"}, "4": {"label": "*3", "atom_type": "Cd"}, "7": {"label": "*1", "atom_type": "N3d"}, "8": {"label": "*0", "atom_type": "Cd"}, "13": {"label": "*2", "atom_type": "H0"}}

>  <type>  (5) 
unop_1

>  <geom_source>  (5) 
Heuristics

$$$$

     RDKit          3D

 14 14  0  0  0  0  0  0  0  0999 V2000
    0.4394   -1.9554    0.8326 N   0  0  0  0  0  0  0  0  0  0  0  0
    0.5813   -2.8801    1.8179 C   0  0  0  0  0  0  0  0  0  0  0  0
    0.1384   -2.4099    2.9451 N   0  0  0  0  0  0  0  0  0  0  0  0
   -0.3125   -1.1360    2.7097 N   0  0  0  0  0  0  0  0  0  0  0  0
   -0.1252   -0.8842    1.4490 C   0  0  0  0  0  3  0  0  0  0  0  0
    0.6943   -2.0437   -0.1337 H   0  0  0  0  0  0  0  0  0  0  0  0
    1.0040   -3.8591    1.6644 H   0  0  0  0  0  0  0  0  0  0  0  0
   -0.1252    1.4346    0.4938 N   0  0  0  0  0  0  0  0  0  0  0  0
   -0.1252    1.4346   -0.7477 C   0  0  0  0  0  0  0  0  0  0  0  0
   -0.1252    2.5587   -1.5145 O   0  0  0  0  0  0  0  0  0  0  0  0
   -0.1252    2.1570   -2.8271 N   0  0  0  0  0  0  0  0  0  0  0  0
   -0.1252    0.9367   -2.8994 N   0  0  0  0  0  0  0  0  0  0  0  0
   -0.1252    0.3933   -1.6306 O   0  0  0  0  0  0  0  0  0  0  0  0
   -0.1252    0.3113    0.9565 H   0  0  0  0  0  0  0  0  0  0  0  0
  1  2  1  0
  1  5  1  0
  1  6  1  0
  2  3  2  0
  2  7  1  0
  3  4  1  0
  4  5  2  0
  8  9  2  3
  8 14  1  0
  9 10  1  0
  9 13  1  0
 10 11  1  0
 11 12  2  0
 12 13  1  0
M  RAD  1   5   2
M  END
>  <reaction>  (6) 
kfir_rxn_13897

>  <mol_properties>  (6) 
{"0": {"label": "*4", "atom_type": "N3s"}, "4": {"label": "*3", "atom_type": "Cd"}, "7": {"label": "*1", "atom_type": "N3d"}, "8": {"label": "*0", "atom_type": "Cd"}, "13": {"label": "*2", "atom_type": "H0"}}

>  <type>  (6) 
unop_2

>  <geom_source>  (6) 
Heuristics

$$$$

     RDKit          3D

 14 14  0  0  0  0  0  0  0  0999 V2000
    0.7504   -1.3327    2.5092 N   0  0  0  0  0  0  0  0  0  0  0  0
   -0.1218   -2.2102    3.0708 C   0  0  0  0  0  0  0  0  0  0  0  0
   -1.1372   -2.4034    2.2837 N   0  0  0  0  0  0  0  0  0  0  0  0
   -0.9409   -1.6351    1.1644 N   0  0  0  0  0  0  0  0  0  0  0  0
    0.1858   -1.0065    1.3172 C   0  0  0  0  0  3  0  0  0  0  0  0
    1.6171   -1.0002    2.8894 H   0  0  0  0  0  0  0  0  0  0  0  0
    0.0270   -2.6693    4.0341 H   0  0  0  0  0  0  0  0  0  0  0  0
    0.1858    1.3123    0.3620 N   0  0  0  0  0  0  0  0  0  0  0  0
    0.1858    1.3123   -0.8795 C   0  0  0  0  0  0  0  0  0  0  0  0
    0.1858    2.4364   -1.6463 O   0  0  0  0  0  0  0  0  0  0  0  0
    0.1858    2.0346   -2.9588 N   0  0  0  0  0  0  0  0  0  0  0  0
    0.1858    0.8143   -3.0312 N   0  0  0  0  0  0  0  0  0  0  0  0
    0.1858    0.2710   -1.7624 O   0  0  0  0  0  0  0  0  0  0  0  0
    0.1858    0.1889    0.8247 H   0  0  0  0  0  0  0  0  0  0  0  0
  1  2  1  0
  1  5  1  0
  1  6  1  0
  2  3  2  0
  2  7  1  0
  3  4  1  0
  4  5  2  0
  8  9  2  3
  8 14  1  0
  9 10  1  0
  9 13  1  0
 10 11  1  0
 11 12  2  0
 12 13  1  0
M  RAD  1   5   2
M  END
>  <reaction>  (7) 
kfir_rxn_13897

>  <mol_properties>  (7) 
{"0": {"label": "*4", "atom_type": "N3s"}, "4": {"label": "*3", "atom_type": "Cd"}, "7": {"label": "*1", "atom_type": "N3d"}, "8": {"label": "*0", "atom_type": "Cd"}, "13": {"label": "*2", "atom_type": "H0"}}

>  <type>  (7) 
unop_3

>  <geom_source>  (7) 
Heuristics

$$$$

     RDKit          3D

 14 14  0  0  0  0  0  0  0  0999 V2000
   -0.8160   -1.8807    1.1106 N   0  0  0  0  0  0  0  0  0  0  0  0
   -0.8825   -2.6099    2.2551 C   0  0  0  0  0  0  0  0  0  0  0  0
   -0.0142   -2.1752    3.1182 N   0  0  0  0  0  0  0  0  0  0  0  0
    0.6524   -1.1266    2.5372 N   0  0  0  0  0  0  0  0  0  0  0  0
    0.1619   -0.9670    1.3448 C   0  0  0  0  0  3  0  0  0  0  0  0
   -1.3658   -1.9920    0.2789 H   0  0  0  0  0  0  0  0  0  0  0  0
   -1.5663   -3.4290    2.4048 H   0  0  0  0  0  0  0  0  0  0  0  0
    0.1619    1.3519    0.3896 N   0  0  0  0  0  0  0  0  0  0  0  0
    0.1619    1.3519   -0.8519 C   0  0  0  0  0  0  0  0  0  0  0  0
    0.1619    2.4760   -1.6186 O   0  0  0  0  0  0  0  0  0  0  0  0
    0.1619    2.0742   -2.9312 N   0  0  0  0  0  0  0  0  0  0  0  0
    0.1619    0.8539   -3.0035 N   0  0  0  0  0  0  0  0  0  0  0  0
    0.1619    0.3105   -1.7348 O   0  0  0  0  0  0  0  0  0  0  0  0
    0.1619    0.2285    0.8524 H   0  0  0  0  0  0  0  0  0  0  0  0
  1  2  1  0
  1  5  1  0
  1  6  1  0
  2  3  2  0
  2  7  1  0
  3  4  1  0
  4  5  2  0
  8  9  2  3
  8 14  1  0
  9 10  1  0
  9 13  1  0
 10 11  1  0
 11 12  2  0
 12 13  1  0
M  RAD  1   5   2
M  END
>  <reaction>  (8) 
kfir_rxn_13897

>  <mol_properties>  (8) 
{"0": {"label": "*4", "atom_type": "N3s"}, "4": {"label": "*3", "atom_type": "Cd"}, "7": {"label": "*1", "atom_type": "N3d"}, "8": {"label": "*0", "atom_type": "Cd"}, "13": {"label": "*2", "atom_type": "H0"}}

>  <type>  (8) 
unop_4

>  <geom_source>  (8) 
Heuristics

$$$$

     RDKit          3D

 14 14  0  0  0  0  0  0  0  0999 V2000
    0.0000   -1.1365    2.7783 N   0  0  0  0  0  0  0  0  0  0  0  0
    0.0000   -2.4932    2.8525 C   0  0  0  0  0  0  0  0  0  0  0  0
    0.0000   -3.0103    1.6607 N   0  0  0  0  0  0  0  0  0  0  0  0
    0.0000   -1.9729    0.7632 N   0  0  0  0  0  0  0  0  0  0  0  0
    0.0000   -0.8679    1.4464 C   0  0  0  0  0  3  0  0  0  0  0  0
    0.0000   -0.4801    3.5370 H   0  0  0  0  0  0  0  0  0  0  0  0
    0.0000   -3.0425    3.7794 H   0  0  0  0  0  0  0  0  0  0  0  0
   -0.0000    1.4509    0.4912 N   0  0  0  0  0  0  0  0  0  0  0  0
   -0.0000    1.4509   -0.7503 C   0  0  0  0  0  0  0  0  0  0  0  0
   -0.0000    2.5750   -1.5170 O   0  0  0  0  0  0  0  0  0  0  0  0
   -0.0000    2.1733   -2.8296 N   0  0  0  0  0  0  0  0  0  0  0  0
   -0.0000    0.9530   -2.9019 N   0  0  0  0  0  0  0  0  0  0  0  0
   -0.0000    0.4096   -1.6332 O   0  0  0  0  0  0  0  0  0  0  0  0
   -0.0000    0.3276    0.9540 H   0  0  0  0  0  0  0  0  0  0  0  0
  1  2  1  0
  1  5  1  0
  1  6  1  0
  2  3  2  0
  2  7  1  0
  3  4  1  0
  4  5  2  0
  8  9  2  3
  8 14  1  0
  9 10  1  0
  9 13  1  0
 10 11  1  0
 11 12  2  0
 12 13  1  0
M  RAD  1   5   2
M  END
>  <reaction>  (9) 
kfir_rxn_13897

>  <mol_properties>  (9) 
{"0": {"label": "*4", "atom_type": "N3s"}, "4": {"label": "*3", "atom_type": "Cd"}, "7": {"label": "*1", "atom_type": "N3d"}, "8": {"label": "*0", "atom_type": "Cd"}, "13": {"label": "*2", "atom_type": "H0"}}

>  <type>  (9) 
unop_5

>  <geom_source>  (9) 
Heuristics

$$$$

     RDKit          3D

 14 14  0  0  0  0  0  0  0  0999 V2000
   -1.0431   -1.7444    1.5384 N   0  0  0  0  0  0  0  0  0  0  0  0
   -0.7910   -2.3183    2.7439 C   0  0  0  0  0  0  0  0  0  0  0  0
    0.3973   -1.9951    3.1578 N   0  0  0  0  0  0  0  0  0  0  0  0
    0.9571   -1.1829    2.2047 N   0  0  0  0  0  0  0  0  0  0  0  0
    0.0861   -1.0457    1.2506 C   0  0  0  0  0  3  0  0  0  0  0  0
   -1.8763   -1.8197    0.9848 H   0  0  0  0  0  0  0  0  0  0  0  0
   -1.4917   -2.9490    3.2654 H   0  0  0  0  0  0  0  0  0  0  0  0
    0.0861    1.2731    0.2954 N   0  0  0  0  0  0  0  0  0  0  0  0
    0.0861    1.2731   -0.9461 C   0  0  0  0  0  0  0  0  0  0  0  0
    0.0861    2.3972   -1.7129 O   0  0  0  0  0  0  0  0  0  0  0  0
    0.0861    1.9954   -3.0254 N   0  0  0  0  0  0  0  0  0  0  0  0
    0.0861    0.7751   -3.0978 N   0  0  0  0  0  0  0  0  0  0  0  0
    0.0861    0.2318   -1.8290 O   0  0  0  0  0  0  0  0  0  0  0  0
    0.0861    0.1497    0.7581 H   0  0  0  0  0  0  0  0  0  0  0  0
  1  2  1  0
  1  5  1  0
  1  6  1  0
  2  3  2  0
  2  7  1  0
  3  4  1  0
  4  5  2  0
  8  9  2  3
  8 14  1  0
  9 10  1  0
  9 13  1  0
 10 11  1  0
 11 12  2  0
 12 13  1  0
M  RAD  1   5   2
M  END
>  <reaction>  (10) 
kfir_rxn_13897

>  <mol_properties>  (10) 
{"0": {"label": "*4", "atom_type": "N3s"}, "4": {"label": "*3", "atom_type": "Cd"}, "7": {"label": "*1", "atom_type": "N3d"}, "8": {"label": "*0", "atom_type": "Cd"}, "13": {"label": "*2", "atom_type": "H0"}}

>  <type>  (10) 
unop_6

>  <geom_source>  (10) 
Heuristics

$$$$

     RDKit          3D

 14 14  0  0  0  0  0  0  0  0999 V2000
   -1.0411   -1.5585    2.0383 N   0  0  0  0  0  0  0  0  0  0  0  0
   -0.3736   -2.1389    3.0696 C   0  0  0  0  0  0  0  0  0  0  0  0
    0.9090   -2.0187    2.9017 N   0  0  0  0  0  0  0  0  0  0  0  0
    1.1072   -1.3395    1.7265 N   0  0  0  0  0  0  0  0  0  0  0  0
   -0.0632   -1.0748    1.2284 C   0  0  0  0  0  3  0  0  0  0  0  0
   -2.0336   -1.5000    1.9047 H   0  0  0  0  0  0  0  0  0  0  0  0
   -0.8591   -2.6250    3.8996 H   0  0  0  0  0  0  0  0  0  0  0  0
   -0.0632    1.2440    0.2732 N   0  0  0  0  0  0  0  0  0  0  0  0
   -0.0632    1.2440   -0.9683 C   0  0  0  0  0  0  0  0  0  0  0  0
   -0.0632    2.3681   -1.7350 O   0  0  0  0  0  0  0  0  0  0  0  0
   -0.0632    1.9663   -3.0476 N   0  0  0  0  0  0  0  0  0  0  0  0
   -0.0632    0.7460   -3.1199 N   0  0  0  0  0  0  0  0  0  0  0  0
   -0.0632    0.2027   -1.8512 O   0  0  0  0  0  0  0  0  0  0  0  0
   -0.0632    0.1206    0.7360 H   0  0  0  0  0  0  0  0  0  0  0  0
  1  2  1  0
  1  5  1  0
  1  6  1  0
  2  3  2  0
  2  7  1  0
  3  4  1  0
  4  5  2  0
  8  9  2  3
  8 14  1  0
  9 10  1  0
  9 13  1  0
 10 11  1  0
 11 12  2  0
 12 13  1  0
M  RAD  1   5   2
M  END
>  <reaction>  (11) 
kfir_rxn_13897

>  <mol_properties>  (11) 
{"0": {"label": "*4", "atom_type": "N3s"}, "4": {"label": "*3", "atom_type": "Cd"}, "7": {"label": "*1", "atom_type": "N3d"}, "8": {"label": "*0", "atom_type": "Cd"}, "13": {"label": "*2", "atom_type": "H0"}}

>  <type>  (11) 
unop_7

>  <geom_source>  (11) 
Heuristics

$$$$

     RDKit          3D

 14 14  0  0  0  0  0  0  0  0999 V2000
    1.0431   -1.7444    1.5384 N   0  0  0  0  0  0  0  0  0  0  0  0
    0.7910   -2.3183    2.7439 C   0  0  0  0  0  0  0  0  0  0  0  0
   -0.3973   -1.9951    3.1578 N   0  0  0  0  0  0  0  0  0  0  0  0
   -0.9571   -1.1829    2.2047 N   0  0  0  0  0  0  0  0  0  0  0  0
   -0.0861   -1.0457    1.2506 C   0  0  0  0  0  3  0  0  0  0  0  0
    1.8763   -1.8197    0.9848 H   0  0  0  0  0  0  0  0  0  0  0  0
    1.4917   -2.9490    3.2654 H   0  0  0  0  0  0  0  0  0  0  0  0
   -0.0861    1.2731    0.2954 N   0  0  0  0  0  0  0  0  0  0  0  0
   -0.0861    1.2731   -0.9461 C   0  0  0  0  0  0  0  0  0  0  0  0
   -0.0861    2.3972   -1.7129 O   0  0  0  0  0  0  0  0  0  0  0  0
   -0.0861    1.9954   -3.0254 N   0  0  0  0  0  0  0  0  0  0  0  0
   -0.0861    0.7751   -3.0978 N   0  0  0  0  0  0  0  0  0  0  0  0
   -0.0861    0.2318   -1.8290 O   0  0  0  0  0  0  0  0  0  0  0  0
   -0.0861    0.1497    0.7581 H   0  0  0  0  0  0  0  0  0  0  0  0
  1  2  1  0
  1  5  1  0
  1  6  1  0
  2  3  2  0
  2  7  1  0
  3  4  1  0
  4  5  2  0
  8  9  2  3
  8 14  1  0
  9 10  1  0
  9 13  1  0
 10 11  1  0
 11 12  2  0
 12 13  1  0
M  RAD  1   5   2
M  END
>  <reaction>  (12) 
kfir_rxn_13897

>  <mol_properties>  (12) 
{"0": {"label": "*4", "atom_type": "N3s"}, "4": {"label": "*3", "atom_type": "Cd"}, "7": {"label": "*1", "atom_type": "N3d"}, "8": {"label": "*0", "atom_type": "Cd"}, "13": {"label": "*2", "atom_type": "H0"}}

>  <type>  (12) 
unop_8

>  <geom_source>  (12) 
Heuristics

$$$$

     RDKit          3D

 14 14  0  0  0  0  0  0  0  0999 V2000
   -0.4394   -1.9554    0.8326 N   0  0  0  0  0  0  0  0  0  0  0  0
   -0.5813   -2.8801    1.8179 C   0  0  0  0  0  0  0  0  0  0  0  0
   -0.1384   -2.4099    2.9451 N   0  0  0  0  0  0  0  0  0  0  0  0
    0.3125   -1.1360    2.7097 N   0  0  0  0  0  0  0  0  0  0  0  0
    0.1252   -0.8842    1.4490 C   0  0  0  0  0  3  0  0  0  0  0  0
   -0.6943   -2.0437   -0.1337 H   0  0  0  0  0  0  0  0  0  0  0  0
   -1.0040   -3.8591    1.6644 H   0  0  0  0  0  0  0  0  0  0  0  0
    0.1252    1.4346    0.4938 N   0  0  0  0  0  0  0  0  0  0  0  0
    0.1252    1.4346   -0.7477 C   0  0  0  0  0  0  0  0  0  0  0  0
    0.1252    2.5587   -1.5145 O   0  0  0  0  0  0  0  0  0  0  0  0
    0.1252    2.1570   -2.8271 N   0  0  0  0  0  0  0  0  0  0  0  0
    0.1252    0.9367   -2.8994 N   0  0  0  0  0  0  0  0  0  0  0  0
    0.1252    0.3933   -1.6306 O   0  0  0  0  0  0  0  0  0  0  0  0
    0.1252    0.3113    0.9565 H   0  0  0  0  0  0  0  0  0  0  0  0
  1  2  1  0
  1  5  1  0
  1  6  1  0
  2  3  2  0
  2  7  1  0
  3  4  1  0
  4  5  2  0
  8  9  2  3
  8 14  1  0
  9 10  1  0
  9 13  1  0
 10 11  1  0
 11 12  2  0
 12 13  1  0
M  RAD  1   5   2
M  END
>  <reaction>  (13) 
kfir_rxn_13897

>  <mol_properties>  (13) 
{"0": {"label": "*4", "atom_type": "N3s"}, "4": {"label": "*3", "atom_type": "Cd"}, "7": {"label": "*1", "atom_type": "N3d"}, "8": {"label": "*0", "atom_type": "Cd"}, "13": {"label": "*2", "atom_type": "H0"}}

>  <type>  (13) 
unop_9

>  <geom_source>  (13) 
Heuristics

$$$$

     RDKit          3D

 14 14  0  0  0  0  0  0  0  0999 V2000
    0.8160   -1.8807    1.1106 N   0  0  0  0  0  0  0  0  0  0  0  0
    0.8825   -2.6099    2.2551 C   0  0  0  0  0  0  0  0  0  0  0  0
    0.0142   -2.1752    3.1182 N   0  0  0  0  0  0  0  0  0  0  0  0
   -0.6524   -1.1266    2.5372 N   0  0  0  0  0  0  0  0  0  0  0  0
   -0.1619   -0.9670    1.3448 C   0  0  0  0  0  3  0  0  0  0  0  0
    1.3658   -1.9920    0.2789 H   0  0  0  0  0  0  0  0  0  0  0  0
    1.5663   -3.4290    2.4048 H   0  0  0  0  0  0  0  0  0  0  0  0
   -0.1619    1.3519    0.3896 N   0  0  0  0  0  0  0  0  0  0  0  0
   -0.1619    1.3519   -0.8519 C   0  0  0  0  0  0  0  0  0  0  0  0
   -0.1619    2.4760   -1.6186 O   0  0  0  0  0  0  0  0  0  0  0  0
   -0.1619    2.0742   -2.9312 N   0  0  0  0  0  0  0  0  0  0  0  0
   -0.1619    0.8539   -3.0035 N   0  0  0  0  0  0  0  0  0  0  0  0
   -0.1619    0.3105   -1.7348 O   0  0  0  0  0  0  0  0  0  0  0  0
   -0.1619    0.2285    0.8524 H   0  0  0  0  0  0  0  0  0  0  0  0
  1  2  1  0
  1  5  1  0
  1  6  1  0
  2  3  2  0
  2  7  1  0
  3  4  1  0
  4  5  2  0
  8  9  2  3
  8 14  1  0
  9 10  1  0
  9 13  1  0
 10 11  1  0
 11 12  2  0
 12 13  1  0
M  RAD  1   5   2
M  END
>  <reaction>  (14) 
kfir_rxn_13897

>  <mol_properties>  (14) 
{"0": {"label": "*4", "atom_type": "N3s"}, "4": {"label": "*3", "atom_type": "Cd"}, "7": {"label": "*1", "atom_type": "N3d"}, "8": {"label": "*0", "atom_type": "Cd"}, "13": {"label": "*2", "atom_type": "H0"}}

>  <type>  (14) 
unop_10

>  <geom_source>  (14) 
Heuristics

$$$$

     RDKit          3D

 14 14  0  0  0  0  0  0  0  0999 V2000
   -0.7504   -1.3327    2.5092 N   0  0  0  0  0  0  0  0  0  0  0  0
    0.1218   -2.2102    3.0708 C   0  0  0  0  0  0  0  0  0  0  0  0
    1.1372   -2.4034    2.2837 N   0  0  0  0  0  0  0  0  0  0  0  0
    0.9409   -1.6351    1.1644 N   0  0  0  0  0  0  0  0  0  0  0  0
   -0.1858   -1.0065    1.3172 C   0  0  0  0  0  3  0  0  0  0  0  0
   -1.6171   -1.0002    2.8894 H   0  0  0  0  0  0  0  0  0  0  0  0
   -0.0270   -2.6693    4.0341 H   0  0  0  0  0  0  0  0  0  0  0  0
   -0.1858    1.3123    0.3620 N   0  0  0  0  0  0  0  0  0  0  0  0
   -0.1858    1.3123   -0.8795 C   0  0  0  0  0  0  0  0  0  0  0  0
   -0.1858    2.4364   -1.6463 O   0  0  0  0  0  0  0  0  0  0  0  0
   -0.1858    2.0346   -2.9588 N   0  0  0  0  0  0  0  0  0  0  0  0
   -0.1858    0.8143   -3.0312 N   0  0  0  0  0  0  0  0  0  0  0  0
   -0.1858    0.2710   -1.7624 O   0  0  0  0  0  0  0  0  0  0  0  0
   -0.1858    0.1889    0.8247 H   0  0  0  0  0  0  0  0  0  0  0  0
  1  2  1  0
  1  5  1  0
  1  6  1  0
  2  3  2  0
  2  7  1  0
  3  4  1  0
  4  5  2  0
  8  9  2  3
  8 14  1  0
  9 10  1  0
  9 13  1  0
 10 11  1  0
 11 12  2  0
 12 13  1  0
M  RAD  1   5   2
M  END
>  <reaction>  (15) 
kfir_rxn_13897

>  <mol_properties>  (15) 
{"0": {"label": "*4", "atom_type": "N3s"}, "4": {"label": "*3", "atom_type": "Cd"}, "7": {"label": "*1", "atom_type": "N3d"}, "8": {"label": "*0", "atom_type": "Cd"}, "13": {"label": "*2", "atom_type": "H0"}}

>  <type>  (15) 
unop_11

>  <geom_source>  (15) 
Heuristics

$$$$

     RDKit          3D

 14 14  0  0  0  0  0  0  0  0999 V2000
    0.0000   -1.9768    0.7382 N   0  0  0  0  0  0  0  0  0  0  0  0
    0.0000   -2.9922    1.6411 C   0  0  0  0  0  0  0  0  0  0  0  0
    0.0000   -2.5198    2.8514 N   0  0  0  0  0  0  0  0  0  0  0  0
    0.0000   -1.1513    2.7578 N   0  0  0  0  0  0  0  0  0  0  0  0
    0.0000   -0.8481    1.4945 C   0  0  0  0  0  3  0  0  0  0  0  0
    0.0000   -2.0453   -0.2626 H   0  0  0  0  0  0  0  0  0  0  0  0
    0.0000   -4.0350    1.3701 H   0  0  0  0  0  0  0  0  0  0  0  0
   -0.0000    1.4707    0.5393 N   0  0  0  0  0  0  0  0  0  0  0  0
   -0.0000    1.4707   -0.7022 C   0  0  0  0  0  0  0  0  0  0  0  0
   -0.0000    2.5949   -1.4689 O   0  0  0  0  0  0  0  0  0  0  0  0
   -0.0000    2.1931   -2.7815 N   0  0  0  0  0  0  0  0  0  0  0  0
   -0.0000    0.9728   -2.8539 N   0  0  0  0  0  0  0  0  0  0  0  0
   -0.0000    0.4294   -1.5851 O   0  0  0  0  0  0  0  0  0  0  0  0
   -0.0000    0.3474    1.0020 H   0  0  0  0  0  0  0  0  0  0  0  0
  1  2  1  0
  1  5  1  0
  1  6  1  0
  2  3  2  0
  2  7  1  0
  3  4  1  0
  4  5  2  0
  8  9  2  3
  8 14  1  0
  9 10  1  0
  9 13  1  0
 10 11  1  0
 11 12  2  0
 12 13  1  0
M  RAD  1   5   2
M  END
>  <reaction>  (16) 
kfir_rxn_13897

>  <mol_properties>  (16) 
{"0": {"label": "*4", "atom_type": "N3s"}, "4": {"label": "*3", "atom_type": "Cd"}, "7": {"label": "*1", "atom_type": "N3d"}, "8": {"label": "*0", "atom_type": "Cd"}, "13": {"label": "*2", "atom_type": "H0"}}

>  <type>  (16) 
unop_12

>  <geom_source>  (16) 
Heuristics

$$$$
