
     RDKit          3D

  6  5  0  0  0  0  0  0  0  0999 V2000
    1.5050   -0.1493    0.2580 C   0  0  0  0  0  0  0  0  0  0  0  0
    0.3282   -0.0584    0.0516 C   0  0  0  0  0  0  0  0  0  0  0  0
   -1.0939    0.1069   -0.1804 C   0  0  0  0  0  0  0  0  0  0  0  0
   -1.8068   -0.7644   -0.5961 O   0  0  0  0  0  0  0  0  0  0  0  0
    2.5502   -0.2472    0.4359 H   0  0  0  0  0  0  0  0  0  0  0  0
   -1.4827    1.1125    0.0574 H   0  0  0  0  0  0  0  0  0  0  0  0
  1  2  3  0
  1  5  1  0
  2  3  1  0
  3  4  2  0
  3  6  1  0
M  END
>  <reaction>  (1) 
kfir_rxn_9409

>  <mol_properties>  (1) 
{"2": {"label": "donator", "atom_type": "CO"}, "5": {"label": "d_hydrogen", "atom_type": "H0"}}

>  <type>  (1) 
r1h

$$$$

     RDKit          3D

  7  7  0  0  0  0  0  0  0  0999 V2000
   -1.0451   -1.0587    0.4139 N   0  0  0  0  0  2  0  0  0  0  0  0
    0.2233   -1.1484    0.1757 N   0  0  0  0  0  0  0  0  0  0  0  0
    0.8848   -0.0376   -0.1355 C   0  0  0  0  0  0  0  0  0  0  0  0
    2.1546   -0.1742   -0.3664 F   0  0  0  0  0  0  0  0  0  0  0  0
    0.3610    1.1601   -0.2246 N   0  0  0  0  0  0  0  0  0  0  0  0
   -0.9111    1.1355    0.0328 C   0  0  0  0  0  0  0  0  0  0  0  0
   -1.6675    0.1234    0.3469 N   0  0  0  0  0  0  0  0  0  0  0  0
  1  7  1  0
  1  2  1  0
  2  3  2  0
  3  4  1  0
  3  5  1  0
  5  6  2  0
  6  7  2  0
M  RAD  1   1   2
M  END
>  <reaction>  (2) 
kfir_rxn_9409

>  <mol_properties>  (2) 
{"4": {"label": "acceptor", "atom_type": "N5dc"}}

>  <type>  (2) 
r2

$$$$

     RDKit          3D

  8  8  0  0  0  0  0  0  0  0999 V2000
   -1.0045    1.4719    0.0960 N   0  0  0  0  0  2  0  0  0  0  0  0
    0.3503    1.3964    0.0137 N   0  0  0  0  0  0  0  0  0  0  0  0
    0.8438    0.2170   -0.0447 C   0  0  0  0  0  0  0  0  0  0  0  0
    2.1379    0.0493   -0.1257 F   0  0  0  0  0  0  0  0  0  0  0  0
    0.1027   -0.8952   -0.0282 N   0  0  0  0  0  4  0  0  0  0  0  0
   -1.2566   -0.8762    0.0530 C   0  0  0  0  0  0  0  0  0  0  0  0
   -1.7407    0.4302    0.1140 N   0  0  0  0  0  0  0  0  0  0  0  0
    0.5669   -1.7934   -0.0780 H   0  0  0  0  0  0  0  0  0  0  0  0
  1  7  1  0
  1  2  1  0
  2  3  2  0
  3  4  1  0
  3  5  1  0
  5  6  2  0
  5  8  1  0
  6  7  2  0
M  CHG  2   1  -1   5   1
M  END
>  <reaction>  (3) 
kfir_rxn_9409

>  <mol_properties>  (3) 
{"4": {"label": "acceptor", "atom_type": "N5dc"}, "7": {"label": "a_hydrogen", "atom_type": "H0"}}

>  <type>  (3) 
r2h

$$$$

     RDKit          3D

 13 12  0  0  0  0  0  0  0  0999 V2000
    0.0377    2.5304    1.8506 N   0  0  0  0  0  2  0  0  0  0  0  0
    0.0382    2.6132    0.5151 N   0  0  0  0  0  0  0  0  0  0  0  0
    0.0233    1.4956   -0.1343 C   0  0  0  0  0  0  0  0  0  0  0  0
    0.0231    1.5183   -1.4407 F   0  0  0  0  0  0  0  0  0  0  0  0
    0.0080    0.3127    0.4561 N   0  0  0  0  0  4  0  0  0  0  0  0
    0.0072    0.2125    1.7661 C   0  0  0  0  0  0  0  0  0  0  0  0
    0.0231    1.4001    2.4694 N   0  0  0  0  0  0  0  0  0  0  0  0
   -0.0324   -2.6561   -3.0279 C   0  0  0  0  0  0  0  0  0  0  0  0
   -0.0301   -2.5170   -1.8355 C   0  0  0  0  0  0  0  0  0  0  0  0
   -0.0245   -2.1355   -0.4672 C   0  0  0  0  0  3  0  0  0  0  0  0
   -0.0327   -2.7926    0.5187 O   0  0  0  0  0  0  0  0  0  0  0  0
   -0.0349   -2.8183   -4.0809 H   0  0  0  0  0  0  0  0  0  0  0  0
   -0.0061   -0.7436   -0.1750 H   0  0  0  0  0  0  0  0  0  0  0  0
  1  7  1  0
  1  2  1  0
  2  3  2  0
  3  4  1  0
  3  5  1  0
  5  6  2  0
  5 13  1  0
  6  7  2  0
  8  9  3  0
  8 12  1  0
  9 10  1  0
 10 11  2  0
M  CHG  2   1  -1   5   1
M  RAD  1  10   2
M  END
>  <reaction>  (4) 
kfir_rxn_9409

>  <mol_properties>  (4) 
{"2": {"label": "*0", "atom_type": "Cd"}, "4": {"label": "*1", "atom_type": "N5dc"}, "8": {"label": "*4", "atom_type": "Ct"}, "9": {"label": "*3", "atom_type": "CO"}, "12": {"label": "*2", "atom_type": "H0"}}

>  <type>  (4) 
ts

$$$$

     RDKit          3D

 13 12  0  0  0  0  0  0  0  0999 V2000
    0.5914    1.8287    2.2181 N   0  0  0  0  0  2  0  0  0  0  0  0
   -0.6938    1.5741    1.8556 N   0  0  0  0  0  0  0  0  0  0  0  0
   -0.8522    0.9657    0.7409 C   0  0  0  0  0  0  0  0  0  0  0  0
   -2.0541    0.6798    0.3131 F   0  0  0  0  0  0  0  0  0  0  0  0
    0.1611    0.5885   -0.0450 N   0  0  0  0  0  4  0  0  0  0  0  0
    1.4659    0.8185    0.2702 C   0  0  0  0  0  0  0  0  0  0  0  0
    1.5810    1.4822    1.4912 N   0  0  0  0  0  0  0  0  0  0  0  0
    0.1611   -1.8209   -3.6521 C   0  0  0  0  0  0  0  0  0  0  0  0
    0.1611   -1.8209   -2.4539 C   0  0  0  0  0  0  0  0  0  0  0  0
    0.1611   -1.7629   -1.0048 C   0  0  0  0  0  3  0  0  0  0  0  0
    0.1611   -2.7336   -0.2991 O   0  0  0  0  0  0  0  0  0  0  0  0
    0.1611   -1.8388   -4.7168 H   0  0  0  0  0  0  0  0  0  0  0  0
    0.1611   -0.5362   -0.5041 H   0  0  0  0  0  0  0  0  0  0  0  0
  1  7  1  0
  1  2  1  0
  2  3  2  0
  3  4  1  0
  3  5  1  0
  5  6  2  0
  5 13  1  0
  6  7  2  0
  8  9  3  0
  8 12  1  0
  9 10  1  0
 10 11  2  0
M  CHG  2   1  -1   5   1
M  RAD  1  10   2
M  END
>  <reaction>  (5) 
kfir_rxn_9409

>  <mol_properties>  (5) 
{"2": {"label": "*0", "atom_type": "Cd"}, "4": {"label": "*1", "atom_type": "N5dc"}, "8": {"label": "*4", "atom_type": "Ct"}, "9": {"label": "*3", "atom_type": "CO"}, "12": {"label": "*2", "atom_type": "H0"}}

>  <type>  (5) 
unop_1

>  <geom_source>  (5) 
Heuristics

$$$$

     RDKit          3D

 13 12  0  0  0  0  0  0  0  0999 V2000
   -0.4141    2.4792    1.6956 N   0  0  0  0  0  2  0  0  0  0  0  0
   -0.6598    2.3319    0.3667 N   0  0  0  0  0  0  0  0  0  0  0  0
   -0.2994    1.2181   -0.1503 C   0  0  0  0  0  0  0  0  0  0  0  0
   -0.4968    0.9894   -1.4224 F   0  0  0  0  0  0  0  0  0  0  0  0
    0.2856    0.2368    0.5436 N   0  0  0  0  0  4  0  0  0  0  0  0
    0.5544    0.3323    1.8752 C   0  0  0  0  0  0  0  0  0  0  0  0
    0.1424    1.5625    2.3867 N   0  0  0  0  0  0  0  0  0  0  0  0
    0.2856   -2.1726   -3.0636 C   0  0  0  0  0  0  0  0  0  0  0  0
    0.2856   -2.1726   -1.8653 C   0  0  0  0  0  0  0  0  0  0  0  0
    0.2856   -2.1146   -0.4162 C   0  0  0  0  0  3  0  0  0  0  0  0
    0.2856   -3.0853    0.2895 O   0  0  0  0  0  0  0  0  0  0  0  0
    0.2856   -2.1905   -4.1282 H   0  0  0  0  0  0  0  0  0  0  0  0
    0.2856   -0.8879    0.0845 H   0  0  0  0  0  0  0  0  0  0  0  0
  1  7  1  0
  1  2  1  0
  2  3  2  0
  3  4  1  0
  3  5  1  0
  5  6  2  0
  5 13  1  0
  6  7  2  0
  8  9  3  0
  8 12  1  0
  9 10  1  0
 10 11  2  0
M  CHG  2   1  -1   5   1
M  RAD  1  10   2
M  END
>  <reaction>  (6) 
kfir_rxn_9409

>  <mol_properties>  (6) 
{"2": {"label": "*0", "atom_type": "Cd"}, "4": {"label": "*1", "atom_type": "N5dc"}, "8": {"label": "*4", "atom_type": "Ct"}, "9": {"label": "*3", "atom_type": "CO"}, "12": {"label": "*2", "atom_type": "H0"}}

>  <type>  (6) 
unop_2

>  <geom_source>  (6) 
Heuristics

$$$$

     RDKit          3D

 13 12  0  0  0  0  0  0  0  0999 V2000
    0.9586    2.2129    1.6980 N   0  0  0  0  0  2  0  0  0  0  0  0
   -0.1888    1.5627    2.0280 N   0  0  0  0  0  0  0  0  0  0  0  0
   -0.6493    0.7558    1.1479 C   0  0  0  0  0  0  0  0  0  0  0  0
   -1.7488    0.0875    1.3801 F   0  0  0  0  0  0  0  0  0  0  0  0
   -0.0643    0.5404   -0.0344 N   0  0  0  0  0  4  0  0  0  0  0  0
    1.0848    1.1645   -0.4149 C   0  0  0  0  0  0  0  0  0  0  0  0
    1.5420    2.0301    0.5783 N   0  0  0  0  0  0  0  0  0  0  0  0
   -0.0643   -1.8690   -3.6416 C   0  0  0  0  0  0  0  0  0  0  0  0
   -0.0643   -1.8690   -2.4433 C   0  0  0  0  0  0  0  0  0  0  0  0
   -0.0643   -1.8110   -0.9942 C   0  0  0  0  0  3  0  0  0  0  0  0
   -0.0643   -2.7817   -0.2886 O   0  0  0  0  0  0  0  0  0  0  0  0
   -0.0643   -1.8869   -4.7062 H   0  0  0  0  0  0  0  0  0  0  0  0
   -0.0643   -0.5843   -0.4935 H   0  0  0  0  0  0  0  0  0  0  0  0
  1  7  1  0
  1  2  1  0
  2  3  2  0
  3  4  1  0
  3  5  1  0
  5  6  2  0
  5 13  1  0
  6  7  2  0
  8  9  3  0
  8 12  1  0
  9 10  1  0
 10 11  2  0
M  CHG  2   1  -1   5   1
M  RAD  1  10   2
M  END
>  <reaction>  (7) 
kfir_rxn_9409

>  <mol_properties>  (7) 
{"2": {"label": "*0", "atom_type": "Cd"}, "4": {"label": "*1", "atom_type": "N5dc"}, "8": {"label": "*4", "atom_type": "Ct"}, "9": {"label": "*3", "atom_type": "CO"}, "12": {"label": "*2", "atom_type": "H0"}}

>  <type>  (7) 
unop_3

>  <geom_source>  (7) 
Heuristics

$$$$

     RDKit          3D

 13 12  0  0  0  0  0  0  0  0999 V2000
    0.4405    2.1396    2.0553 N   0  0  0  0  0  2  0  0  0  0  0  0
    1.0479    2.0721    0.8410 N   0  0  0  0  0  0  0  0  0  0  0  0
    0.5892    1.1926    0.0324 C   0  0  0  0  0  0  0  0  0  0  0  0
    1.1130    1.0572   -1.1578 F   0  0  0  0  0  0  0  0  0  0  0  0
   -0.4241    0.3732    0.3299 N   0  0  0  0  0  4  0  0  0  0  0  0
   -1.0671    0.3987    1.5301 C   0  0  0  0  0  0  0  0  0  0  0  0
   -0.5289    1.3725    2.3708 N   0  0  0  0  0  0  0  0  0  0  0  0
   -0.4241   -2.0362   -3.2773 C   0  0  0  0  0  0  0  0  0  0  0  0
   -0.4241   -2.0362   -2.0790 C   0  0  0  0  0  0  0  0  0  0  0  0
   -0.4241   -1.9782   -0.6299 C   0  0  0  0  0  3  0  0  0  0  0  0
   -0.4241   -2.9489    0.0757 O   0  0  0  0  0  0  0  0  0  0  0  0
   -0.4241   -2.0541   -4.3419 H   0  0  0  0  0  0  0  0  0  0  0  0
   -0.4241   -0.7515   -0.1292 H   0  0  0  0  0  0  0  0  0  0  0  0
  1  7  1  0
  1  2  1  0
  2  3  2  0
  3  4  1  0
  3  5  1  0
  5  6  2  0
  5 13  1  0
  6  7  2  0
  8  9  3  0
  8 12  1  0
  9 10  1  0
 10 11  2  0
M  CHG  2   1  -1   5   1
M  RAD  1  10   2
M  END
>  <reaction>  (8) 
kfir_rxn_9409

>  <mol_properties>  (8) 
{"2": {"label": "*0", "atom_type": "Cd"}, "4": {"label": "*1", "atom_type": "N5dc"}, "8": {"label": "*4", "atom_type": "Ct"}, "9": {"label": "*3", "atom_type": "CO"}, "12": {"label": "*2", "atom_type": "H0"}}

>  <type>  (8) 
unop_4

>  <geom_source>  (8) 
Heuristics

$$$$

     RDKit          3D

 13 12  0  0  0  0  0  0  0  0999 V2000
    0.0000    2.7923    1.1453 N   0  0  0  0  0  2  0  0  0  0  0  0
    0.0000    1.7091    1.9668 N   0  0  0  0  0  0  0  0  0  0  0  0
    0.0000    0.5671    1.3892 C   0  0  0  0  0  0  0  0  0  0  0  0
   -0.0000   -0.5295    2.1012 F   0  0  0  0  0  0  0  0  0  0  0  0
    0.0000    0.4110    0.0618 N   0  0  0  0  0  4  0  0  0  0  0  0
    0.0000    1.4608   -0.8057 C   0  0  0  0  0  0  0  0  0  0  0  0
    0.0000    2.6781   -0.1253 N   0  0  0  0  0  0  0  0  0  0  0  0
   -0.0000   -1.9984   -3.5454 C   0  0  0  0  0  0  0  0  0  0  0  0
   -0.0000   -1.9984   -2.3471 C   0  0  0  0  0  0  0  0  0  0  0  0
   -0.0000   -1.9404   -0.8980 C   0  0  0  0  0  3  0  0  0  0  0  0
   -0.0000   -2.9112   -0.1924 O   0  0  0  0  0  0  0  0  0  0  0  0
   -0.0000   -2.0164   -4.6100 H   0  0  0  0  0  0  0  0  0  0  0  0
   -0.0000   -0.7138   -0.3973 H   0  0  0  0  0  0  0  0  0  0  0  0
  1  7  1  0
  1  2  1  0
  2  3  2  0
  3  4  1  0
  3  5  1  0
  5  6  2  0
  5 13  1  0
  6  7  2  0
  8  9  3  0
  8 12  1  0
  9 10  1  0
 10 11  2  0
M  CHG  2   1  -1   5   1
M  RAD  1  10   2
M  END
>  <reaction>  (9) 
kfir_rxn_9409

>  <mol_properties>  (9) 
{"2": {"label": "*0", "atom_type": "Cd"}, "4": {"label": "*1", "atom_type": "N5dc"}, "8": {"label": "*4", "atom_type": "Ct"}, "9": {"label": "*3", "atom_type": "CO"}, "12": {"label": "*2", "atom_type": "H0"}}

>  <type>  (9) 
unop_5

>  <geom_source>  (9) 
Heuristics

$$$$

     RDKit          3D

 13 12  0  0  0  0  0  0  0  0999 V2000
    0.0295    1.8606    2.3059 N   0  0  0  0  0  2  0  0  0  0  0  0
    1.0456    1.7807    1.4064 N   0  0  0  0  0  0  0  0  0  0  0  0
    0.8025    1.1106    0.3435 C   0  0  0  0  0  0  0  0  0  0  0  0
    1.7221    0.9811   -0.5767 F   0  0  0  0  0  0  0  0  0  0  0  0
   -0.3676    0.5124    0.0993 N   0  0  0  0  0  4  0  0  0  0  0  0
   -1.4173    0.5609    0.9655 C   0  0  0  0  0  0  0  0  0  0  0  0
   -1.0992    1.3014    2.1035 N   0  0  0  0  0  0  0  0  0  0  0  0
   -0.3676   -1.8970   -3.5078 C   0  0  0  0  0  0  0  0  0  0  0  0
   -0.3676   -1.8970   -2.3096 C   0  0  0  0  0  0  0  0  0  0  0  0
   -0.3676   -1.8390   -0.8605 C   0  0  0  0  0  3  0  0  0  0  0  0
   -0.3676   -2.8098   -0.1548 O   0  0  0  0  0  0  0  0  0  0  0  0
   -0.3676   -1.9150   -4.5725 H   0  0  0  0  0  0  0  0  0  0  0  0
   -0.3676   -0.6124   -0.3598 H   0  0  0  0  0  0  0  0  0  0  0  0
  1  7  1  0
  1  2  1  0
  2  3  2  0
  3  4  1  0
  3  5  1  0
  5  6  2  0
  5 13  1  0
  6  7  2  0
  8  9  3  0
  8 12  1  0
  9 10  1  0
 10 11  2  0
M  CHG  2   1  -1   5   1
M  RAD  1  10   2
M  END
>  <reaction>  (10) 
kfir_rxn_9409

>  <mol_properties>  (10) 
{"2": {"label": "*0", "atom_type": "Cd"}, "4": {"label": "*1", "atom_type": "N5dc"}, "8": {"label": "*4", "atom_type": "Ct"}, "9": {"label": "*3", "atom_type": "CO"}, "12": {"label": "*2", "atom_type": "H0"}}

>  <type>  (10) 
unop_6

>  <geom_source>  (10) 
Heuristics

$$$$

     RDKit          3D

 13 12  0  0  0  0  0  0  0  0999 V2000
   -0.5914    1.8287    2.2181 N   0  0  0  0  0  2  0  0  0  0  0  0
    0.6938    1.5741    1.8556 N   0  0  0  0  0  0  0  0  0  0  0  0
    0.8522    0.9657    0.7409 C   0  0  0  0  0  0  0  0  0  0  0  0
    2.0541    0.6798    0.3131 F   0  0  0  0  0  0  0  0  0  0  0  0
   -0.1611    0.5885   -0.0450 N   0  0  0  0  0  4  0  0  0  0  0  0
   -1.4658    0.8185    0.2702 C   0  0  0  0  0  0  0  0  0  0  0  0
   -1.5810    1.4822    1.4912 N   0  0  0  0  0  0  0  0  0  0  0  0
   -0.1611   -1.8209   -3.6521 C   0  0  0  0  0  0  0  0  0  0  0  0
   -0.1611   -1.8209   -2.4539 C   0  0  0  0  0  0  0  0  0  0  0  0
   -0.1611   -1.7629   -1.0048 C   0  0  0  0  0  3  0  0  0  0  0  0
   -0.1611   -2.7336   -0.2991 O   0  0  0  0  0  0  0  0  0  0  0  0
   -0.1611   -1.8388   -4.7168 H   0  0  0  0  0  0  0  0  0  0  0  0
   -0.1611   -0.5362   -0.5041 H   0  0  0  0  0  0  0  0  0  0  0  0
  1  7  1  0
  1  2  1  0
  2  3  2  0
  3  4  1  0
  3  5  1  0
  5  6  2  0
  5 13  1  0
  6  7  2  0
  8  9  3  0
  8 12  1  0
  9 10  1  0
 10 11  2  0
M  CHG  2   1  -1   5   1
M  RAD  1  10   2
M  END
>  <reaction>  (11) 
kfir_rxn_9409

>  <mol_properties>  (11) 
{"2": {"label": "*0", "atom_type": "Cd"}, "4": {"label": "*1", "atom_type": "N5dc"}, "8": {"label": "*4", "atom_type": "Ct"}, "9": {"label": "*3", "atom_type": "CO"}, "12": {"label": "*2", "atom_type": "H0"}}

>  <type>  (11) 
unop_7

>  <geom_source>  (11) 
Heuristics

$$$$

     RDKit          3D

 13 12  0  0  0  0  0  0  0  0999 V2000
   -0.0295    1.8606    2.3059 N   0  0  0  0  0  2  0  0  0  0  0  0
   -1.0456    1.7808    1.4064 N   0  0  0  0  0  0  0  0  0  0  0  0
   -0.8024    1.1106    0.3435 C   0  0  0  0  0  0  0  0  0  0  0  0
   -1.7221    0.9812   -0.5767 F   0  0  0  0  0  0  0  0  0  0  0  0
    0.3676    0.5123    0.0993 N   0  0  0  0  0  4  0  0  0  0  0  0
    1.4173    0.5608    0.9655 C   0  0  0  0  0  0  0  0  0  0  0  0
    1.0992    1.3014    2.1035 N   0  0  0  0  0  0  0  0  0  0  0  0
    0.3676   -1.8970   -3.5078 C   0  0  0  0  0  0  0  0  0  0  0  0
    0.3676   -1.8970   -2.3096 C   0  0  0  0  0  0  0  0  0  0  0  0
    0.3676   -1.8391   -0.8605 C   0  0  0  0  0  3  0  0  0  0  0  0
    0.3676   -2.8098   -0.1548 O   0  0  0  0  0  0  0  0  0  0  0  0
    0.3676   -1.9150   -4.5725 H   0  0  0  0  0  0  0  0  0  0  0  0
    0.3676   -0.6124   -0.3598 H   0  0  0  0  0  0  0  0  0  0  0  0
  1  7  1  0
  1  2  1  0
  2  3  2  0
  3  4  1  0
  3  5  1  0
  5  6  2  0
  5 13  1  0
  6  7  2  0
  8  9  3  0
  8 12  1  0
  9 10  1  0
 10 11  2  0
M  CHG  2   1  -1   5   1
M  RAD  1  10   2
M  END
>  <reaction>  (12) 
kfir_rxn_9409

>  <mol_properties>  (12) 
{"2": {"label": "*0", "atom_type": "Cd"}, "4": {"label": "*1", "atom_type": "N5dc"}, "8": {"label": "*4", "atom_type": "Ct"}, "9": {"label": "*3", "atom_type": "CO"}, "12": {"label": "*2", "atom_type": "H0"}}

>  <type>  (12) 
unop_8

>  <geom_source>  (12) 
Heuristics

$$$$

     RDKit          3D

 13 12  0  0  0  0  0  0  0  0999 V2000
    0.4141    2.4792    1.6956 N   0  0  0  0  0  2  0  0  0  0  0  0
    0.6599    2.3319    0.3667 N   0  0  0  0  0  0  0  0  0  0  0  0
    0.2994    1.2181   -0.1503 C   0  0  0  0  0  0  0  0  0  0  0  0
    0.4968    0.9894   -1.4224 F   0  0  0  0  0  0  0  0  0  0  0  0
   -0.2856    0.2369    0.5436 N   0  0  0  0  0  4  0  0  0  0  0  0
   -0.5543    0.3323    1.8752 C   0  0  0  0  0  0  0  0  0  0  0  0
   -0.1424    1.5625    2.3867 N   0  0  0  0  0  0  0  0  0  0  0  0
   -0.2856   -2.1725   -3.0636 C   0  0  0  0  0  0  0  0  0  0  0  0
   -0.2856   -2.1725   -1.8653 C   0  0  0  0  0  0  0  0  0  0  0  0
   -0.2856   -2.1146   -0.4162 C   0  0  0  0  0  3  0  0  0  0  0  0
   -0.2856   -3.0853    0.2895 O   0  0  0  0  0  0  0  0  0  0  0  0
   -0.2856   -2.1905   -4.1282 H   0  0  0  0  0  0  0  0  0  0  0  0
   -0.2856   -0.8879    0.0845 H   0  0  0  0  0  0  0  0  0  0  0  0
  1  7  1  0
  1  2  1  0
  2  3  2  0
  3  4  1  0
  3  5  1  0
  5  6  2  0
  5 13  1  0
  6  7  2  0
  8  9  3  0
  8 12  1  0
  9 10  1  0
 10 11  2  0
M  CHG  2   1  -1   5   1
M  RAD  1  10   2
M  END
>  <reaction>  (13) 
kfir_rxn_9409

>  <mol_properties>  (13) 
{"2": {"label": "*0", "atom_type": "Cd"}, "4": {"label": "*1", "atom_type": "N5dc"}, "8": {"label": "*4", "atom_type": "Ct"}, "9": {"label": "*3", "atom_type": "CO"}, "12": {"label": "*2", "atom_type": "H0"}}

>  <type>  (13) 
unop_9

>  <geom_source>  (13) 
Heuristics

$$$$

     RDKit          3D

 13 12  0  0  0  0  0  0  0  0999 V2000
   -0.4404    2.1396    2.0553 N   0  0  0  0  0  2  0  0  0  0  0  0
   -1.0479    2.0721    0.8410 N   0  0  0  0  0  0  0  0  0  0  0  0
   -0.5892    1.1926    0.0324 C   0  0  0  0  0  0  0  0  0  0  0  0
   -1.1130    1.0572   -1.1578 F   0  0  0  0  0  0  0  0  0  0  0  0
    0.4241    0.3732    0.3299 N   0  0  0  0  0  4  0  0  0  0  0  0
    1.0671    0.3987    1.5301 C   0  0  0  0  0  0  0  0  0  0  0  0
    0.5289    1.3725    2.3708 N   0  0  0  0  0  0  0  0  0  0  0  0
    0.4241   -2.0362   -3.2773 C   0  0  0  0  0  0  0  0  0  0  0  0
    0.4241   -2.0362   -2.0790 C   0  0  0  0  0  0  0  0  0  0  0  0
    0.4241   -1.9782   -0.6299 C   0  0  0  0  0  3  0  0  0  0  0  0
    0.4241   -2.9489    0.0757 O   0  0  0  0  0  0  0  0  0  0  0  0
    0.4241   -2.0541   -4.3419 H   0  0  0  0  0  0  0  0  0  0  0  0
    0.4241   -0.7515   -0.1292 H   0  0  0  0  0  0  0  0  0  0  0  0
  1  7  1  0
  1  2  1  0
  2  3  2  0
  3  4  1  0
  3  5  1  0
  5  6  2  0
  5 13  1  0
  6  7  2  0
  8  9  3  0
  8 12  1  0
  9 10  1  0
 10 11  2  0
M  CHG  2   1  -1   5   1
M  RAD  1  10   2
M  END
>  <reaction>  (14) 
kfir_rxn_9409

>  <mol_properties>  (14) 
{"2": {"label": "*0", "atom_type": "Cd"}, "4": {"label": "*1", "atom_type": "N5dc"}, "8": {"label": "*4", "atom_type": "Ct"}, "9": {"label": "*3", "atom_type": "CO"}, "12": {"label": "*2", "atom_type": "H0"}}

>  <type>  (14) 
unop_10

>  <geom_source>  (14) 
Heuristics

$$$$

     RDKit          3D

 13 12  0  0  0  0  0  0  0  0999 V2000
   -0.9585    2.2129    1.6980 N   0  0  0  0  0  2  0  0  0  0  0  0
    0.1888    1.5627    2.0280 N   0  0  0  0  0  0  0  0  0  0  0  0
    0.6493    0.7558    1.1479 C   0  0  0  0  0  0  0  0  0  0  0  0
    1.7488    0.0874    1.3801 F   0  0  0  0  0  0  0  0  0  0  0  0
    0.0643    0.5404   -0.0344 N   0  0  0  0  0  4  0  0  0  0  0  0
   -1.0847    1.1646   -0.4149 C   0  0  0  0  0  0  0  0  0  0  0  0
   -1.5420    2.0302    0.5783 N   0  0  0  0  0  0  0  0  0  0  0  0
    0.0643   -1.8690   -3.6416 C   0  0  0  0  0  0  0  0  0  0  0  0
    0.0643   -1.8690   -2.4433 C   0  0  0  0  0  0  0  0  0  0  0  0
    0.0643   -1.8110   -0.9942 C   0  0  0  0  0  3  0  0  0  0  0  0
    0.0643   -2.7817   -0.2886 O   0  0  0  0  0  0  0  0  0  0  0  0
    0.0643   -1.8869   -4.7062 H   0  0  0  0  0  0  0  0  0  0  0  0
    0.0643   -0.5843   -0.4935 H   0  0  0  0  0  0  0  0  0  0  0  0
  1  7  1  0
  1  2  1  0
  2  3  2  0
  3  4  1  0
  3  5  1  0
  5  6  2  0
  5 13  1  0
  6  7  2  0
  8  9  3  0
  8 12  1  0
  9 10  1  0
 10 11  2  0
M  CHG  2   1  -1   5   1
M  RAD  1  10   2
M  END
>  <reaction>  (15) 
kfir_rxn_9409

>  <mol_properties>  (15) 
{"2": {"label": "*0", "atom_type": "Cd"}, "4": {"label": "*1", "atom_type": "N5dc"}, "8": {"label": "*4", "atom_type": "Ct"}, "9": {"label": "*3", "atom_type": "CO"}, "12": {"label": "*2", "atom_type": "H0"}}

>  <type>  (15) 
unop_11

>  <geom_source>  (15) 
Heuristics

$$$$

     RDKit          3D

 13 12  0  0  0  0  0  0  0  0999 V2000
    0.0000    2.6376    1.5242 N   0  0  0  0  0  2  0  0  0  0  0  0
    0.0000    2.4387    0.1794 N   0  0  0  0  0  0  0  0  0  0  0  0
    0.0000    1.2187   -0.2071 C   0  0  0  0  0  0  0  0  0  0  0  0
    0.0000    0.9335   -1.4831 F   0  0  0  0  0  0  0  0  0  0  0  0
    0.0000    0.1782    0.6319 N   0  0  0  0  0  4  0  0  0  0  0  0
    0.0000    0.3212    1.9863 C   0  0  0  0  0  0  0  0  0  0  0  0
    0.0000    1.6669    2.3520 N   0  0  0  0  0  0  0  0  0  0  0  0
   -0.0000   -2.2312   -2.9752 C   0  0  0  0  0  0  0  0  0  0  0  0
   -0.0000   -2.2312   -1.7770 C   0  0  0  0  0  0  0  0  0  0  0  0
   -0.0000   -2.1732   -0.3279 C   0  0  0  0  0  3  0  0  0  0  0  0
   -0.0000   -3.1439    0.3778 O   0  0  0  0  0  0  0  0  0  0  0  0
   -0.0000   -2.2491   -4.0399 H   0  0  0  0  0  0  0  0  0  0  0  0
   -0.0000   -0.9465    0.1728 H   0  0  0  0  0  0  0  0  0  0  0  0
  1  7  1  0
  1  2  1  0
  2  3  2  0
  3  4  1  0
  3  5  1  0
  5  6  2  0
  5 13  1  0
  6  7  2  0
  8  9  3  0
  8 12  1  0
  9 10  1  0
 10 11  2  0
M  CHG  2   1  -1   5   1
M  RAD  1  10   2
M  END
>  <reaction>  (16) 
kfir_rxn_9409

>  <mol_properties>  (16) 
{"2": {"label": "*0", "atom_type": "Cd"}, "4": {"label": "*1", "atom_type": "N5dc"}, "8": {"label": "*4", "atom_type": "Ct"}, "9": {"label": "*3", "atom_type": "CO"}, "12": {"label": "*2", "atom_type": "H0"}}

>  <type>  (16) 
unop_12

>  <geom_source>  (16) 
Heuristics

$$$$
