
     RDKit          3D

  4  3  0  0  0  0  0  0  0  0999 V2000
   -0.0057    0.0001   -0.0008 C   0  0  0  0  0  0  0  0  0  0  0  0
    1.1789   -0.0174    0.1563 O   0  0  0  0  0  0  0  0  0  0  0  0
   -0.5891    0.9399    0.0445 H   0  0  0  0  0  0  0  0  0  0  0  0
   -0.5841   -0.9226   -0.2001 H   0  0  0  0  0  0  0  0  0  0  0  0
  1  2  2  0
  1  3  1  0
  1  4  1  0
M  END
>  <reaction>  (1) 
kfir_rxn_5172

>  <mol_properties>  (1) 
{"0": {"label": "donator", "atom_type": "CO"}, "2": {"label": "d_hydrogen", "atom_type": "H0"}}

>  <type>  (1) 
r1h

$$$$

     RDKit          3D

  7  6  0  0  0  0  0  0  0  0999 V2000
    1.7224   -0.1968    0.0913 C   0  0  0  0  0  0  0  0  0  0  0  0
    0.5629    0.1599    0.0147 C   0  0  0  0  0  0  0  0  0  0  0  0
   -0.7537    0.5416   -0.0706 C   0  0  0  0  0  3  0  0  0  0  0  0
   -1.7777   -0.3424   -0.0575 O   0  0  0  0  0  0  0  0  0  0  0  0
    2.7397   -0.4988    0.1577 H   0  0  0  0  0  0  0  0  0  0  0  0
   -1.0677    1.5700   -0.1541 H   0  0  0  0  0  0  0  0  0  0  0  0
   -1.4259   -1.2335    0.0185 H   0  0  0  0  0  0  0  0  0  0  0  0
  1  2  3  0
  1  5  1  0
  2  3  1  0
  3  4  1  0
  3  6  1  0
  4  7  1  0
M  RAD  1   3   2
M  END
>  <reaction>  (2) 
kfir_rxn_5172

>  <mol_properties>  (2) 
{"0": {"label": "acceptor", "atom_type": "Cd"}}

>  <type>  (2) 
r2

$$$$

     RDKit          3D

  8  7  0  0  0  0  0  0  0  0999 V2000
    1.5028    0.0716   -0.1675 C   0  0  0  0  0  0  0  0  0  0  0  0
    0.2621   -0.1973    0.1184 C   0  0  0  0  0  0  0  0  0  0  0  0
   -0.9791   -0.4754    0.4035 C   0  0  0  0  0  0  0  0  0  0  0  0
   -1.9487    0.4175    0.7524 O   0  0  0  0  0  0  0  0  0  0  0  0
    1.8169    0.2882   -1.1840 H   0  0  0  0  0  0  0  0  0  0  0  0
    2.2718    0.0854    0.5988 H   0  0  0  0  0  0  0  0  0  0  0  0
   -1.3524   -1.4912    0.3832 H   0  0  0  0  0  0  0  0  0  0  0  0
   -1.5734    1.3013    0.7572 H   0  0  0  0  0  0  0  0  0  0  0  0
  1  2  2  0
  1  5  1  0
  1  6  1  0
  2  3  2  0
  3  4  1  0
  3  7  1  0
  4  8  1  0
M  END
>  <reaction>  (3) 
kfir_rxn_5172

>  <mol_properties>  (3) 
{"0": {"label": "acceptor", "atom_type": "Cd"}, "7": {"label": "a_hydrogen", "atom_type": "H0"}}

>  <type>  (3) 
r2h

$$$$

     RDKit          3D

 11  9  0  0  0  0  0  0  0  0999 V2000
    0.2292   -0.2855    1.4956 C   0  0  0  0  0  0  0  0  0  0  0  0
    0.2370    0.8112    0.8481 C   0  0  0  0  0  0  0  0  0  0  0  0
    0.2474    1.8535    0.0344 C   0  0  0  0  0  3  0  0  0  0  0  0
   -0.8499    2.4877   -0.4466 O   0  0  0  0  0  0  0  0  0  0  0  0
    0.2292   -0.4782    2.5603 H   0  0  0  0  0  0  0  0  0  0  0  0
    1.1683    2.3143   -0.2965 H   0  0  0  0  0  0  0  0  0  0  0  0
   -1.6374    2.0178   -0.1597 H   0  0  0  0  0  0  0  0  0  0  0  0
    0.1779   -2.4051   -0.1892 C   0  0  0  0  0  0  0  0  0  0  0  0
   -0.0081   -2.1225   -1.3207 O   0  0  0  0  0  0  0  0  0  0  0  0
    0.2127   -1.4157    0.7405 H   0  0  0  0  0  0  0  0  0  0  0  0
    0.3419   -3.4525    0.1618 H   0  0  0  0  0  0  0  0  0  0  0  0
  1  2  3  0
  1  5  1  0
  2  3  1  0
  3  4  1  0
  3  6  1  0
  4  7  1  0
  8  9  2  0
  8 10  1  0
  8 11  1  0
M  RAD  1   3   2
M  END
>  <reaction>  (4) 
kfir_rxn_5172

>  <mol_properties>  (4) 
{"0": {"label": "*3", "atom_type": "Ct"}, "1": {"label": "*4", "atom_type": "Ct"}, "7": {"label": "*1", "atom_type": "CO"}, "8": {"label": "*0", "atom_type": "O2d"}, "9": {"label": "*2", "atom_type": "H0"}}

>  <type>  (4) 
ts

$$$$

     RDKit          3D

 11  9  0  0  0  0  0  0  0  0999 V2000
    0.9132    0.7112   -0.1884 C   0  0  0  0  0  0  0  0  0  0  0  0
   -0.0474    0.9948    0.6422 C   0  0  0  0  0  0  0  0  0  0  0  0
   -1.0098    1.2788    1.4744 C   0  0  0  0  0  0  0  0  0  0  0  0
   -1.5655    0.4327    2.3878 O   0  0  0  0  0  0  0  0  0  0  0  0
    1.9555    0.8591    0.0773 H   0  0  0  0  0  0  0  0  0  0  0  0
   -1.4551    2.2647    1.5123 H   0  0  0  0  0  0  0  0  0  0  0  0
   -1.1333   -0.4225    2.3259 H   0  0  0  0  0  0  0  0  0  0  0  0
    0.9132   -1.5212   -1.5815 C   0  0  0  0  0  3  0  0  0  0  0  0
    0.9132   -1.5212   -2.7765 O   0  0  0  0  0  0  0  0  0  0  0  0
    0.9132   -0.3941   -0.8782 H   0  0  0  0  0  0  0  0  0  0  0  0
    0.9132   -2.4604   -0.9954 H   0  0  0  0  0  0  0  0  0  0  0  0
  1  2  2  0
  1  5  1  0
  1 10  1  0
  2  3  2  0
  3  4  1  0
  3  6  1  0
  4  7  1  0
  8  9  2  0
  8 11  1  0
M  RAD  1   8   2
M  END
>  <reaction>  (5) 
kfir_rxn_5172

>  <mol_properties>  (5) 
{"0": {"label": "*3", "atom_type": "Ct"}, "1": {"label": "*4", "atom_type": "Ct"}, "7": {"label": "*1", "atom_type": "CO"}, "8": {"label": "*0", "atom_type": "O2d"}, "9": {"label": "*2", "atom_type": "H0"}}

>  <type>  (5) 
unop_1

>  <geom_source>  (5) 
Heuristics

$$$$

     RDKit          3D

 11  9  0  0  0  0  0  0  0  0999 V2000
    0.7334   -0.1828    1.0949 C   0  0  0  0  0  0  0  0  0  0  0  0
    0.1788    0.9029    0.6400 C   0  0  0  0  0  0  0  0  0  0  0  0
   -0.3768    1.9905    0.1844 C   0  0  0  0  0  0  0  0  0  0  0  0
   -1.7145    2.2340    0.0823 O   0  0  0  0  0  0  0  0  0  0  0  0
    0.9773   -0.2980    2.1466 H   0  0  0  0  0  0  0  0  0  0  0  0
    0.2148    2.8315   -0.1539 H   0  0  0  0  0  0  0  0  0  0  0  0
   -2.1974    1.4686    0.4030 H   0  0  0  0  0  0  0  0  0  0  0  0
    0.7334   -2.4152   -0.2982 C   0  0  0  0  0  3  0  0  0  0  0  0
    0.7334   -2.4152   -1.4932 O   0  0  0  0  0  0  0  0  0  0  0  0
    0.7334   -1.2882    0.4051 H   0  0  0  0  0  0  0  0  0  0  0  0
    0.7334   -3.3544    0.2879 H   0  0  0  0  0  0  0  0  0  0  0  0
  1  2  2  0
  1  5  1  0
  1 10  1  0
  2  3  2  0
  3  4  1  0
  3  6  1  0
  4  7  1  0
  8  9  2  0
  8 11  1  0
M  RAD  1   8   2
M  END
>  <reaction>  (6) 
kfir_rxn_5172

>  <mol_properties>  (6) 
{"0": {"label": "*3", "atom_type": "Ct"}, "1": {"label": "*4", "atom_type": "Ct"}, "7": {"label": "*1", "atom_type": "CO"}, "8": {"label": "*0", "atom_type": "O2d"}, "9": {"label": "*2", "atom_type": "H0"}}

>  <type>  (6) 
unop_2

>  <geom_source>  (6) 
Heuristics

$$$$

     RDKit          3D

 11  9  0  0  0  0  0  0  0  0999 V2000
    0.4099    0.8832   -0.5044 C   0  0  0  0  0  0  0  0  0  0  0  0
   -0.1447    0.9517    0.6708 C   0  0  0  0  0  0  0  0  0  0  0  0
   -0.7003    1.0204    1.8479 C   0  0  0  0  0  0  0  0  0  0  0  0
   -0.4489    0.2034    2.9101 O   0  0  0  0  0  0  0  0  0  0  0  0
    1.3201    1.4282   -0.7351 H   0  0  0  0  0  0  0  0  0  0  0  0
   -1.4336    1.7802    2.0862 H   0  0  0  0  0  0  0  0  0  0  0  0
    0.2128   -0.4447    2.6569 H   0  0  0  0  0  0  0  0  0  0  0  0
    0.4099   -1.3492   -1.8974 C   0  0  0  0  0  3  0  0  0  0  0  0
    0.4099   -1.3492   -3.0925 O   0  0  0  0  0  0  0  0  0  0  0  0
    0.4099   -0.2222   -1.1941 H   0  0  0  0  0  0  0  0  0  0  0  0
    0.4099   -2.2885   -1.3113 H   0  0  0  0  0  0  0  0  0  0  0  0
  1  2  2  0
  1  5  1  0
  1 10  1  0
  2  3  2  0
  3  4  1  0
  3  6  1  0
  4  7  1  0
  8  9  2  0
  8 11  1  0
M  RAD  1   8   2
M  END
>  <reaction>  (7) 
kfir_rxn_5172

>  <mol_properties>  (7) 
{"0": {"label": "*3", "atom_type": "Ct"}, "1": {"label": "*4", "atom_type": "Ct"}, "7": {"label": "*1", "atom_type": "CO"}, "8": {"label": "*0", "atom_type": "O2d"}, "9": {"label": "*2", "atom_type": "H0"}}

>  <type>  (7) 
unop_3

>  <geom_source>  (7) 
Heuristics

$$$$

     RDKit          3D

 11  9  0  0  0  0  0  0  0  0999 V2000
   -0.7826   -0.2124    0.8509 C   0  0  0  0  0  0  0  0  0  0  0  0
    0.1781    0.6584    0.7405 C   0  0  0  0  0  0  0  0  0  0  0  0
    1.1404    1.5307    0.6299 C   0  0  0  0  0  0  0  0  0  0  0  0
    1.0064    2.8446    0.2909 O   0  0  0  0  0  0  0  0  0  0  0  0
   -1.2975   -0.3731    1.7931 H   0  0  0  0  0  0  0  0  0  0  0  0
    2.1722    1.2651    0.8211 H   0  0  0  0  0  0  0  0  0  0  0  0
    0.0773    3.0364    0.1424 H   0  0  0  0  0  0  0  0  0  0  0  0
   -0.7826   -2.4447   -0.5422 C   0  0  0  0  0  3  0  0  0  0  0  0
   -0.7826   -2.4447   -1.7372 O   0  0  0  0  0  0  0  0  0  0  0  0
   -0.7826   -1.3177    0.1611 H   0  0  0  0  0  0  0  0  0  0  0  0
   -0.7826   -3.3840    0.0439 H   0  0  0  0  0  0  0  0  0  0  0  0
  1  2  2  0
  1  5  1  0
  1 10  1  0
  2  3  2  0
  3  4  1  0
  3  6  1  0
  4  7  1  0
  8  9  2  0
  8 11  1  0
M  RAD  1   8   2
M  END
>  <reaction>  (8) 
kfir_rxn_5172

>  <mol_properties>  (8) 
{"0": {"label": "*3", "atom_type": "Ct"}, "1": {"label": "*4", "atom_type": "Ct"}, "7": {"label": "*1", "atom_type": "CO"}, "8": {"label": "*0", "atom_type": "O2d"}, "9": {"label": "*2", "atom_type": "H0"}}

>  <type>  (8) 
unop_4

>  <geom_source>  (8) 
Heuristics

$$$$

     RDKit          3D

 11  9  0  0  0  0  0  0  0  0999 V2000
   -0.2177    0.7808   -0.5572 C   0  0  0  0  0  0  0  0  0  0  0  0
   -0.2177    0.7707    0.7440 C   0  0  0  0  0  0  0  0  0  0  0  0
   -0.2177    0.7606    2.0475 C   0  0  0  0  0  0  0  0  0  0  0  0
    0.8797    0.7722    2.8567 O   0  0  0  0  0  0  0  0  0  0  0  0
   -0.2350    1.7105   -1.1176 H   0  0  0  0  0  0  0  0  0  0  0  0
   -1.1393    0.7540    2.6153 H   0  0  0  0  0  0  0  0  0  0  0  0
    1.6702    0.7894    2.3119 H   0  0  0  0  0  0  0  0  0  0  0  0
   -0.2177   -1.4516   -1.9502 C   0  0  0  0  0  3  0  0  0  0  0  0
   -0.2177   -1.4516   -3.1453 O   0  0  0  0  0  0  0  0  0  0  0  0
   -0.2177   -0.3246   -1.2469 H   0  0  0  0  0  0  0  0  0  0  0  0
   -0.2177   -2.3909   -1.3642 H   0  0  0  0  0  0  0  0  0  0  0  0
  1  2  2  0
  1  5  1  0
  1 10  1  0
  2  3  2  0
  3  4  1  0
  3  6  1  0
  4  7  1  0
  8  9  2  0
  8 11  1  0
M  RAD  1   8   2
M  END
>  <reaction>  (9) 
kfir_rxn_5172

>  <mol_properties>  (9) 
{"0": {"label": "*3", "atom_type": "Ct"}, "1": {"label": "*4", "atom_type": "Ct"}, "7": {"label": "*1", "atom_type": "CO"}, "8": {"label": "*0", "atom_type": "O2d"}, "9": {"label": "*2", "atom_type": "H0"}}

>  <type>  (9) 
unop_5

>  <geom_source>  (9) 
Heuristics

$$$$

     RDKit          3D

 11  9  0  0  0  0  0  0  0  0999 V2000
   -0.9908    0.0339    0.4112 C   0  0  0  0  0  0  0  0  0  0  0  0
    0.1185    0.6111    0.7713 C   0  0  0  0  0  0  0  0  0  0  0  0
    1.2297    1.1892    1.1321 C   0  0  0  0  0  0  0  0  0  0  0  0
    1.5285    2.5141    1.0117 O   0  0  0  0  0  0  0  0  0  0  0  0
   -1.8281   -0.0635    1.0954 H   0  0  0  0  0  0  0  0  0  0  0  0
    2.0369    0.6321    1.5900 H   0  0  0  0  0  0  0  0  0  0  0  0
    0.7824    2.9684    0.6129 H   0  0  0  0  0  0  0  0  0  0  0  0
   -0.9908   -2.1985   -0.9819 C   0  0  0  0  0  3  0  0  0  0  0  0
   -0.9908   -2.1985   -2.1769 O   0  0  0  0  0  0  0  0  0  0  0  0
   -0.9908   -1.0714   -0.2786 H   0  0  0  0  0  0  0  0  0  0  0  0
   -0.9908   -3.1377   -0.3958 H   0  0  0  0  0  0  0  0  0  0  0  0
  1  2  2  0
  1  5  1  0
  1 10  1  0
  2  3  2  0
  3  4  1  0
  3  6  1  0
  4  7  1  0
  8  9  2  0
  8 11  1  0
M  RAD  1   8   2
M  END
>  <reaction>  (10) 
kfir_rxn_5172

>  <mol_properties>  (10) 
{"0": {"label": "*3", "atom_type": "Ct"}, "1": {"label": "*4", "atom_type": "Ct"}, "7": {"label": "*1", "atom_type": "CO"}, "8": {"label": "*0", "atom_type": "O2d"}, "9": {"label": "*2", "atom_type": "H0"}}

>  <type>  (10) 
unop_6

>  <geom_source>  (10) 
Heuristics

$$$$

     RDKit          3D

 11  9  0  0  0  0  0  0  0  0999 V2000
   -0.9249    0.3037   -0.0358 C   0  0  0  0  0  0  0  0  0  0  0  0
    0.0358    0.5872    0.7948 C   0  0  0  0  0  0  0  0  0  0  0  0
    0.9981    0.8712    1.6270 C   0  0  0  0  0  0  0  0  0  0  0  0
    1.6127    2.0798    1.7711 O   0  0  0  0  0  0  0  0  0  0  0  0
   -1.9681    0.4191    0.2420 H   0  0  0  0  0  0  0  0  0  0  0  0
    1.3940    0.1316    2.3110 H   0  0  0  0  0  0  0  0  0  0  0  0
    1.2229    2.7047    1.1550 H   0  0  0  0  0  0  0  0  0  0  0  0
   -0.9249   -1.9287   -1.4289 C   0  0  0  0  0  3  0  0  0  0  0  0
   -0.9249   -1.9287   -2.6239 O   0  0  0  0  0  0  0  0  0  0  0  0
   -0.9249   -0.8017   -0.7256 H   0  0  0  0  0  0  0  0  0  0  0  0
   -0.9249   -2.8679   -0.8428 H   0  0  0  0  0  0  0  0  0  0  0  0
  1  2  2  0
  1  5  1  0
  1 10  1  0
  2  3  2  0
  3  4  1  0
  3  6  1  0
  4  7  1  0
  8  9  2  0
  8 11  1  0
M  RAD  1   8   2
M  END
>  <reaction>  (11) 
kfir_rxn_5172

>  <mol_properties>  (11) 
{"0": {"label": "*3", "atom_type": "Ct"}, "1": {"label": "*4", "atom_type": "Ct"}, "7": {"label": "*1", "atom_type": "CO"}, "8": {"label": "*0", "atom_type": "O2d"}, "9": {"label": "*2", "atom_type": "H0"}}

>  <type>  (11) 
unop_7

>  <geom_source>  (11) 
Heuristics

$$$$

     RDKit          3D

 11  9  0  0  0  0  0  0  0  0999 V2000
    1.1431    0.4159    0.2682 C   0  0  0  0  0  0  0  0  0  0  0  0
    0.0338    0.9930    0.6283 C   0  0  0  0  0  0  0  0  0  0  0  0
   -1.0774    1.5712    0.9891 C   0  0  0  0  0  0  0  0  0  0  0  0
   -2.1439    0.9705    1.5897 O   0  0  0  0  0  0  0  0  0  0  0  0
    1.9926    0.3489    0.9410 H   0  0  0  0  0  0  0  0  0  0  0  0
   -1.2398    2.6311    0.8415 H   0  0  0  0  0  0  0  0  0  0  0  0
   -1.9509    0.0377    1.7103 H   0  0  0  0  0  0  0  0  0  0  0  0
    1.1431   -1.8165   -1.1249 C   0  0  0  0  0  3  0  0  0  0  0  0
    1.1431   -1.8165   -2.3199 O   0  0  0  0  0  0  0  0  0  0  0  0
    1.1431   -0.6895   -0.4216 H   0  0  0  0  0  0  0  0  0  0  0  0
    1.1431   -2.7557   -0.5388 H   0  0  0  0  0  0  0  0  0  0  0  0
  1  2  2  0
  1  5  1  0
  1 10  1  0
  2  3  2  0
  3  4  1  0
  3  6  1  0
  4  7  1  0
  8  9  2  0
  8 11  1  0
M  RAD  1   8   2
M  END
>  <reaction>  (12) 
kfir_rxn_5172

>  <mol_properties>  (12) 
{"0": {"label": "*3", "atom_type": "Ct"}, "1": {"label": "*4", "atom_type": "Ct"}, "7": {"label": "*1", "atom_type": "CO"}, "8": {"label": "*0", "atom_type": "O2d"}, "9": {"label": "*2", "atom_type": "H0"}}

>  <type>  (12) 
unop_8

>  <geom_source>  (12) 
Heuristics

$$$$

     RDKit          3D

 11  9  0  0  0  0  0  0  0  0999 V2000
   -0.3397   -0.3567    1.1600 C   0  0  0  0  0  0  0  0  0  0  0  0
    0.2150    0.7290    0.7051 C   0  0  0  0  0  0  0  0  0  0  0  0
    0.7706    1.8166    0.2495 C   0  0  0  0  0  0  0  0  0  0  0  0
    0.1231    2.9367   -0.1808 O   0  0  0  0  0  0  0  0  0  0  0  0
   -0.5522   -0.4857    2.2169 H   0  0  0  0  0  0  0  0  0  0  0  0
    1.8461    1.9214    0.1868 H   0  0  0  0  0  0  0  0  0  0  0  0
   -0.8240    2.8028   -0.0966 H   0  0  0  0  0  0  0  0  0  0  0  0
   -0.3397   -2.5891   -0.2330 C   0  0  0  0  0  3  0  0  0  0  0  0
   -0.3397   -2.5891   -1.4281 O   0  0  0  0  0  0  0  0  0  0  0  0
   -0.3397   -1.4620    0.4703 H   0  0  0  0  0  0  0  0  0  0  0  0
   -0.3397   -3.5283    0.3530 H   0  0  0  0  0  0  0  0  0  0  0  0
  1  2  2  0
  1  5  1  0
  1 10  1  0
  2  3  2  0
  3  4  1  0
  3  6  1  0
  4  7  1  0
  8  9  2  0
  8 11  1  0
M  RAD  1   8   2
M  END
>  <reaction>  (13) 
kfir_rxn_5172

>  <mol_properties>  (13) 
{"0": {"label": "*3", "atom_type": "Ct"}, "1": {"label": "*4", "atom_type": "Ct"}, "7": {"label": "*1", "atom_type": "CO"}, "8": {"label": "*0", "atom_type": "O2d"}, "9": {"label": "*2", "atom_type": "H0"}}

>  <type>  (13) 
unop_9

>  <geom_source>  (13) 
Heuristics

$$$$

     RDKit          3D

 11  9  0  0  0  0  0  0  0  0999 V2000
    1.0719    0.0923    0.7368 C   0  0  0  0  0  0  0  0  0  0  0  0
    0.1112    0.9631    0.6264 C   0  0  0  0  0  0  0  0  0  0  0  0
   -0.8511    1.8354    0.5158 C   0  0  0  0  0  0  0  0  0  0  0  0
   -2.1755    1.6133    0.7520 O   0  0  0  0  0  0  0  0  0  0  0  0
    1.6098   -0.0442    1.6700 H   0  0  0  0  0  0  0  0  0  0  0  0
   -0.6581    2.8598    0.2240 H   0  0  0  0  0  0  0  0  0  0  0  0
   -2.2970    0.6986    1.0178 H   0  0  0  0  0  0  0  0  0  0  0  0
    1.0719   -2.1401   -0.6563 C   0  0  0  0  0  3  0  0  0  0  0  0
    1.0719   -2.1401   -1.8513 O   0  0  0  0  0  0  0  0  0  0  0  0
    1.0719   -1.0130    0.0470 H   0  0  0  0  0  0  0  0  0  0  0  0
    1.0719   -3.0793   -0.0702 H   0  0  0  0  0  0  0  0  0  0  0  0
  1  2  2  0
  1  5  1  0
  1 10  1  0
  2  3  2  0
  3  4  1  0
  3  6  1  0
  4  7  1  0
  8  9  2  0
  8 11  1  0
M  RAD  1   8   2
M  END
>  <reaction>  (14) 
kfir_rxn_5172

>  <mol_properties>  (14) 
{"0": {"label": "*3", "atom_type": "Ct"}, "1": {"label": "*4", "atom_type": "Ct"}, "7": {"label": "*1", "atom_type": "CO"}, "8": {"label": "*0", "atom_type": "O2d"}, "9": {"label": "*2", "atom_type": "H0"}}

>  <type>  (14) 
unop_10

>  <geom_source>  (14) 
Heuristics

$$$$

     RDKit          3D

 11  9  0  0  0  0  0  0  0  0999 V2000
   -0.6412    0.5378   -0.3751 C   0  0  0  0  0  0  0  0  0  0  0  0
   -0.0866    0.6063    0.8001 C   0  0  0  0  0  0  0  0  0  0  0  0
    0.4690    0.6751    1.9773 C   0  0  0  0  0  0  0  0  0  0  0  0
    1.3837    1.5992    2.3875 O   0  0  0  0  0  0  0  0  0  0  0  0
   -1.5699    1.0553   -0.5955 H   0  0  0  0  0  0  0  0  0  0  0  0
    0.2229   -0.0275    2.7631 H   0  0  0  0  0  0  0  0  0  0  0  0
    1.5621    2.2055    1.6645 H   0  0  0  0  0  0  0  0  0  0  0  0
   -0.6412   -1.6946   -1.7681 C   0  0  0  0  0  3  0  0  0  0  0  0
   -0.6412   -1.6946   -2.9632 O   0  0  0  0  0  0  0  0  0  0  0  0
   -0.6412   -0.5676   -1.0648 H   0  0  0  0  0  0  0  0  0  0  0  0
   -0.6412   -2.6339   -1.1820 H   0  0  0  0  0  0  0  0  0  0  0  0
  1  2  2  0
  1  5  1  0
  1 10  1  0
  2  3  2  0
  3  4  1  0
  3  6  1  0
  4  7  1  0
  8  9  2  0
  8 11  1  0
M  RAD  1   8   2
M  END
>  <reaction>  (15) 
kfir_rxn_5172

>  <mol_properties>  (15) 
{"0": {"label": "*3", "atom_type": "Ct"}, "1": {"label": "*4", "atom_type": "Ct"}, "7": {"label": "*1", "atom_type": "CO"}, "8": {"label": "*0", "atom_type": "O2d"}, "9": {"label": "*2", "atom_type": "H0"}}

>  <type>  (15) 
unop_11

>  <geom_source>  (15) 
Heuristics

$$$$

     RDKit          3D

 11  9  0  0  0  0  0  0  0  0999 V2000
    0.2177   -0.3468    1.2498 C   0  0  0  0  0  0  0  0  0  0  0  0
    0.2177    0.8176    0.6689 C   0  0  0  0  0  0  0  0  0  0  0  0
    0.2177    1.9840    0.0869 C   0  0  0  0  0  0  0  0  0  0  0  0
   -0.8797    2.7159   -0.2582 O   0  0  0  0  0  0  0  0  0  0  0  0
    0.2350   -0.4416    2.3312 H   0  0  0  0  0  0  0  0  0  0  0  0
    1.1393    2.4911   -0.1685 H   0  0  0  0  0  0  0  0  0  0  0  0
   -1.6702    2.2341   -0.0033 H   0  0  0  0  0  0  0  0  0  0  0  0
    0.2177   -2.5792   -0.1432 C   0  0  0  0  0  3  0  0  0  0  0  0
    0.2177   -2.5792   -1.3383 O   0  0  0  0  0  0  0  0  0  0  0  0
    0.2177   -1.4522    0.5601 H   0  0  0  0  0  0  0  0  0  0  0  0
    0.2177   -3.5184    0.4428 H   0  0  0  0  0  0  0  0  0  0  0  0
  1  2  2  0
  1  5  1  0
  1 10  1  0
  2  3  2  0
  3  4  1  0
  3  6  1  0
  4  7  1  0
  8  9  2  0
  8 11  1  0
M  RAD  1   8   2
M  END
>  <reaction>  (16) 
kfir_rxn_5172

>  <mol_properties>  (16) 
{"0": {"label": "*3", "atom_type": "Ct"}, "1": {"label": "*4", "atom_type": "Ct"}, "7": {"label": "*1", "atom_type": "CO"}, "8": {"label": "*0", "atom_type": "O2d"}, "9": {"label": "*2", "atom_type": "H0"}}

>  <type>  (16) 
unop_12

>  <geom_source>  (16) 
Heuristics

$$$$

     RDKit          3D

 11  9  0  0  0  0  0  0  0  0999 V2000
    0.7334   -0.1828    1.0949 C   0  0  0  0  0  0  0  0  0  0  0  0
    0.1788    0.9029    0.6400 C   0  0  0  0  0  0  0  0  0  0  0  0
   -0.3768    1.9905    0.1844 C   0  0  0  0  0  0  0  0  0  0  0  0
   -1.7145    2.2340    0.0823 O   0  0  0  0  0  0  0  0  0  0  0  0
    0.9773   -0.2979    2.1466 H   0  0  0  0  0  0  0  0  0  0  0  0
    0.2148    2.8315   -0.1539 H   0  0  0  0  0  0  0  0  0  0  0  0
   -2.1974    1.4686    0.4030 H   0  0  0  0  0  0  0  0  0  0  0  0
    0.7334   -2.4152   -0.2982 C   0  0  0  0  0  3  0  0  0  0  0  0
    0.7334   -2.4152   -1.4932 O   0  0  0  0  0  0  0  0  0  0  0  0
    0.7334   -1.2882    0.4051 H   0  0  0  0  0  0  0  0  0  0  0  0
    0.7334   -3.3544    0.2879 H   0  0  0  0  0  0  0  0  0  0  0  0
  1  2  2  0
  1  5  1  0
  1 10  1  0
  2  3  2  0
  3  4  1  0
  3  6  1  0
  4  7  1  0
  8  9  2  0
  8 11  1  0
M  RAD  1   8   2
M  END
>  <reaction>  (17) 
kfir_rxn_5172

>  <mol_properties>  (17) 
{"0": {"label": "*3", "atom_type": "Ct"}, "1": {"label": "*4", "atom_type": "Ct"}, "7": {"label": "*1", "atom_type": "CO"}, "8": {"label": "*0", "atom_type": "O2d"}, "9": {"label": "*2", "atom_type": "H0"}}

>  <type>  (17) 
unop_13

>  <geom_source>  (17) 
gaussian_log

$$$$
