
     RDKit          3D

  7  6  0  0  0  0  0  0  0  0999 V2000
   -1.0240    0.8044   -0.4204 O   0  0  0  0  0  0  0  0  0  0  0  0
   -0.3365   -0.3409    0.0003 C   0  0  0  0  0  0  0  0  0  0  0  0
    1.1270   -0.1767   -0.0328 C   0  0  0  0  0  0  0  0  0  0  0  0
    2.2637   -0.0259   -0.0358 N   0  0  0  0  0  0  0  0  0  0  0  0
   -0.8050    1.5374    0.1584 H   0  0  0  0  0  0  0  0  0  0  0  0
   -0.6168   -0.6523    1.0127 H   0  0  0  0  0  0  0  0  0  0  0  0
   -0.6084   -1.1459   -0.6824 H   0  0  0  0  0  0  0  0  0  0  0  0
  1  2  1  0
  1  5  1  0
  2  3  1  0
  2  6  1  0
  2  7  1  0
  3  4  3  0
M  END
>  <reaction>  (1) 
kfir_rxn_5989

>  <mol_properties>  (1) 
{"0": {"label": "donator", "atom_type": "O2s"}, "4": {"label": "d_hydrogen", "atom_type": "H0"}}

>  <type>  (1) 
r1h

$$$$

     RDKit          3D

  7  6  0  0  0  0  0  0  0  0999 V2000
   -0.0135    1.4609   -0.8713 O   0  0  0  0  0  1  0  0  0  0  0  0
   -0.0044    0.4379    0.0216 C   0  0  0  0  0  0  0  0  0  0  0  0
   -1.2167   -0.4085   -0.0253 C   0  0  0  0  0  0  0  0  0  0  0  0
   -2.1632   -1.0518   -0.0561 N   0  0  0  0  0  0  0  0  0  0  0  0
    1.2246   -0.3841   -0.0223 C   0  0  0  0  0  0  0  0  0  0  0  0
    2.1839   -1.0084   -0.0506 N   0  0  0  0  0  0  0  0  0  0  0  0
   -0.0108    0.9540    1.0041 H   0  0  0  0  0  0  0  0  0  0  0  0
  1  2  1  0
  2  3  1  0
  2  5  1  0
  2  7  1  0
  3  4  3  0
  5  6  3  0
M  RAD  1   1   2
M  END
>  <reaction>  (2) 
kfir_rxn_5989

>  <mol_properties>  (2) 
{"0": {"label": "acceptor", "atom_type": "O2s"}}

>  <type>  (2) 
r2

$$$$

     RDKit          3D

  8  7  0  0  0  0  0  0  0  0999 V2000
   -0.1887    1.4678    0.1798 O   0  0  0  0  0  0  0  0  0  0  0  0
    0.0057    0.1070    0.4091 C   0  0  0  0  0  0  0  0  0  0  0  0
   -1.0979   -0.7231   -0.1204 C   0  0  0  0  0  0  0  0  0  0  0  0
   -1.9715   -1.3372   -0.5347 N   0  0  0  0  0  0  0  0  0  0  0  0
    1.2954   -0.3819   -0.1245 C   0  0  0  0  0  0  0  0  0  0  0  0
    2.3044   -0.7276   -0.5420 N   0  0  0  0  0  0  0  0  0  0  0  0
   -0.2148    1.6393   -0.7660 H   0  0  0  0  0  0  0  0  0  0  0  0
    0.0261   -0.0232    1.4939 H   0  0  0  0  0  0  0  0  0  0  0  0
  1  2  1  0
  1  7  1  0
  2  3  1  0
  2  5  1  0
  2  8  1  0
  3  4  3  0
  5  6  3  0
M  END
>  <reaction>  (3) 
kfir_rxn_5989

>  <mol_properties>  (3) 
{"0": {"label": "acceptor", "atom_type": "O2s"}, "7": {"label": "a_hydrogen", "atom_type": "H0"}}

>  <type>  (3) 
r2h

$$$$

     RDKit          3D

 14 12  0  0  0  0  0  0  0  0999 V2000
   -0.0502    0.7871   -0.9598 O   0  0  0  0  0  1  0  0  0  0  0  0
   -0.6916    1.4153    0.0857 C   0  0  0  0  0  0  0  0  0  0  0  0
   -2.0956    0.9924    0.2712 C   0  0  0  0  0  0  0  0  0  0  0  0
   -3.1893    0.6753    0.3915 N   0  0  0  0  0  0  0  0  0  0  0  0
    0.0595    1.2736    1.3526 C   0  0  0  0  0  0  0  0  0  0  0  0
    0.6869    1.1274    2.2999 N   0  0  0  0  0  0  0  0  0  0  0  0
   -0.7024    2.4853   -0.1693 H   0  0  0  0  0  0  0  0  0  0  0  0
    0.0634   -1.4005   -0.3551 O   0  0  0  0  0  0  0  0  0  0  0  0
    1.3682   -1.6417    0.0488 C   0  0  0  0  0  0  0  0  0  0  0  0
    2.3462   -1.6092   -1.0465 C   0  0  0  0  0  0  0  0  0  0  0  0
    3.1123   -1.5761   -1.8980 N   0  0  0  0  0  0  0  0  0  0  0  0
   -0.0545   -0.4350   -0.8889 H   0  0  0  0  0  0  0  0  0  0  0  0
    1.6783   -0.9433    0.8368 H   0  0  0  0  0  0  0  0  0  0  0  0
    1.3654   -2.6369    0.5071 H   0  0  0  0  0  0  0  0  0  0  0  0
  1  2  1  0
  2  3  1  0
  2  5  1  0
  2  7  1  0
  3  4  3  0
  5  6  3  0
  8  9  1  0
  8 12  1  0
  9 10  1  0
  9 13  1  0
  9 14  1  0
 10 11  3  0
M  RAD  1   1   2
M  END
>  <reaction>  (4) 
kfir_rxn_5989

>  <mol_properties>  (4) 
{"0": {"label": "*3", "atom_type": "O2s"}, "1": {"label": "*4", "atom_type": "Cs"}, "7": {"label": "*1", "atom_type": "O2s"}, "8": {"label": "*0", "atom_type": "Cs"}, "11": {"label": "*2", "atom_type": "H0"}}

>  <type>  (4) 
ts

$$$$

     RDKit          3D

 14 12  0  0  0  0  0  0  0  0999 V2000
    0.3408    1.2495    0.8801 O   0  0  0  0  0  1  0  0  0  0  0  0
   -0.8443    1.4055    0.1637 C   0  0  0  0  0  0  0  0  0  0  0  0
   -0.6202    1.4957   -1.2954 C   0  0  0  0  0  0  0  0  0  0  0  0
   -0.4127    1.5699   -2.4194 N   0  0  0  0  0  0  0  0  0  0  0  0
   -1.8277    0.3387    0.4503 C   0  0  0  0  0  0  0  0  0  0  0  0
   -2.5701   -0.4972    0.6995 N   0  0  0  0  0  0  0  0  0  0  0  0
   -1.2799    2.3529    0.4903 H   0  0  0  0  0  0  0  0  0  0  0  0
    0.5227   -0.9227    1.6294 O   0  0  0  0  0  0  0  0  0  0  0  0
    1.6830   -1.5010    1.0996 C   0  0  0  0  0  0  0  0  0  0  0  0
    1.6830   -1.5426   -0.3728 C   0  0  0  0  0  0  0  0  0  0  0  0
    1.6830   -1.5426   -1.5194 N   0  0  0  0  0  0  0  0  0  0  0  0
    0.4319    0.1621    1.2552 H   0  0  0  0  0  0  0  0  0  0  0  0
    2.5950   -0.9859    1.4212 H   0  0  0  0  0  0  0  0  0  0  0  0
    1.7297   -2.5239    1.4732 H   0  0  0  0  0  0  0  0  0  0  0  0
  1  2  1  0
  2  3  1  0
  2  5  1  0
  2  7  1  0
  3  4  3  0
  5  6  3  0
  8  9  1  0
  8 12  1  0
  9 10  1  0
  9 13  1  0
  9 14  1  0
 10 11  3  0
M  RAD  1   1   2
M  END
>  <reaction>  (5) 
kfir_rxn_5989

>  <mol_properties>  (5) 
{"0": {"label": "*3", "atom_type": "O2s"}, "1": {"label": "*4", "atom_type": "Cs"}, "7": {"label": "*1", "atom_type": "O2s"}, "8": {"label": "*0", "atom_type": "Cs"}, "11": {"label": "*2", "atom_type": "H0"}}

>  <type>  (5) 
unop_1

>  <geom_source>  (5) 
Heuristics

$$$$

     RDKit          3D

 14 13  0  0  0  0  0  0  0  0999 V2000
   -0.9928    1.2651    1.0446 O   0  0  0  0  0  1  0  0  0  0  0  0
   -0.4057    1.3825   -0.2138 C   0  0  0  0  0  0  0  0  0  0  0  0
    1.0619    1.5511   -0.1442 C   0  0  0  0  0  0  0  0  0  0  0  0
    2.1957    1.6877   -0.0562 N   0  0  0  0  0  0  0  0  0  0  0  0
   -0.7339    0.2476   -1.1035 C   0  0  0  0  0  3  0  0  0  0  0  0
   -1.0127   -0.6412   -1.7701 N   0  0  0  0  0  0  0  0  0  0  0  0
   -0.8212    2.2869   -0.6649 H   0  0  0  0  0  0  0  0  0  0  0  0
   -0.8108   -0.9071    1.7940 O   0  0  0  0  0  0  0  0  0  0  0  0
    0.3494   -1.4854    1.2642 C   0  0  0  0  0  0  0  0  0  0  0  0
    0.3494   -1.5270   -0.2083 C   0  0  0  0  0  0  0  0  0  0  0  0
    0.3494   -1.5270   -1.3549 N   0  0  0  0  0  4  0  0  0  0  0  0
   -0.9017    0.1777    1.4198 H   0  0  0  0  0  0  0  0  0  0  0  0
    1.2614   -0.9703    1.5857 H   0  0  0  0  0  0  0  0  0  0  0  0
    0.3961   -2.5083    1.6378 H   0  0  0  0  0  0  0  0  0  0  0  0
  1  2  1  0
  2  3  1  0
  2  5  1  0
  2  7  1  0
  3  4  3  0
  5  6  2  3
  6 11  1  0
  8  9  1  0
  8 12  1  0
  9 10  1  0
  9 13  1  0
  9 14  1  0
 10 11  3  0
M  CHG  2   1  -1  11   1
M  RAD  1   5   2
M  END
>  <reaction>  (6) 
kfir_rxn_5989

>  <mol_properties>  (6) 
{"0": {"label": "*3", "atom_type": "O2s"}, "1": {"label": "*4", "atom_type": "Cs"}, "7": {"label": "*1", "atom_type": "O2s"}, "8": {"label": "*0", "atom_type": "Cs"}, "11": {"label": "*2", "atom_type": "H0"}}

>  <type>  (6) 
unop_2

>  <geom_source>  (6) 
Heuristics

$$$$

     RDKit          3D

 14 12  0  0  0  0  0  0  0  0999 V2000
    0.5825    1.1340    0.3730 O   0  0  0  0  0  1  0  0  0  0  0  0
   -0.7611    1.4933    0.2842 C   0  0  0  0  0  0  0  0  0  0  0  0
   -1.3155    1.2939   -1.0723 C   0  0  0  0  0  0  0  0  0  0  0  0
   -1.7126    1.1354   -2.1349 N   0  0  0  0  0  0  0  0  0  0  0  0
   -1.6053    0.7902    1.2743 C   0  0  0  0  0  0  0  0  0  0  0  0
   -2.2302    0.2353    2.0575 N   0  0  0  0  0  0  0  0  0  0  0  0
   -0.8102    2.5618    0.5075 H   0  0  0  0  0  0  0  0  0  0  0  0
    0.7644   -1.0382    1.1223 O   0  0  0  0  0  0  0  0  0  0  0  0
    1.9247   -1.6165    0.5925 C   0  0  0  0  0  0  0  0  0  0  0  0
    1.9247   -1.6581   -0.8799 C   0  0  0  0  0  0  0  0  0  0  0  0
    1.9247   -1.6581   -2.0265 N   0  0  0  0  0  0  0  0  0  0  0  0
    0.6735    0.0466    0.7481 H   0  0  0  0  0  0  0  0  0  0  0  0
    2.8366   -1.1014    0.9140 H   0  0  0  0  0  0  0  0  0  0  0  0
    1.9714   -2.6394    0.9661 H   0  0  0  0  0  0  0  0  0  0  0  0
  1  2  1  0
  2  3  1  0
  2  5  1  0
  2  7  1  0
  3  4  3  0
  5  6  3  0
  8  9  1  0
  8 12  1  0
  9 10  1  0
  9 13  1  0
  9 14  1  0
 10 11  3  0
M  RAD  1   1   2
M  END
>  <reaction>  (7) 
kfir_rxn_5989

>  <mol_properties>  (7) 
{"0": {"label": "*3", "atom_type": "O2s"}, "1": {"label": "*4", "atom_type": "Cs"}, "7": {"label": "*1", "atom_type": "O2s"}, "8": {"label": "*0", "atom_type": "Cs"}, "11": {"label": "*2", "atom_type": "H0"}}

>  <type>  (7) 
unop_3

>  <geom_source>  (7) 
Heuristics

$$$$

     RDKit          3D

 14 12  0  0  0  0  0  0  0  0999 V2000
   -1.3705    0.8311   -0.0096 O   0  0  0  0  0  1  0  0  0  0  0  0
   -0.2601    1.5675    0.3989 C   0  0  0  0  0  0  0  0  0  0  0  0
    0.3404    1.0477    1.6465 C   0  0  0  0  0  0  0  0  0  0  0  0
    0.7771    0.6255    2.6176 N   0  0  0  0  0  0  0  0  0  0  0  0
    0.7780    1.6622   -0.6502 C   0  0  0  0  0  0  0  0  0  0  0  0
    1.5589    1.7234   -1.4859 N   0  0  0  0  0  0  0  0  0  0  0  0
   -0.6186    2.5797    0.6015 H   0  0  0  0  0  0  0  0  0  0  0  0
   -1.1886   -1.3411    0.7397 O   0  0  0  0  0  0  0  0  0  0  0  0
   -0.0283   -1.9194    0.2099 C   0  0  0  0  0  0  0  0  0  0  0  0
   -0.0283   -1.9610   -1.2625 C   0  0  0  0  0  0  0  0  0  0  0  0
   -0.0283   -1.9610   -2.4091 N   0  0  0  0  0  0  0  0  0  0  0  0
   -1.2794   -0.2563    0.3655 H   0  0  0  0  0  0  0  0  0  0  0  0
    0.8837   -1.4043    0.5315 H   0  0  0  0  0  0  0  0  0  0  0  0
    0.0184   -2.9423    0.5835 H   0  0  0  0  0  0  0  0  0  0  0  0
  1  2  1  0
  2  3  1  0
  2  5  1  0
  2  7  1  0
  3  4  3  0
  5  6  3  0
  8  9  1  0
  8 12  1  0
  9 10  1  0
  9 13  1  0
  9 14  1  0
 10 11  3  0
M  RAD  1   1   2
M  END
>  <reaction>  (8) 
kfir_rxn_5989

>  <mol_properties>  (8) 
{"0": {"label": "*3", "atom_type": "O2s"}, "1": {"label": "*4", "atom_type": "Cs"}, "7": {"label": "*1", "atom_type": "O2s"}, "8": {"label": "*0", "atom_type": "Cs"}, "11": {"label": "*2", "atom_type": "H0"}}

>  <type>  (8) 
unop_4

>  <geom_source>  (8) 
Heuristics

$$$$

     RDKit          3D

 14 12  0  0  0  0  0  0  0  0999 V2000
    0.4437    0.9477   -0.2814 O   0  0  0  0  0  1  0  0  0  0  0  0
   -0.7084    1.5335    0.2400 C   0  0  0  0  0  0  0  0  0  0  0  0
   -1.9440    0.8507   -0.2006 C   0  0  0  0  0  0  0  0  0  0  0  0
   -2.8824    0.3047   -0.5658 N   0  0  0  0  0  0  0  0  0  0  0  0
   -0.6865    1.6174    1.7164 C   0  0  0  0  0  0  0  0  0  0  0  0
   -0.6357    1.6745    2.8593 N   0  0  0  0  0  0  0  0  0  0  0  0
   -0.7383    2.5544   -0.1486 H   0  0  0  0  0  0  0  0  0  0  0  0
    0.6256   -1.2245    0.4680 O   0  0  0  0  0  0  0  0  0  0  0  0
    1.7858   -1.8028   -0.0618 C   0  0  0  0  0  0  0  0  0  0  0  0
    1.7858   -1.8444   -1.5342 C   0  0  0  0  0  0  0  0  0  0  0  0
    1.7858   -1.8444   -2.6809 N   0  0  0  0  0  0  0  0  0  0  0  0
    0.5347   -0.1397    0.0938 H   0  0  0  0  0  0  0  0  0  0  0  0
    2.6978   -1.2877    0.2597 H   0  0  0  0  0  0  0  0  0  0  0  0
    1.8326   -2.8257    0.3118 H   0  0  0  0  0  0  0  0  0  0  0  0
  1  2  1  0
  2  3  1  0
  2  5  1  0
  2  7  1  0
  3  4  3  0
  5  6  3  0
  8  9  1  0
  8 12  1  0
  9 10  1  0
  9 13  1  0
  9 14  1  0
 10 11  3  0
M  RAD  1   1   2
M  END
>  <reaction>  (9) 
kfir_rxn_5989

>  <mol_properties>  (9) 
{"0": {"label": "*3", "atom_type": "O2s"}, "1": {"label": "*4", "atom_type": "Cs"}, "7": {"label": "*1", "atom_type": "O2s"}, "8": {"label": "*0", "atom_type": "Cs"}, "11": {"label": "*2", "atom_type": "H0"}}

>  <type>  (9) 
unop_5

>  <geom_source>  (9) 
Heuristics

$$$$

     RDKit          3D

 14 12  0  0  0  0  0  0  0  0999 V2000
   -1.1116    0.6904   -0.3967 O   0  0  0  0  0  1  0  0  0  0  0  0
   -0.4672    1.5522    0.4888 C   0  0  0  0  0  0  0  0  0  0  0  0
   -0.2720    0.9527    1.8266 C   0  0  0  0  0  0  0  0  0  0  0  0
   -0.1428    0.4629    2.8539 N   0  0  0  0  0  0  0  0  0  0  0  0
    0.8288    2.0388   -0.0316 C   0  0  0  0  0  0  0  0  0  0  0  0
    1.8240    2.4033   -0.4660 N   0  0  0  0  0  0  0  0  0  0  0  0
   -1.1221    2.4189    0.6074 H   0  0  0  0  0  0  0  0  0  0  0  0
   -0.9297   -1.4818    0.3527 O   0  0  0  0  0  0  0  0  0  0  0  0
    0.2306   -2.0602   -0.1771 C   0  0  0  0  0  0  0  0  0  0  0  0
    0.2306   -2.1018   -1.6496 C   0  0  0  0  0  0  0  0  0  0  0  0
    0.2306   -2.1018   -2.7962 N   0  0  0  0  0  0  0  0  0  0  0  0
   -1.0206   -0.3970   -0.0215 H   0  0  0  0  0  0  0  0  0  0  0  0
    1.1425   -1.5450    0.1444 H   0  0  0  0  0  0  0  0  0  0  0  0
    0.2773   -3.0831    0.1965 H   0  0  0  0  0  0  0  0  0  0  0  0
  1  2  1  0
  2  3  1  0
  2  5  1  0
  2  7  1  0
  3  4  3  0
  5  6  3  0
  8  9  1  0
  8 12  1  0
  9 10  1  0
  9 13  1  0
  9 14  1  0
 10 11  3  0
M  RAD  1   1   2
M  END
>  <reaction>  (10) 
kfir_rxn_5989

>  <mol_properties>  (10) 
{"0": {"label": "*3", "atom_type": "O2s"}, "1": {"label": "*4", "atom_type": "Cs"}, "7": {"label": "*1", "atom_type": "O2s"}, "8": {"label": "*0", "atom_type": "Cs"}, "11": {"label": "*2", "atom_type": "H0"}}

>  <type>  (10) 
unop_6

>  <geom_source>  (10) 
Heuristics

$$$$

     RDKit          3D

 14 12  0  0  0  0  0  0  0  0999 V2000
   -0.6613    0.6386   -0.6476 O   0  0  0  0  0  1  0  0  0  0  0  0
   -0.6655    1.5145    0.4363 C   0  0  0  0  0  0  0  0  0  0  0  0
   -1.0012    0.8426    1.7103 C   0  0  0  0  0  0  0  0  0  0  0  0
   -1.2716    0.2944    2.6789 N   0  0  0  0  0  0  0  0  0  0  0  0
    0.6113    2.2465    0.5820 C   0  0  0  0  0  0  0  0  0  0  0  0
    1.6093    2.8027    0.6631 N   0  0  0  0  0  0  0  0  0  0  0  0
   -1.4475    2.2508    0.2349 H   0  0  0  0  0  0  0  0  0  0  0  0
   -0.4794   -1.5336    0.1018 O   0  0  0  0  0  0  0  0  0  0  0  0
    0.6809   -2.1120   -0.4280 C   0  0  0  0  0  0  0  0  0  0  0  0
    0.6809   -2.1536   -1.9005 C   0  0  0  0  0  0  0  0  0  0  0  0
    0.6809   -2.1536   -3.0471 N   0  0  0  0  0  0  0  0  0  0  0  0
   -0.5702   -0.4489   -0.2725 H   0  0  0  0  0  0  0  0  0  0  0  0
    1.5929   -1.5968   -0.1065 H   0  0  0  0  0  0  0  0  0  0  0  0
    0.7276   -3.1349   -0.0544 H   0  0  0  0  0  0  0  0  0  0  0  0
  1  2  1  0
  2  3  1  0
  2  5  1  0
  2  7  1  0
  3  4  3  0
  5  6  3  0
  8  9  1  0
  8 12  1  0
  9 10  1  0
  9 13  1  0
  9 14  1  0
 10 11  3  0
M  RAD  1   1   2
M  END
>  <reaction>  (11) 
kfir_rxn_5989

>  <mol_properties>  (11) 
{"0": {"label": "*3", "atom_type": "O2s"}, "1": {"label": "*4", "atom_type": "Cs"}, "7": {"label": "*1", "atom_type": "O2s"}, "8": {"label": "*0", "atom_type": "Cs"}, "11": {"label": "*2", "atom_type": "H0"}}

>  <type>  (11) 
unop_7

>  <geom_source>  (11) 
Heuristics

$$$$

     RDKit          3D

 14 12  0  0  0  0  0  0  0  0999 V2000
   -0.0899    1.3133    1.1609 O   0  0  0  0  0  1  0  0  0  0  0  0
   -0.8091    1.3437   -0.0324 C   0  0  0  0  0  0  0  0  0  0  0  0
    0.0543    1.5666   -1.2123 C   0  0  0  0  0  0  0  0  0  0  0  0
    0.7491    1.7479   -2.1047 N   0  0  0  0  0  0  0  0  0  0  0  0
   -1.6254    0.1276   -0.2367 C   0  0  0  0  0  0  0  0  0  0  0  0
   -2.2520   -0.8231   -0.3617 N   0  0  0  0  0  0  0  0  0  0  0  0
   -1.4934    2.1925    0.0413 H   0  0  0  0  0  0  0  0  0  0  0  0
    0.0920   -0.8589    1.9103 O   0  0  0  0  0  0  0  0  0  0  0  0
    1.2523   -1.4373    1.3805 C   0  0  0  0  0  0  0  0  0  0  0  0
    1.2523   -1.4788   -0.0920 C   0  0  0  0  0  0  0  0  0  0  0  0
    1.2523   -1.4788   -1.2386 N   0  0  0  0  0  0  0  0  0  0  0  0
    0.0011    0.2259    1.5360 H   0  0  0  0  0  0  0  0  0  0  0  0
    2.1642   -0.9221    1.7020 H   0  0  0  0  0  0  0  0  0  0  0  0
    1.2990   -2.4602    1.7541 H   0  0  0  0  0  0  0  0  0  0  0  0
  1  2  1  0
  2  3  1  0
  2  5  1  0
  2  7  1  0
  3  4  3  0
  5  6  3  0
  8  9  1  0
  8 12  1  0
  9 10  1  0
  9 13  1  0
  9 14  1  0
 10 11  3  0
M  RAD  1   1   2
M  END
>  <reaction>  (12) 
kfir_rxn_5989

>  <mol_properties>  (12) 
{"0": {"label": "*3", "atom_type": "O2s"}, "1": {"label": "*4", "atom_type": "Cs"}, "7": {"label": "*1", "atom_type": "O2s"}, "8": {"label": "*0", "atom_type": "Cs"}, "11": {"label": "*2", "atom_type": "H0"}}

>  <type>  (12) 
unop_8

>  <geom_source>  (12) 
Heuristics

$$$$

     RDKit          3D

 14 12  0  0  0  0  0  0  0  0999 V2000
   -1.4141    1.0082    0.4023 O   0  0  0  0  0  1  0  0  0  0  0  0
   -0.1452    1.5413    0.1833 C   0  0  0  0  0  0  0  0  0  0  0  0
    0.8126    1.1904    1.2541 C   0  0  0  0  0  0  0  0  0  0  0  0
    1.5278    0.9077    2.1029 N   0  0  0  0  0  0  0  0  0  0  0  0
    0.4151    1.1567   -1.1303 C   0  0  0  0  0  0  0  0  0  0  0  0
    0.8177    0.8475   -2.1570 N   0  0  0  0  0  0  0  0  0  0  0  0
   -0.2621    2.6278    0.1874 H   0  0  0  0  0  0  0  0  0  0  0  0
   -1.2322   -1.1640    1.1517 O   0  0  0  0  0  0  0  0  0  0  0  0
   -0.0719   -1.7423    0.6219 C   0  0  0  0  0  0  0  0  0  0  0  0
   -0.0719   -1.7839   -0.8506 C   0  0  0  0  0  0  0  0  0  0  0  0
   -0.0719   -1.7839   -1.9972 N   0  0  0  0  0  0  0  0  0  0  0  0
   -1.3230   -0.0792    0.7775 H   0  0  0  0  0  0  0  0  0  0  0  0
    0.8401   -1.2272    0.9434 H   0  0  0  0  0  0  0  0  0  0  0  0
   -0.0252   -2.7652    0.9955 H   0  0  0  0  0  0  0  0  0  0  0  0
  1  2  1  0
  2  3  1  0
  2  5  1  0
  2  7  1  0
  3  4  3  0
  5  6  3  0
  8  9  1  0
  8 12  1  0
  9 10  1  0
  9 13  1  0
  9 14  1  0
 10 11  3  0
M  RAD  1   1   2
M  END
>  <reaction>  (13) 
kfir_rxn_5989

>  <mol_properties>  (13) 
{"0": {"label": "*3", "atom_type": "O2s"}, "1": {"label": "*4", "atom_type": "Cs"}, "7": {"label": "*1", "atom_type": "O2s"}, "8": {"label": "*0", "atom_type": "Cs"}, "11": {"label": "*2", "atom_type": "H0"}}

>  <type>  (13) 
unop_9

>  <geom_source>  (13) 
Heuristics

$$$$

     RDKit          3D

 14 12  0  0  0  0  0  0  0  0999 V2000
   -0.5745    1.3165    1.2039 O   0  0  0  0  0  1  0  0  0  0  0  0
   -0.6450    1.3328   -0.1878 C   0  0  0  0  0  0  0  0  0  0  0  0
    0.6656    1.5937   -0.8215 C   0  0  0  0  0  0  0  0  0  0  0  0
    1.6932    1.8052   -1.2812 N   0  0  0  0  0  0  0  0  0  0  0  0
   -1.2272    0.0920   -0.7432 C   0  0  0  0  0  0  0  0  0  0  0  0
   -1.6886   -0.8778   -1.1414 N   0  0  0  0  0  0  0  0  0  0  0  0
   -1.3105    2.1578   -0.4533 H   0  0  0  0  0  0  0  0  0  0  0  0
   -0.3926   -0.8557    1.9533 O   0  0  0  0  0  0  0  0  0  0  0  0
    0.7677   -1.4341    1.4235 C   0  0  0  0  0  0  0  0  0  0  0  0
    0.7677   -1.4757   -0.0490 C   0  0  0  0  0  0  0  0  0  0  0  0
    0.7677   -1.4757   -1.1956 N   0  0  0  0  0  0  0  0  0  0  0  0
   -0.4834    0.2290    1.5790 H   0  0  0  0  0  0  0  0  0  0  0  0
    1.6797   -0.9189    1.7450 H   0  0  0  0  0  0  0  0  0  0  0  0
    0.8144   -2.4570    1.7971 H   0  0  0  0  0  0  0  0  0  0  0  0
  1  2  1  0
  2  3  1  0
  2  5  1  0
  2  7  1  0
  3  4  3  0
  5  6  3  0
  8  9  1  0
  8 12  1  0
  9 10  1  0
  9 13  1  0
  9 14  1  0
 10 11  3  0
M  RAD  1   1   2
M  END
>  <reaction>  (14) 
kfir_rxn_5989

>  <mol_properties>  (14) 
{"0": {"label": "*3", "atom_type": "O2s"}, "1": {"label": "*4", "atom_type": "Cs"}, "7": {"label": "*1", "atom_type": "O2s"}, "8": {"label": "*0", "atom_type": "Cs"}, "11": {"label": "*2", "atom_type": "H0"}}

>  <type>  (14) 
unop_10

>  <geom_source>  (14) 
Heuristics

$$$$

     RDKit          3D

 14 12  0  0  0  0  0  0  0  0999 V2000
   -0.0939    0.7216   -0.6582 O   0  0  0  0  0  1  0  0  0  0  0  0
   -0.7557    1.4965    0.2924 C   0  0  0  0  0  0  0  0  0  0  0  0
   -1.7279    0.7154    1.0874 C   0  0  0  0  0  0  0  0  0  0  0  0
   -2.4777    0.0844    1.6802 N   0  0  0  0  0  0  0  0  0  0  0  0
    0.1748    2.2025    1.1996 C   0  0  0  0  0  0  0  0  0  0  0  0
    0.9215    2.7413    1.8808 N   0  0  0  0  0  0  0  0  0  0  0  0
   -1.3150    2.2540   -0.2621 H   0  0  0  0  0  0  0  0  0  0  0  0
    0.0880   -1.4506    0.0912 O   0  0  0  0  0  0  0  0  0  0  0  0
    1.2483   -2.0289   -0.4386 C   0  0  0  0  0  0  0  0  0  0  0  0
    1.2483   -2.0705   -1.9111 C   0  0  0  0  0  0  0  0  0  0  0  0
    1.2483   -2.0705   -3.0577 N   0  0  0  0  0  0  0  0  0  0  0  0
   -0.0029   -0.3658   -0.2831 H   0  0  0  0  0  0  0  0  0  0  0  0
    2.1602   -1.5138   -0.1171 H   0  0  0  0  0  0  0  0  0  0  0  0
    1.2950   -3.0518   -0.0650 H   0  0  0  0  0  0  0  0  0  0  0  0
  1  2  1  0
  2  3  1  0
  2  5  1  0
  2  7  1  0
  3  4  3  0
  5  6  3  0
  8  9  1  0
  8 12  1  0
  9 10  1  0
  9 13  1  0
  9 14  1  0
 10 11  3  0
M  RAD  1   1   2
M  END
>  <reaction>  (15) 
kfir_rxn_5989

>  <mol_properties>  (15) 
{"0": {"label": "*3", "atom_type": "O2s"}, "1": {"label": "*4", "atom_type": "Cs"}, "7": {"label": "*1", "atom_type": "O2s"}, "8": {"label": "*0", "atom_type": "Cs"}, "11": {"label": "*2", "atom_type": "H0"}}

>  <type>  (15) 
unop_11

>  <geom_source>  (15) 
Heuristics

$$$$

     RDKit          3D

 14 13  0  0  0  0  0  0  0  0999 V2000
   -1.2772    1.1633    0.7612 O   0  0  0  0  0  1  0  0  0  0  0  0
   -0.1999    1.4698   -0.0680 C   0  0  0  0  0  0  0  0  0  0  0  0
    1.0993    1.3937    0.6345 C   0  0  0  0  0  0  0  0  0  0  0  0
    2.0884    1.3333    1.2088 N   0  0  0  0  0  0  0  0  0  0  0  0
   -0.1582    0.6270   -1.2826 C   0  0  0  0  0  3  0  0  0  0  0  0
   -0.1583   -0.0365   -2.2162 N   0  0  0  0  0  0  0  0  0  0  0  0
   -0.3421    2.5047   -0.3886 H   0  0  0  0  0  0  0  0  0  0  0  0
   -1.0953   -1.0089    1.5106 O   0  0  0  0  0  0  0  0  0  0  0  0
    0.0650   -1.5873    0.9808 C   0  0  0  0  0  0  0  0  0  0  0  0
    0.0650   -1.6289   -0.4916 C   0  0  0  0  0  0  0  0  0  0  0  0
    0.0650   -1.6289   -1.6383 N   0  0  0  0  0  4  0  0  0  0  0  0
   -1.1861    0.0759    1.1364 H   0  0  0  0  0  0  0  0  0  0  0  0
    0.9769   -1.0721    1.3023 H   0  0  0  0  0  0  0  0  0  0  0  0
    0.1117   -2.6102    1.3544 H   0  0  0  0  0  0  0  0  0  0  0  0
  1  2  1  0
  2  3  1  0
  2  5  1  0
  2  7  1  0
  3  4  3  0
  5  6  2  3
  6 11  1  0
  8  9  1  0
  8 12  1  0
  9 10  1  0
  9 13  1  0
  9 14  1  0
 10 11  3  0
M  CHG  2   1  -1  11   1
M  RAD  1   5   2
M  END
>  <reaction>  (16) 
kfir_rxn_5989

>  <mol_properties>  (16) 
{"0": {"label": "*3", "atom_type": "O2s"}, "1": {"label": "*4", "atom_type": "Cs"}, "7": {"label": "*1", "atom_type": "O2s"}, "8": {"label": "*0", "atom_type": "Cs"}, "11": {"label": "*2", "atom_type": "H0"}}

>  <type>  (16) 
unop_12

>  <geom_source>  (16) 
Heuristics

$$$$
