
     RDKit          3D

  6  5  0  0  0  0  0  0  0  0999 V2000
   -0.6819   -0.1027   -0.0106 N   0  0  0  0  0  0  0  0  0  0  0  0
    0.6339    0.2147    0.0079 C   0  0  0  0  0  0  0  0  0  0  0  0
    1.0720    1.3374   -0.0025 O   0  0  0  0  0  0  0  0  0  0  0  0
   -1.3651    0.6341   -0.0350 H   0  0  0  0  0  0  0  0  0  0  0  0
   -0.9875   -1.0572   -0.0005 H   0  0  0  0  0  0  0  0  0  0  0  0
    1.2840   -0.6787    0.0343 H   0  0  0  0  0  0  0  0  0  0  0  0
  1  2  1  0
  1  4  1  0
  1  5  1  0
  2  3  2  0
  2  6  1  0
M  END
>  <reaction>  (1) 
kfir_rxn_9679

>  <mol_properties>  (1) 
{"1": {"label": "donator", "atom_type": "CO"}, "5": {"label": "d_hydrogen", "atom_type": "H0"}}

>  <type>  (1) 
r1h

$$$$

     RDKit          3D

  6  5  0  0  0  0  0  0  0  0999 V2000
   -1.3751    0.0001    0.0052 O   0  0  0  0  0  0  0  0  0  0  0  0
   -0.1413    0.5256    0.0693 C   0  0  0  0  0  0  0  0  0  0  0  0
    1.0028   -0.2496   -0.0364 C   0  0  0  0  0  0  0  0  0  0  0  0
    1.9485   -0.9172   -0.1273 N   0  0  0  0  0  2  0  0  0  0  0  0
   -1.3298   -0.9523   -0.1196 H   0  0  0  0  0  0  0  0  0  0  0  0
   -0.1050    1.5934    0.2088 H   0  0  0  0  0  0  0  0  0  0  0  0
  1  2  1  0
  1  5  1  0
  2  3  2  0
  2  6  1  0
  3  4  2  0
M  RAD  1   4   2
M  END
>  <reaction>  (2) 
kfir_rxn_9679

>  <mol_properties>  (2) 
{"3": {"label": "acceptor", "atom_type": "N3d"}}

>  <type>  (2) 
r2

$$$$

     RDKit          3D

  7  6  0  0  0  0  0  0  0  0999 V2000
   -1.7433   -0.2181   -0.0082 O   0  0  0  0  0  0  0  0  0  0  0  0
   -0.5919    0.5155    0.1393 C   0  0  0  0  0  0  0  0  0  0  0  0
    0.6277    0.0643   -0.0052 C   0  0  0  0  0  0  0  0  0  0  0  0
    1.7685   -0.3888    0.0258 N   0  0  0  0  0  0  0  0  0  0  0  0
   -1.5390   -1.1538    0.0381 H   0  0  0  0  0  0  0  0  0  0  0  0
   -0.7623    1.5611    0.3482 H   0  0  0  0  0  0  0  0  0  0  0  0
    2.2403   -0.3802   -0.8787 H   0  0  0  0  0  0  0  0  0  0  0  0
  1  2  1  0
  1  5  1  0
  2  3  2  0
  2  6  1  0
  3  4  2  0
  4  7  1  0
M  END
>  <reaction>  (3) 
kfir_rxn_9679

>  <mol_properties>  (3) 
{"3": {"label": "acceptor", "atom_type": "N3d"}, "6": {"label": "a_hydrogen", "atom_type": "H0"}}

>  <type>  (3) 
r2h

$$$$

     RDKit          3D

 12 10  0  0  0  0  0  0  0  0999 V2000
    2.1962   -1.9559    1.4601 O   0  0  0  0  0  0  0  0  0  0  0  0
    1.5225   -2.0205    0.2746 C   0  0  0  0  0  0  0  0  0  0  0  0
    0.2991   -1.5713    0.0632 C   0  0  0  0  0  0  0  0  0  0  0  0
   -0.8349   -1.1838   -0.1248 N   0  0  0  0  0  0  0  0  0  0  0  0
    1.7015   -1.4262    2.0886 H   0  0  0  0  0  0  0  0  0  0  0  0
    2.0729   -2.5059   -0.5165 H   0  0  0  0  0  0  0  0  0  0  0  0
   -1.6464    2.0335   -1.3278 N   0  0  0  0  0  0  0  0  0  0  0  0
   -0.5640    1.3965   -0.8654 C   0  0  0  0  0  3  0  0  0  0  0  0
    0.5461    1.8147   -0.7330 O   0  0  0  0  0  0  0  0  0  0  0  0
   -1.5913    2.9962   -1.6256 H   0  0  0  0  0  0  0  0  0  0  0  0
   -2.5234    1.5525   -1.3885 H   0  0  0  0  0  0  0  0  0  0  0  0
   -0.8383   -0.0953   -0.4590 H   0  0  0  0  0  0  0  0  0  0  0  0
  1  2  1  0
  1  5  1  0
  2  3  2  0
  2  6  1  0
  3  4  2  0
  4 12  1  0
  7  8  1  0
  7 10  1  0
  7 11  1  0
  8  9  2  0
M  RAD  1   8   2
M  END
>  <reaction>  (4) 
kfir_rxn_9679

>  <mol_properties>  (4) 
{"2": {"label": "*0", "atom_type": "Cdd"}, "3": {"label": "*1", "atom_type": "N3d"}, "7": {"label": "*3", "atom_type": "CO"}, "8": {"label": "*4", "atom_type": "O2d"}, "11": {"label": "*2", "atom_type": "H0"}}

>  <type>  (4) 
ts

$$$$

     RDKit          3D

 12 10  0  0  0  0  0  0  0  0999 V2000
    1.5855   -0.9330    2.4374 O   0  0  0  0  0  0  0  0  0  0  0  0
    1.1410   -1.7037    1.3914 C   0  0  0  0  0  0  0  0  0  0  0  0
    0.2214   -1.3629    0.5254 C   0  0  0  0  0  0  0  0  0  0  0  0
   -0.7512   -1.1192   -0.1833 N   0  0  0  0  0  0  0  0  0  0  0  0
    0.9535   -0.2343    2.6159 H   0  0  0  0  0  0  0  0  0  0  0  0
    1.6587   -2.6460    1.2905 H   0  0  0  0  0  0  0  0  0  0  0  0
   -0.7512    1.2371   -2.5127 N   0  0  0  0  0  0  0  0  0  0  0  0
   -0.7512    1.2371   -1.1591 C   0  0  0  0  0  3  0  0  0  0  0  0
   -0.7512    2.2260   -0.4701 O   0  0  0  0  0  0  0  0  0  0  0  0
   -0.7512    2.1138   -3.0044 H   0  0  0  0  0  0  0  0  0  0  0  0
   -0.7512    0.3808   -3.0335 H   0  0  0  0  0  0  0  0  0  0  0  0
   -0.7512    0.0118   -0.6517 H   0  0  0  0  0  0  0  0  0  0  0  0
  1  2  1  0
  1  5  1  0
  2  3  2  0
  2  6  1  0
  3  4  2  0
  4 12  1  0
  7  8  1  0
  7 10  1  0
  7 11  1  0
  8  9  2  0
M  RAD  1   8   2
M  END
>  <reaction>  (5) 
kfir_rxn_9679

>  <mol_properties>  (5) 
{"2": {"label": "*0", "atom_type": "Cdd"}, "3": {"label": "*1", "atom_type": "N3d"}, "7": {"label": "*3", "atom_type": "CO"}, "8": {"label": "*4", "atom_type": "O2d"}, "11": {"label": "*2", "atom_type": "H0"}}

>  <type>  (5) 
unop_1

>  <geom_source>  (5) 
Heuristics

$$$$

     RDKit          3D

 12 10  0  0  0  0  0  0  0  0999 V2000
    1.8835   -2.4920   -0.4194 O   0  0  0  0  0  0  0  0  0  0  0  0
    0.5258   -2.3485   -0.2725 C   0  0  0  0  0  0  0  0  0  0  0  0
   -0.0788   -1.3599    0.3352 C   0  0  0  0  0  0  0  0  0  0  0  0
   -0.6403   -0.5293    1.0438 N   0  0  0  0  0  0  0  0  0  0  0  0
    2.3383   -1.9269    0.2077 H   0  0  0  0  0  0  0  0  0  0  0  0
   -0.0516   -3.1214   -0.7574 H   0  0  0  0  0  0  0  0  0  0  0  0
   -0.6403    1.8271   -1.2855 N   0  0  0  0  0  0  0  0  0  0  0  0
   -0.6403    1.8271    0.0681 C   0  0  0  0  0  3  0  0  0  0  0  0
   -0.6403    2.8159    0.7570 O   0  0  0  0  0  0  0  0  0  0  0  0
   -0.6403    2.7037   -1.7772 H   0  0  0  0  0  0  0  0  0  0  0  0
   -0.6403    0.9707   -1.8063 H   0  0  0  0  0  0  0  0  0  0  0  0
   -0.6403    0.6017    0.5755 H   0  0  0  0  0  0  0  0  0  0  0  0
  1  2  1  0
  1  5  1  0
  2  3  2  0
  2  6  1  0
  3  4  2  0
  4 12  1  0
  7  8  1  0
  7 10  1  0
  7 11  1  0
  8  9  2  0
M  RAD  1   8   2
M  END
>  <reaction>  (6) 
kfir_rxn_9679

>  <mol_properties>  (6) 
{"2": {"label": "*0", "atom_type": "Cdd"}, "3": {"label": "*1", "atom_type": "N3d"}, "7": {"label": "*3", "atom_type": "CO"}, "8": {"label": "*4", "atom_type": "O2d"}, "11": {"label": "*2", "atom_type": "H0"}}

>  <type>  (6) 
unop_2

>  <geom_source>  (6) 
Heuristics

$$$$

     RDKit          3D

 12 10  0  0  0  0  0  0  0  0999 V2000
    0.3538   -0.8598    2.9794 O   0  0  0  0  0  0  0  0  0  0  0  0
    0.7291   -1.5083    1.8287 C   0  0  0  0  0  0  0  0  0  0  0  0
    0.2491   -1.2851    0.6322 C   0  0  0  0  0  0  0  0  0  0  0  0
   -0.3125   -1.1986   -0.4563 N   0  0  0  0  0  0  0  0  0  0  0  0
   -0.4875   -0.4203    2.8434 H   0  0  0  0  0  0  0  0  0  0  0  0
    1.5253   -2.2241    1.9689 H   0  0  0  0  0  0  0  0  0  0  0  0
   -0.3125    1.1577   -2.7857 N   0  0  0  0  0  0  0  0  0  0  0  0
   -0.3125    1.1577   -1.4321 C   0  0  0  0  0  3  0  0  0  0  0  0
   -0.3125    2.1465   -0.7431 O   0  0  0  0  0  0  0  0  0  0  0  0
   -0.3125    2.0343   -3.2774 H   0  0  0  0  0  0  0  0  0  0  0  0
   -0.3125    0.3013   -3.3064 H   0  0  0  0  0  0  0  0  0  0  0  0
   -0.3125   -0.0677   -0.9247 H   0  0  0  0  0  0  0  0  0  0  0  0
  1  2  1  0
  1  5  1  0
  2  3  2  0
  2  6  1  0
  3  4  2  0
  4 12  1  0
  7  8  1  0
  7 10  1  0
  7 11  1  0
  8  9  2  0
M  RAD  1   8   2
M  END
>  <reaction>  (7) 
kfir_rxn_9679

>  <mol_properties>  (7) 
{"2": {"label": "*0", "atom_type": "Cdd"}, "3": {"label": "*1", "atom_type": "N3d"}, "7": {"label": "*3", "atom_type": "CO"}, "8": {"label": "*4", "atom_type": "O2d"}, "11": {"label": "*2", "atom_type": "H0"}}

>  <type>  (7) 
unop_3

>  <geom_source>  (7) 
Heuristics

$$$$

     RDKit          3D

 12 10  0  0  0  0  0  0  0  0999 V2000
   -1.2525   -3.1893   -0.2381 O   0  0  0  0  0  0  0  0  0  0  0  0
   -1.2956   -1.9321    0.3126 C   0  0  0  0  0  0  0  0  0  0  0  0
   -0.2698   -1.1416    0.4985 C   0  0  0  0  0  0  0  0  0  0  0  0
    0.7028   -0.4682    0.8274 N   0  0  0  0  0  0  0  0  0  0  0  0
   -0.3529   -3.5206   -0.2181 H   0  0  0  0  0  0  0  0  0  0  0  0
   -2.2920   -1.5940    0.5552 H   0  0  0  0  0  0  0  0  0  0  0  0
    0.7028    1.8881   -1.5020 N   0  0  0  0  0  0  0  0  0  0  0  0
    0.7028    1.8881   -0.1484 C   0  0  0  0  0  3  0  0  0  0  0  0
    0.7028    2.8770    0.5406 O   0  0  0  0  0  0  0  0  0  0  0  0
    0.7028    2.7648   -1.9936 H   0  0  0  0  0  0  0  0  0  0  0  0
    0.7028    1.0318   -2.0227 H   0  0  0  0  0  0  0  0  0  0  0  0
    0.7028    0.6628    0.3591 H   0  0  0  0  0  0  0  0  0  0  0  0
  1  2  1  0
  1  5  1  0
  2  3  2  0
  2  6  1  0
  3  4  2  0
  4 12  1  0
  7  8  1  0
  7 10  1  0
  7 11  1  0
  8  9  2  0
M  RAD  1   8   2
M  END
>  <reaction>  (8) 
kfir_rxn_9679

>  <mol_properties>  (8) 
{"2": {"label": "*0", "atom_type": "Cdd"}, "3": {"label": "*1", "atom_type": "N3d"}, "7": {"label": "*3", "atom_type": "CO"}, "8": {"label": "*4", "atom_type": "O2d"}, "11": {"label": "*2", "atom_type": "H0"}}

>  <type>  (8) 
unop_4

>  <geom_source>  (8) 
Heuristics

$$$$

     RDKit          3D

 12 10  0  0  0  0  0  0  0  0999 V2000
   -0.9220   -1.4484    2.8361 O   0  0  0  0  0  0  0  0  0  0  0  0
    0.1883   -1.3384    2.0356 C   0  0  0  0  0  0  0  0  0  0  0  0
    0.1839   -1.1281    0.7442 C   0  0  0  0  0  0  0  0  0  0  0  0
    0.1839   -1.0993   -0.4833 N   0  0  0  0  0  0  0  0  0  0  0  0
   -1.6945   -1.6230    2.2956 H   0  0  0  0  0  0  0  0  0  0  0  0
    1.1232   -1.3919    2.5733 H   0  0  0  0  0  0  0  0  0  0  0  0
    0.1839    1.2571   -2.8127 N   0  0  0  0  0  0  0  0  0  0  0  0
    0.1839    1.2571   -1.4590 C   0  0  0  0  0  3  0  0  0  0  0  0
    0.1839    2.2459   -0.7701 O   0  0  0  0  0  0  0  0  0  0  0  0
    0.1839    2.1337   -3.3043 H   0  0  0  0  0  0  0  0  0  0  0  0
    0.1839    0.4007   -3.3334 H   0  0  0  0  0  0  0  0  0  0  0  0
    0.1839    0.0317   -0.9516 H   0  0  0  0  0  0  0  0  0  0  0  0
  1  2  1  0
  1  5  1  0
  2  3  2  0
  2  6  1  0
  3  4  2  0
  4 12  1  0
  7  8  1  0
  7 10  1  0
  7 11  1  0
  8  9  2  0
M  RAD  1   8   2
M  END
>  <reaction>  (9) 
kfir_rxn_9679

>  <mol_properties>  (9) 
{"2": {"label": "*0", "atom_type": "Cdd"}, "3": {"label": "*1", "atom_type": "N3d"}, "7": {"label": "*3", "atom_type": "CO"}, "8": {"label": "*4", "atom_type": "O2d"}, "11": {"label": "*2", "atom_type": "H0"}}

>  <type>  (9) 
unop_5

>  <geom_source>  (9) 
Heuristics

$$$$

     RDKit          3D

 12 10  0  0  0  0  0  0  0  0999 V2000
   -1.7915   -2.9092    0.6553 O   0  0  0  0  0  0  0  0  0  0  0  0
   -1.3837   -1.6333    0.9575 C   0  0  0  0  0  0  0  0  0  0  0  0
   -0.2513   -1.0855    0.5975 C   0  0  0  0  0  0  0  0  0  0  0  0
    0.8717   -0.6269    0.4076 N   0  0  0  0  0  0  0  0  0  0  0  0
   -1.0366   -3.4345    0.3842 H   0  0  0  0  0  0  0  0  0  0  0  0
   -2.1159   -1.0568    1.5030 H   0  0  0  0  0  0  0  0  0  0  0  0
    0.8717    1.7294   -1.9218 N   0  0  0  0  0  0  0  0  0  0  0  0
    0.8717    1.7294   -0.5682 C   0  0  0  0  0  3  0  0  0  0  0  0
    0.8717    2.7183    0.1208 O   0  0  0  0  0  0  0  0  0  0  0  0
    0.8717    2.6061   -2.4135 H   0  0  0  0  0  0  0  0  0  0  0  0
    0.8717    0.8731   -2.4425 H   0  0  0  0  0  0  0  0  0  0  0  0
    0.8717    0.5041   -0.0608 H   0  0  0  0  0  0  0  0  0  0  0  0
  1  2  1  0
  1  5  1  0
  2  3  2  0
  2  6  1  0
  3  4  2  0
  4 12  1  0
  7  8  1  0
  7 10  1  0
  7 11  1  0
  8  9  2  0
M  RAD  1   8   2
M  END
>  <reaction>  (10) 
kfir_rxn_9679

>  <mol_properties>  (10) 
{"2": {"label": "*0", "atom_type": "Cdd"}, "3": {"label": "*1", "atom_type": "N3d"}, "7": {"label": "*3", "atom_type": "CO"}, "8": {"label": "*4", "atom_type": "O2d"}, "11": {"label": "*2", "atom_type": "H0"}}

>  <type>  (10) 
unop_6

>  <geom_source>  (10) 
Heuristics

$$$$

     RDKit          3D

 12 10  0  0  0  0  0  0  0  0999 V2000
   -1.8129   -2.5448    1.5710 O   0  0  0  0  0  0  0  0  0  0  0  0
   -1.0945   -1.3745    1.5684 C   0  0  0  0  0  0  0  0  0  0  0  0
   -0.1760   -1.0414    0.6982 C   0  0  0  0  0  0  0  0  0  0  0  0
    0.7966   -0.7977   -0.0105 N   0  0  0  0  0  0  0  0  0  0  0  0
   -1.3715   -3.1967    1.0235 H   0  0  0  0  0  0  0  0  0  0  0  0
   -1.3816   -0.6825    2.3459 H   0  0  0  0  0  0  0  0  0  0  0  0
    0.7966    1.5586   -2.3399 N   0  0  0  0  0  0  0  0  0  0  0  0
    0.7966    1.5586   -0.9863 C   0  0  0  0  0  3  0  0  0  0  0  0
    0.7966    2.5475   -0.2973 O   0  0  0  0  0  0  0  0  0  0  0  0
    0.7966    2.4353   -2.8316 H   0  0  0  0  0  0  0  0  0  0  0  0
    0.7966    0.7023   -2.8606 H   0  0  0  0  0  0  0  0  0  0  0  0
    0.7966    0.3333   -0.4789 H   0  0  0  0  0  0  0  0  0  0  0  0
  1  2  1  0
  1  5  1  0
  2  3  2  0
  2  6  1  0
  3  4  2  0
  4 12  1  0
  7  8  1  0
  7 10  1  0
  7 11  1  0
  8  9  2  0
M  RAD  1   8   2
M  END
>  <reaction>  (11) 
kfir_rxn_9679

>  <mol_properties>  (11) 
{"2": {"label": "*0", "atom_type": "Cdd"}, "3": {"label": "*1", "atom_type": "N3d"}, "7": {"label": "*3", "atom_type": "CO"}, "8": {"label": "*4", "atom_type": "O2d"}, "11": {"label": "*2", "atom_type": "H0"}}

>  <type>  (11) 
unop_7

>  <geom_source>  (11) 
Heuristics

$$$$

     RDKit          3D

 12 10  0  0  0  0  0  0  0  0999 V2000
    2.2880   -1.3450    1.4961 O   0  0  0  0  0  0  0  0  0  0  0  0
    1.2823   -1.9528    0.7858 C   0  0  0  0  0  0  0  0  0  0  0  0
    0.1523   -1.3975    0.4298 C   0  0  0  0  0  0  0  0  0  0  0  0
   -0.9708   -0.9390    0.2399 N   0  0  0  0  0  0  0  0  0  0  0  0
    1.9491   -0.5597    1.9296 H   0  0  0  0  0  0  0  0  0  0  0  0
    1.5111   -2.9624    0.4787 H   0  0  0  0  0  0  0  0  0  0  0  0
   -0.9708    1.4174   -2.0895 N   0  0  0  0  0  0  0  0  0  0  0  0
   -0.9708    1.4174   -0.7359 C   0  0  0  0  0  3  0  0  0  0  0  0
   -0.9708    2.4062   -0.0469 O   0  0  0  0  0  0  0  0  0  0  0  0
   -0.9708    2.2940   -2.5812 H   0  0  0  0  0  0  0  0  0  0  0  0
   -0.9708    0.5610   -2.6103 H   0  0  0  0  0  0  0  0  0  0  0  0
   -0.9708    0.1920   -0.2285 H   0  0  0  0  0  0  0  0  0  0  0  0
  1  2  1  0
  1  5  1  0
  2  3  2  0
  2  6  1  0
  3  4  2  0
  4 12  1  0
  7  8  1  0
  7 10  1  0
  7 11  1  0
  8  9  2  0
M  RAD  1   8   2
M  END
>  <reaction>  (12) 
kfir_rxn_9679

>  <mol_properties>  (12) 
{"2": {"label": "*0", "atom_type": "Cdd"}, "3": {"label": "*1", "atom_type": "N3d"}, "7": {"label": "*3", "atom_type": "CO"}, "8": {"label": "*4", "atom_type": "O2d"}, "11": {"label": "*2", "atom_type": "H0"}}

>  <type>  (12) 
unop_8

>  <geom_source>  (12) 
Heuristics

$$$$

     RDKit          3D

 12 10  0  0  0  0  0  0  0  0999 V2000
   -0.2516   -3.2483   -0.8259 O   0  0  0  0  0  0  0  0  0  0  0  0
   -0.8591   -2.1940   -0.1894 C   0  0  0  0  0  0  0  0  0  0  0  0
   -0.2467   -1.2091    0.4163 C   0  0  0  0  0  0  0  0  0  0  0  0
    0.3148   -0.3784    1.1249 N   0  0  0  0  0  0  0  0  0  0  0  0
    0.6609   -3.3169   -0.5395 H   0  0  0  0  0  0  0  0  0  0  0  0
   -1.9364   -2.2001   -0.2622 H   0  0  0  0  0  0  0  0  0  0  0  0
    0.3148    1.9779   -1.2044 N   0  0  0  0  0  0  0  0  0  0  0  0
    0.3148    1.9779    0.1492 C   0  0  0  0  0  3  0  0  0  0  0  0
    0.3148    2.9668    0.8381 O   0  0  0  0  0  0  0  0  0  0  0  0
    0.3148    2.8546   -1.6961 H   0  0  0  0  0  0  0  0  0  0  0  0
    0.3148    1.1216   -1.7252 H   0  0  0  0  0  0  0  0  0  0  0  0
    0.3148    0.7526    0.6566 H   0  0  0  0  0  0  0  0  0  0  0  0
  1  2  1  0
  1  5  1  0
  2  3  2  0
  2  6  1  0
  3  4  2  0
  4 12  1  0
  7  8  1  0
  7 10  1  0
  7 11  1  0
  8  9  2  0
M  RAD  1   8   2
M  END
>  <reaction>  (13) 
kfir_rxn_9679

>  <mol_properties>  (13) 
{"2": {"label": "*0", "atom_type": "Cdd"}, "3": {"label": "*1", "atom_type": "N3d"}, "7": {"label": "*3", "atom_type": "CO"}, "8": {"label": "*4", "atom_type": "O2d"}, "11": {"label": "*2", "atom_type": "H0"}}

>  <type>  (13) 
unop_9

>  <geom_source>  (13) 
Heuristics

$$$$

     RDKit          3D

 12 10  0  0  0  0  0  0  0  0999 V2000
    2.3774   -1.9024    0.4537 O   0  0  0  0  0  0  0  0  0  0  0  0
    1.0659   -2.1950    0.1713 C   0  0  0  0  0  0  0  0  0  0  0  0
    0.0453   -1.3983    0.3605 C   0  0  0  0  0  0  0  0  0  0  0  0
   -0.9272   -0.7249    0.6894 N   0  0  0  0  0  0  0  0  0  0  0  0
    2.4205   -1.1554    1.0533 H   0  0  0  0  0  0  0  0  0  0  0  0
    0.9216   -3.1618   -0.2875 H   0  0  0  0  0  0  0  0  0  0  0  0
   -0.9272    1.6314   -1.6400 N   0  0  0  0  0  0  0  0  0  0  0  0
   -0.9272    1.6314   -0.2864 C   0  0  0  0  0  3  0  0  0  0  0  0
   -0.9272    2.6203    0.4026 O   0  0  0  0  0  0  0  0  0  0  0  0
   -0.9272    2.5081   -2.1316 H   0  0  0  0  0  0  0  0  0  0  0  0
   -0.9272    0.7751   -2.1607 H   0  0  0  0  0  0  0  0  0  0  0  0
   -0.9272    0.4061    0.2211 H   0  0  0  0  0  0  0  0  0  0  0  0
  1  2  1  0
  1  5  1  0
  2  3  2  0
  2  6  1  0
  3  4  2  0
  4 12  1  0
  7  8  1  0
  7 10  1  0
  7 11  1  0
  8  9  2  0
M  RAD  1   8   2
M  END
>  <reaction>  (14) 
kfir_rxn_9679

>  <mol_properties>  (14) 
{"2": {"label": "*0", "atom_type": "Cdd"}, "3": {"label": "*1", "atom_type": "N3d"}, "7": {"label": "*3", "atom_type": "CO"}, "8": {"label": "*4", "atom_type": "O2d"}, "11": {"label": "*2", "atom_type": "H0"}}

>  <type>  (14) 
unop_10

>  <geom_source>  (14) 
Heuristics

$$$$

     RDKit          3D

 12 10  0  0  0  0  0  0  0  0999 V2000
   -1.4898   -2.1391    2.2918 O   0  0  0  0  0  0  0  0  0  0  0  0
   -0.4971   -1.2470    1.9691 C   0  0  0  0  0  0  0  0  0  0  0  0
   -0.0224   -1.0299    0.7693 C   0  0  0  0  0  0  0  0  0  0  0  0
    0.5391   -0.9434   -0.3191 N   0  0  0  0  0  0  0  0  0  0  0  0
   -1.6005   -2.7716    1.5795 H   0  0  0  0  0  0  0  0  0  0  0  0
   -0.1413   -0.6656    2.8066 H   0  0  0  0  0  0  0  0  0  0  0  0
    0.5391    1.4129   -2.6485 N   0  0  0  0  0  0  0  0  0  0  0  0
    0.5391    1.4129   -1.2949 C   0  0  0  0  0  3  0  0  0  0  0  0
    0.5391    2.4018   -0.6059 O   0  0  0  0  0  0  0  0  0  0  0  0
    0.5391    2.2895   -3.1402 H   0  0  0  0  0  0  0  0  0  0  0  0
    0.5391    0.5566   -3.1693 H   0  0  0  0  0  0  0  0  0  0  0  0
    0.5391    0.1875   -0.7875 H   0  0  0  0  0  0  0  0  0  0  0  0
  1  2  1  0
  1  5  1  0
  2  3  2  0
  2  6  1  0
  3  4  2  0
  4 12  1  0
  7  8  1  0
  7 10  1  0
  7 11  1  0
  8  9  2  0
M  RAD  1   8   2
M  END
>  <reaction>  (15) 
kfir_rxn_9679

>  <mol_properties>  (15) 
{"2": {"label": "*0", "atom_type": "Cdd"}, "3": {"label": "*1", "atom_type": "N3d"}, "7": {"label": "*3", "atom_type": "CO"}, "8": {"label": "*4", "atom_type": "O2d"}, "11": {"label": "*2", "atom_type": "H0"}}

>  <type>  (15) 
unop_11

>  <geom_source>  (15) 
Heuristics

$$$$

     RDKit          3D

 12 10  0  0  0  0  0  0  0  0999 V2000
    0.9220   -2.9936   -0.8951 O   0  0  0  0  0  0  0  0  0  0  0  0
   -0.1883   -2.3498   -0.4068 C   0  0  0  0  0  0  0  0  0  0  0  0
   -0.1839   -1.2881    0.3578 C   0  0  0  0  0  0  0  0  0  0  0  0
   -0.1839   -0.3999    1.2055 N   0  0  0  0  0  0  0  0  0  0  0  0
    1.6945   -2.7349   -0.3895 H   0  0  0  0  0  0  0  0  0  0  0  0
   -1.1232   -2.7679   -0.7493 H   0  0  0  0  0  0  0  0  0  0  0  0
   -0.1839    1.9564   -1.1238 N   0  0  0  0  0  0  0  0  0  0  0  0
   -0.1839    1.9564    0.2298 C   0  0  0  0  0  3  0  0  0  0  0  0
   -0.1839    2.9453    0.9187 O   0  0  0  0  0  0  0  0  0  0  0  0
   -0.1839    2.8331   -1.6155 H   0  0  0  0  0  0  0  0  0  0  0  0
   -0.1839    1.1001   -1.6446 H   0  0  0  0  0  0  0  0  0  0  0  0
   -0.1839    0.7311    0.7372 H   0  0  0  0  0  0  0  0  0  0  0  0
  1  2  1  0
  1  5  1  0
  2  3  2  0
  2  6  1  0
  3  4  2  0
  4 12  1  0
  7  8  1  0
  7 10  1  0
  7 11  1  0
  8  9  2  0
M  RAD  1   8   2
M  END
>  <reaction>  (16) 
kfir_rxn_9679

>  <mol_properties>  (16) 
{"2": {"label": "*0", "atom_type": "Cdd"}, "3": {"label": "*1", "atom_type": "N3d"}, "7": {"label": "*3", "atom_type": "CO"}, "8": {"label": "*4", "atom_type": "O2d"}, "11": {"label": "*2", "atom_type": "H0"}}

>  <type>  (16) 
unop_12

>  <geom_source>  (16) 
Heuristics

$$$$
