
     RDKit          3D

  4  3  0  0  0  0  0  0  0  0999 V2000
    0.0006   -0.0009    0.2762 N   0  0  0  0  0  0  0  0  0  0  0  0
   -0.4188    0.8439   -0.0883 H   0  0  0  0  0  0  0  0  0  0  0  0
   -0.5215   -0.7840   -0.0936 H   0  0  0  0  0  0  0  0  0  0  0  0
    0.9397   -0.0590   -0.0943 H   0  0  0  0  0  0  0  0  0  0  0  0
  1  2  1  0
  1  3  1  0
  1  4  1  0
M  END
>  <reaction>  (1) 
kfir_rxn_9652

>  <mol_properties>  (1) 
{"0": {"label": "donator", "atom_type": "N3s"}, "1": {"label": "d_hydrogen", "atom_type": "H0"}}

>  <type>  (1) 
r1h

$$$$

     RDKit          3D

  6  5  0  0  0  0  0  0  0  0999 V2000
   -1.3694    0.1235    0.0213 O   0  0  0  0  0  0  0  0  0  0  0  0
   -0.0928    0.5362    0.0705 C   0  0  0  0  0  0  0  0  0  0  0  0
    0.9758   -0.3386   -0.0479 C   0  0  0  0  0  0  0  0  0  0  0  0
    1.8567   -1.0882   -0.1493 N   0  0  0  0  0  2  0  0  0  0  0  0
   -1.4112   -0.8292   -0.1032 H   0  0  0  0  0  0  0  0  0  0  0  0
    0.0408    1.5963    0.2086 H   0  0  0  0  0  0  0  0  0  0  0  0
  1  2  1  0
  1  5  1  0
  2  3  2  0
  2  6  1  0
  3  4  2  0
M  RAD  1   4   2
M  END
>  <reaction>  (2) 
kfir_rxn_9652

>  <mol_properties>  (2) 
{"1": {"label": "acceptor", "atom_type": "Cs"}}

>  <type>  (2) 
r2

$$$$

     RDKit          3D

  7  6  0  0  0  0  0  0  0  0999 V2000
   -1.0240    0.8044   -0.4204 O   0  0  0  0  0  0  0  0  0  0  0  0
   -0.3365   -0.3409    0.0003 C   0  0  0  0  0  0  0  0  0  0  0  0
    1.1270   -0.1767   -0.0328 C   0  0  0  0  0  0  0  0  0  0  0  0
    2.2637   -0.0259   -0.0358 N   0  0  0  0  0  0  0  0  0  0  0  0
   -0.8050    1.5374    0.1584 H   0  0  0  0  0  0  0  0  0  0  0  0
   -0.6168   -0.6523    1.0127 H   0  0  0  0  0  0  0  0  0  0  0  0
   -0.6084   -1.1459   -0.6824 H   0  0  0  0  0  0  0  0  0  0  0  0
  1  2  1  0
  1  5  1  0
  2  3  1  0
  2  6  1  0
  2  7  1  0
  3  4  3  0
M  END
>  <reaction>  (3) 
kfir_rxn_9652

>  <mol_properties>  (3) 
{"1": {"label": "acceptor", "atom_type": "Cs"}, "6": {"label": "a_hydrogen", "atom_type": "H0"}}

>  <type>  (3) 
r2h

$$$$

     RDKit          3D

 10  8  0  0  0  0  0  0  0  0999 V2000
   -1.1897    0.1028    1.4132 O   0  0  0  0  0  0  0  0  0  0  0  0
   -0.0484   -0.2026    0.6980 C   0  0  0  0  0  0  0  0  0  0  0  0
    0.4420    0.8539   -0.1759 C   0  0  0  0  0  0  0  0  0  0  0  0
    0.8040    1.6504   -0.9201 N   0  0  0  0  0  0  0  0  0  0  0  0
   -1.8946    0.3423    0.8057 H   0  0  0  0  0  0  0  0  0  0  0  0
    0.7251   -0.5400    1.3844 H   0  0  0  0  0  0  0  0  0  0  0  0
   -0.5951   -2.1919   -0.9172 N   0  0  0  0  0  2  0  0  0  0  0  0
   -0.3048   -1.1504   -0.0620 H   0  0  0  0  0  0  0  0  0  0  0  0
    0.0850   -2.0054   -1.6585 H   0  0  0  0  0  0  0  0  0  0  0  0
   -0.1961   -2.9756   -0.3952 H   0  0  0  0  0  0  0  0  0  0  0  0
  1  2  1  0
  1  5  1  0
  2  3  1  0
  2  6  1  0
  2  8  1  0
  3  4  3  0
  7  9  1  0
  7 10  1  0
M  RAD  1   7   2
M  END
>  <reaction>  (4) 
kfir_rxn_9652

>  <mol_properties>  (4) 
{"1": {"label": "*1", "atom_type": "Cs"}, "2": {"label": "*0", "atom_type": "Ct"}, "6": {"label": "*3", "atom_type": "N3s"}, "7": {"label": "*2", "atom_type": "H0"}, "8": {"label": "*4", "atom_type": "H0"}}

>  <type>  (4) 
ts

$$$$

     RDKit          3D

 10  8  0  0  0  0  0  0  0  0999 V2000
   -1.1616    0.0589    1.0244 O   0  0  0  0  0  0  0  0  0  0  0  0
   -0.0021   -0.1314    0.2623 C   0  0  0  0  0  0  0  0  0  0  0  0
    0.5307    1.1235   -0.2956 C   0  0  0  0  0  0  0  0  0  0  0  0
    0.9510    2.1108   -0.6997 N   0  0  0  0  0  2  0  0  0  0  0  0
   -0.9655    0.6396    1.7623 H   0  0  0  0  0  0  0  0  0  0  0  0
    0.8008   -0.6140    0.8305 H   0  0  0  0  0  0  0  0  0  0  0  0
   -0.0021   -2.5359   -0.4967 N   0  0  0  0  0  0  0  0  0  0  0  0
   -0.0021   -1.3787   -0.1314 H   0  0  0  0  0  0  0  0  0  0  0  0
   -0.8724   -2.9512   -0.1923 H   0  0  0  0  0  0  0  0  0  0  0  0
   -0.0021   -2.5359   -1.5079 H   0  0  0  0  0  0  0  0  0  0  0  0
  1  2  1  0
  1  5  1  0
  2  3  2  0
  2  6  1  0
  3  4  2  0
  7  8  1  0
  7  9  1  0
  7 10  1  0
M  RAD  1   4   2
M  END
>  <reaction>  (5) 
kfir_rxn_9652

>  <mol_properties>  (5) 
{"1": {"label": "*1", "atom_type": "Cs"}, "2": {"label": "*0", "atom_type": "Ct"}, "6": {"label": "*3", "atom_type": "N3s"}, "7": {"label": "*2", "atom_type": "H0"}, "8": {"label": "*4", "atom_type": "H0"}}

>  <type>  (5) 
unop_1

>  <geom_source>  (5) 
Heuristics

$$$$

     RDKit          3D

 10  8  0  0  0  0  0  0  0  0999 V2000
   -1.0983    0.7665   -0.8428 O   0  0  0  0  0  0  0  0  0  0  0  0
   -0.4289    0.0257    0.1392 C   0  0  0  0  0  0  0  0  0  0  0  0
    0.7840    0.6968    0.6376 C   0  0  0  0  0  0  0  0  0  0  0  0
    1.7095    1.2430    1.0374 N   0  0  0  0  0  2  0  0  0  0  0  0
   -1.3686    1.6104   -0.4755 H   0  0  0  0  0  0  0  0  0  0  0  0
   -1.0651   -0.2023    1.0016 H   0  0  0  0  0  0  0  0  0  0  0  0
   -0.4289   -2.3788   -0.6198 N   0  0  0  0  0  0  0  0  0  0  0  0
   -0.4289   -1.2217   -0.2545 H   0  0  0  0  0  0  0  0  0  0  0  0
   -1.2992   -2.7941   -0.3154 H   0  0  0  0  0  0  0  0  0  0  0  0
   -0.4289   -2.3788   -1.6310 H   0  0  0  0  0  0  0  0  0  0  0  0
  1  2  1  0
  1  5  1  0
  2  3  2  0
  2  6  1  0
  3  4  2  0
  7  8  1  0
  7  9  1  0
  7 10  1  0
M  RAD  1   4   2
M  END
>  <reaction>  (6) 
kfir_rxn_9652

>  <mol_properties>  (6) 
{"1": {"label": "*1", "atom_type": "Cs"}, "2": {"label": "*0", "atom_type": "Ct"}, "6": {"label": "*3", "atom_type": "N3s"}, "7": {"label": "*2", "atom_type": "H0"}, "8": {"label": "*4", "atom_type": "H0"}}

>  <type>  (6) 
unop_2

>  <geom_source>  (6) 
Heuristics

$$$$

     RDKit          3D

 10  8  0  0  0  0  0  0  0  0999 V2000
   -0.4131   -0.0386    1.5239 O   0  0  0  0  0  0  0  0  0  0  0  0
    0.2563   -0.0814    0.2945 C   0  0  0  0  0  0  0  0  0  0  0  0
    0.0373    1.1257   -0.5209 C   0  0  0  0  0  0  0  0  0  0  0  0
   -0.1180    2.0829   -1.1329 N   0  0  0  0  0  2  0  0  0  0  0  0
   -0.0973    0.7112    2.0321 H   0  0  0  0  0  0  0  0  0  0  0  0
    1.3374   -0.2184    0.4081 H   0  0  0  0  0  0  0  0  0  0  0  0
    0.2563   -2.4859   -0.4646 N   0  0  0  0  0  0  0  0  0  0  0  0
    0.2563   -1.3287   -0.0993 H   0  0  0  0  0  0  0  0  0  0  0  0
   -0.6140   -2.9012   -0.1601 H   0  0  0  0  0  0  0  0  0  0  0  0
    0.2563   -2.4859   -1.4758 H   0  0  0  0  0  0  0  0  0  0  0  0
  1  2  1  0
  1  5  1  0
  2  3  2  0
  2  6  1  0
  3  4  2  0
  7  8  1  0
  7  9  1  0
  7 10  1  0
M  RAD  1   4   2
M  END
>  <reaction>  (7) 
kfir_rxn_9652

>  <mol_properties>  (7) 
{"1": {"label": "*1", "atom_type": "Cs"}, "2": {"label": "*0", "atom_type": "Ct"}, "6": {"label": "*3", "atom_type": "N3s"}, "7": {"label": "*2", "atom_type": "H0"}, "8": {"label": "*4", "atom_type": "H0"}}

>  <type>  (7) 
unop_3

>  <geom_source>  (7) 
Heuristics

$$$$

     RDKit          3D

 10  8  0  0  0  0  0  0  0  0999 V2000
    0.7976    1.3083   -0.8848 O   0  0  0  0  0  0  0  0  0  0  0  0
   -0.3619    0.7150   -0.3701 C   0  0  0  0  0  0  0  0  0  0  0  0
   -0.1445    0.0667    0.9346 C   0  0  0  0  0  0  0  0  0  0  0  0
    0.0314   -0.4090    1.9630 N   0  0  0  0  0  2  0  0  0  0  0  0
    1.1057    1.9838   -0.2774 H   0  0  0  0  0  0  0  0  0  0  0  0
   -1.1858    1.4284   -0.2576 H   0  0  0  0  0  0  0  0  0  0  0  0
   -0.3619   -1.6895   -1.1291 N   0  0  0  0  0  0  0  0  0  0  0  0
   -0.3619   -0.5323   -0.7639 H   0  0  0  0  0  0  0  0  0  0  0  0
   -1.2322   -2.1048   -0.8247 H   0  0  0  0  0  0  0  0  0  0  0  0
   -0.3619   -1.6895   -2.1404 H   0  0  0  0  0  0  0  0  0  0  0  0
  1  2  1  0
  1  5  1  0
  2  3  2  0
  2  6  1  0
  3  4  2  0
  7  8  1  0
  7  9  1  0
  7 10  1  0
M  RAD  1   4   2
M  END
>  <reaction>  (8) 
kfir_rxn_9652

>  <mol_properties>  (8) 
{"1": {"label": "*1", "atom_type": "Cs"}, "2": {"label": "*0", "atom_type": "Ct"}, "6": {"label": "*3", "atom_type": "N3s"}, "7": {"label": "*2", "atom_type": "H0"}, "8": {"label": "*4", "atom_type": "H0"}}

>  <type>  (8) 
unop_4

>  <geom_source>  (8) 
Heuristics

$$$$

     RDKit          3D

 10  8  0  0  0  0  0  0  0  0999 V2000
    0.5957    0.1798    1.5422 O   0  0  0  0  0  0  0  0  0  0  0  0
    0.5957    0.1910    0.1417 C   0  0  0  0  0  0  0  0  0  0  0  0
   -0.5876    0.8589   -0.4271 C   0  0  0  0  0  0  0  0  0  0  0  0
   -1.4988    1.4066   -0.8565 N   0  0  0  0  0  2  0  0  0  0  0  0
    0.5924    1.0822    1.8675 H   0  0  0  0  0  0  0  0  0  0  0  0
    1.4867    0.6732   -0.2756 H   0  0  0  0  0  0  0  0  0  0  0  0
    0.5957   -2.2135   -0.6173 N   0  0  0  0  0  0  0  0  0  0  0  0
    0.5957   -1.0563   -0.2520 H   0  0  0  0  0  0  0  0  0  0  0  0
   -0.2746   -2.6288   -0.3129 H   0  0  0  0  0  0  0  0  0  0  0  0
    0.5957   -2.2135   -1.6285 H   0  0  0  0  0  0  0  0  0  0  0  0
  1  2  1  0
  1  5  1  0
  2  3  2  0
  2  6  1  0
  3  4  2  0
  7  8  1  0
  7  9  1  0
  7 10  1  0
M  RAD  1   4   2
M  END
>  <reaction>  (9) 
kfir_rxn_9652

>  <mol_properties>  (9) 
{"1": {"label": "*1", "atom_type": "Cs"}, "2": {"label": "*0", "atom_type": "Ct"}, "6": {"label": "*3", "atom_type": "N3s"}, "7": {"label": "*2", "atom_type": "H0"}, "8": {"label": "*4", "atom_type": "H0"}}

>  <type>  (9) 
unop_5

>  <geom_source>  (9) 
Heuristics

$$$$

     RDKit          3D

 10  8  0  0  0  0  0  0  0  0999 V2000
    1.2909    1.2129   -0.3227 O   0  0  0  0  0  0  0  0  0  0  0  0
   -0.0479    0.8211   -0.4464 C   0  0  0  0  0  0  0  0  0  0  0  0
   -0.5320    0.0561    0.7156 C   0  0  0  0  0  0  0  0  0  0  0  0
   -0.9044   -0.5132    1.6386 N   0  0  0  0  0  2  0  0  0  0  0  0
    1.3883    1.7734    0.4497 H   0  0  0  0  0  0  0  0  0  0  0  0
   -0.7235    1.6709   -0.5942 H   0  0  0  0  0  0  0  0  0  0  0  0
   -0.0479   -1.5834   -1.2054 N   0  0  0  0  0  0  0  0  0  0  0  0
   -0.0479   -0.4262   -0.8401 H   0  0  0  0  0  0  0  0  0  0  0  0
   -0.9183   -1.9987   -0.9010 H   0  0  0  0  0  0  0  0  0  0  0  0
   -0.0479   -1.5834   -2.2167 H   0  0  0  0  0  0  0  0  0  0  0  0
  1  2  1  0
  1  5  1  0
  2  3  2  0
  2  6  1  0
  3  4  2  0
  7  8  1  0
  7  9  1  0
  7 10  1  0
M  RAD  1   4   2
M  END
>  <reaction>  (10) 
kfir_rxn_9652

>  <mol_properties>  (10) 
{"1": {"label": "*1", "atom_type": "Cs"}, "2": {"label": "*0", "atom_type": "Ct"}, "6": {"label": "*3", "atom_type": "N3s"}, "7": {"label": "*2", "atom_type": "H0"}, "8": {"label": "*4", "atom_type": "H0"}}

>  <type>  (10) 
unop_6

>  <geom_source>  (10) 
Heuristics

$$$$

     RDKit          3D

 10  8  0  0  0  0  0  0  0  0999 V2000
    1.4618    0.9871    0.3725 O   0  0  0  0  0  0  0  0  0  0  0  0
    0.3023    0.7969   -0.3896 C   0  0  0  0  0  0  0  0  0  0  0  0
   -0.7903    0.1700    0.3741 C   0  0  0  0  0  0  0  0  0  0  0  0
   -1.6417   -0.2918    0.9877 N   0  0  0  0  0  2  0  0  0  0  0  0
    1.2641    1.5626    1.1140 H   0  0  0  0  0  0  0  0  0  0  0  0
   -0.0791    1.7310   -0.8165 H   0  0  0  0  0  0  0  0  0  0  0  0
    0.3023   -1.6076   -1.1486 N   0  0  0  0  0  0  0  0  0  0  0  0
    0.3023   -0.4505   -0.7834 H   0  0  0  0  0  0  0  0  0  0  0  0
   -0.5680   -2.0230   -0.8442 H   0  0  0  0  0  0  0  0  0  0  0  0
    0.3023   -1.6076   -2.1599 H   0  0  0  0  0  0  0  0  0  0  0  0
  1  2  1  0
  1  5  1  0
  2  3  2  0
  2  6  1  0
  3  4  2  0
  7  8  1  0
  7  9  1  0
  7 10  1  0
M  RAD  1   4   2
M  END
>  <reaction>  (11) 
kfir_rxn_9652

>  <mol_properties>  (11) 
{"1": {"label": "*1", "atom_type": "Cs"}, "2": {"label": "*0", "atom_type": "Ct"}, "6": {"label": "*3", "atom_type": "N3s"}, "7": {"label": "*2", "atom_type": "H0"}, "8": {"label": "*4", "atom_type": "H0"}}

>  <type>  (11) 
unop_7

>  <geom_source>  (11) 
Heuristics

$$$$

     RDKit          3D

 10  8  0  0  0  0  0  0  0  0999 V2000
   -1.4808    0.2737    0.3369 O   0  0  0  0  0  0  0  0  0  0  0  0
   -0.1419   -0.1181    0.2132 C   0  0  0  0  0  0  0  0  0  0  0  0
    0.7758    1.0208    0.0381 C   0  0  0  0  0  0  0  0  0  0  0  0
    1.4821    1.9177   -0.0687 N   0  0  0  0  0  2  0  0  0  0  0  0
   -1.5769    0.8396    1.1055 H   0  0  0  0  0  0  0  0  0  0  0  0
    0.2072   -0.7018    1.0722 H   0  0  0  0  0  0  0  0  0  0  0  0
   -0.1419   -2.5226   -0.5458 N   0  0  0  0  0  0  0  0  0  0  0  0
   -0.1419   -1.3654   -0.1805 H   0  0  0  0  0  0  0  0  0  0  0  0
   -1.0122   -2.9379   -0.2414 H   0  0  0  0  0  0  0  0  0  0  0  0
   -0.1419   -2.5226   -1.5570 H   0  0  0  0  0  0  0  0  0  0  0  0
  1  2  1  0
  1  5  1  0
  2  3  2  0
  2  6  1  0
  3  4  2  0
  7  8  1  0
  7  9  1  0
  7 10  1  0
M  RAD  1   4   2
M  END
>  <reaction>  (12) 
kfir_rxn_9652

>  <mol_properties>  (12) 
{"1": {"label": "*1", "atom_type": "Cs"}, "2": {"label": "*0", "atom_type": "Ct"}, "6": {"label": "*3", "atom_type": "N3s"}, "7": {"label": "*2", "atom_type": "H0"}, "8": {"label": "*4", "atom_type": "H0"}}

>  <type>  (12) 
unop_8

>  <geom_source>  (12) 
Heuristics

$$$$

     RDKit          3D

 10  8  0  0  0  0  0  0  0  0999 V2000
    0.1089    1.2408   -1.1759 O   0  0  0  0  0  0  0  0  0  0  0  0
   -0.5606    0.4999   -0.1939 C   0  0  0  0  0  0  0  0  0  0  0  0
    0.2810    0.2097    0.9798 C   0  0  0  0  0  0  0  0  0  0  0  0
    0.9376    0.0156    1.8995 N   0  0  0  0  0  2  0  0  0  0  0  0
    0.3850    2.0819   -0.8067 H   0  0  0  0  0  0  0  0  0  0  0  0
   -1.4712    0.9958    0.1601 H   0  0  0  0  0  0  0  0  0  0  0  0
   -0.5606   -1.9046   -0.9529 N   0  0  0  0  0  0  0  0  0  0  0  0
   -0.5606   -0.7474   -0.5876 H   0  0  0  0  0  0  0  0  0  0  0  0
   -1.4309   -2.3199   -0.6485 H   0  0  0  0  0  0  0  0  0  0  0  0
   -0.5606   -1.9046   -1.9641 H   0  0  0  0  0  0  0  0  0  0  0  0
  1  2  1  0
  1  5  1  0
  2  3  2  0
  2  6  1  0
  3  4  2  0
  7  8  1  0
  7  9  1  0
  7 10  1  0
M  RAD  1   4   2
M  END
>  <reaction>  (13) 
kfir_rxn_9652

>  <mol_properties>  (13) 
{"1": {"label": "*1", "atom_type": "Cs"}, "2": {"label": "*0", "atom_type": "Ct"}, "6": {"label": "*3", "atom_type": "N3s"}, "7": {"label": "*2", "atom_type": "H0"}, "8": {"label": "*4", "atom_type": "H0"}}

>  <type>  (13) 
unop_9

>  <geom_source>  (13) 
Heuristics

$$$$

     RDKit          3D

 10  8  0  0  0  0  0  0  0  0999 V2000
   -1.4260    0.5161   -0.3284 O   0  0  0  0  0  0  0  0  0  0  0  0
   -0.2665   -0.0773    0.1863 C   0  0  0  0  0  0  0  0  0  0  0  0
    0.8387    0.8805    0.3631 C   0  0  0  0  0  0  0  0  0  0  0  0
    1.6812    1.6416    0.5228 N   0  0  0  0  0  2  0  0  0  0  0  0
   -1.7304    1.1960    0.2759 H   0  0  0  0  0  0  0  0  0  0  0  0
   -0.4384   -0.5731    1.1481 H   0  0  0  0  0  0  0  0  0  0  0  0
   -0.2665   -2.4818   -0.5727 N   0  0  0  0  0  0  0  0  0  0  0  0
   -0.2665   -1.3246   -0.2074 H   0  0  0  0  0  0  0  0  0  0  0  0
   -1.1368   -2.8971   -0.2683 H   0  0  0  0  0  0  0  0  0  0  0  0
   -0.2665   -2.4818   -1.5839 H   0  0  0  0  0  0  0  0  0  0  0  0
  1  2  1  0
  1  5  1  0
  2  3  2  0
  2  6  1  0
  3  4  2  0
  7  8  1  0
  7  9  1  0
  7 10  1  0
M  RAD  1   4   2
M  END
>  <reaction>  (14) 
kfir_rxn_9652

>  <mol_properties>  (14) 
{"1": {"label": "*1", "atom_type": "Cs"}, "2": {"label": "*0", "atom_type": "Ct"}, "6": {"label": "*3", "atom_type": "N3s"}, "7": {"label": "*2", "atom_type": "H0"}, "8": {"label": "*4", "atom_type": "H0"}}

>  <type>  (14) 
unop_10

>  <geom_source>  (14) 
Heuristics

$$$$

     RDKit          3D

 10  8  0  0  0  0  0  0  0  0999 V2000
    1.2640    0.6358    1.0502 O   0  0  0  0  0  0  0  0  0  0  0  0
    0.5945    0.5931   -0.1792 C   0  0  0  0  0  0  0  0  0  0  0  0
   -0.8626    0.4330   -0.0343 C   0  0  0  0  0  0  0  0  0  0  0  0
   -1.9981    0.3372    0.0932 N   0  0  0  0  0  2  0  0  0  0  0  0
    0.9435    1.3818    1.5611 H   0  0  0  0  0  0  0  0  0  0  0  0
    0.7755    1.4855   -0.7886 H   0  0  0  0  0  0  0  0  0  0  0  0
    0.5945   -1.8114   -0.9382 N   0  0  0  0  0  0  0  0  0  0  0  0
    0.5945   -0.6542   -0.5730 H   0  0  0  0  0  0  0  0  0  0  0  0
   -0.2758   -2.2267   -0.6338 H   0  0  0  0  0  0  0  0  0  0  0  0
    0.5945   -1.8114   -1.9495 H   0  0  0  0  0  0  0  0  0  0  0  0
  1  2  1  0
  1  5  1  0
  2  3  2  0
  2  6  1  0
  3  4  2  0
  7  8  1  0
  7  9  1  0
  7 10  1  0
M  RAD  1   4   2
M  END
>  <reaction>  (15) 
kfir_rxn_9652

>  <mol_properties>  (15) 
{"1": {"label": "*1", "atom_type": "Cs"}, "2": {"label": "*0", "atom_type": "Ct"}, "6": {"label": "*3", "atom_type": "N3s"}, "7": {"label": "*2", "atom_type": "H0"}, "8": {"label": "*4", "atom_type": "H0"}}

>  <type>  (15) 
unop_11

>  <geom_source>  (15) 
Heuristics

$$$$

     RDKit          3D

 10  8  0  0  0  0  0  0  0  0999 V2000
   -0.5717    1.0281   -1.1450 O   0  0  0  0  0  0  0  0  0  0  0  0
   -0.5717    0.2332    0.0081 C   0  0  0  0  0  0  0  0  0  0  0  0
    0.6116    0.4535    0.8573 C   0  0  0  0  0  0  0  0  0  0  0  0
    1.5229    0.6554    1.5233 N   0  0  0  0  0  2  0  0  0  0  0  0
   -0.5684    1.9537   -0.8933 H   0  0  0  0  0  0  0  0  0  0  0  0
   -1.4627    0.3884    0.6266 H   0  0  0  0  0  0  0  0  0  0  0  0
   -0.5717   -2.1713   -0.7510 N   0  0  0  0  0  0  0  0  0  0  0  0
   -0.5717   -1.0141   -0.3857 H   0  0  0  0  0  0  0  0  0  0  0  0
   -1.4420   -2.5866   -0.4466 H   0  0  0  0  0  0  0  0  0  0  0  0
   -0.5717   -2.1713   -1.7622 H   0  0  0  0  0  0  0  0  0  0  0  0
  1  2  1  0
  1  5  1  0
  2  3  2  0
  2  6  1  0
  3  4  2  0
  7  8  1  0
  7  9  1  0
  7 10  1  0
M  RAD  1   4   2
M  END
>  <reaction>  (16) 
kfir_rxn_9652

>  <mol_properties>  (16) 
{"1": {"label": "*1", "atom_type": "Cs"}, "2": {"label": "*0", "atom_type": "Ct"}, "6": {"label": "*3", "atom_type": "N3s"}, "7": {"label": "*2", "atom_type": "H0"}, "8": {"label": "*4", "atom_type": "H0"}}

>  <type>  (16) 
unop_12

>  <geom_source>  (16) 
Heuristics

$$$$
