
     RDKit          3D

  7  6  0  0  0  0  0  0  0  0999 V2000
    1.3572   -0.1671    1.3611 O   0  0  0  0  0  0  0  0  0  0  0  0
    0.9236    0.0526    0.2798 C   0  0  0  0  0  0  0  0  0  0  0  0
   -0.5771   -0.0341   -0.0851 C   0  0  0  0  0  0  0  0  0  0  0  0
   -1.0319    1.5740   -0.6898 Cl  0  0  0  0  0  0  0  0  0  0  0  0
   -1.5652   -0.4943    1.2822 Cl  0  0  0  0  0  0  0  0  0  0  0  0
   -0.6988   -1.2311   -1.3932 Cl  0  0  0  0  0  0  0  0  0  0  0  0
    1.5409    0.3436   -0.5884 H   0  0  0  0  0  0  0  0  0  0  0  0
  1  2  2  0
  2  3  1  0
  2  7  1  0
  3  4  1  0
  3  5  1  0
  3  6  1  0
M  END
>  <reaction>  (1) 
kfir_rxn_11797

>  <mol_properties>  (1) 
{"1": {"label": "donator", "atom_type": "CO"}, "6": {"label": "d_hydrogen", "atom_type": "H0"}}

>  <type>  (1) 
r1h

$$$$

     RDKit          3D

  7  7  0  0  0  0  0  0  0  0999 V2000
    2.1173    0.2159   -0.7465 F   0  0  0  0  0  0  0  0  0  0  0  0
    0.8958    0.1038   -0.3131 C   0  0  0  0  0  0  0  0  0  0  0  0
    0.1698    1.1809    0.1961 C   0  0  0  0  0  0  0  0  0  0  0  0
   -1.0053    0.9932    0.5955 N   0  0  0  0  0  0  0  0  0  0  0  0
   -1.5959   -0.2293    0.5481 N   0  0  0  0  0  2  0  0  0  0  0  0
   -0.9111   -1.2019    0.0773 N   0  0  0  0  0  0  0  0  0  0  0  0
    0.3295   -1.0627   -0.3573 N   0  0  0  0  0  0  0  0  0  0  0  0
  1  2  1  0
  2  3  2  0
  2  7  1  0
  3  4  2  0
  4  5  1  0
  5  6  1  0
  6  7  2  0
M  RAD  1   5   2
M  END
>  <reaction>  (2) 
kfir_rxn_11797

>  <mol_properties>  (2) 
{"3": {"label": "acceptor", "atom_type": "N5dc"}}

>  <type>  (2) 
r2

$$$$

     RDKit          3D

  8  8  0  0  0  0  0  0  0  0999 V2000
    2.4207   -0.2830    0.0534 F   0  0  0  0  0  0  0  0  0  0  0  0
    1.1361   -0.0236    0.0359 C   0  0  0  0  0  0  0  0  0  0  0  0
    0.2566   -1.1485   -0.1050 C   0  0  0  0  0  0  0  0  0  0  0  0
   -0.9661   -0.6536   -0.0972 N   0  0  0  0  0  4  0  0  0  0  0  0
   -1.3879    0.6371    0.0164 N   0  0  0  0  0  2  0  0  0  0  0  0
   -0.5116    1.5274    0.1339 N   0  0  0  0  0  0  0  0  0  0  0  0
    0.8130    1.2180    0.1479 N   0  0  0  0  0  0  0  0  0  0  0  0
   -1.7608   -1.2739   -0.1853 H   0  0  0  0  0  0  0  0  0  0  0  0
  1  2  1  0
  2  3  2  0
  2  7  1  0
  3  4  2  0
  4  5  1  0
  4  8  1  0
  5  6  1  0
  6  7  2  0
M  CHG  2   4   1   5  -1
M  END
>  <reaction>  (3) 
kfir_rxn_11797

>  <mol_properties>  (3) 
{"3": {"label": "acceptor", "atom_type": "N5dc"}, "7": {"label": "a_hydrogen", "atom_type": "H0"}}

>  <type>  (3) 
r2h

$$$$

     RDKit          3D

 14 13  0  0  0  0  0  0  0  0999 V2000
    0.8718   -4.5511    1.3516 F   0  0  0  0  0  0  0  0  0  0  0  0
    0.3001   -3.3760    1.3262 C   0  0  0  0  0  0  0  0  0  0  0  0
    0.6652   -2.4578    0.3061 C   0  0  0  0  0  0  0  0  0  0  0  0
   -0.0025   -1.3742    0.4558 N   0  0  0  0  0  4  0  0  0  0  0  0
   -0.9212   -1.0567    1.3905 N   0  0  0  0  0  2  0  0  0  0  0  0
   -1.1806   -1.9428    2.2604 N   0  0  0  0  0  0  0  0  0  0  0  0
   -0.5712   -3.1387    2.2522 N   0  0  0  0  0  0  0  0  0  0  0  0
    1.3314    0.1348   -2.1247 O   0  0  0  0  0  0  0  0  0  0  0  0
    0.5273    0.4662   -1.3398 C   0  0  0  0  0  3  0  0  0  0  0  0
   -0.2054    1.8342   -1.2867 C   0  0  0  0  0  0  0  0  0  0  0  0
   -1.9296    1.4602   -1.4134 Cl  0  0  0  0  0  0  0  0  0  0  0  0
    0.3020    2.9105   -2.5802 Cl  0  0  0  0  0  0  0  0  0  0  0  0
    0.1777    2.5224    0.2970 Cl  0  0  0  0  0  0  0  0  0  0  0  0
    0.1677   -0.4225   -0.3449 H   0  0  0  0  0  0  0  0  0  0  0  0
  1  2  1  0
  2  3  2  0
  2  7  1  0
  3  4  2  0
  4  5  1  0
  4 14  1  0
  5  6  1  0
  6  7  2  0
  8  9  2  0
  9 10  1  0
 10 11  1  0
 10 12  1  0
 10 13  1  0
M  CHG  2   4   1   5  -1
M  RAD  1   9   2
M  END
>  <reaction>  (4) 
kfir_rxn_11797

>  <mol_properties>  (4) 
{"3": {"label": "*1", "atom_type": "N5dc"}, "4": {"label": "*0", "atom_type": "N1sc"}, "7": {"label": "*4", "atom_type": "O2d"}, "8": {"label": "*3", "atom_type": "CO"}, "13": {"label": "*2", "atom_type": "H0"}}

>  <type>  (4) 
ts

$$$$

     RDKit          3D

 14 13  0  0  0  0  0  0  0  0999 V2000
    1.2518   -2.7363    2.8343 F   0  0  0  0  0  0  0  0  0  0  0  0
    0.4444   -2.4644    1.8383 C   0  0  0  0  0  0  0  0  0  0  0  0
    1.0600   -2.0844    0.5992 C   0  0  0  0  0  0  0  0  0  0  0  0
    0.0690   -1.8627   -0.2427 N   0  0  0  0  0  4  0  0  0  0  0  0
   -1.2775   -1.9529   -0.0540 N   0  0  0  0  0  2  0  0  0  0  0  0
   -1.6840   -2.2972    1.0820 N   0  0  0  0  0  0  0  0  0  0  0  0
   -0.8138   -2.5713    2.0911 N   0  0  0  0  0  0  0  0  0  0  0  0
    0.0690    0.2389   -2.8540 O   0  0  0  0  0  0  0  0  0  0  0  0
    0.0690    0.2389   -1.6686 C   0  0  0  0  0  3  0  0  0  0  0  0
    0.0690    1.5209   -0.8029 C   0  0  0  0  0  0  0  0  0  0  0  0
   -1.3866    1.4307    0.2130 Cl  0  0  0  0  0  0  0  0  0  0  0  0
    0.0690    2.9751   -1.7739 Cl  0  0  0  0  0  0  0  0  0  0  0  0
    1.5246    1.4307    0.2130 Cl  0  0  0  0  0  0  0  0  0  0  0  0
    0.0690   -0.8577   -0.9245 H   0  0  0  0  0  0  0  0  0  0  0  0
  1  2  1  0
  2  3  2  0
  2  7  1  0
  3  4  2  0
  4  5  1  0
  4 14  1  0
  5  6  1  0
  6  7  2  0
  8  9  2  0
  9 10  1  0
 10 11  1  0
 10 12  1  0
 10 13  1  0
M  CHG  2   4   1   5  -1
M  RAD  1   9   2
M  END
>  <reaction>  (5) 
kfir_rxn_11797

>  <mol_properties>  (5) 
{"3": {"label": "*1", "atom_type": "N5dc"}, "4": {"label": "*0", "atom_type": "N1sc"}, "7": {"label": "*4", "atom_type": "O2d"}, "8": {"label": "*3", "atom_type": "CO"}, "13": {"label": "*2", "atom_type": "H0"}}

>  <type>  (5) 
unop_1

>  <geom_source>  (5) 
Heuristics

$$$$

     RDKit          3D

 14 13  0  0  0  0  0  0  0  0999 V2000
    1.1889   -4.6388    0.4862 F   0  0  0  0  0  0  0  0  0  0  0  0
    0.6203   -3.4775    0.7010 C   0  0  0  0  0  0  0  0  0  0  0  0
    0.3939   -2.6517   -0.4504 C   0  0  0  0  0  0  0  0  0  0  0  0
   -0.1782   -1.5523    0.0013 N   0  0  0  0  0  4  0  0  0  0  0  0
   -0.5156   -1.1996    1.2735 N   0  0  0  0  0  2  0  0  0  0  0  0
   -0.2612   -2.0170    2.1908 N   0  0  0  0  0  0  0  0  0  0  0  0
    0.3303   -3.2134    1.9275 N   0  0  0  0  0  0  0  0  0  0  0  0
   -0.1782    0.5493   -2.6100 O   0  0  0  0  0  0  0  0  0  0  0  0
   -0.1782    0.5493   -1.4245 C   0  0  0  0  0  3  0  0  0  0  0  0
   -0.1782    1.8312   -0.5589 C   0  0  0  0  0  0  0  0  0  0  0  0
   -1.6338    1.7411    0.4570 Cl  0  0  0  0  0  0  0  0  0  0  0  0
   -0.1783    3.2855   -1.5298 Cl  0  0  0  0  0  0  0  0  0  0  0  0
    1.2773    1.7411    0.4570 Cl  0  0  0  0  0  0  0  0  0  0  0  0
   -0.1782   -0.5474   -0.6805 H   0  0  0  0  0  0  0  0  0  0  0  0
  1  2  1  0
  2  3  2  0
  2  7  1  0
  3  4  2  0
  4  5  1  0
  4 14  1  0
  5  6  1  0
  6  7  2  0
  8  9  2  0
  9 10  1  0
 10 11  1  0
 10 12  1  0
 10 13  1  0
M  CHG  2   4   1   5  -1
M  RAD  1   9   2
M  END
>  <reaction>  (6) 
kfir_rxn_11797

>  <mol_properties>  (6) 
{"3": {"label": "*1", "atom_type": "N5dc"}, "4": {"label": "*0", "atom_type": "N1sc"}, "7": {"label": "*4", "atom_type": "O2d"}, "8": {"label": "*3", "atom_type": "CO"}, "13": {"label": "*2", "atom_type": "H0"}}

>  <type>  (6) 
unop_2

>  <geom_source>  (6) 
Heuristics

$$$$

     RDKit          3D

 14 13  0  0  0  0  0  0  0  0999 V2000
    0.3298   -2.6477    3.1340 F   0  0  0  0  0  0  0  0  0  0  0  0
   -0.0501   -2.5217    1.8859 C   0  0  0  0  0  0  0  0  0  0  0  0
    0.7958   -1.7353    1.0345 C   0  0  0  0  0  0  0  0  0  0  0  0
    0.2237   -1.7487   -0.1540 N   0  0  0  0  0  4  0  0  0  0  0  0
   -0.9246   -2.3553   -0.5665 N   0  0  0  0  0  2  0  0  0  0  0  0
   -1.5717   -3.0149    0.2824 N   0  0  0  0  0  0  0  0  0  0  0  0
   -1.1444   -3.1222    1.5694 N   0  0  0  0  0  0  0  0  0  0  0  0
    0.2237    0.3528   -2.7653 O   0  0  0  0  0  0  0  0  0  0  0  0
    0.2237    0.3528   -1.5798 C   0  0  0  0  0  3  0  0  0  0  0  0
    0.2237    1.6348   -0.7142 C   0  0  0  0  0  0  0  0  0  0  0  0
   -1.2319    1.5446    0.3017 Cl  0  0  0  0  0  0  0  0  0  0  0  0
    0.2237    3.0890   -1.6851 Cl  0  0  0  0  0  0  0  0  0  0  0  0
    1.6792    1.5446    0.3017 Cl  0  0  0  0  0  0  0  0  0  0  0  0
    0.2237   -0.7438   -0.8358 H   0  0  0  0  0  0  0  0  0  0  0  0
  1  2  1  0
  2  3  2  0
  2  7  1  0
  3  4  2  0
  4  5  1  0
  4 14  1  0
  5  6  1  0
  6  7  2  0
  8  9  2  0
  9 10  1  0
 10 11  1  0
 10 12  1  0
 10 13  1  0
M  CHG  2   4   1   5  -1
M  RAD  1   9   2
M  END
>  <reaction>  (7) 
kfir_rxn_11797

>  <mol_properties>  (7) 
{"3": {"label": "*1", "atom_type": "N5dc"}, "4": {"label": "*0", "atom_type": "N1sc"}, "7": {"label": "*4", "atom_type": "O2d"}, "8": {"label": "*3", "atom_type": "CO"}, "13": {"label": "*2", "atom_type": "H0"}}

>  <type>  (7) 
unop_3

>  <geom_source>  (7) 
Heuristics

$$$$

     RDKit          3D

 14 13  0  0  0  0  0  0  0  0999 V2000
   -1.8907   -4.0036    1.2259 F   0  0  0  0  0  0  0  0  0  0  0  0
   -0.9429   -3.1082    1.0920 C   0  0  0  0  0  0  0  0  0  0  0  0
   -0.7611   -2.5583   -0.2208 C   0  0  0  0  0  0  0  0  0  0  0  0
    0.2299   -1.6941   -0.1158 N   0  0  0  0  0  4  0  0  0  0  0  0
    0.9734   -1.3418    0.9704 N   0  0  0  0  0  2  0  0  0  0  0  0
    0.7096   -1.9008    2.0623 N   0  0  0  0  0  0  0  0  0  0  0  0
   -0.2827   -2.8261    2.1610 N   0  0  0  0  0  0  0  0  0  0  0  0
    0.2299    0.4074   -2.7271 O   0  0  0  0  0  0  0  0  0  0  0  0
    0.2299    0.4074   -1.5416 C   0  0  0  0  0  3  0  0  0  0  0  0
    0.2299    1.6894   -0.6760 C   0  0  0  0  0  0  0  0  0  0  0  0
   -1.2257    1.5993    0.3399 Cl  0  0  0  0  0  0  0  0  0  0  0  0
    0.2299    3.1437   -1.6469 Cl  0  0  0  0  0  0  0  0  0  0  0  0
    1.6855    1.5993    0.3399 Cl  0  0  0  0  0  0  0  0  0  0  0  0
    0.2299   -0.6892   -0.7976 H   0  0  0  0  0  0  0  0  0  0  0  0
  1  2  1  0
  2  3  2  0
  2  7  1  0
  3  4  2  0
  4  5  1  0
  4 14  1  0
  5  6  1  0
  6  7  2  0
  8  9  2  0
  9 10  1  0
 10 11  1  0
 10 12  1  0
 10 13  1  0
M  CHG  2   4   1   5  -1
M  RAD  1   9   2
M  END
>  <reaction>  (8) 
kfir_rxn_11797

>  <mol_properties>  (8) 
{"3": {"label": "*1", "atom_type": "N5dc"}, "4": {"label": "*0", "atom_type": "N1sc"}, "7": {"label": "*4", "atom_type": "O2d"}, "8": {"label": "*3", "atom_type": "CO"}, "13": {"label": "*2", "atom_type": "H0"}}

>  <type>  (8) 
unop_4

>  <geom_source>  (8) 
Heuristics

$$$$

     RDKit          3D

 14 13  0  0  0  0  0  0  0  0999 V2000
    0.0000   -2.9451    3.0720 F   0  0  0  0  0  0  0  0  0  0  0  0
    0.0000   -2.8000    1.7694 C   0  0  0  0  0  0  0  0  0  0  0  0
    0.0000   -1.4533    1.2742 C   0  0  0  0  0  0  0  0  0  0  0  0
    0.0000   -1.5528   -0.0412 N   0  0  0  0  0  4  0  0  0  0  0  0
   -0.0000   -2.6596   -0.8359 N   0  0  0  0  0  2  0  0  0  0  0  0
   -0.0000   -3.7806   -0.2723 N   0  0  0  0  0  0  0  0  0  0  0  0
   -0.0000   -3.8900    1.0837 N   0  0  0  0  0  0  0  0  0  0  0  0
    0.0000    0.5488   -2.6525 O   0  0  0  0  0  0  0  0  0  0  0  0
    0.0000    0.5488   -1.4670 C   0  0  0  0  0  3  0  0  0  0  0  0
    0.0000    1.8308   -0.6014 C   0  0  0  0  0  0  0  0  0  0  0  0
   -1.4556    1.7406    0.4145 Cl  0  0  0  0  0  0  0  0  0  0  0  0
   -0.0000    3.2850   -1.5723 Cl  0  0  0  0  0  0  0  0  0  0  0  0
    1.4556    1.7406    0.4145 Cl  0  0  0  0  0  0  0  0  0  0  0  0
    0.0000   -0.5478   -0.7230 H   0  0  0  0  0  0  0  0  0  0  0  0
  1  2  1  0
  2  3  2  0
  2  7  1  0
  3  4  2  0
  4  5  1  0
  4 14  1  0
  5  6  1  0
  6  7  2  0
  8  9  2  0
  9 10  1  0
 10 11  1  0
 10 12  1  0
 10 13  1  0
M  CHG  2   4   1   5  -1
M  RAD  1   9   2
M  END
>  <reaction>  (9) 
kfir_rxn_11797

>  <mol_properties>  (9) 
{"3": {"label": "*1", "atom_type": "N5dc"}, "4": {"label": "*0", "atom_type": "N1sc"}, "7": {"label": "*4", "atom_type": "O2d"}, "8": {"label": "*3", "atom_type": "CO"}, "13": {"label": "*2", "atom_type": "H0"}}

>  <type>  (9) 
unop_5

>  <geom_source>  (9) 
Heuristics

$$$$

     RDKit          3D

 14 13  0  0  0  0  0  0  0  0999 V2000
   -1.8887   -3.2751    2.1162 F   0  0  0  0  0  0  0  0  0  0  0  0
   -0.8589   -2.7123    1.5323 C   0  0  0  0  0  0  0  0  0  0  0  0
   -1.0166   -2.3657    0.1489 C   0  0  0  0  0  0  0  0  0  0  0  0
    0.1277   -1.8227   -0.2195 N   0  0  0  0  0  4  0  0  0  0  0  0
    1.2641   -1.6022    0.4992 N   0  0  0  0  0  2  0  0  0  0  0  0
    1.2685   -1.9544    1.7035 N   0  0  0  0  0  0  0  0  0  0  0  0
    0.1790   -2.5359    2.2738 N   0  0  0  0  0  0  0  0  0  0  0  0
    0.1277    0.2788   -2.8308 O   0  0  0  0  0  0  0  0  0  0  0  0
    0.1277    0.2788   -1.6453 C   0  0  0  0  0  3  0  0  0  0  0  0
    0.1277    1.5608   -0.7797 C   0  0  0  0  0  0  0  0  0  0  0  0
   -1.3279    1.4706    0.2362 Cl  0  0  0  0  0  0  0  0  0  0  0  0
    0.1277    3.0150   -1.7507 Cl  0  0  0  0  0  0  0  0  0  0  0  0
    1.5833    1.4706    0.2362 Cl  0  0  0  0  0  0  0  0  0  0  0  0
    0.1277   -0.8178   -0.9013 H   0  0  0  0  0  0  0  0  0  0  0  0
  1  2  1  0
  2  3  2  0
  2  7  1  0
  3  4  2  0
  4  5  1  0
  4 14  1  0
  5  6  1  0
  6  7  2  0
  8  9  2  0
  9 10  1  0
 10 11  1  0
 10 12  1  0
 10 13  1  0
M  CHG  2   4   1   5  -1
M  RAD  1   9   2
M  END
>  <reaction>  (10) 
kfir_rxn_11797

>  <mol_properties>  (10) 
{"3": {"label": "*1", "atom_type": "N5dc"}, "4": {"label": "*0", "atom_type": "N1sc"}, "7": {"label": "*4", "atom_type": "O2d"}, "8": {"label": "*3", "atom_type": "CO"}, "13": {"label": "*2", "atom_type": "H0"}}

>  <type>  (10) 
unop_6

>  <geom_source>  (10) 
Heuristics

$$$$

     RDKit          3D

 14 13  0  0  0  0  0  0  0  0999 V2000
   -1.2518   -2.7362    2.8343 F   0  0  0  0  0  0  0  0  0  0  0  0
   -0.4444   -2.4644    1.8383 C   0  0  0  0  0  0  0  0  0  0  0  0
   -1.0600   -2.0844    0.5992 C   0  0  0  0  0  0  0  0  0  0  0  0
   -0.0690   -1.8627   -0.2427 N   0  0  0  0  0  4  0  0  0  0  0  0
    1.2775   -1.9529   -0.0540 N   0  0  0  0  0  2  0  0  0  0  0  0
    1.6840   -2.2973    1.0820 N   0  0  0  0  0  0  0  0  0  0  0  0
    0.8138   -2.5713    2.0911 N   0  0  0  0  0  0  0  0  0  0  0  0
   -0.0690    0.2389   -2.8540 O   0  0  0  0  0  0  0  0  0  0  0  0
   -0.0690    0.2389   -1.6686 C   0  0  0  0  0  3  0  0  0  0  0  0
   -0.0690    1.5209   -0.8029 C   0  0  0  0  0  0  0  0  0  0  0  0
   -1.5246    1.4307    0.2130 Cl  0  0  0  0  0  0  0  0  0  0  0  0
   -0.0690    2.9751   -1.7739 Cl  0  0  0  0  0  0  0  0  0  0  0  0
    1.3866    1.4307    0.2130 Cl  0  0  0  0  0  0  0  0  0  0  0  0
   -0.0690   -0.8577   -0.9245 H   0  0  0  0  0  0  0  0  0  0  0  0
  1  2  1  0
  2  3  2  0
  2  7  1  0
  3  4  2  0
  4  5  1  0
  4 14  1  0
  5  6  1  0
  6  7  2  0
  8  9  2  0
  9 10  1  0
 10 11  1  0
 10 12  1  0
 10 13  1  0
M  CHG  2   4   1   5  -1
M  RAD  1   9   2
M  END
>  <reaction>  (11) 
kfir_rxn_11797

>  <mol_properties>  (11) 
{"3": {"label": "*1", "atom_type": "N5dc"}, "4": {"label": "*0", "atom_type": "N1sc"}, "7": {"label": "*4", "atom_type": "O2d"}, "8": {"label": "*3", "atom_type": "CO"}, "13": {"label": "*2", "atom_type": "H0"}}

>  <type>  (11) 
unop_7

>  <geom_source>  (11) 
Heuristics

$$$$

     RDKit          3D

 14 13  0  0  0  0  0  0  0  0999 V2000
    1.8887   -3.2751    2.1162 F   0  0  0  0  0  0  0  0  0  0  0  0
    0.8589   -2.7123    1.5323 C   0  0  0  0  0  0  0  0  0  0  0  0
    1.0166   -2.3657    0.1489 C   0  0  0  0  0  0  0  0  0  0  0  0
   -0.1277   -1.8227   -0.2195 N   0  0  0  0  0  4  0  0  0  0  0  0
   -1.2641   -1.6022    0.4992 N   0  0  0  0  0  2  0  0  0  0  0  0
   -1.2685   -1.9544    1.7035 N   0  0  0  0  0  0  0  0  0  0  0  0
   -0.1790   -2.5359    2.2738 N   0  0  0  0  0  0  0  0  0  0  0  0
   -0.1277    0.2788   -2.8308 O   0  0  0  0  0  0  0  0  0  0  0  0
   -0.1277    0.2788   -1.6453 C   0  0  0  0  0  3  0  0  0  0  0  0
   -0.1277    1.5608   -0.7797 C   0  0  0  0  0  0  0  0  0  0  0  0
   -1.5833    1.4706    0.2362 Cl  0  0  0  0  0  0  0  0  0  0  0  0
   -0.1277    3.0150   -1.7507 Cl  0  0  0  0  0  0  0  0  0  0  0  0
    1.3279    1.4706    0.2362 Cl  0  0  0  0  0  0  0  0  0  0  0  0
   -0.1277   -0.8178   -0.9013 H   0  0  0  0  0  0  0  0  0  0  0  0
  1  2  1  0
  2  3  2  0
  2  7  1  0
  3  4  2  0
  4  5  1  0
  4 14  1  0
  5  6  1  0
  6  7  2  0
  8  9  2  0
  9 10  1  0
 10 11  1  0
 10 12  1  0
 10 13  1  0
M  CHG  2   4   1   5  -1
M  RAD  1   9   2
M  END
>  <reaction>  (12) 
kfir_rxn_11797

>  <mol_properties>  (12) 
{"3": {"label": "*1", "atom_type": "N5dc"}, "4": {"label": "*0", "atom_type": "N1sc"}, "7": {"label": "*4", "atom_type": "O2d"}, "8": {"label": "*3", "atom_type": "CO"}, "13": {"label": "*2", "atom_type": "H0"}}

>  <type>  (12) 
unop_8

>  <geom_source>  (12) 
Heuristics

$$$$

     RDKit          3D

 14 13  0  0  0  0  0  0  0  0999 V2000
   -1.1889   -4.6388    0.4862 F   0  0  0  0  0  0  0  0  0  0  0  0
   -0.6203   -3.4775    0.7010 C   0  0  0  0  0  0  0  0  0  0  0  0
   -0.3939   -2.6517   -0.4504 C   0  0  0  0  0  0  0  0  0  0  0  0
    0.1782   -1.5523    0.0013 N   0  0  0  0  0  4  0  0  0  0  0  0
    0.5156   -1.1996    1.2735 N   0  0  0  0  0  2  0  0  0  0  0  0
    0.2612   -2.0170    2.1908 N   0  0  0  0  0  0  0  0  0  0  0  0
   -0.3303   -3.2134    1.9275 N   0  0  0  0  0  0  0  0  0  0  0  0
    0.1782    0.5493   -2.6100 O   0  0  0  0  0  0  0  0  0  0  0  0
    0.1782    0.5493   -1.4245 C   0  0  0  0  0  3  0  0  0  0  0  0
    0.1782    1.8312   -0.5589 C   0  0  0  0  0  0  0  0  0  0  0  0
   -1.2773    1.7411    0.4570 Cl  0  0  0  0  0  0  0  0  0  0  0  0
    0.1782    3.2855   -1.5298 Cl  0  0  0  0  0  0  0  0  0  0  0  0
    1.6338    1.7411    0.4570 Cl  0  0  0  0  0  0  0  0  0  0  0  0
    0.1782   -0.5474   -0.6805 H   0  0  0  0  0  0  0  0  0  0  0  0
  1  2  1  0
  2  3  2  0
  2  7  1  0
  3  4  2  0
  4  5  1  0
  4 14  1  0
  5  6  1  0
  6  7  2  0
  8  9  2  0
  9 10  1  0
 10 11  1  0
 10 12  1  0
 10 13  1  0
M  CHG  2   4   1   5  -1
M  RAD  1   9   2
M  END
>  <reaction>  (13) 
kfir_rxn_11797

>  <mol_properties>  (13) 
{"3": {"label": "*1", "atom_type": "N5dc"}, "4": {"label": "*0", "atom_type": "N1sc"}, "7": {"label": "*4", "atom_type": "O2d"}, "8": {"label": "*3", "atom_type": "CO"}, "13": {"label": "*2", "atom_type": "H0"}}

>  <type>  (13) 
unop_9

>  <geom_source>  (13) 
Heuristics

$$$$

     RDKit          3D

 14 13  0  0  0  0  0  0  0  0999 V2000
    1.8906   -4.0036    1.2259 F   0  0  0  0  0  0  0  0  0  0  0  0
    0.9429   -3.1082    1.0920 C   0  0  0  0  0  0  0  0  0  0  0  0
    0.7611   -2.5583   -0.2208 C   0  0  0  0  0  0  0  0  0  0  0  0
   -0.2299   -1.6941   -0.1158 N   0  0  0  0  0  4  0  0  0  0  0  0
   -0.9734   -1.3418    0.9704 N   0  0  0  0  0  2  0  0  0  0  0  0
   -0.7096   -1.9008    2.0623 N   0  0  0  0  0  0  0  0  0  0  0  0
    0.2827   -2.8261    2.1610 N   0  0  0  0  0  0  0  0  0  0  0  0
   -0.2299    0.4074   -2.7271 O   0  0  0  0  0  0  0  0  0  0  0  0
   -0.2299    0.4074   -1.5416 C   0  0  0  0  0  3  0  0  0  0  0  0
   -0.2299    1.6894   -0.6760 C   0  0  0  0  0  0  0  0  0  0  0  0
   -1.6854    1.5993    0.3399 Cl  0  0  0  0  0  0  0  0  0  0  0  0
   -0.2299    3.1437   -1.6469 Cl  0  0  0  0  0  0  0  0  0  0  0  0
    1.2257    1.5993    0.3399 Cl  0  0  0  0  0  0  0  0  0  0  0  0
   -0.2299   -0.6892   -0.7976 H   0  0  0  0  0  0  0  0  0  0  0  0
  1  2  1  0
  2  3  2  0
  2  7  1  0
  3  4  2  0
  4  5  1  0
  4 14  1  0
  5  6  1  0
  6  7  2  0
  8  9  2  0
  9 10  1  0
 10 11  1  0
 10 12  1  0
 10 13  1  0
M  CHG  2   4   1   5  -1
M  RAD  1   9   2
M  END
>  <reaction>  (14) 
kfir_rxn_11797

>  <mol_properties>  (14) 
{"3": {"label": "*1", "atom_type": "N5dc"}, "4": {"label": "*0", "atom_type": "N1sc"}, "7": {"label": "*4", "atom_type": "O2d"}, "8": {"label": "*3", "atom_type": "CO"}, "13": {"label": "*2", "atom_type": "H0"}}

>  <type>  (14) 
unop_10

>  <geom_source>  (14) 
Heuristics

$$$$

     RDKit          3D

 14 13  0  0  0  0  0  0  0  0999 V2000
   -0.3298   -2.6477    3.1341 F   0  0  0  0  0  0  0  0  0  0  0  0
    0.0501   -2.5217    1.8859 C   0  0  0  0  0  0  0  0  0  0  0  0
   -0.7958   -1.7353    1.0345 C   0  0  0  0  0  0  0  0  0  0  0  0
   -0.2237   -1.7487   -0.1540 N   0  0  0  0  0  4  0  0  0  0  0  0
    0.9246   -2.3553   -0.5665 N   0  0  0  0  0  2  0  0  0  0  0  0
    1.5717   -3.0149    0.2824 N   0  0  0  0  0  0  0  0  0  0  0  0
    1.1444   -3.1222    1.5694 N   0  0  0  0  0  0  0  0  0  0  0  0
   -0.2237    0.3528   -2.7653 O   0  0  0  0  0  0  0  0  0  0  0  0
   -0.2237    0.3528   -1.5798 C   0  0  0  0  0  3  0  0  0  0  0  0
   -0.2237    1.6348   -0.7142 C   0  0  0  0  0  0  0  0  0  0  0  0
   -1.6792    1.5446    0.3017 Cl  0  0  0  0  0  0  0  0  0  0  0  0
   -0.2237    3.0890   -1.6851 Cl  0  0  0  0  0  0  0  0  0  0  0  0
    1.2319    1.5446    0.3017 Cl  0  0  0  0  0  0  0  0  0  0  0  0
   -0.2237   -0.7438   -0.8358 H   0  0  0  0  0  0  0  0  0  0  0  0
  1  2  1  0
  2  3  2  0
  2  7  1  0
  3  4  2  0
  4  5  1  0
  4 14  1  0
  5  6  1  0
  6  7  2  0
  8  9  2  0
  9 10  1  0
 10 11  1  0
 10 12  1  0
 10 13  1  0
M  CHG  2   4   1   5  -1
M  RAD  1   9   2
M  END
>  <reaction>  (15) 
kfir_rxn_11797

>  <mol_properties>  (15) 
{"3": {"label": "*1", "atom_type": "N5dc"}, "4": {"label": "*0", "atom_type": "N1sc"}, "7": {"label": "*4", "atom_type": "O2d"}, "8": {"label": "*3", "atom_type": "CO"}, "13": {"label": "*2", "atom_type": "H0"}}

>  <type>  (15) 
unop_11

>  <geom_source>  (15) 
Heuristics

$$$$

     RDKit          3D

 14 13  0  0  0  0  0  0  0  0999 V2000
   -0.0000   -4.8961    0.1963 F   0  0  0  0  0  0  0  0  0  0  0  0
   -0.0000   -3.6321    0.5429 C   0  0  0  0  0  0  0  0  0  0  0  0
    0.0000   -2.6742   -0.5254 C   0  0  0  0  0  0  0  0  0  0  0  0
    0.0000   -1.4888    0.0531 N   0  0  0  0  0  4  0  0  0  0  0  0
    0.0000   -1.1594    1.3753 N   0  0  0  0  0  2  0  0  0  0  0  0
    0.0000   -2.0974    2.2087 N   0  0  0  0  0  0  0  0  0  0  0  0
    0.0000   -3.3978    1.8092 N   0  0  0  0  0  0  0  0  0  0  0  0
    0.0000    0.6128   -2.5582 O   0  0  0  0  0  0  0  0  0  0  0  0
    0.0000    0.6128   -1.3727 C   0  0  0  0  0  3  0  0  0  0  0  0
    0.0000    1.8947   -0.5071 C   0  0  0  0  0  0  0  0  0  0  0  0
   -1.4556    1.8046    0.5088 Cl  0  0  0  0  0  0  0  0  0  0  0  0
   -0.0000    3.3490   -1.4780 Cl  0  0  0  0  0  0  0  0  0  0  0  0
    1.4556    1.8046    0.5088 Cl  0  0  0  0  0  0  0  0  0  0  0  0
    0.0000   -0.4838   -0.6287 H   0  0  0  0  0  0  0  0  0  0  0  0
  1  2  1  0
  2  3  2  0
  2  7  1  0
  3  4  2  0
  4  5  1  0
  4 14  1  0
  5  6  1  0
  6  7  2  0
  8  9  2  0
  9 10  1  0
 10 11  1  0
 10 12  1  0
 10 13  1  0
M  CHG  2   4   1   5  -1
M  RAD  1   9   2
M  END
>  <reaction>  (16) 
kfir_rxn_11797

>  <mol_properties>  (16) 
{"3": {"label": "*1", "atom_type": "N5dc"}, "4": {"label": "*0", "atom_type": "N1sc"}, "7": {"label": "*4", "atom_type": "O2d"}, "8": {"label": "*3", "atom_type": "CO"}, "13": {"label": "*2", "atom_type": "H0"}}

>  <type>  (16) 
unop_12

>  <geom_source>  (16) 
Heuristics

$$$$
