
     RDKit          3D

  7  6  0  0  0  0  0  0  0  0999 V2000
   -0.6468   -0.0443   -0.0231 C   0  0  0  0  0  0  0  0  0  0  0  0
    0.8470    0.0371    0.0688 C   0  0  0  0  0  0  0  0  0  0  0  0
    1.4866   -0.2280    1.0479 O   0  0  0  0  0  0  0  0  0  0  0  0
   -1.0466    0.9363   -0.2943 H   0  0  0  0  0  0  0  0  0  0  0  0
   -0.9229   -0.7318   -0.8269 H   0  0  0  0  0  0  0  0  0  0  0  0
   -1.0759   -0.3772    0.9198 H   0  0  0  0  0  0  0  0  0  0  0  0
    1.3584    0.3712   -0.8589 H   0  0  0  0  0  0  0  0  0  0  0  0
  1  2  1  0
  1  4  1  0
  1  5  1  0
  1  6  1  0
  2  3  2  0
  2  7  1  0
M  END
>  <reaction>  (1) 
kfir_rxn_9885

>  <mol_properties>  (1) 
{"1": {"label": "donator", "atom_type": "CO"}, "6": {"label": "d_hydrogen", "atom_type": "H0"}}

>  <type>  (1) 
r1h

$$$$

     RDKit          3D

  6  6  0  0  0  0  0  0  0  0999 V2000
    0.8244   -0.2363   -0.2765 C   0  0  0  0  0  3  0  0  0  0  0  0
   -0.5734    0.0492   -0.0604 C   0  0  0  0  0  0  0  0  0  0  0  0
    0.2695   -0.6651    0.8832 O   0  0  0  0  0  0  0  0  0  0  0  0
    1.7087    0.3935   -0.2928 H   0  0  0  0  0  0  0  0  0  0  0  0
   -0.9043    1.0205    0.2951 H   0  0  0  0  0  0  0  0  0  0  0  0
   -1.3249   -0.5618   -0.5486 H   0  0  0  0  0  0  0  0  0  0  0  0
  1  2  1  0
  1  3  1  0
  1  4  1  0
  2  3  1  0
  2  5  1  0
  2  6  1  0
M  RAD  1   1   2
M  END
>  <reaction>  (2) 
kfir_rxn_9885

>  <mol_properties>  (2) 
{"0": {"label": "acceptor", "atom_type": "Cs"}}

>  <type>  (2) 
r2

$$$$

     RDKit          3D

  7  7  0  0  0  0  0  0  0  0999 V2000
   -0.7268   -0.0467    0.0634 C   0  0  0  0  0  0  0  0  0  0  0  0
    0.7235    0.1046    0.0109 C   0  0  0  0  0  0  0  0  0  0  0  0
    0.0414   -0.7158   -0.9186 O   0  0  0  0  0  0  0  0  0  0  0  0
   -1.3615    0.7523   -0.3079 H   0  0  0  0  0  0  0  0  0  0  0  0
   -1.1708   -0.6854    0.8209 H   0  0  0  0  0  0  0  0  0  0  0  0
    1.1518    1.0144   -0.3988 H   0  0  0  0  0  0  0  0  0  0  0  0
    1.3425   -0.4233    0.7300 H   0  0  0  0  0  0  0  0  0  0  0  0
  1  2  1  0
  1  3  1  0
  1  4  1  0
  1  5  1  0
  2  3  1  0
  2  6  1  0
  2  7  1  0
M  END
>  <reaction>  (3) 
kfir_rxn_9885

>  <mol_properties>  (3) 
{"0": {"label": "acceptor", "atom_type": "Cs"}, "6": {"label": "a_hydrogen", "atom_type": "H0"}}

>  <type>  (3) 
r2h

$$$$

     RDKit          3D

 13 12  0  0  0  0  0  0  0  0999 V2000
   -0.1460   -1.1714    0.7001 C   0  0  0  0  0  3  0  0  0  0  0  0
    0.7465   -2.2097    0.2241 C   0  0  0  0  0  0  0  0  0  0  0  0
   -0.5291   -1.9513   -0.3809 O   0  0  0  0  0  0  0  0  0  0  0  0
   -0.7417   -1.2142    1.6096 H   0  0  0  0  0  0  0  0  0  0  0  0
    1.6055   -1.9349   -0.3812 H   0  0  0  0  0  0  0  0  0  0  0  0
    0.8172   -3.1615    0.7410 H   0  0  0  0  0  0  0  0  0  0  0  0
   -0.2488    1.4924   -1.5893 C   0  0  0  0  0  0  0  0  0  0  0  0
    0.5704    1.2554   -0.3551 C   0  0  0  0  0  0  0  0  0  0  0  0
    1.4601    1.9305    0.0524 O   0  0  0  0  0  0  0  0  0  0  0  0
   -0.1970    0.6034   -2.2210 H   0  0  0  0  0  0  0  0  0  0  0  0
   -1.2947    1.6065   -1.2953 H   0  0  0  0  0  0  0  0  0  0  0  0
    0.0931    2.3746   -2.1290 H   0  0  0  0  0  0  0  0  0  0  0  0
    0.2307    0.1838    0.2534 H   0  0  0  0  0  0  0  0  0  0  0  0
  1  2  1  0
  1  3  1  0
  1  4  1  0
  2  3  1  0
  2  5  1  0
  2  6  1  0
  7  8  1  0
  7 10  1  0
  7 11  1  0
  7 12  1  0
  8  9  2  0
  8 13  1  0
M  RAD  1   1   2
M  END
>  <reaction>  (4) 
kfir_rxn_9885

>  <mol_properties>  (4) 
{"0": {"label": "*3", "atom_type": "Cs"}, "2": {"label": "*4", "atom_type": "O2s"}, "7": {"label": "*1", "atom_type": "CO"}, "8": {"label": "*0", "atom_type": "O2d"}, "12": {"label": "*2", "atom_type": "H0"}}

>  <type>  (4) 
ts

$$$$

     RDKit          3D

 13 12  0  0  0  0  0  0  0  0999 V2000
   -0.2556   -1.0694    0.5340 C   0  0  0  0  0  0  0  0  0  0  0  0
    0.8442   -1.4510    1.4137 C   0  0  0  0  0  0  0  0  0  0  0  0
    0.1799   -2.4131    0.6167 O   0  0  0  0  0  0  0  0  0  0  0  0
   -1.2355   -0.8715    0.9579 H   0  0  0  0  0  0  0  0  0  0  0  0
    1.8657   -1.2292    1.1197 H   0  0  0  0  0  0  0  0  0  0  0  0
    0.6704   -1.5328    2.4824 H   0  0  0  0  0  0  0  0  0  0  0  0
   -0.2556    1.3179   -2.0823 C   0  0  0  0  0  0  0  0  0  0  0  0
   -0.2556    1.3179   -0.5835 C   0  0  0  0  0  3  0  0  0  0  0  0
   -0.2556    2.3035    0.0996 O   0  0  0  0  0  0  0  0  0  0  0  0
    0.6221    0.7760   -2.4441 H   0  0  0  0  0  0  0  0  0  0  0  0
   -1.1333    0.7759   -2.4441 H   0  0  0  0  0  0  0  0  0  0  0  0
   -0.2556    2.3345   -2.4702 H   0  0  0  0  0  0  0  0  0  0  0  0
   -0.2556    0.1108   -0.0184 H   0  0  0  0  0  0  0  0  0  0  0  0
  1  2  1  0
  1  3  1  0
  1  4  1  0
  1 13  1  0
  2  3  1  0
  2  5  1  0
  2  6  1  0
  7  8  1  0
  7 10  1  0
  7 11  1  0
  7 12  1  0
  8  9  2  0
M  RAD  1   8   2
M  END
>  <reaction>  (5) 
kfir_rxn_9885

>  <mol_properties>  (5) 
{"0": {"label": "*3", "atom_type": "Cs"}, "2": {"label": "*4", "atom_type": "O2s"}, "7": {"label": "*1", "atom_type": "CO"}, "8": {"label": "*0", "atom_type": "O2d"}, "12": {"label": "*2", "atom_type": "H0"}}

>  <type>  (5) 
unop_1

>  <geom_source>  (5) 
Heuristics

$$$$

     RDKit          3D

 13 12  0  0  0  0  0  0  0  0999 V2000
    0.0209   -0.9754    0.8721 C   0  0  0  0  0  0  0  0  0  0  0  0
    0.6559   -2.0925    0.1806 C   0  0  0  0  0  0  0  0  0  0  0  0
   -0.7140   -2.1358    0.5323 O   0  0  0  0  0  0  0  0  0  0  0  0
    0.1994   -0.8325    1.9336 H   0  0  0  0  0  0  0  0  0  0  0  0
    0.8604   -2.0163   -0.8830 H   0  0  0  0  0  0  0  0  0  0  0  0
    1.2997   -2.7683    0.7354 H   0  0  0  0  0  0  0  0  0  0  0  0
    0.0209    1.4118   -1.7442 C   0  0  0  0  0  0  0  0  0  0  0  0
    0.0209    1.4118   -0.2454 C   0  0  0  0  0  3  0  0  0  0  0  0
    0.0209    2.3975    0.4377 O   0  0  0  0  0  0  0  0  0  0  0  0
    0.8986    0.8699   -2.1061 H   0  0  0  0  0  0  0  0  0  0  0  0
   -0.8568    0.8699   -2.1061 H   0  0  0  0  0  0  0  0  0  0  0  0
    0.0209    2.4284   -2.1321 H   0  0  0  0  0  0  0  0  0  0  0  0
    0.0209    0.2047    0.3197 H   0  0  0  0  0  0  0  0  0  0  0  0
  1  2  1  0
  1  3  1  0
  1  4  1  0
  1 13  1  0
  2  3  1  0
  2  5  1  0
  2  6  1  0
  7  8  1  0
  7 10  1  0
  7 11  1  0
  7 12  1  0
  8  9  2  0
M  RAD  1   8   2
M  END
>  <reaction>  (6) 
kfir_rxn_9885

>  <mol_properties>  (6) 
{"0": {"label": "*3", "atom_type": "Cs"}, "2": {"label": "*4", "atom_type": "O2s"}, "7": {"label": "*1", "atom_type": "CO"}, "8": {"label": "*0", "atom_type": "O2d"}, "12": {"label": "*2", "atom_type": "H0"}}

>  <type>  (6) 
unop_2

>  <geom_source>  (6) 
Heuristics

$$$$

     RDKit          3D

 13 12  0  0  0  0  0  0  0  0999 V2000
   -0.2376   -1.1345    0.4338 C   0  0  0  0  0  0  0  0  0  0  0  0
    0.3973   -1.3190    1.7344 C   0  0  0  0  0  0  0  0  0  0  0  0
    0.5477   -2.2795    0.7063 O   0  0  0  0  0  0  0  0  0  0  0  0
   -1.3030   -1.3160    0.3282 H   0  0  0  0  0  0  0  0  0  0  0  0
    1.2924   -0.7544    1.9775 H   0  0  0  0  0  0  0  0  0  0  0  0
   -0.2026   -1.6358    2.5822 H   0  0  0  0  0  0  0  0  0  0  0  0
   -0.2376    1.2528   -2.1825 C   0  0  0  0  0  0  0  0  0  0  0  0
   -0.2376    1.2528   -0.6837 C   0  0  0  0  0  3  0  0  0  0  0  0
   -0.2376    2.2384   -0.0006 O   0  0  0  0  0  0  0  0  0  0  0  0
    0.6401    0.7109   -2.5443 H   0  0  0  0  0  0  0  0  0  0  0  0
   -1.1153    0.7108   -2.5443 H   0  0  0  0  0  0  0  0  0  0  0  0
   -0.2377    2.2694   -2.5704 H   0  0  0  0  0  0  0  0  0  0  0  0
   -0.2376    0.0457   -0.1186 H   0  0  0  0  0  0  0  0  0  0  0  0
  1  2  1  0
  1  3  1  0
  1  4  1  0
  1 13  1  0
  2  3  1  0
  2  5  1  0
  2  6  1  0
  7  8  1  0
  7 10  1  0
  7 11  1  0
  7 12  1  0
  8  9  2  0
M  RAD  1   8   2
M  END
>  <reaction>  (7) 
kfir_rxn_9885

>  <mol_properties>  (7) 
{"0": {"label": "*3", "atom_type": "Cs"}, "2": {"label": "*4", "atom_type": "O2s"}, "7": {"label": "*1", "atom_type": "CO"}, "8": {"label": "*0", "atom_type": "O2d"}, "12": {"label": "*2", "atom_type": "H0"}}

>  <type>  (7) 
unop_3

>  <geom_source>  (7) 
Heuristics

$$$$

     RDKit          3D

 13 12  0  0  0  0  0  0  0  0999 V2000
    0.4114   -1.2534    0.6463 C   0  0  0  0  0  0  0  0  0  0  0  0
   -0.6884   -2.1734    0.3759 C   0  0  0  0  0  0  0  0  0  0  0  0
   -0.8780   -1.0270    1.1834 O   0  0  0  0  0  0  0  0  0  0  0  0
    1.1739   -1.5291    1.3686 H   0  0  0  0  0  0  0  0  0  0  0  0
   -1.1817   -2.1475   -0.5911 H   0  0  0  0  0  0  0  0  0  0  0  0
   -0.7320   -3.1234    0.8999 H   0  0  0  0  0  0  0  0  0  0  0  0
    0.4114    1.1339   -1.9699 C   0  0  0  0  0  0  0  0  0  0  0  0
    0.4114    1.1339   -0.4711 C   0  0  0  0  0  3  0  0  0  0  0  0
    0.4114    2.1195    0.2119 O   0  0  0  0  0  0  0  0  0  0  0  0
    1.2891    0.5919   -2.3318 H   0  0  0  0  0  0  0  0  0  0  0  0
   -0.4663    0.5919   -2.3318 H   0  0  0  0  0  0  0  0  0  0  0  0
    0.4114    2.1504   -2.3579 H   0  0  0  0  0  0  0  0  0  0  0  0
    0.4114   -0.0733    0.0939 H   0  0  0  0  0  0  0  0  0  0  0  0
  1  2  1  0
  1  3  1  0
  1  4  1  0
  1 13  1  0
  2  3  1  0
  2  5  1  0
  2  6  1  0
  7  8  1  0
  7 10  1  0
  7 11  1  0
  7 12  1  0
  8  9  2  0
M  RAD  1   8   2
M  END
>  <reaction>  (8) 
kfir_rxn_9885

>  <mol_properties>  (8) 
{"0": {"label": "*3", "atom_type": "Cs"}, "2": {"label": "*4", "atom_type": "O2s"}, "7": {"label": "*1", "atom_type": "CO"}, "8": {"label": "*0", "atom_type": "O2d"}, "12": {"label": "*2", "atom_type": "H0"}}

>  <type>  (8) 
unop_4

>  <geom_source>  (8) 
Heuristics

$$$$

     RDKit          3D

 13 12  0  0  0  0  0  0  0  0999 V2000
   -0.2067   -1.2845    0.3353 C   0  0  0  0  0  0  0  0  0  0  0  0
   -0.2067   -1.3970    1.7900 C   0  0  0  0  0  0  0  0  0  0  0  0
    0.9722   -1.6229    1.0409 O   0  0  0  0  0  0  0  0  0  0  0  0
   -0.6358   -2.0828   -0.2627 H   0  0  0  0  0  0  0  0  0  0  0  0
   -0.2067   -0.4959    2.3960 H   0  0  0  0  0  0  0  0  0  0  0  0
   -0.6358   -2.2777    2.2583 H   0  0  0  0  0  0  0  0  0  0  0  0
   -0.2067    1.1028   -2.2810 C   0  0  0  0  0  0  0  0  0  0  0  0
   -0.2067    1.1028   -0.7822 C   0  0  0  0  0  3  0  0  0  0  0  0
   -0.2067    2.0884   -0.0991 O   0  0  0  0  0  0  0  0  0  0  0  0
    0.6710    0.5608   -2.6428 H   0  0  0  0  0  0  0  0  0  0  0  0
   -1.0844    0.5608   -2.6428 H   0  0  0  0  0  0  0  0  0  0  0  0
   -0.2067    2.1193   -2.6689 H   0  0  0  0  0  0  0  0  0  0  0  0
   -0.2067   -0.1044   -0.2171 H   0  0  0  0  0  0  0  0  0  0  0  0
  1  2  1  0
  1  3  1  0
  1  4  1  0
  1 13  1  0
  2  3  1  0
  2  5  1  0
  2  6  1  0
  7  8  1  0
  7 10  1  0
  7 11  1  0
  7 12  1  0
  8  9  2  0
M  RAD  1   8   2
M  END
>  <reaction>  (9) 
kfir_rxn_9885

>  <mol_properties>  (9) 
{"0": {"label": "*3", "atom_type": "Cs"}, "2": {"label": "*4", "atom_type": "O2s"}, "7": {"label": "*1", "atom_type": "CO"}, "8": {"label": "*0", "atom_type": "O2d"}, "12": {"label": "*2", "atom_type": "H0"}}

>  <type>  (9) 
unop_5

>  <geom_source>  (9) 
Heuristics

$$$$

     RDKit          3D

 13 12  0  0  0  0  0  0  0  0999 V2000
    0.3715   -1.3611    0.4834 C   0  0  0  0  0  0  0  0  0  0  0  0
   -0.8984   -2.0119    0.7880 C   0  0  0  0  0  0  0  0  0  0  0  0
   -0.5429   -0.7851    1.3967 O   0  0  0  0  0  0  0  0  0  0  0  0
    1.2877   -1.7445    0.9223 H   0  0  0  0  0  0  0  0  0  0  0  0
   -1.7129   -1.9567    0.0720 H   0  0  0  0  0  0  0  0  0  0  0  0
   -0.9130   -2.8723    1.4503 H   0  0  0  0  0  0  0  0  0  0  0  0
    0.3715    1.0262   -2.1329 C   0  0  0  0  0  0  0  0  0  0  0  0
    0.3715    1.0262   -0.6341 C   0  0  0  0  0  3  0  0  0  0  0  0
    0.3715    2.0118    0.0489 O   0  0  0  0  0  0  0  0  0  0  0  0
    1.2492    0.4842   -2.4948 H   0  0  0  0  0  0  0  0  0  0  0  0
   -0.5062    0.4842   -2.4948 H   0  0  0  0  0  0  0  0  0  0  0  0
    0.3715    2.0427   -2.5208 H   0  0  0  0  0  0  0  0  0  0  0  0
    0.3715   -0.1810   -0.0690 H   0  0  0  0  0  0  0  0  0  0  0  0
  1  2  1  0
  1  3  1  0
  1  4  1  0
  1 13  1  0
  2  3  1  0
  2  5  1  0
  2  6  1  0
  7  8  1  0
  7 10  1  0
  7 11  1  0
  7 12  1  0
  8  9  2  0
M  RAD  1   8   2
M  END
>  <reaction>  (10) 
kfir_rxn_9885

>  <mol_properties>  (10) 
{"0": {"label": "*3", "atom_type": "Cs"}, "2": {"label": "*4", "atom_type": "O2s"}, "7": {"label": "*1", "atom_type": "CO"}, "8": {"label": "*0", "atom_type": "O2d"}, "12": {"label": "*2", "atom_type": "H0"}}

>  <type>  (10) 
unop_6

>  <geom_source>  (10) 
Heuristics

$$$$

     RDKit          3D

 13 12  0  0  0  0  0  0  0  0999 V2000
    0.2307   -1.4357    0.3440 C   0  0  0  0  0  0  0  0  0  0  0  0
   -0.8690   -1.8173    1.2237 C   0  0  0  0  0  0  0  0  0  0  0  0
   -0.0630   -0.6901    1.5102 O   0  0  0  0  0  0  0  0  0  0  0  0
    1.1590   -1.9982    0.3736 H   0  0  0  0  0  0  0  0  0  0  0  0
   -1.8905   -1.5955    0.9298 H   0  0  0  0  0  0  0  0  0  0  0  0
   -0.7468   -2.6595    1.8980 H   0  0  0  0  0  0  0  0  0  0  0  0
    0.2307    0.9516   -2.2722 C   0  0  0  0  0  0  0  0  0  0  0  0
    0.2307    0.9516   -0.7734 C   0  0  0  0  0  3  0  0  0  0  0  0
    0.2307    1.9372   -0.0904 O   0  0  0  0  0  0  0  0  0  0  0  0
    1.1084    0.4097   -2.6341 H   0  0  0  0  0  0  0  0  0  0  0  0
   -0.6470    0.4096   -2.6341 H   0  0  0  0  0  0  0  0  0  0  0  0
    0.2307    1.9682   -2.6602 H   0  0  0  0  0  0  0  0  0  0  0  0
    0.2307   -0.2555   -0.2084 H   0  0  0  0  0  0  0  0  0  0  0  0
  1  2  1  0
  1  3  1  0
  1  4  1  0
  1 13  1  0
  2  3  1  0
  2  5  1  0
  2  6  1  0
  7  8  1  0
  7 10  1  0
  7 11  1  0
  7 12  1  0
  8  9  2  0
M  RAD  1   8   2
M  END
>  <reaction>  (11) 
kfir_rxn_9885

>  <mol_properties>  (11) 
{"0": {"label": "*3", "atom_type": "Cs"}, "2": {"label": "*4", "atom_type": "O2s"}, "7": {"label": "*1", "atom_type": "CO"}, "8": {"label": "*0", "atom_type": "O2d"}, "12": {"label": "*2", "atom_type": "H0"}}

>  <type>  (11) 
unop_7

>  <geom_source>  (11) 
Heuristics

$$$$

     RDKit          3D

 13 12  0  0  0  0  0  0  0  0999 V2000
   -0.2368   -1.0142    0.6633 C   0  0  0  0  0  0  0  0  0  0  0  0
    1.0330   -1.6650    0.9679 C   0  0  0  0  0  0  0  0  0  0  0  0
   -0.0904   -2.4170    0.5503 O   0  0  0  0  0  0  0  0  0  0  0  0
   -0.8735   -0.6773    1.4758 H   0  0  0  0  0  0  0  0  0  0  0  0
    1.8475   -1.6097    0.2519 H   0  0  0  0  0  0  0  0  0  0  0  0
    1.3272   -1.8051    2.0037 H   0  0  0  0  0  0  0  0  0  0  0  0
   -0.2368    1.3731   -1.9530 C   0  0  0  0  0  0  0  0  0  0  0  0
   -0.2368    1.3731   -0.4542 C   0  0  0  0  0  3  0  0  0  0  0  0
   -0.2368    2.3587    0.2289 O   0  0  0  0  0  0  0  0  0  0  0  0
    0.6409    0.8312   -2.3148 H   0  0  0  0  0  0  0  0  0  0  0  0
   -1.1145    0.8311   -2.3148 H   0  0  0  0  0  0  0  0  0  0  0  0
   -0.2369    2.3897   -2.3409 H   0  0  0  0  0  0  0  0  0  0  0  0
   -0.2368    0.1659    0.1109 H   0  0  0  0  0  0  0  0  0  0  0  0
  1  2  1  0
  1  3  1  0
  1  4  1  0
  1 13  1  0
  2  3  1  0
  2  5  1  0
  2  6  1  0
  7  8  1  0
  7 10  1  0
  7 11  1  0
  7 12  1  0
  8  9  2  0
M  RAD  1   8   2
M  END
>  <reaction>  (12) 
kfir_rxn_9885

>  <mol_properties>  (12) 
{"0": {"label": "*3", "atom_type": "Cs"}, "2": {"label": "*4", "atom_type": "O2s"}, "7": {"label": "*1", "atom_type": "CO"}, "8": {"label": "*0", "atom_type": "O2d"}, "12": {"label": "*2", "atom_type": "H0"}}

>  <type>  (12) 
unop_8

>  <geom_source>  (12) 
Heuristics

$$$$

     RDKit          3D

 13 12  0  0  0  0  0  0  0  0999 V2000
    0.3511   -1.1355    0.7890 C   0  0  0  0  0  0  0  0  0  0  0  0
   -0.2839   -2.2525    0.0976 C   0  0  0  0  0  0  0  0  0  0  0  0
   -1.0357   -1.3830    0.9228 O   0  0  0  0  0  0  0  0  0  0  0  0
    0.9448   -1.3249    1.6782 H   0  0  0  0  0  0  0  0  0  0  0  0
   -0.4885   -2.1763   -0.9660 H   0  0  0  0  0  0  0  0  0  0  0  0
   -0.1555   -3.2607    0.4800 H   0  0  0  0  0  0  0  0  0  0  0  0
    0.3511    1.2518   -1.8272 C   0  0  0  0  0  0  0  0  0  0  0  0
    0.3511    1.2518   -0.3284 C   0  0  0  0  0  3  0  0  0  0  0  0
    0.3511    2.2374    0.3546 O   0  0  0  0  0  0  0  0  0  0  0  0
    1.2288    0.7098   -2.1891 H   0  0  0  0  0  0  0  0  0  0  0  0
   -0.5266    0.7098   -2.1891 H   0  0  0  0  0  0  0  0  0  0  0  0
    0.3510    2.2683   -2.2151 H   0  0  0  0  0  0  0  0  0  0  0  0
    0.3511    0.0446    0.2367 H   0  0  0  0  0  0  0  0  0  0  0  0
  1  2  1  0
  1  3  1  0
  1  4  1  0
  1 13  1  0
  2  3  1  0
  2  5  1  0
  2  6  1  0
  7  8  1  0
  7 10  1  0
  7 11  1  0
  7 12  1  0
  8  9  2  0
M  RAD  1   8   2
M  END
>  <reaction>  (13) 
kfir_rxn_9885

>  <mol_properties>  (13) 
{"0": {"label": "*3", "atom_type": "Cs"}, "2": {"label": "*4", "atom_type": "O2s"}, "7": {"label": "*1", "atom_type": "CO"}, "8": {"label": "*0", "atom_type": "O2d"}, "12": {"label": "*2", "atom_type": "H0"}}

>  <type>  (13) 
unop_9

>  <geom_source>  (13) 
Heuristics

$$$$

     RDKit          3D

 13 12  0  0  0  0  0  0  0  0999 V2000
   -0.1426   -0.9746    0.7909 C   0  0  0  0  0  0  0  0  0  0  0  0
    0.9571   -1.8946    0.5205 C   0  0  0  0  0  0  0  0  0  0  0  0
   -0.3863   -2.3384    0.5033 O   0  0  0  0  0  0  0  0  0  0  0  0
   -0.3471   -0.6715    1.8133 H   0  0  0  0  0  0  0  0  0  0  0  0
    1.4505   -1.8687   -0.4465 H   0  0  0  0  0  0  0  0  0  0  0  0
    1.5587   -2.2658    1.3447 H   0  0  0  0  0  0  0  0  0  0  0  0
   -0.1426    1.4127   -1.8253 C   0  0  0  0  0  0  0  0  0  0  0  0
   -0.1426    1.4127   -0.3265 C   0  0  0  0  0  3  0  0  0  0  0  0
   -0.1426    2.3983    0.3565 O   0  0  0  0  0  0  0  0  0  0  0  0
    0.7351    0.8708   -2.1872 H   0  0  0  0  0  0  0  0  0  0  0  0
   -1.0203    0.8707   -2.1872 H   0  0  0  0  0  0  0  0  0  0  0  0
   -0.1426    2.4293   -2.2133 H   0  0  0  0  0  0  0  0  0  0  0  0
   -0.1426    0.2055    0.2385 H   0  0  0  0  0  0  0  0  0  0  0  0
  1  2  1  0
  1  3  1  0
  1  4  1  0
  1 13  1  0
  2  3  1  0
  2  5  1  0
  2  6  1  0
  7  8  1  0
  7 10  1  0
  7 11  1  0
  7 12  1  0
  8  9  2  0
M  RAD  1   8   2
M  END
>  <reaction>  (14) 
kfir_rxn_9885

>  <mol_properties>  (14) 
{"0": {"label": "*3", "atom_type": "Cs"}, "2": {"label": "*4", "atom_type": "O2s"}, "7": {"label": "*1", "atom_type": "CO"}, "8": {"label": "*0", "atom_type": "O2d"}, "12": {"label": "*2", "atom_type": "H0"}}

>  <type>  (14) 
unop_10

>  <geom_source>  (14) 
Heuristics

$$$$

     RDKit          3D

 13 12  0  0  0  0  0  0  0  0999 V2000
    0.0040   -1.4372    0.2768 C   0  0  0  0  0  0  0  0  0  0  0  0
   -0.6309   -1.6218    1.5774 C   0  0  0  0  0  0  0  0  0  0  0  0
    0.5512   -0.8555    1.4448 O   0  0  0  0  0  0  0  0  0  0  0  0
    0.5844   -2.2472   -0.1547 H   0  0  0  0  0  0  0  0  0  0  0  0
   -1.5260   -1.0571    1.8205 H   0  0  0  0  0  0  0  0  0  0  0  0
   -0.5160   -2.5670    2.0993 H   0  0  0  0  0  0  0  0  0  0  0  0
    0.0040    0.9501   -2.3395 C   0  0  0  0  0  0  0  0  0  0  0  0
    0.0040    0.9501   -0.8407 C   0  0  0  0  0  3  0  0  0  0  0  0
    0.0040    1.9357   -0.1576 O   0  0  0  0  0  0  0  0  0  0  0  0
    0.8817    0.4081   -2.7013 H   0  0  0  0  0  0  0  0  0  0  0  0
   -0.8737    0.4081   -2.7013 H   0  0  0  0  0  0  0  0  0  0  0  0
    0.0040    1.9666   -2.7274 H   0  0  0  0  0  0  0  0  0  0  0  0
    0.0040   -0.2571   -0.2756 H   0  0  0  0  0  0  0  0  0  0  0  0
  1  2  1  0
  1  3  1  0
  1  4  1  0
  1 13  1  0
  2  3  1  0
  2  5  1  0
  2  6  1  0
  7  8  1  0
  7 10  1  0
  7 11  1  0
  7 12  1  0
  8  9  2  0
M  RAD  1   8   2
M  END
>  <reaction>  (15) 
kfir_rxn_9885

>  <mol_properties>  (15) 
{"0": {"label": "*3", "atom_type": "Cs"}, "2": {"label": "*4", "atom_type": "O2s"}, "7": {"label": "*1", "atom_type": "CO"}, "8": {"label": "*0", "atom_type": "O2d"}, "12": {"label": "*2", "atom_type": "H0"}}

>  <type>  (15) 
unop_11

>  <geom_source>  (15) 
Heuristics

$$$$

     RDKit          3D

 13 12  0  0  0  0  0  0  0  0999 V2000
    0.2067   -1.0329    0.8727 C   0  0  0  0  0  0  0  0  0  0  0  0
    0.2067   -2.2221    0.0272 C   0  0  0  0  0  0  0  0  0  0  0  0
   -0.9722   -1.7915    0.6807 O   0  0  0  0  0  0  0  0  0  0  0  0
    0.6358   -1.0851    1.8688 H   0  0  0  0  0  0  0  0  0  0  0  0
    0.2067   -2.1103   -1.0528 H   0  0  0  0  0  0  0  0  0  0  0  0
    0.6358   -3.1458    0.4036 H   0  0  0  0  0  0  0  0  0  0  0  0
    0.2067    1.3543   -1.7435 C   0  0  0  0  0  0  0  0  0  0  0  0
    0.2067    1.3543   -0.2447 C   0  0  0  0  0  3  0  0  0  0  0  0
    0.2067    2.3400    0.4383 O   0  0  0  0  0  0  0  0  0  0  0  0
    1.0844    0.8124   -2.1054 H   0  0  0  0  0  0  0  0  0  0  0  0
   -0.6710    0.8124   -2.1054 H   0  0  0  0  0  0  0  0  0  0  0  0
    0.2067    2.3709   -2.1314 H   0  0  0  0  0  0  0  0  0  0  0  0
    0.2067    0.1472    0.3203 H   0  0  0  0  0  0  0  0  0  0  0  0
  1  2  1  0
  1  3  1  0
  1  4  1  0
  1 13  1  0
  2  3  1  0
  2  5  1  0
  2  6  1  0
  7  8  1  0
  7 10  1  0
  7 11  1  0
  7 12  1  0
  8  9  2  0
M  RAD  1   8   2
M  END
>  <reaction>  (16) 
kfir_rxn_9885

>  <mol_properties>  (16) 
{"0": {"label": "*3", "atom_type": "Cs"}, "2": {"label": "*4", "atom_type": "O2s"}, "7": {"label": "*1", "atom_type": "CO"}, "8": {"label": "*0", "atom_type": "O2d"}, "12": {"label": "*2", "atom_type": "H0"}}

>  <type>  (16) 
unop_12

>  <geom_source>  (16) 
Heuristics

$$$$
