
     RDKit          3D

  7  7  0  0  0  0  0  0  0  0999 V2000
    2.2162   -0.4702   -0.0767 O   0  0  0  0  0  0  0  0  0  0  0  0
    1.0900   -0.1272   -0.0403 C   0  0  0  0  0  0  0  0  0  0  0  0
    0.6125    1.1345   -0.0526 O   0  0  0  0  0  0  0  0  0  0  0  0
   -0.7870    1.1033    0.0040 N   0  0  0  0  0  0  0  0  0  0  0  0
   -1.0656   -0.1341    0.0458 C   0  0  0  0  0  0  0  0  0  0  0  0
   -0.0073   -0.9572    0.0240 O   0  0  0  0  0  0  0  0  0  0  0  0
   -2.0587   -0.5492    0.0957 H   0  0  0  0  0  0  0  0  0  0  0  0
  1  2  2  0
  2  6  1  0
  2  3  1  0
  3  4  1  0
  4  5  2  0
  5  6  1  0
  5  7  1  0
M  END
>  <reaction>  (1) 
kfir_rxn_7531

>  <mol_properties>  (1) 
{"4": {"label": "donator", "atom_type": "Cd"}, "6": {"label": "d_hydrogen", "atom_type": "H0"}}

>  <type>  (1) 
r1h

$$$$

     RDKit          3D

  7  6  0  0  0  0  0  0  0  0999 V2000
   -0.8091   -0.2139    0.0047 C   0  0  0  0  0  0  0  0  0  0  0  0
    0.4816   -0.7996   -0.2919 O   0  0  0  0  0  0  0  0  0  0  0  0
    0.7879   -1.8806    0.3763 C   0  0  0  0  0  3  0  0  0  0  0  0
    0.1844   -2.4785    1.1986 O   0  0  0  0  0  0  0  0  0  0  0  0
   -0.8513    0.0697    1.0553 H   0  0  0  0  0  0  0  0  0  0  0  0
   -0.8872    0.6598   -0.6347 H   0  0  0  0  0  0  0  0  0  0  0  0
   -1.5981   -0.9302   -0.2198 H   0  0  0  0  0  0  0  0  0  0  0  0
  1  2  1  0
  1  5  1  0
  1  6  1  0
  1  7  1  0
  2  3  1  0
  3  4  2  0
M  RAD  1   3   2
M  END
>  <reaction>  (2) 
kfir_rxn_7531

>  <mol_properties>  (2) 
{"2": {"label": "acceptor", "atom_type": "CO"}}

>  <type>  (2) 
r2

$$$$

     RDKit          3D

  8  7  0  0  0  0  0  0  0  0999 V2000
   -1.0419   -0.0932    0.0396 C   0  0  0  0  0  0  0  0  0  0  0  0
    0.2033   -0.7930    0.0195 O   0  0  0  0  0  0  0  0  0  0  0  0
    0.3626   -1.6613   -0.9752 C   0  0  0  0  0  0  0  0  0  0  0  0
   -0.4360   -1.8963   -1.8332 O   0  0  0  0  0  0  0  0  0  0  0  0
   -1.8714   -0.7939    0.1322 H   0  0  0  0  0  0  0  0  0  0  0  0
   -0.9989    0.5623    0.9047 H   0  0  0  0  0  0  0  0  0  0  0  0
   -1.1675    0.4876   -0.8739 H   0  0  0  0  0  0  0  0  0  0  0  0
    1.3491   -2.1357   -0.8892 H   0  0  0  0  0  0  0  0  0  0  0  0
  1  2  1  0
  1  5  1  0
  1  6  1  0
  1  7  1  0
  2  3  1  0
  3  4  2  0
  3  8  1  0
M  END
>  <reaction>  (3) 
kfir_rxn_7531

>  <mol_properties>  (3) 
{"2": {"label": "acceptor", "atom_type": "CO"}, "7": {"label": "a_hydrogen", "atom_type": "H0"}}

>  <type>  (3) 
r2h

$$$$

     RDKit          3D

 14 13  0  0  0  0  0  0  0  0999 V2000
   -0.2297    3.9078    1.2086 C   0  0  0  0  0  0  0  0  0  0  0  0
   -0.2588    2.5072    0.8854 O   0  0  0  0  0  0  0  0  0  0  0  0
    0.4118    2.1508   -0.1885 C   0  0  0  0  0  0  0  0  0  0  0  0
    1.0443    2.8298   -0.9295 O   0  0  0  0  0  0  0  0  0  0  0  0
   -0.8266    4.0104    2.1092 H   0  0  0  0  0  0  0  0  0  0  0  0
    0.7958    4.2283    1.3861 H   0  0  0  0  0  0  0  0  0  0  0  0
   -0.6593    4.4873    0.3927 H   0  0  0  0  0  0  0  0  0  0  0  0
    0.6635   -3.7441    0.5359 O   0  0  0  0  0  0  0  0  0  0  0  0
    0.2377   -2.7337    0.1089 C   0  0  0  0  0  0  0  0  0  0  0  0
   -0.8445   -2.5519   -0.6589 O   0  0  0  0  0  0  0  0  0  0  0  0
   -0.9890   -1.1523   -0.9406 N   0  0  0  0  0  0  0  0  0  0  0  0
   -0.0081   -0.6463   -0.3369 C   0  0  0  0  0  3  0  0  0  0  0  0
    0.7954   -1.4717    0.3245 O   0  0  0  0  0  0  0  0  0  0  0  0
    0.2901    0.9919   -0.3199 H   0  0  0  0  0  0  0  0  0  0  0  0
  1  2  1  0
  1  5  1  0
  1  6  1  0
  1  7  1  0
  2  3  1  0
  3  4  2  0
  3 14  1  0
  8  9  2  0
  9 13  1  0
  9 10  1  0
 10 11  1  0
 11 12  2  0
 12 13  1  0
M  RAD  1  12   2
M  END
>  <reaction>  (4) 
kfir_rxn_7531

>  <mol_properties>  (4) 
{"1": {"label": "*0", "atom_type": "O2s"}, "2": {"label": "*1", "atom_type": "CO"}, "11": {"label": "*3", "atom_type": "Cd"}, "12": {"label": "*4", "atom_type": "O2s"}, "13": {"label": "*2", "atom_type": "H0"}}

>  <type>  (4) 
ts

$$$$

     RDKit          3D

 14 13  0  0  0  0  0  0  0  0999 V2000
   -0.8122    3.6789    1.1379 C   0  0  0  0  0  0  0  0  0  0  0  0
   -0.9951    2.5561    0.2738 O   0  0  0  0  0  0  0  0  0  0  0  0
    0.0918    2.1376   -0.3685 C   0  0  0  0  0  3  0  0  0  0  0  0
    1.1837    2.6164   -0.2811 O   0  0  0  0  0  0  0  0  0  0  0  0
   -0.4605    4.5416    0.5725 H   0  0  0  0  0  0  0  0  0  0  0  0
   -1.7874    3.8799    1.5721 H   0  0  0  0  0  0  0  0  0  0  0  0
   -0.0876    3.4455    1.9177 H   0  0  0  0  0  0  0  0  0  0  0  0
    0.0918   -3.4249    1.0162 O   0  0  0  0  0  0  0  0  0  0  0  0
    0.0918   -2.4920    0.2972 C   0  0  0  0  0  0  0  0  0  0  0  0
    0.0918   -2.4920   -1.0519 O   0  0  0  0  0  0  0  0  0  0  0  0
    0.0918   -1.1707   -1.5176 N   0  0  0  0  0  0  0  0  0  0  0  0
    0.0918   -0.4714   -0.4586 C   0  0  0  0  0  0  0  0  0  0  0  0
    0.0918   -1.1706    0.6856 O   0  0  0  0  0  0  0  0  0  0  0  0
    0.0918    0.8208   -0.4140 H   0  0  0  0  0  0  0  0  0  0  0  0
  1  2  1  0
  1  5  1  0
  1  6  1  0
  1  7  1  0
  2  3  1  0
  3  4  2  0
  8  9  2  0
  9 13  1  0
  9 10  1  0
 10 11  1  0
 11 12  2  0
 12 13  1  0
 12 14  1  0
M  RAD  1   3   2
M  END
>  <reaction>  (5) 
kfir_rxn_7531

>  <mol_properties>  (5) 
{"1": {"label": "*0", "atom_type": "O2s"}, "2": {"label": "*1", "atom_type": "CO"}, "11": {"label": "*3", "atom_type": "Cd"}, "12": {"label": "*4", "atom_type": "O2s"}, "13": {"label": "*2", "atom_type": "H0"}}

>  <type>  (5) 
unop_1

>  <geom_source>  (5) 
Heuristics

$$$$

     RDKit          3D

 14 13  0  0  0  0  0  0  0  0999 V2000
   -0.9079    3.9209   -1.0027 C   0  0  0  0  0  0  0  0  0  0  0  0
   -0.4712    2.5637   -1.0924 O   0  0  0  0  0  0  0  0  0  0  0  0
    0.1563    2.0861   -0.0215 C   0  0  0  0  0  3  0  0  0  0  0  0
    0.3780    2.6896    0.9864 O   0  0  0  0  0  0  0  0  0  0  0  0
   -0.0582    4.5850   -0.8455 H   0  0  0  0  0  0  0  0  0  0  0  0
   -1.3916    4.1393   -1.9504 H   0  0  0  0  0  0  0  0  0  0  0  0
   -1.6105    4.0415   -0.1784 H   0  0  0  0  0  0  0  0  0  0  0  0
    0.1563   -3.4764    1.3633 O   0  0  0  0  0  0  0  0  0  0  0  0
    0.1563   -2.5436    0.6442 C   0  0  0  0  0  0  0  0  0  0  0  0
    0.1563   -2.5436   -0.7049 O   0  0  0  0  0  0  0  0  0  0  0  0
    0.1563   -1.2222   -1.1705 N   0  0  0  0  0  0  0  0  0  0  0  0
    0.1563   -0.5230   -0.1115 C   0  0  0  0  0  0  0  0  0  0  0  0
    0.1563   -1.2222    1.0327 O   0  0  0  0  0  0  0  0  0  0  0  0
    0.1563    0.7693   -0.0669 H   0  0  0  0  0  0  0  0  0  0  0  0
  1  2  1  0
  1  5  1  0
  1  6  1  0
  1  7  1  0
  2  3  1  0
  3  4  2  0
  8  9  2  0
  9 13  1  0
  9 10  1  0
 10 11  1  0
 11 12  2  0
 12 13  1  0
 12 14  1  0
M  RAD  1   3   2
M  END
>  <reaction>  (6) 
kfir_rxn_7531

>  <mol_properties>  (6) 
{"1": {"label": "*0", "atom_type": "O2s"}, "2": {"label": "*1", "atom_type": "CO"}, "11": {"label": "*3", "atom_type": "Cd"}, "12": {"label": "*4", "atom_type": "O2s"}, "13": {"label": "*2", "atom_type": "H0"}}

>  <type>  (6) 
unop_2

>  <geom_source>  (6) 
Heuristics

$$$$

     RDKit          3D

 14 13  0  0  0  0  0  0  0  0999 V2000
   -0.2210    3.7793    1.2670 C   0  0  0  0  0  0  0  0  0  0  0  0
   -0.6328    2.5152    0.7444 O   0  0  0  0  0  0  0  0  0  0  0  0
   -0.0054    2.1126   -0.3569 C   0  0  0  0  0  3  0  0  0  0  0  0
    0.8558    2.7118   -0.9300 O   0  0  0  0  0  0  0  0  0  0  0  0
   -0.3894    4.5679    0.5339 H   0  0  0  0  0  0  0  0  0  0  0  0
   -0.8288    3.9459    2.1517 H   0  0  0  0  0  0  0  0  0  0  0  0
    0.8366    3.7573    1.5287 H   0  0  0  0  0  0  0  0  0  0  0  0
   -0.0054   -3.4500    1.0278 O   0  0  0  0  0  0  0  0  0  0  0  0
   -0.0054   -2.5171    0.3088 C   0  0  0  0  0  0  0  0  0  0  0  0
   -0.0054   -2.5171   -1.0403 O   0  0  0  0  0  0  0  0  0  0  0  0
   -0.0054   -1.1958   -1.5060 N   0  0  0  0  0  0  0  0  0  0  0  0
   -0.0054   -0.4965   -0.4470 C   0  0  0  0  0  0  0  0  0  0  0  0
   -0.0054   -1.1957    0.6972 O   0  0  0  0  0  0  0  0  0  0  0  0
   -0.0054    0.7957   -0.4024 H   0  0  0  0  0  0  0  0  0  0  0  0
  1  2  1  0
  1  5  1  0
  1  6  1  0
  1  7  1  0
  2  3  1  0
  3  4  2  0
  8  9  2  0
  9 13  1  0
  9 10  1  0
 10 11  1  0
 11 12  2  0
 12 13  1  0
 12 14  1  0
M  RAD  1   3   2
M  END
>  <reaction>  (7) 
kfir_rxn_7531

>  <mol_properties>  (7) 
{"1": {"label": "*0", "atom_type": "O2s"}, "2": {"label": "*1", "atom_type": "CO"}, "11": {"label": "*3", "atom_type": "Cd"}, "12": {"label": "*4", "atom_type": "O2s"}, "13": {"label": "*2", "atom_type": "H0"}}

>  <type>  (7) 
unop_3

>  <geom_source>  (7) 
Heuristics

$$$$

     RDKit          3D

 14 13  0  0  0  0  0  0  0  0999 V2000
    1.3894    3.7981   -0.2534 C   0  0  0  0  0  0  0  0  0  0  0  0
    0.8592    2.5753   -0.7677 O   0  0  0  0  0  0  0  0  0  0  0  0
   -0.2276    2.1135   -0.1558 C   0  0  0  0  0  3  0  0  0  0  0  0
   -0.7821    2.6297    0.7690 O   0  0  0  0  0  0  0  0  0  0  0  0
    1.6744    3.6801    0.7918 H   0  0  0  0  0  0  0  0  0  0  0  0
    2.2603    4.0223   -0.8626 H   0  0  0  0  0  0  0  0  0  0  0  0
    0.6519    4.5965   -0.3328 H   0  0  0  0  0  0  0  0  0  0  0  0
   -0.2276   -3.4490    1.2290 O   0  0  0  0  0  0  0  0  0  0  0  0
   -0.2276   -2.5161    0.5099 C   0  0  0  0  0  0  0  0  0  0  0  0
   -0.2276   -2.5161   -0.8392 O   0  0  0  0  0  0  0  0  0  0  0  0
   -0.2276   -1.1948   -1.3048 N   0  0  0  0  0  0  0  0  0  0  0  0
   -0.2276   -0.4955   -0.2459 C   0  0  0  0  0  0  0  0  0  0  0  0
   -0.2276   -1.1947    0.8983 O   0  0  0  0  0  0  0  0  0  0  0  0
   -0.2276    0.7967   -0.2012 H   0  0  0  0  0  0  0  0  0  0  0  0
  1  2  1  0
  1  5  1  0
  1  6  1  0
  1  7  1  0
  2  3  1  0
  3  4  2  0
  8  9  2  0
  9 13  1  0
  9 10  1  0
 10 11  1  0
 11 12  2  0
 12 13  1  0
 12 14  1  0
M  RAD  1   3   2
M  END
>  <reaction>  (8) 
kfir_rxn_7531

>  <mol_properties>  (8) 
{"1": {"label": "*0", "atom_type": "O2s"}, "2": {"label": "*1", "atom_type": "CO"}, "11": {"label": "*3", "atom_type": "Cd"}, "12": {"label": "*4", "atom_type": "O2s"}, "13": {"label": "*2", "atom_type": "H0"}}

>  <type>  (8) 
unop_4

>  <geom_source>  (8) 
Heuristics

$$$$

     RDKit          3D

 14 13  0  0  0  0  0  0  0  0999 V2000
    0.0000    3.8948    1.1616 C   0  0  0  0  0  0  0  0  0  0  0  0
    0.0000    2.4817    0.9526 O   0  0  0  0  0  0  0  0  0  0  0  0
   -0.0000    2.0848   -0.3168 C   0  0  0  0  0  3  0  0  0  0  0  0
    0.0000    2.8015   -1.2736 O   0  0  0  0  0  0  0  0  0  0  0  0
   -0.8874    4.3457    0.7180 H   0  0  0  0  0  0  0  0  0  0  0  0
    0.0000    4.0345    2.2389 H   0  0  0  0  0  0  0  0  0  0  0  0
    0.8874    4.3457    0.7179 H   0  0  0  0  0  0  0  0  0  0  0  0
   -0.0000   -3.4777    1.0680 O   0  0  0  0  0  0  0  0  0  0  0  0
   -0.0000   -2.5448    0.3489 C   0  0  0  0  0  0  0  0  0  0  0  0
   -0.0000   -2.5448   -1.0002 O   0  0  0  0  0  0  0  0  0  0  0  0
   -0.0000   -1.2235   -1.4658 N   0  0  0  0  0  0  0  0  0  0  0  0
    0.0000   -0.5242   -0.4068 C   0  0  0  0  0  0  0  0  0  0  0  0
   -0.0000   -1.2234    0.7373 O   0  0  0  0  0  0  0  0  0  0  0  0
   -0.0000    0.7680   -0.3622 H   0  0  0  0  0  0  0  0  0  0  0  0
  1  2  1  0
  1  5  1  0
  1  6  1  0
  1  7  1  0
  2  3  1  0
  3  4  2  0
  8  9  2  0
  9 13  1  0
  9 10  1  0
 10 11  1  0
 11 12  2  0
 12 13  1  0
 12 14  1  0
M  RAD  1   3   2
M  END
>  <reaction>  (9) 
kfir_rxn_7531

>  <mol_properties>  (9) 
{"1": {"label": "*0", "atom_type": "O2s"}, "2": {"label": "*1", "atom_type": "CO"}, "11": {"label": "*3", "atom_type": "Cd"}, "12": {"label": "*4", "atom_type": "O2s"}, "13": {"label": "*2", "atom_type": "H0"}}

>  <type>  (9) 
unop_5

>  <geom_source>  (9) 
Heuristics

$$$$

     RDKit          3D

 14 13  0  0  0  0  0  0  0  0999 V2000
    1.3146    3.6982    0.5688 C   0  0  0  0  0  0  0  0  0  0  0  0
    1.0603    2.5752   -0.2767 O   0  0  0  0  0  0  0  0  0  0  0  0
   -0.1946    2.1351   -0.2919 C   0  0  0  0  0  3  0  0  0  0  0  0
   -1.1047    2.5951    0.3319 O   0  0  0  0  0  0  0  0  0  0  0  0
    1.0809    3.4556    1.6052 H   0  0  0  0  0  0  0  0  0  0  0  0
    2.3726    3.9181    0.4584 H   0  0  0  0  0  0  0  0  0  0  0  0
    0.7125    4.5523    0.2592 H   0  0  0  0  0  0  0  0  0  0  0  0
   -0.1946   -3.4275    1.0928 O   0  0  0  0  0  0  0  0  0  0  0  0
   -0.1946   -2.4946    0.3738 C   0  0  0  0  0  0  0  0  0  0  0  0
   -0.1946   -2.4946   -0.9753 O   0  0  0  0  0  0  0  0  0  0  0  0
   -0.1946   -1.1733   -1.4410 N   0  0  0  0  0  0  0  0  0  0  0  0
   -0.1946   -0.4740   -0.3820 C   0  0  0  0  0  0  0  0  0  0  0  0
   -0.1946   -1.1732    0.7622 O   0  0  0  0  0  0  0  0  0  0  0  0
   -0.1946    0.8182   -0.3374 H   0  0  0  0  0  0  0  0  0  0  0  0
  1  2  1  0
  1  5  1  0
  1  6  1  0
  1  7  1  0
  2  3  1  0
  3  4  2  0
  8  9  2  0
  9 13  1  0
  9 10  1  0
 10 11  1  0
 11 12  2  0
 12 13  1  0
 12 14  1  0
M  RAD  1   3   2
M  END
>  <reaction>  (10) 
kfir_rxn_7531

>  <mol_properties>  (10) 
{"1": {"label": "*0", "atom_type": "O2s"}, "2": {"label": "*1", "atom_type": "CO"}, "11": {"label": "*3", "atom_type": "Cd"}, "12": {"label": "*4", "atom_type": "O2s"}, "13": {"label": "*2", "atom_type": "H0"}}

>  <type>  (10) 
unop_6

>  <geom_source>  (10) 
Heuristics

$$$$

     RDKit          3D

 14 13  0  0  0  0  0  0  0  0999 V2000
    0.8122    3.6789    1.1379 C   0  0  0  0  0  0  0  0  0  0  0  0
    0.9951    2.5561    0.2738 O   0  0  0  0  0  0  0  0  0  0  0  0
   -0.0918    2.1376   -0.3685 C   0  0  0  0  0  3  0  0  0  0  0  0
   -1.1837    2.6164   -0.2811 O   0  0  0  0  0  0  0  0  0  0  0  0
    0.0876    3.4455    1.9177 H   0  0  0  0  0  0  0  0  0  0  0  0
    1.7874    3.8799    1.5721 H   0  0  0  0  0  0  0  0  0  0  0  0
    0.4605    4.5416    0.5725 H   0  0  0  0  0  0  0  0  0  0  0  0
   -0.0918   -3.4249    1.0162 O   0  0  0  0  0  0  0  0  0  0  0  0
   -0.0918   -2.4920    0.2972 C   0  0  0  0  0  0  0  0  0  0  0  0
   -0.0918   -2.4920   -1.0519 O   0  0  0  0  0  0  0  0  0  0  0  0
   -0.0918   -1.1707   -1.5176 N   0  0  0  0  0  0  0  0  0  0  0  0
   -0.0918   -0.4714   -0.4586 C   0  0  0  0  0  0  0  0  0  0  0  0
   -0.0918   -1.1706    0.6856 O   0  0  0  0  0  0  0  0  0  0  0  0
   -0.0918    0.8208   -0.4140 H   0  0  0  0  0  0  0  0  0  0  0  0
  1  2  1  0
  1  5  1  0
  1  6  1  0
  1  7  1  0
  2  3  1  0
  3  4  2  0
  8  9  2  0
  9 13  1  0
  9 10  1  0
 10 11  1  0
 11 12  2  0
 12 13  1  0
 12 14  1  0
M  RAD  1   3   2
M  END
>  <reaction>  (11) 
kfir_rxn_7531

>  <mol_properties>  (11) 
{"1": {"label": "*0", "atom_type": "O2s"}, "2": {"label": "*1", "atom_type": "CO"}, "11": {"label": "*3", "atom_type": "Cd"}, "12": {"label": "*4", "atom_type": "O2s"}, "13": {"label": "*2", "atom_type": "H0"}}

>  <type>  (11) 
unop_7

>  <geom_source>  (11) 
Heuristics

$$$$

     RDKit          3D

 14 13  0  0  0  0  0  0  0  0999 V2000
   -1.3145    3.6982    0.5688 C   0  0  0  0  0  0  0  0  0  0  0  0
   -1.0603    2.5752   -0.2767 O   0  0  0  0  0  0  0  0  0  0  0  0
    0.1946    2.1351   -0.2919 C   0  0  0  0  0  3  0  0  0  0  0  0
    1.1047    2.5950    0.3319 O   0  0  0  0  0  0  0  0  0  0  0  0
   -0.7126    4.5523    0.2592 H   0  0  0  0  0  0  0  0  0  0  0  0
   -2.3726    3.9181    0.4584 H   0  0  0  0  0  0  0  0  0  0  0  0
   -1.0809    3.4556    1.6052 H   0  0  0  0  0  0  0  0  0  0  0  0
    0.1946   -3.4275    1.0928 O   0  0  0  0  0  0  0  0  0  0  0  0
    0.1946   -2.4946    0.3738 C   0  0  0  0  0  0  0  0  0  0  0  0
    0.1946   -2.4946   -0.9753 O   0  0  0  0  0  0  0  0  0  0  0  0
    0.1946   -1.1733   -1.4410 N   0  0  0  0  0  0  0  0  0  0  0  0
    0.1946   -0.4740   -0.3820 C   0  0  0  0  0  0  0  0  0  0  0  0
    0.1946   -1.1732    0.7622 O   0  0  0  0  0  0  0  0  0  0  0  0
    0.1946    0.8182   -0.3374 H   0  0  0  0  0  0  0  0  0  0  0  0
  1  2  1  0
  1  5  1  0
  1  6  1  0
  1  7  1  0
  2  3  1  0
  3  4  2  0
  8  9  2  0
  9 13  1  0
  9 10  1  0
 10 11  1  0
 11 12  2  0
 12 13  1  0
 12 14  1  0
M  RAD  1   3   2
M  END
>  <reaction>  (12) 
kfir_rxn_7531

>  <mol_properties>  (12) 
{"1": {"label": "*0", "atom_type": "O2s"}, "2": {"label": "*1", "atom_type": "CO"}, "11": {"label": "*3", "atom_type": "Cd"}, "12": {"label": "*4", "atom_type": "O2s"}, "13": {"label": "*2", "atom_type": "H0"}}

>  <type>  (12) 
unop_8

>  <geom_source>  (12) 
Heuristics

$$$$

     RDKit          3D

 14 13  0  0  0  0  0  0  0  0999 V2000
    0.9079    3.9209   -1.0027 C   0  0  0  0  0  0  0  0  0  0  0  0
    0.4712    2.5637   -1.0924 O   0  0  0  0  0  0  0  0  0  0  0  0
   -0.1563    2.0861   -0.0215 C   0  0  0  0  0  3  0  0  0  0  0  0
   -0.3780    2.6896    0.9864 O   0  0  0  0  0  0  0  0  0  0  0  0
    1.6105    4.0415   -0.1785 H   0  0  0  0  0  0  0  0  0  0  0  0
    1.3916    4.1393   -1.9505 H   0  0  0  0  0  0  0  0  0  0  0  0
    0.0582    4.5850   -0.8455 H   0  0  0  0  0  0  0  0  0  0  0  0
   -0.1563   -3.4764    1.3633 O   0  0  0  0  0  0  0  0  0  0  0  0
   -0.1563   -2.5436    0.6442 C   0  0  0  0  0  0  0  0  0  0  0  0
   -0.1563   -2.5436   -0.7049 O   0  0  0  0  0  0  0  0  0  0  0  0
   -0.1563   -1.2222   -1.1705 N   0  0  0  0  0  0  0  0  0  0  0  0
   -0.1563   -0.5230   -0.1115 C   0  0  0  0  0  0  0  0  0  0  0  0
   -0.1563   -1.2222    1.0327 O   0  0  0  0  0  0  0  0  0  0  0  0
   -0.1563    0.7693   -0.0669 H   0  0  0  0  0  0  0  0  0  0  0  0
  1  2  1  0
  1  5  1  0
  1  6  1  0
  1  7  1  0
  2  3  1  0
  3  4  2  0
  8  9  2  0
  9 13  1  0
  9 10  1  0
 10 11  1  0
 11 12  2  0
 12 13  1  0
 12 14  1  0
M  RAD  1   3   2
M  END
>  <reaction>  (13) 
kfir_rxn_7531

>  <mol_properties>  (13) 
{"1": {"label": "*0", "atom_type": "O2s"}, "2": {"label": "*1", "atom_type": "CO"}, "11": {"label": "*3", "atom_type": "Cd"}, "12": {"label": "*4", "atom_type": "O2s"}, "13": {"label": "*2", "atom_type": "H0"}}

>  <type>  (13) 
unop_9

>  <geom_source>  (13) 
Heuristics

$$$$

     RDKit          3D

 14 13  0  0  0  0  0  0  0  0999 V2000
   -1.3894    3.7981   -0.2534 C   0  0  0  0  0  0  0  0  0  0  0  0
   -0.8592    2.5753   -0.7677 O   0  0  0  0  0  0  0  0  0  0  0  0
    0.2276    2.1135   -0.1558 C   0  0  0  0  0  3  0  0  0  0  0  0
    0.7821    2.6297    0.7690 O   0  0  0  0  0  0  0  0  0  0  0  0
   -0.6519    4.5965   -0.3328 H   0  0  0  0  0  0  0  0  0  0  0  0
   -2.2603    4.0223   -0.8626 H   0  0  0  0  0  0  0  0  0  0  0  0
   -1.6744    3.6801    0.7918 H   0  0  0  0  0  0  0  0  0  0  0  0
    0.2276   -3.4490    1.2290 O   0  0  0  0  0  0  0  0  0  0  0  0
    0.2276   -2.5161    0.5099 C   0  0  0  0  0  0  0  0  0  0  0  0
    0.2276   -2.5161   -0.8392 O   0  0  0  0  0  0  0  0  0  0  0  0
    0.2276   -1.1948   -1.3048 N   0  0  0  0  0  0  0  0  0  0  0  0
    0.2276   -0.4955   -0.2459 C   0  0  0  0  0  0  0  0  0  0  0  0
    0.2276   -1.1947    0.8983 O   0  0  0  0  0  0  0  0  0  0  0  0
    0.2276    0.7967   -0.2012 H   0  0  0  0  0  0  0  0  0  0  0  0
  1  2  1  0
  1  5  1  0
  1  6  1  0
  1  7  1  0
  2  3  1  0
  3  4  2  0
  8  9  2  0
  9 13  1  0
  9 10  1  0
 10 11  1  0
 11 12  2  0
 12 13  1  0
 12 14  1  0
M  RAD  1   3   2
M  END
>  <reaction>  (14) 
kfir_rxn_7531

>  <mol_properties>  (14) 
{"1": {"label": "*0", "atom_type": "O2s"}, "2": {"label": "*1", "atom_type": "CO"}, "11": {"label": "*3", "atom_type": "Cd"}, "12": {"label": "*4", "atom_type": "O2s"}, "13": {"label": "*2", "atom_type": "H0"}}

>  <type>  (14) 
unop_10

>  <geom_source>  (14) 
Heuristics

$$$$

     RDKit          3D

 14 13  0  0  0  0  0  0  0  0999 V2000
    0.2210    3.7793    1.2670 C   0  0  0  0  0  0  0  0  0  0  0  0
    0.6328    2.5152    0.7444 O   0  0  0  0  0  0  0  0  0  0  0  0
    0.0054    2.1126   -0.3569 C   0  0  0  0  0  3  0  0  0  0  0  0
   -0.8558    2.7118   -0.9300 O   0  0  0  0  0  0  0  0  0  0  0  0
   -0.8366    3.7573    1.5287 H   0  0  0  0  0  0  0  0  0  0  0  0
    0.8289    3.9459    2.1517 H   0  0  0  0  0  0  0  0  0  0  0  0
    0.3894    4.5679    0.5339 H   0  0  0  0  0  0  0  0  0  0  0  0
    0.0054   -3.4500    1.0278 O   0  0  0  0  0  0  0  0  0  0  0  0
    0.0054   -2.5171    0.3088 C   0  0  0  0  0  0  0  0  0  0  0  0
    0.0054   -2.5171   -1.0403 O   0  0  0  0  0  0  0  0  0  0  0  0
    0.0054   -1.1958   -1.5060 N   0  0  0  0  0  0  0  0  0  0  0  0
    0.0054   -0.4965   -0.4470 C   0  0  0  0  0  0  0  0  0  0  0  0
    0.0054   -1.1957    0.6972 O   0  0  0  0  0  0  0  0  0  0  0  0
    0.0054    0.7957   -0.4024 H   0  0  0  0  0  0  0  0  0  0  0  0
  1  2  1  0
  1  5  1  0
  1  6  1  0
  1  7  1  0
  2  3  1  0
  3  4  2  0
  8  9  2  0
  9 13  1  0
  9 10  1  0
 10 11  1  0
 11 12  2  0
 12 13  1  0
 12 14  1  0
M  RAD  1   3   2
M  END
>  <reaction>  (15) 
kfir_rxn_7531

>  <mol_properties>  (15) 
{"1": {"label": "*0", "atom_type": "O2s"}, "2": {"label": "*1", "atom_type": "CO"}, "11": {"label": "*3", "atom_type": "Cd"}, "12": {"label": "*4", "atom_type": "O2s"}, "13": {"label": "*2", "atom_type": "H0"}}

>  <type>  (15) 
unop_11

>  <geom_source>  (15) 
Heuristics

$$$$

     RDKit          3D

 14 13  0  0  0  0  0  0  0  0999 V2000
   -0.0000    3.9803   -1.3137 C   0  0  0  0  0  0  0  0  0  0  0  0
   -0.0000    2.5561   -1.2026 O   0  0  0  0  0  0  0  0  0  0  0  0
    0.0000    2.0727    0.0364 C   0  0  0  0  0  3  0  0  0  0  0  0
   -0.0000    2.7216    1.0404 O   0  0  0  0  0  0  0  0  0  0  0  0
    0.8874    4.3995   -0.8400 H   0  0  0  0  0  0  0  0  0  0  0  0
   -0.0000    4.1939   -2.3787 H   0  0  0  0  0  0  0  0  0  0  0  0
   -0.8874    4.3995   -0.8400 H   0  0  0  0  0  0  0  0  0  0  0  0
    0.0000   -3.4899    1.4211 O   0  0  0  0  0  0  0  0  0  0  0  0
    0.0000   -2.5570    0.7021 C   0  0  0  0  0  0  0  0  0  0  0  0
    0.0000   -2.5570   -0.6470 O   0  0  0  0  0  0  0  0  0  0  0  0
    0.0000   -1.2357   -1.1127 N   0  0  0  0  0  0  0  0  0  0  0  0
    0.0000   -0.5364   -0.0537 C   0  0  0  0  0  0  0  0  0  0  0  0
    0.0000   -1.2356    1.0905 O   0  0  0  0  0  0  0  0  0  0  0  0
    0.0000    0.7558   -0.0091 H   0  0  0  0  0  0  0  0  0  0  0  0
  1  2  1  0
  1  5  1  0
  1  6  1  0
  1  7  1  0
  2  3  1  0
  3  4  2  0
  8  9  2  0
  9 13  1  0
  9 10  1  0
 10 11  1  0
 11 12  2  0
 12 13  1  0
 12 14  1  0
M  RAD  1   3   2
M  END
>  <reaction>  (16) 
kfir_rxn_7531

>  <mol_properties>  (16) 
{"1": {"label": "*0", "atom_type": "O2s"}, "2": {"label": "*1", "atom_type": "CO"}, "11": {"label": "*3", "atom_type": "Cd"}, "12": {"label": "*4", "atom_type": "O2s"}, "13": {"label": "*2", "atom_type": "H0"}}

>  <type>  (16) 
unop_12

>  <geom_source>  (16) 
Heuristics

$$$$

     RDKit          3D

 14 13  0  0  0  0  0  0  0  0999 V2000
   -0.9079    3.9209   -1.0027 C   0  0  0  0  0  0  0  0  0  0  0  0
   -0.4712    2.5637   -1.0924 O   0  0  0  0  0  0  0  0  0  0  0  0
    0.1563    2.0861   -0.0215 C   0  0  0  0  0  3  0  0  0  0  0  0
    0.3780    2.6896    0.9864 O   0  0  0  0  0  0  0  0  0  0  0  0
   -0.0582    4.5850   -0.8455 H   0  0  0  0  0  0  0  0  0  0  0  0
   -1.3916    4.1393   -1.9504 H   0  0  0  0  0  0  0  0  0  0  0  0
   -1.6105    4.0415   -0.1784 H   0  0  0  0  0  0  0  0  0  0  0  0
    0.1563   -3.4764    1.3633 O   0  0  0  0  0  0  0  0  0  0  0  0
    0.1563   -2.5436    0.6442 C   0  0  0  0  0  0  0  0  0  0  0  0
    0.1563   -2.5436   -0.7049 O   0  0  0  0  0  0  0  0  0  0  0  0
    0.1563   -1.2222   -1.1705 N   0  0  0  0  0  0  0  0  0  0  0  0
    0.1563   -0.5230   -0.1115 C   0  0  0  0  0  0  0  0  0  0  0  0
    0.1563   -1.2222    1.0327 O   0  0  0  0  0  0  0  0  0  0  0  0
    0.1563    0.7693   -0.0669 H   0  0  0  0  0  0  0  0  0  0  0  0
  1  2  1  0
  1  5  1  0
  1  6  1  0
  1  7  1  0
  2  3  1  0
  3  4  2  0
  8  9  2  0
  9 13  1  0
  9 10  1  0
 10 11  1  0
 11 12  2  0
 12 13  1  0
 12 14  1  0
M  RAD  1   3   2
M  END
>  <reaction>  (17) 
kfir_rxn_7531

>  <mol_properties>  (17) 
{"1": {"label": "*0", "atom_type": "O2s"}, "2": {"label": "*1", "atom_type": "CO"}, "11": {"label": "*3", "atom_type": "Cd"}, "12": {"label": "*4", "atom_type": "O2s"}, "13": {"label": "*2", "atom_type": "H0"}}

>  <type>  (17) 
unop_13

>  <geom_source>  (17) 
gaussian_log

$$$$
