
     RDKit          3D

  6  5  0  0  0  0  0  0  0  0999 V2000
   -0.4901    0.0045    0.0014 C   0  0  0  0  0  0  0  0  0  0  0  0
    0.9645   -0.0089   -0.0027 C   0  0  0  0  0  0  0  0  0  0  0  0
    2.1108   -0.0195   -0.0059 N   0  0  0  0  0  0  0  0  0  0  0  0
   -0.8700   -0.6407   -0.7900 H   0  0  0  0  0  0  0  0  0  0  0  0
   -0.8625   -0.3540    0.9604 H   0  0  0  0  0  0  0  0  0  0  0  0
   -0.8530    1.0185   -0.1631 H   0  0  0  0  0  0  0  0  0  0  0  0
  1  2  1  0
  1  4  1  0
  1  5  1  0
  1  6  1  0
  2  3  3  0
M  END
>  <reaction>  (1) 
kfir_rxn_4303

>  <mol_properties>  (1) 
{"0": {"label": "donator", "atom_type": "Cs"}, "3": {"label": "d_hydrogen", "atom_type": "H0"}}

>  <type>  (1) 
r1h

$$$$

     RDKit          3D

  7  7  0  0  0  0  0  0  0  0999 V2000
   -0.0087   -0.9771    0.4985 N   0  0  0  0  0  0  0  0  0  0  0  0
   -1.0258   -0.2095    0.3773 N   0  0  0  0  0  0  0  0  0  0  0  0
   -0.7499    1.0803   -0.0055 N   0  0  0  0  0  0  0  0  0  0  0  0
    0.4942    1.1558   -0.1387 N   0  0  0  0  0  0  0  0  0  0  0  0
    1.0454   -0.1234    0.1664 C   0  0  0  0  0  0  0  0  0  0  0  0
    2.2188   -0.4176    0.1422 O   0  0  0  0  0  1  0  0  0  0  0  0
   -1.9740   -0.5085    0.5459 H   0  0  0  0  0  0  0  0  0  0  0  0
  1  5  2  0
  1  2  1  0
  2  3  1  0
  2  7  1  0
  3  4  2  0
  4  5  1  0
  5  6  1  0
M  RAD  1   6   2
M  END
>  <reaction>  (2) 
kfir_rxn_4303

>  <mol_properties>  (2) 
{"0": {"label": "acceptor", "atom_type": "N3s"}}

>  <type>  (2) 
r2

$$$$

     RDKit          3D

  8  8  0  0  0  0  0  0  0  0999 V2000
    2.2321    0.2415    0.0351 O   0  0  0  0  0  0  0  0  0  0  0  0
    1.0810   -0.0777    0.0301 C   0  0  0  0  0  0  0  0  0  0  0  0
    0.5306   -1.3900   -0.1173 N   0  0  0  0  0  0  0  0  0  0  0  0
   -0.7189   -1.3072   -0.1622 N   0  0  0  0  0  0  0  0  0  0  0  0
   -1.1242   -0.0254   -0.1420 N   0  0  0  0  0  0  0  0  0  0  0  0
   -0.0292    0.7513    0.1702 N   0  0  0  0  0  0  0  0  0  0  0  0
   -1.9681    0.1232    0.3952 H   0  0  0  0  0  0  0  0  0  0  0  0
   -0.0033    1.6843   -0.2093 H   0  0  0  0  0  0  0  0  0  0  0  0
  1  2  2  0
  2  6  1  0
  2  3  1  0
  3  4  2  0
  4  5  1  0
  5  6  1  0
  5  7  1  0
  6  8  1  0
M  END
>  <reaction>  (3) 
kfir_rxn_4303

>  <mol_properties>  (3) 
{"0": {"label": "acceptor", "atom_type": "N3s"}, "7": {"label": "a_hydrogen", "atom_type": "H0"}}

>  <type>  (3) 
r2h

$$$$

     RDKit          3D

 13 12  0  0  0  0  0  0  0  0999 V2000
    0.2101   -0.1412    1.2126 N   0  0  0  0  0  0  0  0  0  0  0  0
   -0.9266    0.5262    0.9925 N   0  0  0  0  0  0  0  0  0  0  0  0
   -1.8898   -0.2418    0.4835 N   0  0  0  0  0  0  0  0  0  0  0  0
   -1.4423   -1.4020    0.2755 N   0  0  0  0  0  0  0  0  0  0  0  0
   -0.0823   -1.4312    0.6771 C   0  0  0  0  0  0  0  0  0  0  0  0
    0.6998   -2.3311    0.5796 O   0  0  0  0  0  0  0  0  0  0  0  0
   -1.1233    1.4372    1.3710 H   0  0  0  0  0  0  0  0  0  0  0  0
    2.0056    0.9185   -0.3515 C   0  0  0  0  0  0  0  0  0  0  0  0
    1.2662    2.0911   -0.6106 C   0  0  0  0  0  0  0  0  0  0  0  0
    0.5703    3.0044   -0.7337 N   0  0  0  0  0  2  0  0  0  0  0  0
    1.1391    0.3232    0.6259 H   0  0  0  0  0  0  0  0  0  0  0  0
    2.0456    0.1850   -1.1497 H   0  0  0  0  0  0  0  0  0  0  0  0
    2.9174    1.0430    0.2234 H   0  0  0  0  0  0  0  0  0  0  0  0
  1  5  1  0
  1  2  1  0
  1 11  1  0
  2  3  1  0
  2  7  1  0
  3  4  2  0
  4  5  1  0
  5  6  2  0
  8  9  2  0
  8 12  1  0
  8 13  1  0
  9 10  2  0
M  RAD  1  10   2
M  END
>  <reaction>  (4) 
kfir_rxn_4303

>  <mol_properties>  (4) 
{"0": {"label": "*1", "atom_type": "N3s"}, "1": {"label": "*0", "atom_type": "N3s"}, "7": {"label": "*3", "atom_type": "Cd"}, "8": {"label": "*4", "atom_type": "Cdd"}, "10": {"label": "*2", "atom_type": "H0"}}

>  <type>  (4) 
ts

$$$$

     RDKit          3D

 13 12  0  0  0  0  0  0  0  0999 V2000
   -0.3285    0.0687    0.2620 N   0  0  0  0  0  0  0  0  0  0  0  0
   -1.7038    0.0787    0.1703 N   0  0  0  0  0  0  0  0  0  0  0  0
   -2.1782   -0.7602    1.1079 N   0  0  0  0  0  0  0  0  0  0  0  0
   -1.2585   -1.4454    1.6125 N   0  0  0  0  0  0  0  0  0  0  0  0
   -0.0061   -1.0219    1.0657 C   0  0  0  0  0  0  0  0  0  0  0  0
    1.0759   -1.4918    1.2539 O   0  0  0  0  0  0  0  0  0  0  0  0
   -2.1629    0.9798    0.1648 H   0  0  0  0  0  0  0  0  0  0  0  0
    1.5060    1.5621   -0.5966 C   0  0  0  0  0  0  0  0  0  0  0  0
    1.5060    1.5621   -2.0513 C   0  0  0  0  0  0  0  0  0  0  0  0
    1.5060    1.5621   -3.1977 N   0  0  0  0  0  2  0  0  0  0  0  0
    0.5529    0.7863   -0.1505 H   0  0  0  0  0  0  0  0  0  0  0  0
    2.4630    1.1976   -0.2249 H   0  0  0  0  0  0  0  0  0  0  0  0
    1.3432    2.5732   -0.2249 H   0  0  0  0  0  0  0  0  0  0  0  0
  1  5  1  0
  1  2  1  0
  1 11  1  0
  2  3  1  0
  2  7  1  0
  3  4  2  0
  4  5  1  0
  5  6  2  0
  8  9  2  0
  8 12  1  0
  8 13  1  0
  9 10  2  0
M  RAD  1  10   2
M  END
>  <reaction>  (5) 
kfir_rxn_4303

>  <mol_properties>  (5) 
{"0": {"label": "*1", "atom_type": "N3s"}, "1": {"label": "*0", "atom_type": "N3s"}, "7": {"label": "*3", "atom_type": "Cd"}, "8": {"label": "*4", "atom_type": "Cdd"}, "10": {"label": "*2", "atom_type": "H0"}}

>  <type>  (5) 
unop_1

>  <geom_source>  (5) 
Heuristics

$$$$

     RDKit          3D

 13 12  0  0  0  0  0  0  0  0999 V2000
   -0.0500    0.0183    0.8257 N   0  0  0  0  0  0  0  0  0  0  0  0
   -1.1447    0.3717    1.5851 N   0  0  0  0  0  0  0  0  0  0  0  0
   -2.0270   -0.6408    1.5194 N   0  0  0  0  0  0  0  0  0  0  0  0
   -1.7016   -1.4713    0.6393 N   0  0  0  0  0  0  0  0  0  0  0  0
   -0.4456   -1.0849    0.0736 C   0  0  0  0  0  0  0  0  0  0  0  0
    0.1386   -1.5915   -0.8369 O   0  0  0  0  0  0  0  0  0  0  0  0
   -0.9718    0.6965    2.5271 H   0  0  0  0  0  0  0  0  0  0  0  0
    1.7844    1.5116   -0.0329 C   0  0  0  0  0  0  0  0  0  0  0  0
    1.7844    1.5116   -1.4876 C   0  0  0  0  0  0  0  0  0  0  0  0
    1.7844    1.5116   -2.6340 N   0  0  0  0  0  2  0  0  0  0  0  0
    0.8314    0.7358    0.4132 H   0  0  0  0  0  0  0  0  0  0  0  0
    2.7415    1.1471    0.3388 H   0  0  0  0  0  0  0  0  0  0  0  0
    1.6217    2.5227    0.3388 H   0  0  0  0  0  0  0  0  0  0  0  0
  1  5  1  0
  1  2  1  0
  1 11  1  0
  2  3  1  0
  2  7  1  0
  3  4  2  0
  4  5  1  0
  5  6  2  0
  8  9  2  0
  8 12  1  0
  8 13  1  0
  9 10  2  0
M  RAD  1  10   2
M  END
>  <reaction>  (6) 
kfir_rxn_4303

>  <mol_properties>  (6) 
{"0": {"label": "*1", "atom_type": "N3s"}, "1": {"label": "*0", "atom_type": "N3s"}, "7": {"label": "*3", "atom_type": "Cd"}, "8": {"label": "*4", "atom_type": "Cdd"}, "10": {"label": "*2", "atom_type": "H0"}}

>  <type>  (6) 
unop_2

>  <geom_source>  (6) 
Heuristics

$$$$

     RDKit          3D

 13 12  0  0  0  0  0  0  0  0999 V2000
   -0.2858   -0.0150    0.1967 N   0  0  0  0  0  0  0  0  0  0  0  0
   -1.4588   -0.4998   -0.3410 N   0  0  0  0  0  0  0  0  0  0  0  0
   -2.1088   -1.1594    0.6339 N   0  0  0  0  0  0  0  0  0  0  0  0
   -1.3772   -1.3242    1.6377 N   0  0  0  0  0  0  0  0  0  0  0  0
   -0.1261   -0.6661    1.4173 C   0  0  0  0  0  0  0  0  0  0  0  0
    0.8406   -0.6686    2.1190 O   0  0  0  0  0  0  0  0  0  0  0  0
   -2.0432    0.1527   -0.8464 H   0  0  0  0  0  0  0  0  0  0  0  0
    1.5486    1.4783   -0.6619 C   0  0  0  0  0  0  0  0  0  0  0  0
    1.5486    1.4783   -2.1166 C   0  0  0  0  0  0  0  0  0  0  0  0
    1.5486    1.4783   -3.2630 N   0  0  0  0  0  2  0  0  0  0  0  0
    0.5955    0.7025   -0.2158 H   0  0  0  0  0  0  0  0  0  0  0  0
    2.5056    1.1138   -0.2902 H   0  0  0  0  0  0  0  0  0  0  0  0
    1.3858    2.4894   -0.2902 H   0  0  0  0  0  0  0  0  0  0  0  0
  1  5  1  0
  1  2  1  0
  1 11  1  0
  2  3  1  0
  2  7  1  0
  3  4  2  0
  4  5  1  0
  5  6  2  0
  8  9  2  0
  8 12  1  0
  8 13  1  0
  9 10  2  0
M  RAD  1  10   2
M  END
>  <reaction>  (7) 
kfir_rxn_4303

>  <mol_properties>  (7) 
{"0": {"label": "*1", "atom_type": "N3s"}, "1": {"label": "*0", "atom_type": "N3s"}, "7": {"label": "*3", "atom_type": "Cd"}, "8": {"label": "*4", "atom_type": "Cdd"}, "10": {"label": "*2", "atom_type": "H0"}}

>  <type>  (7) 
unop_3

>  <geom_source>  (7) 
Heuristics

$$$$

     RDKit          3D

 13 12  0  0  0  0  0  0  0  0999 V2000
    0.0690   -0.7407    0.4516 N   0  0  0  0  0  0  0  0  0  0  0  0
    0.2384   -0.2775    1.7387 N   0  0  0  0  0  0  0  0  0  0  0  0
   -0.9826   -0.0276    2.2431 N   0  0  0  0  0  0  0  0  0  0  0  0
   -1.8613   -0.0723    1.3509 N   0  0  0  0  0  0  0  0  0  0  0  0
   -1.2542   -0.4648    0.1163 C   0  0  0  0  0  0  0  0  0  0  0  0
   -1.7626   -0.5428   -0.9619 O   0  0  0  0  0  0  0  0  0  0  0  0
    0.8266   -0.8222    2.3552 H   0  0  0  0  0  0  0  0  0  0  0  0
    1.9034    0.7526   -0.4071 C   0  0  0  0  0  0  0  0  0  0  0  0
    1.9034    0.7526   -1.8617 C   0  0  0  0  0  0  0  0  0  0  0  0
    1.9034    0.7526   -3.0082 N   0  0  0  0  0  2  0  0  0  0  0  0
    0.9503   -0.0232    0.0390 H   0  0  0  0  0  0  0  0  0  0  0  0
    2.8604    0.3881   -0.0354 H   0  0  0  0  0  0  0  0  0  0  0  0
    1.7406    1.7637   -0.0354 H   0  0  0  0  0  0  0  0  0  0  0  0
  1  5  1  0
  1  2  1  0
  1 11  1  0
  2  3  1  0
  2  7  1  0
  3  4  2  0
  4  5  1  0
  5  6  2  0
  8  9  2  0
  8 12  1  0
  8 13  1  0
  9 10  2  0
M  RAD  1  10   2
M  END
>  <reaction>  (8) 
kfir_rxn_4303

>  <mol_properties>  (8) 
{"0": {"label": "*1", "atom_type": "N3s"}, "1": {"label": "*0", "atom_type": "N3s"}, "7": {"label": "*3", "atom_type": "Cd"}, "8": {"label": "*4", "atom_type": "Cdd"}, "10": {"label": "*2", "atom_type": "H0"}}

>  <type>  (8) 
unop_4

>  <geom_source>  (8) 
Heuristics

$$$$

     RDKit          3D

 13 12  0  0  0  0  0  0  0  0999 V2000
   -0.4319   -0.0078    0.1378 N   0  0  0  0  0  0  0  0  0  0  0  0
   -0.5100   -1.2778   -0.3922 N   0  0  0  0  0  0  0  0  0  0  0  0
   -1.0119   -2.0838    0.5599 N   0  0  0  0  0  0  0  0  0  0  0  0
   -1.0439   -1.5084    1.6725 N   0  0  0  0  0  0  0  0  0  0  0  0
   -0.6117   -0.1542    1.5110 C   0  0  0  0  0  0  0  0  0  0  0  0
   -0.4433    0.6708    2.3584 O   0  0  0  0  0  0  0  0  0  0  0  0
   -0.9653   -1.3800   -1.2894 H   0  0  0  0  0  0  0  0  0  0  0  0
    1.4025    1.4855   -0.7208 C   0  0  0  0  0  0  0  0  0  0  0  0
    1.4025    1.4855   -2.1754 C   0  0  0  0  0  0  0  0  0  0  0  0
    1.4025    1.4855   -3.3219 N   0  0  0  0  0  2  0  0  0  0  0  0
    0.4495    0.7097   -0.2747 H   0  0  0  0  0  0  0  0  0  0  0  0
    2.3595    1.1210   -0.3491 H   0  0  0  0  0  0  0  0  0  0  0  0
    1.2397    2.4966   -0.3491 H   0  0  0  0  0  0  0  0  0  0  0  0
  1  5  1  0
  1  2  1  0
  1 11  1  0
  2  3  1  0
  2  7  1  0
  3  4  2  0
  4  5  1  0
  5  6  2  0
  8  9  2  0
  8 12  1  0
  8 13  1  0
  9 10  2  0
M  RAD  1  10   2
M  END
>  <reaction>  (9) 
kfir_rxn_4303

>  <mol_properties>  (9) 
{"0": {"label": "*1", "atom_type": "N3s"}, "1": {"label": "*0", "atom_type": "N3s"}, "7": {"label": "*3", "atom_type": "Cd"}, "8": {"label": "*4", "atom_type": "Cdd"}, "10": {"label": "*2", "atom_type": "H0"}}

>  <type>  (9) 
unop_5

>  <geom_source>  (9) 
Heuristics

$$$$

     RDKit          3D

 13 12  0  0  0  0  0  0  0  0999 V2000
   -0.1231   -0.7643    0.1814 N   0  0  0  0  0  0  0  0  0  0  0  0
    0.5605   -0.6558    1.3735 N   0  0  0  0  0  0  0  0  0  0  0  0
   -0.3384   -0.3666    2.3307 N   0  0  0  0  0  0  0  0  0  0  0  0
   -1.4504   -0.0694    1.8357 N   0  0  0  0  0  0  0  0  0  0  0  0
   -1.3884   -0.2320    0.4157 C   0  0  0  0  0  0  0  0  0  0  0  0
   -2.2295    0.0262   -0.3923 O   0  0  0  0  0  0  0  0  0  0  0  0
    1.1858   -1.4110    1.6213 H   0  0  0  0  0  0  0  0  0  0  0  0
    1.7113    0.7290   -0.6772 C   0  0  0  0  0  0  0  0  0  0  0  0
    1.7113    0.7290   -2.1319 C   0  0  0  0  0  0  0  0  0  0  0  0
    1.7113    0.7290   -3.2783 N   0  0  0  0  0  2  0  0  0  0  0  0
    0.7583   -0.0468   -0.2311 H   0  0  0  0  0  0  0  0  0  0  0  0
    2.6684    0.3645   -0.3055 H   0  0  0  0  0  0  0  0  0  0  0  0
    1.5486    1.7401   -0.3055 H   0  0  0  0  0  0  0  0  0  0  0  0
  1  5  1  0
  1  2  1  0
  1 11  1  0
  2  3  1  0
  2  7  1  0
  3  4  2  0
  4  5  1  0
  5  6  2  0
  8  9  2  0
  8 12  1  0
  8 13  1  0
  9 10  2  0
M  RAD  1  10   2
M  END
>  <reaction>  (10) 
kfir_rxn_4303

>  <mol_properties>  (10) 
{"0": {"label": "*1", "atom_type": "N3s"}, "1": {"label": "*0", "atom_type": "N3s"}, "7": {"label": "*3", "atom_type": "Cd"}, "8": {"label": "*4", "atom_type": "Cdd"}, "10": {"label": "*2", "atom_type": "H0"}}

>  <type>  (10) 
unop_6

>  <geom_source>  (10) 
Heuristics

$$$$

     RDKit          3D

 13 12  0  0  0  0  0  0  0  0999 V2000
   -0.3650   -0.6141   -0.0081 N   0  0  0  0  0  0  0  0  0  0  0  0
    0.6492   -0.9854    0.8482 N   0  0  0  0  0  0  0  0  0  0  0  0
    0.1542   -0.9579    2.0981 N   0  0  0  0  0  0  0  0  0  0  0  0
   -0.9700   -0.4055    2.1301 N   0  0  0  0  0  0  0  0  0  0  0  0
   -1.3676   -0.0772    0.7955 C   0  0  0  0  0  0  0  0  0  0  0  0
   -2.3401    0.5203    0.4431 O   0  0  0  0  0  0  0  0  0  0  0  0
    1.1528   -1.8353    0.6317 H   0  0  0  0  0  0  0  0  0  0  0  0
    1.4694    0.8792   -0.8668 C   0  0  0  0  0  0  0  0  0  0  0  0
    1.4694    0.8792   -2.3214 C   0  0  0  0  0  0  0  0  0  0  0  0
    1.4694    0.8792   -3.4679 N   0  0  0  0  0  2  0  0  0  0  0  0
    0.5163    0.1034   -0.4207 H   0  0  0  0  0  0  0  0  0  0  0  0
    2.4264    0.5147   -0.4951 H   0  0  0  0  0  0  0  0  0  0  0  0
    1.3066    1.8903   -0.4951 H   0  0  0  0  0  0  0  0  0  0  0  0
  1  5  1  0
  1  2  1  0
  1 11  1  0
  2  3  1  0
  2  7  1  0
  3  4  2  0
  4  5  1  0
  5  6  2  0
  8  9  2  0
  8 12  1  0
  8 13  1  0
  9 10  2  0
M  RAD  1  10   2
M  END
>  <reaction>  (11) 
kfir_rxn_4303

>  <mol_properties>  (11) 
{"0": {"label": "*1", "atom_type": "N3s"}, "1": {"label": "*0", "atom_type": "N3s"}, "7": {"label": "*3", "atom_type": "Cd"}, "8": {"label": "*4", "atom_type": "Cdd"}, "10": {"label": "*2", "atom_type": "H0"}}

>  <type>  (11) 
unop_7

>  <geom_source>  (11) 
Heuristics

$$$$

     RDKit          3D

 13 12  0  0  0  0  0  0  0  0999 V2000
   -0.3238    0.1670    0.4356 N   0  0  0  0  0  0  0  0  0  0  0  0
   -1.6567    0.3494    0.7356 N   0  0  0  0  0  0  0  0  0  0  0  0
   -2.0755   -0.7426    1.3990 N   0  0  0  0  0  0  0  0  0  0  0  0
   -1.2235   -1.6600    1.3487 N   0  0  0  0  0  0  0  0  0  0  0  0
   -0.0593   -1.1800    0.6699 C   0  0  0  0  0  0  0  0  0  0  0  0
    0.9227   -1.7909    0.3706 O   0  0  0  0  0  0  0  0  0  0  0  0
   -1.9183    1.2184    1.1819 H   0  0  0  0  0  0  0  0  0  0  0  0
    1.5106    1.6604   -0.4230 C   0  0  0  0  0  0  0  0  0  0  0  0
    1.5106    1.6604   -1.8777 C   0  0  0  0  0  0  0  0  0  0  0  0
    1.5106    1.6604   -3.0241 N   0  0  0  0  0  2  0  0  0  0  0  0
    0.5576    0.8846    0.0231 H   0  0  0  0  0  0  0  0  0  0  0  0
    2.4676    1.2959   -0.0513 H   0  0  0  0  0  0  0  0  0  0  0  0
    1.3478    2.6715   -0.0513 H   0  0  0  0  0  0  0  0  0  0  0  0
  1  5  1  0
  1  2  1  0
  1 11  1  0
  2  3  1  0
  2  7  1  0
  3  4  2  0
  4  5  1  0
  5  6  2  0
  8  9  2  0
  8 12  1  0
  8 13  1  0
  9 10  2  0
M  RAD  1  10   2
M  END
>  <reaction>  (12) 
kfir_rxn_4303

>  <mol_properties>  (12) 
{"0": {"label": "*1", "atom_type": "N3s"}, "1": {"label": "*0", "atom_type": "N3s"}, "7": {"label": "*3", "atom_type": "Cd"}, "8": {"label": "*4", "atom_type": "Cdd"}, "10": {"label": "*2", "atom_type": "H0"}}

>  <type>  (12) 
unop_8

>  <geom_source>  (12) 
Heuristics

$$$$

     RDKit          3D

 13 12  0  0  0  0  0  0  0  0999 V2000
    0.1547   -0.5514    0.7075 N   0  0  0  0  0  0  0  0  0  0  0  0
   -0.2368    0.0553    1.8817 N   0  0  0  0  0  0  0  0  0  0  0  0
   -1.5770   -0.0267    1.9525 N   0  0  0  0  0  0  0  0  0  0  0  0
   -2.0673   -0.4122    0.8657 N   0  0  0  0  0  0  0  0  0  0  0  0
   -1.0059   -0.7150   -0.0446 C   0  0  0  0  0  0  0  0  0  0  0  0
   -1.0895   -1.0382   -1.1915 O   0  0  0  0  0  0  0  0  0  0  0  0
    0.2310   -0.2308    2.7314 H   0  0  0  0  0  0  0  0  0  0  0  0
    1.9891    0.9419   -0.1511 C   0  0  0  0  0  0  0  0  0  0  0  0
    1.9891    0.9419   -1.6058 C   0  0  0  0  0  0  0  0  0  0  0  0
    1.9891    0.9419   -2.7522 N   0  0  0  0  0  2  0  0  0  0  0  0
    1.0361    0.1661    0.2950 H   0  0  0  0  0  0  0  0  0  0  0  0
    2.9461    0.5774    0.2206 H   0  0  0  0  0  0  0  0  0  0  0  0
    1.8263    1.9530    0.2206 H   0  0  0  0  0  0  0  0  0  0  0  0
  1  5  1  0
  1  2  1  0
  1 11  1  0
  2  3  1  0
  2  7  1  0
  3  4  2  0
  4  5  1  0
  5  6  2  0
  8  9  2  0
  8 12  1  0
  8 13  1  0
  9 10  2  0
M  RAD  1  10   2
M  END
>  <reaction>  (13) 
kfir_rxn_4303

>  <mol_properties>  (13) 
{"0": {"label": "*1", "atom_type": "N3s"}, "1": {"label": "*0", "atom_type": "N3s"}, "7": {"label": "*3", "atom_type": "Cd"}, "8": {"label": "*4", "atom_type": "Cdd"}, "10": {"label": "*2", "atom_type": "H0"}}

>  <type>  (13) 
unop_9

>  <geom_source>  (13) 
Heuristics

$$$$

     RDKit          3D

 13 12  0  0  0  0  0  0  0  0999 V2000
   -0.2215    0.1676    0.6563 N   0  0  0  0  0  0  0  0  0  0  0  0
   -1.4524    0.4156    1.2249 N   0  0  0  0  0  0  0  0  0  0  0  0
   -2.0215   -0.7728    1.4928 N   0  0  0  0  0  0  0  0  0  0  0  0
   -1.3867   -1.7118    0.9587 N   0  0  0  0  0  0  0  0  0  0  0  0
   -0.2198   -1.1840    0.3211 C   0  0  0  0  0  0  0  0  0  0  0  0
    0.5808   -1.7663   -0.3475 O   0  0  0  0  0  0  0  0  0  0  0  0
   -1.4840    1.0629    2.0014 H   0  0  0  0  0  0  0  0  0  0  0  0
    1.6129    1.6610   -0.2024 C   0  0  0  0  0  0  0  0  0  0  0  0
    1.6129    1.6610   -1.6570 C   0  0  0  0  0  0  0  0  0  0  0  0
    1.6129    1.6610   -2.8035 N   0  0  0  0  0  2  0  0  0  0  0  0
    0.6598    0.8851    0.2437 H   0  0  0  0  0  0  0  0  0  0  0  0
    2.5699    1.2964    0.1693 H   0  0  0  0  0  0  0  0  0  0  0  0
    1.4501    2.6720    0.1693 H   0  0  0  0  0  0  0  0  0  0  0  0
  1  5  1  0
  1  2  1  0
  1 11  1  0
  2  3  1  0
  2  7  1  0
  3  4  2  0
  4  5  1  0
  5  6  2  0
  8  9  2  0
  8 12  1  0
  8 13  1  0
  9 10  2  0
M  RAD  1  10   2
M  END
>  <reaction>  (14) 
kfir_rxn_4303

>  <mol_properties>  (14) 
{"0": {"label": "*1", "atom_type": "N3s"}, "1": {"label": "*0", "atom_type": "N3s"}, "7": {"label": "*3", "atom_type": "Cd"}, "8": {"label": "*4", "atom_type": "Cdd"}, "10": {"label": "*2", "atom_type": "H0"}}

>  <type>  (14) 
unop_10

>  <geom_source>  (14) 
Heuristics

$$$$

     RDKit          3D

 13 12  0  0  0  0  0  0  0  0999 V2000
   -0.5525   -0.3083   -0.0338 N   0  0  0  0  0  0  0  0  0  0  0  0
    0.4187   -1.2481    0.2374 N   0  0  0  0  0  0  0  0  0  0  0  0
    0.1955   -1.7145    1.4786 N   0  0  0  0  0  0  0  0  0  0  0  0
   -0.6569   -1.0196    2.0792 N   0  0  0  0  0  0  0  0  0  0  0  0
   -1.1577   -0.0198    1.1868 C   0  0  0  0  0  0  0  0  0  0  0  0
   -1.9241    0.8643    1.4274 O   0  0  0  0  0  0  0  0  0  0  0  0
    0.5644   -1.9773   -0.4481 H   0  0  0  0  0  0  0  0  0  0  0  0
    1.2819    1.1850   -0.8924 C   0  0  0  0  0  0  0  0  0  0  0  0
    1.2819    1.1850   -2.3471 C   0  0  0  0  0  0  0  0  0  0  0  0
    1.2819    1.1850   -3.4935 N   0  0  0  0  0  2  0  0  0  0  0  0
    0.3289    0.4092   -0.4463 H   0  0  0  0  0  0  0  0  0  0  0  0
    2.2389    0.8205   -0.5207 H   0  0  0  0  0  0  0  0  0  0  0  0
    1.1191    2.1961   -0.5207 H   0  0  0  0  0  0  0  0  0  0  0  0
  1  5  1  0
  1  2  1  0
  1 11  1  0
  2  3  1  0
  2  7  1  0
  3  4  2  0
  4  5  1  0
  5  6  2  0
  8  9  2  0
  8 12  1  0
  8 13  1  0
  9 10  2  0
M  RAD  1  10   2
M  END
>  <reaction>  (15) 
kfir_rxn_4303

>  <mol_properties>  (15) 
{"0": {"label": "*1", "atom_type": "N3s"}, "1": {"label": "*0", "atom_type": "N3s"}, "7": {"label": "*3", "atom_type": "Cd"}, "8": {"label": "*4", "atom_type": "Cdd"}, "10": {"label": "*2", "atom_type": "H0"}}

>  <type>  (15) 
unop_11

>  <geom_source>  (15) 
Heuristics

$$$$

     RDKit          3D

 13 12  0  0  0  0  0  0  0  0999 V2000
    0.1058   -0.2577    0.8519 N   0  0  0  0  0  0  0  0  0  0  0  0
   -0.7343    0.2649    1.8117 N   0  0  0  0  0  0  0  0  0  0  0  0
   -1.9367   -0.3166    1.6574 N   0  0  0  0  0  0  0  0  0  0  0  0
   -1.9944   -0.9650    0.5868 N   0  0  0  0  0  0  0  0  0  0  0  0
   -0.7153   -0.9261   -0.0528 C   0  0  0  0  0  0  0  0  0  0  0  0
   -0.4125   -1.3675   -1.1207 O   0  0  0  0  0  0  0  0  0  0  0  0
   -0.4049    0.2646    2.7679 H   0  0  0  0  0  0  0  0  0  0  0  0
    1.9402    1.2356   -0.0067 C   0  0  0  0  0  0  0  0  0  0  0  0
    1.9402    1.2356   -1.4614 C   0  0  0  0  0  0  0  0  0  0  0  0
    1.9402    1.2356   -2.6078 N   0  0  0  0  0  2  0  0  0  0  0  0
    0.9871    0.4598    0.4394 H   0  0  0  0  0  0  0  0  0  0  0  0
    2.8972    0.8711    0.3650 H   0  0  0  0  0  0  0  0  0  0  0  0
    1.7774    2.2467    0.3650 H   0  0  0  0  0  0  0  0  0  0  0  0
  1  5  1  0
  1  2  1  0
  1 11  1  0
  2  3  1  0
  2  7  1  0
  3  4  2  0
  4  5  1  0
  5  6  2  0
  8  9  2  0
  8 12  1  0
  8 13  1  0
  9 10  2  0
M  RAD  1  10   2
M  END
>  <reaction>  (16) 
kfir_rxn_4303

>  <mol_properties>  (16) 
{"0": {"label": "*1", "atom_type": "N3s"}, "1": {"label": "*0", "atom_type": "N3s"}, "7": {"label": "*3", "atom_type": "Cd"}, "8": {"label": "*4", "atom_type": "Cdd"}, "10": {"label": "*2", "atom_type": "H0"}}

>  <type>  (16) 
unop_12

>  <geom_source>  (16) 
Heuristics

$$$$
