
     RDKit          3D

  7  6  0  0  0  0  0  0  0  0999 V2000
   -2.1655    1.0146    0.0087 N   0  0  0  0  0  0  0  0  0  0  0  0
   -1.2095    0.3846    0.0054 C   0  0  0  0  0  0  0  0  0  0  0  0
   -0.0101   -0.4520    0.0013 C   0  0  0  0  0  0  0  0  0  0  0  0
    1.2256    0.3300   -0.0075 C   0  0  0  0  0  0  0  0  0  0  0  0
    2.2088    0.9164   -0.0144 N   0  0  0  0  0  0  0  0  0  0  0  0
   -0.0199   -1.0943    0.8846 H   0  0  0  0  0  0  0  0  0  0  0  0
   -0.0293   -1.0993   -0.8781 H   0  0  0  0  0  0  0  0  0  0  0  0
  1  2  3  0
  2  3  1  0
  3  4  1  0
  3  6  1  0
  3  7  1  0
  4  5  3  0
M  END
>  <reaction>  (1) 
kfir_rxn_5389

>  <mol_properties>  (1) 
{"2": {"label": "donator", "atom_type": "Cs"}, "5": {"label": "d_hydrogen", "atom_type": "H0"}}

>  <type>  (1) 
r1h

$$$$

     RDKit          3D

  7  6  0  0  0  0  0  0  0  0999 V2000
   -1.0387    1.3506    0.9579 O   0  0  0  0  0  1  0  0  0  0  0  0
   -0.6359    0.3874    0.3330 C   0  0  0  0  0  0  0  0  0  0  0  0
   -1.4681   -0.3013   -0.5161 N   0  0  0  0  0  0  0  0  0  0  0  0
    0.7504   -0.0303    0.3305 C   0  0  0  0  0  0  0  0  0  0  0  0
    1.8917   -0.3888    0.3665 C   0  0  0  0  0  0  0  0  0  0  0  0
   -2.4085   -0.3164   -0.1139 H   0  0  0  0  0  0  0  0  0  0  0  0
    2.9090   -0.7013    0.3966 H   0  0  0  0  0  0  0  0  0  0  0  0
  1  2  1  0
  2  4  1  0
  2  3  2  3
  3  6  1  0
  4  5  3  0
  5  7  1  0
M  RAD  1   1   2
M  END
>  <reaction>  (2) 
kfir_rxn_5389

>  <mol_properties>  (2) 
{"0": {"label": "acceptor", "atom_type": "O2s"}}

>  <type>  (2) 
r2

$$$$

     RDKit          3D

  8  7  0  0  0  0  0  0  0  0999 V2000
   -1.4545    0.2849   -0.8995 O   0  0  0  0  0  0  0  0  0  0  0  0
   -0.6036   -0.0148    0.0909 C   0  0  0  0  0  0  0  0  0  0  0  0
   -1.0225   -0.3359    1.2385 N   0  0  0  0  0  0  0  0  0  0  0  0
    0.7770    0.0753   -0.3133 C   0  0  0  0  0  0  0  0  0  0  0  0
    1.9372    0.1355   -0.5987 C   0  0  0  0  0  0  0  0  0  0  0  0
   -2.3428    0.1962   -0.5321 H   0  0  0  0  0  0  0  0  0  0  0  0
   -0.2583   -0.5323    1.8737 H   0  0  0  0  0  0  0  0  0  0  0  0
    2.9675    0.1911   -0.8595 H   0  0  0  0  0  0  0  0  0  0  0  0
  1  2  1  0
  1  6  1  0
  2  4  1  0
  2  3  2  3
  3  7  1  0
  4  5  3  0
  5  8  1  0
M  END
>  <reaction>  (3) 
kfir_rxn_5389

>  <mol_properties>  (3) 
{"0": {"label": "acceptor", "atom_type": "O2s"}, "7": {"label": "a_hydrogen", "atom_type": "H0"}}

>  <type>  (3) 
r2h

$$$$

     RDKit          3D

 14 12  0  0  0  0  0  0  0  0999 V2000
    0.7279    0.3397    0.8844 O   0  0  0  0  0  1  0  0  0  0  0  0
    0.4371    1.5714    0.4752 C   0  0  0  0  0  0  0  0  0  0  0  0
   -0.5454    1.8562   -0.2673 N   0  0  0  0  0  0  0  0  0  0  0  0
    1.4166    2.4824    1.0188 C   0  0  0  0  0  0  0  0  0  0  0  0
    2.2206    3.2486    1.4646 C   0  0  0  0  0  0  0  0  0  0  0  0
   -0.5754    2.8493   -0.4649 H   0  0  0  0  0  0  0  0  0  0  0  0
    2.9331    3.9363    1.8564 H   0  0  0  0  0  0  0  0  0  0  0  0
   -0.0144   -1.5124   -2.6872 N   0  0  0  0  0  0  0  0  0  0  0  0
   -0.4548   -1.3593   -1.6393 C   0  0  0  0  0  0  0  0  0  0  0  0
   -0.9924   -1.1368   -0.3179 C   0  0  0  0  0  0  0  0  0  0  0  0
   -1.2347   -2.3304    0.4577 C   0  0  0  0  0  0  0  0  0  0  0  0
   -1.4267   -3.2567    1.1070 N   0  0  0  0  0  0  0  0  0  0  0  0
   -0.1604   -0.5086    0.2846 H   0  0  0  0  0  0  0  0  0  0  0  0
   -1.8416   -0.4549   -0.3327 H   0  0  0  0  0  0  0  0  0  0  0  0
  1  2  1  0
  2  4  1  0
  2  3  2  3
  3  6  1  0
  4  5  3  0
  5  7  1  0
  8  9  3  0
  9 10  1  0
 10 11  1  0
 10 13  1  0
 10 14  1  0
 11 12  3  0
M  RAD  1   1   2
M  END
>  <reaction>  (4) 
kfir_rxn_5389

>  <mol_properties>  (4) 
{"0": {"label": "*3", "atom_type": "O2s"}, "1": {"label": "*4", "atom_type": "Cd"}, "8": {"label": "*0", "atom_type": "Ct"}, "9": {"label": "*1", "atom_type": "Cs"}, "12": {"label": "*2", "atom_type": "H0"}}

>  <type>  (4) 
ts

$$$$

     RDKit          3D

 14 12  0  0  0  0  0  0  0  0999 V2000
    1.0648    0.4174    0.0480 O   0  0  0  0  0  0  0  0  0  0  0  0
    0.6118    1.4636    0.7516 C   0  0  0  0  0  0  0  0  0  0  0  0
   -0.3811    2.1371    0.3565 N   0  0  0  0  0  0  0  0  0  0  0  0
    1.3722    1.6993    1.9532 C   0  0  0  0  0  0  0  0  0  0  0  0
    1.9709    1.9367    2.9613 C   0  0  0  0  0  0  0  0  0  0  0  0
   -0.5989    2.8919    0.9959 H   0  0  0  0  0  0  0  0  0  0  0  0
    2.5035    2.1479    3.8582 H   0  0  0  0  0  0  0  0  0  0  0  0
   -0.9277   -0.8564   -3.3335 N   0  0  0  0  0  2  0  0  0  0  0  0
   -0.9277   -0.8564   -2.1886 C   0  0  0  0  0  0  0  0  0  0  0  0
   -0.9277   -0.8178   -0.7267 C   0  0  0  0  0  0  0  0  0  0  0  0
   -0.9277   -2.1507   -0.1252 C   0  0  0  0  0  0  0  0  0  0  0  0
   -0.9278   -3.1814    0.3732 N   0  0  0  0  0  0  0  0  0  0  0  0
    0.1300   -0.1621   -0.3155 H   0  0  0  0  0  0  0  0  0  0  0  0
   -1.8091   -0.2713   -0.3840 H   0  0  0  0  0  0  0  0  0  0  0  0
  1  2  1  0
  1 13  1  0
  2  4  1  0
  2  3  2  3
  3  6  1  0
  4  5  3  0
  5  7  1  0
  8  9  2  0
  9 10  2  0
 10 11  1  0
 10 14  1  0
 11 12  3  0
M  RAD  1   8   2
M  END
>  <reaction>  (5) 
kfir_rxn_5389

>  <mol_properties>  (5) 
{"0": {"label": "*3", "atom_type": "O2s"}, "1": {"label": "*4", "atom_type": "Cd"}, "8": {"label": "*0", "atom_type": "Ct"}, "9": {"label": "*1", "atom_type": "Cs"}, "12": {"label": "*2", "atom_type": "H0"}}

>  <type>  (5) 
unop_1

>  <geom_source>  (5) 
Heuristics

$$$$

     RDKit          3D

 14 12  0  0  0  0  0  0  0  0999 V2000
    0.6940    0.3359    0.9903 O   0  0  0  0  0  0  0  0  0  0  0  0
    0.9758    1.2352    0.0381 C   0  0  0  0  0  0  0  0  0  0  0  0
    0.5440    1.0969   -1.1408 N   0  0  0  0  0  0  0  0  0  0  0  0
    1.7936    2.3201    0.5198 C   0  0  0  0  0  0  0  0  0  0  0  0
    2.4710    3.2418    0.8700 C   0  0  0  0  0  0  0  0  0  0  0  0
    0.8427    1.8572   -1.7398 H   0  0  0  0  0  0  0  0  0  0  0  0
    3.0737    4.0618    1.1814 H   0  0  0  0  0  0  0  0  0  0  0  0
   -1.2985   -0.9380   -2.3913 N   0  0  0  0  0  2  0  0  0  0  0  0
   -1.2985   -0.9380   -1.2464 C   0  0  0  0  0  0  0  0  0  0  0  0
   -1.2985   -0.8993    0.2155 C   0  0  0  0  0  0  0  0  0  0  0  0
   -1.2985   -2.2322    0.8171 C   0  0  0  0  0  0  0  0  0  0  0  0
   -1.2985   -3.2629    1.3154 N   0  0  0  0  0  0  0  0  0  0  0  0
   -0.2408   -0.2436    0.6268 H   0  0  0  0  0  0  0  0  0  0  0  0
   -2.1799   -0.3529    0.5582 H   0  0  0  0  0  0  0  0  0  0  0  0
  1  2  1  0
  1 13  1  0
  2  4  1  0
  2  3  2  3
  3  6  1  0
  4  5  3  0
  5  7  1  0
  8  9  2  0
  9 10  2  0
 10 11  1  0
 10 14  1  0
 11 12  3  0
M  RAD  1   8   2
M  END
>  <reaction>  (6) 
kfir_rxn_5389

>  <mol_properties>  (6) 
{"0": {"label": "*3", "atom_type": "O2s"}, "1": {"label": "*4", "atom_type": "Cd"}, "8": {"label": "*0", "atom_type": "Ct"}, "9": {"label": "*1", "atom_type": "Cs"}, "12": {"label": "*2", "atom_type": "H0"}}

>  <type>  (6) 
unop_2

>  <geom_source>  (6) 
Heuristics

$$$$

     RDKit          3D

 14 12  0  0  0  0  0  0  0  0999 V2000
    0.9442    0.6624   -0.1206 O   0  0  0  0  0  0  0  0  0  0  0  0
    0.6046    1.2388    1.0401 C   0  0  0  0  0  0  0  0  0  0  0  0
   -0.5864    1.5892    1.2727 N   0  0  0  0  0  0  0  0  0  0  0  0
    1.7243    1.3940    1.9345 C   0  0  0  0  0  0  0  0  0  0  0  0
    2.6201    1.5456    2.7128 C   0  0  0  0  0  0  0  0  0  0  0  0
   -0.6802    2.0083    2.1901 H   0  0  0  0  0  0  0  0  0  0  0  0
    3.4170    1.6803    3.4051 H   0  0  0  0  0  0  0  0  0  0  0  0
   -1.0483   -0.6115   -3.5021 N   0  0  0  0  0  2  0  0  0  0  0  0
   -1.0483   -0.6115   -2.3573 C   0  0  0  0  0  0  0  0  0  0  0  0
   -1.0483   -0.5728   -0.8954 C   0  0  0  0  0  0  0  0  0  0  0  0
   -1.0484   -1.9058   -0.2938 C   0  0  0  0  0  0  0  0  0  0  0  0
   -1.0484   -2.9365    0.2046 N   0  0  0  0  0  0  0  0  0  0  0  0
    0.0093    0.0828   -0.4841 H   0  0  0  0  0  0  0  0  0  0  0  0
   -1.9297   -0.0264   -0.5527 H   0  0  0  0  0  0  0  0  0  0  0  0
  1  2  1  0
  1 13  1  0
  2  4  1  0
  2  3  2  3
  3  6  1  0
  4  5  3  0
  5  7  1  0
  8  9  2  0
  9 10  2  0
 10 11  1  0
 10 14  1  0
 11 12  3  0
M  RAD  1   8   2
M  END
>  <reaction>  (7) 
kfir_rxn_5389

>  <mol_properties>  (7) 
{"0": {"label": "*3", "atom_type": "O2s"}, "1": {"label": "*4", "atom_type": "Cd"}, "8": {"label": "*0", "atom_type": "Ct"}, "9": {"label": "*1", "atom_type": "Cs"}, "12": {"label": "*2", "atom_type": "H0"}}

>  <type>  (7) 
unop_3

>  <geom_source>  (7) 
Heuristics

$$$$

     RDKit          3D

 14 12  0  0  0  0  0  0  0  0999 V2000
    0.2556    1.2942    0.6752 O   0  0  0  0  0  0  0  0  0  0  0  0
    1.3196    0.6267    0.2092 C   0  0  0  0  0  0  0  0  0  0  0  0
    1.2880    0.0464   -0.9123 N   0  0  0  0  0  0  0  0  0  0  0  0
    2.4406    0.6617    1.1147 C   0  0  0  0  0  0  0  0  0  0  0  0
    3.3989    0.6610    1.8307 C   0  0  0  0  0  0  0  0  0  0  0  0
    2.1671   -0.4117   -1.1208 H   0  0  0  0  0  0  0  0  0  0  0  0
    4.2514    0.6603    2.4678 H   0  0  0  0  0  0  0  0  0  0  0  0
   -1.7370    0.0203   -2.7063 N   0  0  0  0  0  2  0  0  0  0  0  0
   -1.7370    0.0203   -1.5615 C   0  0  0  0  0  0  0  0  0  0  0  0
   -1.7370    0.0590   -0.0996 C   0  0  0  0  0  0  0  0  0  0  0  0
   -1.7370   -1.2739    0.5020 C   0  0  0  0  0  0  0  0  0  0  0  0
   -1.7370   -2.3047    1.0004 N   0  0  0  0  0  0  0  0  0  0  0  0
   -0.6793    0.7147    0.3117 H   0  0  0  0  0  0  0  0  0  0  0  0
   -2.6184    0.6054    0.2432 H   0  0  0  0  0  0  0  0  0  0  0  0
  1  2  1  0
  1 13  1  0
  2  4  1  0
  2  3  2  3
  3  6  1  0
  4  5  3  0
  5  7  1  0
  8  9  2  0
  9 10  2  0
 10 11  1  0
 10 14  1  0
 11 12  3  0
M  RAD  1   8   2
M  END
>  <reaction>  (8) 
kfir_rxn_5389

>  <mol_properties>  (8) 
{"0": {"label": "*3", "atom_type": "O2s"}, "1": {"label": "*4", "atom_type": "Cd"}, "8": {"label": "*0", "atom_type": "Ct"}, "9": {"label": "*1", "atom_type": "Cs"}, "12": {"label": "*2", "atom_type": "H0"}}

>  <type>  (8) 
unop_4

>  <geom_source>  (8) 
Heuristics

$$$$

     RDKit          3D

 14 12  0  0  0  0  0  0  0  0999 V2000
    0.8052    0.8463   -0.1548 O   0  0  0  0  0  0  0  0  0  0  0  0
    0.7520    0.8492    1.1838 C   0  0  0  0  0  0  0  0  0  0  0  0
   -0.1957    0.2879    1.8020 N   0  0  0  0  0  0  0  0  0  0  0  0
    1.8635    1.5427    1.7848 C   0  0  0  0  0  0  0  0  0  0  0  0
    2.7652    2.1069    2.3323 C   0  0  0  0  0  0  0  0  0  0  0  0
   -0.0921    0.3776    2.8057 H   0  0  0  0  0  0  0  0  0  0  0  0
    3.5674    2.6088    2.8193 H   0  0  0  0  0  0  0  0  0  0  0  0
   -1.1873   -0.4276   -3.5363 N   0  0  0  0  0  2  0  0  0  0  0  0
   -1.1873   -0.4276   -2.3915 C   0  0  0  0  0  0  0  0  0  0  0  0
   -1.1873   -0.3889   -0.9296 C   0  0  0  0  0  0  0  0  0  0  0  0
   -1.1873   -1.7218   -0.3280 C   0  0  0  0  0  0  0  0  0  0  0  0
   -1.1873   -2.7525    0.1703 N   0  0  0  0  0  0  0  0  0  0  0  0
   -0.1296    0.2668   -0.5183 H   0  0  0  0  0  0  0  0  0  0  0  0
   -2.0687    0.1575   -0.5869 H   0  0  0  0  0  0  0  0  0  0  0  0
  1  2  1  0
  1 13  1  0
  2  4  1  0
  2  3  2  3
  3  6  1  0
  4  5  3  0
  5  7  1  0
  8  9  2  0
  9 10  2  0
 10 11  1  0
 10 14  1  0
 11 12  3  0
M  RAD  1   8   2
M  END
>  <reaction>  (9) 
kfir_rxn_5389

>  <mol_properties>  (9) 
{"0": {"label": "*3", "atom_type": "O2s"}, "1": {"label": "*4", "atom_type": "Cd"}, "8": {"label": "*0", "atom_type": "Ct"}, "9": {"label": "*1", "atom_type": "Cs"}, "12": {"label": "*2", "atom_type": "H0"}}

>  <type>  (9) 
unop_5

>  <geom_source>  (9) 
Heuristics

$$$$

     RDKit          3D

 14 12  0  0  0  0  0  0  0  0999 V2000
    0.3618    1.3811    0.3215 O   0  0  0  0  0  0  0  0  0  0  0  0
    1.3360    0.4735    0.4693 C   0  0  0  0  0  0  0  0  0  0  0  0
    1.5099   -0.4440   -0.3812 N   0  0  0  0  0  0  0  0  0  0  0  0
    2.1131    0.6789    1.6659 C   0  0  0  0  0  0  0  0  0  0  0  0
    2.7877    0.8063    2.6455 C   0  0  0  0  0  0  0  0  0  0  0  0
    2.2832   -1.0470   -0.1276 H   0  0  0  0  0  0  0  0  0  0  0  0
    3.3879    0.9196    3.5171 H   0  0  0  0  0  0  0  0  0  0  0  0
   -1.6307    0.1073   -3.0600 N   0  0  0  0  0  2  0  0  0  0  0  0
   -1.6307    0.1073   -1.9151 C   0  0  0  0  0  0  0  0  0  0  0  0
   -1.6307    0.1460   -0.4533 C   0  0  0  0  0  0  0  0  0  0  0  0
   -1.6308   -1.1870    0.1483 C   0  0  0  0  0  0  0  0  0  0  0  0
   -1.6308   -2.2177    0.6467 N   0  0  0  0  0  0  0  0  0  0  0  0
   -0.5731    0.8016   -0.0420 H   0  0  0  0  0  0  0  0  0  0  0  0
   -2.5121    0.6924   -0.1105 H   0  0  0  0  0  0  0  0  0  0  0  0
  1  2  1  0
  1 13  1  0
  2  4  1  0
  2  3  2  3
  3  6  1  0
  4  5  3  0
  5  7  1  0
  8  9  2  0
  9 10  2  0
 10 11  1  0
 10 14  1  0
 11 12  3  0
M  RAD  1   8   2
M  END
>  <reaction>  (10) 
kfir_rxn_5389

>  <mol_properties>  (10) 
{"0": {"label": "*3", "atom_type": "O2s"}, "1": {"label": "*4", "atom_type": "Cd"}, "8": {"label": "*0", "atom_type": "Ct"}, "9": {"label": "*1", "atom_type": "Cs"}, "12": {"label": "*2", "atom_type": "H0"}}

>  <type>  (10) 
unop_6

>  <geom_source>  (10) 
Heuristics

$$$$

     RDKit          3D

 14 12  0  0  0  0  0  0  0  0999 V2000
    0.5384    1.2809    0.0252 O   0  0  0  0  0  0  0  0  0  0  0  0
    1.2437    0.4270    0.7790 C   0  0  0  0  0  0  0  0  0  0  0  0
    1.3962   -0.7784    0.4336 N   0  0  0  0  0  0  0  0  0  0  0  0
    1.7734    1.0412    1.9706 C   0  0  0  0  0  0  0  0  0  0  0  0
    2.2351    1.5033    2.9728 C   0  0  0  0  0  0  0  0  0  0  0  0
    1.9519   -1.2925    1.1066 H   0  0  0  0  0  0  0  0  0  0  0  0
    2.6458    1.9145    3.8644 H   0  0  0  0  0  0  0  0  0  0  0  0
   -1.4541    0.0070   -3.3563 N   0  0  0  0  0  2  0  0  0  0  0  0
   -1.4541    0.0070   -2.2115 C   0  0  0  0  0  0  0  0  0  0  0  0
   -1.4541    0.0457   -0.7496 C   0  0  0  0  0  0  0  0  0  0  0  0
   -1.4541   -1.2873   -0.1480 C   0  0  0  0  0  0  0  0  0  0  0  0
   -1.4541   -2.3180    0.3503 N   0  0  0  0  0  0  0  0  0  0  0  0
   -0.3964    0.7013   -0.3383 H   0  0  0  0  0  0  0  0  0  0  0  0
   -2.3355    0.5921   -0.4069 H   0  0  0  0  0  0  0  0  0  0  0  0
  1  2  1  0
  1 13  1  0
  2  4  1  0
  2  3  2  3
  3  6  1  0
  4  5  3  0
  5  7  1  0
  8  9  2  0
  9 10  2  0
 10 11  1  0
 10 14  1  0
 11 12  3  0
M  RAD  1   8   2
M  END
>  <reaction>  (11) 
kfir_rxn_5389

>  <mol_properties>  (11) 
{"0": {"label": "*3", "atom_type": "O2s"}, "1": {"label": "*4", "atom_type": "Cd"}, "8": {"label": "*0", "atom_type": "Ct"}, "9": {"label": "*1", "atom_type": "Cs"}, "12": {"label": "*2", "atom_type": "H0"}}

>  <type>  (11) 
unop_7

>  <geom_source>  (11) 
Heuristics

$$$$

     RDKit          3D

 14 12  0  0  0  0  0  0  0  0999 V2000
    1.0660    0.2260    0.3521 O   0  0  0  0  0  0  0  0  0  0  0  0
    0.7027    1.5124    0.4418 C   0  0  0  0  0  0  0  0  0  0  0  0
   -0.0128    2.0537   -0.4473 N   0  0  0  0  0  0  0  0  0  0  0  0
    1.2133    2.1549    1.6268 C   0  0  0  0  0  0  0  0  0  0  0  0
    1.6126    2.7339    2.5945 C   0  0  0  0  0  0  0  0  0  0  0  0
   -0.2000    3.0264   -0.2353 H   0  0  0  0  0  0  0  0  0  0  0  0
    1.9679    3.2489    3.4555 H   0  0  0  0  0  0  0  0  0  0  0  0
   -0.9266   -1.0478   -3.0294 N   0  0  0  0  0  2  0  0  0  0  0  0
   -0.9266   -1.0478   -1.8846 C   0  0  0  0  0  0  0  0  0  0  0  0
   -0.9266   -1.0091   -0.4227 C   0  0  0  0  0  0  0  0  0  0  0  0
   -0.9266   -2.3421    0.1789 C   0  0  0  0  0  0  0  0  0  0  0  0
   -0.9266   -3.3728    0.6772 N   0  0  0  0  0  0  0  0  0  0  0  0
    0.1311   -0.3535   -0.0114 H   0  0  0  0  0  0  0  0  0  0  0  0
   -1.8080   -0.4627   -0.0800 H   0  0  0  0  0  0  0  0  0  0  0  0
  1  2  1  0
  1 13  1  0
  2  4  1  0
  2  3  2  3
  3  6  1  0
  4  5  3  0
  5  7  1  0
  8  9  2  0
  9 10  2  0
 10 11  1  0
 10 14  1  0
 11 12  3  0
M  RAD  1   8   2
M  END
>  <reaction>  (12) 
kfir_rxn_5389

>  <mol_properties>  (12) 
{"0": {"label": "*3", "atom_type": "O2s"}, "1": {"label": "*4", "atom_type": "Cd"}, "8": {"label": "*0", "atom_type": "Ct"}, "9": {"label": "*1", "atom_type": "Cs"}, "12": {"label": "*2", "atom_type": "H0"}}

>  <type>  (12) 
unop_8

>  <geom_source>  (12) 
Heuristics

$$$$

     RDKit          3D

 14 12  0  0  0  0  0  0  0  0999 V2000
    0.2739    1.0251    0.9720 O   0  0  0  0  0  0  0  0  0  0  0  0
    1.2244    0.8274    0.0489 C   0  0  0  0  0  0  0  0  0  0  0  0
    0.9313    0.4616   -1.1240 N   0  0  0  0  0  0  0  0  0  0  0  0
    2.5518    1.0763    0.5527 C   0  0  0  0  0  0  0  0  0  0  0  0
    3.6730    1.2701    0.9221 C   0  0  0  0  0  0  0  0  0  0  0  0
    1.7578    0.3561   -1.7000 H   0  0  0  0  0  0  0  0  0  0  0  0
    4.6705    1.4425    1.2507 H   0  0  0  0  0  0  0  0  0  0  0  0
   -1.7186   -0.2488   -2.4095 N   0  0  0  0  0  2  0  0  0  0  0  0
   -1.7186   -0.2488   -1.2646 C   0  0  0  0  0  0  0  0  0  0  0  0
   -1.7186   -0.2101    0.1973 C   0  0  0  0  0  0  0  0  0  0  0  0
   -1.7187   -1.5430    0.7988 C   0  0  0  0  0  0  0  0  0  0  0  0
   -1.7187   -2.5737    1.2972 N   0  0  0  0  0  0  0  0  0  0  0  0
   -0.6610    0.4456    0.6085 H   0  0  0  0  0  0  0  0  0  0  0  0
   -2.6000    0.3363    0.5400 H   0  0  0  0  0  0  0  0  0  0  0  0
  1  2  1  0
  1 13  1  0
  2  4  1  0
  2  3  2  3
  3  6  1  0
  4  5  3  0
  5  7  1  0
  8  9  2  0
  9 10  2  0
 10 11  1  0
 10 14  1  0
 11 12  3  0
M  RAD  1   8   2
M  END
>  <reaction>  (13) 
kfir_rxn_5389

>  <mol_properties>  (13) 
{"0": {"label": "*3", "atom_type": "O2s"}, "1": {"label": "*4", "atom_type": "Cd"}, "8": {"label": "*0", "atom_type": "Ct"}, "9": {"label": "*1", "atom_type": "Cs"}, "12": {"label": "*2", "atom_type": "H0"}}

>  <type>  (13) 
unop_9

>  <geom_source>  (13) 
Heuristics

$$$$

     RDKit          3D

 14 12  0  0  0  0  0  0  0  0999 V2000
    0.9317    0.1851    0.7045 O   0  0  0  0  0  0  0  0  0  0  0  0
    0.8374    1.4177    0.1883 C   0  0  0  0  0  0  0  0  0  0  0  0
    0.3337    1.6119   -0.9537 N   0  0  0  0  0  0  0  0  0  0  0  0
    1.3611    2.4325    1.0678 C   0  0  0  0  0  0  0  0  0  0  0  0
    1.7829    3.3119    1.7606 C   0  0  0  0  0  0  0  0  0  0  0  0
    0.3345    2.5944   -1.2003 H   0  0  0  0  0  0  0  0  0  0  0  0
    2.1581    4.0942    2.3769 H   0  0  0  0  0  0  0  0  0  0  0  0
   -1.0608   -1.0888   -2.6770 N   0  0  0  0  0  2  0  0  0  0  0  0
   -1.0608   -1.0888   -1.5321 C   0  0  0  0  0  0  0  0  0  0  0  0
   -1.0608   -1.0501   -0.0702 C   0  0  0  0  0  0  0  0  0  0  0  0
   -1.0609   -2.3830    0.5313 C   0  0  0  0  0  0  0  0  0  0  0  0
   -1.0609   -3.4137    1.0297 N   0  0  0  0  0  0  0  0  0  0  0  0
   -0.0032   -0.3944    0.3410 H   0  0  0  0  0  0  0  0  0  0  0  0
   -1.9422   -0.5037    0.2725 H   0  0  0  0  0  0  0  0  0  0  0  0
  1  2  1  0
  1 13  1  0
  2  4  1  0
  2  3  2  3
  3  6  1  0
  4  5  3  0
  5  7  1  0
  8  9  2  0
  9 10  2  0
 10 11  1  0
 10 14  1  0
 11 12  3  0
M  RAD  1   8   2
M  END
>  <reaction>  (14) 
kfir_rxn_5389

>  <mol_properties>  (14) 
{"0": {"label": "*3", "atom_type": "O2s"}, "1": {"label": "*4", "atom_type": "Cd"}, "8": {"label": "*0", "atom_type": "Ct"}, "9": {"label": "*1", "atom_type": "Cs"}, "12": {"label": "*2", "atom_type": "H0"}}

>  <type>  (14) 
unop_10

>  <geom_source>  (14) 
Heuristics

$$$$

     RDKit          3D

 14 12  0  0  0  0  0  0  0  0999 V2000
    0.7047    1.0552   -0.1310 O   0  0  0  0  0  0  0  0  0  0  0  0
    1.0339    0.5346    1.0587 C   0  0  0  0  0  0  0  0  0  0  0  0
    0.7938   -0.6749    1.3326 N   0  0  0  0  0  0  0  0  0  0  0  0
    1.6641    1.4928    1.9319 C   0  0  0  0  0  0  0  0  0  0  0  0
    2.1910    2.2494    2.6941 C   0  0  0  0  0  0  0  0  0  0  0  0
    1.1016   -0.9145    2.2674 H   0  0  0  0  0  0  0  0  0  0  0  0
    2.6598    2.9225    3.3723 H   0  0  0  0  0  0  0  0  0  0  0  0
   -1.2878   -0.2187   -3.5125 N   0  0  0  0  0  2  0  0  0  0  0  0
   -1.2878   -0.2187   -2.3677 C   0  0  0  0  0  0  0  0  0  0  0  0
   -1.2878   -0.1800   -0.9058 C   0  0  0  0  0  0  0  0  0  0  0  0
   -1.2878   -1.5129   -0.3042 C   0  0  0  0  0  0  0  0  0  0  0  0
   -1.2878   -2.5436    0.1942 N   0  0  0  0  0  0  0  0  0  0  0  0
   -0.2301    0.4757   -0.4945 H   0  0  0  0  0  0  0  0  0  0  0  0
   -2.1692    0.3664   -0.5631 H   0  0  0  0  0  0  0  0  0  0  0  0
  1  2  1  0
  1 13  1  0
  2  4  1  0
  2  3  2  3
  3  6  1  0
  4  5  3  0
  5  7  1  0
  8  9  2  0
  9 10  2  0
 10 11  1  0
 10 14  1  0
 11 12  3  0
M  RAD  1   8   2
M  END
>  <reaction>  (15) 
kfir_rxn_5389

>  <mol_properties>  (15) 
{"0": {"label": "*3", "atom_type": "O2s"}, "1": {"label": "*4", "atom_type": "Cd"}, "8": {"label": "*0", "atom_type": "Ct"}, "9": {"label": "*1", "atom_type": "Cs"}, "12": {"label": "*2", "atom_type": "H0"}}

>  <type>  (15) 
unop_11

>  <geom_source>  (15) 
Heuristics

$$$$

     RDKit          3D

 14 12  0  0  0  0  0  0  0  0999 V2000
    0.4372    0.6550    1.0965 O   0  0  0  0  0  0  0  0  0  0  0  0
    1.1015    1.0308   -0.0045 C   0  0  0  0  0  0  0  0  0  0  0  0
    0.6746    0.7401   -1.1572 N   0  0  0  0  0  0  0  0  0  0  0  0
    2.3021    1.7707    0.2935 C   0  0  0  0  0  0  0  0  0  0  0  0
    3.3077    2.3889    0.4876 C   0  0  0  0  0  0  0  0  0  0  0  0
    1.2867    1.0941   -1.8826 H   0  0  0  0  0  0  0  0  0  0  0  0
    4.2023    2.9388    0.6604 H   0  0  0  0  0  0  0  0  0  0  0  0
   -1.5553   -0.6188   -2.2850 N   0  0  0  0  0  2  0  0  0  0  0  0
   -1.5553   -0.6188   -1.1401 C   0  0  0  0  0  0  0  0  0  0  0  0
   -1.5553   -0.5801    0.3218 C   0  0  0  0  0  0  0  0  0  0  0  0
   -1.5553   -1.9131    0.9233 C   0  0  0  0  0  0  0  0  0  0  0  0
   -1.5553   -2.9438    1.4217 N   0  0  0  0  0  0  0  0  0  0  0  0
   -0.4976    0.0755    0.7330 H   0  0  0  0  0  0  0  0  0  0  0  0
   -2.4367   -0.0337    0.6645 H   0  0  0  0  0  0  0  0  0  0  0  0
  1  2  1  0
  1 13  1  0
  2  4  1  0
  2  3  2  3
  3  6  1  0
  4  5  3  0
  5  7  1  0
  8  9  2  0
  9 10  2  0
 10 11  1  0
 10 14  1  0
 11 12  3  0
M  RAD  1   8   2
M  END
>  <reaction>  (16) 
kfir_rxn_5389

>  <mol_properties>  (16) 
{"0": {"label": "*3", "atom_type": "O2s"}, "1": {"label": "*4", "atom_type": "Cd"}, "8": {"label": "*0", "atom_type": "Ct"}, "9": {"label": "*1", "atom_type": "Cs"}, "12": {"label": "*2", "atom_type": "H0"}}

>  <type>  (16) 
unop_12

>  <geom_source>  (16) 
Heuristics

$$$$
