
     RDKit          3D

  7  6  0  0  0  0  0  0  0  0999 V2000
   -0.2485    1.7413   -0.3992 O   0  0  0  0  0  0  0  0  0  0  0  0
    0.0502    0.5901   -0.2826 C   0  0  0  0  0  0  0  0  0  0  0  0
    1.4448    0.1264   -0.3338 C   0  0  0  0  0  0  0  0  0  0  0  0
    2.5364   -0.2222   -0.3757 N   0  0  0  0  0  0  0  0  0  0  0  0
   -1.0118   -0.4953   -0.0692 C   0  0  0  0  0  0  0  0  0  0  0  0
   -0.7311   -1.6469    0.0488 O   0  0  0  0  0  0  0  0  0  0  0  0
   -2.0400   -0.0934   -0.0387 H   0  0  0  0  0  0  0  0  0  0  0  0
  1  2  2  0
  2  3  1  0
  2  5  1  0
  3  4  3  0
  5  6  2  0
  5  7  1  0
M  END
>  <reaction>  (1) 
kfir_rxn_12959

>  <mol_properties>  (1) 
{"4": {"label": "donator", "atom_type": "CO"}, "6": {"label": "d_hydrogen", "atom_type": "H0"}}

>  <type>  (1) 
r1h

$$$$

     RDKit          3D

  6  5  0  0  0  0  0  0  0  0999 V2000
   -0.4438    0.0161   -0.1392 C   0  0  0  0  0  0  0  0  0  0  0  0
    1.0624    0.0236   -0.1405 C   0  0  0  0  0  3  0  0  0  0  0  0
    1.7977   -0.0922    0.7680 O   0  0  0  0  0  0  0  0  0  0  0  0
   -0.8370   -0.1185    0.8708 H   0  0  0  0  0  0  0  0  0  0  0  0
   -0.7939    0.9566   -0.5651 H   0  0  0  0  0  0  0  0  0  0  0  0
   -0.7855   -0.7857   -0.7940 H   0  0  0  0  0  0  0  0  0  0  0  0
  1  2  1  0
  1  4  1  0
  1  5  1  0
  1  6  1  0
  2  3  2  0
M  RAD  1   2   2
M  END
>  <reaction>  (2) 
kfir_rxn_12959

>  <mol_properties>  (2) 
{"1": {"label": "acceptor", "atom_type": "CO"}}

>  <type>  (2) 
r2

$$$$

     RDKit          3D

  7  6  0  0  0  0  0  0  0  0999 V2000
   -0.6468   -0.0443   -0.0231 C   0  0  0  0  0  0  0  0  0  0  0  0
    0.8470    0.0371    0.0688 C   0  0  0  0  0  0  0  0  0  0  0  0
    1.4866   -0.2280    1.0479 O   0  0  0  0  0  0  0  0  0  0  0  0
   -1.0466    0.9363   -0.2943 H   0  0  0  0  0  0  0  0  0  0  0  0
   -0.9229   -0.7318   -0.8269 H   0  0  0  0  0  0  0  0  0  0  0  0
   -1.0759   -0.3772    0.9198 H   0  0  0  0  0  0  0  0  0  0  0  0
    1.3584    0.3712   -0.8589 H   0  0  0  0  0  0  0  0  0  0  0  0
  1  2  1  0
  1  4  1  0
  1  5  1  0
  1  6  1  0
  2  3  2  0
  2  7  1  0
M  END
>  <reaction>  (3) 
kfir_rxn_12959

>  <mol_properties>  (3) 
{"1": {"label": "acceptor", "atom_type": "CO"}, "6": {"label": "a_hydrogen", "atom_type": "H0"}}

>  <type>  (3) 
r2h

$$$$

     RDKit          3D

 13 11  0  0  0  0  0  0  0  0999 V2000
   -0.8504   -2.8786   -0.4167 C   0  0  0  0  0  0  0  0  0  0  0  0
    0.4402   -2.2273   -0.7595 C   0  0  0  0  0  3  0  0  0  0  0  0
    1.2591   -2.4209   -1.5650 O   0  0  0  0  0  0  0  0  0  0  0  0
   -1.0013   -3.7712   -1.0238 H   0  0  0  0  0  0  0  0  0  0  0  0
   -0.8524   -3.1219    0.6461 H   0  0  0  0  0  0  0  0  0  0  0  0
   -1.6374   -2.1457   -0.6000 H   0  0  0  0  0  0  0  0  0  0  0  0
   -0.8640    0.3794   -0.9738 O   0  0  0  0  0  0  0  0  0  0  0  0
   -0.3489    0.7817    0.0496 C   0  0  0  0  0  0  0  0  0  0  0  0
   -0.3137    2.1957    0.4121 C   0  0  0  0  0  0  0  0  0  0  0  0
   -0.3079    3.2972    0.7349 N   0  0  0  0  0  0  0  0  0  0  0  0
    0.4396   -0.1403    0.9205 C   0  0  0  0  0  0  0  0  0  0  0  0
    0.5211   -0.2121    2.1052 O   0  0  0  0  0  0  0  0  0  0  0  0
    0.7626   -1.0753    0.1738 H   0  0  0  0  0  0  0  0  0  0  0  0
  1  2  1  0
  1  4  1  0
  1  5  1  0
  1  6  1  0
  2  3  2  0
  7  8  2  0
  8  9  1  0
  8 11  1  0
  9 10  3  0
 11 12  2  0
 11 13  1  0
M  RAD  1   2   2
M  END
>  <reaction>  (4) 
kfir_rxn_12959

>  <mol_properties>  (4) 
{"1": {"label": "*3", "atom_type": "CO"}, "2": {"label": "*4", "atom_type": "O2d"}, "7": {"label": "*0", "atom_type": "CO"}, "10": {"label": "*1", "atom_type": "CO"}, "12": {"label": "*2", "atom_type": "H0"}}

>  <type>  (4) 
ts

$$$$

     RDKit          3D

 13 11  0  0  0  0  0  0  0  0999 V2000
    1.1719   -3.0894   -0.7190 C   0  0  0  0  0  0  0  0  0  0  0  0
   -0.0037   -2.1780   -0.9026 C   0  0  0  0  0  3  0  0  0  0  0  0
   -1.1360   -2.5448   -1.0494 O   0  0  0  0  0  0  0  0  0  0  0  0
    0.8609   -4.1320   -0.7365 H   0  0  0  0  0  0  0  0  0  0  0  0
    1.9032   -2.9005   -1.5092 H   0  0  0  0  0  0  0  0  0  0  0  0
    1.6642   -2.8584    0.2294 H   0  0  0  0  0  0  0  0  0  0  0  0
   -0.0037    1.2939   -1.3552 O   0  0  0  0  0  0  0  0  0  0  0  0
   -0.0037    1.2939   -0.1602 C   0  0  0  0  0  0  0  0  0  0  0  0
   -0.0037    2.5340    0.6302 C   0  0  0  0  0  0  0  0  0  0  0  0
   -0.0037    3.5010    1.2465 N   0  0  0  0  0  0  0  0  0  0  0  0
   -0.0037   -0.0139    0.6408 C   0  0  0  0  0  0  0  0  0  0  0  0
   -0.0037   -0.0315    1.8318 O   0  0  0  0  0  0  0  0  0  0  0  0
   -0.0037   -1.0929   -0.1287 H   0  0  0  0  0  0  0  0  0  0  0  0
  1  2  1  0
  1  4  1  0
  1  5  1  0
  1  6  1  0
  2  3  2  0
  7  8  2  0
  8  9  1  0
  8 11  1  0
  9 10  3  0
 11 12  2  0
 11 13  1  0
M  RAD  1   2   2
M  END
>  <reaction>  (5) 
kfir_rxn_12959

>  <mol_properties>  (5) 
{"1": {"label": "*3", "atom_type": "CO"}, "2": {"label": "*4", "atom_type": "O2d"}, "7": {"label": "*0", "atom_type": "CO"}, "10": {"label": "*1", "atom_type": "CO"}, "12": {"label": "*2", "atom_type": "H0"}}

>  <type>  (5) 
unop_1

>  <geom_source>  (5) 
Heuristics

$$$$

     RDKit          3D

 13 11  0  0  0  0  0  0  0  0999 V2000
    0.6256   -2.0603   -2.1235 C   0  0  0  0  0  0  0  0  0  0  0  0
   -0.0532   -2.2255   -0.7974 C   0  0  0  0  0  3  0  0  0  0  0  0
   -0.3032   -3.2804   -0.2848 O   0  0  0  0  0  0  0  0  0  0  0  0
    0.8624   -3.0278   -2.5613 H   0  0  0  0  0  0  0  0  0  0  0  0
   -0.0239   -1.4915   -2.7940 H   0  0  0  0  0  0  0  0  0  0  0  0
    1.5376   -1.4721   -1.9923 H   0  0  0  0  0  0  0  0  0  0  0  0
   -0.0532    1.2463   -1.2500 O   0  0  0  0  0  0  0  0  0  0  0  0
   -0.0532    1.2463   -0.0549 C   0  0  0  0  0  0  0  0  0  0  0  0
   -0.0532    2.4864    0.7354 C   0  0  0  0  0  0  0  0  0  0  0  0
   -0.0532    3.4534    1.3517 N   0  0  0  0  0  0  0  0  0  0  0  0
   -0.0532   -0.0614    0.7460 C   0  0  0  0  0  0  0  0  0  0  0  0
   -0.0532   -0.0790    1.9370 O   0  0  0  0  0  0  0  0  0  0  0  0
   -0.0532   -1.1404   -0.0235 H   0  0  0  0  0  0  0  0  0  0  0  0
  1  2  1  0
  1  4  1  0
  1  5  1  0
  1  6  1  0
  2  3  2  0
  7  8  2  0
  8  9  1  0
  8 11  1  0
  9 10  3  0
 11 12  2  0
 11 13  1  0
M  RAD  1   2   2
M  END
>  <reaction>  (6) 
kfir_rxn_12959

>  <mol_properties>  (6) 
{"1": {"label": "*3", "atom_type": "CO"}, "2": {"label": "*4", "atom_type": "O2d"}, "7": {"label": "*0", "atom_type": "CO"}, "10": {"label": "*1", "atom_type": "CO"}, "12": {"label": "*2", "atom_type": "H0"}}

>  <type>  (6) 
unop_2

>  <geom_source>  (6) 
Heuristics

$$$$

     RDKit          3D

 13 11  0  0  0  0  0  0  0  0999 V2000
    0.7109   -3.3828   -0.2873 C   0  0  0  0  0  0  0  0  0  0  0  0
    0.0322   -2.1828   -0.8755 C   0  0  0  0  0  3  0  0  0  0  0  0
   -0.8932   -2.2263   -1.6369 O   0  0  0  0  0  0  0  0  0  0  0  0
    0.2511   -4.3022   -0.6438 H   0  0  0  0  0  0  0  0  0  0  0  0
    1.7716   -3.3642   -0.5513 H   0  0  0  0  0  0  0  0  0  0  0  0
    0.6556   -3.3315    0.8033 H   0  0  0  0  0  0  0  0  0  0  0  0
    0.0322    1.2890   -1.3281 O   0  0  0  0  0  0  0  0  0  0  0  0
    0.0322    1.2890   -0.1330 C   0  0  0  0  0  0  0  0  0  0  0  0
    0.0322    2.5291    0.6573 C   0  0  0  0  0  0  0  0  0  0  0  0
    0.0322    3.4961    1.2736 N   0  0  0  0  0  0  0  0  0  0  0  0
    0.0322   -0.0187    0.6679 C   0  0  0  0  0  0  0  0  0  0  0  0
    0.0322   -0.0363    1.8589 O   0  0  0  0  0  0  0  0  0  0  0  0
    0.0322   -1.0977   -0.1016 H   0  0  0  0  0  0  0  0  0  0  0  0
  1  2  1  0
  1  4  1  0
  1  5  1  0
  1  6  1  0
  2  3  2  0
  7  8  2  0
  8  9  1  0
  8 11  1  0
  9 10  3  0
 11 12  2  0
 11 13  1  0
M  RAD  1   2   2
M  END
>  <reaction>  (7) 
kfir_rxn_12959

>  <mol_properties>  (7) 
{"1": {"label": "*3", "atom_type": "CO"}, "2": {"label": "*4", "atom_type": "O2d"}, "7": {"label": "*0", "atom_type": "CO"}, "10": {"label": "*1", "atom_type": "CO"}, "12": {"label": "*2", "atom_type": "H0"}}

>  <type>  (7) 
unop_3

>  <geom_source>  (7) 
Heuristics

$$$$

     RDKit          3D

 13 11  0  0  0  0  0  0  0  0999 V2000
   -1.1031   -2.3290   -1.7659 C   0  0  0  0  0  0  0  0  0  0  0  0
    0.0725   -2.2058   -0.8444 C   0  0  0  0  0  3  0  0  0  0  0  0
    0.6605   -3.1317   -0.3597 O   0  0  0  0  0  0  0  0  0  0  0  0
   -1.3535   -3.3739   -1.9377 H   0  0  0  0  0  0  0  0  0  0  0  0
   -1.9581   -1.8021   -1.3342 H   0  0  0  0  0  0  0  0  0  0  0  0
   -0.8731   -1.8354   -2.7138 H   0  0  0  0  0  0  0  0  0  0  0  0
    0.0725    1.2661   -1.2970 O   0  0  0  0  0  0  0  0  0  0  0  0
    0.0725    1.2661   -0.1020 C   0  0  0  0  0  0  0  0  0  0  0  0
    0.0725    2.5062    0.6884 C   0  0  0  0  0  0  0  0  0  0  0  0
    0.0725    3.4732    1.3047 N   0  0  0  0  0  0  0  0  0  0  0  0
    0.0725   -0.0416    0.6990 C   0  0  0  0  0  0  0  0  0  0  0  0
    0.0725   -0.0593    1.8900 O   0  0  0  0  0  0  0  0  0  0  0  0
    0.0725   -1.1206   -0.0705 H   0  0  0  0  0  0  0  0  0  0  0  0
  1  2  1  0
  1  4  1  0
  1  5  1  0
  1  6  1  0
  2  3  2  0
  7  8  2  0
  8  9  1  0
  8 11  1  0
  9 10  3  0
 11 12  2  0
 11 13  1  0
M  RAD  1   2   2
M  END
>  <reaction>  (8) 
kfir_rxn_12959

>  <mol_properties>  (8) 
{"1": {"label": "*3", "atom_type": "CO"}, "2": {"label": "*4", "atom_type": "O2d"}, "7": {"label": "*0", "atom_type": "CO"}, "10": {"label": "*1", "atom_type": "CO"}, "12": {"label": "*2", "atom_type": "H0"}}

>  <type>  (8) 
unop_4

>  <geom_source>  (8) 
Heuristics

$$$$

     RDKit          3D

 13 11  0  0  0  0  0  0  0  0999 V2000
    0.0000   -3.4947   -0.1030 C   0  0  0  0  0  0  0  0  0  0  0  0
    0.0000   -2.1892   -0.8393 C   0  0  0  0  0  3  0  0  0  0  0  0
    0.0000   -2.0784   -2.0333 O   0  0  0  0  0  0  0  0  0  0  0  0
   -0.0000   -4.3319   -0.7979 H   0  0  0  0  0  0  0  0  0  0  0  0
    0.8777   -3.5436    0.5468 H   0  0  0  0  0  0  0  0  0  0  0  0
   -0.8777   -3.5436    0.5468 H   0  0  0  0  0  0  0  0  0  0  0  0
   -0.0000    1.2827   -1.2919 O   0  0  0  0  0  0  0  0  0  0  0  0
   -0.0000    1.2827   -0.0968 C   0  0  0  0  0  0  0  0  0  0  0  0
   -0.0000    2.5228    0.6935 C   0  0  0  0  0  0  0  0  0  0  0  0
   -0.0000    3.4898    1.3098 N   0  0  0  0  0  0  0  0  0  0  0  0
   -0.0000   -0.0250    0.7041 C   0  0  0  0  0  0  0  0  0  0  0  0
   -0.0000   -0.0426    1.8951 O   0  0  0  0  0  0  0  0  0  0  0  0
    0.0000   -1.1040   -0.0654 H   0  0  0  0  0  0  0  0  0  0  0  0
  1  2  1  0
  1  4  1  0
  1  5  1  0
  1  6  1  0
  2  3  2  0
  7  8  2  0
  8  9  1  0
  8 11  1  0
  9 10  3  0
 11 12  2  0
 11 13  1  0
M  RAD  1   2   2
M  END
>  <reaction>  (9) 
kfir_rxn_12959

>  <mol_properties>  (9) 
{"1": {"label": "*3", "atom_type": "CO"}, "2": {"label": "*4", "atom_type": "O2d"}, "7": {"label": "*0", "atom_type": "CO"}, "10": {"label": "*1", "atom_type": "CO"}, "12": {"label": "*2", "atom_type": "H0"}}

>  <type>  (9) 
unop_5

>  <geom_source>  (9) 
Heuristics

$$$$

     RDKit          3D

 13 11  0  0  0  0  0  0  0  0999 V2000
   -1.3068   -2.7038   -1.2566 C   0  0  0  0  0  0  0  0  0  0  0  0
    0.0507   -2.1865   -0.8877 C   0  0  0  0  0  3  0  0  0  0  0  0
    0.9911   -2.8755   -0.6068 O   0  0  0  0  0  0  0  0  0  0  0  0
   -1.3262   -3.7915   -1.2358 H   0  0  0  0  0  0  0  0  0  0  0  0
   -2.0488   -2.2999   -0.5629 H   0  0  0  0  0  0  0  0  0  0  0  0
   -1.5741   -2.3407   -2.2524 H   0  0  0  0  0  0  0  0  0  0  0  0
    0.0507    1.2854   -1.3402 O   0  0  0  0  0  0  0  0  0  0  0  0
    0.0507    1.2854   -0.1452 C   0  0  0  0  0  0  0  0  0  0  0  0
    0.0507    2.5255    0.6451 C   0  0  0  0  0  0  0  0  0  0  0  0
    0.0507    3.4925    1.2614 N   0  0  0  0  0  0  0  0  0  0  0  0
    0.0507   -0.0223    0.6557 C   0  0  0  0  0  0  0  0  0  0  0  0
    0.0507   -0.0400    1.8467 O   0  0  0  0  0  0  0  0  0  0  0  0
    0.0507   -1.1013   -0.1138 H   0  0  0  0  0  0  0  0  0  0  0  0
  1  2  1  0
  1  4  1  0
  1  5  1  0
  1  6  1  0
  2  3  2  0
  7  8  2  0
  8  9  1  0
  8 11  1  0
  9 10  3  0
 11 12  2  0
 11 13  1  0
M  RAD  1   2   2
M  END
>  <reaction>  (10) 
kfir_rxn_12959

>  <mol_properties>  (10) 
{"1": {"label": "*3", "atom_type": "CO"}, "2": {"label": "*4", "atom_type": "O2d"}, "7": {"label": "*0", "atom_type": "CO"}, "10": {"label": "*1", "atom_type": "CO"}, "12": {"label": "*2", "atom_type": "H0"}}

>  <type>  (10) 
unop_6

>  <geom_source>  (10) 
Heuristics

$$$$

     RDKit          3D

 13 11  0  0  0  0  0  0  0  0999 V2000
   -1.1719   -3.0894   -0.7190 C   0  0  0  0  0  0  0  0  0  0  0  0
    0.0037   -2.1780   -0.9026 C   0  0  0  0  0  3  0  0  0  0  0  0
    1.1360   -2.5448   -1.0494 O   0  0  0  0  0  0  0  0  0  0  0  0
   -0.8609   -4.1320   -0.7365 H   0  0  0  0  0  0  0  0  0  0  0  0
   -1.6641   -2.8584    0.2294 H   0  0  0  0  0  0  0  0  0  0  0  0
   -1.9032   -2.9004   -1.5092 H   0  0  0  0  0  0  0  0  0  0  0  0
    0.0037    1.2939   -1.3552 O   0  0  0  0  0  0  0  0  0  0  0  0
    0.0037    1.2939   -0.1602 C   0  0  0  0  0  0  0  0  0  0  0  0
    0.0037    2.5340    0.6302 C   0  0  0  0  0  0  0  0  0  0  0  0
    0.0037    3.5010    1.2465 N   0  0  0  0  0  0  0  0  0  0  0  0
    0.0037   -0.0139    0.6408 C   0  0  0  0  0  0  0  0  0  0  0  0
    0.0037   -0.0315    1.8318 O   0  0  0  0  0  0  0  0  0  0  0  0
    0.0037   -1.0929   -0.1287 H   0  0  0  0  0  0  0  0  0  0  0  0
  1  2  1  0
  1  4  1  0
  1  5  1  0
  1  6  1  0
  2  3  2  0
  7  8  2  0
  8  9  1  0
  8 11  1  0
  9 10  3  0
 11 12  2  0
 11 13  1  0
M  RAD  1   2   2
M  END
>  <reaction>  (11) 
kfir_rxn_12959

>  <mol_properties>  (11) 
{"1": {"label": "*3", "atom_type": "CO"}, "2": {"label": "*4", "atom_type": "O2d"}, "7": {"label": "*0", "atom_type": "CO"}, "10": {"label": "*1", "atom_type": "CO"}, "12": {"label": "*2", "atom_type": "H0"}}

>  <type>  (11) 
unop_7

>  <geom_source>  (11) 
Heuristics

$$$$

     RDKit          3D

 13 11  0  0  0  0  0  0  0  0999 V2000
    1.3068   -2.7038   -1.2566 C   0  0  0  0  0  0  0  0  0  0  0  0
   -0.0507   -2.1865   -0.8877 C   0  0  0  0  0  3  0  0  0  0  0  0
   -0.9911   -2.8755   -0.6068 O   0  0  0  0  0  0  0  0  0  0  0  0
    1.3262   -3.7915   -1.2358 H   0  0  0  0  0  0  0  0  0  0  0  0
    1.5740   -2.3407   -2.2524 H   0  0  0  0  0  0  0  0  0  0  0  0
    2.0488   -2.2998   -0.5629 H   0  0  0  0  0  0  0  0  0  0  0  0
   -0.0507    1.2854   -1.3402 O   0  0  0  0  0  0  0  0  0  0  0  0
   -0.0507    1.2854   -0.1452 C   0  0  0  0  0  0  0  0  0  0  0  0
   -0.0507    2.5255    0.6451 C   0  0  0  0  0  0  0  0  0  0  0  0
   -0.0507    3.4925    1.2614 N   0  0  0  0  0  0  0  0  0  0  0  0
   -0.0507   -0.0223    0.6557 C   0  0  0  0  0  0  0  0  0  0  0  0
   -0.0507   -0.0400    1.8467 O   0  0  0  0  0  0  0  0  0  0  0  0
   -0.0507   -1.1013   -0.1138 H   0  0  0  0  0  0  0  0  0  0  0  0
  1  2  1  0
  1  4  1  0
  1  5  1  0
  1  6  1  0
  2  3  2  0
  7  8  2  0
  8  9  1  0
  8 11  1  0
  9 10  3  0
 11 12  2  0
 11 13  1  0
M  RAD  1   2   2
M  END
>  <reaction>  (12) 
kfir_rxn_12959

>  <mol_properties>  (12) 
{"1": {"label": "*3", "atom_type": "CO"}, "2": {"label": "*4", "atom_type": "O2d"}, "7": {"label": "*0", "atom_type": "CO"}, "10": {"label": "*1", "atom_type": "CO"}, "12": {"label": "*2", "atom_type": "H0"}}

>  <type>  (12) 
unop_8

>  <geom_source>  (12) 
Heuristics

$$$$

     RDKit          3D

 13 11  0  0  0  0  0  0  0  0999 V2000
   -0.6256   -2.0603   -2.1235 C   0  0  0  0  0  0  0  0  0  0  0  0
    0.0532   -2.2255   -0.7974 C   0  0  0  0  0  3  0  0  0  0  0  0
    0.3032   -3.2804   -0.2848 O   0  0  0  0  0  0  0  0  0  0  0  0
   -0.8623   -3.0278   -2.5613 H   0  0  0  0  0  0  0  0  0  0  0  0
   -1.5376   -1.4721   -1.9923 H   0  0  0  0  0  0  0  0  0  0  0  0
    0.0239   -1.4914   -2.7940 H   0  0  0  0  0  0  0  0  0  0  0  0
    0.0532    1.2463   -1.2500 O   0  0  0  0  0  0  0  0  0  0  0  0
    0.0532    1.2463   -0.0549 C   0  0  0  0  0  0  0  0  0  0  0  0
    0.0532    2.4864    0.7354 C   0  0  0  0  0  0  0  0  0  0  0  0
    0.0532    3.4534    1.3517 N   0  0  0  0  0  0  0  0  0  0  0  0
    0.0532   -0.0614    0.7460 C   0  0  0  0  0  0  0  0  0  0  0  0
    0.0532   -0.0790    1.9370 O   0  0  0  0  0  0  0  0  0  0  0  0
    0.0532   -1.1404   -0.0235 H   0  0  0  0  0  0  0  0  0  0  0  0
  1  2  1  0
  1  4  1  0
  1  5  1  0
  1  6  1  0
  2  3  2  0
  7  8  2  0
  8  9  1  0
  8 11  1  0
  9 10  3  0
 11 12  2  0
 11 13  1  0
M  RAD  1   2   2
M  END
>  <reaction>  (13) 
kfir_rxn_12959

>  <mol_properties>  (13) 
{"1": {"label": "*3", "atom_type": "CO"}, "2": {"label": "*4", "atom_type": "O2d"}, "7": {"label": "*0", "atom_type": "CO"}, "10": {"label": "*1", "atom_type": "CO"}, "12": {"label": "*2", "atom_type": "H0"}}

>  <type>  (13) 
unop_9

>  <geom_source>  (13) 
Heuristics

$$$$

     RDKit          3D

 13 11  0  0  0  0  0  0  0  0999 V2000
    1.1031   -2.3290   -1.7659 C   0  0  0  0  0  0  0  0  0  0  0  0
   -0.0725   -2.2058   -0.8444 C   0  0  0  0  0  3  0  0  0  0  0  0
   -0.6604   -3.1317   -0.3597 O   0  0  0  0  0  0  0  0  0  0  0  0
    1.3535   -3.3739   -1.9376 H   0  0  0  0  0  0  0  0  0  0  0  0
    0.8731   -1.8355   -2.7138 H   0  0  0  0  0  0  0  0  0  0  0  0
    1.9580   -1.8021   -1.3343 H   0  0  0  0  0  0  0  0  0  0  0  0
   -0.0725    1.2661   -1.2970 O   0  0  0  0  0  0  0  0  0  0  0  0
   -0.0725    1.2661   -0.1020 C   0  0  0  0  0  0  0  0  0  0  0  0
   -0.0725    2.5062    0.6884 C   0  0  0  0  0  0  0  0  0  0  0  0
   -0.0725    3.4732    1.3047 N   0  0  0  0  0  0  0  0  0  0  0  0
   -0.0725   -0.0416    0.6990 C   0  0  0  0  0  0  0  0  0  0  0  0
   -0.0725   -0.0593    1.8900 O   0  0  0  0  0  0  0  0  0  0  0  0
   -0.0725   -1.1206   -0.0705 H   0  0  0  0  0  0  0  0  0  0  0  0
  1  2  1  0
  1  4  1  0
  1  5  1  0
  1  6  1  0
  2  3  2  0
  7  8  2  0
  8  9  1  0
  8 11  1  0
  9 10  3  0
 11 12  2  0
 11 13  1  0
M  RAD  1   2   2
M  END
>  <reaction>  (14) 
kfir_rxn_12959

>  <mol_properties>  (14) 
{"1": {"label": "*3", "atom_type": "CO"}, "2": {"label": "*4", "atom_type": "O2d"}, "7": {"label": "*0", "atom_type": "CO"}, "10": {"label": "*1", "atom_type": "CO"}, "12": {"label": "*2", "atom_type": "H0"}}

>  <type>  (14) 
unop_10

>  <geom_source>  (14) 
Heuristics

$$$$

     RDKit          3D

 13 11  0  0  0  0  0  0  0  0999 V2000
   -0.7109   -3.3828   -0.2873 C   0  0  0  0  0  0  0  0  0  0  0  0
   -0.0322   -2.1828   -0.8755 C   0  0  0  0  0  3  0  0  0  0  0  0
    0.8932   -2.2263   -1.6369 O   0  0  0  0  0  0  0  0  0  0  0  0
   -0.2511   -4.3022   -0.6439 H   0  0  0  0  0  0  0  0  0  0  0  0
   -0.6555   -3.3315    0.8033 H   0  0  0  0  0  0  0  0  0  0  0  0
   -1.7716   -3.3642   -0.5513 H   0  0  0  0  0  0  0  0  0  0  0  0
   -0.0322    1.2890   -1.3281 O   0  0  0  0  0  0  0  0  0  0  0  0
   -0.0322    1.2890   -0.1330 C   0  0  0  0  0  0  0  0  0  0  0  0
   -0.0322    2.5291    0.6573 C   0  0  0  0  0  0  0  0  0  0  0  0
   -0.0322    3.4961    1.2736 N   0  0  0  0  0  0  0  0  0  0  0  0
   -0.0322   -0.0187    0.6679 C   0  0  0  0  0  0  0  0  0  0  0  0
   -0.0322   -0.0363    1.8589 O   0  0  0  0  0  0  0  0  0  0  0  0
   -0.0322   -1.0977   -0.1016 H   0  0  0  0  0  0  0  0  0  0  0  0
  1  2  1  0
  1  4  1  0
  1  5  1  0
  1  6  1  0
  2  3  2  0
  7  8  2  0
  8  9  1  0
  8 11  1  0
  9 10  3  0
 11 12  2  0
 11 13  1  0
M  RAD  1   2   2
M  END
>  <reaction>  (15) 
kfir_rxn_12959

>  <mol_properties>  (15) 
{"1": {"label": "*3", "atom_type": "CO"}, "2": {"label": "*4", "atom_type": "O2d"}, "7": {"label": "*0", "atom_type": "CO"}, "10": {"label": "*1", "atom_type": "CO"}, "12": {"label": "*2", "atom_type": "H0"}}

>  <type>  (15) 
unop_11

>  <geom_source>  (15) 
Heuristics

$$$$

     RDKit          3D

 13 11  0  0  0  0  0  0  0  0999 V2000
    0.0000   -1.9631   -2.2506 C   0  0  0  0  0  0  0  0  0  0  0  0
    0.0000   -2.2339   -0.7765 C   0  0  0  0  0  3  0  0  0  0  0  0
    0.0000   -3.3268   -0.2828 O   0  0  0  0  0  0  0  0  0  0  0  0
    0.0000   -2.8928   -2.8159 H   0  0  0  0  0  0  0  0  0  0  0  0
   -0.8777   -1.3647   -2.5086 H   0  0  0  0  0  0  0  0  0  0  0  0
    0.8777   -1.3646   -2.5086 H   0  0  0  0  0  0  0  0  0  0  0  0
   -0.0000    1.2380   -1.2291 O   0  0  0  0  0  0  0  0  0  0  0  0
   -0.0000    1.2380   -0.0341 C   0  0  0  0  0  0  0  0  0  0  0  0
   -0.0000    2.4781    0.7563 C   0  0  0  0  0  0  0  0  0  0  0  0
   -0.0000    3.4451    1.3726 N   0  0  0  0  0  0  0  0  0  0  0  0
   -0.0000   -0.0698    0.7669 C   0  0  0  0  0  0  0  0  0  0  0  0
    0.0000   -0.0874    1.9579 O   0  0  0  0  0  0  0  0  0  0  0  0
    0.0000   -1.1488   -0.0026 H   0  0  0  0  0  0  0  0  0  0  0  0
  1  2  1  0
  1  4  1  0
  1  5  1  0
  1  6  1  0
  2  3  2  0
  7  8  2  0
  8  9  1  0
  8 11  1  0
  9 10  3  0
 11 12  2  0
 11 13  1  0
M  RAD  1   2   2
M  END
>  <reaction>  (16) 
kfir_rxn_12959

>  <mol_properties>  (16) 
{"1": {"label": "*3", "atom_type": "CO"}, "2": {"label": "*4", "atom_type": "O2d"}, "7": {"label": "*0", "atom_type": "CO"}, "10": {"label": "*1", "atom_type": "CO"}, "12": {"label": "*2", "atom_type": "H0"}}

>  <type>  (16) 
unop_12

>  <geom_source>  (16) 
Heuristics

$$$$
