
     RDKit          3D

  3  2  0  0  0  0  0  0  0  0999 V2000
   -0.0003    0.3867    0.0000 O   0  0  0  0  0  0  0  0  0  0  0  0
   -0.7617   -0.1940    0.0000 H   0  0  0  0  0  0  0  0  0  0  0  0
    0.7620   -0.1927    0.0000 H   0  0  0  0  0  0  0  0  0  0  0  0
  1  2  1  0
  1  3  1  0
M  END
>  <reaction>  (1) 
kfir_rxn_9205

>  <mol_properties>  (1) 
{"0": {"label": "donator", "atom_type": "O2s"}, "1": {"label": "d_hydrogen", "atom_type": "H0"}}

>  <type>  (1) 
r1h

$$$$

     RDKit          3D

  7  7  0  0  0  0  0  0  0  0999 V2000
   -1.0777   -0.1882    0.2036 N   0  0  0  0  0  0  0  0  0  0  0  0
   -0.0154   -0.9855    0.0732 C   0  0  0  0  0  3  0  0  0  0  0  0
    1.0822   -0.1798    0.0731 C   0  0  0  0  0  0  0  0  0  0  0  0
    0.6156    1.0906    0.2064 N   0  0  0  0  0  0  0  0  0  0  0  0
   -0.6783    1.0900    0.2849 N   0  0  0  0  0  0  0  0  0  0  0  0
   -2.0547   -0.4176    0.2440 H   0  0  0  0  0  0  0  0  0  0  0  0
    2.1283   -0.4095   -0.0094 H   0  0  0  0  0  0  0  0  0  0  0  0
  1  2  1  0
  1  5  1  0
  1  6  1  0
  2  3  2  0
  3  4  1  0
  3  7  1  0
  4  5  2  0
M  RAD  1   2   2
M  END
>  <reaction>  (2) 
kfir_rxn_9205

>  <mol_properties>  (2) 
{"1": {"label": "acceptor", "atom_type": "Cd"}}

>  <type>  (2) 
r2

$$$$

     RDKit          3D

  8  8  0  0  0  0  0  0  0  0999 V2000
    0.0136    0.7458    0.1412 C   0  0  0  0  0  0  0  0  0  0  0  0
    1.0787   -0.0972   -0.0037 C   0  0  0  0  0  0  0  0  0  0  0  0
    0.6088   -1.3473   -0.2464 N   0  0  0  0  0  0  0  0  0  0  0  0
   -0.6812   -1.3199   -0.2588 N   0  0  0  0  0  0  0  0  0  0  0  0
   -1.0519   -0.0605   -0.0258 N   0  0  0  0  0  0  0  0  0  0  0  0
   -0.0710    1.7993    0.3392 H   0  0  0  0  0  0  0  0  0  0  0  0
    2.1327    0.1122    0.0503 H   0  0  0  0  0  0  0  0  0  0  0  0
   -2.0298    0.1677    0.0040 H   0  0  0  0  0  0  0  0  0  0  0  0
  1  2  2  0
  1  5  1  0
  1  6  1  0
  2  3  1  0
  2  7  1  0
  3  4  2  0
  4  5  1  0
  5  8  1  0
M  END
>  <reaction>  (3) 
kfir_rxn_9205

>  <mol_properties>  (3) 
{"1": {"label": "acceptor", "atom_type": "Cd"}, "7": {"label": "a_hydrogen", "atom_type": "H0"}}

>  <type>  (3) 
r2h

$$$$

     RDKit          3D

 10  9  0  0  0  0  0  0  0  0999 V2000
    0.0648   -0.0815    0.9670 N   0  0  0  0  0  0  0  0  0  0  0  0
   -0.1660   -0.3678   -0.3219 C   0  0  0  0  0  3  0  0  0  0  0  0
   -0.1139    0.8307   -0.9724 C   0  0  0  0  0  0  0  0  0  0  0  0
    0.1220    1.7826   -0.0337 N   0  0  0  0  0  0  0  0  0  0  0  0
    0.2292    1.2315    1.1340 N   0  0  0  0  0  0  0  0  0  0  0  0
    0.0938   -0.7029    1.7565 H   0  0  0  0  0  0  0  0  0  0  0  0
   -0.2388    1.0652   -2.0139 H   0  0  0  0  0  0  0  0  0  0  0  0
   -0.2377   -2.7191   -0.8909 O   0  0  0  0  0  0  0  0  0  0  0  0
   -0.4062   -1.6027   -0.7047 H   0  0  0  0  0  0  0  0  0  0  0  0
    0.6527   -2.7379   -1.2652 H   0  0  0  0  0  0  0  0  0  0  0  0
  1  2  1  0
  1  5  1  0
  1  6  1  0
  2  3  2  0
  3  4  1  0
  3  7  1  0
  4  5  2  0
  8  9  1  0
  8 10  1  0
M  RAD  1   2   2
M  END
>  <reaction>  (4) 
kfir_rxn_9205

>  <mol_properties>  (4) 
{"0": {"label": "*4", "atom_type": "N3s"}, "1": {"label": "*3", "atom_type": "Cd"}, "7": {"label": "*1", "atom_type": "O2s"}, "8": {"label": "*2", "atom_type": "H0"}, "9": {"label": "*0", "atom_type": "H0"}}

>  <type>  (4) 
ts

$$$$

     RDKit          3D

 10  9  0  0  0  0  0  0  0  0999 V2000
    0.9595    0.1212    0.0007 N   0  0  0  0  0  0  0  0  0  0  0  0
   -0.2194   -0.0414   -0.6295 C   0  0  0  0  0  3  0  0  0  0  0  0
   -1.0806    0.7290    0.0990 C   0  0  0  0  0  0  0  0  0  0  0  0
   -0.3888    1.3068    1.1138 N   0  0  0  0  0  0  0  0  0  0  0  0
    0.8455    0.9359    1.0501 N   0  0  0  0  0  0  0  0  0  0  0  0
    1.8552   -0.2773   -0.2185 H   0  0  0  0  0  0  0  0  0  0  0  0
   -2.1337    0.9009   -0.0399 H   0  0  0  0  0  0  0  0  0  0  0  0
   -0.2194   -2.3929   -1.2786 O   0  0  0  0  0  0  0  0  0  0  0  0
   -0.2194   -1.2852   -0.9728 H   0  0  0  0  0  0  0  0  0  0  0  0
   -0.2194   -2.3929   -2.2362 H   0  0  0  0  0  0  0  0  0  0  0  0
  1  2  1  0
  1  5  1  0
  1  6  1  0
  2  3  2  0
  3  4  1  0
  3  7  1  0
  4  5  2  0
  8  9  1  0
  8 10  1  0
M  RAD  1   2   2
M  END
>  <reaction>  (5) 
kfir_rxn_9205

>  <mol_properties>  (5) 
{"0": {"label": "*4", "atom_type": "N3s"}, "1": {"label": "*3", "atom_type": "Cd"}, "7": {"label": "*1", "atom_type": "O2s"}, "8": {"label": "*2", "atom_type": "H0"}, "9": {"label": "*0", "atom_type": "H0"}}

>  <type>  (5) 
unop_1

>  <geom_source>  (5) 
Heuristics

$$$$

     RDKit          3D

 10  9  0  0  0  0  0  0  0  0999 V2000
    0.3523    0.0035    0.9914 N   0  0  0  0  0  0  0  0  0  0  0  0
    0.1624   -0.3579   -0.2919 C   0  0  0  0  0  3  0  0  0  0  0  0
   -0.3349    0.7739   -0.8729 C   0  0  0  0  0  0  0  0  0  0  0  0
   -0.4179    1.7434    0.0735 N   0  0  0  0  0  0  0  0  0  0  0  0
   -0.0009    1.2723    1.2001 N   0  0  0  0  0  0  0  0  0  0  0  0
    0.7071   -0.5414    1.7571 H   0  0  0  0  0  0  0  0  0  0  0  0
   -0.6324    0.9490   -1.8920 H   0  0  0  0  0  0  0  0  0  0  0  0
    0.1624   -2.7094   -0.9409 O   0  0  0  0  0  0  0  0  0  0  0  0
    0.1624   -1.6017   -0.6352 H   0  0  0  0  0  0  0  0  0  0  0  0
    0.1624   -2.7094   -1.8985 H   0  0  0  0  0  0  0  0  0  0  0  0
  1  2  1  0
  1  5  1  0
  1  6  1  0
  2  3  2  0
  3  4  1  0
  3  7  1  0
  4  5  2  0
  8  9  1  0
  8 10  1  0
M  RAD  1   2   2
M  END
>  <reaction>  (6) 
kfir_rxn_9205

>  <mol_properties>  (6) 
{"0": {"label": "*4", "atom_type": "N3s"}, "1": {"label": "*3", "atom_type": "Cd"}, "7": {"label": "*1", "atom_type": "O2s"}, "8": {"label": "*2", "atom_type": "H0"}, "9": {"label": "*0", "atom_type": "H0"}}

>  <type>  (6) 
unop_2

>  <geom_source>  (6) 
Heuristics

$$$$

     RDKit          3D

 10  9  0  0  0  0  0  0  0  0999 V2000
    0.8096    0.2481   -0.4568 N   0  0  0  0  0  0  0  0  0  0  0  0
   -0.4930   -0.0933   -0.4447 C   0  0  0  0  0  3  0  0  0  0  0  0
   -0.9903    0.5803    0.6347 C   0  0  0  0  0  0  0  0  0  0  0  0
    0.0207    1.2813    1.2084 N   0  0  0  0  0  0  0  0  0  0  0  0
    1.1080    1.0769    0.5441 N   0  0  0  0  0  0  0  0  0  0  0  0
    1.5325   -0.0345   -1.0946 H   0  0  0  0  0  0  0  0  0  0  0  0
   -1.9917    0.6046    1.0274 H   0  0  0  0  0  0  0  0  0  0  0  0
   -0.4930   -2.4447   -1.0938 O   0  0  0  0  0  0  0  0  0  0  0  0
   -0.4930   -1.3370   -0.7880 H   0  0  0  0  0  0  0  0  0  0  0  0
   -0.4930   -2.4447   -2.0513 H   0  0  0  0  0  0  0  0  0  0  0  0
  1  2  1  0
  1  5  1  0
  1  6  1  0
  2  3  2  0
  3  4  1  0
  3  7  1  0
  4  5  2  0
  8  9  1  0
  8 10  1  0
M  RAD  1   2   2
M  END
>  <reaction>  (7) 
kfir_rxn_9205

>  <mol_properties>  (7) 
{"0": {"label": "*4", "atom_type": "N3s"}, "1": {"label": "*3", "atom_type": "Cd"}, "7": {"label": "*1", "atom_type": "O2s"}, "8": {"label": "*2", "atom_type": "H0"}, "9": {"label": "*0", "atom_type": "H0"}}

>  <type>  (7) 
unop_3

>  <geom_source>  (7) 
Heuristics

$$$$

     RDKit          3D

 10  9  0  0  0  0  0  0  0  0999 V2000
   -0.6709    0.0130    0.7774 N   0  0  0  0  0  0  0  0  0  0  0  0
   -0.1943   -0.2415   -0.4561 C   0  0  0  0  0  3  0  0  0  0  0  0
    0.6670    0.7935   -0.6863 C   0  0  0  0  0  0  0  0  0  0  0  0
    0.6656    1.6053    0.4016 N   0  0  0  0  0  0  0  0  0  0  0  0
   -0.1456    1.1287    1.2847 N   0  0  0  0  0  0  0  0  0  0  0  0
   -1.3343   -0.5104    1.3206 H   0  0  0  0  0  0  0  0  0  0  0  0
    1.2757    1.0016   -1.5487 H   0  0  0  0  0  0  0  0  0  0  0  0
   -0.1943   -2.5930   -1.1052 O   0  0  0  0  0  0  0  0  0  0  0  0
   -0.1943   -1.4853   -0.7994 H   0  0  0  0  0  0  0  0  0  0  0  0
   -0.1943   -2.5930   -2.0627 H   0  0  0  0  0  0  0  0  0  0  0  0
  1  2  1  0
  1  5  1  0
  1  6  1  0
  2  3  2  0
  3  4  1  0
  3  7  1  0
  4  5  2  0
  8  9  1  0
  8 10  1  0
M  RAD  1   2   2
M  END
>  <reaction>  (8) 
kfir_rxn_9205

>  <mol_properties>  (8) 
{"0": {"label": "*4", "atom_type": "N3s"}, "1": {"label": "*3", "atom_type": "Cd"}, "7": {"label": "*1", "atom_type": "O2s"}, "8": {"label": "*2", "atom_type": "H0"}, "9": {"label": "*0", "atom_type": "H0"}}

>  <type>  (8) 
unop_4

>  <geom_source>  (8) 
Heuristics

$$$$

     RDKit          3D

 10  9  0  0  0  0  0  0  0  0999 V2000
   -0.0000    0.5425   -0.8886 N   0  0  0  0  0  0  0  0  0  0  0  0
    0.0000   -0.4677    0.0018 C   0  0  0  0  0  3  0  0  0  0  0  0
    0.0000    0.1704    1.2097 C   0  0  0  0  0  0  0  0  0  0  0  0
    0.0000    1.5098    0.9894 N   0  0  0  0  0  0  0  0  0  0  0  0
   -0.0000    1.7299   -0.2820 N   0  0  0  0  0  0  0  0  0  0  0  0
   -0.0000    0.5021   -1.8924 H   0  0  0  0  0  0  0  0  0  0  0  0
    0.0000   -0.2411    2.2038 H   0  0  0  0  0  0  0  0  0  0  0  0
    0.0000   -2.8192   -0.6472 O   0  0  0  0  0  0  0  0  0  0  0  0
    0.0000   -1.7115   -0.3415 H   0  0  0  0  0  0  0  0  0  0  0  0
    0.0000   -2.8192   -1.6048 H   0  0  0  0  0  0  0  0  0  0  0  0
  1  2  1  0
  1  5  1  0
  1  6  1  0
  2  3  2  0
  3  4  1  0
  3  7  1  0
  4  5  2  0
  8  9  1  0
  8 10  1  0
M  RAD  1   2   2
M  END
>  <reaction>  (9) 
kfir_rxn_9205

>  <mol_properties>  (9) 
{"0": {"label": "*4", "atom_type": "N3s"}, "1": {"label": "*3", "atom_type": "Cd"}, "7": {"label": "*1", "atom_type": "O2s"}, "8": {"label": "*2", "atom_type": "H0"}, "9": {"label": "*0", "atom_type": "H0"}}

>  <type>  (9) 
unop_5

>  <geom_source>  (9) 
Heuristics

$$$$

     RDKit          3D

 10  9  0  0  0  0  0  0  0  0999 V2000
   -0.8955    0.0499    0.4318 N   0  0  0  0  0  0  0  0  0  0  0  0
   -0.0513   -0.1168   -0.6041 C   0  0  0  0  0  3  0  0  0  0  0  0
    0.9432    0.7859   -0.3549 C   0  0  0  0  0  0  0  0  0  0  0  0
    0.6528    1.4395    0.7987 N   0  0  0  0  0  0  0  0  0  0  0  0
   -0.4610    0.9905    1.2711 N   0  0  0  0  0  0  0  0  0  0  0  0
   -1.7586   -0.4249    0.6282 H   0  0  0  0  0  0  0  0  0  0  0  0
    1.8320    1.0024   -0.9214 H   0  0  0  0  0  0  0  0  0  0  0  0
   -0.0513   -2.4683   -1.2531 O   0  0  0  0  0  0  0  0  0  0  0  0
   -0.0513   -1.3606   -0.9474 H   0  0  0  0  0  0  0  0  0  0  0  0
   -0.0513   -2.4683   -2.2107 H   0  0  0  0  0  0  0  0  0  0  0  0
  1  2  1  0
  1  5  1  0
  1  6  1  0
  2  3  2  0
  3  4  1  0
  3  7  1  0
  4  5  2  0
  8  9  1  0
  8 10  1  0
M  RAD  1   2   2
M  END
>  <reaction>  (10) 
kfir_rxn_9205

>  <mol_properties>  (10) 
{"0": {"label": "*4", "atom_type": "N3s"}, "1": {"label": "*3", "atom_type": "Cd"}, "7": {"label": "*1", "atom_type": "O2s"}, "8": {"label": "*2", "atom_type": "H0"}, "9": {"label": "*0", "atom_type": "H0"}}

>  <type>  (10) 
unop_6

>  <geom_source>  (10) 
Heuristics

$$$$

     RDKit          3D

 10  9  0  0  0  0  0  0  0  0999 V2000
   -0.9595    0.1212    0.0007 N   0  0  0  0  0  0  0  0  0  0  0  0
    0.2194   -0.0414   -0.6295 C   0  0  0  0  0  3  0  0  0  0  0  0
    1.0806    0.7290    0.0990 C   0  0  0  0  0  0  0  0  0  0  0  0
    0.3888    1.3068    1.1138 N   0  0  0  0  0  0  0  0  0  0  0  0
   -0.8455    0.9359    1.0501 N   0  0  0  0  0  0  0  0  0  0  0  0
   -1.8552   -0.2773   -0.2185 H   0  0  0  0  0  0  0  0  0  0  0  0
    2.1337    0.9009   -0.0399 H   0  0  0  0  0  0  0  0  0  0  0  0
    0.2194   -2.3929   -1.2786 O   0  0  0  0  0  0  0  0  0  0  0  0
    0.2194   -1.2852   -0.9728 H   0  0  0  0  0  0  0  0  0  0  0  0
    0.2194   -2.3929   -2.2362 H   0  0  0  0  0  0  0  0  0  0  0  0
  1  2  1  0
  1  5  1  0
  1  6  1  0
  2  3  2  0
  3  4  1  0
  3  7  1  0
  4  5  2  0
  8  9  1  0
  8 10  1  0
M  RAD  1   2   2
M  END
>  <reaction>  (11) 
kfir_rxn_9205

>  <mol_properties>  (11) 
{"0": {"label": "*4", "atom_type": "N3s"}, "1": {"label": "*3", "atom_type": "Cd"}, "7": {"label": "*1", "atom_type": "O2s"}, "8": {"label": "*2", "atom_type": "H0"}, "9": {"label": "*0", "atom_type": "H0"}}

>  <type>  (11) 
unop_7

>  <geom_source>  (11) 
Heuristics

$$$$

     RDKit          3D

 10  9  0  0  0  0  0  0  0  0999 V2000
    0.8955    0.0499    0.4318 N   0  0  0  0  0  0  0  0  0  0  0  0
    0.0513   -0.1168   -0.6041 C   0  0  0  0  0  3  0  0  0  0  0  0
   -0.9432    0.7859   -0.3549 C   0  0  0  0  0  0  0  0  0  0  0  0
   -0.6528    1.4395    0.7987 N   0  0  0  0  0  0  0  0  0  0  0  0
    0.4610    0.9905    1.2711 N   0  0  0  0  0  0  0  0  0  0  0  0
    1.7586   -0.4249    0.6282 H   0  0  0  0  0  0  0  0  0  0  0  0
   -1.8320    1.0024   -0.9214 H   0  0  0  0  0  0  0  0  0  0  0  0
    0.0513   -2.4683   -1.2531 O   0  0  0  0  0  0  0  0  0  0  0  0
    0.0513   -1.3606   -0.9474 H   0  0  0  0  0  0  0  0  0  0  0  0
    0.0513   -2.4683   -2.2107 H   0  0  0  0  0  0  0  0  0  0  0  0
  1  2  1  0
  1  5  1  0
  1  6  1  0
  2  3  2  0
  3  4  1  0
  3  7  1  0
  4  5  2  0
  8  9  1  0
  8 10  1  0
M  RAD  1   2   2
M  END
>  <reaction>  (12) 
kfir_rxn_9205

>  <mol_properties>  (12) 
{"0": {"label": "*4", "atom_type": "N3s"}, "1": {"label": "*3", "atom_type": "Cd"}, "7": {"label": "*1", "atom_type": "O2s"}, "8": {"label": "*2", "atom_type": "H0"}, "9": {"label": "*0", "atom_type": "H0"}}

>  <type>  (12) 
unop_8

>  <geom_source>  (12) 
Heuristics

$$$$

     RDKit          3D

 10  9  0  0  0  0  0  0  0  0999 V2000
   -0.3523    0.0035    0.9914 N   0  0  0  0  0  0  0  0  0  0  0  0
   -0.1624   -0.3579   -0.2919 C   0  0  0  0  0  3  0  0  0  0  0  0
    0.3349    0.7739   -0.8729 C   0  0  0  0  0  0  0  0  0  0  0  0
    0.4179    1.7434    0.0735 N   0  0  0  0  0  0  0  0  0  0  0  0
    0.0009    1.2723    1.2001 N   0  0  0  0  0  0  0  0  0  0  0  0
   -0.7071   -0.5414    1.7571 H   0  0  0  0  0  0  0  0  0  0  0  0
    0.6324    0.9490   -1.8920 H   0  0  0  0  0  0  0  0  0  0  0  0
   -0.1624   -2.7094   -0.9409 O   0  0  0  0  0  0  0  0  0  0  0  0
   -0.1624   -1.6017   -0.6352 H   0  0  0  0  0  0  0  0  0  0  0  0
   -0.1624   -2.7094   -1.8985 H   0  0  0  0  0  0  0  0  0  0  0  0
  1  2  1  0
  1  5  1  0
  1  6  1  0
  2  3  2  0
  3  4  1  0
  3  7  1  0
  4  5  2  0
  8  9  1  0
  8 10  1  0
M  RAD  1   2   2
M  END
>  <reaction>  (13) 
kfir_rxn_9205

>  <mol_properties>  (13) 
{"0": {"label": "*4", "atom_type": "N3s"}, "1": {"label": "*3", "atom_type": "Cd"}, "7": {"label": "*1", "atom_type": "O2s"}, "8": {"label": "*2", "atom_type": "H0"}, "9": {"label": "*0", "atom_type": "H0"}}

>  <type>  (13) 
unop_9

>  <geom_source>  (13) 
Heuristics

$$$$

     RDKit          3D

 10  9  0  0  0  0  0  0  0  0999 V2000
    0.6709    0.0130    0.7774 N   0  0  0  0  0  0  0  0  0  0  0  0
    0.1943   -0.2415   -0.4561 C   0  0  0  0  0  3  0  0  0  0  0  0
   -0.6670    0.7935   -0.6863 C   0  0  0  0  0  0  0  0  0  0  0  0
   -0.6656    1.6053    0.4016 N   0  0  0  0  0  0  0  0  0  0  0  0
    0.1456    1.1287    1.2847 N   0  0  0  0  0  0  0  0  0  0  0  0
    1.3343   -0.5104    1.3206 H   0  0  0  0  0  0  0  0  0  0  0  0
   -1.2757    1.0016   -1.5487 H   0  0  0  0  0  0  0  0  0  0  0  0
    0.1943   -2.5930   -1.1052 O   0  0  0  0  0  0  0  0  0  0  0  0
    0.1943   -1.4853   -0.7994 H   0  0  0  0  0  0  0  0  0  0  0  0
    0.1943   -2.5930   -2.0627 H   0  0  0  0  0  0  0  0  0  0  0  0
  1  2  1  0
  1  5  1  0
  1  6  1  0
  2  3  2  0
  3  4  1  0
  3  7  1  0
  4  5  2  0
  8  9  1  0
  8 10  1  0
M  RAD  1   2   2
M  END
>  <reaction>  (14) 
kfir_rxn_9205

>  <mol_properties>  (14) 
{"0": {"label": "*4", "atom_type": "N3s"}, "1": {"label": "*3", "atom_type": "Cd"}, "7": {"label": "*1", "atom_type": "O2s"}, "8": {"label": "*2", "atom_type": "H0"}, "9": {"label": "*0", "atom_type": "H0"}}

>  <type>  (14) 
unop_10

>  <geom_source>  (14) 
Heuristics

$$$$

     RDKit          3D

 10  9  0  0  0  0  0  0  0  0999 V2000
   -0.8096    0.2481   -0.4568 N   0  0  0  0  0  0  0  0  0  0  0  0
    0.4930   -0.0933   -0.4447 C   0  0  0  0  0  3  0  0  0  0  0  0
    0.9903    0.5803    0.6347 C   0  0  0  0  0  0  0  0  0  0  0  0
   -0.0207    1.2813    1.2084 N   0  0  0  0  0  0  0  0  0  0  0  0
   -1.1080    1.0769    0.5441 N   0  0  0  0  0  0  0  0  0  0  0  0
   -1.5325   -0.0345   -1.0946 H   0  0  0  0  0  0  0  0  0  0  0  0
    1.9917    0.6046    1.0274 H   0  0  0  0  0  0  0  0  0  0  0  0
    0.4930   -2.4447   -1.0938 O   0  0  0  0  0  0  0  0  0  0  0  0
    0.4930   -1.3370   -0.7880 H   0  0  0  0  0  0  0  0  0  0  0  0
    0.4930   -2.4447   -2.0513 H   0  0  0  0  0  0  0  0  0  0  0  0
  1  2  1  0
  1  5  1  0
  1  6  1  0
  2  3  2  0
  3  4  1  0
  3  7  1  0
  4  5  2  0
  8  9  1  0
  8 10  1  0
M  RAD  1   2   2
M  END
>  <reaction>  (15) 
kfir_rxn_9205

>  <mol_properties>  (15) 
{"0": {"label": "*4", "atom_type": "N3s"}, "1": {"label": "*3", "atom_type": "Cd"}, "7": {"label": "*1", "atom_type": "O2s"}, "8": {"label": "*2", "atom_type": "H0"}, "9": {"label": "*0", "atom_type": "H0"}}

>  <type>  (15) 
unop_11

>  <geom_source>  (15) 
Heuristics

$$$$

     RDKit          3D

 10  9  0  0  0  0  0  0  0  0999 V2000
    0.0000    0.0041    1.0620 N   0  0  0  0  0  0  0  0  0  0  0  0
   -0.0000   -0.4063   -0.2206 C   0  0  0  0  0  3  0  0  0  0  0  0
   -0.0000    0.7610   -0.9301 C   0  0  0  0  0  0  0  0  0  0  0  0
   -0.0000    1.7978   -0.0540 N   0  0  0  0  0  0  0  0  0  0  0  0
    0.0000    1.3346    1.1504 N   0  0  0  0  0  0  0  0  0  0  0  0
    0.0000   -0.5455    1.9028 H   0  0  0  0  0  0  0  0  0  0  0  0
   -0.0000    0.9178   -1.9946 H   0  0  0  0  0  0  0  0  0  0  0  0
   -0.0000   -2.7577   -0.8697 O   0  0  0  0  0  0  0  0  0  0  0  0
   -0.0000   -1.6501   -0.5640 H   0  0  0  0  0  0  0  0  0  0  0  0
   -0.0000   -2.7577   -1.8273 H   0  0  0  0  0  0  0  0  0  0  0  0
  1  2  1  0
  1  5  1  0
  1  6  1  0
  2  3  2  0
  3  4  1  0
  3  7  1  0
  4  5  2  0
  8  9  1  0
  8 10  1  0
M  RAD  1   2   2
M  END
>  <reaction>  (16) 
kfir_rxn_9205

>  <mol_properties>  (16) 
{"0": {"label": "*4", "atom_type": "N3s"}, "1": {"label": "*3", "atom_type": "Cd"}, "7": {"label": "*1", "atom_type": "O2s"}, "8": {"label": "*2", "atom_type": "H0"}, "9": {"label": "*0", "atom_type": "H0"}}

>  <type>  (16) 
unop_12

>  <geom_source>  (16) 
Heuristics

$$$$
