
     RDKit          3D

  7  7  0  0  0  0  0  0  0  0999 V2000
   -0.3014    0.7418   -0.0767 C   0  0  0  0  0  0  0  0  0  0  0  0
   -0.5526   -0.5795    0.0073 C   0  0  0  0  0  0  0  0  0  0  0  0
    0.6639   -1.2070   -0.0901 N   0  0  0  0  0  0  0  0  0  0  0  0
    1.5781   -0.3685   -0.2209 N   0  0  0  0  0  0  0  0  0  0  0  0
    1.0038    0.9119   -0.2183 O   0  0  0  0  0  0  0  0  0  0  0  0
   -0.9190    1.6226   -0.0521 H   0  0  0  0  0  0  0  0  0  0  0  0
   -1.4728   -1.1212    0.1257 H   0  0  0  0  0  0  0  0  0  0  0  0
  1  2  2  0
  1  5  1  0
  1  6  1  0
  2  3  1  0
  2  7  1  0
  3  4  2  0
  4  5  1  0
M  END
>  <reaction>  (1) 
kfir_rxn_8057

>  <mol_properties>  (1) 
{"1": {"label": "donator", "atom_type": "Cd"}, "6": {"label": "d_hydrogen", "atom_type": "H0"}}

>  <type>  (1) 
r1h

$$$$

     RDKit          3D

  7  6  0  0  0  0  0  0  0  0999 V2000
   -0.7275    1.0670   -0.1727 N   0  0  0  0  0  0  0  0  0  0  0  0
   -0.1657   -0.1205   -0.0568 C   0  0  0  0  0  0  0  0  0  0  0  0
   -0.8152   -1.2421   -0.3106 N   0  0  0  0  0  2  0  0  0  0  0  0
    1.2245   -0.2499    0.3650 C   0  0  0  0  0  0  0  0  0  0  0  0
    2.3205   -0.2835    0.7007 N   0  0  0  0  0  0  0  0  0  0  0  0
   -0.0719    1.8120    0.0648 H   0  0  0  0  0  0  0  0  0  0  0  0
   -1.7647   -0.9830   -0.5904 H   0  0  0  0  0  0  0  0  0  0  0  0
  1  2  2  3
  1  6  1  0
  2  4  1  0
  2  3  1  0
  3  7  1  0
  4  5  3  0
M  RAD  1   3   2
M  END
>  <reaction>  (2) 
kfir_rxn_8057

>  <mol_properties>  (2) 
{"0": {"label": "acceptor", "atom_type": "N3s"}}

>  <type>  (2) 
r2

$$$$

     RDKit          3D

  8  7  0  0  0  0  0  0  0  0999 V2000
   -1.1291   -0.3823    0.4003 N   0  0  0  0  0  0  0  0  0  0  0  0
    0.1759   -0.1441    0.0995 C   0  0  0  0  0  0  0  0  0  0  0  0
    1.1163   -0.9238    0.4406 N   0  0  0  0  0  0  0  0  0  0  0  0
    0.4005    1.1061   -0.6210 C   0  0  0  0  0  0  0  0  0  0  0  0
    0.6143    2.0747   -1.1970 N   0  0  0  0  0  0  0  0  0  0  0  0
   -1.8553    0.1184   -0.0761 H   0  0  0  0  0  0  0  0  0  0  0  0
   -1.3455   -1.2858    0.7840 H   0  0  0  0  0  0  0  0  0  0  0  0
    2.0230   -0.5632    0.1698 H   0  0  0  0  0  0  0  0  0  0  0  0
  1  2  1  0
  1  6  1  0
  1  7  1  0
  2  4  1  0
  2  3  2  3
  3  8  1  0
  4  5  3  0
M  END
>  <reaction>  (3) 
kfir_rxn_8057

>  <mol_properties>  (3) 
{"0": {"label": "acceptor", "atom_type": "N3s"}, "7": {"label": "a_hydrogen", "atom_type": "H0"}}

>  <type>  (3) 
r2h

$$$$

     RDKit          3D

 14 13  0  0  0  0  0  0  0  0999 V2000
   -0.4760   -0.6137    1.3776 N   0  0  0  0  0  0  0  0  0  0  0  0
   -0.1519   -1.7780    0.7206 C   0  0  0  0  0  0  0  0  0  0  0  0
   -0.3835   -1.9630   -0.5131 N   0  0  0  0  0  0  0  0  0  0  0  0
    0.4175   -2.8071    1.5840 C   0  0  0  0  0  0  0  0  0  0  0  0
    0.8769   -3.6272    2.2416 N   0  0  0  0  0  0  0  0  0  0  0  0
    0.1501   -0.3829    2.1429 H   0  0  0  0  0  0  0  0  0  0  0  0
   -0.1515   -2.9070   -0.8019 H   0  0  0  0  0  0  0  0  0  0  0  0
   -0.1237    1.0877   -1.6532 C   0  0  0  0  0  0  0  0  0  0  0  0
   -0.1529    1.2223   -0.3122 C   0  0  0  0  0  0  0  0  0  0  0  0
    0.2103    2.4898   -0.0100 N   0  0  0  0  0  0  0  0  0  0  0  0
    0.4405    3.1269   -1.0666 N   0  0  0  0  0  2  0  0  0  0  0  0
    0.2351    2.2614   -2.1525 O   0  0  0  0  0  0  0  0  0  0  0  0
   -0.3285    0.2704   -2.3207 H   0  0  0  0  0  0  0  0  0  0  0  0
   -0.5104    0.3069    0.6057 H   0  0  0  0  0  0  0  0  0  0  0  0
  1  2  1  0
  1  6  1  0
  1 14  1  0
  2  4  1  0
  2  3  2  3
  3  7  1  0
  4  5  3  0
  8  9  2  0
  8 12  1  0
  8 13  1  0
  9 10  2  0
 10 11  1  0
 11 12  1  0
M  RAD  1  11   2
M  END
>  <reaction>  (4) 
kfir_rxn_8057

>  <mol_properties>  (4) 
{"0": {"label": "*1", "atom_type": "N3s"}, "1": {"label": "*0", "atom_type": "Cd"}, "7": {"label": "*4", "atom_type": "Cd"}, "8": {"label": "*3", "atom_type": "Cdd"}, "13": {"label": "*2", "atom_type": "H0"}}

>  <type>  (4) 
ts

$$$$

     RDKit          3D

 14 13  0  0  0  0  0  0  0  0999 V2000
   -0.4345   -1.3868    0.5171 N   0  0  0  0  0  0  0  0  0  0  0  0
    0.6185   -1.4428    1.3765 C   0  0  0  0  0  0  0  0  0  0  0  0
    1.8257   -1.4683    0.9882 N   0  0  0  0  0  0  0  0  0  0  0  0
    0.2337   -1.5054    2.7838 C   0  0  0  0  0  0  0  0  0  0  0  0
   -0.0301   -1.5446    3.8994 N   0  0  0  0  0  0  0  0  0  0  0  0
   -1.3451   -1.1350    0.8522 H   0  0  0  0  0  0  0  0  0  0  0  0
    2.4703   -1.5546    1.7643 H   0  0  0  0  0  0  0  0  0  0  0  0
   -0.4345    0.4860   -2.4797 C   0  0  0  0  0  0  0  0  0  0  0  0
   -0.4345    0.4860   -1.1321 C   0  0  0  0  0  0  0  0  0  0  0  0
   -0.4345    1.8038   -0.7496 N   0  0  0  0  0  0  0  0  0  0  0  0
   -0.4345    2.5486   -1.7503 N   0  0  0  0  0  2  0  0  0  0  0  0
   -0.4345    1.7419   -2.8985 O   0  0  0  0  0  0  0  0  0  0  0  0
   -0.4345   -0.2885   -3.2267 H   0  0  0  0  0  0  0  0  0  0  0  0
   -0.4345   -0.4816   -0.2800 H   0  0  0  0  0  0  0  0  0  0  0  0
  1  2  1  0
  1  6  1  0
  1 14  1  0
  2  4  1  0
  2  3  2  3
  3  7  1  0
  4  5  3  0
  8  9  2  0
  8 12  1  0
  8 13  1  0
  9 10  2  0
 10 11  1  0
 11 12  1  0
M  RAD  1  11   2
M  END
>  <reaction>  (5) 
kfir_rxn_8057

>  <mol_properties>  (5) 
{"0": {"label": "*1", "atom_type": "N3s"}, "1": {"label": "*0", "atom_type": "Cd"}, "7": {"label": "*4", "atom_type": "Cd"}, "8": {"label": "*3", "atom_type": "Cdd"}, "13": {"label": "*2", "atom_type": "H0"}}

>  <type>  (5) 
unop_1

>  <geom_source>  (5) 
Heuristics

$$$$

     RDKit          3D

 14 13  0  0  0  0  0  0  0  0999 V2000
   -0.3884   -0.7231    1.1717 N   0  0  0  0  0  0  0  0  0  0  0  0
    0.2195   -1.8767    0.7846 C   0  0  0  0  0  0  0  0  0  0  0  0
    0.3008   -2.2409   -0.4276 N   0  0  0  0  0  0  0  0  0  0  0  0
    0.7396   -2.6743    1.8917 C   0  0  0  0  0  0  0  0  0  0  0  0
    1.1705   -3.3222    2.7345 N   0  0  0  0  0  0  0  0  0  0  0  0
   -0.2324   -0.3557    2.0913 H   0  0  0  0  0  0  0  0  0  0  0  0
    0.7468   -3.1452   -0.5213 H   0  0  0  0  0  0  0  0  0  0  0  0
   -0.3884    1.1497   -1.8251 C   0  0  0  0  0  0  0  0  0  0  0  0
   -0.3884    1.1497   -0.4775 C   0  0  0  0  0  0  0  0  0  0  0  0
   -0.3884    2.4676   -0.0950 N   0  0  0  0  0  0  0  0  0  0  0  0
   -0.3884    3.2123   -1.0957 N   0  0  0  0  0  2  0  0  0  0  0  0
   -0.3884    2.4056   -2.2439 O   0  0  0  0  0  0  0  0  0  0  0  0
   -0.3884    0.3753   -2.5721 H   0  0  0  0  0  0  0  0  0  0  0  0
   -0.3884    0.1821    0.3746 H   0  0  0  0  0  0  0  0  0  0  0  0
  1  2  1  0
  1  6  1  0
  1 14  1  0
  2  4  1  0
  2  3  2  3
  3  7  1  0
  4  5  3  0
  8  9  2  0
  8 12  1  0
  8 13  1  0
  9 10  2  0
 10 11  1  0
 11 12  1  0
M  RAD  1  11   2
M  END
>  <reaction>  (6) 
kfir_rxn_8057

>  <mol_properties>  (6) 
{"0": {"label": "*1", "atom_type": "N3s"}, "1": {"label": "*0", "atom_type": "Cd"}, "7": {"label": "*4", "atom_type": "Cd"}, "8": {"label": "*3", "atom_type": "Cdd"}, "13": {"label": "*2", "atom_type": "H0"}}

>  <type>  (6) 
unop_2

>  <geom_source>  (6) 
Heuristics

$$$$

     RDKit          3D

 14 13  0  0  0  0  0  0  0  0999 V2000
   -0.1526   -1.4505    0.4034 N   0  0  0  0  0  0  0  0  0  0  0  0
    0.4553   -1.2123    1.5967 C   0  0  0  0  0  0  0  0  0  0  0  0
    1.5877   -0.6494    1.6943 N   0  0  0  0  0  0  0  0  0  0  0  0
   -0.2965   -1.6933    2.7525 C   0  0  0  0  0  0  0  0  0  0  0  0
   -0.8634   -2.0479    3.6845 N   0  0  0  0  0  0  0  0  0  0  0  0
   -1.1287   -1.6770    0.3717 H   0  0  0  0  0  0  0  0  0  0  0  0
    1.9015   -0.5962    2.6555 H   0  0  0  0  0  0  0  0  0  0  0  0
   -0.1526    0.4224   -2.5935 C   0  0  0  0  0  0  0  0  0  0  0  0
   -0.1526    0.4224   -1.2459 C   0  0  0  0  0  0  0  0  0  0  0  0
   -0.1526    1.7402   -0.8634 N   0  0  0  0  0  0  0  0  0  0  0  0
   -0.1526    2.4849   -1.8640 N   0  0  0  0  0  2  0  0  0  0  0  0
   -0.1526    1.6782   -3.0123 O   0  0  0  0  0  0  0  0  0  0  0  0
   -0.1526   -0.3521   -3.3404 H   0  0  0  0  0  0  0  0  0  0  0  0
   -0.1526   -0.5453   -0.3938 H   0  0  0  0  0  0  0  0  0  0  0  0
  1  2  1  0
  1  6  1  0
  1 14  1  0
  2  4  1  0
  2  3  2  3
  3  7  1  0
  4  5  3  0
  8  9  2  0
  8 12  1  0
  8 13  1  0
  9 10  2  0
 10 11  1  0
 11 12  1  0
M  RAD  1  11   2
M  END
>  <reaction>  (7) 
kfir_rxn_8057

>  <mol_properties>  (7) 
{"0": {"label": "*1", "atom_type": "N3s"}, "1": {"label": "*0", "atom_type": "Cd"}, "7": {"label": "*4", "atom_type": "Cd"}, "8": {"label": "*3", "atom_type": "Cdd"}, "13": {"label": "*2", "atom_type": "H0"}}

>  <type>  (7) 
unop_3

>  <geom_source>  (7) 
Heuristics

$$$$

     RDKit          3D

 14 13  0  0  0  0  0  0  0  0999 V2000
    0.5583   -0.8878    0.9820 N   0  0  0  0  0  0  0  0  0  0  0  0
   -0.4947   -1.7473    0.9288 C   0  0  0  0  0  0  0  0  0  0  0  0
   -1.1886   -1.9248   -0.1180 N   0  0  0  0  0  0  0  0  0  0  0  0
   -0.7755   -2.4212    2.1935 C   0  0  0  0  0  0  0  0  0  0  0  0
   -1.0193   -2.9775    3.1666 N   0  0  0  0  0  0  0  0  0  0  0  0
    1.2170   -0.9443    1.7355 H   0  0  0  0  0  0  0  0  0  0  0  0
   -1.9558   -2.5661    0.0417 H   0  0  0  0  0  0  0  0  0  0  0  0
    0.5583    0.9851   -2.0149 C   0  0  0  0  0  0  0  0  0  0  0  0
    0.5583    0.9851   -0.6673 C   0  0  0  0  0  0  0  0  0  0  0  0
    0.5583    2.3029   -0.2848 N   0  0  0  0  0  0  0  0  0  0  0  0
    0.5583    3.0476   -1.2855 N   0  0  0  0  0  2  0  0  0  0  0  0
    0.5583    2.2409   -2.4337 O   0  0  0  0  0  0  0  0  0  0  0  0
    0.5583    0.2106   -2.7618 H   0  0  0  0  0  0  0  0  0  0  0  0
    0.5583    0.0174    0.1848 H   0  0  0  0  0  0  0  0  0  0  0  0
  1  2  1  0
  1  6  1  0
  1 14  1  0
  2  4  1  0
  2  3  2  3
  3  7  1  0
  4  5  3  0
  8  9  2  0
  8 12  1  0
  8 13  1  0
  9 10  2  0
 10 11  1  0
 11 12  1  0
M  RAD  1  11   2
M  END
>  <reaction>  (8) 
kfir_rxn_8057

>  <mol_properties>  (8) 
{"0": {"label": "*1", "atom_type": "N3s"}, "1": {"label": "*0", "atom_type": "Cd"}, "7": {"label": "*4", "atom_type": "Cd"}, "8": {"label": "*3", "atom_type": "Cdd"}, "13": {"label": "*2", "atom_type": "H0"}}

>  <type>  (8) 
unop_4

>  <geom_source>  (8) 
Heuristics

$$$$

     RDKit          3D

 14 13  0  0  0  0  0  0  0  0999 V2000
    0.0342   -1.3825    0.3902 N   0  0  0  0  0  0  0  0  0  0  0  0
    0.0342   -1.0367    1.7058 C   0  0  0  0  0  0  0  0  0  0  0  0
    0.2097    0.1538    2.1065 N   0  0  0  0  0  0  0  0  0  0  0  0
   -0.1517   -2.1635    2.6159 C   0  0  0  0  0  0  0  0  0  0  0  0
   -0.3062   -3.0220    3.3608 N   0  0  0  0  0  0  0  0  0  0  0  0
   -0.3338   -2.2696    0.1027 H   0  0  0  0  0  0  0  0  0  0  0  0
    0.2222    0.2142    3.1173 H   0  0  0  0  0  0  0  0  0  0  0  0
    0.0342    0.4903   -2.6066 C   0  0  0  0  0  0  0  0  0  0  0  0
    0.0342    0.4903   -1.2590 C   0  0  0  0  0  0  0  0  0  0  0  0
    0.0342    1.8081   -0.8765 N   0  0  0  0  0  0  0  0  0  0  0  0
    0.0342    2.5529   -1.8772 N   0  0  0  0  0  2  0  0  0  0  0  0
    0.0342    1.7462   -3.0254 O   0  0  0  0  0  0  0  0  0  0  0  0
    0.0342   -0.2842   -3.3536 H   0  0  0  0  0  0  0  0  0  0  0  0
    0.0342   -0.4773   -0.4069 H   0  0  0  0  0  0  0  0  0  0  0  0
  1  2  1  0
  1  6  1  0
  1 14  1  0
  2  4  1  0
  2  3  2  3
  3  7  1  0
  4  5  3  0
  8  9  2  0
  8 12  1  0
  8 13  1  0
  9 10  2  0
 10 11  1  0
 11 12  1  0
M  RAD  1  11   2
M  END
>  <reaction>  (9) 
kfir_rxn_8057

>  <mol_properties>  (9) 
{"0": {"label": "*1", "atom_type": "N3s"}, "1": {"label": "*0", "atom_type": "Cd"}, "7": {"label": "*4", "atom_type": "Cd"}, "8": {"label": "*3", "atom_type": "Cdd"}, "13": {"label": "*2", "atom_type": "H0"}}

>  <type>  (9) 
unop_5

>  <geom_source>  (9) 
Heuristics

$$$$

     RDKit          3D

 14 13  0  0  0  0  0  0  0  0999 V2000
    0.5916   -1.1260    0.7386 N   0  0  0  0  0  0  0  0  0  0  0  0
   -0.6242   -1.5838    1.1417 C   0  0  0  0  0  0  0  0  0  0  0  0
   -1.6397   -1.6064    0.3821 N   0  0  0  0  0  0  0  0  0  0  0  0
   -0.6639   -2.0145    2.5364 C   0  0  0  0  0  0  0  0  0  0  0  0
   -0.7305   -2.3721    3.6243 N   0  0  0  0  0  0  0  0  0  0  0  0
    1.4120   -1.3361    1.2751 H   0  0  0  0  0  0  0  0  0  0  0  0
   -2.4657   -1.9372    0.8655 H   0  0  0  0  0  0  0  0  0  0  0  0
    0.5916    0.7468   -2.2583 C   0  0  0  0  0  0  0  0  0  0  0  0
    0.5916    0.7468   -0.9107 C   0  0  0  0  0  0  0  0  0  0  0  0
    0.5916    2.0646   -0.5282 N   0  0  0  0  0  0  0  0  0  0  0  0
    0.5916    2.8094   -1.5288 N   0  0  0  0  0  2  0  0  0  0  0  0
    0.5916    2.0027   -2.6771 O   0  0  0  0  0  0  0  0  0  0  0  0
    0.5916   -0.0277   -3.0052 H   0  0  0  0  0  0  0  0  0  0  0  0
    0.5916   -0.2208   -0.0586 H   0  0  0  0  0  0  0  0  0  0  0  0
  1  2  1  0
  1  6  1  0
  1 14  1  0
  2  4  1  0
  2  3  2  3
  3  7  1  0
  4  5  3  0
  8  9  2  0
  8 12  1  0
  8 13  1  0
  9 10  2  0
 10 11  1  0
 11 12  1  0
M  RAD  1  11   2
M  END
>  <reaction>  (10) 
kfir_rxn_8057

>  <mol_properties>  (10) 
{"0": {"label": "*1", "atom_type": "N3s"}, "1": {"label": "*0", "atom_type": "Cd"}, "7": {"label": "*4", "atom_type": "Cd"}, "8": {"label": "*3", "atom_type": "Cdd"}, "13": {"label": "*2", "atom_type": "H0"}}

>  <type>  (10) 
unop_6

>  <geom_source>  (10) 
Heuristics

$$$$

     RDKit          3D

 14 13  0  0  0  0  0  0  0  0999 V2000
    0.4396   -1.3194    0.5278 N   0  0  0  0  0  0  0  0  0  0  0  0
   -0.6134   -1.3754    1.3871 C   0  0  0  0  0  0  0  0  0  0  0  0
   -1.7944   -1.0551    1.0534 N   0  0  0  0  0  0  0  0  0  0  0  0
   -0.2563   -1.8042    2.7366 C   0  0  0  0  0  0  0  0  0  0  0  0
   -0.0156   -2.1479    3.8042 N   0  0  0  0  0  0  0  0  0  0  0  0
    1.2953   -1.7927    0.7484 H   0  0  0  0  0  0  0  0  0  0  0  0
   -2.4372   -1.1169    1.8334 H   0  0  0  0  0  0  0  0  0  0  0  0
    0.4396    0.5534   -2.4691 C   0  0  0  0  0  0  0  0  0  0  0  0
    0.4396    0.5534   -1.1215 C   0  0  0  0  0  0  0  0  0  0  0  0
    0.4396    1.8712   -0.7390 N   0  0  0  0  0  0  0  0  0  0  0  0
    0.4396    2.6160   -1.7396 N   0  0  0  0  0  2  0  0  0  0  0  0
    0.4396    1.8093   -2.8879 O   0  0  0  0  0  0  0  0  0  0  0  0
    0.4396   -0.2211   -3.2160 H   0  0  0  0  0  0  0  0  0  0  0  0
    0.4396   -0.4142   -0.2694 H   0  0  0  0  0  0  0  0  0  0  0  0
  1  2  1  0
  1  6  1  0
  1 14  1  0
  2  4  1  0
  2  3  2  3
  3  7  1  0
  4  5  3  0
  8  9  2  0
  8 12  1  0
  8 13  1  0
  9 10  2  0
 10 11  1  0
 11 12  1  0
M  RAD  1  11   2
M  END
>  <reaction>  (11) 
kfir_rxn_8057

>  <mol_properties>  (11) 
{"0": {"label": "*1", "atom_type": "N3s"}, "1": {"label": "*0", "atom_type": "Cd"}, "7": {"label": "*4", "atom_type": "Cd"}, "8": {"label": "*3", "atom_type": "Cdd"}, "13": {"label": "*2", "atom_type": "H0"}}

>  <type>  (11) 
unop_7

>  <geom_source>  (11) 
Heuristics

$$$$

     RDKit          3D

 14 13  0  0  0  0  0  0  0  0999 V2000
   -0.6125   -1.1904    0.7284 N   0  0  0  0  0  0  0  0  0  0  0  0
    0.6033   -1.6481    1.1315 C   0  0  0  0  0  0  0  0  0  0  0  0
    1.5118   -2.0010    0.3198 N   0  0  0  0  0  0  0  0  0  0  0  0
    0.7565   -1.7290    2.5815 C   0  0  0  0  0  0  0  0  0  0  0  0
    0.9172   -1.7959    3.7153 N   0  0  0  0  0  0  0  0  0  0  0  0
   -1.2084   -0.7080    1.3743 H   0  0  0  0  0  0  0  0  0  0  0  0
    2.3302   -2.3552    0.7995 H   0  0  0  0  0  0  0  0  0  0  0  0
   -0.6125    0.6825   -2.2684 C   0  0  0  0  0  0  0  0  0  0  0  0
   -0.6125    0.6825   -0.9208 C   0  0  0  0  0  0  0  0  0  0  0  0
   -0.6125    2.0003   -0.5383 N   0  0  0  0  0  0  0  0  0  0  0  0
   -0.6125    2.7450   -1.5390 N   0  0  0  0  0  2  0  0  0  0  0  0
   -0.6125    1.9383   -2.6872 O   0  0  0  0  0  0  0  0  0  0  0  0
   -0.6125   -0.0920   -3.0154 H   0  0  0  0  0  0  0  0  0  0  0  0
   -0.6125   -0.2852   -0.0687 H   0  0  0  0  0  0  0  0  0  0  0  0
  1  2  1  0
  1  6  1  0
  1 14  1  0
  2  4  1  0
  2  3  2  3
  3  7  1  0
  4  5  3  0
  8  9  2  0
  8 12  1  0
  8 13  1  0
  9 10  2  0
 10 11  1  0
 11 12  1  0
M  RAD  1  11   2
M  END
>  <reaction>  (12) 
kfir_rxn_8057

>  <mol_properties>  (12) 
{"0": {"label": "*1", "atom_type": "N3s"}, "1": {"label": "*0", "atom_type": "Cd"}, "7": {"label": "*4", "atom_type": "Cd"}, "8": {"label": "*3", "atom_type": "Cdd"}, "13": {"label": "*2", "atom_type": "H0"}}

>  <type>  (12) 
unop_8

>  <geom_source>  (12) 
Heuristics

$$$$

     RDKit          3D

 14 13  0  0  0  0  0  0  0  0999 V2000
    0.3274   -0.6926    1.1766 N   0  0  0  0  0  0  0  0  0  0  0  0
   -0.2806   -1.8462    0.7894 C   0  0  0  0  0  0  0  0  0  0  0  0
   -0.6750   -2.0537   -0.3981 N   0  0  0  0  0  0  0  0  0  0  0  0
   -0.4690   -2.8098    1.8704 C   0  0  0  0  0  0  0  0  0  0  0  0
   -0.6242   -3.5957    2.6914 N   0  0  0  0  0  0  0  0  0  0  0  0
    0.8280   -0.6537    2.0443 H   0  0  0  0  0  0  0  0  0  0  0  0
   -1.1432   -2.9468   -0.4899 H   0  0  0  0  0  0  0  0  0  0  0  0
    0.3274    1.1803   -1.8203 C   0  0  0  0  0  0  0  0  0  0  0  0
    0.3274    1.1803   -0.4727 C   0  0  0  0  0  0  0  0  0  0  0  0
    0.3274    2.4981   -0.0902 N   0  0  0  0  0  0  0  0  0  0  0  0
    0.3274    3.2428   -1.0908 N   0  0  0  0  0  2  0  0  0  0  0  0
    0.3274    2.4361   -2.2391 O   0  0  0  0  0  0  0  0  0  0  0  0
    0.3274    0.4058   -2.5672 H   0  0  0  0  0  0  0  0  0  0  0  0
    0.3274    0.2127    0.3794 H   0  0  0  0  0  0  0  0  0  0  0  0
  1  2  1  0
  1  6  1  0
  1 14  1  0
  2  4  1  0
  2  3  2  3
  3  7  1  0
  4  5  3  0
  8  9  2  0
  8 12  1  0
  8 13  1  0
  9 10  2  0
 10 11  1  0
 11 12  1  0
M  RAD  1  11   2
M  END
>  <reaction>  (13) 
kfir_rxn_8057

>  <mol_properties>  (13) 
{"0": {"label": "*1", "atom_type": "N3s"}, "1": {"label": "*0", "atom_type": "Cd"}, "7": {"label": "*4", "atom_type": "Cd"}, "8": {"label": "*3", "atom_type": "Cdd"}, "13": {"label": "*2", "atom_type": "H0"}}

>  <type>  (13) 
unop_9

>  <geom_source>  (13) 
Heuristics

$$$$

     RDKit          3D

 14 13  0  0  0  0  0  0  0  0999 V2000
   -0.6015   -0.9402    0.9737 N   0  0  0  0  0  0  0  0  0  0  0  0
    0.4515   -1.7997    0.9205 C   0  0  0  0  0  0  0  0  0  0  0  0
    0.9238   -2.2461   -0.1687 N   0  0  0  0  0  0  0  0  0  0  0  0
    0.9671   -2.1887    2.2302 C   0  0  0  0  0  0  0  0  0  0  0  0
    1.4060   -2.5083    3.2407 N   0  0  0  0  0  0  0  0  0  0  0  0
   -0.7954   -0.4329    1.8163 H   0  0  0  0  0  0  0  0  0  0  0  0
    1.6753   -2.9065   -0.0121 H   0  0  0  0  0  0  0  0  0  0  0  0
   -0.6015    0.9327   -2.0232 C   0  0  0  0  0  0  0  0  0  0  0  0
   -0.6015    0.9327   -0.6756 C   0  0  0  0  0  0  0  0  0  0  0  0
   -0.6015    2.2505   -0.2931 N   0  0  0  0  0  0  0  0  0  0  0  0
   -0.6015    2.9952   -1.2937 N   0  0  0  0  0  2  0  0  0  0  0  0
   -0.6015    2.1885   -2.4420 O   0  0  0  0  0  0  0  0  0  0  0  0
   -0.6015    0.1582   -2.7701 H   0  0  0  0  0  0  0  0  0  0  0  0
   -0.6015   -0.0350    0.1765 H   0  0  0  0  0  0  0  0  0  0  0  0
  1  2  1  0
  1  6  1  0
  1 14  1  0
  2  4  1  0
  2  3  2  3
  3  7  1  0
  4  5  3  0
  8  9  2  0
  8 12  1  0
  8 13  1  0
  9 10  2  0
 10 11  1  0
 11 12  1  0
M  RAD  1  11   2
M  END
>  <reaction>  (14) 
kfir_rxn_8057

>  <mol_properties>  (14) 
{"0": {"label": "*1", "atom_type": "N3s"}, "1": {"label": "*0", "atom_type": "Cd"}, "7": {"label": "*4", "atom_type": "Cd"}, "8": {"label": "*3", "atom_type": "Cdd"}, "13": {"label": "*2", "atom_type": "H0"}}

>  <type>  (14) 
unop_10

>  <geom_source>  (14) 
Heuristics

$$$$

     RDKit          3D

 14 13  0  0  0  0  0  0  0  0999 V2000
    0.1916   -1.3949    0.4121 N   0  0  0  0  0  0  0  0  0  0  0  0
   -0.4163   -1.1568    1.6054 C   0  0  0  0  0  0  0  0  0  0  0  0
   -1.3487   -0.3088    1.7480 N   0  0  0  0  0  0  0  0  0  0  0  0
    0.1237   -1.9397    2.7136 C   0  0  0  0  0  0  0  0  0  0  0  0
    0.5145   -2.5451    3.6060 N   0  0  0  0  0  0  0  0  0  0  0  0
    0.7483   -2.2191    0.2862 H   0  0  0  0  0  0  0  0  0  0  0  0
   -1.6484   -0.2355    2.7125 H   0  0  0  0  0  0  0  0  0  0  0  0
    0.1916    0.4779   -2.5847 C   0  0  0  0  0  0  0  0  0  0  0  0
    0.1916    0.4779   -1.2371 C   0  0  0  0  0  0  0  0  0  0  0  0
    0.1916    1.7957   -0.8546 N   0  0  0  0  0  0  0  0  0  0  0  0
    0.1916    2.5405   -1.8553 N   0  0  0  0  0  2  0  0  0  0  0  0
    0.1916    1.7338   -3.0035 O   0  0  0  0  0  0  0  0  0  0  0  0
    0.1916   -0.2966   -3.3317 H   0  0  0  0  0  0  0  0  0  0  0  0
    0.1916   -0.4897   -0.3850 H   0  0  0  0  0  0  0  0  0  0  0  0
  1  2  1  0
  1  6  1  0
  1 14  1  0
  2  4  1  0
  2  3  2  3
  3  7  1  0
  4  5  3  0
  8  9  2  0
  8 12  1  0
  8 13  1  0
  9 10  2  0
 10 11  1  0
 11 12  1  0
M  RAD  1  11   2
M  END
>  <reaction>  (15) 
kfir_rxn_8057

>  <mol_properties>  (15) 
{"0": {"label": "*1", "atom_type": "N3s"}, "1": {"label": "*0", "atom_type": "Cd"}, "7": {"label": "*4", "atom_type": "Cd"}, "8": {"label": "*3", "atom_type": "Cdd"}, "13": {"label": "*2", "atom_type": "H0"}}

>  <type>  (15) 
unop_11

>  <geom_source>  (15) 
Heuristics

$$$$

     RDKit          3D

 14 13  0  0  0  0  0  0  0  0999 V2000
   -0.0342   -0.6255    1.2499 N   0  0  0  0  0  0  0  0  0  0  0  0
   -0.0342   -1.8868    0.7405 C   0  0  0  0  0  0  0  0  0  0  0  0
   -0.2097   -2.1338   -0.4912 N   0  0  0  0  0  0  0  0  0  0  0  0
    0.1517   -2.9321    1.7431 C   0  0  0  0  0  0  0  0  0  0  0  0
    0.3062   -3.7796    2.5005 N   0  0  0  0  0  0  0  0  0  0  0  0
    0.3338   -0.4525    2.1661 H   0  0  0  0  0  0  0  0  0  0  0  0
   -0.2222   -3.1287   -0.6789 H   0  0  0  0  0  0  0  0  0  0  0  0
   -0.0342    1.2473   -1.7470 C   0  0  0  0  0  0  0  0  0  0  0  0
   -0.0342    1.2473   -0.3994 C   0  0  0  0  0  0  0  0  0  0  0  0
   -0.0342    2.5651   -0.0169 N   0  0  0  0  0  0  0  0  0  0  0  0
   -0.0342    3.3099   -1.0175 N   0  0  0  0  0  2  0  0  0  0  0  0
   -0.0342    2.5032   -2.1658 O   0  0  0  0  0  0  0  0  0  0  0  0
   -0.0342    0.4728   -2.4939 H   0  0  0  0  0  0  0  0  0  0  0  0
   -0.0342    0.2797    0.4527 H   0  0  0  0  0  0  0  0  0  0  0  0
  1  2  1  0
  1  6  1  0
  1 14  1  0
  2  4  1  0
  2  3  2  3
  3  7  1  0
  4  5  3  0
  8  9  2  0
  8 12  1  0
  8 13  1  0
  9 10  2  0
 10 11  1  0
 11 12  1  0
M  RAD  1  11   2
M  END
>  <reaction>  (16) 
kfir_rxn_8057

>  <mol_properties>  (16) 
{"0": {"label": "*1", "atom_type": "N3s"}, "1": {"label": "*0", "atom_type": "Cd"}, "7": {"label": "*4", "atom_type": "Cd"}, "8": {"label": "*3", "atom_type": "Cdd"}, "13": {"label": "*2", "atom_type": "H0"}}

>  <type>  (16) 
unop_12

>  <geom_source>  (16) 
Heuristics

$$$$
