
     RDKit          3D

  7  6  0  0  0  0  0  0  0  0999 V2000
    1.3572   -0.1671    1.3611 O   0  0  0  0  0  0  0  0  0  0  0  0
    0.9236    0.0526    0.2798 C   0  0  0  0  0  0  0  0  0  0  0  0
   -0.5771   -0.0341   -0.0851 C   0  0  0  0  0  0  0  0  0  0  0  0
   -1.0319    1.5740   -0.6898 Cl  0  0  0  0  0  0  0  0  0  0  0  0
   -1.5652   -0.4943    1.2822 Cl  0  0  0  0  0  0  0  0  0  0  0  0
   -0.6988   -1.2311   -1.3932 Cl  0  0  0  0  0  0  0  0  0  0  0  0
    1.5409    0.3436   -0.5884 H   0  0  0  0  0  0  0  0  0  0  0  0
  1  2  2  0
  2  3  1  0
  2  7  1  0
  3  4  1  0
  3  5  1  0
  3  6  1  0
M  END
>  <reaction>  (1) 
kfir_rxn_7125

>  <mol_properties>  (1) 
{"1": {"label": "donator", "atom_type": "CO"}, "6": {"label": "d_hydrogen", "atom_type": "H0"}}

>  <type>  (1) 
r1h

$$$$

     RDKit          3D

  7  7  0  0  0  0  0  0  0  0999 V2000
   -1.6593    0.0222    0.2207 N   0  0  0  0  0  2  0  0  0  0  0  0
   -1.0243   -1.0789    0.0349 N   0  0  0  0  0  0  0  0  0  0  0  0
    0.2818   -1.1356   -0.1424 N   0  0  0  0  0  0  0  0  0  0  0  0
    0.9942   -0.0298   -0.1337 C   0  0  0  0  0  0  0  0  0  0  0  0
    0.2985    1.1587    0.0681 C   0  0  0  0  0  0  0  0  0  0  0  0
   -0.9530    1.1776    0.2348 N   0  0  0  0  0  0  0  0  0  0  0  0
    2.0621   -0.1142   -0.2823 H   0  0  0  0  0  0  0  0  0  0  0  0
  1  6  1  0
  1  2  1  0
  2  3  2  0
  3  4  1  0
  4  5  2  0
  4  7  1  0
  5  6  2  0
M  RAD  1   1   2
M  END
>  <reaction>  (2) 
kfir_rxn_7125

>  <mol_properties>  (2) 
{"5": {"label": "acceptor", "atom_type": "N3s"}}

>  <type>  (2) 
r2

$$$$

     RDKit          3D

  8  8  0  0  0  0  0  0  0  0999 V2000
    1.0724    1.0382    0.1636 N   0  0  0  0  0  2  0  0  0  0  0  0
   -0.0492    1.6004    0.0832 N   0  0  0  0  0  0  0  0  0  0  0  0
   -1.1900    0.8712   -0.0702 N   0  0  0  0  0  0  0  0  0  0  0  0
   -1.0970   -0.4218   -0.1321 C   0  0  0  0  0  0  0  0  0  0  0  0
    0.1255   -1.1869   -0.0529 C   0  0  0  0  0  3  0  0  0  0  0  0
    1.1111   -0.3161    0.0929 N   0  0  0  0  0  0  0  0  0  0  0  0
   -2.0394   -0.9449   -0.2545 H   0  0  0  0  0  0  0  0  0  0  0  0
    2.0665   -0.6400    0.1700 H   0  0  0  0  0  0  0  0  0  0  0  0
  1  6  1  0
  1  2  1  0
  2  3  2  0
  3  4  1  0
  4  5  2  0
  4  7  1  0
  5  6  1  0
  6  8  1  0
M  CHG  2   1  -1   5   1
M  END
>  <reaction>  (3) 
kfir_rxn_7125

>  <mol_properties>  (3) 
{"5": {"label": "acceptor", "atom_type": "N3s"}, "7": {"label": "a_hydrogen", "atom_type": "H0"}}

>  <type>  (3) 
r2h

$$$$

     RDKit          3D

 14 13  0  0  0  0  0  0  0  0999 V2000
    0.2836   -1.3364    1.7230 N   0  0  0  0  0  2  0  0  0  0  0  0
    0.2913   -2.2404    2.6169 N   0  0  0  0  0  0  0  0  0  0  0  0
   -0.2898   -3.4334    2.4128 N   0  0  0  0  0  0  0  0  0  0  0  0
   -0.8759   -3.6730    1.2732 C   0  0  0  0  0  0  0  0  0  0  0  0
   -0.9288   -2.7116    0.2180 C   0  0  0  0  0  3  0  0  0  0  0  0
   -0.3322   -1.6292    0.5656 N   0  0  0  0  0  0  0  0  0  0  0  0
   -1.3270   -4.6524    1.1666 H   0  0  0  0  0  0  0  0  0  0  0  0
   -0.8809   -0.0466   -2.2518 O   0  0  0  0  0  0  0  0  0  0  0  0
   -0.3308    0.2624   -1.2637 C   0  0  0  0  0  3  0  0  0  0  0  0
    0.3542    1.6292   -0.9850 C   0  0  0  0  0  0  0  0  0  0  0  0
   -0.4575    2.2929    0.4400 Cl  0  0  0  0  0  0  0  0  0  0  0  0
    0.2281    2.7328   -2.3494 Cl  0  0  0  0  0  0  0  0  0  0  0  0
    2.0468    1.2561   -0.6301 Cl  0  0  0  0  0  0  0  0  0  0  0  0
   -0.2694   -0.6785   -0.2087 H   0  0  0  0  0  0  0  0  0  0  0  0
  1  6  1  0
  1  2  1  0
  2  3  2  0
  3  4  1  0
  4  5  2  0
  4  7  1  0
  5  6  1  0
  6 14  1  0
  8  9  2  0
  9 10  1  0
 10 11  1  0
 10 12  1  0
 10 13  1  0
M  CHG  2   1  -1   5   1
M  RAD  1   9   2
M  END
>  <reaction>  (4) 
kfir_rxn_7125

>  <mol_properties>  (4) 
{"0": {"label": "*0", "atom_type": "N1sc"}, "5": {"label": "*1", "atom_type": "N3s"}, "7": {"label": "*4", "atom_type": "O2d"}, "8": {"label": "*3", "atom_type": "CO"}, "13": {"label": "*2", "atom_type": "H0"}}

>  <type>  (4) 
ts

$$$$

     RDKit          3D

 14 13  0  0  0  0  0  0  0  0999 V2000
    1.1351   -2.0961    0.7403 N   0  0  0  0  0  2  0  0  0  0  0  0
    0.9986   -2.4715    1.9323 N   0  0  0  0  0  0  0  0  0  0  0  0
   -0.2207   -2.8398    2.4165 N   0  0  0  0  0  0  0  0  0  0  0  0
   -1.2444   -2.7956    1.6200 C   0  0  0  0  0  0  0  0  0  0  0  0
   -1.2220   -2.3849    0.2355 C   0  0  0  0  0  3  0  0  0  0  0  0
    0.0313   -2.0692   -0.0480 N   0  0  0  0  0  0  0  0  0  0  0  0
   -2.1857   -3.1007    2.0644 H   0  0  0  0  0  0  0  0  0  0  0  0
    0.0313    0.0321   -2.6591 O   0  0  0  0  0  0  0  0  0  0  0  0
    0.0313    0.0321   -1.4737 C   0  0  0  0  0  3  0  0  0  0  0  0
    0.0313    1.3140   -0.6080 C   0  0  0  0  0  0  0  0  0  0  0  0
   -1.4242    1.2239    0.4079 Cl  0  0  0  0  0  0  0  0  0  0  0  0
    0.0313    2.7683   -1.5790 Cl  0  0  0  0  0  0  0  0  0  0  0  0
    1.4869    1.2239    0.4079 Cl  0  0  0  0  0  0  0  0  0  0  0  0
    0.0313   -1.0645   -0.7297 H   0  0  0  0  0  0  0  0  0  0  0  0
  1  6  1  0
  1  2  1  0
  2  3  2  0
  3  4  1  0
  4  5  2  0
  4  7  1  0
  5  6  1  0
  6 14  1  0
  8  9  2  0
  9 10  1  0
 10 11  1  0
 10 12  1  0
 10 13  1  0
M  CHG  2   1  -1   5   1
M  RAD  1   9   2
M  END
>  <reaction>  (5) 
kfir_rxn_7125

>  <mol_properties>  (5) 
{"0": {"label": "*0", "atom_type": "N1sc"}, "5": {"label": "*1", "atom_type": "N3s"}, "7": {"label": "*4", "atom_type": "O2d"}, "8": {"label": "*3", "atom_type": "CO"}, "13": {"label": "*2", "atom_type": "H0"}}

>  <type>  (5) 
unop_1

>  <geom_source>  (5) 
Heuristics

$$$$

     RDKit          3D

 14 13  0  0  0  0  0  0  0  0999 V2000
    0.4807   -2.8457   -0.4958 N   0  0  0  0  0  2  0  0  0  0  0  0
    0.8937   -3.8201    0.1828 N   0  0  0  0  0  0  0  0  0  0  0  0
    0.7066   -3.8650    1.5318 N   0  0  0  0  0  0  0  0  0  0  0  0
    0.0906   -2.8779    2.1066 C   0  0  0  0  0  0  0  0  0  0  0  0
   -0.4306   -1.7051    1.4440 C   0  0  0  0  0  3  0  0  0  0  0  0
   -0.1565   -1.8413    0.1567 N   0  0  0  0  0  0  0  0  0  0  0  0
   -0.0270   -2.9727    3.1807 H   0  0  0  0  0  0  0  0  0  0  0  0
   -0.1565    0.2599   -2.4545 O   0  0  0  0  0  0  0  0  0  0  0  0
   -0.1565    0.2599   -1.2690 C   0  0  0  0  0  3  0  0  0  0  0  0
   -0.1565    1.5419   -0.4033 C   0  0  0  0  0  0  0  0  0  0  0  0
   -1.6121    1.4517    0.6125 Cl  0  0  0  0  0  0  0  0  0  0  0  0
   -0.1566    2.9961   -1.3743 Cl  0  0  0  0  0  0  0  0  0  0  0  0
    1.2990    1.4518    0.6125 Cl  0  0  0  0  0  0  0  0  0  0  0  0
   -0.1565   -0.8367   -0.5250 H   0  0  0  0  0  0  0  0  0  0  0  0
  1  6  1  0
  1  2  1  0
  2  3  2  0
  3  4  1  0
  4  5  2  0
  4  7  1  0
  5  6  1  0
  6 14  1  0
  8  9  2  0
  9 10  1  0
 10 11  1  0
 10 12  1  0
 10 13  1  0
M  CHG  2   1  -1   5   1
M  RAD  1   9   2
M  END
>  <reaction>  (6) 
kfir_rxn_7125

>  <mol_properties>  (6) 
{"0": {"label": "*0", "atom_type": "N1sc"}, "5": {"label": "*1", "atom_type": "N3s"}, "7": {"label": "*4", "atom_type": "O2d"}, "8": {"label": "*3", "atom_type": "CO"}, "13": {"label": "*2", "atom_type": "H0"}}

>  <type>  (6) 
unop_2

>  <geom_source>  (6) 
Heuristics

$$$$

     RDKit          3D

 14 13  0  0  0  0  0  0  0  0999 V2000
    0.7613   -1.7439    1.1837 N   0  0  0  0  0  2  0  0  0  0  0  0
    0.3840   -2.3849    2.1973 N   0  0  0  0  0  0  0  0  0  0  0  0
   -0.6336   -3.2876    2.1176 N   0  0  0  0  0  0  0  0  0  0  0  0
   -1.2095   -3.4746    0.9697 C   0  0  0  0  0  0  0  0  0  0  0  0
   -0.8724   -2.8052   -0.2650 C   0  0  0  0  0  3  0  0  0  0  0  0
    0.1241   -1.9790    0.0094 N   0  0  0  0  0  0  0  0  0  0  0  0
   -2.0115   -4.2050    0.9716 H   0  0  0  0  0  0  0  0  0  0  0  0
    0.1241    0.1223   -2.6017 O   0  0  0  0  0  0  0  0  0  0  0  0
    0.1241    0.1223   -1.4163 C   0  0  0  0  0  3  0  0  0  0  0  0
    0.1241    1.4043   -0.5506 C   0  0  0  0  0  0  0  0  0  0  0  0
   -1.3315    1.3141    0.4653 Cl  0  0  0  0  0  0  0  0  0  0  0  0
    0.1241    2.8585   -1.5216 Cl  0  0  0  0  0  0  0  0  0  0  0  0
    1.5797    1.3141    0.4652 Cl  0  0  0  0  0  0  0  0  0  0  0  0
    0.1241   -0.9743   -0.6723 H   0  0  0  0  0  0  0  0  0  0  0  0
  1  6  1  0
  1  2  1  0
  2  3  2  0
  3  4  1  0
  4  5  2  0
  4  7  1  0
  5  6  1  0
  6 14  1  0
  8  9  2  0
  9 10  1  0
 10 11  1  0
 10 12  1  0
 10 13  1  0
M  CHG  2   1  -1   5   1
M  RAD  1   9   2
M  END
>  <reaction>  (7) 
kfir_rxn_7125

>  <mol_properties>  (7) 
{"0": {"label": "*0", "atom_type": "N1sc"}, "5": {"label": "*1", "atom_type": "N3s"}, "7": {"label": "*4", "atom_type": "O2d"}, "8": {"label": "*3", "atom_type": "CO"}, "13": {"label": "*2", "atom_type": "H0"}}

>  <type>  (7) 
unop_3

>  <geom_source>  (7) 
Heuristics

$$$$

     RDKit          3D

 14 13  0  0  0  0  0  0  0  0999 V2000
   -0.9055   -2.7008   -0.2097 N   0  0  0  0  0  2  0  0  0  0  0  0
   -1.4157   -3.3571    0.7335 N   0  0  0  0  0  0  0  0  0  0  0  0
   -0.8759   -3.3231    1.9842 N   0  0  0  0  0  0  0  0  0  0  0  0
    0.1806   -2.5966    2.1851 C   0  0  0  0  0  0  0  0  0  0  0  0
    0.8605   -1.7991    1.1912 C   0  0  0  0  0  3  0  0  0  0  0  0
    0.1983   -1.9584    0.0567 N   0  0  0  0  0  0  0  0  0  0  0  0
    0.5620   -2.6113    3.2005 H   0  0  0  0  0  0  0  0  0  0  0  0
    0.1983    0.1429   -2.5544 O   0  0  0  0  0  0  0  0  0  0  0  0
    0.1983    0.1429   -1.3689 C   0  0  0  0  0  3  0  0  0  0  0  0
    0.1983    1.4249   -0.5033 C   0  0  0  0  0  0  0  0  0  0  0  0
   -1.2573    1.3347    0.5126 Cl  0  0  0  0  0  0  0  0  0  0  0  0
    0.1983    2.8791   -1.4742 Cl  0  0  0  0  0  0  0  0  0  0  0  0
    1.6539    1.3347    0.5126 Cl  0  0  0  0  0  0  0  0  0  0  0  0
    0.1983   -0.9537   -0.6249 H   0  0  0  0  0  0  0  0  0  0  0  0
  1  6  1  0
  1  2  1  0
  2  3  2  0
  3  4  1  0
  4  5  2  0
  4  7  1  0
  5  6  1  0
  6 14  1  0
  8  9  2  0
  9 10  1  0
 10 11  1  0
 10 12  1  0
 10 13  1  0
M  CHG  2   1  -1   5   1
M  RAD  1   9   2
M  END
>  <reaction>  (8) 
kfir_rxn_7125

>  <mol_properties>  (8) 
{"0": {"label": "*0", "atom_type": "N1sc"}, "5": {"label": "*1", "atom_type": "N3s"}, "7": {"label": "*4", "atom_type": "O2d"}, "8": {"label": "*3", "atom_type": "CO"}, "13": {"label": "*2", "atom_type": "H0"}}

>  <type>  (8) 
unop_4

>  <geom_source>  (8) 
Heuristics

$$$$

     RDKit          3D

 14 13  0  0  0  0  0  0  0  0999 V2000
   -0.0000   -1.5457    1.3837 N   0  0  0  0  0  2  0  0  0  0  0  0
    0.0000   -2.4791    2.2259 N   0  0  0  0  0  0  0  0  0  0  0  0
    0.0000   -3.7825    1.8284 N   0  0  0  0  0  0  0  0  0  0  0  0
   -0.0000   -4.0442    0.5573 C   0  0  0  0  0  0  0  0  0  0  0  0
   -0.0000   -3.0682   -0.5074 C   0  0  0  0  0  3  0  0  0  0  0  0
   -0.0000   -1.8766    0.0680 N   0  0  0  0  0  0  0  0  0  0  0  0
   -0.0000   -5.0993    0.3054 H   0  0  0  0  0  0  0  0  0  0  0  0
   -0.0000    0.2246   -2.5431 O   0  0  0  0  0  0  0  0  0  0  0  0
   -0.0000    0.2246   -1.3576 C   0  0  0  0  0  3  0  0  0  0  0  0
   -0.0000    1.5066   -0.4920 C   0  0  0  0  0  0  0  0  0  0  0  0
   -1.4556    1.4165    0.5239 Cl  0  0  0  0  0  0  0  0  0  0  0  0
   -0.0000    2.9609   -1.4629 Cl  0  0  0  0  0  0  0  0  0  0  0  0
    1.4556    1.4165    0.5239 Cl  0  0  0  0  0  0  0  0  0  0  0  0
   -0.0000   -0.8720   -0.6136 H   0  0  0  0  0  0  0  0  0  0  0  0
  1  6  1  0
  1  2  1  0
  2  3  2  0
  3  4  1  0
  4  5  2  0
  4  7  1  0
  5  6  1  0
  6 14  1  0
  8  9  2  0
  9 10  1  0
 10 11  1  0
 10 12  1  0
 10 13  1  0
M  CHG  2   1  -1   5   1
M  RAD  1   9   2
M  END
>  <reaction>  (9) 
kfir_rxn_7125

>  <mol_properties>  (9) 
{"0": {"label": "*0", "atom_type": "N1sc"}, "5": {"label": "*1", "atom_type": "N3s"}, "7": {"label": "*4", "atom_type": "O2d"}, "8": {"label": "*3", "atom_type": "CO"}, "13": {"label": "*2", "atom_type": "H0"}}

>  <type>  (9) 
unop_5

>  <geom_source>  (9) 
Heuristics

$$$$

     RDKit          3D

 14 13  0  0  0  0  0  0  0  0999 V2000
   -1.1598   -2.4377    0.2326 N   0  0  0  0  0  2  0  0  0  0  0  0
   -1.4271   -2.8429    1.3923 N   0  0  0  0  0  0  0  0  0  0  0  0
   -0.4656   -2.8937    2.3566 N   0  0  0  0  0  0  0  0  0  0  0  0
    0.7380   -2.5141    2.0541 C   0  0  0  0  0  0  0  0  0  0  0  0
    1.1736   -2.0301    0.7648 C   0  0  0  0  0  3  0  0  0  0  0  0
    0.1147   -2.0531   -0.0284 N   0  0  0  0  0  0  0  0  0  0  0  0
    1.4570   -2.5781    2.8638 H   0  0  0  0  0  0  0  0  0  0  0  0
    0.1147    0.0482   -2.6395 O   0  0  0  0  0  0  0  0  0  0  0  0
    0.1147    0.0482   -1.4540 C   0  0  0  0  0  3  0  0  0  0  0  0
    0.1147    1.3301   -0.5884 C   0  0  0  0  0  0  0  0  0  0  0  0
   -1.3409    1.2400    0.4275 Cl  0  0  0  0  0  0  0  0  0  0  0  0
    0.1147    2.7844   -1.5593 Cl  0  0  0  0  0  0  0  0  0  0  0  0
    1.5703    1.2400    0.4275 Cl  0  0  0  0  0  0  0  0  0  0  0  0
    0.1147   -1.0484   -0.7100 H   0  0  0  0  0  0  0  0  0  0  0  0
  1  6  1  0
  1  2  1  0
  2  3  2  0
  3  4  1  0
  4  5  2  0
  4  7  1  0
  5  6  1  0
  6 14  1  0
  8  9  2  0
  9 10  1  0
 10 11  1  0
 10 12  1  0
 10 13  1  0
M  CHG  2   1  -1   5   1
M  RAD  1   9   2
M  END
>  <reaction>  (10) 
kfir_rxn_7125

>  <mol_properties>  (10) 
{"0": {"label": "*0", "atom_type": "N1sc"}, "5": {"label": "*1", "atom_type": "N3s"}, "7": {"label": "*4", "atom_type": "O2d"}, "8": {"label": "*3", "atom_type": "CO"}, "13": {"label": "*2", "atom_type": "H0"}}

>  <type>  (10) 
unop_6

>  <geom_source>  (10) 
Heuristics

$$$$

     RDKit          3D

 14 13  0  0  0  0  0  0  0  0999 V2000
   -1.1351   -2.0961    0.7403 N   0  0  0  0  0  2  0  0  0  0  0  0
   -0.9986   -2.4715    1.9323 N   0  0  0  0  0  0  0  0  0  0  0  0
    0.2207   -2.8398    2.4165 N   0  0  0  0  0  0  0  0  0  0  0  0
    1.2444   -2.7956    1.6200 C   0  0  0  0  0  0  0  0  0  0  0  0
    1.2220   -2.3849    0.2355 C   0  0  0  0  0  3  0  0  0  0  0  0
   -0.0313   -2.0692   -0.0480 N   0  0  0  0  0  0  0  0  0  0  0  0
    2.1857   -3.1007    2.0644 H   0  0  0  0  0  0  0  0  0  0  0  0
   -0.0313    0.0321   -2.6591 O   0  0  0  0  0  0  0  0  0  0  0  0
   -0.0313    0.0321   -1.4737 C   0  0  0  0  0  3  0  0  0  0  0  0
   -0.0313    1.3140   -0.6080 C   0  0  0  0  0  0  0  0  0  0  0  0
   -1.4869    1.2239    0.4079 Cl  0  0  0  0  0  0  0  0  0  0  0  0
   -0.0313    2.7683   -1.5790 Cl  0  0  0  0  0  0  0  0  0  0  0  0
    1.4242    1.2239    0.4079 Cl  0  0  0  0  0  0  0  0  0  0  0  0
   -0.0313   -1.0646   -0.7297 H   0  0  0  0  0  0  0  0  0  0  0  0
  1  6  1  0
  1  2  1  0
  2  3  2  0
  3  4  1  0
  4  5  2  0
  4  7  1  0
  5  6  1  0
  6 14  1  0
  8  9  2  0
  9 10  1  0
 10 11  1  0
 10 12  1  0
 10 13  1  0
M  CHG  2   1  -1   5   1
M  RAD  1   9   2
M  END
>  <reaction>  (11) 
kfir_rxn_7125

>  <mol_properties>  (11) 
{"0": {"label": "*0", "atom_type": "N1sc"}, "5": {"label": "*1", "atom_type": "N3s"}, "7": {"label": "*4", "atom_type": "O2d"}, "8": {"label": "*3", "atom_type": "CO"}, "13": {"label": "*2", "atom_type": "H0"}}

>  <type>  (11) 
unop_7

>  <geom_source>  (11) 
Heuristics

$$$$

     RDKit          3D

 14 13  0  0  0  0  0  0  0  0999 V2000
    1.1598   -2.4377    0.2326 N   0  0  0  0  0  2  0  0  0  0  0  0
    1.4271   -2.8429    1.3923 N   0  0  0  0  0  0  0  0  0  0  0  0
    0.4656   -2.8938    2.3566 N   0  0  0  0  0  0  0  0  0  0  0  0
   -0.7380   -2.5141    2.0541 C   0  0  0  0  0  0  0  0  0  0  0  0
   -1.1736   -2.0301    0.7648 C   0  0  0  0  0  3  0  0  0  0  0  0
   -0.1147   -2.0531   -0.0284 N   0  0  0  0  0  0  0  0  0  0  0  0
   -1.4570   -2.5781    2.8638 H   0  0  0  0  0  0  0  0  0  0  0  0
   -0.1147    0.0482   -2.6395 O   0  0  0  0  0  0  0  0  0  0  0  0
   -0.1147    0.0482   -1.4540 C   0  0  0  0  0  3  0  0  0  0  0  0
   -0.1147    1.3301   -0.5884 C   0  0  0  0  0  0  0  0  0  0  0  0
   -1.5703    1.2400    0.4275 Cl  0  0  0  0  0  0  0  0  0  0  0  0
   -0.1147    2.7844   -1.5593 Cl  0  0  0  0  0  0  0  0  0  0  0  0
    1.3409    1.2400    0.4275 Cl  0  0  0  0  0  0  0  0  0  0  0  0
   -0.1147   -1.0484   -0.7100 H   0  0  0  0  0  0  0  0  0  0  0  0
  1  6  1  0
  1  2  1  0
  2  3  2  0
  3  4  1  0
  4  5  2  0
  4  7  1  0
  5  6  1  0
  6 14  1  0
  8  9  2  0
  9 10  1  0
 10 11  1  0
 10 12  1  0
 10 13  1  0
M  CHG  2   1  -1   5   1
M  RAD  1   9   2
M  END
>  <reaction>  (12) 
kfir_rxn_7125

>  <mol_properties>  (12) 
{"0": {"label": "*0", "atom_type": "N1sc"}, "5": {"label": "*1", "atom_type": "N3s"}, "7": {"label": "*4", "atom_type": "O2d"}, "8": {"label": "*3", "atom_type": "CO"}, "13": {"label": "*2", "atom_type": "H0"}}

>  <type>  (12) 
unop_8

>  <geom_source>  (12) 
Heuristics

$$$$

     RDKit          3D

 14 13  0  0  0  0  0  0  0  0999 V2000
   -0.4807   -2.8457   -0.4958 N   0  0  0  0  0  2  0  0  0  0  0  0
   -0.8937   -3.8201    0.1828 N   0  0  0  0  0  0  0  0  0  0  0  0
   -0.7066   -3.8650    1.5318 N   0  0  0  0  0  0  0  0  0  0  0  0
   -0.0906   -2.8779    2.1066 C   0  0  0  0  0  0  0  0  0  0  0  0
    0.4306   -1.7051    1.4440 C   0  0  0  0  0  3  0  0  0  0  0  0
    0.1565   -1.8413    0.1567 N   0  0  0  0  0  0  0  0  0  0  0  0
    0.0270   -2.9727    3.1807 H   0  0  0  0  0  0  0  0  0  0  0  0
    0.1565    0.2599   -2.4545 O   0  0  0  0  0  0  0  0  0  0  0  0
    0.1565    0.2599   -1.2690 C   0  0  0  0  0  3  0  0  0  0  0  0
    0.1565    1.5419   -0.4033 C   0  0  0  0  0  0  0  0  0  0  0  0
   -1.2990    1.4517    0.6125 Cl  0  0  0  0  0  0  0  0  0  0  0  0
    0.1565    2.9961   -1.3743 Cl  0  0  0  0  0  0  0  0  0  0  0  0
    1.6121    1.4518    0.6125 Cl  0  0  0  0  0  0  0  0  0  0  0  0
    0.1565   -0.8367   -0.5250 H   0  0  0  0  0  0  0  0  0  0  0  0
  1  6  1  0
  1  2  1  0
  2  3  2  0
  3  4  1  0
  4  5  2  0
  4  7  1  0
  5  6  1  0
  6 14  1  0
  8  9  2  0
  9 10  1  0
 10 11  1  0
 10 12  1  0
 10 13  1  0
M  CHG  2   1  -1   5   1
M  RAD  1   9   2
M  END
>  <reaction>  (13) 
kfir_rxn_7125

>  <mol_properties>  (13) 
{"0": {"label": "*0", "atom_type": "N1sc"}, "5": {"label": "*1", "atom_type": "N3s"}, "7": {"label": "*4", "atom_type": "O2d"}, "8": {"label": "*3", "atom_type": "CO"}, "13": {"label": "*2", "atom_type": "H0"}}

>  <type>  (13) 
unop_9

>  <geom_source>  (13) 
Heuristics

$$$$

     RDKit          3D

 14 13  0  0  0  0  0  0  0  0999 V2000
    0.9055   -2.7008   -0.2097 N   0  0  0  0  0  2  0  0  0  0  0  0
    1.4156   -3.3571    0.7335 N   0  0  0  0  0  0  0  0  0  0  0  0
    0.8758   -3.3231    1.9842 N   0  0  0  0  0  0  0  0  0  0  0  0
   -0.1806   -2.5966    2.1851 C   0  0  0  0  0  0  0  0  0  0  0  0
   -0.8605   -1.7991    1.1912 C   0  0  0  0  0  3  0  0  0  0  0  0
   -0.1983   -1.9584    0.0567 N   0  0  0  0  0  0  0  0  0  0  0  0
   -0.5620   -2.6113    3.2005 H   0  0  0  0  0  0  0  0  0  0  0  0
   -0.1983    0.1429   -2.5544 O   0  0  0  0  0  0  0  0  0  0  0  0
   -0.1983    0.1429   -1.3689 C   0  0  0  0  0  3  0  0  0  0  0  0
   -0.1983    1.4249   -0.5033 C   0  0  0  0  0  0  0  0  0  0  0  0
   -1.6539    1.3347    0.5126 Cl  0  0  0  0  0  0  0  0  0  0  0  0
   -0.1983    2.8791   -1.4742 Cl  0  0  0  0  0  0  0  0  0  0  0  0
    1.2573    1.3347    0.5126 Cl  0  0  0  0  0  0  0  0  0  0  0  0
   -0.1983   -0.9537   -0.6249 H   0  0  0  0  0  0  0  0  0  0  0  0
  1  6  1  0
  1  2  1  0
  2  3  2  0
  3  4  1  0
  4  5  2  0
  4  7  1  0
  5  6  1  0
  6 14  1  0
  8  9  2  0
  9 10  1  0
 10 11  1  0
 10 12  1  0
 10 13  1  0
M  CHG  2   1  -1   5   1
M  RAD  1   9   2
M  END
>  <reaction>  (14) 
kfir_rxn_7125

>  <mol_properties>  (14) 
{"0": {"label": "*0", "atom_type": "N1sc"}, "5": {"label": "*1", "atom_type": "N3s"}, "7": {"label": "*4", "atom_type": "O2d"}, "8": {"label": "*3", "atom_type": "CO"}, "13": {"label": "*2", "atom_type": "H0"}}

>  <type>  (14) 
unop_10

>  <geom_source>  (14) 
Heuristics

$$$$

     RDKit          3D

 14 13  0  0  0  0  0  0  0  0999 V2000
   -0.7613   -1.7439    1.1837 N   0  0  0  0  0  2  0  0  0  0  0  0
   -0.3840   -2.3849    2.1973 N   0  0  0  0  0  0  0  0  0  0  0  0
    0.6336   -3.2876    2.1176 N   0  0  0  0  0  0  0  0  0  0  0  0
    1.2095   -3.4746    0.9697 C   0  0  0  0  0  0  0  0  0  0  0  0
    0.8724   -2.8052   -0.2650 C   0  0  0  0  0  3  0  0  0  0  0  0
   -0.1241   -1.9790    0.0094 N   0  0  0  0  0  0  0  0  0  0  0  0
    2.0114   -4.2050    0.9716 H   0  0  0  0  0  0  0  0  0  0  0  0
   -0.1241    0.1223   -2.6017 O   0  0  0  0  0  0  0  0  0  0  0  0
   -0.1241    0.1223   -1.4163 C   0  0  0  0  0  3  0  0  0  0  0  0
   -0.1241    1.4043   -0.5506 C   0  0  0  0  0  0  0  0  0  0  0  0
   -1.5797    1.3141    0.4653 Cl  0  0  0  0  0  0  0  0  0  0  0  0
   -0.1241    2.8585   -1.5216 Cl  0  0  0  0  0  0  0  0  0  0  0  0
    1.3315    1.3141    0.4652 Cl  0  0  0  0  0  0  0  0  0  0  0  0
   -0.1241   -0.9743   -0.6723 H   0  0  0  0  0  0  0  0  0  0  0  0
  1  6  1  0
  1  2  1  0
  2  3  2  0
  3  4  1  0
  4  5  2  0
  4  7  1  0
  5  6  1  0
  6 14  1  0
  8  9  2  0
  9 10  1  0
 10 11  1  0
 10 12  1  0
 10 13  1  0
M  CHG  2   1  -1   5   1
M  RAD  1   9   2
M  END
>  <reaction>  (15) 
kfir_rxn_7125

>  <mol_properties>  (15) 
{"0": {"label": "*0", "atom_type": "N1sc"}, "5": {"label": "*1", "atom_type": "N3s"}, "7": {"label": "*4", "atom_type": "O2d"}, "8": {"label": "*3", "atom_type": "CO"}, "13": {"label": "*2", "atom_type": "H0"}}

>  <type>  (15) 
unop_11

>  <geom_source>  (15) 
Heuristics

$$$$

     RDKit          3D

 14 13  0  0  0  0  0  0  0  0999 V2000
    0.0000   -2.8857   -0.5914 N   0  0  0  0  0  2  0  0  0  0  0  0
   -0.0000   -4.0132   -0.0353 N   0  0  0  0  0  0  0  0  0  0  0  0
   -0.0000   -4.1256    1.3227 N   0  0  0  0  0  0  0  0  0  0  0  0
    0.0000   -3.0411    2.0356 C   0  0  0  0  0  0  0  0  0  0  0  0
    0.0000   -1.6911    1.5222 C   0  0  0  0  0  3  0  0  0  0  0  0
    0.0000   -1.7855    0.2023 N   0  0  0  0  0  0  0  0  0  0  0  0
    0.0000   -3.1971    3.1091 H   0  0  0  0  0  0  0  0  0  0  0  0
    0.0000    0.3158   -2.4088 O   0  0  0  0  0  0  0  0  0  0  0  0
    0.0000    0.3158   -1.2233 C   0  0  0  0  0  3  0  0  0  0  0  0
    0.0000    1.5977   -0.3577 C   0  0  0  0  0  0  0  0  0  0  0  0
   -1.4556    1.5076    0.6582 Cl  0  0  0  0  0  0  0  0  0  0  0  0
   -0.0000    3.0520   -1.3286 Cl  0  0  0  0  0  0  0  0  0  0  0  0
    1.4556    1.5076    0.6582 Cl  0  0  0  0  0  0  0  0  0  0  0  0
    0.0000   -0.7808   -0.4793 H   0  0  0  0  0  0  0  0  0  0  0  0
  1  6  1  0
  1  2  1  0
  2  3  2  0
  3  4  1  0
  4  5  2  0
  4  7  1  0
  5  6  1  0
  6 14  1  0
  8  9  2  0
  9 10  1  0
 10 11  1  0
 10 12  1  0
 10 13  1  0
M  CHG  2   1  -1   5   1
M  RAD  1   9   2
M  END
>  <reaction>  (16) 
kfir_rxn_7125

>  <mol_properties>  (16) 
{"0": {"label": "*0", "atom_type": "N1sc"}, "5": {"label": "*1", "atom_type": "N3s"}, "7": {"label": "*4", "atom_type": "O2d"}, "8": {"label": "*3", "atom_type": "CO"}, "13": {"label": "*2", "atom_type": "H0"}}

>  <type>  (16) 
unop_12

>  <geom_source>  (16) 
Heuristics

$$$$
