
     RDKit          3D

  7  7  0  0  0  0  0  0  0  0999 V2000
    0.0194   -0.9489   -0.0769 O   0  0  0  0  0  0  0  0  0  0  0  0
    1.0462   -0.0829    0.0216 C   0  0  0  0  0  0  0  0  0  0  0  0
    0.6724    1.1224    0.2360 N   0  0  0  0  0  0  0  0  0  0  0  0
   -0.7174    1.0852    0.2894 N   0  0  0  0  0  0  0  0  0  0  0  0
   -1.0417   -0.1388    0.1018 C   0  0  0  0  0  0  0  0  0  0  0  0
    2.0476   -0.4640   -0.0840 H   0  0  0  0  0  0  0  0  0  0  0  0
   -2.0264   -0.5731    0.0725 H   0  0  0  0  0  0  0  0  0  0  0  0
  1  2  1  0
  1  5  1  0
  2  3  2  0
  2  6  1  0
  3  4  1  0
  4  5  2  0
  5  7  1  0
M  END
>  <reaction>  (1) 
kfir_rxn_8536

>  <mol_properties>  (1) 
{"1": {"label": "donator", "atom_type": "Cd"}, "5": {"label": "d_hydrogen", "atom_type": "H0"}}

>  <type>  (1) 
r1h

$$$$

     RDKit          3D

  7  7  0  0  0  0  0  0  0  0999 V2000
   -1.7673   -0.6497   -0.0905 O   0  0  0  0  0  0  0  0  0  0  0  0
   -0.5040   -1.0286   -0.3333 N   0  0  0  0  0  2  0  0  0  0  0  0
    0.2497   -0.0019   -0.0549 C   0  0  0  0  0  0  0  0  0  0  0  0
   -0.6211    1.0349    0.3744 C   0  0  0  0  0  0  0  0  0  0  0  0
   -1.8282    0.6552    0.3559 N   0  0  0  0  0  0  0  0  0  0  0  0
    1.6645   -0.0151   -0.1880 C   0  0  0  0  0  0  0  0  0  0  0  0
    2.8064    0.0052   -0.2849 N   0  0  0  0  0  0  0  0  0  0  0  0
  1  5  1  0
  1  2  1  0
  2  3  1  0
  3  6  1  0
  3  4  2  0
  4  5  2  0
  6  7  3  0
M  RAD  1   2   2
M  END
>  <reaction>  (2) 
kfir_rxn_8536

>  <mol_properties>  (2) 
{"3": {"label": "acceptor", "atom_type": "Cd"}}

>  <type>  (2) 
r2

$$$$

     RDKit          3D

  8  8  0  0  0  0  0  0  0  0999 V2000
   -0.6103    0.8141    0.0329 C   0  0  0  0  0  0  0  0  0  0  0  0
   -1.7842    0.3099    0.2352 N   0  0  0  0  0  0  0  0  0  0  0  0
   -1.6273   -1.0317    0.1738 O   0  0  0  0  0  0  0  0  0  0  0  0
   -0.3598   -1.3798   -0.0664 N   0  0  0  0  0  0  0  0  0  0  0  0
    0.2983   -0.2585   -0.1594 C   0  0  0  0  0  0  0  0  0  0  0  0
    1.6978   -0.2097   -0.4140 C   0  0  0  0  0  0  0  0  0  0  0  0
    2.8226   -0.1211   -0.6175 N   0  0  0  0  0  0  0  0  0  0  0  0
   -0.4370    1.8768    0.0271 H   0  0  0  0  0  0  0  0  0  0  0  0
  1  5  1  0
  1  2  2  0
  1  8  1  0
  2  3  1  0
  3  4  1  0
  4  5  2  0
  5  6  1  0
  6  7  3  0
M  END
>  <reaction>  (3) 
kfir_rxn_8536

>  <mol_properties>  (3) 
{"3": {"label": "acceptor", "atom_type": "Cd"}, "7": {"label": "a_hydrogen", "atom_type": "H0"}}

>  <type>  (3) 
r2h

$$$$

     RDKit          3D

 14 14  0  0  0  0  0  0  0  0999 V2000
    1.1937   -2.1301    2.0424 O   0  0  0  0  0  0  0  0  0  0  0  0
    0.0988   -2.7140    1.5398 N   0  0  0  0  0  2  0  0  0  0  0  0
   -0.3734   -1.8860    0.6509 C   0  0  0  0  0  0  0  0  0  0  0  0
    0.4821   -0.7536    0.6225 C   0  0  0  0  0  0  0  0  0  0  0  0
    1.4283   -0.9143    1.4717 N   0  0  0  0  0  0  0  0  0  0  0  0
   -1.5489   -2.1460   -0.1062 C   0  0  0  0  0  0  0  0  0  0  0  0
   -2.4946   -2.3118   -0.7324 N   0  0  0  0  0  0  0  0  0  0  0  0
   -0.2672    2.4849   -0.3519 O   0  0  0  0  0  0  0  0  0  0  0  0
    0.3599    1.4133   -0.8546 C   0  0  0  0  0  0  0  0  0  0  0  0
    0.8435    1.5627   -2.0196 N   0  0  0  0  0  0  0  0  0  0  0  0
    0.5204    2.8815   -2.3687 N   0  0  0  0  0  0  0  0  0  0  0  0
   -0.1196    3.3646   -1.3700 C   0  0  0  0  0  0  0  0  0  0  0  0
    0.4126    0.3324   -0.1201 H   0  0  0  0  0  0  0  0  0  0  0  0
   -0.5356    4.3511   -1.2557 H   0  0  0  0  0  0  0  0  0  0  0  0
  1  5  1  0
  1  2  1  0
  2  3  1  0
  3  6  1  0
  3  4  2  0
  4  5  2  0
  6  7  3  0
  8  9  1  0
  8 12  1  0
  9 10  2  0
  9 13  1  0
 10 11  1  0
 11 12  2  0
 12 14  1  0
M  RAD  1   2   2
M  END
>  <reaction>  (4) 
kfir_rxn_8536

>  <mol_properties>  (4) 
{"3": {"label": "*3", "atom_type": "Cdd"}, "4": {"label": "*4", "atom_type": "N3d"}, "7": {"label": "*0", "atom_type": "O2s"}, "8": {"label": "*1", "atom_type": "Cd"}, "12": {"label": "*2", "atom_type": "H0"}}

>  <type>  (4) 
ts

$$$$

     RDKit          3D

 14 14  0  0  0  0  0  0  0  0999 V2000
   -1.3473   -1.6787    1.9909 O   0  0  0  0  0  0  0  0  0  0  0  0
   -0.0621   -1.9686    2.2139 N   0  0  0  0  0  2  0  0  0  0  0  0
    0.5728   -1.5867    1.1415 C   0  0  0  0  0  0  0  0  0  0  0  0
   -0.3689   -1.0423    0.2305 C   0  0  0  0  0  0  0  0  0  0  0  0
   -1.5386   -1.1118    0.7783 N   0  0  0  0  0  0  0  0  0  0  0  0
    1.9811   -1.7296    0.9924 C   0  0  0  0  0  0  0  0  0  0  0  0
    3.1117   -1.8243    0.8275 N   0  0  0  0  0  0  0  0  0  0  0  0
   -0.3689    1.2325   -2.3421 O   0  0  0  0  0  0  0  0  0  0  0  0
   -0.3689    1.2325   -0.9952 C   0  0  0  0  0  0  0  0  0  0  0  0
   -0.3689    2.4085   -0.4896 N   0  0  0  0  0  0  0  0  0  0  0  0
   -0.3689    3.2861   -1.5692 N   0  0  0  0  0  0  0  0  0  0  0  0
   -0.3689    2.5510   -2.6172 C   0  0  0  0  0  0  0  0  0  0  0  0
   -0.3689    0.0952   -0.3824 H   0  0  0  0  0  0  0  0  0  0  0  0
   -0.3689    2.8574   -3.6493 H   0  0  0  0  0  0  0  0  0  0  0  0
  1  5  1  0
  1  2  1  0
  2  3  1  0
  3  6  1  0
  3  4  2  0
  4  5  2  0
  6  7  3  0
  8  9  1  0
  8 12  1  0
  9 10  2  0
  9 13  1  0
 10 11  1  0
 11 12  2  0
 12 14  1  0
M  RAD  1   2   2
M  END
>  <reaction>  (5) 
kfir_rxn_8536

>  <mol_properties>  (5) 
{"3": {"label": "*3", "atom_type": "Cdd"}, "4": {"label": "*4", "atom_type": "N3d"}, "7": {"label": "*0", "atom_type": "O2s"}, "8": {"label": "*1", "atom_type": "Cd"}, "12": {"label": "*2", "atom_type": "H0"}}

>  <type>  (5) 
unop_1

>  <geom_source>  (5) 
Heuristics

$$$$

     RDKit          3D

 14 14  0  0  0  0  0  0  0  0999 V2000
   -0.0706   -1.9323    2.5281 O   0  0  0  0  0  0  0  0  0  0  0  0
    0.3830   -2.6694    1.5102 N   0  0  0  0  0  2  0  0  0  0  0  0
    0.2730   -1.9123    0.4549 C   0  0  0  0  0  0  0  0  0  0  0  0
   -0.2707   -0.6633    0.8516 C   0  0  0  0  0  0  0  0  0  0  0  0
   -0.4715   -0.7042    2.1288 N   0  0  0  0  0  0  0  0  0  0  0  0
    0.6589   -2.3470   -0.8443 C   0  0  0  0  0  0  0  0  0  0  0  0
    0.9560   -2.6531   -1.9085 N   0  0  0  0  0  0  0  0  0  0  0  0
   -0.2707    1.6115   -1.7210 O   0  0  0  0  0  0  0  0  0  0  0  0
   -0.2707    1.6115   -0.3741 C   0  0  0  0  0  0  0  0  0  0  0  0
   -0.2707    2.7875    0.1315 N   0  0  0  0  0  0  0  0  0  0  0  0
   -0.2707    3.6651   -0.9482 N   0  0  0  0  0  0  0  0  0  0  0  0
   -0.2707    2.9300   -1.9961 C   0  0  0  0  0  0  0  0  0  0  0  0
   -0.2707    0.4742    0.2387 H   0  0  0  0  0  0  0  0  0  0  0  0
   -0.2707    3.2364   -3.0282 H   0  0  0  0  0  0  0  0  0  0  0  0
  1  5  1  0
  1  2  1  0
  2  3  1  0
  3  6  1  0
  3  4  2  0
  4  5  2  0
  6  7  3  0
  8  9  1  0
  8 12  1  0
  9 10  2  0
  9 13  1  0
 10 11  1  0
 11 12  2  0
 12 14  1  0
M  RAD  1   2   2
M  END
>  <reaction>  (6) 
kfir_rxn_8536

>  <mol_properties>  (6) 
{"3": {"label": "*3", "atom_type": "Cdd"}, "4": {"label": "*4", "atom_type": "N3d"}, "7": {"label": "*0", "atom_type": "O2s"}, "8": {"label": "*1", "atom_type": "Cd"}, "12": {"label": "*2", "atom_type": "H0"}}

>  <type>  (6) 
unop_2

>  <geom_source>  (6) 
Heuristics

$$$$

     RDKit          3D

 14 14  0  0  0  0  0  0  0  0999 V2000
   -1.5843   -2.1470    1.2526 O   0  0  0  0  0  0  0  0  0  0  0  0
   -0.5136   -2.0985    2.0503 N   0  0  0  0  0  2  0  0  0  0  0  0
    0.3965   -1.4557    1.3739 C   0  0  0  0  0  0  0  0  0  0  0  0
   -0.1471   -1.1001    0.1126 C   0  0  0  0  0  0  0  0  0  0  0  0
   -1.3637   -1.5371    0.0661 N   0  0  0  0  0  0  0  0  0  0  0  0
    1.6967   -1.1966    1.8920 C   0  0  0  0  0  0  0  0  0  0  0  0
    2.7551   -0.9649    2.2670 N   0  0  0  0  0  0  0  0  0  0  0  0
   -0.1471    1.1748   -2.4600 O   0  0  0  0  0  0  0  0  0  0  0  0
   -0.1471    1.1748   -1.1131 C   0  0  0  0  0  0  0  0  0  0  0  0
   -0.1471    2.3508   -0.6075 N   0  0  0  0  0  0  0  0  0  0  0  0
   -0.1471    3.2284   -1.6871 N   0  0  0  0  0  0  0  0  0  0  0  0
   -0.1471    2.4932   -2.7351 C   0  0  0  0  0  0  0  0  0  0  0  0
   -0.1471    0.0374   -0.5003 H   0  0  0  0  0  0  0  0  0  0  0  0
   -0.1471    2.7996   -3.7672 H   0  0  0  0  0  0  0  0  0  0  0  0
  1  5  1  0
  1  2  1  0
  2  3  1  0
  3  6  1  0
  3  4  2  0
  4  5  2  0
  6  7  3  0
  8  9  1  0
  8 12  1  0
  9 10  2  0
  9 13  1  0
 10 11  1  0
 11 12  2  0
 12 14  1  0
M  RAD  1   2   2
M  END
>  <reaction>  (7) 
kfir_rxn_8536

>  <mol_properties>  (7) 
{"3": {"label": "*3", "atom_type": "Cdd"}, "4": {"label": "*4", "atom_type": "N3d"}, "7": {"label": "*0", "atom_type": "O2s"}, "8": {"label": "*1", "atom_type": "Cd"}, "12": {"label": "*2", "atom_type": "H0"}}

>  <type>  (7) 
unop_3

>  <geom_source>  (7) 
Heuristics

$$$$

     RDKit          3D

 14 14  0  0  0  0  0  0  0  0999 V2000
    0.3439   -1.7330    2.5512 O   0  0  0  0  0  0  0  0  0  0  0  0
   -0.5322   -2.4039    1.7977 N   0  0  0  0  0  2  0  0  0  0  0  0
   -0.4909   -1.8358    0.6252 C   0  0  0  0  0  0  0  0  0  0  0  0
    0.4508   -0.7756    0.6716 C   0  0  0  0  0  0  0  0  0  0  0  0
    0.9472   -0.7360    1.8654 N   0  0  0  0  0  0  0  0  0  0  0  0
   -1.2932   -2.2716   -0.4666 C   0  0  0  0  0  0  0  0  0  0  0  0
   -1.9192   -2.5871   -1.3739 N   0  0  0  0  0  0  0  0  0  0  0  0
    0.4508    1.4993   -1.9010 O   0  0  0  0  0  0  0  0  0  0  0  0
    0.4508    1.4993   -0.5542 C   0  0  0  0  0  0  0  0  0  0  0  0
    0.4508    2.6753   -0.0486 N   0  0  0  0  0  0  0  0  0  0  0  0
    0.4508    3.5529   -1.1282 N   0  0  0  0  0  0  0  0  0  0  0  0
    0.4508    2.8177   -2.1761 C   0  0  0  0  0  0  0  0  0  0  0  0
    0.4508    0.3619    0.0586 H   0  0  0  0  0  0  0  0  0  0  0  0
    0.4508    3.1241   -3.2082 H   0  0  0  0  0  0  0  0  0  0  0  0
  1  5  1  0
  1  2  1  0
  2  3  1  0
  3  6  1  0
  3  4  2  0
  4  5  2  0
  6  7  3  0
  8  9  1  0
  8 12  1  0
  9 10  2  0
  9 13  1  0
 10 11  1  0
 11 12  2  0
 12 14  1  0
M  RAD  1   2   2
M  END
>  <reaction>  (8) 
kfir_rxn_8536

>  <mol_properties>  (8) 
{"3": {"label": "*3", "atom_type": "Cdd"}, "4": {"label": "*4", "atom_type": "N3d"}, "7": {"label": "*0", "atom_type": "O2s"}, "8": {"label": "*1", "atom_type": "Cd"}, "12": {"label": "*2", "atom_type": "H0"}}

>  <type>  (8) 
unop_4

>  <geom_source>  (8) 
Heuristics

$$$$

     RDKit          3D

 14 14  0  0  0  0  0  0  0  0999 V2000
    0.0000   -3.1432    0.4246 O   0  0  0  0  0  0  0  0  0  0  0  0
    0.0000   -2.6345    1.6601 N   0  0  0  0  0  2  0  0  0  0  0  0
    0.0000   -1.3404    1.5046 C   0  0  0  0  0  0  0  0  0  0  0  0
    0.0000   -1.0539    0.1150 C   0  0  0  0  0  0  0  0  0  0  0  0
    0.0000   -2.1790   -0.5233 N   0  0  0  0  0  0  0  0  0  0  0  0
   -0.0000   -0.4360    2.6037 C   0  0  0  0  0  0  0  0  0  0  0  0
   -0.0000    0.3299    3.4568 N   0  0  0  0  0  0  0  0  0  0  0  0
   -0.0000    1.2209   -2.4576 O   0  0  0  0  0  0  0  0  0  0  0  0
   -0.0000    1.2209   -1.1108 C   0  0  0  0  0  0  0  0  0  0  0  0
   -0.0000    2.3969   -0.6052 N   0  0  0  0  0  0  0  0  0  0  0  0
   -0.0000    3.2745   -1.6848 N   0  0  0  0  0  0  0  0  0  0  0  0
   -0.0000    2.5394   -2.7327 C   0  0  0  0  0  0  0  0  0  0  0  0
   -0.0000    0.0836   -0.4979 H   0  0  0  0  0  0  0  0  0  0  0  0
   -0.0000    2.8458   -3.7648 H   0  0  0  0  0  0  0  0  0  0  0  0
  1  5  1  0
  1  2  1  0
  2  3  1  0
  3  6  1  0
  3  4  2  0
  4  5  2  0
  6  7  3  0
  8  9  1  0
  8 12  1  0
  9 10  2  0
  9 13  1  0
 10 11  1  0
 11 12  2  0
 12 14  1  0
M  RAD  1   2   2
M  END
>  <reaction>  (9) 
kfir_rxn_8536

>  <mol_properties>  (9) 
{"3": {"label": "*3", "atom_type": "Cdd"}, "4": {"label": "*4", "atom_type": "N3d"}, "7": {"label": "*0", "atom_type": "O2s"}, "8": {"label": "*1", "atom_type": "Cd"}, "12": {"label": "*2", "atom_type": "H0"}}

>  <type>  (9) 
unop_5

>  <geom_source>  (9) 
Heuristics

$$$$

     RDKit          3D

 14 14  0  0  0  0  0  0  0  0999 V2000
    0.8264   -1.6007    2.4091 O   0  0  0  0  0  0  0  0  0  0  0  0
   -0.3602   -2.1239    2.0875 N   0  0  0  0  0  2  0  0  0  0  0  0
   -0.6019   -1.7198    0.8721 C   0  0  0  0  0  0  0  0  0  0  0  0
    0.4855   -0.9175    0.4398 C   0  0  0  0  0  0  0  0  0  0  0  0
    1.3468   -0.8619    1.4033 N   0  0  0  0  0  0  0  0  0  0  0  0
   -1.7876   -2.0727    0.1683 C   0  0  0  0  0  0  0  0  0  0  0  0
   -2.7264   -2.3307   -0.4373 N   0  0  0  0  0  0  0  0  0  0  0  0
    0.4855    1.3573   -2.1328 O   0  0  0  0  0  0  0  0  0  0  0  0
    0.4855    1.3573   -0.7860 C   0  0  0  0  0  0  0  0  0  0  0  0
    0.4855    2.5333   -0.2804 N   0  0  0  0  0  0  0  0  0  0  0  0
    0.4855    3.4109   -1.3600 N   0  0  0  0  0  0  0  0  0  0  0  0
    0.4855    2.6758   -2.4079 C   0  0  0  0  0  0  0  0  0  0  0  0
    0.4855    0.2200   -0.1731 H   0  0  0  0  0  0  0  0  0  0  0  0
    0.4855    2.9821   -3.4400 H   0  0  0  0  0  0  0  0  0  0  0  0
  1  5  1  0
  1  2  1  0
  2  3  1  0
  3  6  1  0
  3  4  2  0
  4  5  2  0
  6  7  3  0
  8  9  1  0
  8 12  1  0
  9 10  2  0
  9 13  1  0
 10 11  1  0
 11 12  2  0
 12 14  1  0
M  RAD  1   2   2
M  END
>  <reaction>  (10) 
kfir_rxn_8536

>  <mol_properties>  (10) 
{"3": {"label": "*3", "atom_type": "Cdd"}, "4": {"label": "*4", "atom_type": "N3d"}, "7": {"label": "*0", "atom_type": "O2s"}, "8": {"label": "*1", "atom_type": "Cd"}, "12": {"label": "*2", "atom_type": "H0"}}

>  <type>  (10) 
unop_6

>  <geom_source>  (10) 
Heuristics

$$$$

     RDKit          3D

 14 14  0  0  0  0  0  0  0  0999 V2000
    1.3473   -1.6787    1.9909 O   0  0  0  0  0  0  0  0  0  0  0  0
    0.0621   -1.9686    2.2139 N   0  0  0  0  0  2  0  0  0  0  0  0
   -0.5728   -1.5867    1.1415 C   0  0  0  0  0  0  0  0  0  0  0  0
    0.3689   -1.0423    0.2305 C   0  0  0  0  0  0  0  0  0  0  0  0
    1.5386   -1.1118    0.7783 N   0  0  0  0  0  0  0  0  0  0  0  0
   -1.9811   -1.7296    0.9924 C   0  0  0  0  0  0  0  0  0  0  0  0
   -3.1117   -1.8243    0.8275 N   0  0  0  0  0  0  0  0  0  0  0  0
    0.3689    1.2325   -2.3421 O   0  0  0  0  0  0  0  0  0  0  0  0
    0.3689    1.2325   -0.9952 C   0  0  0  0  0  0  0  0  0  0  0  0
    0.3689    2.4085   -0.4896 N   0  0  0  0  0  0  0  0  0  0  0  0
    0.3689    3.2861   -1.5692 N   0  0  0  0  0  0  0  0  0  0  0  0
    0.3689    2.5510   -2.6172 C   0  0  0  0  0  0  0  0  0  0  0  0
    0.3689    0.0952   -0.3824 H   0  0  0  0  0  0  0  0  0  0  0  0
    0.3689    2.8574   -3.6493 H   0  0  0  0  0  0  0  0  0  0  0  0
  1  5  1  0
  1  2  1  0
  2  3  1  0
  3  6  1  0
  3  4  2  0
  4  5  2  0
  6  7  3  0
  8  9  1  0
  8 12  1  0
  9 10  2  0
  9 13  1  0
 10 11  1  0
 11 12  2  0
 12 14  1  0
M  RAD  1   2   2
M  END
>  <reaction>  (11) 
kfir_rxn_8536

>  <mol_properties>  (11) 
{"3": {"label": "*3", "atom_type": "Cdd"}, "4": {"label": "*4", "atom_type": "N3d"}, "7": {"label": "*0", "atom_type": "O2s"}, "8": {"label": "*1", "atom_type": "Cd"}, "12": {"label": "*2", "atom_type": "H0"}}

>  <type>  (11) 
unop_7

>  <geom_source>  (11) 
Heuristics

$$$$

     RDKit          3D

 14 14  0  0  0  0  0  0  0  0999 V2000
   -0.8264   -1.6007    2.4091 O   0  0  0  0  0  0  0  0  0  0  0  0
    0.3602   -2.1239    2.0875 N   0  0  0  0  0  2  0  0  0  0  0  0
    0.6019   -1.7198    0.8721 C   0  0  0  0  0  0  0  0  0  0  0  0
   -0.4855   -0.9175    0.4398 C   0  0  0  0  0  0  0  0  0  0  0  0
   -1.3468   -0.8619    1.4033 N   0  0  0  0  0  0  0  0  0  0  0  0
    1.7876   -2.0727    0.1683 C   0  0  0  0  0  0  0  0  0  0  0  0
    2.7264   -2.3307   -0.4373 N   0  0  0  0  0  0  0  0  0  0  0  0
   -0.4855    1.3573   -2.1328 O   0  0  0  0  0  0  0  0  0  0  0  0
   -0.4855    1.3573   -0.7860 C   0  0  0  0  0  0  0  0  0  0  0  0
   -0.4855    2.5333   -0.2804 N   0  0  0  0  0  0  0  0  0  0  0  0
   -0.4855    3.4109   -1.3600 N   0  0  0  0  0  0  0  0  0  0  0  0
   -0.4855    2.6758   -2.4079 C   0  0  0  0  0  0  0  0  0  0  0  0
   -0.4855    0.2200   -0.1731 H   0  0  0  0  0  0  0  0  0  0  0  0
   -0.4855    2.9821   -3.4400 H   0  0  0  0  0  0  0  0  0  0  0  0
  1  5  1  0
  1  2  1  0
  2  3  1  0
  3  6  1  0
  3  4  2  0
  4  5  2  0
  6  7  3  0
  8  9  1  0
  8 12  1  0
  9 10  2  0
  9 13  1  0
 10 11  1  0
 11 12  2  0
 12 14  1  0
M  RAD  1   2   2
M  END
>  <reaction>  (12) 
kfir_rxn_8536

>  <mol_properties>  (12) 
{"3": {"label": "*3", "atom_type": "Cdd"}, "4": {"label": "*4", "atom_type": "N3d"}, "7": {"label": "*0", "atom_type": "O2s"}, "8": {"label": "*1", "atom_type": "Cd"}, "12": {"label": "*2", "atom_type": "H0"}}

>  <type>  (12) 
unop_8

>  <geom_source>  (12) 
Heuristics

$$$$

     RDKit          3D

 14 14  0  0  0  0  0  0  0  0999 V2000
    0.0706   -1.9323    2.5281 O   0  0  0  0  0  0  0  0  0  0  0  0
   -0.3830   -2.6694    1.5102 N   0  0  0  0  0  2  0  0  0  0  0  0
   -0.2730   -1.9123    0.4549 C   0  0  0  0  0  0  0  0  0  0  0  0
    0.2707   -0.6633    0.8516 C   0  0  0  0  0  0  0  0  0  0  0  0
    0.4715   -0.7042    2.1288 N   0  0  0  0  0  0  0  0  0  0  0  0
   -0.6589   -2.3470   -0.8443 C   0  0  0  0  0  0  0  0  0  0  0  0
   -0.9560   -2.6531   -1.9085 N   0  0  0  0  0  0  0  0  0  0  0  0
    0.2707    1.6115   -1.7210 O   0  0  0  0  0  0  0  0  0  0  0  0
    0.2707    1.6115   -0.3741 C   0  0  0  0  0  0  0  0  0  0  0  0
    0.2707    2.7875    0.1315 N   0  0  0  0  0  0  0  0  0  0  0  0
    0.2707    3.6651   -0.9482 N   0  0  0  0  0  0  0  0  0  0  0  0
    0.2707    2.9300   -1.9961 C   0  0  0  0  0  0  0  0  0  0  0  0
    0.2707    0.4742    0.2387 H   0  0  0  0  0  0  0  0  0  0  0  0
    0.2707    3.2364   -3.0282 H   0  0  0  0  0  0  0  0  0  0  0  0
  1  5  1  0
  1  2  1  0
  2  3  1  0
  3  6  1  0
  3  4  2  0
  4  5  2  0
  6  7  3  0
  8  9  1  0
  8 12  1  0
  9 10  2  0
  9 13  1  0
 10 11  1  0
 11 12  2  0
 12 14  1  0
M  RAD  1   2   2
M  END
>  <reaction>  (13) 
kfir_rxn_8536

>  <mol_properties>  (13) 
{"3": {"label": "*3", "atom_type": "Cdd"}, "4": {"label": "*4", "atom_type": "N3d"}, "7": {"label": "*0", "atom_type": "O2s"}, "8": {"label": "*1", "atom_type": "Cd"}, "12": {"label": "*2", "atom_type": "H0"}}

>  <type>  (13) 
unop_9

>  <geom_source>  (13) 
Heuristics

$$$$

     RDKit          3D

 14 14  0  0  0  0  0  0  0  0999 V2000
   -0.3439   -1.7330    2.5512 O   0  0  0  0  0  0  0  0  0  0  0  0
    0.5322   -2.4039    1.7977 N   0  0  0  0  0  2  0  0  0  0  0  0
    0.4909   -1.8358    0.6252 C   0  0  0  0  0  0  0  0  0  0  0  0
   -0.4508   -0.7756    0.6716 C   0  0  0  0  0  0  0  0  0  0  0  0
   -0.9472   -0.7360    1.8654 N   0  0  0  0  0  0  0  0  0  0  0  0
    1.2932   -2.2716   -0.4666 C   0  0  0  0  0  0  0  0  0  0  0  0
    1.9192   -2.5871   -1.3739 N   0  0  0  0  0  0  0  0  0  0  0  0
   -0.4508    1.4993   -1.9010 O   0  0  0  0  0  0  0  0  0  0  0  0
   -0.4508    1.4993   -0.5542 C   0  0  0  0  0  0  0  0  0  0  0  0
   -0.4508    2.6753   -0.0486 N   0  0  0  0  0  0  0  0  0  0  0  0
   -0.4508    3.5529   -1.1282 N   0  0  0  0  0  0  0  0  0  0  0  0
   -0.4508    2.8177   -2.1761 C   0  0  0  0  0  0  0  0  0  0  0  0
   -0.4508    0.3619    0.0586 H   0  0  0  0  0  0  0  0  0  0  0  0
   -0.4508    3.1241   -3.2082 H   0  0  0  0  0  0  0  0  0  0  0  0
  1  5  1  0
  1  2  1  0
  2  3  1  0
  3  6  1  0
  3  4  2  0
  4  5  2  0
  6  7  3  0
  8  9  1  0
  8 12  1  0
  9 10  2  0
  9 13  1  0
 10 11  1  0
 11 12  2  0
 12 14  1  0
M  RAD  1   2   2
M  END
>  <reaction>  (14) 
kfir_rxn_8536

>  <mol_properties>  (14) 
{"3": {"label": "*3", "atom_type": "Cdd"}, "4": {"label": "*4", "atom_type": "N3d"}, "7": {"label": "*0", "atom_type": "O2s"}, "8": {"label": "*1", "atom_type": "Cd"}, "12": {"label": "*2", "atom_type": "H0"}}

>  <type>  (14) 
unop_10

>  <geom_source>  (14) 
Heuristics

$$$$

     RDKit          3D

 14 14  0  0  0  0  0  0  0  0999 V2000
    1.5843   -2.1470    1.2526 O   0  0  0  0  0  0  0  0  0  0  0  0
    0.5136   -2.0985    2.0503 N   0  0  0  0  0  2  0  0  0  0  0  0
   -0.3965   -1.4557    1.3739 C   0  0  0  0  0  0  0  0  0  0  0  0
    0.1471   -1.1001    0.1126 C   0  0  0  0  0  0  0  0  0  0  0  0
    1.3637   -1.5371    0.0661 N   0  0  0  0  0  0  0  0  0  0  0  0
   -1.6967   -1.1966    1.8920 C   0  0  0  0  0  0  0  0  0  0  0  0
   -2.7551   -0.9649    2.2670 N   0  0  0  0  0  0  0  0  0  0  0  0
    0.1471    1.1748   -2.4600 O   0  0  0  0  0  0  0  0  0  0  0  0
    0.1471    1.1748   -1.1131 C   0  0  0  0  0  0  0  0  0  0  0  0
    0.1471    2.3508   -0.6075 N   0  0  0  0  0  0  0  0  0  0  0  0
    0.1471    3.2284   -1.6871 N   0  0  0  0  0  0  0  0  0  0  0  0
    0.1471    2.4932   -2.7351 C   0  0  0  0  0  0  0  0  0  0  0  0
    0.1471    0.0374   -0.5003 H   0  0  0  0  0  0  0  0  0  0  0  0
    0.1471    2.7996   -3.7672 H   0  0  0  0  0  0  0  0  0  0  0  0
  1  5  1  0
  1  2  1  0
  2  3  1  0
  3  6  1  0
  3  4  2  0
  4  5  2  0
  6  7  3  0
  8  9  1  0
  8 12  1  0
  9 10  2  0
  9 13  1  0
 10 11  1  0
 11 12  2  0
 12 14  1  0
M  RAD  1   2   2
M  END
>  <reaction>  (15) 
kfir_rxn_8536

>  <mol_properties>  (15) 
{"3": {"label": "*3", "atom_type": "Cdd"}, "4": {"label": "*4", "atom_type": "N3d"}, "7": {"label": "*0", "atom_type": "O2s"}, "8": {"label": "*1", "atom_type": "Cd"}, "12": {"label": "*2", "atom_type": "H0"}}

>  <type>  (15) 
unop_11

>  <geom_source>  (15) 
Heuristics

$$$$

     RDKit          3D

 14 14  0  0  0  0  0  0  0  0999 V2000
   -0.0000   -2.0279    2.4943 O   0  0  0  0  0  0  0  0  0  0  0  0
    0.0000   -2.7801    1.3900 N   0  0  0  0  0  2  0  0  0  0  0  0
    0.0000   -1.9384    0.3946 C   0  0  0  0  0  0  0  0  0  0  0  0
    0.0000   -0.6203    0.9196 C   0  0  0  0  0  0  0  0  0  0  0  0
    0.0000   -0.7060    2.2103 N   0  0  0  0  0  0  0  0  0  0  0  0
    0.0000   -2.3590   -0.9651 C   0  0  0  0  0  0  0  0  0  0  0  0
    0.0000   -2.6503   -2.0740 N   0  0  0  0  0  0  0  0  0  0  0  0
   -0.0000    1.6545   -1.6530 O   0  0  0  0  0  0  0  0  0  0  0  0
   -0.0000    1.6545   -0.3062 C   0  0  0  0  0  0  0  0  0  0  0  0
   -0.0000    2.8305    0.1994 N   0  0  0  0  0  0  0  0  0  0  0  0
   -0.0000    3.7081   -0.8802 N   0  0  0  0  0  0  0  0  0  0  0  0
   -0.0000    2.9729   -1.9281 C   0  0  0  0  0  0  0  0  0  0  0  0
   -0.0000    0.5172    0.3067 H   0  0  0  0  0  0  0  0  0  0  0  0
   -0.0000    3.2793   -2.9602 H   0  0  0  0  0  0  0  0  0  0  0  0
  1  5  1  0
  1  2  1  0
  2  3  1  0
  3  6  1  0
  3  4  2  0
  4  5  2  0
  6  7  3  0
  8  9  1  0
  8 12  1  0
  9 10  2  0
  9 13  1  0
 10 11  1  0
 11 12  2  0
 12 14  1  0
M  RAD  1   2   2
M  END
>  <reaction>  (16) 
kfir_rxn_8536

>  <mol_properties>  (16) 
{"3": {"label": "*3", "atom_type": "Cdd"}, "4": {"label": "*4", "atom_type": "N3d"}, "7": {"label": "*0", "atom_type": "O2s"}, "8": {"label": "*1", "atom_type": "Cd"}, "12": {"label": "*2", "atom_type": "H0"}}

>  <type>  (16) 
unop_12

>  <geom_source>  (16) 
Heuristics

$$$$
