
     RDKit          3D

  9  8  0  0  0  0  0  0  0  0999 V2000
   -1.0314    0.2323   -0.1227 C   0  0  0  0  0  0  0  0  0  0  0  0
    0.3094   -0.4511    0.0063 C   0  0  0  0  0  0  0  0  0  0  0  0
    0.3197   -1.7698    0.6841 N   0  0  0  0  0  0  0  0  0  0  0  0
   -0.7498   -2.1455    1.0557 O   0  0  0  0  0  0  0  0  0  0  0  0
   -1.4744    0.4198    0.8552 H   0  0  0  0  0  0  0  0  0  0  0  0
   -0.9073    1.1865   -0.6350 H   0  0  0  0  0  0  0  0  0  0  0  0
   -1.7319   -0.3778   -0.6927 H   0  0  0  0  0  0  0  0  0  0  0  0
    1.0375    0.1401    0.5713 H   0  0  0  0  0  0  0  0  0  0  0  0
    0.7826   -0.6494   -0.9609 H   0  0  0  0  0  0  0  0  0  0  0  0
  1  2  1  0
  1  5  1  0
  1  6  1  0
  1  7  1  0
  2  3  1  0
  2  8  1  0
  2  9  1  0
  3  4  2  0
M  END
>  <reaction>  (1) 
rmg_rxn_16473

>  <mol_properties>  (1) 
{"1": {"label": "donator", "atom_type": "Cs"}, "7": {"label": "d_hydrogen", "atom_type": "H0"}}

>  <type>  (1) 
r1h

$$$$

     RDKit          3D

  7  6  0  0  0  0  0  0  0  0999 V2000
   -0.6441   -0.1356    0.0624 C   0  0  0  0  0  0  0  0  0  0  0  0
    0.8523    0.0148   -0.0333 C   0  0  0  0  0  0  0  0  0  0  0  0
    1.6700   -0.6077    0.6603 N   0  0  0  0  0  2  0  0  0  0  0  0
   -1.0940    0.8275    0.3091 H   0  0  0  0  0  0  0  0  0  0  0  0
   -0.9104   -0.8656    0.8237 H   0  0  0  0  0  0  0  0  0  0  0  0
   -1.0427   -0.4545   -0.9022 H   0  0  0  0  0  0  0  0  0  0  0  0
    1.2362    0.7308   -0.7748 H   0  0  0  0  0  0  0  0  0  0  0  0
  1  2  1  0
  1  4  1  0
  1  5  1  0
  1  6  1  0
  2  3  2  0
  2  7  1  0
M  RAD  1   3   2
M  END
>  <reaction>  (2) 
rmg_rxn_16473

>  <mol_properties>  (2) 
{"2": {"label": "acceptor", "atom_type": "N3d"}}

>  <type>  (2) 
r2

$$$$

     RDKit          3D

  8  7  0  0  0  0  0  0  0  0999 V2000
    0.9548    0.1194   -0.0790 C   0  0  0  0  0  0  0  0  0  0  0  0
   -0.4838   -0.2649    0.0193 C   0  0  0  0  0  0  0  0  0  0  0  0
   -0.8933   -1.1081    0.8664 N   0  0  0  0  0  0  0  0  0  0  0  0
    1.3360   -0.0983   -1.0800 H   0  0  0  0  0  0  0  0  0  0  0  0
    1.0698    1.1948    0.0786 H   0  0  0  0  0  0  0  0  0  0  0  0
    1.5426   -0.4219    0.6602 H   0  0  0  0  0  0  0  0  0  0  0  0
   -1.1575    0.2324   -0.6905 H   0  0  0  0  0  0  0  0  0  0  0  0
   -1.8989   -1.2455    0.7886 H   0  0  0  0  0  0  0  0  0  0  0  0
  1  2  1  0
  1  4  1  0
  1  5  1  0
  1  6  1  0
  2  3  2  3
  2  7  1  0
  3  8  1  0
M  END
>  <reaction>  (3) 
rmg_rxn_16473

>  <mol_properties>  (3) 
{"2": {"label": "acceptor", "atom_type": "N3d"}, "7": {"label": "a_hydrogen", "atom_type": "H0"}}

>  <type>  (3) 
r2h

$$$$

     RDKit          3D

 16 14  0  0  0  0  0  0  0  0999 V2000
    2.8631   -1.9431    0.4115 C   0  0  0  0  0  0  0  0  0  0  0  0
    1.6074   -1.1319    0.2939 C   0  0  0  0  0  0  0  0  0  0  0  0
    0.4734   -1.6612    0.2696 N   0  0  0  0  0  2  0  0  0  0  0  0
    3.5027   -1.7488   -0.4517 H   0  0  0  0  0  0  0  0  0  0  0  0
    2.6373   -3.0057    0.4688 H   0  0  0  0  0  0  0  0  0  0  0  0
    3.4119   -1.6352    1.3035 H   0  0  0  0  0  0  0  0  0  0  0  0
    1.7291   -0.0441    0.2301 H   0  0  0  0  0  0  0  0  0  0  0  0
   -1.7896   -0.0458   -1.4940 C   0  0  0  0  0  0  0  0  0  0  0  0
   -1.2472    0.2508   -0.1244 C   0  0  0  0  0  0  0  0  0  0  0  0
   -0.4245    1.3882    0.0760 N   0  0  0  0  0  0  0  0  0  0  0  0
    0.0958    1.8317   -0.9293 O   0  0  0  0  0  0  0  0  0  0  0  0
   -0.9901   -0.0641   -2.2331 H   0  0  0  0  0  0  0  0  0  0  0  0
   -2.2924   -1.0125   -1.4883 H   0  0  0  0  0  0  0  0  0  0  0  0
   -2.5100    0.7171   -1.7985 H   0  0  0  0  0  0  0  0  0  0  0  0
   -0.4314   -0.7153    0.1446 H   0  0  0  0  0  0  0  0  0  0  0  0
   -1.9369    0.1517    0.7126 H   0  0  0  0  0  0  0  0  0  0  0  0
  1  2  1  0
  1  4  1  0
  1  5  1  0
  1  6  1  0
  2  3  2  0
  2  7  1  0
  8  9  1  0
  8 12  1  0
  8 13  1  0
  8 14  1  0
  9 10  1  0
  9 15  1  0
  9 16  1  0
 10 11  2  0
M  RAD  1   3   2
M  END
>  <reaction>  (4) 
rmg_rxn_16473

>  <mol_properties>  (4) 
{"1": {"label": "*4", "atom_type": "Cd"}, "2": {"label": "*3", "atom_type": "N3d"}, "8": {"label": "*1", "atom_type": "Cs"}, "9": {"label": "*0", "atom_type": "N3d"}, "14": {"label": "*2", "atom_type": "H0"}}

>  <type>  (4) 
ts

$$$$

     RDKit          3D

 16 14  0  0  0  0  0  0  0  0999 V2000
    3.2978    0.2796   -0.1716 C   0  0  0  0  0  0  0  0  0  0  0  0
    1.8309    0.2069    0.0792 C   0  0  0  0  0  0  0  0  0  0  0  0
    1.2166   -0.8806    0.0848 N   0  0  0  0  0  0  0  0  0  0  0  0
    3.4852    0.8979   -1.0482 H   0  0  0  0  0  0  0  0  0  0  0  0
    3.7024   -0.7158   -0.3305 H   0  0  0  0  0  0  0  0  0  0  0  0
    3.7904    0.7468    0.6798 H   0  0  0  0  0  0  0  0  0  0  0  0
    1.3486    1.1804    0.2556 H   0  0  0  0  0  0  0  0  0  0  0  0
   -1.8132   -1.4808   -0.4935 C   0  0  0  0  0  0  0  0  0  0  0  0
   -1.2615   -0.5273    0.5530 C   0  0  0  0  0  0  0  0  0  0  0  0
   -1.4769    0.7356    0.4762 N   0  0  0  0  0  0  0  0  0  0  0  0
   -1.6516    1.5644   -0.4148 O   0  0  0  0  0  1  0  0  0  0  0  0
   -1.2405   -2.4041   -0.4893 H   0  0  0  0  0  0  0  0  0  0  0  0
   -2.8554   -1.7070   -0.2716 H   0  0  0  0  0  0  0  0  0  0  0  0
   -1.7554   -1.0200   -1.4769 H   0  0  0  0  0  0  0  0  0  0  0  0
    0.1021   -0.7595    0.2875 H   0  0  0  0  0  0  0  0  0  0  0  0
   -1.2201   -0.9031    1.5722 H   0  0  0  0  0  0  0  0  0  0  0  0
  1  2  1  0
  1  4  1  0
  1  5  1  0
  1  6  1  0
  2  3  2  3
  2  7  1  0
  3 15  1  0
  8  9  1  0
  8 12  1  0
  8 13  1  0
  8 14  1  0
  9 10  2  3
  9 16  1  0
 10 11  1  0
M  RAD  1  11   2
M  END
>  <reaction>  (5) 
rmg_rxn_16473

>  <mol_properties>  (5) 
{"1": {"label": "*4", "atom_type": "Cd"}, "2": {"label": "*3", "atom_type": "N3d"}, "8": {"label": "*1", "atom_type": "Cs"}, "9": {"label": "*0", "atom_type": "N3d"}, "14": {"label": "*2", "atom_type": "H0"}}

>  <type>  (5) 
unop_1

>  <geom_source>  (5) 
crest_best.xyz

$$$$

     RDKit          3D

 16 14  0  0  0  0  0  0  0  0999 V2000
    2.1433   -1.0139    2.3567 C   0  0  0  0  0  0  0  0  0  0  0  0
    1.5740   -0.5906    1.0438 C   0  0  0  0  0  0  0  0  0  0  0  0
    0.8980   -1.3787    0.3239 N   0  0  0  0  0  0  0  0  0  0  0  0
    3.2304   -0.9001    2.3510 H   0  0  0  0  0  0  0  0  0  0  0  0
    1.8869   -2.0514    2.5638 H   0  0  0  0  0  0  0  0  0  0  0  0
    1.7606   -0.3759    3.1574 H   0  0  0  0  0  0  0  0  0  0  0  0
    1.7817    0.4459    0.7484 H   0  0  0  0  0  0  0  0  0  0  0  0
   -1.1194   -0.2040   -2.1757 C   0  0  0  0  0  0  0  0  0  0  0  0
   -1.1194   -0.2040   -0.6652 C   0  0  0  0  0  0  0  0  0  0  0  0
   -1.1194    1.1220   -0.0016 N   0  0  0  0  0  0  0  0  0  0  0  0
   -1.1194    2.0515   -0.7493 O   0  0  0  0  0  1  0  0  0  0  0  0
   -0.2393    0.3034   -2.5701 H   0  0  0  0  0  0  0  0  0  0  0  0
   -1.1194   -1.2311   -2.5409 H   0  0  0  0  0  0  0  0  0  0  0  0
   -1.9995    0.3034   -2.5701 H   0  0  0  0  0  0  0  0  0  0  0  0
   -0.0739   -0.8128   -0.1526 H   0  0  0  0  0  0  0  0  0  0  0  0
   -1.9906   -0.7113   -0.2380 H   0  0  0  0  0  0  0  0  0  0  0  0
  1  2  1  0
  1  4  1  0
  1  5  1  0
  1  6  1  0
  2  3  2  3
  2  7  1  0
  3 15  1  0
  8  9  1  0
  8 12  1  0
  8 13  1  0
  8 14  1  0
  9 10  2  3
  9 16  1  0
 10 11  1  0
M  RAD  1  11   2
M  END
>  <reaction>  (6) 
rmg_rxn_16473

>  <mol_properties>  (6) 
{"1": {"label": "*4", "atom_type": "Cd"}, "2": {"label": "*3", "atom_type": "N3d"}, "8": {"label": "*1", "atom_type": "Cs"}, "9": {"label": "*0", "atom_type": "N3d"}, "14": {"label": "*2", "atom_type": "H0"}}

>  <type>  (6) 
unop_2

>  <geom_source>  (6) 
Heuristics

$$$$

     RDKit          3D

 16 14  0  0  0  0  0  0  0  0999 V2000
    3.0756   -1.3320    0.6008 C   0  0  0  0  0  0  0  0  0  0  0  0
    1.6841   -1.1124    0.1082 C   0  0  0  0  0  0  0  0  0  0  0  0
    0.6822   -1.2113    0.8715 N   0  0  0  0  0  0  0  0  0  0  0  0
    3.5497   -2.1437    0.0431 H   0  0  0  0  0  0  0  0  0  0  0  0
    3.0676   -1.5752    1.6618 H   0  0  0  0  0  0  0  0  0  0  0  0
    3.6801   -0.4366    0.4355 H   0  0  0  0  0  0  0  0  0  0  0  0
    1.5915   -0.8607   -0.9562 H   0  0  0  0  0  0  0  0  0  0  0  0
   -1.3352   -0.0365   -1.6281 C   0  0  0  0  0  0  0  0  0  0  0  0
   -1.3352   -0.0365   -0.1176 C   0  0  0  0  0  0  0  0  0  0  0  0
   -1.3352    1.2894    0.5460 N   0  0  0  0  0  0  0  0  0  0  0  0
   -1.3352    2.2190   -0.2017 O   0  0  0  0  0  1  0  0  0  0  0  0
   -0.4551    0.4708   -2.0226 H   0  0  0  0  0  0  0  0  0  0  0  0
   -1.3352   -1.0637   -1.9934 H   0  0  0  0  0  0  0  0  0  0  0  0
   -2.2153    0.4708   -2.0226 H   0  0  0  0  0  0  0  0  0  0  0  0
   -0.2897   -0.6453    0.3950 H   0  0  0  0  0  0  0  0  0  0  0  0
   -2.2064   -0.5438    0.3096 H   0  0  0  0  0  0  0  0  0  0  0  0
  1  2  1  0
  1  4  1  0
  1  5  1  0
  1  6  1  0
  2  3  2  3
  2  7  1  0
  3 15  1  0
  8  9  1  0
  8 12  1  0
  8 13  1  0
  8 14  1  0
  9 10  2  3
  9 16  1  0
 10 11  1  0
M  RAD  1  11   2
M  END
>  <reaction>  (7) 
rmg_rxn_16473

>  <mol_properties>  (7) 
{"1": {"label": "*4", "atom_type": "Cd"}, "2": {"label": "*3", "atom_type": "N3d"}, "8": {"label": "*1", "atom_type": "Cs"}, "9": {"label": "*0", "atom_type": "N3d"}, "14": {"label": "*2", "atom_type": "H0"}}

>  <type>  (7) 
unop_3

>  <geom_source>  (7) 
Heuristics

$$$$

     RDKit          3D

 16 14  0  0  0  0  0  0  0  0999 V2000
    1.9292   -1.5547    2.4445 C   0  0  0  0  0  0  0  0  0  0  0  0
    1.3076   -0.7376    1.3614 C   0  0  0  0  0  0  0  0  0  0  0  0
    0.9942   -1.2374    0.2441 N   0  0  0  0  0  0  0  0  0  0  0  0
    2.9017   -1.1389    2.7200 H   0  0  0  0  0  0  0  0  0  0  0  0
    2.0533   -2.5855    2.1172 H   0  0  0  0  0  0  0  0  0  0  0  0
    1.3058   -1.5286    3.3419 H   0  0  0  0  0  0  0  0  0  0  0  0
    1.1424    0.3208    1.6007 H   0  0  0  0  0  0  0  0  0  0  0  0
   -1.0231   -0.0627   -2.2555 C   0  0  0  0  0  0  0  0  0  0  0  0
   -1.0231   -0.0627   -0.7450 C   0  0  0  0  0  0  0  0  0  0  0  0
   -1.0231    1.2633   -0.0814 N   0  0  0  0  0  0  0  0  0  0  0  0
   -1.0231    2.1928   -0.8291 O   0  0  0  0  0  1  0  0  0  0  0  0
   -0.1430    0.4447   -2.6500 H   0  0  0  0  0  0  0  0  0  0  0  0
   -1.0231   -1.0898   -2.6208 H   0  0  0  0  0  0  0  0  0  0  0  0
   -1.9032    0.4447   -2.6500 H   0  0  0  0  0  0  0  0  0  0  0  0
    0.0223   -0.6715   -0.2324 H   0  0  0  0  0  0  0  0  0  0  0  0
   -1.8943   -0.5700   -0.3178 H   0  0  0  0  0  0  0  0  0  0  0  0
  1  2  1  0
  1  4  1  0
  1  5  1  0
  1  6  1  0
  2  3  2  3
  2  7  1  0
  3 15  1  0
  8  9  1  0
  8 12  1  0
  8 13  1  0
  8 14  1  0
  9 10  2  3
  9 16  1  0
 10 11  1  0
M  RAD  1  11   2
M  END
>  <reaction>  (8) 
rmg_rxn_16473

>  <mol_properties>  (8) 
{"1": {"label": "*4", "atom_type": "Cd"}, "2": {"label": "*3", "atom_type": "N3d"}, "8": {"label": "*1", "atom_type": "Cs"}, "9": {"label": "*0", "atom_type": "N3d"}, "14": {"label": "*2", "atom_type": "H0"}}

>  <type>  (8) 
unop_4

>  <geom_source>  (8) 
Heuristics

$$$$

     RDKit          3D

 16 14  0  0  0  0  0  0  0  0999 V2000
    1.6680   -2.9904    1.2196 C   0  0  0  0  0  0  0  0  0  0  0  0
    1.1291   -1.9177    0.3330 C   0  0  0  0  0  0  0  0  0  0  0  0
    1.0833   -0.7093    0.6989 N   0  0  0  0  0  0  0  0  0  0  0  0
    0.9046   -3.7521    1.3974 H   0  0  0  0  0  0  0  0  0  0  0  0
    1.9906   -2.5692    2.1702 H   0  0  0  0  0  0  0  0  0  0  0  0
    2.5110   -3.4911    0.7366 H   0  0  0  0  0  0  0  0  0  0  0  0
    0.7775   -2.2488   -0.6527 H   0  0  0  0  0  0  0  0  0  0  0  0
   -0.9340    0.4654   -1.8007 C   0  0  0  0  0  0  0  0  0  0  0  0
   -0.9340    0.4654   -0.2902 C   0  0  0  0  0  0  0  0  0  0  0  0
   -0.9340    1.7914    0.3733 N   0  0  0  0  0  0  0  0  0  0  0  0
   -0.9340    2.7210   -0.3744 O   0  0  0  0  0  1  0  0  0  0  0  0
   -0.0539    0.9728   -2.1952 H   0  0  0  0  0  0  0  0  0  0  0  0
   -0.9340   -0.5617   -2.1660 H   0  0  0  0  0  0  0  0  0  0  0  0
   -1.8142    0.9728   -2.1952 H   0  0  0  0  0  0  0  0  0  0  0  0
    0.1114   -0.1433    0.2223 H   0  0  0  0  0  0  0  0  0  0  0  0
   -1.8052   -0.0419    0.1369 H   0  0  0  0  0  0  0  0  0  0  0  0
  1  2  1  0
  1  4  1  0
  1  5  1  0
  1  6  1  0
  2  3  2  3
  2  7  1  0
  3 15  1  0
  8  9  1  0
  8 12  1  0
  8 13  1  0
  8 14  1  0
  9 10  2  3
  9 16  1  0
 10 11  1  0
M  RAD  1  11   2
M  END
>  <reaction>  (9) 
rmg_rxn_16473

>  <mol_properties>  (9) 
{"1": {"label": "*4", "atom_type": "Cd"}, "2": {"label": "*3", "atom_type": "N3d"}, "8": {"label": "*1", "atom_type": "Cs"}, "9": {"label": "*0", "atom_type": "N3d"}, "14": {"label": "*2", "atom_type": "H0"}}

>  <type>  (9) 
unop_5

>  <geom_source>  (9) 
Heuristics

$$$$

     RDKit          3D

 16 14  0  0  0  0  0  0  0  0999 V2000
    2.0625   -1.7314    2.3334 C   0  0  0  0  0  0  0  0  0  0  0  0
    0.9911   -1.1076    1.5027 C   0  0  0  0  0  0  0  0  0  0  0  0
    1.0278   -1.1289    0.2399 N   0  0  0  0  0  0  0  0  0  0  0  0
    2.5204   -0.9818    2.9837 H   0  0  0  0  0  0  0  0  0  0  0  0
    2.8252   -2.1756    1.6962 H   0  0  0  0  0  0  0  0  0  0  0  0
    1.6365   -2.4997    2.9837 H   0  0  0  0  0  0  0  0  0  0  0  0
    0.1743   -0.6319    2.0606 H   0  0  0  0  0  0  0  0  0  0  0  0
   -0.9896    0.0459   -2.2597 C   0  0  0  0  0  0  0  0  0  0  0  0
   -0.9896    0.0459   -0.7492 C   0  0  0  0  0  0  0  0  0  0  0  0
   -0.9896    1.3718   -0.0856 N   0  0  0  0  0  0  0  0  0  0  0  0
   -0.9896    2.3014   -0.8333 O   0  0  0  0  0  1  0  0  0  0  0  0
   -0.1095    0.5532   -2.6542 H   0  0  0  0  0  0  0  0  0  0  0  0
   -0.9896   -0.9813   -2.6250 H   0  0  0  0  0  0  0  0  0  0  0  0
   -1.8697    0.5532   -2.6542 H   0  0  0  0  0  0  0  0  0  0  0  0
    0.0558   -0.5629   -0.2366 H   0  0  0  0  0  0  0  0  0  0  0  0
   -1.8608   -0.4615   -0.3220 H   0  0  0  0  0  0  0  0  0  0  0  0
  1  2  1  0
  1  4  1  0
  1  5  1  0
  1  6  1  0
  2  3  2  3
  2  7  1  0
  3 15  1  0
  8  9  1  0
  8 12  1  0
  8 13  1  0
  8 14  1  0
  9 10  2  3
  9 16  1  0
 10 11  1  0
M  RAD  1  11   2
M  END
>  <reaction>  (10) 
rmg_rxn_16473

>  <mol_properties>  (10) 
{"1": {"label": "*4", "atom_type": "Cd"}, "2": {"label": "*3", "atom_type": "N3d"}, "8": {"label": "*1", "atom_type": "Cs"}, "9": {"label": "*0", "atom_type": "N3d"}, "14": {"label": "*2", "atom_type": "H0"}}

>  <type>  (10) 
unop_6

>  <geom_source>  (10) 
Heuristics

$$$$

     RDKit          3D

 16 14  0  0  0  0  0  0  0  0999 V2000
    1.3961   -2.7047    1.8960 C   0  0  0  0  0  0  0  0  0  0  0  0
    0.9435   -1.9851    0.6695 C   0  0  0  0  0  0  0  0  0  0  0  0
    1.1760   -0.7559    0.4926 N   0  0  0  0  0  0  0  0  0  0  0  0
    0.5383   -3.1346    2.4196 H   0  0  0  0  0  0  0  0  0  0  0  0
    1.9248   -2.0240    2.5609 H   0  0  0  0  0  0  0  0  0  0  0  0
    2.0530   -3.5354    1.6255 H   0  0  0  0  0  0  0  0  0  0  0  0
    0.3982   -2.5933   -0.0636 H   0  0  0  0  0  0  0  0  0  0  0  0
   -0.8414    0.4189   -2.0070 C   0  0  0  0  0  0  0  0  0  0  0  0
   -0.8414    0.4189   -0.4966 C   0  0  0  0  0  0  0  0  0  0  0  0
   -0.8414    1.7448    0.1670 N   0  0  0  0  0  0  0  0  0  0  0  0
   -0.8414    2.6744   -0.5807 O   0  0  0  0  0  1  0  0  0  0  0  0
    0.0388    0.9263   -2.4015 H   0  0  0  0  0  0  0  0  0  0  0  0
   -0.8414   -0.6083   -2.3723 H   0  0  0  0  0  0  0  0  0  0  0  0
   -1.7215    0.9263   -2.4015 H   0  0  0  0  0  0  0  0  0  0  0  0
    0.2041   -0.1899    0.0160 H   0  0  0  0  0  0  0  0  0  0  0  0
   -1.7126   -0.0884   -0.0694 H   0  0  0  0  0  0  0  0  0  0  0  0
  1  2  1  0
  1  4  1  0
  1  5  1  0
  1  6  1  0
  2  3  2  3
  2  7  1  0
  3 15  1  0
  8  9  1  0
  8 12  1  0
  8 13  1  0
  8 14  1  0
  9 10  2  3
  9 16  1  0
 10 11  1  0
M  RAD  1  11   2
M  END
>  <reaction>  (11) 
rmg_rxn_16473

>  <mol_properties>  (11) 
{"1": {"label": "*4", "atom_type": "Cd"}, "2": {"label": "*3", "atom_type": "N3d"}, "8": {"label": "*1", "atom_type": "Cs"}, "9": {"label": "*0", "atom_type": "N3d"}, "14": {"label": "*2", "atom_type": "H0"}}

>  <type>  (11) 
unop_7

>  <geom_source>  (11) 
Heuristics

$$$$

     RDKit          3D

 16 14  0  0  0  0  0  0  0  0999 V2000
    1.4784   -2.1559    2.3567 C   0  0  0  0  0  0  0  0  0  0  0  0
    0.8292   -1.8696    1.0438 C   0  0  0  0  0  0  0  0  0  0  0  0
    1.1810   -0.8927    0.3239 N   0  0  0  0  0  0  0  0  0  0  0  0
    0.7345   -2.1379    3.1574 H   0  0  0  0  0  0  0  0  0  0  0  0
    2.2541   -1.4208    2.5638 H   0  0  0  0  0  0  0  0  0  0  0  0
    1.9159   -3.1575    2.3510 H   0  0  0  0  0  0  0  0  0  0  0  0
    0.0302   -2.5618    0.7484 H   0  0  0  0  0  0  0  0  0  0  0  0
   -0.8364    0.2820   -2.1757 C   0  0  0  0  0  0  0  0  0  0  0  0
   -0.8364    0.2820   -0.6652 C   0  0  0  0  0  0  0  0  0  0  0  0
   -0.8364    1.6080   -0.0016 N   0  0  0  0  0  0  0  0  0  0  0  0
   -0.8364    2.5376   -0.7493 O   0  0  0  0  0  1  0  0  0  0  0  0
    0.0438    0.7894   -2.5701 H   0  0  0  0  0  0  0  0  0  0  0  0
   -0.8364   -0.7451   -2.5409 H   0  0  0  0  0  0  0  0  0  0  0  0
   -1.7165    0.7894   -2.5701 H   0  0  0  0  0  0  0  0  0  0  0  0
    0.2091   -0.3267   -0.1526 H   0  0  0  0  0  0  0  0  0  0  0  0
   -1.7076   -0.2253   -0.2380 H   0  0  0  0  0  0  0  0  0  0  0  0
  1  2  1  0
  1  4  1  0
  1  5  1  0
  1  6  1  0
  2  3  2  3
  2  7  1  0
  3 15  1  0
  8  9  1  0
  8 12  1  0
  8 13  1  0
  8 14  1  0
  9 10  2  3
  9 16  1  0
 10 11  1  0
M  RAD  1  11   2
M  END
>  <reaction>  (12) 
rmg_rxn_16473

>  <mol_properties>  (12) 
{"1": {"label": "*4", "atom_type": "Cd"}, "2": {"label": "*3", "atom_type": "N3d"}, "8": {"label": "*1", "atom_type": "Cs"}, "9": {"label": "*0", "atom_type": "N3d"}, "14": {"label": "*2", "atom_type": "H0"}}

>  <type>  (12) 
unop_8

>  <geom_source>  (12) 
Heuristics

$$$$

     RDKit          3D

 16 14  0  0  0  0  0  0  0  0999 V2000
    2.5801   -0.6716    1.8960 C   0  0  0  0  0  0  0  0  0  0  0  0
    1.7308   -0.6331    0.6695 C   0  0  0  0  0  0  0  0  0  0  0  0
    0.7765   -1.4419    0.4926 N   0  0  0  0  0  0  0  0  0  0  0  0
    3.6267   -0.8329    1.6255 H   0  0  0  0  0  0  0  0  0  0  0  0
    2.2490   -1.4673    2.5609 H   0  0  0  0  0  0  0  0  0  0  0  0
    2.5306    0.2866    2.4196 H   0  0  0  0  0  0  0  0  0  0  0  0
    1.9906    0.1414   -0.0636 H   0  0  0  0  0  0  0  0  0  0  0  0
   -1.2409   -0.2672   -2.0070 C   0  0  0  0  0  0  0  0  0  0  0  0
   -1.2409   -0.2672   -0.4966 C   0  0  0  0  0  0  0  0  0  0  0  0
   -1.2409    1.0588    0.1670 N   0  0  0  0  0  0  0  0  0  0  0  0
   -1.2409    1.9883   -0.5807 O   0  0  0  0  0  1  0  0  0  0  0  0
   -0.3607    0.2402   -2.4015 H   0  0  0  0  0  0  0  0  0  0  0  0
   -1.2409   -1.2943   -2.3723 H   0  0  0  0  0  0  0  0  0  0  0  0
   -2.1210    0.2402   -2.4015 H   0  0  0  0  0  0  0  0  0  0  0  0
   -0.1954   -0.8760    0.0160 H   0  0  0  0  0  0  0  0  0  0  0  0
   -2.1121   -0.7745   -0.0694 H   0  0  0  0  0  0  0  0  0  0  0  0
  1  2  1  0
  1  4  1  0
  1  5  1  0
  1  6  1  0
  2  3  2  3
  2  7  1  0
  3 15  1  0
  8  9  1  0
  8 12  1  0
  8 13  1  0
  8 14  1  0
  9 10  2  3
  9 16  1  0
 10 11  1  0
M  RAD  1  11   2
M  END
>  <reaction>  (13) 
rmg_rxn_16473

>  <mol_properties>  (13) 
{"1": {"label": "*4", "atom_type": "Cd"}, "2": {"label": "*3", "atom_type": "N3d"}, "8": {"label": "*1", "atom_type": "Cs"}, "9": {"label": "*0", "atom_type": "N3d"}, "14": {"label": "*2", "atom_type": "H0"}}

>  <type>  (13) 
unop_9

>  <geom_source>  (13) 
Heuristics

$$$$

     RDKit          3D

 16 14  0  0  0  0  0  0  0  0999 V2000
    3.2978    0.2796   -0.1716 C   0  0  0  0  0  0  0  0  0  0  0  0
    1.8309    0.2069    0.0792 C   0  0  0  0  0  0  0  0  0  0  0  0
    1.2166   -0.8806    0.0848 N   0  0  0  0  0  0  0  0  0  0  0  0
    3.4852    0.8979   -1.0482 H   0  0  0  0  0  0  0  0  0  0  0  0
    3.7024   -0.7158   -0.3305 H   0  0  0  0  0  0  0  0  0  0  0  0
    3.7904    0.7468    0.6798 H   0  0  0  0  0  0  0  0  0  0  0  0
    1.3486    1.1804    0.2556 H   0  0  0  0  0  0  0  0  0  0  0  0
   -1.8132   -1.4808   -0.4935 C   0  0  0  0  0  0  0  0  0  0  0  0
   -1.2615   -0.5273    0.5530 C   0  0  0  0  0  0  0  0  0  0  0  0
   -1.4769    0.7356    0.4762 N   0  0  0  0  0  0  0  0  0  0  0  0
   -1.6516    1.5644   -0.4148 O   0  0  0  0  0  1  0  0  0  0  0  0
   -1.2405   -2.4041   -0.4893 H   0  0  0  0  0  0  0  0  0  0  0  0
   -2.8554   -1.7070   -0.2716 H   0  0  0  0  0  0  0  0  0  0  0  0
   -1.7554   -1.0200   -1.4769 H   0  0  0  0  0  0  0  0  0  0  0  0
    0.1021   -0.7595    0.2875 H   0  0  0  0  0  0  0  0  0  0  0  0
   -1.2201   -0.9031    1.5722 H   0  0  0  0  0  0  0  0  0  0  0  0
  1  2  1  0
  1  4  1  0
  1  5  1  0
  1  6  1  0
  2  3  2  3
  2  7  1  0
  3 15  1  0
  8  9  1  0
  8 12  1  0
  8 13  1  0
  8 14  1  0
  9 10  2  3
  9 16  1  0
 10 11  1  0
M  RAD  1  11   2
M  END
>  <reaction>  (14) 
rmg_rxn_16473

>  <mol_properties>  (14) 
{"1": {"label": "*4", "atom_type": "Cd"}, "2": {"label": "*3", "atom_type": "N3d"}, "8": {"label": "*1", "atom_type": "Cs"}, "9": {"label": "*0", "atom_type": "N3d"}, "14": {"label": "*2", "atom_type": "H0"}}

>  <type>  (14) 
unop_10

>  <geom_source>  (14) 
Heuristics

$$$$

     RDKit          3D

 16 14  0  0  0  0  0  0  0  0999 V2000
    2.2151   -2.8097    0.6008 C   0  0  0  0  0  0  0  0  0  0  0  0
    1.3374   -1.7078    0.1082 C   0  0  0  0  0  0  0  0  0  0  0  0
    0.9288   -0.7877    0.8715 N   0  0  0  0  0  0  0  0  0  0  0  0
    1.7347   -3.7774    0.4355 H   0  0  0  0  0  0  0  0  0  0  0  0
    2.4227   -2.6827    1.6618 H   0  0  0  0  0  0  0  0  0  0  0  0
    3.1550   -2.8214    0.0431 H   0  0  0  0  0  0  0  0  0  0  0  0
    1.0728   -1.7516   -0.9562 H   0  0  0  0  0  0  0  0  0  0  0  0
   -1.0885    0.3871   -1.6281 C   0  0  0  0  0  0  0  0  0  0  0  0
   -1.0885    0.3871   -0.1176 C   0  0  0  0  0  0  0  0  0  0  0  0
   -1.0885    1.7130    0.5460 N   0  0  0  0  0  0  0  0  0  0  0  0
   -1.0885    2.6426   -0.2017 O   0  0  0  0  0  1  0  0  0  0  0  0
   -0.2084    0.8945   -2.0226 H   0  0  0  0  0  0  0  0  0  0  0  0
   -1.0885   -0.6401   -1.9934 H   0  0  0  0  0  0  0  0  0  0  0  0
   -1.9686    0.8945   -2.0226 H   0  0  0  0  0  0  0  0  0  0  0  0
   -0.0431   -0.2217    0.3950 H   0  0  0  0  0  0  0  0  0  0  0  0
   -1.9597   -0.1202    0.3096 H   0  0  0  0  0  0  0  0  0  0  0  0
  1  2  1  0
  1  4  1  0
  1  5  1  0
  1  6  1  0
  2  3  2  3
  2  7  1  0
  3 15  1  0
  8  9  1  0
  8 12  1  0
  8 13  1  0
  8 14  1  0
  9 10  2  3
  9 16  1  0
 10 11  1  0
M  RAD  1  11   2
M  END
>  <reaction>  (15) 
rmg_rxn_16473

>  <mol_properties>  (15) 
{"1": {"label": "*4", "atom_type": "Cd"}, "2": {"label": "*3", "atom_type": "N3d"}, "8": {"label": "*1", "atom_type": "Cs"}, "9": {"label": "*0", "atom_type": "N3d"}, "14": {"label": "*2", "atom_type": "H0"}}

>  <type>  (15) 
unop_11

>  <geom_source>  (15) 
Heuristics

$$$$

     RDKit          3D

 16 14  0  0  0  0  0  0  0  0999 V2000
    2.9627   -0.7671    1.2196 C   0  0  0  0  0  0  0  0  0  0  0  0
    1.7639   -0.8277    0.3330 C   0  0  0  0  0  0  0  0  0  0  0  0
    0.6902   -1.3843    0.6989 N   0  0  0  0  0  0  0  0  0  0  0  0
    3.8143   -1.2531    0.7366 H   0  0  0  0  0  0  0  0  0  0  0  0
    2.7557   -1.2554    2.1702 H   0  0  0  0  0  0  0  0  0  0  0  0
    3.2484    0.2729    1.3974 H   0  0  0  0  0  0  0  0  0  0  0  0
    1.8783   -0.3585   -0.6527 H   0  0  0  0  0  0  0  0  0  0  0  0
   -1.3271   -0.2095   -1.8007 C   0  0  0  0  0  0  0  0  0  0  0  0
   -1.3271   -0.2095   -0.2902 C   0  0  0  0  0  0  0  0  0  0  0  0
   -1.3271    1.1164    0.3733 N   0  0  0  0  0  0  0  0  0  0  0  0
   -1.3271    2.0460   -0.3744 O   0  0  0  0  0  1  0  0  0  0  0  0
   -0.4470    0.2978   -2.1952 H   0  0  0  0  0  0  0  0  0  0  0  0
   -1.3271   -1.2367   -2.1660 H   0  0  0  0  0  0  0  0  0  0  0  0
   -2.2072    0.2978   -2.1952 H   0  0  0  0  0  0  0  0  0  0  0  0
   -0.2817   -0.8183    0.2223 H   0  0  0  0  0  0  0  0  0  0  0  0
   -2.1983   -0.7169    0.1369 H   0  0  0  0  0  0  0  0  0  0  0  0
  1  2  1  0
  1  4  1  0
  1  5  1  0
  1  6  1  0
  2  3  2  3
  2  7  1  0
  3 15  1  0
  8  9  1  0
  8 12  1  0
  8 13  1  0
  8 14  1  0
  9 10  2  3
  9 16  1  0
 10 11  1  0
M  RAD  1  11   2
M  END
>  <reaction>  (16) 
rmg_rxn_16473

>  <mol_properties>  (16) 
{"1": {"label": "*4", "atom_type": "Cd"}, "2": {"label": "*3", "atom_type": "N3d"}, "8": {"label": "*1", "atom_type": "Cs"}, "9": {"label": "*0", "atom_type": "N3d"}, "14": {"label": "*2", "atom_type": "H0"}}

>  <type>  (16) 
unop_12

>  <geom_source>  (16) 
Heuristics

$$$$

     RDKit          3D

 16 14  0  0  0  0  0  0  0  0999 V2000
    1.8430   -1.7027    2.4445 C   0  0  0  0  0  0  0  0  0  0  0  0
    0.8255   -1.5654    1.3614 C   0  0  0  0  0  0  0  0  0  0  0  0
    1.1056   -1.0462    0.2441 N   0  0  0  0  0  0  0  0  0  0  0  0
    1.5126   -1.1735    3.3419 H   0  0  0  0  0  0  0  0  0  0  0  0
    2.8007   -1.3020    2.1172 H   0  0  0  0  0  0  0  0  0  0  0  0
    1.9613   -2.7538    2.7200 H   0  0  0  0  0  0  0  0  0  0  0  0
   -0.1765   -1.9441    1.6007 H   0  0  0  0  0  0  0  0  0  0  0  0
   -0.9117    0.1286   -2.2555 C   0  0  0  0  0  0  0  0  0  0  0  0
   -0.9117    0.1286   -0.7450 C   0  0  0  0  0  0  0  0  0  0  0  0
   -0.9117    1.4545   -0.0814 N   0  0  0  0  0  0  0  0  0  0  0  0
   -0.9117    2.3841   -0.8291 O   0  0  0  0  0  1  0  0  0  0  0  0
   -0.0316    0.6359   -2.6500 H   0  0  0  0  0  0  0  0  0  0  0  0
   -0.9117   -0.8986   -2.6208 H   0  0  0  0  0  0  0  0  0  0  0  0
   -1.7919    0.6359   -2.6500 H   0  0  0  0  0  0  0  0  0  0  0  0
    0.1337   -0.4802   -0.2324 H   0  0  0  0  0  0  0  0  0  0  0  0
   -1.7829   -0.3788   -0.3178 H   0  0  0  0  0  0  0  0  0  0  0  0
  1  2  1  0
  1  4  1  0
  1  5  1  0
  1  6  1  0
  2  3  2  3
  2  7  1  0
  3 15  1  0
  8  9  1  0
  8 12  1  0
  8 13  1  0
  8 14  1  0
  9 10  2  3
  9 16  1  0
 10 11  1  0
M  RAD  1  11   2
M  END
>  <reaction>  (17) 
rmg_rxn_16473

>  <mol_properties>  (17) 
{"1": {"label": "*4", "atom_type": "Cd"}, "2": {"label": "*3", "atom_type": "N3d"}, "8": {"label": "*1", "atom_type": "Cs"}, "9": {"label": "*0", "atom_type": "N3d"}, "14": {"label": "*2", "atom_type": "H0"}}

>  <type>  (17) 
unop_13

>  <geom_source>  (17) 
Heuristics

$$$$

     RDKit          3D

 16 14  0  0  0  0  0  0  0  0999 V2000
    2.7909   -2.1556    0.3440 C   0  0  0  0  0  0  0  0  0  0  0  0
    1.5299   -1.4213    0.0312 C   0  0  0  0  0  0  0  0  0  0  0  0
    0.7714   -0.9796    0.9400 N   0  0  0  0  0  0  0  0  0  0  0  0
    2.7638   -3.1562   -0.0951 H   0  0  0  0  0  0  0  0  0  0  0  0
    2.9258   -2.2342    1.4213 H   0  0  0  0  0  0  0  0  0  0  0  0
    3.6477   -1.6383   -0.0951 H   0  0  0  0  0  0  0  0  0  0  0  0
    1.3081   -1.2922   -1.0360 H   0  0  0  0  0  0  0  0  0  0  0  0
   -1.2459    0.1951   -1.5596 C   0  0  0  0  0  0  0  0  0  0  0  0
   -1.2459    0.1951   -0.0491 C   0  0  0  0  0  0  0  0  0  0  0  0
   -1.2459    1.5211    0.6145 N   0  0  0  0  0  0  0  0  0  0  0  0
   -1.2459    2.4506   -0.1332 O   0  0  0  0  0  1  0  0  0  0  0  0
   -0.3658    0.7025   -1.9541 H   0  0  0  0  0  0  0  0  0  0  0  0
   -1.2459   -0.8320   -1.9249 H   0  0  0  0  0  0  0  0  0  0  0  0
   -2.1261    0.7025   -1.9541 H   0  0  0  0  0  0  0  0  0  0  0  0
   -0.2005   -0.4137    0.4635 H   0  0  0  0  0  0  0  0  0  0  0  0
   -2.1171   -0.3122    0.3780 H   0  0  0  0  0  0  0  0  0  0  0  0
  1  2  1  0
  1  4  1  0
  1  5  1  0
  1  6  1  0
  2  3  2  3
  2  7  1  0
  3 15  1  0
  8  9  1  0
  8 12  1  0
  8 13  1  0
  8 14  1  0
  9 10  2  3
  9 16  1  0
 10 11  1  0
M  RAD  1  11   2
M  END
>  <reaction>  (18) 
rmg_rxn_16473

>  <mol_properties>  (18) 
{"1": {"label": "*4", "atom_type": "Cd"}, "2": {"label": "*3", "atom_type": "N3d"}, "8": {"label": "*1", "atom_type": "Cs"}, "9": {"label": "*0", "atom_type": "N3d"}, "14": {"label": "*2", "atom_type": "H0"}}

>  <type>  (18) 
unop_14

>  <geom_source>  (18) 
Heuristics

$$$$

     RDKit          3D

 16 14  0  0  0  0  0  0  0  0999 V2000
    3.0755   -1.3320    0.6008 C   0  0  0  0  0  0  0  0  0  0  0  0
    1.6841   -1.1124    0.1082 C   0  0  0  0  0  0  0  0  0  0  0  0
    0.6822   -1.2113    0.8715 N   0  0  0  0  0  0  0  0  0  0  0  0
    3.5497   -2.1437    0.0431 H   0  0  0  0  0  0  0  0  0  0  0  0
    3.0676   -1.5752    1.6618 H   0  0  0  0  0  0  0  0  0  0  0  0
    3.6801   -0.4366    0.4355 H   0  0  0  0  0  0  0  0  0  0  0  0
    1.5916   -0.8608   -0.9562 H   0  0  0  0  0  0  0  0  0  0  0  0
   -1.3352   -0.0365   -1.6281 C   0  0  0  0  0  0  0  0  0  0  0  0
   -1.3352   -0.0365   -0.1176 C   0  0  0  0  0  0  0  0  0  0  0  0
   -1.3352    1.2894    0.5460 N   0  0  0  0  0  0  0  0  0  0  0  0
   -1.3352    2.2190   -0.2017 O   0  0  0  0  0  1  0  0  0  0  0  0
   -0.4551    0.4708   -2.0226 H   0  0  0  0  0  0  0  0  0  0  0  0
   -1.3352   -1.0637   -1.9934 H   0  0  0  0  0  0  0  0  0  0  0  0
   -2.2153    0.4708   -2.0226 H   0  0  0  0  0  0  0  0  0  0  0  0
   -0.2898   -0.6453    0.3950 H   0  0  0  0  0  0  0  0  0  0  0  0
   -2.2064   -0.5438    0.3096 H   0  0  0  0  0  0  0  0  0  0  0  0
  1  2  1  0
  1  4  1  0
  1  5  1  0
  1  6  1  0
  2  3  2  3
  2  7  1  0
  3 15  1  0
  8  9  1  0
  8 12  1  0
  8 13  1  0
  8 14  1  0
  9 10  2  3
  9 16  1  0
 10 11  1  0
M  RAD  1  11   2
M  END
>  <reaction>  (19) 
rmg_rxn_16473

>  <mol_properties>  (19) 
{"1": {"label": "*4", "atom_type": "Cd"}, "2": {"label": "*3", "atom_type": "N3d"}, "8": {"label": "*1", "atom_type": "Cs"}, "9": {"label": "*0", "atom_type": "N3d"}, "14": {"label": "*2", "atom_type": "H0"}}

>  <type>  (19) 
unop_15

>  <geom_source>  (19) 
gaussian_log

$$$$
