
     RDKit          3D

  5  4  0  0  0  0  0  0  0  0999 V2000
   -0.4583    0.0384    0.1517 N   0  0  0  0  0  0  0  0  0  0  0  0
    0.7454   -0.3487    0.5322 N   0  0  0  0  0  0  0  0  0  0  0  0
    0.7566   -1.0388    1.5193 O   0  0  0  0  0  0  0  0  0  0  0  0
   -1.2688   -0.2521    0.6850 H   0  0  0  0  0  0  0  0  0  0  0  0
   -0.5137    0.6154   -0.6670 H   0  0  0  0  0  0  0  0  0  0  0  0
  1  2  1  0
  1  4  1  0
  1  5  1  0
  2  3  2  0
M  END
>  <reaction>  (1) 
rmg_rxn_1494

>  <mol_properties>  (1) 
{"0": {"label": "donator", "atom_type": "N3s"}, "3": {"label": "d_hydrogen", "atom_type": "H0"}}

>  <type>  (1) 
r1h

$$$$

     RDKit          3D

  8  7  0  0  0  0  0  0  0  0999 V2000
   -0.7853    0.0326    0.0393 C   0  0  0  0  0  0  0  0  0  0  0  0
    0.7379   -0.1211   -0.0579 C   0  0  0  0  0  0  0  0  0  0  0  0
    1.1315   -0.8282   -1.2106 N   0  0  0  0  0  1  0  0  0  0  0  0
   -1.2679   -0.9438    0.0768 H   0  0  0  0  0  0  0  0  0  0  0  0
   -1.0464    0.5840    0.9431 H   0  0  0  0  0  0  0  0  0  0  0  0
   -1.1718    0.5760   -0.8227 H   0  0  0  0  0  0  0  0  0  0  0  0
    1.2178    0.8698   -0.0686 H   0  0  0  0  0  0  0  0  0  0  0  0
    1.1219   -0.6479    0.8296 H   0  0  0  0  0  0  0  0  0  0  0  0
  1  2  1  0
  1  4  1  0
  1  5  1  0
  1  6  1  0
  2  3  1  0
  2  7  1  0
  2  8  1  0
M  RAD  1   3   3
M  END
>  <reaction>  (2) 
rmg_rxn_1494

>  <mol_properties>  (2) 
{"2": {"label": "acceptor", "atom_type": "N3s"}}

>  <type>  (2) 
r2

$$$$

     RDKit          3D

  9  8  0  0  0  0  0  0  0  0999 V2000
   -1.0434   -0.0834    0.0221 C   0  0  0  0  0  0  0  0  0  0  0  0
    0.4680   -0.2131    0.0785 C   0  0  0  0  0  0  0  0  0  0  0  0
    0.9450   -1.3136   -0.7058 N   0  0  0  0  0  2  0  0  0  0  0  0
   -1.5170   -0.9919    0.3960 H   0  0  0  0  0  0  0  0  0  0  0  0
   -1.3864    0.7592    0.6249 H   0  0  0  0  0  0  0  0  0  0  0  0
   -1.3736    0.0696   -1.0061 H   0  0  0  0  0  0  0  0  0  0  0  0
    0.8045   -0.3309    1.1214 H   0  0  0  0  0  0  0  0  0  0  0  0
    0.9463    0.7186   -0.2648 H   0  0  0  0  0  0  0  0  0  0  0  0
    1.9638   -1.3321   -0.6157 H   0  0  0  0  0  0  0  0  0  0  0  0
  1  2  1  0
  1  4  1  0
  1  5  1  0
  1  6  1  0
  2  3  1  0
  2  7  1  0
  2  8  1  0
  3  9  1  0
M  RAD  1   3   2
M  END
>  <reaction>  (3) 
rmg_rxn_1494

>  <mol_properties>  (3) 
{"0": {"label": "a_hydrogen", "atom_type": "H0"}, "3": {"label": "acceptor", "atom_type": "N3s"}}

>  <type>  (3) 
r2h

$$$$

     RDKit          3D

 13 11  0  0  0  0  0  0  0  0999 V2000
    1.1751    0.9396   -0.3808 N   0  0  0  0  0  0  0  0  0  0  0  0
    1.8473    0.1171    0.3107 N   0  0  0  0  0  0  0  0  0  0  0  0
    1.3225   -0.5336    1.1805 O   0  0  0  0  0  1  0  0  0  0  0  0
   -0.1043    1.1479   -0.0773 H   0  0  0  0  0  0  0  0  0  0  0  0
    1.7315    1.4271   -1.0727 H   0  0  0  0  0  0  0  0  0  0  0  0
   -1.5932   -1.1192   -0.5109 C   0  0  0  0  0  0  0  0  0  0  0  0
   -1.8977   -0.0138    0.5055 C   0  0  0  0  0  0  0  0  0  0  0  0
   -1.2698    1.2247    0.2376 N   0  0  0  0  0  2  0  0  0  0  0  0
   -0.5395   -1.3933   -0.4646 H   0  0  0  0  0  0  0  0  0  0  0  0
   -2.1927   -2.0015   -0.2849 H   0  0  0  0  0  0  0  0  0  0  0  0
   -1.8325   -0.7916   -1.5230 H   0  0  0  0  0  0  0  0  0  0  0  0
   -2.9803    0.1646    0.5521 H   0  0  0  0  0  0  0  0  0  0  0  0
   -1.5810   -0.3453    1.5054 H   0  0  0  0  0  0  0  0  0  0  0  0
  1  2  2  3
  1  5  1  0
  2  3  1  0
  4  8  1  0
  6  7  1  0
  6  9  1  0
  6 10  1  0
  6 11  1  0
  7  8  1  0
  7 12  1  0
  7 13  1  0
M  RAD  2   3   2   8   2
M  END
>  <reaction>  (4) 
rmg_rxn_1494

>  <mol_properties>  (4) 
{"0": {"label": "*3", "atom_type": "N3d"}, "1": {"label": "*4", "atom_type": "N3d"}, "3": {"label": "*2", "atom_type": "H0"}, "6": {"label": "*0", "atom_type": "Cs"}, "7": {"label": "*1", "atom_type": "N3s"}}

>  <type>  (4) 
ts

$$$$

     RDKit          3D

 13 11  0  0  0  0  0  0  0  0999 V2000
    1.1673    1.0412   -0.0993 N   0  0  0  0  0  0  0  0  0  0  0  0
    1.9053    0.0454    0.0112 N   0  0  0  0  0  0  0  0  0  0  0  0
    1.5521   -1.1012    0.1334 O   0  0  0  0  0  1  0  0  0  0  0  0
   -0.0531    1.1246   -0.1571 H   0  0  0  0  0  0  0  0  0  0  0  0
    1.6334    1.9346   -0.2003 H   0  0  0  0  0  0  0  0  0  0  0  0
   -1.6109   -1.2319   -0.2988 C   0  0  0  0  0  0  0  0  0  0  0  0
   -1.9107    0.1158    0.3797 C   0  0  0  0  0  0  0  0  0  0  0  0
   -1.2682    1.2194   -0.1324 N   0  0  0  0  0  2  0  0  0  0  0  0
   -0.5735   -1.5154   -0.1135 H   0  0  0  0  0  0  0  0  0  0  0  0
   -2.2646   -2.0042    0.0981 H   0  0  0  0  0  0  0  0  0  0  0  0
   -1.7618   -1.1518   -1.3729 H   0  0  0  0  0  0  0  0  0  0  0  0
   -2.9850    0.3344    0.2577 H   0  0  0  0  0  0  0  0  0  0  0  0
   -1.7452    0.0115    1.4719 H   0  0  0  0  0  0  0  0  0  0  0  0
  1  2  2  3
  1  5  1  0
  2  3  1  0
  4  8  1  0
  6  7  1  0
  6  9  1  0
  6 10  1  0
  6 11  1  0
  7  8  1  0
  7 12  1  0
  7 13  1  0
M  RAD  2   3   2   8   2
M  END
>  <reaction>  (5) 
rmg_rxn_1494

>  <mol_properties>  (5) 
{"0": {"label": "*3", "atom_type": "N3d"}, "1": {"label": "*4", "atom_type": "N3d"}, "3": {"label": "*2", "atom_type": "H0"}, "6": {"label": "*0", "atom_type": "Cs"}, "7": {"label": "*1", "atom_type": "N3s"}}

>  <type>  (5) 
unop_1

>  <geom_source>  (5) 
crest_best.xyz

$$$$

     RDKit          3D

 13 11  0  0  0  0  0  0  0  0999 V2000
    0.3541   -1.0632    0.9858 N   0  0  0  0  0  0  0  0  0  0  0  0
    0.3541   -2.2661    0.4410 N   0  0  0  0  0  0  0  0  0  0  0  0
    0.3541   -2.2661   -0.7635 O   0  0  0  0  0  0  0  0  0  0  0  0
    0.3541   -0.0806    0.2706 H   0  0  0  0  0  0  0  0  0  0  0  0
    0.3541   -1.0169    1.9879 H   0  0  0  0  0  0  0  0  0  0  0  0
   -0.5733    3.1546   -0.1248 C   0  0  0  0  0  0  0  0  0  0  0  0
   -0.8309    1.6589   -0.1493 C   0  0  0  0  0  0  0  0  0  0  0  0
    0.3541    0.9119   -0.4518 N   0  0  0  0  0  1  0  0  0  0  0  0
   -0.2022    3.4923   -1.0932 H   0  0  0  0  0  0  0  0  0  0  0  0
   -1.4867    3.7050    0.1071 H   0  0  0  0  0  0  0  0  0  0  0  0
    0.1780    3.3986    0.6273 H   0  0  0  0  0  0  0  0  0  0  0  0
   -1.2406    1.3239    0.8175 H   0  0  0  0  0  0  0  0  0  0  0  0
   -1.6165    1.4166   -0.8834 H   0  0  0  0  0  0  0  0  0  0  0  0
  1  2  1  0
  1  4  1  0
  1  5  1  0
  2  3  2  0
  6  7  1  0
  6  9  1  0
  6 10  1  0
  6 11  1  0
  7  8  1  0
  7 12  1  0
  7 13  1  0
M  RAD  1   8   3
M  END
>  <reaction>  (6) 
rmg_rxn_1494

>  <mol_properties>  (6) 
{"0": {"label": "*3", "atom_type": "N3d"}, "1": {"label": "*4", "atom_type": "N3d"}, "3": {"label": "*2", "atom_type": "H0"}, "6": {"label": "*0", "atom_type": "Cs"}, "7": {"label": "*1", "atom_type": "N3s"}}

>  <type>  (6) 
unop_2

>  <geom_source>  (6) 
Heuristics

$$$$

     RDKit          3D

 13 11  0  0  0  0  0  0  0  0999 V2000
    1.1673   -1.0411    0.0995 N   0  0  0  0  0  0  0  0  0  0  0  0
    1.9053   -0.0453   -0.0110 N   0  0  0  0  0  0  0  0  0  0  0  0
    1.5520    1.1012   -0.1337 O   0  0  0  0  0  1  0  0  0  0  0  0
   -0.0530   -1.1247    0.1570 H   0  0  0  0  0  0  0  0  0  0  0  0
    1.6335   -1.9344    0.2012 H   0  0  0  0  0  0  0  0  0  0  0  0
   -1.6110    1.2317    0.2991 C   0  0  0  0  0  0  0  0  0  0  0  0
   -1.9105   -0.1158   -0.3798 C   0  0  0  0  0  0  0  0  0  0  0  0
   -1.2681   -1.2195    0.1322 N   0  0  0  0  0  2  0  0  0  0  0  0
   -1.7616    1.1513    1.3732 H   0  0  0  0  0  0  0  0  0  0  0  0
   -0.5737    1.5154    0.1138 H   0  0  0  0  0  0  0  0  0  0  0  0
   -2.2647    2.0041   -0.0974 H   0  0  0  0  0  0  0  0  0  0  0  0
   -2.9848   -0.3343   -0.2580 H   0  0  0  0  0  0  0  0  0  0  0  0
   -1.7449   -0.0112   -1.4720 H   0  0  0  0  0  0  0  0  0  0  0  0
  1  2  2  3
  1  5  1  0
  2  3  1  0
  4  8  1  0
  6  7  1  0
  6  9  1  0
  6 10  1  0
  6 11  1  0
  7  8  1  0
  7 12  1  0
  7 13  1  0
M  RAD  2   3   2   8   2
M  END
>  <reaction>  (7) 
rmg_rxn_1494

>  <mol_properties>  (7) 
{"0": {"label": "*3", "atom_type": "N3d"}, "1": {"label": "*4", "atom_type": "N3d"}, "3": {"label": "*2", "atom_type": "H0"}, "6": {"label": "*0", "atom_type": "Cs"}, "7": {"label": "*1", "atom_type": "N3s"}}

>  <type>  (7) 
unop_3

>  <geom_source>  (7) 
Heuristics

$$$$

     RDKit          3D

 13 11  0  0  0  0  0  0  0  0999 V2000
    0.3098   -0.6482    1.6253 N   0  0  0  0  0  0  0  0  0  0  0  0
    0.3098   -1.8510    1.0806 N   0  0  0  0  0  0  0  0  0  0  0  0
    0.3098   -1.8510   -0.1239 O   0  0  0  0  0  0  0  0  0  0  0  0
    0.3098    0.3345    0.9101 H   0  0  0  0  0  0  0  0  0  0  0  0
    0.3098   -0.6018    2.6274 H   0  0  0  0  0  0  0  0  0  0  0  0
   -0.8521    2.1954   -1.7852 C   0  0  0  0  0  0  0  0  0  0  0  0
   -0.3743    0.9739   -1.0210 C   0  0  0  0  0  0  0  0  0  0  0  0
    0.3098    1.3270    0.1877 N   0  0  0  0  0  1  0  0  0  0  0  0
   -0.0072    2.8315   -2.0517 H   0  0  0  0  0  0  0  0  0  0  0  0
   -1.3699    1.9058   -2.7012 H   0  0  0  0  0  0  0  0  0  0  0  0
   -1.5362    2.7836   -1.1723 H   0  0  0  0  0  0  0  0  0  0  0  0
   -1.2238    0.3129   -0.7838 H   0  0  0  0  0  0  0  0  0  0  0  0
    0.2878    0.3603   -1.6533 H   0  0  0  0  0  0  0  0  0  0  0  0
  1  2  1  0
  1  4  1  0
  1  5  1  0
  2  3  2  0
  6  7  1  0
  6  9  1  0
  6 10  1  0
  6 11  1  0
  7  8  1  0
  7 12  1  0
  7 13  1  0
M  RAD  1   8   3
M  END
>  <reaction>  (8) 
rmg_rxn_1494

>  <mol_properties>  (8) 
{"0": {"label": "*3", "atom_type": "N3d"}, "1": {"label": "*4", "atom_type": "N3d"}, "3": {"label": "*2", "atom_type": "H0"}, "6": {"label": "*0", "atom_type": "Cs"}, "7": {"label": "*1", "atom_type": "N3s"}}

>  <type>  (8) 
unop_4

>  <geom_source>  (8) 
Heuristics

$$$$

     RDKit          3D

 13 11  0  0  0  0  0  0  0  0999 V2000
   -1.1673    1.0411   -0.0995 N   0  0  0  0  0  0  0  0  0  0  0  0
   -1.9053    0.0454    0.0110 N   0  0  0  0  0  0  0  0  0  0  0  0
   -1.5521   -1.1011    0.1337 O   0  0  0  0  0  1  0  0  0  0  0  0
    0.0531    1.1246   -0.1570 H   0  0  0  0  0  0  0  0  0  0  0  0
   -1.6334    1.9345   -0.2012 H   0  0  0  0  0  0  0  0  0  0  0  0
    1.6109   -1.2318   -0.2991 C   0  0  0  0  0  0  0  0  0  0  0  0
    1.9106    0.1157    0.3798 C   0  0  0  0  0  0  0  0  0  0  0  0
    1.2682    1.2194   -0.1322 N   0  0  0  0  0  2  0  0  0  0  0  0
    1.7615   -1.1512   -1.3732 H   0  0  0  0  0  0  0  0  0  0  0  0
    2.2647   -2.0041    0.0973 H   0  0  0  0  0  0  0  0  0  0  0  0
    0.5736   -1.5154   -0.1138 H   0  0  0  0  0  0  0  0  0  0  0  0
    1.7451    0.0111    1.4721 H   0  0  0  0  0  0  0  0  0  0  0  0
    2.9849    0.3343    0.2579 H   0  0  0  0  0  0  0  0  0  0  0  0
  1  2  2  3
  1  5  1  0
  2  3  1  0
  4  8  1  0
  6  7  1  0
  6  9  1  0
  6 10  1  0
  6 11  1  0
  7  8  1  0
  7 12  1  0
  7 13  1  0
M  RAD  2   3   2   8   2
M  END
>  <reaction>  (9) 
rmg_rxn_1494

>  <mol_properties>  (9) 
{"0": {"label": "*3", "atom_type": "N3d"}, "1": {"label": "*4", "atom_type": "N3d"}, "3": {"label": "*2", "atom_type": "H0"}, "6": {"label": "*0", "atom_type": "Cs"}, "7": {"label": "*1", "atom_type": "N3s"}}

>  <type>  (9) 
unop_5

>  <geom_source>  (9) 
Heuristics

$$$$

     RDKit          3D

 13 11  0  0  0  0  0  0  0  0999 V2000
    0.1463   -1.1426    0.9206 N   0  0  0  0  0  0  0  0  0  0  0  0
    0.1463   -2.3454    0.3758 N   0  0  0  0  0  0  0  0  0  0  0  0
    0.1463   -2.3454   -0.8287 O   0  0  0  0  0  0  0  0  0  0  0  0
    0.1463   -0.1599    0.2054 H   0  0  0  0  0  0  0  0  0  0  0  0
    0.1463   -1.0962    1.9227 H   0  0  0  0  0  0  0  0  0  0  0  0
   -0.0434    3.2540   -0.2047 C   0  0  0  0  0  0  0  0  0  0  0  0
   -0.5379    1.8743    0.1904 C   0  0  0  0  0  0  0  0  0  0  0  0
    0.1463    0.8326   -0.5170 N   0  0  0  0  0  1  0  0  0  0  0  0
   -0.1926    3.4198   -1.2723 H   0  0  0  0  0  0  0  0  0  0  0  0
   -0.5761    4.0324    0.3443 H   0  0  0  0  0  0  0  0  0  0  0  0
    1.0225    3.3502    0.0052 H   0  0  0  0  0  0  0  0  0  0  0  0
   -0.4210    1.7208    1.2756 H   0  0  0  0  0  0  0  0  0  0  0  0
   -1.6223    1.7896    0.0126 H   0  0  0  0  0  0  0  0  0  0  0  0
  1  2  1  0
  1  4  1  0
  1  5  1  0
  2  3  2  0
  6  7  1  0
  6  9  1  0
  6 10  1  0
  6 11  1  0
  7  8  1  0
  7 12  1  0
  7 13  1  0
M  RAD  1   8   3
M  END
>  <reaction>  (10) 
rmg_rxn_1494

>  <mol_properties>  (10) 
{"0": {"label": "*3", "atom_type": "N3d"}, "1": {"label": "*4", "atom_type": "N3d"}, "3": {"label": "*2", "atom_type": "H0"}, "6": {"label": "*0", "atom_type": "Cs"}, "7": {"label": "*1", "atom_type": "N3s"}}

>  <type>  (10) 
unop_6

>  <geom_source>  (10) 
Heuristics

$$$$

     RDKit          3D

 13 11  0  0  0  0  0  0  0  0999 V2000
   -0.4909   -0.7738    1.4115 N   0  0  0  0  0  0  0  0  0  0  0  0
   -0.4909   -1.9766    0.8667 N   0  0  0  0  0  0  0  0  0  0  0  0
   -0.4909   -1.9766   -0.3378 O   0  0  0  0  0  0  0  0  0  0  0  0
   -0.4909    0.2089    0.6962 H   0  0  0  0  0  0  0  0  0  0  0  0
   -0.4909   -0.7274    2.4136 H   0  0  0  0  0  0  0  0  0  0  0  0
    1.2498    2.5234   -1.1302 C   0  0  0  0  0  0  0  0  0  0  0  0
    0.6941    1.1431   -0.8299 C   0  0  0  0  0  0  0  0  0  0  0  0
   -0.4909    1.2014   -0.0262 N   0  0  0  0  0  1  0  0  0  0  0  0
    1.4981    3.0429   -0.2039 H   0  0  0  0  0  0  0  0  0  0  0  0
    2.1508    2.4576   -1.7425 H   0  0  0  0  0  0  0  0  0  0  0  0
    0.5114    3.1224   -1.6645 H   0  0  0  0  0  0  0  0  0  0  0  0
    0.4776    0.6043   -1.7667 H   0  0  0  0  0  0  0  0  0  0  0  0
    1.4532    0.5256   -0.3227 H   0  0  0  0  0  0  0  0  0  0  0  0
  1  2  1  0
  1  4  1  0
  1  5  1  0
  2  3  2  0
  6  7  1  0
  6  9  1  0
  6 10  1  0
  6 11  1  0
  7  8  1  0
  7 12  1  0
  7 13  1  0
M  RAD  1   8   3
M  END
>  <reaction>  (11) 
rmg_rxn_1494

>  <mol_properties>  (11) 
{"0": {"label": "*3", "atom_type": "N3d"}, "1": {"label": "*4", "atom_type": "N3d"}, "3": {"label": "*2", "atom_type": "H0"}, "6": {"label": "*0", "atom_type": "Cs"}, "7": {"label": "*1", "atom_type": "N3s"}}

>  <type>  (11) 
unop_7

>  <geom_source>  (11) 
Heuristics

$$$$

     RDKit          3D

 13 11  0  0  0  0  0  0  0  0999 V2000
    1.1674   -1.0411   -0.0993 N   0  0  0  0  0  0  0  0  0  0  0  0
    1.9053   -0.0454    0.0112 N   0  0  0  0  0  0  0  0  0  0  0  0
    1.5521    1.1012    0.1334 O   0  0  0  0  0  1  0  0  0  0  0  0
   -0.0530   -1.1246   -0.1571 H   0  0  0  0  0  0  0  0  0  0  0  0
    1.6335   -1.9345   -0.2009 H   0  0  0  0  0  0  0  0  0  0  0  0
   -1.6111    1.2318   -0.2989 C   0  0  0  0  0  0  0  0  0  0  0  0
   -1.9105   -0.1158    0.3799 C   0  0  0  0  0  0  0  0  0  0  0  0
   -1.2681   -1.2194   -0.1324 N   0  0  0  0  0  2  0  0  0  0  0  0
   -2.2648    2.0040    0.0980 H   0  0  0  0  0  0  0  0  0  0  0  0
   -0.5737    1.5154   -0.1138 H   0  0  0  0  0  0  0  0  0  0  0  0
   -1.7620    1.1515   -1.3730 H   0  0  0  0  0  0  0  0  0  0  0  0
   -1.7449   -0.0114    1.4721 H   0  0  0  0  0  0  0  0  0  0  0  0
   -2.9848   -0.3345    0.2581 H   0  0  0  0  0  0  0  0  0  0  0  0
  1  2  2  3
  1  5  1  0
  2  3  1  0
  4  8  1  0
  6  7  1  0
  6  9  1  0
  6 10  1  0
  6 11  1  0
  7  8  1  0
  7 12  1  0
  7 13  1  0
M  RAD  2   3   2   8   2
M  END
>  <reaction>  (12) 
rmg_rxn_1494

>  <mol_properties>  (12) 
{"0": {"label": "*3", "atom_type": "N3d"}, "1": {"label": "*4", "atom_type": "N3d"}, "3": {"label": "*2", "atom_type": "H0"}, "6": {"label": "*0", "atom_type": "Cs"}, "7": {"label": "*1", "atom_type": "N3s"}}

>  <type>  (12) 
unop_8

>  <geom_source>  (12) 
Heuristics

$$$$

     RDKit          3D

 13 11  0  0  0  0  0  0  0  0999 V2000
    0.0000   -1.1651    0.9367 N   0  0  0  0  0  0  0  0  0  0  0  0
    0.0000   -2.3679    0.3920 N   0  0  0  0  0  0  0  0  0  0  0  0
    0.0000   -2.3679   -0.8125 O   0  0  0  0  0  0  0  0  0  0  0  0
    0.0000   -0.1824    0.2215 H   0  0  0  0  0  0  0  0  0  0  0  0
    0.0000   -1.1187    1.9388 H   0  0  0  0  0  0  0  0  0  0  0  0
   -0.0000    3.2579   -0.4318 C   0  0  0  0  0  0  0  0  0  0  0  0
   -0.0000    1.9597    0.3548 C   0  0  0  0  0  0  0  0  0  0  0  0
   -0.0000    0.8101   -0.5009 N   0  0  0  0  0  1  0  0  0  0  0  0
   -0.8822    3.3154   -1.0705 H   0  0  0  0  0  0  0  0  0  0  0  0
   -0.0000    4.1204    0.2370 H   0  0  0  0  0  0  0  0  0  0  0  0
    0.8822    3.3154   -1.0705 H   0  0  0  0  0  0  0  0  0  0  0  0
    0.8722    1.9182    1.0273 H   0  0  0  0  0  0  0  0  0  0  0  0
   -0.8722    1.9182    1.0273 H   0  0  0  0  0  0  0  0  0  0  0  0
  1  2  1  0
  1  4  1  0
  1  5  1  0
  2  3  2  0
  6  7  1  0
  6  9  1  0
  6 10  1  0
  6 11  1  0
  7  8  1  0
  7 12  1  0
  7 13  1  0
M  RAD  1   8   3
M  END
>  <reaction>  (13) 
rmg_rxn_1494

>  <mol_properties>  (13) 
{"0": {"label": "*3", "atom_type": "N3d"}, "1": {"label": "*4", "atom_type": "N3d"}, "3": {"label": "*2", "atom_type": "H0"}, "6": {"label": "*0", "atom_type": "Cs"}, "7": {"label": "*1", "atom_type": "N3s"}}

>  <type>  (13) 
unop_9

>  <geom_source>  (13) 
Heuristics

$$$$

     RDKit          3D

 13 11  0  0  0  0  0  0  0  0999 V2000
    1.1673   -1.0411    0.0994 N   0  0  0  0  0  0  0  0  0  0  0  0
    1.9053   -0.0454   -0.0111 N   0  0  0  0  0  0  0  0  0  0  0  0
    1.5521    1.1012   -0.1335 O   0  0  0  0  0  1  0  0  0  0  0  0
   -0.0531   -1.1246    0.1571 H   0  0  0  0  0  0  0  0  0  0  0  0
    1.6334   -1.9344    0.2010 H   0  0  0  0  0  0  0  0  0  0  0  0
   -1.6110    1.2318    0.2990 C   0  0  0  0  0  0  0  0  0  0  0  0
   -1.9106   -0.1158   -0.3798 C   0  0  0  0  0  0  0  0  0  0  0  0
   -1.2681   -1.2194    0.1323 N   0  0  0  0  0  2  0  0  0  0  0  0
   -2.2648    2.0040   -0.0977 H   0  0  0  0  0  0  0  0  0  0  0  0
   -1.7617    1.1514    1.3731 H   0  0  0  0  0  0  0  0  0  0  0  0
   -0.5737    1.5154    0.1137 H   0  0  0  0  0  0  0  0  0  0  0  0
   -2.9848   -0.3344   -0.2579 H   0  0  0  0  0  0  0  0  0  0  0  0
   -1.7450   -0.0113   -1.4721 H   0  0  0  0  0  0  0  0  0  0  0  0
  1  2  2  3
  1  5  1  0
  2  3  1  0
  4  8  1  0
  6  7  1  0
  6  9  1  0
  6 10  1  0
  6 11  1  0
  7  8  1  0
  7 12  1  0
  7 13  1  0
M  RAD  2   3   2   8   2
M  END
>  <reaction>  (14) 
rmg_rxn_1494

>  <mol_properties>  (14) 
{"0": {"label": "*3", "atom_type": "N3d"}, "1": {"label": "*4", "atom_type": "N3d"}, "3": {"label": "*2", "atom_type": "H0"}, "6": {"label": "*0", "atom_type": "Cs"}, "7": {"label": "*1", "atom_type": "N3s"}}

>  <type>  (14) 
unop_10

>  <geom_source>  (14) 
Heuristics

$$$$

     RDKit          3D

 13 11  0  0  0  0  0  0  0  0999 V2000
   -0.4973   -0.9290    1.1692 N   0  0  0  0  0  0  0  0  0  0  0  0
   -0.4973   -2.1318    0.6245 N   0  0  0  0  0  0  0  0  0  0  0  0
   -0.4973   -2.1318   -0.5800 O   0  0  0  0  0  0  0  0  0  0  0  0
   -0.4973    0.0537    0.4540 H   0  0  0  0  0  0  0  0  0  0  0  0
   -0.4973   -0.8826    2.1713 H   0  0  0  0  0  0  0  0  0  0  0  0
    1.0991    2.8908   -0.4822 C   0  0  0  0  0  0  0  0  0  0  0  0
    0.8711    1.3905   -0.5190 C   0  0  0  0  0  0  0  0  0  0  0  0
   -0.4973    1.0462   -0.2684 N   0  0  0  0  0  1  0  0  0  0  0  0
    0.8255    3.2930    0.4940 H   0  0  0  0  0  0  0  0  0  0  0  0
    2.1458    3.1322   -0.6751 H   0  0  0  0  0  0  0  0  0  0  0  0
    0.4852    3.3871   -1.2347 H   0  0  0  0  0  0  0  0  0  0  0  0
    1.1821    0.9787   -1.4929 H   0  0  0  0  0  0  0  0  0  0  0  0
    1.5185    0.8856    0.2163 H   0  0  0  0  0  0  0  0  0  0  0  0
  1  2  1  0
  1  4  1  0
  1  5  1  0
  2  3  2  0
  6  7  1  0
  6  9  1  0
  6 10  1  0
  6 11  1  0
  7  8  1  0
  7 12  1  0
  7 13  1  0
M  RAD  1   8   3
M  END
>  <reaction>  (15) 
rmg_rxn_1494

>  <mol_properties>  (15) 
{"0": {"label": "*3", "atom_type": "N3d"}, "1": {"label": "*4", "atom_type": "N3d"}, "3": {"label": "*2", "atom_type": "H0"}, "6": {"label": "*0", "atom_type": "Cs"}, "7": {"label": "*1", "atom_type": "N3s"}}

>  <type>  (15) 
unop_11

>  <geom_source>  (15) 
Heuristics

$$$$

     RDKit          3D

 13 11  0  0  0  0  0  0  0  0999 V2000
    1.1673    1.0411    0.0994 N   0  0  0  0  0  0  0  0  0  0  0  0
    1.9053    0.0454   -0.0111 N   0  0  0  0  0  0  0  0  0  0  0  0
    1.5522   -1.1012   -0.1336 O   0  0  0  0  0  1  0  0  0  0  0  0
   -0.0531    1.1246    0.1570 H   0  0  0  0  0  0  0  0  0  0  0  0
    1.6334    1.9345    0.2011 H   0  0  0  0  0  0  0  0  0  0  0  0
   -1.6110   -1.2318    0.2990 C   0  0  0  0  0  0  0  0  0  0  0  0
   -1.9106    0.1157   -0.3798 C   0  0  0  0  0  0  0  0  0  0  0  0
   -1.2682    1.2194    0.1323 N   0  0  0  0  0  2  0  0  0  0  0  0
   -0.5737   -1.5154    0.1137 H   0  0  0  0  0  0  0  0  0  0  0  0
   -1.7617   -1.1513    1.3731 H   0  0  0  0  0  0  0  0  0  0  0  0
   -2.2648   -2.0041   -0.0975 H   0  0  0  0  0  0  0  0  0  0  0  0
   -1.7450    0.0112   -1.4720 H   0  0  0  0  0  0  0  0  0  0  0  0
   -2.9849    0.3343   -0.2579 H   0  0  0  0  0  0  0  0  0  0  0  0
  1  2  2  3
  1  5  1  0
  2  3  1  0
  4  8  1  0
  6  7  1  0
  6  9  1  0
  6 10  1  0
  6 11  1  0
  7  8  1  0
  7 12  1  0
  7 13  1  0
M  RAD  2   3   2   8   2
M  END
>  <reaction>  (16) 
rmg_rxn_1494

>  <mol_properties>  (16) 
{"0": {"label": "*3", "atom_type": "N3d"}, "1": {"label": "*4", "atom_type": "N3d"}, "3": {"label": "*2", "atom_type": "H0"}, "6": {"label": "*0", "atom_type": "Cs"}, "7": {"label": "*1", "atom_type": "N3s"}}

>  <type>  (16) 
unop_12

>  <geom_source>  (16) 
Heuristics

$$$$

     RDKit          3D

 13 11  0  0  0  0  0  0  0  0999 V2000
   -0.3541   -1.0632    0.9858 N   0  0  0  0  0  0  0  0  0  0  0  0
   -0.3541   -2.2661    0.4410 N   0  0  0  0  0  0  0  0  0  0  0  0
   -0.3541   -2.2661   -0.7635 O   0  0  0  0  0  0  0  0  0  0  0  0
   -0.3541   -0.0806    0.2706 H   0  0  0  0  0  0  0  0  0  0  0  0
   -0.3541   -1.0169    1.9879 H   0  0  0  0  0  0  0  0  0  0  0  0
    0.5733    3.1546   -0.1248 C   0  0  0  0  0  0  0  0  0  0  0  0
    0.8309    1.6589   -0.1493 C   0  0  0  0  0  0  0  0  0  0  0  0
   -0.3541    0.9119   -0.4518 N   0  0  0  0  0  1  0  0  0  0  0  0
   -0.1780    3.3986    0.6273 H   0  0  0  0  0  0  0  0  0  0  0  0
    1.4867    3.7050    0.1071 H   0  0  0  0  0  0  0  0  0  0  0  0
    0.2022    3.4923   -1.0932 H   0  0  0  0  0  0  0  0  0  0  0  0
    1.6165    1.4166   -0.8834 H   0  0  0  0  0  0  0  0  0  0  0  0
    1.2406    1.3239    0.8175 H   0  0  0  0  0  0  0  0  0  0  0  0
  1  2  1  0
  1  4  1  0
  1  5  1  0
  2  3  2  0
  6  7  1  0
  6  9  1  0
  6 10  1  0
  6 11  1  0
  7  8  1  0
  7 12  1  0
  7 13  1  0
M  RAD  1   8   3
M  END
>  <reaction>  (17) 
rmg_rxn_1494

>  <mol_properties>  (17) 
{"0": {"label": "*3", "atom_type": "N3d"}, "1": {"label": "*4", "atom_type": "N3d"}, "3": {"label": "*2", "atom_type": "H0"}, "6": {"label": "*0", "atom_type": "Cs"}, "7": {"label": "*1", "atom_type": "N3s"}}

>  <type>  (17) 
unop_13

>  <geom_source>  (17) 
Heuristics

$$$$

     RDKit          3D

 13 11  0  0  0  0  0  0  0  0999 V2000
    0.4973   -0.9290    1.1692 N   0  0  0  0  0  0  0  0  0  0  0  0
    0.4973   -2.1318    0.6245 N   0  0  0  0  0  0  0  0  0  0  0  0
    0.4973   -2.1318   -0.5800 O   0  0  0  0  0  0  0  0  0  0  0  0
    0.4973    0.0537    0.4540 H   0  0  0  0  0  0  0  0  0  0  0  0
    0.4973   -0.8826    2.1713 H   0  0  0  0  0  0  0  0  0  0  0  0
   -1.0991    2.8908   -0.4822 C   0  0  0  0  0  0  0  0  0  0  0  0
   -0.8711    1.3905   -0.5190 C   0  0  0  0  0  0  0  0  0  0  0  0
    0.4973    1.0462   -0.2684 N   0  0  0  0  0  1  0  0  0  0  0  0
   -0.4852    3.3871   -1.2347 H   0  0  0  0  0  0  0  0  0  0  0  0
   -2.1458    3.1322   -0.6751 H   0  0  0  0  0  0  0  0  0  0  0  0
   -0.8255    3.2930    0.4940 H   0  0  0  0  0  0  0  0  0  0  0  0
   -1.5185    0.8856    0.2163 H   0  0  0  0  0  0  0  0  0  0  0  0
   -1.1821    0.9787   -1.4929 H   0  0  0  0  0  0  0  0  0  0  0  0
  1  2  1  0
  1  4  1  0
  1  5  1  0
  2  3  2  0
  6  7  1  0
  6  9  1  0
  6 10  1  0
  6 11  1  0
  7  8  1  0
  7 12  1  0
  7 13  1  0
M  RAD  1   8   3
M  END
>  <reaction>  (18) 
rmg_rxn_1494

>  <mol_properties>  (18) 
{"0": {"label": "*3", "atom_type": "N3d"}, "1": {"label": "*4", "atom_type": "N3d"}, "3": {"label": "*2", "atom_type": "H0"}, "6": {"label": "*0", "atom_type": "Cs"}, "7": {"label": "*1", "atom_type": "N3s"}}

>  <type>  (18) 
unop_14

>  <geom_source>  (18) 
Heuristics

$$$$

     RDKit          3D

 13 11  0  0  0  0  0  0  0  0999 V2000
    1.1673    1.0412   -0.0993 N   0  0  0  0  0  0  0  0  0  0  0  0
    1.9053    0.0454    0.0112 N   0  0  0  0  0  0  0  0  0  0  0  0
    1.5521   -1.1012    0.1334 O   0  0  0  0  0  1  0  0  0  0  0  0
   -0.0531    1.1246   -0.1571 H   0  0  0  0  0  0  0  0  0  0  0  0
    1.6334    1.9346   -0.2003 H   0  0  0  0  0  0  0  0  0  0  0  0
   -1.6109   -1.2319   -0.2988 C   0  0  0  0  0  0  0  0  0  0  0  0
   -1.9107    0.1158    0.3797 C   0  0  0  0  0  0  0  0  0  0  0  0
   -1.2682    1.2194   -0.1324 N   0  0  0  0  0  2  0  0  0  0  0  0
   -0.5735   -1.5154   -0.1135 H   0  0  0  0  0  0  0  0  0  0  0  0
   -2.2646   -2.0042    0.0981 H   0  0  0  0  0  0  0  0  0  0  0  0
   -1.7618   -1.1518   -1.3729 H   0  0  0  0  0  0  0  0  0  0  0  0
   -2.9850    0.3344    0.2577 H   0  0  0  0  0  0  0  0  0  0  0  0
   -1.7452    0.0115    1.4719 H   0  0  0  0  0  0  0  0  0  0  0  0
  1  2  2  3
  1  5  1  0
  2  3  1  0
  4  8  1  0
  6  7  1  0
  6  9  1  0
  6 10  1  0
  6 11  1  0
  7  8  1  0
  7 12  1  0
  7 13  1  0
M  RAD  2   3   2   8   2
M  END
>  <reaction>  (19) 
rmg_rxn_1494

>  <mol_properties>  (19) 
{"0": {"label": "*3", "atom_type": "N3d"}, "1": {"label": "*4", "atom_type": "N3d"}, "3": {"label": "*2", "atom_type": "H0"}, "6": {"label": "*0", "atom_type": "Cs"}, "7": {"label": "*1", "atom_type": "N3s"}}

>  <type>  (19) 
unop_15

>  <geom_source>  (19) 
Heuristics

$$$$

     RDKit          3D

 13 11  0  0  0  0  0  0  0  0999 V2000
   -0.3098   -0.6482    1.6253 N   0  0  0  0  0  0  0  0  0  0  0  0
   -0.3098   -1.8510    1.0806 N   0  0  0  0  0  0  0  0  0  0  0  0
   -0.3098   -1.8510   -0.1239 O   0  0  0  0  0  0  0  0  0  0  0  0
   -0.3098    0.3345    0.9101 H   0  0  0  0  0  0  0  0  0  0  0  0
   -0.3098   -0.6018    2.6274 H   0  0  0  0  0  0  0  0  0  0  0  0
    0.8521    2.1954   -1.7852 C   0  0  0  0  0  0  0  0  0  0  0  0
    0.3743    0.9739   -1.0210 C   0  0  0  0  0  0  0  0  0  0  0  0
   -0.3098    1.3270    0.1877 N   0  0  0  0  0  1  0  0  0  0  0  0
    1.5362    2.7836   -1.1723 H   0  0  0  0  0  0  0  0  0  0  0  0
    1.3699    1.9058   -2.7012 H   0  0  0  0  0  0  0  0  0  0  0  0
    0.0072    2.8315   -2.0517 H   0  0  0  0  0  0  0  0  0  0  0  0
   -0.2878    0.3603   -1.6533 H   0  0  0  0  0  0  0  0  0  0  0  0
    1.2238    0.3129   -0.7838 H   0  0  0  0  0  0  0  0  0  0  0  0
  1  2  1  0
  1  4  1  0
  1  5  1  0
  2  3  2  0
  6  7  1  0
  6  9  1  0
  6 10  1  0
  6 11  1  0
  7  8  1  0
  7 12  1  0
  7 13  1  0
M  RAD  1   8   3
M  END
>  <reaction>  (20) 
rmg_rxn_1494

>  <mol_properties>  (20) 
{"0": {"label": "*3", "atom_type": "N3d"}, "1": {"label": "*4", "atom_type": "N3d"}, "3": {"label": "*2", "atom_type": "H0"}, "6": {"label": "*0", "atom_type": "Cs"}, "7": {"label": "*1", "atom_type": "N3s"}}

>  <type>  (20) 
unop_16

>  <geom_source>  (20) 
Heuristics

$$$$

     RDKit          3D

 13 11  0  0  0  0  0  0  0  0999 V2000
    0.4909   -0.7738    1.4115 N   0  0  0  0  0  0  0  0  0  0  0  0
    0.4909   -1.9766    0.8667 N   0  0  0  0  0  0  0  0  0  0  0  0
    0.4909   -1.9766   -0.3378 O   0  0  0  0  0  0  0  0  0  0  0  0
    0.4909    0.2089    0.6962 H   0  0  0  0  0  0  0  0  0  0  0  0
    0.4909   -0.7274    2.4136 H   0  0  0  0  0  0  0  0  0  0  0  0
   -1.2498    2.5234   -1.1302 C   0  0  0  0  0  0  0  0  0  0  0  0
   -0.6941    1.1431   -0.8299 C   0  0  0  0  0  0  0  0  0  0  0  0
    0.4909    1.2014   -0.0262 N   0  0  0  0  0  1  0  0  0  0  0  0
   -0.5114    3.1224   -1.6645 H   0  0  0  0  0  0  0  0  0  0  0  0
   -2.1508    2.4576   -1.7425 H   0  0  0  0  0  0  0  0  0  0  0  0
   -1.4981    3.0429   -0.2039 H   0  0  0  0  0  0  0  0  0  0  0  0
   -1.4532    0.5256   -0.3227 H   0  0  0  0  0  0  0  0  0  0  0  0
   -0.4776    0.6043   -1.7667 H   0  0  0  0  0  0  0  0  0  0  0  0
  1  2  1  0
  1  4  1  0
  1  5  1  0
  2  3  2  0
  6  7  1  0
  6  9  1  0
  6 10  1  0
  6 11  1  0
  7  8  1  0
  7 12  1  0
  7 13  1  0
M  RAD  1   8   3
M  END
>  <reaction>  (21) 
rmg_rxn_1494

>  <mol_properties>  (21) 
{"0": {"label": "*3", "atom_type": "N3d"}, "1": {"label": "*4", "atom_type": "N3d"}, "3": {"label": "*2", "atom_type": "H0"}, "6": {"label": "*0", "atom_type": "Cs"}, "7": {"label": "*1", "atom_type": "N3s"}}

>  <type>  (21) 
unop_17

>  <geom_source>  (21) 
Heuristics

$$$$

     RDKit          3D

 13 11  0  0  0  0  0  0  0  0999 V2000
   -0.1463   -1.1426    0.9206 N   0  0  0  0  0  0  0  0  0  0  0  0
   -0.1463   -2.3454    0.3758 N   0  0  0  0  0  0  0  0  0  0  0  0
   -0.1463   -2.3454   -0.8287 O   0  0  0  0  0  0  0  0  0  0  0  0
   -0.1463   -0.1599    0.2054 H   0  0  0  0  0  0  0  0  0  0  0  0
   -0.1463   -1.0962    1.9227 H   0  0  0  0  0  0  0  0  0  0  0  0
    0.0434    3.2540   -0.2047 C   0  0  0  0  0  0  0  0  0  0  0  0
    0.5379    1.8743    0.1904 C   0  0  0  0  0  0  0  0  0  0  0  0
   -0.1463    0.8326   -0.5170 N   0  0  0  0  0  1  0  0  0  0  0  0
   -1.0225    3.3502    0.0052 H   0  0  0  0  0  0  0  0  0  0  0  0
    0.5761    4.0324    0.3443 H   0  0  0  0  0  0  0  0  0  0  0  0
    0.1926    3.4198   -1.2723 H   0  0  0  0  0  0  0  0  0  0  0  0
    1.6223    1.7896    0.0126 H   0  0  0  0  0  0  0  0  0  0  0  0
    0.4210    1.7208    1.2756 H   0  0  0  0  0  0  0  0  0  0  0  0
  1  2  1  0
  1  4  1  0
  1  5  1  0
  2  3  2  0
  6  7  1  0
  6  9  1  0
  6 10  1  0
  6 11  1  0
  7  8  1  0
  7 12  1  0
  7 13  1  0
M  RAD  1   8   3
M  END
>  <reaction>  (22) 
rmg_rxn_1494

>  <mol_properties>  (22) 
{"0": {"label": "*3", "atom_type": "N3d"}, "1": {"label": "*4", "atom_type": "N3d"}, "3": {"label": "*2", "atom_type": "H0"}, "6": {"label": "*0", "atom_type": "Cs"}, "7": {"label": "*1", "atom_type": "N3s"}}

>  <type>  (22) 
unop_18

>  <geom_source>  (22) 
Heuristics

$$$$

     RDKit          3D

 13 11  0  0  0  0  0  0  0  0999 V2000
    0.0000   -0.5996    1.7136 N   0  0  0  0  0  0  0  0  0  0  0  0
    0.0000   -1.8024    1.1689 N   0  0  0  0  0  0  0  0  0  0  0  0
    0.0000   -1.8024   -0.0356 O   0  0  0  0  0  0  0  0  0  0  0  0
    0.0000    0.3831    0.9984 H   0  0  0  0  0  0  0  0  0  0  0  0
    0.0000   -0.5532    2.7157 H   0  0  0  0  0  0  0  0  0  0  0  0
   -0.0000    2.0623   -2.0746 C   0  0  0  0  0  0  0  0  0  0  0  0
   -0.0000    0.9147   -1.0809 C   0  0  0  0  0  0  0  0  0  0  0  0
   -0.0000    1.3756    0.2760 N   0  0  0  0  0  1  0  0  0  0  0  0
    0.8822    2.6877   -1.9329 H   0  0  0  0  0  0  0  0  0  0  0  0
   -0.0000    1.6910   -3.1008 H   0  0  0  0  0  0  0  0  0  0  0  0
   -0.8822    2.6877   -1.9329 H   0  0  0  0  0  0  0  0  0  0  0  0
   -0.8722    0.2620   -1.2482 H   0  0  0  0  0  0  0  0  0  0  0  0
    0.8722    0.2620   -1.2482 H   0  0  0  0  0  0  0  0  0  0  0  0
  1  2  1  0
  1  4  1  0
  1  5  1  0
  2  3  2  0
  6  7  1  0
  6  9  1  0
  6 10  1  0
  6 11  1  0
  7  8  1  0
  7 12  1  0
  7 13  1  0
M  RAD  1   8   3
M  END
>  <reaction>  (23) 
rmg_rxn_1494

>  <mol_properties>  (23) 
{"0": {"label": "*3", "atom_type": "N3d"}, "1": {"label": "*4", "atom_type": "N3d"}, "3": {"label": "*2", "atom_type": "H0"}, "6": {"label": "*0", "atom_type": "Cs"}, "7": {"label": "*1", "atom_type": "N3s"}}

>  <type>  (23) 
unop_19

>  <geom_source>  (23) 
Heuristics

$$$$

     RDKit          3D

 13 11  0  0  0  0  0  0  0  0999 V2000
    0.3099   -0.6482    1.6253 N   0  0  0  0  0  0  0  0  0  0  0  0
    0.3099   -1.8510    1.0806 N   0  0  0  0  0  0  0  0  0  0  0  0
    0.3099   -1.8510   -0.1239 O   0  0  0  0  0  0  0  0  0  0  0  0
    0.3099    0.3345    0.9101 H   0  0  0  0  0  0  0  0  0  0  0  0
    0.3099   -0.6018    2.6274 H   0  0  0  0  0  0  0  0  0  0  0  0
   -0.8521    2.1954   -1.7852 C   0  0  0  0  0  0  0  0  0  0  0  0
   -0.3743    0.9739   -1.0210 C   0  0  0  0  0  0  0  0  0  0  0  0
    0.3099    1.3270    0.1877 N   0  0  0  0  0  1  0  0  0  0  0  0
   -0.0072    2.8315   -2.0517 H   0  0  0  0  0  0  0  0  0  0  0  0
   -1.3699    1.9058   -2.7012 H   0  0  0  0  0  0  0  0  0  0  0  0
   -1.5361    2.7836   -1.1723 H   0  0  0  0  0  0  0  0  0  0  0  0
   -1.2238    0.3129   -0.7838 H   0  0  0  0  0  0  0  0  0  0  0  0
    0.2878    0.3603   -1.6533 H   0  0  0  0  0  0  0  0  0  0  0  0
  1  2  1  0
  1  4  1  0
  1  5  1  0
  2  3  2  0
  6  7  1  0
  6  9  1  0
  6 10  1  0
  6 11  1  0
  7  8  1  0
  7 12  1  0
  7 13  1  0
M  RAD  1   8   3
M  END
>  <reaction>  (24) 
rmg_rxn_1494

>  <mol_properties>  (24) 
{"0": {"label": "*3", "atom_type": "N3d"}, "1": {"label": "*4", "atom_type": "N3d"}, "3": {"label": "*2", "atom_type": "H0"}, "6": {"label": "*0", "atom_type": "Cs"}, "7": {"label": "*1", "atom_type": "N3s"}}

>  <type>  (24) 
unop_20

>  <geom_source>  (24) 
gaussian_log

$$$$
