
     RDKit          3D

  9  8  0  0  0  0  0  0  0  0999 V2000
   -1.0314    0.2323   -0.1227 C   0  0  0  0  0  0  0  0  0  0  0  0
    0.3094   -0.4511    0.0063 C   0  0  0  0  0  0  0  0  0  0  0  0
    0.3197   -1.7698    0.6841 N   0  0  0  0  0  0  0  0  0  0  0  0
   -0.7498   -2.1455    1.0557 O   0  0  0  0  0  0  0  0  0  0  0  0
   -1.4744    0.4198    0.8552 H   0  0  0  0  0  0  0  0  0  0  0  0
   -0.9073    1.1865   -0.6350 H   0  0  0  0  0  0  0  0  0  0  0  0
   -1.7319   -0.3778   -0.6927 H   0  0  0  0  0  0  0  0  0  0  0  0
    1.0375    0.1401    0.5713 H   0  0  0  0  0  0  0  0  0  0  0  0
    0.7826   -0.6494   -0.9609 H   0  0  0  0  0  0  0  0  0  0  0  0
  1  2  1  0
  1  5  1  0
  1  6  1  0
  1  7  1  0
  2  3  1  0
  2  8  1  0
  2  9  1  0
  3  4  2  0
M  END
>  <reaction>  (1) 
rmg_rxn_213

>  <mol_properties>  (1) 
{"1": {"label": "donator", "atom_type": "Cs"}, "7": {"label": "d_hydrogen", "atom_type": "H0"}}

>  <type>  (1) 
r1h

$$$$

     RDKit          3D

 17 16  0  0  0  0  0  0  0  0999 V2000
    2.3993   -0.7259   -0.8796 C   0  0  0  0  0  0  0  0  0  0  0  0
    1.8173   -0.7170    0.4851 C   0  0  0  0  0  3  0  0  0  0  0  0
    2.6779   -0.5182    1.6852 C   0  0  0  0  0  0  0  0  0  0  0  0
    3.8710   -1.2723    1.6674 O   0  0  0  0  0  0  0  0  0  0  0  0
    3.6589   -2.6587    1.8015 C   0  0  0  0  0  0  0  0  0  0  0  0
    4.9969   -3.3586    1.7556 C   0  0  0  0  0  0  0  0  0  0  0  0
    3.3755   -1.2152   -0.8894 H   0  0  0  0  0  0  0  0  0  0  0  0
    1.7457   -1.2284   -1.5943 H   0  0  0  0  0  0  0  0  0  0  0  0
    2.5578    0.2962   -1.2545 H   0  0  0  0  0  0  0  0  0  0  0  0
    0.7445   -0.6275    0.6059 H   0  0  0  0  0  0  0  0  0  0  0  0
    2.1057   -0.7316    2.5992 H   0  0  0  0  0  0  0  0  0  0  0  0
    3.0103    0.5272    1.7516 H   0  0  0  0  0  0  0  0  0  0  0  0
    3.0050   -3.0235    0.9977 H   0  0  0  0  0  0  0  0  0  0  0  0
    3.1469   -2.8645    2.7531 H   0  0  0  0  0  0  0  0  0  0  0  0
    5.6430   -3.0039    2.5594 H   0  0  0  0  0  0  0  0  0  0  0  0
    4.8641   -4.4360    1.8660 H   0  0  0  0  0  0  0  0  0  0  0  0
    5.4957   -3.1672    0.8046 H   0  0  0  0  0  0  0  0  0  0  0  0
  1  2  1  0
  1  7  1  0
  1  8  1  0
  1  9  1  0
  2  3  1  0
  2 10  1  0
  3  4  1  0
  3 11  1  0
  3 12  1  0
  4  5  1  0
  5  6  1  0
  5 13  1  0
  5 14  1  0
  6 15  1  0
  6 16  1  0
  6 17  1  0
M  RAD  1   2   2
M  END
>  <reaction>  (2) 
rmg_rxn_213

>  <mol_properties>  (2) 
{"1": {"label": "acceptor", "atom_type": "Cs"}}

>  <type>  (2) 
r2

$$$$

     RDKit          3D

 18 17  0  0  0  0  0  0  0  0999 V2000
    2.2026   -0.7213   -0.2612 C   0  0  0  0  0  0  0  0  0  0  0  0
    1.5384    0.2638    0.6915 C   0  0  0  0  0  0  0  0  0  0  0  0
    2.2584    1.5946    0.7694 C   0  0  0  0  0  0  0  0  0  0  0  0
    2.2212    2.2185   -0.4893 O   0  0  0  0  0  0  0  0  0  0  0  0
    2.8988    3.4488   -0.5204 C   0  0  0  0  0  0  0  0  0  0  0  0
    2.7981    4.0296   -1.9118 C   0  0  0  0  0  0  0  0  0  0  0  0
    3.2294   -0.9309    0.0486 H   0  0  0  0  0  0  0  0  0  0  0  0
    2.2338   -0.3181   -1.2734 H   0  0  0  0  0  0  0  0  0  0  0  0
    1.6610   -1.6680   -0.2875 H   0  0  0  0  0  0  0  0  0  0  0  0
    1.4990   -0.1566    1.7002 H   0  0  0  0  0  0  0  0  0  0  0  0
    0.5055    0.4455    0.3835 H   0  0  0  0  0  0  0  0  0  0  0  0
    3.3038    1.4410    1.0808 H   0  0  0  0  0  0  0  0  0  0  0  0
    1.7844    2.2410    1.5226 H   0  0  0  0  0  0  0  0  0  0  0  0
    2.4596    4.1376    0.2164 H   0  0  0  0  0  0  0  0  0  0  0  0
    3.9524    3.3035   -0.2397 H   0  0  0  0  0  0  0  0  0  0  0  0
    1.7543    4.1869   -2.1856 H   0  0  0  0  0  0  0  0  0  0  0  0
    3.2472    3.3545   -2.6411 H   0  0  0  0  0  0  0  0  0  0  0  0
    3.3178    4.9878   -1.9600 H   0  0  0  0  0  0  0  0  0  0  0  0
  1  2  1  0
  1  7  1  0
  1  8  1  0
  1  9  1  0
  2  3  1  0
  2 10  1  0
  2 11  1  0
  3  4  1  0
  3 12  1  0
  3 13  1  0
  4  5  1  0
  5  6  1  0
  5 14  1  0
  5 15  1  0
  6 16  1  0
  6 17  1  0
  6 18  1  0
M  END
>  <reaction>  (3) 
rmg_rxn_213

>  <mol_properties>  (3) 
{"0": {"label": "a_hydrogen", "atom_type": "H0"}, "2": {"label": "acceptor", "atom_type": "Cs"}}

>  <type>  (3) 
r2h

$$$$

     RDKit          3D

 26 24  0  0  0  0  0  0  0  0999 V2000
   -2.4731    0.2910   -1.4460 C   0  0  0  0  0  0  0  0  0  0  0  0
   -1.4403    1.3893   -1.4319 C   0  0  0  0  0  0  0  0  0  0  0  0
   -0.5895    1.5417   -2.5700 N   0  0  0  0  0  0  0  0  0  0  0  0
   -0.4044    0.5273   -3.2081 O   0  0  0  0  0  0  0  0  0  0  0  0
   -2.0157   -0.6686   -1.6816 H   0  0  0  0  0  0  0  0  0  0  0  0
   -2.9595    0.2253   -0.4724 H   0  0  0  0  0  0  0  0  0  0  0  0
   -3.2381    0.4913   -2.1987 H   0  0  0  0  0  0  0  0  0  0  0  0
   -0.6227    1.1056   -0.5368 H   0  0  0  0  0  0  0  0  0  0  0  0
   -1.7989    2.3714   -1.1273 H   0  0  0  0  0  0  0  0  0  0  0  0
    1.5805    1.3697    0.1218 C   0  0  0  0  0  0  0  0  0  0  0  0
    0.3311    0.6381    0.4942 C   0  0  0  0  0  3  0  0  0  0  0  0
    0.3095   -0.8469    0.2947 C   0  0  0  0  0  0  0  0  0  0  0  0
    1.2163   -1.4354    1.2001 O   0  0  0  0  0  0  0  0  0  0  0  0
    1.2867   -2.8371    1.0732 C   0  0  0  0  0  0  0  0  0  0  0  0
    2.2864   -3.3675    2.0737 C   0  0  0  0  0  0  0  0  0  0  0  0
    1.8898    1.1262   -0.8969 H   0  0  0  0  0  0  0  0  0  0  0  0
    1.4519    2.4499    0.1941 H   0  0  0  0  0  0  0  0  0  0  0  0
    2.3951    1.0789    0.7930 H   0  0  0  0  0  0  0  0  0  0  0  0
   -0.1661    0.9792    1.4000 H   0  0  0  0  0  0  0  0  0  0  0  0
    0.5936   -1.0911   -0.7396 H   0  0  0  0  0  0  0  0  0  0  0  0
   -0.7014   -1.2437    0.4634 H   0  0  0  0  0  0  0  0  0  0  0  0
    1.5856   -3.1034    0.0496 H   0  0  0  0  0  0  0  0  0  0  0  0
    0.2945   -3.2775    1.2483 H   0  0  0  0  0  0  0  0  0  0  0  0
    1.9833   -3.1126    3.0897 H   0  0  0  0  0  0  0  0  0  0  0  0
    2.3579   -4.4533    1.9950 H   0  0  0  0  0  0  0  0  0  0  0  0
    3.2734   -2.9413    1.8908 H   0  0  0  0  0  0  0  0  0  0  0  0
  1  2  1  0
  1  5  1  0
  1  6  1  0
  1  7  1  0
  2  3  1  0
  2  8  1  0
  2  9  1  0
  3  4  2  0
 10 11  1  0
 10 16  1  0
 10 17  1  0
 10 18  1  0
 11 12  1  0
 11 19  1  0
 12 13  1  0
 12 20  1  0
 12 21  1  0
 13 14  1  0
 14 15  1  0
 14 22  1  0
 14 23  1  0
 15 24  1  0
 15 25  1  0
 15 26  1  0
M  RAD  1  11   2
M  END
>  <reaction>  (4) 
rmg_rxn_213

>  <mol_properties>  (4) 
{"1": {"label": "*1", "atom_type": "Cs"}, "2": {"label": "*0", "atom_type": "N3d"}, "7": {"label": "*2", "atom_type": "H0"}, "10": {"label": "*3", "atom_type": "Cs"}, "11": {"label": "*4", "atom_type": "Cs"}}

>  <type>  (4) 
ts

$$$$

     RDKit          3D

 26 24  0  0  0  0  0  0  0  0999 V2000
   -1.9685    1.2793   -2.3430 C   0  0  0  0  0  0  0  0  0  0  0  0
   -1.9685    1.2793   -0.8325 C   0  0  0  0  0  0  0  0  0  0  0  0
   -1.9685    2.6053   -0.1689 N   0  0  0  0  0  0  0  0  0  0  0  0
   -1.9685    3.5348   -0.9166 O   0  0  0  0  0  1  0  0  0  0  0  0
   -1.0883    1.7867   -2.7375 H   0  0  0  0  0  0  0  0  0  0  0  0
   -1.9685    0.2522   -2.7083 H   0  0  0  0  0  0  0  0  0  0  0  0
   -2.8486    1.7867   -2.7375 H   0  0  0  0  0  0  0  0  0  0  0  0
   -0.9230    0.6705   -0.3199 H   0  0  0  0  0  0  0  0  0  0  0  0
   -2.8397    0.7720   -0.4054 H   0  0  0  0  0  0  0  0  0  0  0  0
    0.9202    1.0302    1.0547 C   0  0  0  0  0  0  0  0  0  0  0  0
    0.1211    0.0625    0.1920 C   0  0  0  0  0  0  0  0  0  0  0  0
    0.9246   -1.1430   -0.2513 C   0  0  0  0  0  0  0  0  0  0  0  0
    1.3083   -1.8875    0.8772 O   0  0  0  0  0  0  0  0  0  0  0  0
    2.0915   -3.0105    0.5626 C   0  0  0  0  0  0  0  0  0  0  0  0
    2.4475   -3.7343    1.8405 C   0  0  0  0  0  0  0  0  0  0  0  0
    1.7907    1.4079    0.5126 H   0  0  0  0  0  0  0  0  0  0  0  0
    0.3124    1.8867    1.3501 H   0  0  0  0  0  0  0  0  0  0  0  0
    1.2768    0.5371    1.9590 H   0  0  0  0  0  0  0  0  0  0  0  0
   -0.7586   -0.2882    0.7378 H   0  0  0  0  0  0  0  0  0  0  0  0
    1.8182   -0.8179   -0.8074 H   0  0  0  0  0  0  0  0  0  0  0  0
    0.3278   -1.7705   -0.9295 H   0  0  0  0  0  0  0  0  0  0  0  0
    3.0024   -2.6955    0.0325 H   0  0  0  0  0  0  0  0  0  0  0  0
    1.5370   -3.6767   -0.1149 H   0  0  0  0  0  0  0  0  0  0  0  0
    1.5452   -4.0591    2.3597 H   0  0  0  0  0  0  0  0  0  0  0  0
    3.0566   -4.6125    1.6205 H   0  0  0  0  0  0  0  0  0  0  0  0
    3.0108   -3.0795    2.5063 H   0  0  0  0  0  0  0  0  0  0  0  0
  1  2  1  0
  1  5  1  0
  1  6  1  0
  1  7  1  0
  2  3  2  3
  2  9  1  0
  3  4  1  0
  8 11  1  0
 10 11  1  0
 10 16  1  0
 10 17  1  0
 10 18  1  0
 11 12  1  0
 11 19  1  0
 12 13  1  0
 12 20  1  0
 12 21  1  0
 13 14  1  0
 14 15  1  0
 14 22  1  0
 14 23  1  0
 15 24  1  0
 15 25  1  0
 15 26  1  0
M  RAD  1   4   2
M  END
>  <reaction>  (5) 
rmg_rxn_213

>  <mol_properties>  (5) 
{"1": {"label": "*1", "atom_type": "Cs"}, "2": {"label": "*0", "atom_type": "N3d"}, "7": {"label": "*2", "atom_type": "H0"}, "10": {"label": "*3", "atom_type": "Cs"}, "11": {"label": "*4", "atom_type": "Cs"}}

>  <type>  (5) 
unop_1

>  <geom_source>  (5) 
Heuristics

$$$$

     RDKit          3D

 26 24  0  0  0  0  0  0  0  0999 V2000
   -1.7924    1.2579   -2.6248 C   0  0  0  0  0  0  0  0  0  0  0  0
   -1.7924    1.2579   -1.1143 C   0  0  0  0  0  0  0  0  0  0  0  0
   -1.7924    2.5839   -0.4507 N   0  0  0  0  0  0  0  0  0  0  0  0
   -1.7924    3.5134   -1.1984 O   0  0  0  0  0  1  0  0  0  0  0  0
   -0.9123    1.7653   -3.0193 H   0  0  0  0  0  0  0  0  0  0  0  0
   -1.7924    0.2308   -2.9901 H   0  0  0  0  0  0  0  0  0  0  0  0
   -2.6725    1.7653   -3.0193 H   0  0  0  0  0  0  0  0  0  0  0  0
   -0.7469    0.6491   -0.6017 H   0  0  0  0  0  0  0  0  0  0  0  0
   -2.6636    0.7506   -0.6871 H   0  0  0  0  0  0  0  0  0  0  0  0
    1.4914    0.1730   -1.0255 C   0  0  0  0  0  0  0  0  0  0  0  0
    0.2972    0.0411   -0.0898 C   0  0  0  0  0  0  0  0  0  0  0  0
    0.1740   -1.3368    0.5279 C   0  0  0  0  0  0  0  0  0  0  0  0
    1.2995   -1.5897    1.3305 O   0  0  0  0  0  0  0  0  0  0  0  0
    1.2880   -2.8655    1.9185 C   0  0  0  0  0  0  0  0  0  0  0  0
    2.5360   -3.0323    2.7540 C   0  0  0  0  0  0  0  0  0  0  0  0
    1.4217   -0.5417   -1.8494 H   0  0  0  0  0  0  0  0  0  0  0  0
    1.5450    1.1745   -1.4550 H   0  0  0  0  0  0  0  0  0  0  0  0
    2.4225   -0.0199   -0.4927 H   0  0  0  0  0  0  0  0  0  0  0  0
    0.3680    0.7773    0.7151 H   0  0  0  0  0  0  0  0  0  0  0  0
    0.0983   -2.1000   -0.2627 H   0  0  0  0  0  0  0  0  0  0  0  0
   -0.7414   -1.4023    1.1342 H   0  0  0  0  0  0  0  0  0  0  0  0
    1.2426   -3.6380    1.1367 H   0  0  0  0  0  0  0  0  0  0  0  0
    0.3893   -2.9830    2.5421 H   0  0  0  0  0  0  0  0  0  0  0  0
    2.5749   -2.2753    3.5381 H   0  0  0  0  0  0  0  0  0  0  0  0
    2.5487   -4.0178    3.2222 H   0  0  0  0  0  0  0  0  0  0  0  0
    3.4274   -2.9314    2.1338 H   0  0  0  0  0  0  0  0  0  0  0  0
  1  2  1  0
  1  5  1  0
  1  6  1  0
  1  7  1  0
  2  3  2  3
  2  9  1  0
  3  4  1  0
  8 11  1  0
 10 11  1  0
 10 16  1  0
 10 17  1  0
 10 18  1  0
 11 12  1  0
 11 19  1  0
 12 13  1  0
 12 20  1  0
 12 21  1  0
 13 14  1  0
 14 15  1  0
 14 22  1  0
 14 23  1  0
 15 24  1  0
 15 25  1  0
 15 26  1  0
M  RAD  1   4   2
M  END
>  <reaction>  (6) 
rmg_rxn_213

>  <mol_properties>  (6) 
{"1": {"label": "*1", "atom_type": "Cs"}, "2": {"label": "*0", "atom_type": "N3d"}, "7": {"label": "*2", "atom_type": "H0"}, "10": {"label": "*3", "atom_type": "Cs"}, "11": {"label": "*4", "atom_type": "Cs"}}

>  <type>  (6) 
unop_2

>  <geom_source>  (6) 
Heuristics

$$$$

     RDKit          3D

 26 24  0  0  0  0  0  0  0  0999 V2000
   -2.2366    1.0605   -2.0515 C   0  0  0  0  0  0  0  0  0  0  0  0
   -2.2366    1.0605   -0.5410 C   0  0  0  0  0  0  0  0  0  0  0  0
   -2.2366    2.3864    0.1226 N   0  0  0  0  0  0  0  0  0  0  0  0
   -2.2366    3.3160   -0.6251 O   0  0  0  0  0  1  0  0  0  0  0  0
   -1.3564    1.5679   -2.4459 H   0  0  0  0  0  0  0  0  0  0  0  0
   -2.2366    0.0333   -2.4167 H   0  0  0  0  0  0  0  0  0  0  0  0
   -3.1167    1.5679   -2.4459 H   0  0  0  0  0  0  0  0  0  0  0  0
   -1.1911    0.4517   -0.0284 H   0  0  0  0  0  0  0  0  0  0  0  0
   -3.1078    0.5532   -0.1138 H   0  0  0  0  0  0  0  0  0  0  0  0
    0.2123    0.4618    1.8282 C   0  0  0  0  0  0  0  0  0  0  0  0
   -0.1470   -0.1563    0.4836 C   0  0  0  0  0  0  0  0  0  0  0  0
    1.0548   -0.6985   -0.2628 C   0  0  0  0  0  0  0  0  0  0  0  0
    1.6316   -1.7431    0.4796 O   0  0  0  0  0  0  0  0  0  0  0  0
    2.7793   -2.2853   -0.1223 C   0  0  0  0  0  0  0  0  0  0  0  0
    3.3164   -3.3931    0.7540 C   0  0  0  0  0  0  0  0  0  0  0  0
    0.9111    1.2924    1.7010 H   0  0  0  0  0  0  0  0  0  0  0  0
   -0.6752    0.8456    2.3336 H   0  0  0  0  0  0  0  0  0  0  0  0
    0.6830   -0.2754    2.4786 H   0  0  0  0  0  0  0  0  0  0  0  0
   -0.8642   -0.9691    0.6238 H   0  0  0  0  0  0  0  0  0  0  0  0
    1.7946    0.1023   -0.4204 H   0  0  0  0  0  0  0  0  0  0  0  0
    0.7537   -1.0653   -1.2550 H   0  0  0  0  0  0  0  0  0  0  0  0
    3.5378   -1.5003   -0.2579 H   0  0  0  0  0  0  0  0  0  0  0  0
    2.5315   -2.6719   -1.1220 H   0  0  0  0  0  0  0  0  0  0  0  0
    2.5700   -4.1785    0.8777 H   0  0  0  0  0  0  0  0  0  0  0  0
    4.2096   -3.8307    0.3054 H   0  0  0  0  0  0  0  0  0  0  0  0
    3.5770   -3.0077    1.7404 H   0  0  0  0  0  0  0  0  0  0  0  0
  1  2  1  0
  1  5  1  0
  1  6  1  0
  1  7  1  0
  2  3  2  3
  2  9  1  0
  3  4  1  0
  8 11  1  0
 10 11  1  0
 10 16  1  0
 10 17  1  0
 10 18  1  0
 11 12  1  0
 11 19  1  0
 12 13  1  0
 12 20  1  0
 12 21  1  0
 13 14  1  0
 14 15  1  0
 14 22  1  0
 14 23  1  0
 15 24  1  0
 15 25  1  0
 15 26  1  0
M  RAD  1   4   2
M  END
>  <reaction>  (7) 
rmg_rxn_213

>  <mol_properties>  (7) 
{"1": {"label": "*1", "atom_type": "Cs"}, "2": {"label": "*0", "atom_type": "N3d"}, "7": {"label": "*2", "atom_type": "H0"}, "10": {"label": "*3", "atom_type": "Cs"}, "11": {"label": "*4", "atom_type": "Cs"}}

>  <type>  (7) 
unop_3

>  <geom_source>  (7) 
Heuristics

$$$$

     RDKit          3D

 26 24  0  0  0  0  0  0  0  0999 V2000
   -1.0609    0.6994   -3.1689 C   0  0  0  0  0  0  0  0  0  0  0  0
   -1.0609    0.6994   -1.6585 C   0  0  0  0  0  0  0  0  0  0  0  0
   -1.0609    2.0253   -0.9949 N   0  0  0  0  0  0  0  0  0  0  0  0
   -1.0609    2.9549   -1.7426 O   0  0  0  0  0  1  0  0  0  0  0  0
   -0.1808    1.2067   -3.5634 H   0  0  0  0  0  0  0  0  0  0  0  0
   -1.0609   -0.3278   -3.5342 H   0  0  0  0  0  0  0  0  0  0  0  0
   -1.9411    1.2067   -3.5634 H   0  0  0  0  0  0  0  0  0  0  0  0
   -0.0155    0.0906   -1.1459 H   0  0  0  0  0  0  0  0  0  0  0  0
   -1.9321    0.1920   -1.2313 H   0  0  0  0  0  0  0  0  0  0  0  0
    1.0635   -1.9707   -1.0878 C   0  0  0  0  0  0  0  0  0  0  0  0
    1.0286   -0.5174   -0.6339 C   0  0  0  0  0  0  0  0  0  0  0  0
    0.2412   -0.3113    0.6438 C   0  0  0  0  0  0  0  0  0  0  0  0
    0.8643   -1.0091    1.6926 O   0  0  0  0  0  0  0  0  0  0  0  0
    0.1799   -0.9033    2.9148 C   0  0  0  0  0  0  0  0  0  0  0  0
    0.9303   -1.6863    3.9671 C   0  0  0  0  0  0  0  0  0  0  0  0
    0.0535   -2.3462   -1.2705 H   0  0  0  0  0  0  0  0  0  0  0  0
    1.6333   -2.0800   -2.0117 H   0  0  0  0  0  0  0  0  0  0  0  0
    1.5229   -2.6018   -0.3271 H   0  0  0  0  0  0  0  0  0  0  0  0
    2.0457   -0.1484   -0.4783 H   0  0  0  0  0  0  0  0  0  0  0  0
   -0.7911   -0.6732    0.5141 H   0  0  0  0  0  0  0  0  0  0  0  0
    0.1839    0.7597    0.8878 H   0  0  0  0  0  0  0  0  0  0  0  0
   -0.8443   -1.2897    2.8055 H   0  0  0  0  0  0  0  0  0  0  0  0
    0.0972    0.1538    3.2083 H   0  0  0  0  0  0  0  0  0  0  0  0
    1.9413   -1.2951    4.0860 H   0  0  0  0  0  0  0  0  0  0  0  0
    0.4166   -1.6181    4.9273 H   0  0  0  0  0  0  0  0  0  0  0  0
    0.9992   -2.7374    3.6845 H   0  0  0  0  0  0  0  0  0  0  0  0
  1  2  1  0
  1  5  1  0
  1  6  1  0
  1  7  1  0
  2  3  2  3
  2  9  1  0
  3  4  1  0
  8 11  1  0
 10 11  1  0
 10 16  1  0
 10 17  1  0
 10 18  1  0
 11 12  1  0
 11 19  1  0
 12 13  1  0
 12 20  1  0
 12 21  1  0
 13 14  1  0
 14 15  1  0
 14 22  1  0
 14 23  1  0
 15 24  1  0
 15 25  1  0
 15 26  1  0
M  RAD  1   4   2
M  END
>  <reaction>  (8) 
rmg_rxn_213

>  <mol_properties>  (8) 
{"1": {"label": "*1", "atom_type": "Cs"}, "2": {"label": "*0", "atom_type": "N3d"}, "7": {"label": "*2", "atom_type": "H0"}, "10": {"label": "*3", "atom_type": "Cs"}, "11": {"label": "*4", "atom_type": "Cs"}}

>  <type>  (8) 
unop_4

>  <geom_source>  (8) 
Heuristics

$$$$

     RDKit          3D

 26 24  0  0  0  0  0  0  0  0999 V2000
   -2.4571    0.2752   -2.0461 C   0  0  0  0  0  0  0  0  0  0  0  0
   -2.4571    0.2752   -0.5357 C   0  0  0  0  0  0  0  0  0  0  0  0
   -2.4571    1.6011    0.1279 N   0  0  0  0  0  0  0  0  0  0  0  0
   -2.4571    2.5307   -0.6198 O   0  0  0  0  0  1  0  0  0  0  0  0
   -1.5770    0.7825   -2.4406 H   0  0  0  0  0  0  0  0  0  0  0  0
   -2.4571   -0.7520   -2.4114 H   0  0  0  0  0  0  0  0  0  0  0  0
   -3.3373    0.7825   -2.4406 H   0  0  0  0  0  0  0  0  0  0  0  0
   -1.4117   -0.3336   -0.0231 H   0  0  0  0  0  0  0  0  0  0  0  0
   -3.3283   -0.2322   -0.1085 H   0  0  0  0  0  0  0  0  0  0  0  0
   -0.4327   -0.9037    2.0099 C   0  0  0  0  0  0  0  0  0  0  0  0
   -0.3676   -0.9417    0.4889 C   0  0  0  0  0  0  0  0  0  0  0  0
    0.8762   -0.2820   -0.0706 C   0  0  0  0  0  0  0  0  0  0  0  0
    2.0123   -0.9861    0.3637 O   0  0  0  0  0  0  0  0  0  0  0  0
    3.2197   -0.4217   -0.0802 C   0  0  0  0  0  0  0  0  0  0  0  0
    4.3703   -1.2513    0.4411 C   0  0  0  0  0  0  0  0  0  0  0  0
   -0.4255    0.1265    2.3746 H   0  0  0  0  0  0  0  0  0  0  0  0
   -1.3423   -1.3820    2.3760 H   0  0  0  0  0  0  0  0  0  0  0  0
    0.4229   -1.4194    2.4459 H   0  0  0  0  0  0  0  0  0  0  0  0
   -0.3997   -1.9762    0.1375 H   0  0  0  0  0  0  0  0  0  0  0  0
    0.9328    0.7652    0.2666 H   0  0  0  0  0  0  0  0  0  0  0  0
    0.8398   -0.2699   -1.1698 H   0  0  0  0  0  0  0  0  0  0  0  0
    3.3015    0.6159    0.2758 H   0  0  0  0  0  0  0  0  0  0  0  0
    3.2367   -0.3889   -1.1797 H   0  0  0  0  0  0  0  0  0  0  0  0
    4.2975   -2.2768    0.0774 H   0  0  0  0  0  0  0  0  0  0  0  0
    5.3206   -0.8314    0.1078 H   0  0  0  0  0  0  0  0  0  0  0  0
    4.3634   -1.2716    1.5315 H   0  0  0  0  0  0  0  0  0  0  0  0
  1  2  1  0
  1  5  1  0
  1  6  1  0
  1  7  1  0
  2  3  2  3
  2  9  1  0
  3  4  1  0
  8 11  1  0
 10 11  1  0
 10 16  1  0
 10 17  1  0
 10 18  1  0
 11 12  1  0
 11 19  1  0
 12 13  1  0
 12 20  1  0
 12 21  1  0
 13 14  1  0
 14 15  1  0
 14 22  1  0
 14 23  1  0
 15 24  1  0
 15 25  1  0
 15 26  1  0
M  RAD  1   4   2
M  END
>  <reaction>  (9) 
rmg_rxn_213

>  <mol_properties>  (9) 
{"1": {"label": "*1", "atom_type": "Cs"}, "2": {"label": "*0", "atom_type": "N3d"}, "7": {"label": "*2", "atom_type": "H0"}, "10": {"label": "*3", "atom_type": "Cs"}, "11": {"label": "*4", "atom_type": "Cs"}}

>  <type>  (9) 
unop_5

>  <geom_source>  (9) 
Heuristics

$$$$

     RDKit          3D

 26 24  0  0  0  0  0  0  0  0999 V2000
   -1.1813    0.1575   -3.2139 C   0  0  0  0  0  0  0  0  0  0  0  0
   -1.1813    0.1575   -1.7034 C   0  0  0  0  0  0  0  0  0  0  0  0
   -1.1813    1.4834   -1.0398 N   0  0  0  0  0  0  0  0  0  0  0  0
   -1.1813    2.4130   -1.7875 O   0  0  0  0  0  1  0  0  0  0  0  0
   -0.3012    0.6648   -3.6084 H   0  0  0  0  0  0  0  0  0  0  0  0
   -1.1813   -0.8697   -3.5792 H   0  0  0  0  0  0  0  0  0  0  0  0
   -2.0614    0.6648   -3.6084 H   0  0  0  0  0  0  0  0  0  0  0  0
   -0.1359   -0.4513   -1.1908 H   0  0  0  0  0  0  0  0  0  0  0  0
   -2.0525   -0.3498   -1.2763 H   0  0  0  0  0  0  0  0  0  0  0  0
    0.6056   -2.5378   -0.4744 C   0  0  0  0  0  0  0  0  0  0  0  0
    0.9083   -1.0593   -0.6789 C   0  0  0  0  0  0  0  0  0  0  0  0
    0.3785   -0.1831    0.4378 C   0  0  0  0  0  0  0  0  0  0  0  0
    1.0173   -0.5260    1.6417 O   0  0  0  0  0  0  0  0  0  0  0  0
    0.5607    0.2153    2.7442 C   0  0  0  0  0  0  0  0  0  0  0  0
    1.3080   -0.2313    3.9794 C   0  0  0  0  0  0  0  0  0  0  0  0
   -0.4719   -2.7105   -0.4162 H   0  0  0  0  0  0  0  0  0  0  0  0
    0.9964   -3.1362   -1.2987 H   0  0  0  0  0  0  0  0  0  0  0  0
    1.0533   -2.8991    0.4514 H   0  0  0  0  0  0  0  0  0  0  0  0
    1.9873   -0.9048   -0.7593 H   0  0  0  0  0  0  0  0  0  0  0  0
   -0.7100   -0.3174    0.5396 H   0  0  0  0  0  0  0  0  0  0  0  0
    0.5569    0.8775    0.2074 H   0  0  0  0  0  0  0  0  0  0  0  0
   -0.5213    0.0654    2.8743 H   0  0  0  0  0  0  0  0  0  0  0  0
    0.7195    1.2892    2.5660 H   0  0  0  0  0  0  0  0  0  0  0  0
    2.3796   -0.0703    3.8568 H   0  0  0  0  0  0  0  0  0  0  0  0
    0.9698    0.3323    4.8503 H   0  0  0  0  0  0  0  0  0  0  0  0
    1.1386   -1.2924    4.1658 H   0  0  0  0  0  0  0  0  0  0  0  0
  1  2  1  0
  1  5  1  0
  1  6  1  0
  1  7  1  0
  2  3  2  3
  2  9  1  0
  3  4  1  0
  8 11  1  0
 10 11  1  0
 10 16  1  0
 10 17  1  0
 10 18  1  0
 11 12  1  0
 11 19  1  0
 12 13  1  0
 12 20  1  0
 12 21  1  0
 13 14  1  0
 14 15  1  0
 14 22  1  0
 14 23  1  0
 15 24  1  0
 15 25  1  0
 15 26  1  0
M  RAD  1   4   2
M  END
>  <reaction>  (10) 
rmg_rxn_213

>  <mol_properties>  (10) 
{"1": {"label": "*1", "atom_type": "Cs"}, "2": {"label": "*0", "atom_type": "N3d"}, "7": {"label": "*2", "atom_type": "H0"}, "10": {"label": "*3", "atom_type": "Cs"}, "11": {"label": "*4", "atom_type": "Cs"}}

>  <type>  (10) 
unop_6

>  <geom_source>  (10) 
Heuristics

$$$$

     RDKit          3D

 26 24  0  0  0  0  0  0  0  0999 V2000
   -1.5369   -0.2853   -3.0056 C   0  0  0  0  0  0  0  0  0  0  0  0
   -1.5369   -0.2853   -1.4951 C   0  0  0  0  0  0  0  0  0  0  0  0
   -1.5369    1.0407   -0.8315 N   0  0  0  0  0  0  0  0  0  0  0  0
   -1.5369    1.9702   -1.5792 O   0  0  0  0  0  1  0  0  0  0  0  0
   -0.6567    0.2221   -3.4001 H   0  0  0  0  0  0  0  0  0  0  0  0
   -1.5369   -1.3124   -3.3709 H   0  0  0  0  0  0  0  0  0  0  0  0
   -2.4170    0.2221   -3.4001 H   0  0  0  0  0  0  0  0  0  0  0  0
   -0.4914   -0.8941   -0.9825 H   0  0  0  0  0  0  0  0  0  0  0  0
   -2.4081   -0.7926   -1.0679 H   0  0  0  0  0  0  0  0  0  0  0  0
    0.1055   -2.6747    0.3922 C   0  0  0  0  0  0  0  0  0  0  0  0
    0.5527   -1.5021   -0.4706 C   0  0  0  0  0  0  0  0  0  0  0  0
    0.4776   -0.1708    0.2487 C   0  0  0  0  0  0  0  0  0  0  0  0
    1.3613   -0.1813    1.3413 O   0  0  0  0  0  0  0  0  0  0  0  0
    1.3324    1.0062    2.0914 C   0  0  0  0  0  0  0  0  0  0  0  0
    2.3128    0.8883    3.2353 C   0  0  0  0  0  0  0  0  0  0  0  0
   -0.9294   -2.5456    0.7188 H   0  0  0  0  0  0  0  0  0  0  0  0
    0.1677   -3.6140   -0.1592 H   0  0  0  0  0  0  0  0  0  0  0  0
    0.7294   -2.7595    1.2818 H   0  0  0  0  0  0  0  0  0  0  0  0
    1.5804   -1.6561   -0.8095 H   0  0  0  0  0  0  0  0  0  0  0  0
   -0.5504    0.0116    0.5998 H   0  0  0  0  0  0  0  0  0  0  0  0
    0.7389    0.6484   -0.4372 H   0  0  0  0  0  0  0  0  0  0  0  0
    0.3160    1.1837    2.4729 H   0  0  0  0  0  0  0  0  0  0  0  0
    1.5912    1.8615    1.4498 H   0  0  0  0  0  0  0  0  0  0  0  0
    3.3229    0.7260    2.8575 H   0  0  0  0  0  0  0  0  0  0  0  0
    2.3082    1.8012    3.8328 H   0  0  0  0  0  0  0  0  0  0  0  0
    2.0480    0.0500    3.8807 H   0  0  0  0  0  0  0  0  0  0  0  0
  1  2  1  0
  1  5  1  0
  1  6  1  0
  1  7  1  0
  2  3  2  3
  2  9  1  0
  3  4  1  0
  8 11  1  0
 10 11  1  0
 10 16  1  0
 10 17  1  0
 10 18  1  0
 11 12  1  0
 11 19  1  0
 12 13  1  0
 12 20  1  0
 12 21  1  0
 13 14  1  0
 14 15  1  0
 14 22  1  0
 14 23  1  0
 15 24  1  0
 15 25  1  0
 15 26  1  0
M  RAD  1   4   2
M  END
>  <reaction>  (11) 
rmg_rxn_213

>  <mol_properties>  (11) 
{"1": {"label": "*1", "atom_type": "Cs"}, "2": {"label": "*0", "atom_type": "N3d"}, "7": {"label": "*2", "atom_type": "H0"}, "10": {"label": "*3", "atom_type": "Cs"}, "11": {"label": "*4", "atom_type": "Cs"}}

>  <type>  (11) 
unop_7

>  <geom_source>  (11) 
Heuristics

$$$$

     RDKit          3D

 26 24  0  0  0  0  0  0  0  0999 V2000
   -1.8890    1.2388   -2.5539 C   0  0  0  0  0  0  0  0  0  0  0  0
   -1.8890    1.2388   -1.0434 C   0  0  0  0  0  0  0  0  0  0  0  0
   -1.8890    2.5648   -0.3799 N   0  0  0  0  0  0  0  0  0  0  0  0
   -1.8890    3.4943   -1.1276 O   0  0  0  0  0  1  0  0  0  0  0  0
   -1.0089    1.7462   -2.9484 H   0  0  0  0  0  0  0  0  0  0  0  0
   -1.8890    0.2116   -2.9192 H   0  0  0  0  0  0  0  0  0  0  0  0
   -2.7692    1.7462   -2.9484 H   0  0  0  0  0  0  0  0  0  0  0  0
   -0.8436    0.6300   -0.5309 H   0  0  0  0  0  0  0  0  0  0  0  0
   -2.7602    0.7315   -0.6163 H   0  0  0  0  0  0  0  0  0  0  0  0
    1.3371    1.0148    0.1855 C   0  0  0  0  0  0  0  0  0  0  0  0
    0.2005    0.0220   -0.0189 C   0  0  0  0  0  0  0  0  0  0  0  0
    0.6683   -1.4184   -0.0602 C   0  0  0  0  0  0  0  0  0  0  0  0
    1.2358   -1.7595    1.1794 O   0  0  0  0  0  0  0  0  0  0  0  0
    1.7316   -3.0732    1.2214 C   0  0  0  0  0  0  0  0  0  0  0  0
    2.3169   -3.3335    2.5901 C   0  0  0  0  0  0  0  0  0  0  0  0
    2.0700    0.9397   -0.6216 H   0  0  0  0  0  0  0  0  0  0  0  0
    0.9642    2.0400    0.2046 H   0  0  0  0  0  0  0  0  0  0  0  0
    1.8535    0.8223    1.1259 H   0  0  0  0  0  0  0  0  0  0  0  0
   -0.5363    0.1249    0.7819 H   0  0  0  0  0  0  0  0  0  0  0  0
    1.4117   -1.5515   -0.8621 H   0  0  0  0  0  0  0  0  0  0  0  0
   -0.1760   -2.0872   -0.2829 H   0  0  0  0  0  0  0  0  0  0  0  0
    2.4972   -3.2099    0.4435 H   0  0  0  0  0  0  0  0  0  0  0  0
    0.9220   -3.7868    1.0075 H   0  0  0  0  0  0  0  0  0  0  0  0
    1.5551   -3.2118    3.3609 H   0  0  0  0  0  0  0  0  0  0  0  0
    2.7085   -4.3503    2.6467 H   0  0  0  0  0  0  0  0  0  0  0  0
    3.1299   -2.6367    2.7968 H   0  0  0  0  0  0  0  0  0  0  0  0
  1  2  1  0
  1  5  1  0
  1  6  1  0
  1  7  1  0
  2  3  2  3
  2  9  1  0
  3  4  1  0
  8 11  1  0
 10 11  1  0
 10 16  1  0
 10 17  1  0
 10 18  1  0
 11 12  1  0
 11 19  1  0
 12 13  1  0
 12 20  1  0
 12 21  1  0
 13 14  1  0
 14 15  1  0
 14 22  1  0
 14 23  1  0
 15 24  1  0
 15 25  1  0
 15 26  1  0
M  RAD  1   4   2
M  END
>  <reaction>  (12) 
rmg_rxn_213

>  <mol_properties>  (12) 
{"1": {"label": "*1", "atom_type": "Cs"}, "2": {"label": "*0", "atom_type": "N3d"}, "7": {"label": "*2", "atom_type": "H0"}, "10": {"label": "*3", "atom_type": "Cs"}, "11": {"label": "*4", "atom_type": "Cs"}}

>  <type>  (12) 
unop_8

>  <geom_source>  (12) 
Heuristics

$$$$

     RDKit          3D

 26 24  0  0  0  0  0  0  0  0999 V2000
   -1.2040    1.1362   -2.9501 C   0  0  0  0  0  0  0  0  0  0  0  0
   -1.2040    1.1362   -1.4396 C   0  0  0  0  0  0  0  0  0  0  0  0
   -1.2040    2.4622   -0.7760 N   0  0  0  0  0  0  0  0  0  0  0  0
   -1.2040    3.3917   -1.5237 O   0  0  0  0  0  1  0  0  0  0  0  0
   -0.3239    1.6436   -3.3446 H   0  0  0  0  0  0  0  0  0  0  0  0
   -1.2040    0.1091   -3.3153 H   0  0  0  0  0  0  0  0  0  0  0  0
   -2.0842    1.6436   -3.3446 H   0  0  0  0  0  0  0  0  0  0  0  0
   -0.1586    0.5274   -0.9270 H   0  0  0  0  0  0  0  0  0  0  0  0
   -2.0752    0.6289   -1.0124 H   0  0  0  0  0  0  0  0  0  0  0  0
    1.3602   -1.1843   -1.3508 C   0  0  0  0  0  0  0  0  0  0  0  0
    0.8855   -0.0806   -0.4151 C   0  0  0  0  0  0  0  0  0  0  0  0
    0.1042   -0.6025    0.7734 C   0  0  0  0  0  0  0  0  0  0  0  0
    0.9388   -1.4163    1.5584 O   0  0  0  0  0  0  0  0  0  0  0  0
    0.2852   -1.9755    2.6691 C   0  0  0  0  0  0  0  0  0  0  0  0
    1.2674   -2.8277    3.4388 C   0  0  0  0  0  0  0  0  0  0  0  0
    0.5132   -1.7493   -1.7481 H   0  0  0  0  0  0  0  0  0  0  0  0
    1.9132   -0.7718   -2.1959 H   0  0  0  0  0  0  0  0  0  0  0  0
    2.0115   -1.8825   -0.8252 H   0  0  0  0  0  0  0  0  0  0  0  0
    1.7405    0.4908   -0.0445 H   0  0  0  0  0  0  0  0  0  0  0  0
   -0.7669   -1.1816    0.4281 H   0  0  0  0  0  0  0  0  0  0  0  0
   -0.2778    0.2347    1.3759 H   0  0  0  0  0  0  0  0  0  0  0  0
   -0.5700   -2.5813    2.3348 H   0  0  0  0  0  0  0  0  0  0  0  0
   -0.1153   -1.1763    3.3103 H   0  0  0  0  0  0  0  0  0  0  0  0
    2.1089   -2.2251    3.7825 H   0  0  0  0  0  0  0  0  0  0  0  0
    0.7814   -3.2730    4.3083 H   0  0  0  0  0  0  0  0  0  0  0  0
    1.6533   -3.6298    2.8086 H   0  0  0  0  0  0  0  0  0  0  0  0
  1  2  1  0
  1  5  1  0
  1  6  1  0
  1  7  1  0
  2  3  2  3
  2  9  1  0
  3  4  1  0
  8 11  1  0
 10 11  1  0
 10 16  1  0
 10 17  1  0
 10 18  1  0
 11 12  1  0
 11 19  1  0
 12 13  1  0
 12 20  1  0
 12 21  1  0
 13 14  1  0
 14 15  1  0
 14 22  1  0
 14 23  1  0
 15 24  1  0
 15 25  1  0
 15 26  1  0
M  RAD  1   4   2
M  END
>  <reaction>  (13) 
rmg_rxn_213

>  <mol_properties>  (13) 
{"1": {"label": "*1", "atom_type": "Cs"}, "2": {"label": "*0", "atom_type": "N3d"}, "7": {"label": "*2", "atom_type": "H0"}, "10": {"label": "*3", "atom_type": "Cs"}, "11": {"label": "*4", "atom_type": "Cs"}}

>  <type>  (13) 
unop_9

>  <geom_source>  (13) 
Heuristics

$$$$

     RDKit          3D

 26 24  0  0  0  0  0  0  0  0999 V2000
   -1.8836    1.1997   -2.6192 C   0  0  0  0  0  0  0  0  0  0  0  0
   -1.8836    1.1997   -1.1087 C   0  0  0  0  0  0  0  0  0  0  0  0
   -1.8836    2.5257   -0.4451 N   0  0  0  0  0  0  0  0  0  0  0  0
   -1.8836    3.4553   -1.1928 O   0  0  0  0  0  1  0  0  0  0  0  0
   -1.0035    1.7071   -3.0137 H   0  0  0  0  0  0  0  0  0  0  0  0
   -1.8836    0.1726   -2.9845 H   0  0  0  0  0  0  0  0  0  0  0  0
   -2.7638    1.7071   -3.0137 H   0  0  0  0  0  0  0  0  0  0  0  0
   -0.8382    0.5910   -0.5961 H   0  0  0  0  0  0  0  0  0  0  0  0
   -2.7548    0.6924   -0.6815 H   0  0  0  0  0  0  0  0  0  0  0  0
    1.4871    0.6699   -0.5380 C   0  0  0  0  0  0  0  0  0  0  0  0
    0.2059   -0.0171   -0.0842 C   0  0  0  0  0  0  0  0  0  0  0  0
    0.3972   -1.4870    0.2290 C   0  0  0  0  0  0  0  0  0  0  0  0
    1.2882   -1.6213    1.3075 O   0  0  0  0  0  0  0  0  0  0  0  0
    1.5536   -2.9585    1.6463 C   0  0  0  0  0  0  0  0  0  0  0  0
    2.5175   -2.9881    2.8098 C   0  0  0  0  0  0  0  0  0  0  0  0
    1.8825    0.1992   -1.4416 H   0  0  0  0  0  0  0  0  0  0  0  0
    1.3105    1.7235   -0.7594 H   0  0  0  0  0  0  0  0  0  0  0  0
    2.2532    0.6076    0.2348 H   0  0  0  0  0  0  0  0  0  0  0  0
   -0.1908    0.4787    0.8056 H   0  0  0  0  0  0  0  0  0  0  0  0
    0.7949   -2.0128   -0.6534 H   0  0  0  0  0  0  0  0  0  0  0  0
   -0.5676   -1.9521    0.4794 H   0  0  0  0  0  0  0  0  0  0  0  0
    1.9795   -3.4870    0.7807 H   0  0  0  0  0  0  0  0  0  0  0  0
    0.6169   -3.4718    1.9100 H   0  0  0  0  0  0  0  0  0  0  0  0
    2.0905   -2.4763    3.6729 H   0  0  0  0  0  0  0  0  0  0  0  0
    2.7385   -4.0188    3.0916 H   0  0  0  0  0  0  0  0  0  0  0  0
    3.4523   -2.4932    2.5442 H   0  0  0  0  0  0  0  0  0  0  0  0
  1  2  1  0
  1  5  1  0
  1  6  1  0
  1  7  1  0
  2  3  2  3
  2  9  1  0
  3  4  1  0
  8 11  1  0
 10 11  1  0
 10 16  1  0
 10 17  1  0
 10 18  1  0
 11 12  1  0
 11 19  1  0
 12 13  1  0
 12 20  1  0
 12 21  1  0
 13 14  1  0
 14 15  1  0
 14 22  1  0
 14 23  1  0
 15 24  1  0
 15 25  1  0
 15 26  1  0
M  RAD  1   4   2
M  END
>  <reaction>  (14) 
rmg_rxn_213

>  <mol_properties>  (14) 
{"1": {"label": "*1", "atom_type": "Cs"}, "2": {"label": "*0", "atom_type": "N3d"}, "7": {"label": "*2", "atom_type": "H0"}, "10": {"label": "*3", "atom_type": "Cs"}, "11": {"label": "*4", "atom_type": "Cs"}}

>  <type>  (14) 
unop_10

>  <geom_source>  (14) 
Heuristics

$$$$

     RDKit          3D

 26 24  0  0  0  0  0  0  0  0999 V2000
   -2.0655   -0.3656   -2.5457 C   0  0  0  0  0  0  0  0  0  0  0  0
   -2.0655   -0.3656   -1.0352 C   0  0  0  0  0  0  0  0  0  0  0  0
   -2.0655    0.9604   -0.3716 N   0  0  0  0  0  0  0  0  0  0  0  0
   -2.0655    1.8900   -1.1193 O   0  0  0  0  0  1  0  0  0  0  0  0
   -1.1853    0.1418   -2.9402 H   0  0  0  0  0  0  0  0  0  0  0  0
   -2.0655   -1.3927   -2.9110 H   0  0  0  0  0  0  0  0  0  0  0  0
   -2.9456    0.1418   -2.9402 H   0  0  0  0  0  0  0  0  0  0  0  0
   -1.0200   -0.9743   -0.5226 H   0  0  0  0  0  0  0  0  0  0  0  0
   -2.9367   -0.8729   -0.6080 H   0  0  0  0  0  0  0  0  0  0  0  0
   -0.3362   -2.1999    1.3340 C   0  0  0  0  0  0  0  0  0  0  0  0
    0.0241   -1.5824   -0.0107 C   0  0  0  0  0  0  0  0  0  0  0  0
    0.5979   -0.1854    0.1102 C   0  0  0  0  0  0  0  0  0  0  0  0
    1.8062   -0.2386    0.8258 O   0  0  0  0  0  0  0  0  0  0  0  0
    2.3946    1.0225    1.0180 C   0  0  0  0  0  0  0  0  0  0  0  0
    3.6798    0.8514    1.7944 C   0  0  0  0  0  0  0  0  0  0  0  0
   -1.0806   -1.5924    1.8548 H   0  0  0  0  0  0  0  0  0  0  0  0
   -0.7505   -3.2013    1.2078 H   0  0  0  0  0  0  0  0  0  0  0  0
    0.5434   -2.2728    1.9735 H   0  0  0  0  0  0  0  0  0  0  0  0
    0.7506   -2.2123   -0.5303 H   0  0  0  0  0  0  0  0  0  0  0  0
   -0.1165    0.4730    0.6293 H   0  0  0  0  0  0  0  0  0  0  0  0
    0.7716    0.2430   -0.8879 H   0  0  0  0  0  0  0  0  0  0  0  0
    1.7013    1.6805    1.5624 H   0  0  0  0  0  0  0  0  0  0  0  0
    2.5934    1.4960    0.0451 H   0  0  0  0  0  0  0  0  0  0  0  0
    4.3732    0.2103    1.2490 H   0  0  0  0  0  0  0  0  0  0  0  0
    4.1559    1.8198    1.9556 H   0  0  0  0  0  0  0  0  0  0  0  0
    3.4818    0.3963    2.7655 H   0  0  0  0  0  0  0  0  0  0  0  0
  1  2  1  0
  1  5  1  0
  1  6  1  0
  1  7  1  0
  2  3  2  3
  2  9  1  0
  3  4  1  0
  8 11  1  0
 10 11  1  0
 10 16  1  0
 10 17  1  0
 10 18  1  0
 11 12  1  0
 11 19  1  0
 12 13  1  0
 12 20  1  0
 12 21  1  0
 13 14  1  0
 14 15  1  0
 14 22  1  0
 14 23  1  0
 15 24  1  0
 15 25  1  0
 15 26  1  0
M  RAD  1   4   2
M  END
>  <reaction>  (15) 
rmg_rxn_213

>  <mol_properties>  (15) 
{"1": {"label": "*1", "atom_type": "Cs"}, "2": {"label": "*0", "atom_type": "N3d"}, "7": {"label": "*2", "atom_type": "H0"}, "10": {"label": "*3", "atom_type": "Cs"}, "11": {"label": "*4", "atom_type": "Cs"}}

>  <type>  (15) 
unop_11

>  <geom_source>  (15) 
Heuristics

$$$$

     RDKit          3D

 26 24  0  0  0  0  0  0  0  0999 V2000
   -1.5240    1.3094   -2.7209 C   0  0  0  0  0  0  0  0  0  0  0  0
   -1.5240    1.3094   -1.2104 C   0  0  0  0  0  0  0  0  0  0  0  0
   -1.5240    2.6354   -0.5468 N   0  0  0  0  0  0  0  0  0  0  0  0
   -1.5240    3.5649   -1.2945 O   0  0  0  0  0  1  0  0  0  0  0  0
   -0.6439    1.8168   -3.1153 H   0  0  0  0  0  0  0  0  0  0  0  0
   -1.5240    0.2823   -3.0861 H   0  0  0  0  0  0  0  0  0  0  0  0
   -2.4042    1.8168   -3.1153 H   0  0  0  0  0  0  0  0  0  0  0  0
   -0.4786    0.7006   -0.6978 H   0  0  0  0  0  0  0  0  0  0  0  0
   -2.3952    0.8021   -0.7832 H   0  0  0  0  0  0  0  0  0  0  0  0
    1.4646   -0.4309   -1.2980 C   0  0  0  0  0  0  0  0  0  0  0  0
    0.5655    0.0926   -0.1858 C   0  0  0  0  0  0  0  0  0  0  0  0
    0.0629   -0.9987    0.7370 C   0  0  0  0  0  0  0  0  0  0  0  0
    1.1541   -1.5915    1.3948 O   0  0  0  0  0  0  0  0  0  0  0  0
    0.7839   -2.6434    2.2492 C   0  0  0  0  0  0  0  0  0  0  0  0
    2.0254   -3.2069    2.9007 C   0  0  0  0  0  0  0  0  0  0  0  0
    0.9333   -1.1559   -1.9197 H   0  0  0  0  0  0  0  0  0  0  0  0
    1.8024    0.3804   -1.9445 H   0  0  0  0  0  0  0  0  0  0  0  0
    2.3432   -0.9252   -0.8837 H   0  0  0  0  0  0  0  0  0  0  0  0
    1.1017    0.8337    0.4126 H   0  0  0  0  0  0  0  0  0  0  0  0
   -0.4849   -1.7598    0.1590 H   0  0  0  0  0  0  0  0  0  0  0  0
   -0.6381   -0.5813    1.4747 H   0  0  0  0  0  0  0  0  0  0  0  0
    0.2616   -3.4245    1.6772 H   0  0  0  0  0  0  0  0  0  0  0  0
    0.0815   -2.2772    3.0127 H   0  0  0  0  0  0  0  0  0  0  0  0
    2.5365   -2.4366    3.4793 H   0  0  0  0  0  0  0  0  0  0  0  0
    1.7619   -4.0268    3.5708 H   0  0  0  0  0  0  0  0  0  0  0  0
    2.7156   -3.5845    2.1454 H   0  0  0  0  0  0  0  0  0  0  0  0
  1  2  1  0
  1  5  1  0
  1  6  1  0
  1  7  1  0
  2  3  2  3
  2  9  1  0
  3  4  1  0
  8 11  1  0
 10 11  1  0
 10 16  1  0
 10 17  1  0
 10 18  1  0
 11 12  1  0
 11 19  1  0
 12 13  1  0
 12 20  1  0
 12 21  1  0
 13 14  1  0
 14 15  1  0
 14 22  1  0
 14 23  1  0
 15 24  1  0
 15 25  1  0
 15 26  1  0
M  RAD  1   4   2
M  END
>  <reaction>  (16) 
rmg_rxn_213

>  <mol_properties>  (16) 
{"1": {"label": "*1", "atom_type": "Cs"}, "2": {"label": "*0", "atom_type": "N3d"}, "7": {"label": "*2", "atom_type": "H0"}, "10": {"label": "*3", "atom_type": "Cs"}, "11": {"label": "*4", "atom_type": "Cs"}}

>  <type>  (16) 
unop_12

>  <geom_source>  (16) 
Heuristics

$$$$

     RDKit          3D

 26 24  0  0  0  0  0  0  0  0999 V2000
    2.0572   -0.2922    0.3457 O   0  0  0  0  0  0  0  0  0  0  0  0
   -3.9701   -0.1255   -2.1627 O   0  0  0  0  0  1  0  0  0  0  0  0
   -3.2894   -0.6335   -1.3236 N   0  0  0  0  0  0  0  0  0  0  0  0
   -0.2926   -0.4241    0.8482 C   0  0  0  0  0  0  0  0  0  0  0  0
    0.7817   -0.4659   -0.2379 C   0  0  0  0  0  0  0  0  0  0  0  0
    3.0534   -0.1993   -0.6552 C   0  0  0  0  0  0  0  0  0  0  0  0
   -0.1634   -1.5908    1.8241 C   0  0  0  0  0  0  0  0  0  0  0  0
    3.3781    1.2622   -0.9426 C   0  0  0  0  0  0  0  0  0  0  0  0
   -3.2695    1.0174    0.4764 C   0  0  0  0  0  0  0  0  0  0  0  0
   -2.4405    0.1697   -0.4788 C   0  0  0  0  0  0  0  0  0  0  0  0
   -0.2212    0.5349    1.4059 H   0  0  0  0  0  0  0  0  0  0  0  0
   -1.4561   -0.4796    0.2871 H   0  0  0  0  0  0  0  0  0  0  0  0
    0.7225   -1.4441   -0.7672 H   0  0  0  0  0  0  0  0  0  0  0  0
    0.5625    0.3506   -0.9624 H   0  0  0  0  0  0  0  0  0  0  0  0
    3.9728   -0.6882   -0.2696 H   0  0  0  0  0  0  0  0  0  0  0  0
    2.7907   -0.7248   -1.6043 H   0  0  0  0  0  0  0  0  0  0  0  0
   -0.9777   -1.5335    2.5762 H   0  0  0  0  0  0  0  0  0  0  0  0
    0.8120   -1.5498    2.3538 H   0  0  0  0  0  0  0  0  0  0  0  0
   -0.2487   -2.5566    1.2825 H   0  0  0  0  0  0  0  0  0  0  0  0
    2.4930    1.7779   -1.3699 H   0  0  0  0  0  0  0  0  0  0  0  0
    3.6813    1.7754   -0.0054 H   0  0  0  0  0  0  0  0  0  0  0  0
    4.2131    1.3235   -1.6721 H   0  0  0  0  0  0  0  0  0  0  0  0
   -3.9010    1.7332   -0.0915 H   0  0  0  0  0  0  0  0  0  0  0  0
   -2.5915    1.5872    1.1451 H   0  0  0  0  0  0  0  0  0  0  0  0
   -3.9179    0.3637    1.0970 H   0  0  0  0  0  0  0  0  0  0  0  0
   -1.7787    0.8124   -1.0989 H   0  0  0  0  0  0  0  0  0  0  0  0
  1  6  1  0
  1  5  1  0
  2  3  1  0
  3 10  2  3
  4  7  1  0
  4  5  1  0
  4 11  1  0
  4 12  1  0
  5 13  1  0
  5 14  1  0
  6  8  1  0
  6 15  1  0
  6 16  1  0
  7 17  1  0
  7 18  1  0
  7 19  1  0
  8 20  1  0
  8 21  1  0
  8 22  1  0
  9 10  1  0
  9 23  1  0
  9 24  1  0
  9 25  1  0
 10 26  1  0
M  RAD  1   2   2
M  END
>  <reaction>  (17) 
rmg_rxn_213

>  <mol_properties>  (17) 
{"1": {"label": "*1", "atom_type": "Cs"}, "2": {"label": "*0", "atom_type": "N3d"}, "7": {"label": "*2", "atom_type": "H0"}, "10": {"label": "*3", "atom_type": "Cs"}, "11": {"label": "*4", "atom_type": "Cs"}}

>  <type>  (17) 
unop_13

>  <geom_source>  (17) 
AutoTST

$$$$

     RDKit          3D

 26 24  0  0  0  0  0  0  0  0999 V2000
   -1.7924    1.2579   -2.6248 C   0  0  0  0  0  0  0  0  0  0  0  0
   -1.7924    1.2579   -1.1143 C   0  0  0  0  0  0  0  0  0  0  0  0
   -1.7924    2.5839   -0.4507 N   0  0  0  0  0  0  0  0  0  0  0  0
   -1.7924    3.5134   -1.1984 O   0  0  0  0  0  1  0  0  0  0  0  0
   -0.9123    1.7653   -3.0193 H   0  0  0  0  0  0  0  0  0  0  0  0
   -1.7924    0.2308   -2.9901 H   0  0  0  0  0  0  0  0  0  0  0  0
   -2.6725    1.7653   -3.0193 H   0  0  0  0  0  0  0  0  0  0  0  0
   -0.7470    0.6491   -0.6017 H   0  0  0  0  0  0  0  0  0  0  0  0
   -2.6636    0.7506   -0.6871 H   0  0  0  0  0  0  0  0  0  0  0  0
    1.4914    0.1730   -1.0255 C   0  0  0  0  0  0  0  0  0  0  0  0
    0.2972    0.0411   -0.0898 C   0  0  0  0  0  0  0  0  0  0  0  0
    0.1740   -1.3368    0.5279 C   0  0  0  0  0  0  0  0  0  0  0  0
    1.2995   -1.5897    1.3305 O   0  0  0  0  0  0  0  0  0  0  0  0
    1.2880   -2.8655    1.9185 C   0  0  0  0  0  0  0  0  0  0  0  0
    2.5360   -3.0322    2.7540 C   0  0  0  0  0  0  0  0  0  0  0  0
    1.4217   -0.5417   -1.8494 H   0  0  0  0  0  0  0  0  0  0  0  0
    1.5450    1.1745   -1.4550 H   0  0  0  0  0  0  0  0  0  0  0  0
    2.4225   -0.0199   -0.4927 H   0  0  0  0  0  0  0  0  0  0  0  0
    0.3680    0.7773    0.7151 H   0  0  0  0  0  0  0  0  0  0  0  0
    0.0983   -2.1000   -0.2627 H   0  0  0  0  0  0  0  0  0  0  0  0
   -0.7414   -1.4023    1.1342 H   0  0  0  0  0  0  0  0  0  0  0  0
    1.2426   -3.6380    1.1367 H   0  0  0  0  0  0  0  0  0  0  0  0
    0.3893   -2.9830    2.5421 H   0  0  0  0  0  0  0  0  0  0  0  0
    2.5749   -2.2753    3.5381 H   0  0  0  0  0  0  0  0  0  0  0  0
    2.5487   -4.0178    3.2222 H   0  0  0  0  0  0  0  0  0  0  0  0
    3.4274   -2.9314    2.1338 H   0  0  0  0  0  0  0  0  0  0  0  0
  1  2  1  0
  1  5  1  0
  1  6  1  0
  1  7  1  0
  2  3  2  3
  2  9  1  0
  3  4  1  0
  8 11  1  0
 10 11  1  0
 10 16  1  0
 10 17  1  0
 10 18  1  0
 11 12  1  0
 11 19  1  0
 12 13  1  0
 12 20  1  0
 12 21  1  0
 13 14  1  0
 14 15  1  0
 14 22  1  0
 14 23  1  0
 15 24  1  0
 15 25  1  0
 15 26  1  0
M  RAD  1   4   2
M  END
>  <reaction>  (18) 
rmg_rxn_213

>  <mol_properties>  (18) 
{"1": {"label": "*1", "atom_type": "Cs"}, "2": {"label": "*0", "atom_type": "N3d"}, "7": {"label": "*2", "atom_type": "H0"}, "10": {"label": "*3", "atom_type": "Cs"}, "11": {"label": "*4", "atom_type": "Cs"}}

>  <type>  (18) 
unop_14

>  <geom_source>  (18) 
gaussian_log

$$$$
