
     RDKit          3D

 10  9  0  0  0  0  0  0  0  0999 V2000
    1.9281   -0.2104    0.0000 C   0  0  0  0  0  0  0  0  0  0  0  0
    0.6881    0.1708    0.0000 C   0  0  0  0  0  0  0  0  0  0  0  0
   -0.5547    0.5538   -0.0000 C   0  0  0  0  0  0  0  0  0  0  0  0
   -1.7319   -0.3629    0.0000 C   0  0  0  0  0  0  0  0  0  0  0  0
    2.4558   -0.3741   -0.9324 H   0  0  0  0  0  0  0  0  0  0  0  0
    2.4558   -0.3741    0.9324 H   0  0  0  0  0  0  0  0  0  0  0  0
   -0.7657    1.6194   -0.0000 H   0  0  0  0  0  0  0  0  0  0  0  0
   -2.3467   -0.1819    0.8869 H   0  0  0  0  0  0  0  0  0  0  0  0
   -1.4304   -1.4153    0.0000 H   0  0  0  0  0  0  0  0  0  0  0  0
   -2.3467   -0.1819   -0.8869 H   0  0  0  0  0  0  0  0  0  0  0  0
  1  2  2  0
  1  5  1  0
  1  6  1  0
  2  3  2  0
  3  4  1  0
  3  7  1  0
  4  8  1  0
  4  9  1  0
  4 10  1  0
M  END
>  <reaction>  (1) 
rmg_rxn_16807

>  <mol_properties>  (1) 
{"2": {"label": "donator", "atom_type": "Cd"}, "6": {"label": "d_hydrogen", "atom_type": "H0"}}

>  <type>  (1) 
r1h

$$$$

     RDKit          3D

  7  6  0  0  0  0  0  0  0  0999 V2000
   -1.2010    0.1038   -0.0002 C   0  0  0  0  0  0  0  0  0  0  0  0
    0.1886   -0.4250   -0.0003 C   0  0  0  0  0  3  0  0  0  0  0  0
    1.3309    0.0272    0.0001 N   0  0  0  0  0  0  0  0  0  0  0  0
   -1.7355   -0.2512    0.8930 H   0  0  0  0  0  0  0  0  0  0  0  0
   -1.2181    1.2094   -0.0132 H   0  0  0  0  0  0  0  0  0  0  0  0
   -1.7468   -0.2736   -0.8772 H   0  0  0  0  0  0  0  0  0  0  0  0
    1.4589    1.0518   -0.0003 H   0  0  0  0  0  0  0  0  0  0  0  0
  1  2  1  0
  1  4  1  0
  1  5  1  0
  1  6  1  0
  2  3  2  3
  3  7  1  0
M  RAD  1   2   2
M  END
>  <reaction>  (2) 
rmg_rxn_16807

>  <mol_properties>  (2) 
{"1": {"label": "acceptor", "atom_type": "Cd"}}

>  <type>  (2) 
r2

$$$$

     RDKit          3D

  8  7  0  0  0  0  0  0  0  0999 V2000
    1.2099   -0.1388    0.0025 C   0  0  0  0  0  0  0  0  0  0  0  0
   -0.1788    0.4141    0.0007 C   0  0  0  0  0  0  0  0  0  0  0  0
   -1.2100   -0.3603    0.0013 N   0  0  0  0  0  0  0  0  0  0  0  0
    1.7355    0.2223   -0.8851 H   0  0  0  0  0  0  0  0  0  0  0  0
    1.7521    0.1663    0.9007 H   0  0  0  0  0  0  0  0  0  0  0  0
    1.1564   -1.2296   -0.0424 H   0  0  0  0  0  0  0  0  0  0  0  0
   -0.2911    1.5112   -0.0010 H   0  0  0  0  0  0  0  0  0  0  0  0
   -2.0699    0.2005   -0.0002 H   0  0  0  0  0  0  0  0  0  0  0  0
  1  2  1  0
  1  4  1  0
  1  5  1  0
  1  6  1  0
  2  3  2  3
  2  7  1  0
  3  8  1  0
M  END
>  <reaction>  (3) 
rmg_rxn_16807

>  <mol_properties>  (3) 
{"1": {"label": "acceptor", "atom_type": "Cd"}, "7": {"label": "a_hydrogen", "atom_type": "H0"}}

>  <type>  (3) 
r2h

$$$$

     RDKit          3D

 17 15  0  0  0  0  0  0  0  0999 V2000
   -2.5351    0.0174   -1.0251 C   0  0  0  0  0  0  0  0  0  0  0  0
   -1.5997   -0.5064    0.0164 C   0  0  0  0  0  3  0  0  0  0  0  0
   -1.9816   -0.6797    1.2360 N   0  0  0  0  0  0  0  0  0  0  0  0
   -2.6787   -0.7123   -1.8255 H   0  0  0  0  0  0  0  0  0  0  0  0
   -3.4962    0.2431   -0.5561 H   0  0  0  0  0  0  0  0  0  0  0  0
   -2.1224    0.9410   -1.4388 H   0  0  0  0  0  0  0  0  0  0  0  0
   -1.2039   -1.0439    1.7987 H   0  0  0  0  0  0  0  0  0  0  0  0
    2.8193   -1.2158   -0.2916 C   0  0  0  0  0  0  0  0  0  0  0  0
    1.8353   -0.3867   -0.1261 C   0  0  0  0  0  0  0  0  0  0  0  0
    0.8490    0.4445    0.0399 C   0  0  0  0  0  0  0  0  0  0  0  0
    0.9955    1.9149    0.2469 C   0  0  0  0  0  0  0  0  0  0  0  0
    3.2813   -1.7019    0.5597 H   0  0  0  0  0  0  0  0  0  0  0  0
    3.1970   -1.4339   -1.2837 H   0  0  0  0  0  0  0  0  0  0  0  0
   -0.3661   -0.0274    0.0282 H   0  0  0  0  0  0  0  0  0  0  0  0
    0.4745    2.4580   -0.5474 H   0  0  0  0  0  0  0  0  0  0  0  0
    2.0452    2.2254    0.2441 H   0  0  0  0  0  0  0  0  0  0  0  0
    0.5547    2.2030    1.2061 H   0  0  0  0  0  0  0  0  0  0  0  0
  1  2  1  0
  1  4  1  0
  1  5  1  0
  1  6  1  0
  2  3  2  3
  3  7  1  0
  8  9  2  0
  8 12  1  0
  8 13  1  0
  9 10  2  0
 10 11  1  0
 10 14  1  0
 11 15  1  0
 11 16  1  0
 11 17  1  0
M  RAD  1   2   2
M  END
>  <reaction>  (4) 
rmg_rxn_16807

>  <mol_properties>  (4) 
{"1": {"label": "*3", "atom_type": "Cd"}, "2": {"label": "*4", "atom_type": "N3d"}, "8": {"label": "*0", "atom_type": "Cdd"}, "9": {"label": "*1", "atom_type": "Cd"}, "13": {"label": "*2", "atom_type": "H0"}}

>  <type>  (4) 
ts

$$$$

     RDKit          3D

 17 15  0  0  0  0  0  0  0  0999 V2000
   -2.6004   -0.6073    0.0034 C   0  0  0  0  0  0  0  0  0  0  0  0
   -1.5074    0.3905   -0.0008 C   0  0  0  0  0  0  0  0  0  0  0  0
   -1.6835    1.6205   -0.0027 N   0  0  0  0  0  0  0  0  0  0  0  0
   -2.5082   -1.2402    0.8851 H   0  0  0  0  0  0  0  0  0  0  0  0
   -3.5756   -0.1226    0.0039 H   0  0  0  0  0  0  0  0  0  0  0  0
   -2.5112   -1.2446   -0.8753 H   0  0  0  0  0  0  0  0  0  0  0  0
   -0.8650    2.2207   -0.0052 H   0  0  0  0  0  0  0  0  0  0  0  0
    2.6264    1.2766    0.0021 C   0  0  0  0  0  0  0  0  0  0  0  0
    1.8388    0.2169    0.0006 C   0  0  0  0  0  0  0  0  0  0  0  0
    0.9191   -0.6507   -0.0010 C   0  0  0  0  0  3  0  0  0  0  0  0
    0.8087   -2.1265   -0.0018 C   0  0  0  0  0  0  0  0  0  0  0  0
    2.9928    1.7031   -0.9166 H   0  0  0  0  0  0  0  0  0  0  0  0
    2.9907    1.7020    0.9222 H   0  0  0  0  0  0  0  0  0  0  0  0
   -0.3085   -0.1369   -0.0014 H   0  0  0  0  0  0  0  0  0  0  0  0
    0.2677   -2.4676    0.8819 H   0  0  0  0  0  0  0  0  0  0  0  0
    1.7968   -2.5866   -0.0025 H   0  0  0  0  0  0  0  0  0  0  0  0
    0.2668   -2.4666   -0.8853 H   0  0  0  0  0  0  0  0  0  0  0  0
  1  2  1  0
  1  4  1  0
  1  5  1  0
  1  6  1  0
  2  3  2  3
  2 14  1  0
  3  7  1  0
  8  9  2  0
  8 12  1  0
  8 13  1  0
  9 10  2  0
 10 11  1  0
 11 15  1  0
 11 16  1  0
 11 17  1  0
M  RAD  1  10   2
M  END
>  <reaction>  (5) 
rmg_rxn_16807

>  <mol_properties>  (5) 
{"1": {"label": "*3", "atom_type": "Cd"}, "2": {"label": "*4", "atom_type": "N3d"}, "8": {"label": "*0", "atom_type": "Cdd"}, "9": {"label": "*1", "atom_type": "Cd"}, "13": {"label": "*2", "atom_type": "H0"}}

>  <type>  (5) 
unop_1

>  <geom_source>  (5) 
crest_best.xyz

$$$$

     RDKit          3D

 17 15  0  0  0  0  0  0  0  0999 V2000
   -1.1575    1.6926    1.8243 C   0  0  0  0  0  0  0  0  0  0  0  0
   -0.0095    1.3997    0.9129 C   0  0  0  0  0  3  0  0  0  0  0  0
    1.2030    1.6841    1.2474 N   0  0  0  0  0  0  0  0  0  0  0  0
   -1.6761    0.7740    2.1091 H   0  0  0  0  0  0  0  0  0  0  0  0
   -0.7798    2.1944    2.7188 H   0  0  0  0  0  0  0  0  0  0  0  0
   -1.8522    2.3642    1.3135 H   0  0  0  0  0  0  0  0  0  0  0  0
    1.8475    1.4102    0.4966 H   0  0  0  0  0  0  0  0  0  0  0  0
   -0.0067   -0.9127   -2.9314 C   0  0  0  0  0  0  0  0  0  0  0  0
   -0.0067   -0.9127   -1.6341 C   0  0  0  0  0  0  0  0  0  0  0  0
   -0.0067   -0.9127   -0.3336 C   0  0  0  0  0  0  0  0  0  0  0  0
   -0.0067   -2.1355    0.5214 C   0  0  0  0  0  0  0  0  0  0  0  0
   -0.9390   -0.9140   -3.4839 H   0  0  0  0  0  0  0  0  0  0  0  0
    0.9257   -0.9140   -3.4839 H   0  0  0  0  0  0  0  0  0  0  0  0
   -0.0081    0.2347    0.2849 H   0  0  0  0  0  0  0  0  0  0  0  0
    0.8802   -2.1435    1.1623 H   0  0  0  0  0  0  0  0  0  0  0  0
   -0.0067   -3.0525   -0.0767 H   0  0  0  0  0  0  0  0  0  0  0  0
   -0.8936   -2.1435    1.1623 H   0  0  0  0  0  0  0  0  0  0  0  0
  1  2  1  0
  1  4  1  0
  1  5  1  0
  1  6  1  0
  2  3  2  3
  3  7  1  0
  8  9  2  0
  8 12  1  0
  8 13  1  0
  9 10  2  0
 10 11  1  0
 10 14  1  0
 11 15  1  0
 11 16  1  0
 11 17  1  0
M  RAD  1   2   2
M  END
>  <reaction>  (6) 
rmg_rxn_16807

>  <mol_properties>  (6) 
{"1": {"label": "*3", "atom_type": "Cd"}, "2": {"label": "*4", "atom_type": "N3d"}, "8": {"label": "*0", "atom_type": "Cdd"}, "9": {"label": "*1", "atom_type": "Cd"}, "13": {"label": "*2", "atom_type": "H0"}}

>  <type>  (6) 
unop_2

>  <geom_source>  (6) 
Heuristics

$$$$

     RDKit          3D

 17 15  0  0  0  0  0  0  0  0999 V2000
   -0.6011    2.4585    0.3361 C   0  0  0  0  0  0  0  0  0  0  0  0
    0.0629    1.3061    1.0181 C   0  0  0  0  0  3  0  0  0  0  0  0
    0.3147    1.3284    2.2827 N   0  0  0  0  0  0  0  0  0  0  0  0
   -1.5586    2.1591   -0.0966 H   0  0  0  0  0  0  0  0  0  0  0  0
   -0.7603    3.2570    1.0652 H   0  0  0  0  0  0  0  0  0  0  0  0
    0.0584    2.8309   -0.4520 H   0  0  0  0  0  0  0  0  0  0  0  0
    0.7703    0.4529    2.5652 H   0  0  0  0  0  0  0  0  0  0  0  0
    0.0658   -1.0063   -2.8263 C   0  0  0  0  0  0  0  0  0  0  0  0
    0.0658   -1.0063   -1.5290 C   0  0  0  0  0  0  0  0  0  0  0  0
    0.0658   -1.0063   -0.2285 C   0  0  0  0  0  0  0  0  0  0  0  0
    0.0658   -2.2291    0.6266 C   0  0  0  0  0  0  0  0  0  0  0  0
   -0.8666   -1.0076   -3.3788 H   0  0  0  0  0  0  0  0  0  0  0  0
    0.9981   -1.0076   -3.3788 H   0  0  0  0  0  0  0  0  0  0  0  0
    0.0644    0.1411    0.3901 H   0  0  0  0  0  0  0  0  0  0  0  0
    0.9527   -2.2371    1.2674 H   0  0  0  0  0  0  0  0  0  0  0  0
    0.0658   -3.1461    0.0285 H   0  0  0  0  0  0  0  0  0  0  0  0
   -0.8211   -2.2372    1.2674 H   0  0  0  0  0  0  0  0  0  0  0  0
  1  2  1  0
  1  4  1  0
  1  5  1  0
  1  6  1  0
  2  3  2  3
  3  7  1  0
  8  9  2  0
  8 12  1  0
  8 13  1  0
  9 10  2  0
 10 11  1  0
 10 14  1  0
 11 15  1  0
 11 16  1  0
 11 17  1  0
M  RAD  1   2   2
M  END
>  <reaction>  (7) 
rmg_rxn_16807

>  <mol_properties>  (7) 
{"1": {"label": "*3", "atom_type": "Cd"}, "2": {"label": "*4", "atom_type": "N3d"}, "8": {"label": "*0", "atom_type": "Cdd"}, "9": {"label": "*1", "atom_type": "Cd"}, "13": {"label": "*2", "atom_type": "H0"}}

>  <type>  (7) 
unop_3

>  <geom_source>  (7) 
Heuristics

$$$$

     RDKit          3D

 17 15  0  0  0  0  0  0  0  0999 V2000
   -0.7194    1.4305    2.2787 C   0  0  0  0  0  0  0  0  0  0  0  0
   -0.0567    1.3672    0.9404 C   0  0  0  0  0  3  0  0  0  0  0  0
    0.9719    2.0947    0.6651 N   0  0  0  0  0  0  0  0  0  0  0  0
   -0.6727    0.4636    2.7853 H   0  0  0  0  0  0  0  0  0  0  0  0
   -0.2183    2.1887    2.8859 H   0  0  0  0  0  0  0  0  0  0  0  0
   -1.7632    1.7248    2.1430 H   0  0  0  0  0  0  0  0  0  0  0  0
    1.2833    1.9126   -0.2961 H   0  0  0  0  0  0  0  0  0  0  0  0
   -0.0539   -0.9452   -2.9040 C   0  0  0  0  0  0  0  0  0  0  0  0
   -0.0539   -0.9452   -1.6067 C   0  0  0  0  0  0  0  0  0  0  0  0
   -0.0539   -0.9452   -0.3062 C   0  0  0  0  0  0  0  0  0  0  0  0
   -0.0539   -2.1680    0.5489 C   0  0  0  0  0  0  0  0  0  0  0  0
   -0.9863   -0.9465   -3.4565 H   0  0  0  0  0  0  0  0  0  0  0  0
    0.8785   -0.9465   -3.4565 H   0  0  0  0  0  0  0  0  0  0  0  0
   -0.0553    0.2022    0.3124 H   0  0  0  0  0  0  0  0  0  0  0  0
    0.8330   -2.1761    1.1897 H   0  0  0  0  0  0  0  0  0  0  0  0
   -0.0539   -3.0850   -0.0492 H   0  0  0  0  0  0  0  0  0  0  0  0
   -0.9408   -2.1761    1.1897 H   0  0  0  0  0  0  0  0  0  0  0  0
  1  2  1  0
  1  4  1  0
  1  5  1  0
  1  6  1  0
  2  3  2  3
  3  7  1  0
  8  9  2  0
  8 12  1  0
  8 13  1  0
  9 10  2  0
 10 11  1  0
 10 14  1  0
 11 15  1  0
 11 16  1  0
 11 17  1  0
M  RAD  1   2   2
M  END
>  <reaction>  (8) 
rmg_rxn_16807

>  <mol_properties>  (8) 
{"1": {"label": "*3", "atom_type": "Cd"}, "2": {"label": "*4", "atom_type": "N3d"}, "8": {"label": "*0", "atom_type": "Cdd"}, "9": {"label": "*1", "atom_type": "Cd"}, "13": {"label": "*2", "atom_type": "H0"}}

>  <type>  (8) 
unop_4

>  <geom_source>  (8) 
Heuristics

$$$$

     RDKit          3D

 17 15  0  0  0  0  0  0  0  0999 V2000
    1.0585    2.2739    0.7153 C   0  0  0  0  0  0  0  0  0  0  0  0
   -0.0879    1.3493    0.9704 C   0  0  0  0  0  3  0  0  0  0  0  0
   -0.6901    1.3248    2.1105 N   0  0  0  0  0  0  0  0  0  0  0  0
    0.8253    2.9745   -0.0900 H   0  0  0  0  0  0  0  0  0  0  0  0
    1.2777    2.8269    1.6322 H   0  0  0  0  0  0  0  0  0  0  0  0
    1.9369    1.6821    0.4454 H   0  0  0  0  0  0  0  0  0  0  0  0
   -1.4459    0.6303    2.0932 H   0  0  0  0  0  0  0  0  0  0  0  0
   -0.0851   -0.9630   -2.8739 C   0  0  0  0  0  0  0  0  0  0  0  0
   -0.0851   -0.9630   -1.5766 C   0  0  0  0  0  0  0  0  0  0  0  0
   -0.0851   -0.9630   -0.2761 C   0  0  0  0  0  0  0  0  0  0  0  0
   -0.0850   -2.1859    0.5789 C   0  0  0  0  0  0  0  0  0  0  0  0
   -1.0174   -0.9643   -3.4264 H   0  0  0  0  0  0  0  0  0  0  0  0
    0.8473   -0.9643   -3.4264 H   0  0  0  0  0  0  0  0  0  0  0  0
   -0.0865    0.1844    0.3424 H   0  0  0  0  0  0  0  0  0  0  0  0
    0.8018   -2.1939    1.2198 H   0  0  0  0  0  0  0  0  0  0  0  0
   -0.0850   -3.1028   -0.0192 H   0  0  0  0  0  0  0  0  0  0  0  0
   -0.9719   -2.1939    1.2198 H   0  0  0  0  0  0  0  0  0  0  0  0
  1  2  1  0
  1  4  1  0
  1  5  1  0
  1  6  1  0
  2  3  2  3
  3  7  1  0
  8  9  2  0
  8 12  1  0
  8 13  1  0
  9 10  2  0
 10 11  1  0
 10 14  1  0
 11 15  1  0
 11 16  1  0
 11 17  1  0
M  RAD  1   2   2
M  END
>  <reaction>  (9) 
rmg_rxn_16807

>  <mol_properties>  (9) 
{"1": {"label": "*3", "atom_type": "Cd"}, "2": {"label": "*4", "atom_type": "N3d"}, "8": {"label": "*0", "atom_type": "Cdd"}, "9": {"label": "*1", "atom_type": "Cd"}, "13": {"label": "*2", "atom_type": "H0"}}

>  <type>  (9) 
unop_5

>  <geom_source>  (9) 
Heuristics

$$$$

     RDKit          3D

 17 15  0  0  0  0  0  0  0  0999 V2000
   -0.0010    1.3013    2.4693 C   0  0  0  0  0  0  0  0  0  0  0  0
   -0.0010    1.3214    0.9748 C   0  0  0  0  0  3  0  0  0  0  0  0
   -0.0024    2.4313    0.3180 N   0  0  0  0  0  0  0  0  0  0  0  0
    0.8980    0.8143    2.8547 H   0  0  0  0  0  0  0  0  0  0  0  0
   -0.0487    2.3295    2.8369 H   0  0  0  0  0  0  0  0  0  0  0  0
   -0.8877    0.7645    2.8159 H   0  0  0  0  0  0  0  0  0  0  0  0
   -0.0021    2.2418   -0.6910 H   0  0  0  0  0  0  0  0  0  0  0  0
    0.0018   -0.9910   -2.8696 C   0  0  0  0  0  0  0  0  0  0  0  0
    0.0018   -0.9910   -1.5723 C   0  0  0  0  0  0  0  0  0  0  0  0
    0.0018   -0.9910   -0.2718 C   0  0  0  0  0  0  0  0  0  0  0  0
    0.0018   -2.2138    0.5833 C   0  0  0  0  0  0  0  0  0  0  0  0
   -0.9305   -0.9923   -3.4221 H   0  0  0  0  0  0  0  0  0  0  0  0
    0.9342   -0.9923   -3.4221 H   0  0  0  0  0  0  0  0  0  0  0  0
    0.0004    0.1564    0.3468 H   0  0  0  0  0  0  0  0  0  0  0  0
    0.8887   -2.2218    1.2241 H   0  0  0  0  0  0  0  0  0  0  0  0
    0.0019   -3.1307   -0.0148 H   0  0  0  0  0  0  0  0  0  0  0  0
   -0.8850   -2.2218    1.2241 H   0  0  0  0  0  0  0  0  0  0  0  0
  1  2  1  0
  1  4  1  0
  1  5  1  0
  1  6  1  0
  2  3  2  3
  3  7  1  0
  8  9  2  0
  8 12  1  0
  8 13  1  0
  9 10  2  0
 10 11  1  0
 10 14  1  0
 11 15  1  0
 11 16  1  0
 11 17  1  0
M  RAD  1   2   2
M  END
>  <reaction>  (10) 
rmg_rxn_16807

>  <mol_properties>  (10) 
{"1": {"label": "*3", "atom_type": "Cd"}, "2": {"label": "*4", "atom_type": "N3d"}, "8": {"label": "*0", "atom_type": "Cdd"}, "9": {"label": "*1", "atom_type": "Cd"}, "13": {"label": "*2", "atom_type": "H0"}}

>  <type>  (10) 
unop_6

>  <geom_source>  (10) 
Heuristics

$$$$

     RDKit          3D

 17 15  0  0  0  0  0  0  0  0999 V2000
    1.2676    1.9988    1.2548 C   0  0  0  0  0  0  0  0  0  0  0  0
   -0.0567    1.3885    0.9266 C   0  0  0  0  0  3  0  0  0  0  0  0
   -1.0398    1.4287    1.7603 N   0  0  0  0  0  0  0  0  0  0  0  0
    1.5145    2.7997    0.5537 H   0  0  0  0  0  0  0  0  0  0  0  0
    1.2309    2.3981    2.2715 H   0  0  0  0  0  0  0  0  0  0  0  0
    2.0355    1.2222    1.2115 H   0  0  0  0  0  0  0  0  0  0  0  0
   -1.8600    0.9598    1.3584 H   0  0  0  0  0  0  0  0  0  0  0  0
   -0.0539   -0.9239   -2.9177 C   0  0  0  0  0  0  0  0  0  0  0  0
   -0.0539   -0.9239   -1.6204 C   0  0  0  0  0  0  0  0  0  0  0  0
   -0.0539   -0.9239   -0.3199 C   0  0  0  0  0  0  0  0  0  0  0  0
   -0.0539   -2.1467    0.5351 C   0  0  0  0  0  0  0  0  0  0  0  0
   -0.9862   -0.9252   -3.4702 H   0  0  0  0  0  0  0  0  0  0  0  0
    0.8785   -0.9252   -3.4702 H   0  0  0  0  0  0  0  0  0  0  0  0
   -0.0553    0.2235    0.2986 H   0  0  0  0  0  0  0  0  0  0  0  0
    0.8330   -2.1548    1.1760 H   0  0  0  0  0  0  0  0  0  0  0  0
   -0.0539   -3.0637   -0.0630 H   0  0  0  0  0  0  0  0  0  0  0  0
   -0.9408   -2.1548    1.1760 H   0  0  0  0  0  0  0  0  0  0  0  0
  1  2  1  0
  1  4  1  0
  1  5  1  0
  1  6  1  0
  2  3  2  3
  3  7  1  0
  8  9  2  0
  8 12  1  0
  8 13  1  0
  9 10  2  0
 10 11  1  0
 10 14  1  0
 11 15  1  0
 11 16  1  0
 11 17  1  0
M  RAD  1   2   2
M  END
>  <reaction>  (11) 
rmg_rxn_16807

>  <mol_properties>  (11) 
{"1": {"label": "*3", "atom_type": "Cd"}, "2": {"label": "*4", "atom_type": "N3d"}, "8": {"label": "*0", "atom_type": "Cdd"}, "9": {"label": "*1", "atom_type": "Cd"}, "13": {"label": "*2", "atom_type": "H0"}}

>  <type>  (11) 
unop_7

>  <geom_source>  (11) 
Heuristics

$$$$

     RDKit          3D

 17 15  0  0  0  0  0  0  0  0999 V2000
    1.1539    1.6961    1.8240 C   0  0  0  0  0  0  0  0  0  0  0  0
    0.0066    1.4004    0.9126 C   0  0  0  0  0  3  0  0  0  0  0  0
   -1.2066    1.6818    1.2470 N   0  0  0  0  0  0  0  0  0  0  0  0
    1.8468    2.4050    1.3644 H   0  0  0  0  0  0  0  0  0  0  0  0
    0.7661    2.1129    2.7570 H   0  0  0  0  0  0  0  0  0  0  0  0
    1.6769    0.7631    2.0484 H   0  0  0  0  0  0  0  0  0  0  0  0
   -1.8504    1.4063    0.4963 H   0  0  0  0  0  0  0  0  0  0  0  0
    0.0095   -0.9120   -2.9317 C   0  0  0  0  0  0  0  0  0  0  0  0
    0.0095   -0.9120   -1.6344 C   0  0  0  0  0  0  0  0  0  0  0  0
    0.0095   -0.9120   -0.3339 C   0  0  0  0  0  0  0  0  0  0  0  0
    0.0095   -2.1348    0.5211 C   0  0  0  0  0  0  0  0  0  0  0  0
   -0.9229   -0.9133   -3.4842 H   0  0  0  0  0  0  0  0  0  0  0  0
    0.9419   -0.9133   -3.4842 H   0  0  0  0  0  0  0  0  0  0  0  0
    0.0081    0.2354    0.2846 H   0  0  0  0  0  0  0  0  0  0  0  0
    0.8964   -2.1428    1.1620 H   0  0  0  0  0  0  0  0  0  0  0  0
    0.0095   -3.0518   -0.0770 H   0  0  0  0  0  0  0  0  0  0  0  0
   -0.8774   -2.1429    1.1620 H   0  0  0  0  0  0  0  0  0  0  0  0
  1  2  1  0
  1  4  1  0
  1  5  1  0
  1  6  1  0
  2  3  2  3
  3  7  1  0
  8  9  2  0
  8 12  1  0
  8 13  1  0
  9 10  2  0
 10 11  1  0
 10 14  1  0
 11 15  1  0
 11 16  1  0
 11 17  1  0
M  RAD  1   2   2
M  END
>  <reaction>  (12) 
rmg_rxn_16807

>  <mol_properties>  (12) 
{"1": {"label": "*3", "atom_type": "Cd"}, "2": {"label": "*4", "atom_type": "N3d"}, "8": {"label": "*0", "atom_type": "Cdd"}, "9": {"label": "*1", "atom_type": "Cd"}, "13": {"label": "*2", "atom_type": "H0"}}

>  <type>  (12) 
unop_8

>  <geom_source>  (12) 
Heuristics

$$$$

     RDKit          3D

 17 15  0  0  0  0  0  0  0  0999 V2000
   -1.2723    1.9951    1.2550 C   0  0  0  0  0  0  0  0  0  0  0  0
    0.0536    1.3880    0.9269 C   0  0  0  0  0  3  0  0  0  0  0  0
    1.0366    1.4307    1.7606 N   0  0  0  0  0  0  0  0  0  0  0  0
   -2.0584    1.2363    1.2674 H   0  0  0  0  0  0  0  0  0  0  0  0
   -1.2087    2.4751    2.2349 H   0  0  0  0  0  0  0  0  0  0  0  0
   -1.5075    2.7565    0.5071 H   0  0  0  0  0  0  0  0  0  0  0  0
    1.8579    0.9637    1.3587 H   0  0  0  0  0  0  0  0  0  0  0  0
    0.0564   -0.9244   -2.9174 C   0  0  0  0  0  0  0  0  0  0  0  0
    0.0564   -0.9244   -1.6201 C   0  0  0  0  0  0  0  0  0  0  0  0
    0.0564   -0.9244   -0.3196 C   0  0  0  0  0  0  0  0  0  0  0  0
    0.0564   -2.1472    0.5354 C   0  0  0  0  0  0  0  0  0  0  0  0
   -0.8759   -0.9257   -3.4699 H   0  0  0  0  0  0  0  0  0  0  0  0
    0.9888   -0.9257   -3.4699 H   0  0  0  0  0  0  0  0  0  0  0  0
    0.0550    0.2230    0.2989 H   0  0  0  0  0  0  0  0  0  0  0  0
    0.9433   -2.1553    1.1762 H   0  0  0  0  0  0  0  0  0  0  0  0
    0.0564   -3.0642   -0.0627 H   0  0  0  0  0  0  0  0  0  0  0  0
   -0.8305   -2.1553    1.1762 H   0  0  0  0  0  0  0  0  0  0  0  0
  1  2  1  0
  1  4  1  0
  1  5  1  0
  1  6  1  0
  2  3  2  3
  3  7  1  0
  8  9  2  0
  8 12  1  0
  8 13  1  0
  9 10  2  0
 10 11  1  0
 10 14  1  0
 11 15  1  0
 11 16  1  0
 11 17  1  0
M  RAD  1   2   2
M  END
>  <reaction>  (13) 
rmg_rxn_16807

>  <mol_properties>  (13) 
{"1": {"label": "*3", "atom_type": "Cd"}, "2": {"label": "*4", "atom_type": "N3d"}, "8": {"label": "*0", "atom_type": "Cdd"}, "9": {"label": "*1", "atom_type": "Cd"}, "13": {"label": "*2", "atom_type": "H0"}}

>  <type>  (13) 
unop_9

>  <geom_source>  (13) 
Heuristics

$$$$

     RDKit          3D

 17 15  0  0  0  0  0  0  0  0999 V2000
   -2.6004   -0.6073    0.0034 C   0  0  0  0  0  0  0  0  0  0  0  0
   -1.5074    0.3905   -0.0008 C   0  0  0  0  0  0  0  0  0  0  0  0
   -1.6835    1.6205   -0.0027 N   0  0  0  0  0  0  0  0  0  0  0  0
   -2.5082   -1.2402    0.8851 H   0  0  0  0  0  0  0  0  0  0  0  0
   -3.5756   -0.1226    0.0039 H   0  0  0  0  0  0  0  0  0  0  0  0
   -2.5112   -1.2446   -0.8753 H   0  0  0  0  0  0  0  0  0  0  0  0
   -0.8650    2.2207   -0.0052 H   0  0  0  0  0  0  0  0  0  0  0  0
    2.6264    1.2766    0.0021 C   0  0  0  0  0  0  0  0  0  0  0  0
    1.8388    0.2169    0.0006 C   0  0  0  0  0  0  0  0  0  0  0  0
    0.9191   -0.6507   -0.0010 C   0  0  0  0  0  3  0  0  0  0  0  0
    0.8087   -2.1265   -0.0018 C   0  0  0  0  0  0  0  0  0  0  0  0
    2.9928    1.7031   -0.9166 H   0  0  0  0  0  0  0  0  0  0  0  0
    2.9907    1.7020    0.9222 H   0  0  0  0  0  0  0  0  0  0  0  0
   -0.3085   -0.1369   -0.0014 H   0  0  0  0  0  0  0  0  0  0  0  0
    0.2677   -2.4676    0.8819 H   0  0  0  0  0  0  0  0  0  0  0  0
    1.7968   -2.5866   -0.0025 H   0  0  0  0  0  0  0  0  0  0  0  0
    0.2668   -2.4666   -0.8853 H   0  0  0  0  0  0  0  0  0  0  0  0
  1  2  1  0
  1  4  1  0
  1  5  1  0
  1  6  1  0
  2  3  2  3
  2 14  1  0
  3  7  1  0
  8  9  2  0
  8 12  1  0
  8 13  1  0
  9 10  2  0
 10 11  1  0
 11 15  1  0
 11 16  1  0
 11 17  1  0
M  RAD  1  10   2
M  END
>  <reaction>  (14) 
rmg_rxn_16807

>  <mol_properties>  (14) 
{"1": {"label": "*3", "atom_type": "Cd"}, "2": {"label": "*4", "atom_type": "N3d"}, "8": {"label": "*0", "atom_type": "Cdd"}, "9": {"label": "*1", "atom_type": "Cd"}, "13": {"label": "*2", "atom_type": "H0"}}

>  <type>  (14) 
unop_10

>  <geom_source>  (14) 
Heuristics

$$$$

     RDKit          3D

 17 15  0  0  0  0  0  0  0  0999 V2000
    0.5948    2.4603    0.3359 C   0  0  0  0  0  0  0  0  0  0  0  0
   -0.0663    1.3062    1.0179 C   0  0  0  0  0  3  0  0  0  0  0  0
   -0.3181    1.3280    2.2825 N   0  0  0  0  0  0  0  0  0  0  0  0
   -0.0565    2.8886   -0.4297 H   0  0  0  0  0  0  0  0  0  0  0  0
    0.8354    3.2216    1.0823 H   0  0  0  0  0  0  0  0  0  0  0  0
    1.5244    2.1145   -0.1232 H   0  0  0  0  0  0  0  0  0  0  0  0
   -0.7716    0.4513    2.5651 H   0  0  0  0  0  0  0  0  0  0  0  0
   -0.0635   -1.0062   -2.8264 C   0  0  0  0  0  0  0  0  0  0  0  0
   -0.0635   -1.0062   -1.5291 C   0  0  0  0  0  0  0  0  0  0  0  0
   -0.0635   -1.0062   -0.2286 C   0  0  0  0  0  0  0  0  0  0  0  0
   -0.0635   -2.2290    0.6264 C   0  0  0  0  0  0  0  0  0  0  0  0
   -0.9958   -1.0075   -3.3789 H   0  0  0  0  0  0  0  0  0  0  0  0
    0.8689   -1.0074   -3.3789 H   0  0  0  0  0  0  0  0  0  0  0  0
   -0.0649    0.1412    0.3899 H   0  0  0  0  0  0  0  0  0  0  0  0
    0.8234   -2.2370    1.2673 H   0  0  0  0  0  0  0  0  0  0  0  0
   -0.0635   -3.1459    0.0283 H   0  0  0  0  0  0  0  0  0  0  0  0
   -0.9504   -2.2370    1.2673 H   0  0  0  0  0  0  0  0  0  0  0  0
  1  2  1  0
  1  4  1  0
  1  5  1  0
  1  6  1  0
  2  3  2  3
  3  7  1  0
  8  9  2  0
  8 12  1  0
  8 13  1  0
  9 10  2  0
 10 11  1  0
 10 14  1  0
 11 15  1  0
 11 16  1  0
 11 17  1  0
M  RAD  1   2   2
M  END
>  <reaction>  (15) 
rmg_rxn_16807

>  <mol_properties>  (15) 
{"1": {"label": "*3", "atom_type": "Cd"}, "2": {"label": "*4", "atom_type": "N3d"}, "8": {"label": "*0", "atom_type": "Cdd"}, "9": {"label": "*1", "atom_type": "Cd"}, "13": {"label": "*2", "atom_type": "H0"}}

>  <type>  (15) 
unop_11

>  <geom_source>  (15) 
Heuristics

$$$$

     RDKit          3D

 17 15  0  0  0  0  0  0  0  0999 V2000
   -1.0641    2.2707    0.7156 C   0  0  0  0  0  0  0  0  0  0  0  0
    0.0846    1.3490    0.9706 C   0  0  0  0  0  3  0  0  0  0  0  0
    0.6868    1.3260    2.1108 N   0  0  0  0  0  0  0  0  0  0  0  0
   -1.9735    1.7097    0.4874 H   0  0  0  0  0  0  0  0  0  0  0  0
   -1.2256    2.8885    1.6026 H   0  0  0  0  0  0  0  0  0  0  0  0
   -0.8140    2.9236   -0.1245 H   0  0  0  0  0  0  0  0  0  0  0  0
    1.4444    0.6333    2.0934 H   0  0  0  0  0  0  0  0  0  0  0  0
    0.0875   -0.9633   -2.8737 C   0  0  0  0  0  0  0  0  0  0  0  0
    0.0875   -0.9633   -1.5764 C   0  0  0  0  0  0  0  0  0  0  0  0
    0.0875   -0.9633   -0.2759 C   0  0  0  0  0  0  0  0  0  0  0  0
    0.0875   -2.1862    0.5791 C   0  0  0  0  0  0  0  0  0  0  0  0
   -0.8449   -0.9647   -3.4262 H   0  0  0  0  0  0  0  0  0  0  0  0
    1.0198   -0.9646   -3.4262 H   0  0  0  0  0  0  0  0  0  0  0  0
    0.0860    0.1841    0.3426 H   0  0  0  0  0  0  0  0  0  0  0  0
    0.9743   -2.1942    1.2200 H   0  0  0  0  0  0  0  0  0  0  0  0
    0.0875   -3.1031   -0.0189 H   0  0  0  0  0  0  0  0  0  0  0  0
   -0.7994   -2.1942    1.2200 H   0  0  0  0  0  0  0  0  0  0  0  0
  1  2  1  0
  1  4  1  0
  1  5  1  0
  1  6  1  0
  2  3  2  3
  3  7  1  0
  8  9  2  0
  8 12  1  0
  8 13  1  0
  9 10  2  0
 10 11  1  0
 10 14  1  0
 11 15  1  0
 11 16  1  0
 11 17  1  0
M  RAD  1   2   2
M  END
>  <reaction>  (16) 
rmg_rxn_16807

>  <mol_properties>  (16) 
{"1": {"label": "*3", "atom_type": "Cd"}, "2": {"label": "*4", "atom_type": "N3d"}, "8": {"label": "*0", "atom_type": "Cdd"}, "9": {"label": "*1", "atom_type": "Cd"}, "13": {"label": "*2", "atom_type": "H0"}}

>  <type>  (16) 
unop_12

>  <geom_source>  (16) 
Heuristics

$$$$

     RDKit          3D

 17 15  0  0  0  0  0  0  0  0999 V2000
    0.7168    1.4328    2.2784 C   0  0  0  0  0  0  0  0  0  0  0  0
    0.0543    1.3678    0.9401 C   0  0  0  0  0  3  0  0  0  0  0  0
   -0.9761    2.0928    0.6649 N   0  0  0  0  0  0  0  0  0  0  0  0
    1.7514    1.7723    2.1875 H   0  0  0  0  0  0  0  0  0  0  0  0
    0.1580    2.1221    2.9166 H   0  0  0  0  0  0  0  0  0  0  0  0
    0.6942    0.4391    2.7329 H   0  0  0  0  0  0  0  0  0  0  0  0
   -1.2871    1.9100   -0.2963 H   0  0  0  0  0  0  0  0  0  0  0  0
    0.0572   -0.9445   -2.9042 C   0  0  0  0  0  0  0  0  0  0  0  0
    0.0572   -0.9445   -1.6069 C   0  0  0  0  0  0  0  0  0  0  0  0
    0.0572   -0.9445   -0.3064 C   0  0  0  0  0  0  0  0  0  0  0  0
    0.0572   -2.1674    0.5486 C   0  0  0  0  0  0  0  0  0  0  0  0
   -0.8752   -0.9458   -3.4567 H   0  0  0  0  0  0  0  0  0  0  0  0
    0.9895   -0.9458   -3.4567 H   0  0  0  0  0  0  0  0  0  0  0  0
    0.0558    0.2029    0.3121 H   0  0  0  0  0  0  0  0  0  0  0  0
    0.9441   -2.1754    1.1895 H   0  0  0  0  0  0  0  0  0  0  0  0
    0.0572   -3.0843   -0.0495 H   0  0  0  0  0  0  0  0  0  0  0  0
   -0.8297   -2.1754    1.1895 H   0  0  0  0  0  0  0  0  0  0  0  0
  1  2  1  0
  1  4  1  0
  1  5  1  0
  1  6  1  0
  2  3  2  3
  3  7  1  0
  8  9  2  0
  8 12  1  0
  8 13  1  0
  9 10  2  0
 10 11  1  0
 10 14  1  0
 11 15  1  0
 11 16  1  0
 11 17  1  0
M  RAD  1   2   2
M  END
>  <reaction>  (17) 
rmg_rxn_16807

>  <mol_properties>  (17) 
{"1": {"label": "*3", "atom_type": "Cd"}, "2": {"label": "*4", "atom_type": "N3d"}, "8": {"label": "*0", "atom_type": "Cdd"}, "9": {"label": "*1", "atom_type": "Cd"}, "13": {"label": "*2", "atom_type": "H0"}}

>  <type>  (17) 
unop_13

>  <geom_source>  (17) 
Heuristics

$$$$

     RDKit          3D

 17 15  0  0  0  0  0  0  0  0999 V2000
   -0.0032    2.5244    0.2005 C   0  0  0  0  0  0  0  0  0  0  0  0
   -0.0017    1.2869    1.0388 C   0  0  0  0  0  3  0  0  0  0  0  0
   -0.0018    1.3483    2.3269 N   0  0  0  0  0  0  0  0  0  0  0  0
   -0.9016    2.5769   -0.4191 H   0  0  0  0  0  0  0  0  0  0  0  0
    0.0422    3.3967    0.8575 H   0  0  0  0  0  0  0  0  0  0  0  0
    0.8841    2.5205   -0.4376 H   0  0  0  0  0  0  0  0  0  0  0  0
   -0.0006    0.4013    2.7233 H   0  0  0  0  0  0  0  0  0  0  0  0
    0.0011   -1.0255   -2.8056 C   0  0  0  0  0  0  0  0  0  0  0  0
    0.0011   -1.0255   -1.5083 C   0  0  0  0  0  0  0  0  0  0  0  0
    0.0011   -1.0255   -0.2078 C   0  0  0  0  0  0  0  0  0  0  0  0
    0.0011   -2.2483    0.6473 C   0  0  0  0  0  0  0  0  0  0  0  0
   -0.9312   -1.0268   -3.3581 H   0  0  0  0  0  0  0  0  0  0  0  0
    0.9335   -1.0268   -3.3581 H   0  0  0  0  0  0  0  0  0  0  0  0
   -0.0003    0.1219    0.4108 H   0  0  0  0  0  0  0  0  0  0  0  0
    0.8880   -2.2563    1.2881 H   0  0  0  0  0  0  0  0  0  0  0  0
    0.0011   -3.1652    0.0492 H   0  0  0  0  0  0  0  0  0  0  0  0
   -0.8857   -2.2563    1.2881 H   0  0  0  0  0  0  0  0  0  0  0  0
  1  2  1  0
  1  4  1  0
  1  5  1  0
  1  6  1  0
  2  3  2  3
  3  7  1  0
  8  9  2  0
  8 12  1  0
  8 13  1  0
  9 10  2  0
 10 11  1  0
 10 14  1  0
 11 15  1  0
 11 16  1  0
 11 17  1  0
M  RAD  1   2   2
M  END
>  <reaction>  (18) 
rmg_rxn_16807

>  <mol_properties>  (18) 
{"1": {"label": "*3", "atom_type": "Cd"}, "2": {"label": "*4", "atom_type": "N3d"}, "8": {"label": "*0", "atom_type": "Cdd"}, "9": {"label": "*1", "atom_type": "Cd"}, "13": {"label": "*2", "atom_type": "H0"}}

>  <type>  (18) 
unop_14

>  <geom_source>  (18) 
Heuristics

$$$$

     RDKit          3D

 17 15  0  0  0  0  0  0  0  0999 V2000
    2.1023   -1.2121   -0.3527 N   0  0  0  0  0  0  0  0  0  0  0  0
    2.1997    1.1357    0.2003 C   0  0  0  0  0  0  0  0  0  0  0  0
   -1.3013   -1.7426    0.0899 C   0  0  0  0  0  0  0  0  0  0  0  0
    1.5360   -0.2031    0.1998 C   0  0  0  0  0  0  0  0  0  0  0  0
   -2.1474    1.7229   -0.4400 C   0  0  0  0  0  0  0  0  0  0  0  0
   -0.9928   -0.3740    0.5937 C   0  0  0  0  0  3  0  0  0  0  0  0
   -1.5704    0.6756    0.0766 C   0  0  0  0  0  0  0  0  0  0  0  0
    2.3570    1.4661    1.2477 H   0  0  0  0  0  0  0  0  0  0  0  0
    1.5468    1.8683   -0.3173 H   0  0  0  0  0  0  0  0  0  0  0  0
    3.1816    1.0946   -0.3185 H   0  0  0  0  0  0  0  0  0  0  0  0
   -1.0376   -1.8215   -0.9862 H   0  0  0  0  0  0  0  0  0  0  0  0
   -2.3812   -1.9644    0.2247 H   0  0  0  0  0  0  0  0  0  0  0  0
   -0.7066   -2.4838    0.6623 H   0  0  0  0  0  0  0  0  0  0  0  0
    0.3478   -0.3442    0.7787 H   0  0  0  0  0  0  0  0  0  0  0  0
   -2.8598    1.6053   -1.2451 H   0  0  0  0  0  0  0  0  0  0  0  0
   -1.9141    2.7095   -0.0639 H   0  0  0  0  0  0  0  0  0  0  0  0
    1.6401   -2.1323   -0.3499 H   0  0  0  0  0  0  0  0  0  0  0  0
  1  4  2  3
  1 17  1  0
  2  4  1  0
  2  8  1  0
  2  9  1  0
  2 10  1  0
  3  6  1  0
  3 11  1  0
  3 12  1  0
  3 13  1  0
  4 14  1  0
  5  7  2  0
  5 15  1  0
  5 16  1  0
  6  7  2  0
M  RAD  1   6   2
M  END
>  <reaction>  (19) 
rmg_rxn_16807

>  <mol_properties>  (19) 
{"1": {"label": "*3", "atom_type": "Cd"}, "2": {"label": "*4", "atom_type": "N3d"}, "8": {"label": "*0", "atom_type": "Cdd"}, "9": {"label": "*1", "atom_type": "Cd"}, "13": {"label": "*2", "atom_type": "H0"}}

>  <type>  (19) 
unop_15

>  <geom_source>  (19) 
AutoTST

$$$$

     RDKit          3D

 17 15  0  0  0  0  0  0  0  0999 V2000
   -0.6011    2.4585    0.3361 C   0  0  0  0  0  0  0  0  0  0  0  0
    0.0629    1.3061    1.0181 C   0  0  0  0  0  3  0  0  0  0  0  0
    0.3147    1.3284    2.2827 N   0  0  0  0  0  0  0  0  0  0  0  0
   -1.5587    2.1591   -0.0966 H   0  0  0  0  0  0  0  0  0  0  0  0
   -0.7603    3.2570    1.0652 H   0  0  0  0  0  0  0  0  0  0  0  0
    0.0584    2.8309   -0.4520 H   0  0  0  0  0  0  0  0  0  0  0  0
    0.7703    0.4529    2.5652 H   0  0  0  0  0  0  0  0  0  0  0  0
    0.0658   -1.0063   -2.8263 C   0  0  0  0  0  0  0  0  0  0  0  0
    0.0658   -1.0063   -1.5290 C   0  0  0  0  0  0  0  0  0  0  0  0
    0.0658   -1.0063   -0.2285 C   0  0  0  0  0  0  0  0  0  0  0  0
    0.0658   -2.2291    0.6266 C   0  0  0  0  0  0  0  0  0  0  0  0
   -0.8666   -1.0076   -3.3788 H   0  0  0  0  0  0  0  0  0  0  0  0
    0.9981   -1.0076   -3.3788 H   0  0  0  0  0  0  0  0  0  0  0  0
    0.0644    0.1411    0.3901 H   0  0  0  0  0  0  0  0  0  0  0  0
    0.9527   -2.2372    1.2674 H   0  0  0  0  0  0  0  0  0  0  0  0
    0.0658   -3.1461    0.0285 H   0  0  0  0  0  0  0  0  0  0  0  0
   -0.8211   -2.2372    1.2674 H   0  0  0  0  0  0  0  0  0  0  0  0
  1  2  1  0
  1  4  1  0
  1  5  1  0
  1  6  1  0
  2  3  2  3
  3  7  1  0
  8  9  2  0
  8 12  1  0
  8 13  1  0
  9 10  2  0
 10 11  1  0
 10 14  1  0
 11 15  1  0
 11 16  1  0
 11 17  1  0
M  RAD  1   2   2
M  END
>  <reaction>  (20) 
rmg_rxn_16807

>  <mol_properties>  (20) 
{"1": {"label": "*3", "atom_type": "Cd"}, "2": {"label": "*4", "atom_type": "N3d"}, "8": {"label": "*0", "atom_type": "Cdd"}, "9": {"label": "*1", "atom_type": "Cd"}, "13": {"label": "*2", "atom_type": "H0"}}

>  <type>  (20) 
unop_16

>  <geom_source>  (20) 
gaussian_log

$$$$
