
     RDKit          3D

 13 12  0  0  0  0  0  0  0  0999 V2000
   -1.8029   -0.2987    1.0940 C   0  0  0  0  0  0  0  0  0  0  0  0
   -0.9419    0.5805    0.2019 C   0  0  0  0  0  0  0  0  0  0  0  0
    0.3779   -0.0155   -0.1765 C   0  0  0  0  0  0  0  0  0  0  0  0
    0.7319   -1.1672    0.2072 N   0  0  0  0  0  0  0  0  0  0  0  0
    1.9284   -1.6649   -0.2437 N   0  0  0  0  0  0  0  0  0  0  0  0
   -1.2933   -0.5224    2.0314 H   0  0  0  0  0  0  0  0  0  0  0  0
   -2.0225   -1.2499    0.6092 H   0  0  0  0  0  0  0  0  0  0  0  0
   -2.7454    0.2007    1.3226 H   0  0  0  0  0  0  0  0  0  0  0  0
   -1.4810    0.8240   -0.7207 H   0  0  0  0  0  0  0  0  0  0  0  0
   -0.7543    1.5445    0.6880 H   0  0  0  0  0  0  0  0  0  0  0  0
    1.0313    0.5912   -0.8170 H   0  0  0  0  0  0  0  0  0  0  0  0
    2.2863   -2.3390    0.4129 H   0  0  0  0  0  0  0  0  0  0  0  0
    2.6214   -0.9567   -0.4648 H   0  0  0  0  0  0  0  0  0  0  0  0
  1  2  1  0
  1  6  1  0
  1  7  1  0
  1  8  1  0
  2  3  1  0
  2  9  1  0
  2 10  1  0
  3  4  2  3
  3 11  1  0
  4  5  1  0
  5 12  1  0
  5 13  1  0
M  END
>  <reaction>  (1) 
rmg_rxn_15703

>  <mol_properties>  (1) 
{"1": {"label": "donator", "atom_type": "Cs"}, "8": {"label": "d_hydrogen", "atom_type": "H0"}}

>  <type>  (1) 
r1h

$$$$

     RDKit          3D

  8  7  0  0  0  0  0  0  0  0999 V2000
    1.7077   -0.1964   -0.0607 C   0  0  0  0  0  3  0  0  0  0  0  0
    0.4209   -0.4565    0.2808 O   0  0  0  0  0  0  0  0  0  0  0  0
   -0.4607    0.4385   -0.2968 N   0  0  0  0  0  0  0  0  0  0  0  0
   -1.6584    0.1416   -0.0244 C   0  0  0  0  0  0  0  0  0  0  0  0
    2.4163   -0.7685    0.5170 H   0  0  0  0  0  0  0  0  0  0  0  0
    1.9214    0.7645   -0.5045 H   0  0  0  0  0  0  0  0  0  0  0  0
   -2.4185    0.7953   -0.4307 H   0  0  0  0  0  0  0  0  0  0  0  0
   -1.9286   -0.7185    0.5831 H   0  0  0  0  0  0  0  0  0  0  0  0
  1  2  1  0
  1  5  1  0
  1  6  1  0
  2  3  1  0
  3  4  2  3
  4  7  1  0
  4  8  1  0
M  RAD  1   1   2
M  END
>  <reaction>  (2) 
rmg_rxn_15703

>  <mol_properties>  (2) 
{"0": {"label": "acceptor", "atom_type": "Cs"}}

>  <type>  (2) 
r2

$$$$

     RDKit          3D

  9  8  0  0  0  0  0  0  0  0999 V2000
   -1.5470   -0.0755   -0.1976 C   0  0  0  0  0  0  0  0  0  0  0  0
   -0.2885    0.4507    0.1749 O   0  0  0  0  0  0  0  0  0  0  0  0
   -0.1502    1.7216   -0.3294 N   0  0  0  0  0  0  0  0  0  0  0  0
    0.9626    2.2353   -0.0219 C   0  0  0  0  0  0  0  0  0  0  0  0
   -1.6392   -0.1356   -1.2844 H   0  0  0  0  0  0  0  0  0  0  0  0
   -2.3597    0.5337    0.2044 H   0  0  0  0  0  0  0  0  0  0  0  0
   -1.5879   -1.0750    0.2318 H   0  0  0  0  0  0  0  0  0  0  0  0
    1.1497    3.2381   -0.3820 H   0  0  0  0  0  0  0  0  0  0  0  0
    1.7060    1.7101    0.5739 H   0  0  0  0  0  0  0  0  0  0  0  0
  1  2  1  0
  1  5  1  0
  1  6  1  0
  1  7  1  0
  2  3  1  0
  3  4  2  3
  4  8  1  0
  4  9  1  0
M  END
>  <reaction>  (3) 
rmg_rxn_15703

>  <mol_properties>  (3) 
{"0": {"label": "acceptor", "atom_type": "Cs"}, "8": {"label": "a_hydrogen", "atom_type": "H0"}}

>  <type>  (3) 
r2h

$$$$

     RDKit          3D

 21 19  0  0  0  0  0  0  0  0999 V2000
   -0.6406   -2.1126   -0.4676 C   0  0  0  0  0  3  0  0  0  0  0  0
   -1.4258   -1.2416    0.2524 O   0  0  0  0  0  0  0  0  0  0  0  0
   -0.9073   -1.0443    1.5243 N   0  0  0  0  0  0  0  0  0  0  0  0
   -1.4269   -0.0349    2.0780 C   0  0  0  0  0  0  0  0  0  0  0  0
   -0.2027   -2.9106    0.1293 H   0  0  0  0  0  0  0  0  0  0  0  0
   -1.1750   -2.4205   -1.3611 H   0  0  0  0  0  0  0  0  0  0  0  0
   -1.0999    0.1831    3.0856 H   0  0  0  0  0  0  0  0  0  0  0  0
   -2.1544    0.6006    1.5818 H   0  0  0  0  0  0  0  0  0  0  0  0
    0.7226    0.0908   -2.6042 C   0  0  0  0  0  0  0  0  0  0  0  0
    1.2759   -0.3789   -1.2813 C   0  0  0  0  0  0  0  0  0  0  0  0
    1.2576    0.5636   -0.1691 C   0  0  0  0  0  0  0  0  0  0  0  0
    0.5438    1.6213   -0.1859 N   0  0  0  0  0  0  0  0  0  0  0  0
    0.4608    2.3426    0.9807 N   0  0  0  0  0  0  0  0  0  0  0  0
    1.3185    0.9086   -3.0167 H   0  0  0  0  0  0  0  0  0  0  0  0
   -0.2956    0.4616   -2.4825 H   0  0  0  0  0  0  0  0  0  0  0  0
    0.7133   -0.7248   -3.3289 H   0  0  0  0  0  0  0  0  0  0  0  0
    0.4612   -1.3215   -0.9088 H   0  0  0  0  0  0  0  0  0  0  0  0
    2.2213   -0.9169   -1.3546 H   0  0  0  0  0  0  0  0  0  0  0  0
    1.8188    0.2855    0.7308 H   0  0  0  0  0  0  0  0  0  0  0  0
    0.2709    3.3097    0.7712 H   0  0  0  0  0  0  0  0  0  0  0  0
    1.2699    2.2503    1.5886 H   0  0  0  0  0  0  0  0  0  0  0  0
  1  2  1  0
  1  5  1  0
  1  6  1  0
  2  3  1  0
  3  4  2  3
  4  7  1  0
  4  8  1  0
  9 10  1  0
  9 14  1  0
  9 15  1  0
  9 16  1  0
 10 11  1  0
 10 17  1  0
 10 18  1  0
 11 12  2  3
 11 19  1  0
 12 13  1  0
 13 20  1  0
 13 21  1  0
M  RAD  1   1   2
M  END
>  <reaction>  (4) 
rmg_rxn_15703

>  <mol_properties>  (4) 
{"0": {"label": "*3", "atom_type": "Cs"}, "1": {"label": "*4", "atom_type": "O2s"}, "9": {"label": "*1", "atom_type": "Cs"}, "10": {"label": "*0", "atom_type": "Cd"}, "16": {"label": "*2", "atom_type": "H0"}}

>  <type>  (4) 
ts

$$$$

     RDKit          3D

 21 19  0  0  0  0  0  0  0  0999 V2000
    1.7560   -1.2368   -0.2031 C   0  0  0  0  0  0  0  0  0  0  0  0
    2.0814    0.0445   -0.6622 O   0  0  0  0  0  0  0  0  0  0  0  0
    1.7941    1.1444    0.0692 N   0  0  0  0  0  0  0  0  0  0  0  0
    1.1844    1.0932    1.1721 C   0  0  0  0  0  0  0  0  0  0  0  0
    2.2333   -1.9279   -0.8908 H   0  0  0  0  0  0  0  0  0  0  0  0
    2.0583   -1.4175    0.8296 H   0  0  0  0  0  0  0  0  0  0  0  0
    1.0315    2.0394    1.6613 H   0  0  0  0  0  0  0  0  0  0  0  0
    0.7999    0.2061    1.6648 H   0  0  0  0  0  0  0  0  0  0  0  0
   -1.2918   -2.0718    0.8929 C   0  0  0  0  0  0  0  0  0  0  0  0
   -0.8737   -1.5008   -0.4365 C   0  0  0  0  0  3  0  0  0  0  0  0
   -1.2808   -0.1826   -0.7703 C   0  0  0  0  0  0  0  0  0  0  0  0
   -1.5624    0.6880    0.1445 N   0  0  0  0  0  0  0  0  0  0  0  0
   -1.9416    1.9204   -0.2262 N   0  0  0  0  0  0  0  0  0  0  0  0
   -1.2439   -1.3032    1.6588 H   0  0  0  0  0  0  0  0  0  0  0  0
   -0.6627   -2.9144    1.1749 H   0  0  0  0  0  0  0  0  0  0  0  0
   -2.3226   -2.4234    0.8380 H   0  0  0  0  0  0  0  0  0  0  0  0
    0.4900   -1.3953   -0.2936 H   0  0  0  0  0  0  0  0  0  0  0  0
   -0.8963   -2.2081   -1.2605 H   0  0  0  0  0  0  0  0  0  0  0  0
   -1.2323    0.1157   -1.8251 H   0  0  0  0  0  0  0  0  0  0  0  0
   -1.7902    2.6096    0.4947 H   0  0  0  0  0  0  0  0  0  0  0  0
   -1.7145    2.2214   -1.1742 H   0  0  0  0  0  0  0  0  0  0  0  0
  1  2  1  0
  1  5  1  0
  1  6  1  0
  1 17  1  0
  2  3  1  0
  3  4  2  3
  4  7  1  0
  4  8  1  0
  9 10  1  0
  9 14  1  0
  9 15  1  0
  9 16  1  0
 10 11  1  0
 10 18  1  0
 11 12  2  3
 11 19  1  0
 12 13  1  0
 13 20  1  0
 13 21  1  0
M  RAD  1  10   2
M  END
>  <reaction>  (5) 
rmg_rxn_15703

>  <mol_properties>  (5) 
{"0": {"label": "*3", "atom_type": "Cs"}, "1": {"label": "*4", "atom_type": "O2s"}, "9": {"label": "*1", "atom_type": "Cs"}, "10": {"label": "*0", "atom_type": "Cd"}, "16": {"label": "*2", "atom_type": "H0"}}

>  <type>  (5) 
unop_1

>  <geom_source>  (5) 
crest_best.xyz

$$$$

     RDKit          3D

 21 19  0  0  0  0  0  0  0  0999 V2000
   -1.1934   -1.0564   -0.0448 C   0  0  0  0  0  0  0  0  0  0  0  0
   -0.6743   -2.1221    0.7261 O   0  0  0  0  0  0  0  0  0  0  0  0
   -1.4672   -2.3242    1.8302 N   0  0  0  0  0  0  0  0  0  0  0  0
   -1.0422   -3.2699    2.5526 C   0  0  0  0  0  0  0  0  0  0  0  0
   -2.2027   -1.2833   -0.3954 H   0  0  0  0  0  0  0  0  0  0  0  0
   -1.2071   -0.1282    0.5310 H   0  0  0  0  0  0  0  0  0  0  0  0
   -1.6128   -3.4931    3.4442 H   0  0  0  0  0  0  0  0  0  0  0  0
   -0.1498   -3.8408    2.3054 H   0  0  0  0  0  0  0  0  0  0  0  0
    0.8926    0.2506   -2.4664 C   0  0  0  0  0  0  0  0  0  0  0  0
    0.8926    0.2506   -0.9464 C   0  0  0  0  0  3  0  0  0  0  0  0
    0.8926    1.6106   -0.3214 C   0  0  0  0  0  0  0  0  0  0  0  0
    0.8767    2.6696   -1.0123 N   0  0  0  0  0  0  0  0  0  0  0  0
    0.8070    3.8735   -0.3578 N   0  0  0  0  0  0  0  0  0  0  0  0
    1.7725    0.7621   -2.8573 H   0  0  0  0  0  0  0  0  0  0  0  0
    0.0164    0.7685   -2.8564 H   0  0  0  0  0  0  0  0  0  0  0  0
    0.8892   -0.7722   -2.8455 H   0  0  0  0  0  0  0  0  0  0  0  0
   -0.1539   -0.4051   -0.4941 H   0  0  0  0  0  0  0  0  0  0  0  0
    1.7617   -0.2990   -0.5678 H   0  0  0  0  0  0  0  0  0  0  0  0
    0.8971    1.6529    0.7756 H   0  0  0  0  0  0  0  0  0  0  0  0
    1.2105    4.5967   -0.9303 H   0  0  0  0  0  0  0  0  0  0  0  0
    1.2095    3.8689    0.5743 H   0  0  0  0  0  0  0  0  0  0  0  0
  1  2  1  0
  1  5  1  0
  1  6  1  0
  1 17  1  0
  2  3  1  0
  3  4  2  3
  4  7  1  0
  4  8  1  0
  9 10  1  0
  9 14  1  0
  9 15  1  0
  9 16  1  0
 10 11  1  0
 10 18  1  0
 11 12  2  3
 11 19  1  0
 12 13  1  0
 13 20  1  0
 13 21  1  0
M  RAD  1  10   2
M  END
>  <reaction>  (6) 
rmg_rxn_15703

>  <mol_properties>  (6) 
{"0": {"label": "*3", "atom_type": "Cs"}, "1": {"label": "*4", "atom_type": "O2s"}, "9": {"label": "*1", "atom_type": "Cs"}, "10": {"label": "*0", "atom_type": "Cd"}, "16": {"label": "*2", "atom_type": "H0"}}

>  <type>  (6) 
unop_2

>  <geom_source>  (6) 
Heuristics

$$$$

     RDKit          3D

 21 19  0  0  0  0  0  0  0  0999 V2000
   -0.8159   -2.0209    0.0008 C   0  0  0  0  0  0  0  0  0  0  0  0
   -1.5519   -0.9654   -0.5441 O   0  0  0  0  0  0  0  0  0  0  0  0
   -1.9057   -0.0373    0.4108 N   0  0  0  0  0  0  0  0  0  0  0  0
   -2.5116    0.9855   -0.0107 C   0  0  0  0  0  0  0  0  0  0  0  0
   -1.2694   -2.4256    0.9047 H   0  0  0  0  0  0  0  0  0  0  0  0
   -0.7016   -2.7614   -0.7835 H   0  0  0  0  0  0  0  0  0  0  0  0
   -2.8085    1.7077    0.7295 H   0  0  0  0  0  0  0  0  0  0  0  0
   -2.7516    1.1699   -1.0539 H   0  0  0  0  0  0  0  0  0  0  0  0
    2.4099   -1.3319   -0.4885 C   0  0  0  0  0  0  0  0  0  0  0  0
    1.4996   -0.8999    0.6297 C   0  0  0  0  0  3  0  0  0  0  0  0
    1.1138    0.4649    0.6982 C   0  0  0  0  0  0  0  0  0  0  0  0
    1.1644    1.2378   -0.3363 N   0  0  0  0  0  0  0  0  0  0  0  0
    0.7863    2.5217   -0.2045 N   0  0  0  0  0  0  0  0  0  0  0  0
    2.0825   -0.8819   -1.4208 H   0  0  0  0  0  0  0  0  0  0  0  0
    2.4212   -2.4155   -0.5873 H   0  0  0  0  0  0  0  0  0  0  0  0
    3.4289   -0.9962   -0.2930 H   0  0  0  0  0  0  0  0  0  0  0  0
    0.3300   -1.5496    0.3199 H   0  0  0  0  0  0  0  0  0  0  0  0
    1.6964   -1.3681    1.5901 H   0  0  0  0  0  0  0  0  0  0  0  0
    0.6695    0.8216    1.6366 H   0  0  0  0  0  0  0  0  0  0  0  0
    0.5014    2.9323   -1.0812 H   0  0  0  0  0  0  0  0  0  0  0  0
    0.2036    2.7602    0.5990 H   0  0  0  0  0  0  0  0  0  0  0  0
  1  2  1  0
  1  5  1  0
  1  6  1  0
  1 17  1  0
  2  3  1  0
  3  4  2  3
  4  7  1  0
  4  8  1  0
  9 10  1  0
  9 14  1  0
  9 15  1  0
  9 16  1  0
 10 11  1  0
 10 18  1  0
 11 12  2  3
 11 19  1  0
 12 13  1  0
 13 20  1  0
 13 21  1  0
M  RAD  1  10   2
M  END
>  <reaction>  (7) 
rmg_rxn_15703

>  <mol_properties>  (7) 
{"0": {"label": "*3", "atom_type": "Cs"}, "1": {"label": "*4", "atom_type": "O2s"}, "9": {"label": "*1", "atom_type": "Cs"}, "10": {"label": "*0", "atom_type": "Cd"}, "16": {"label": "*2", "atom_type": "H0"}}

>  <type>  (7) 
unop_3

>  <geom_source>  (7) 
Heuristics

$$$$

     RDKit          3D

 21 19  0  0  0  0  0  0  0  0999 V2000
    0.8097    2.0225   -0.0085 C   0  0  0  0  0  0  0  0  0  0  0  0
    1.5484    0.9659   -0.5476 O   0  0  0  0  0  0  0  0  0  0  0  0
    1.9057    0.0447    0.4127 N   0  0  0  0  0  0  0  0  0  0  0  0
    2.5149   -0.9785   -0.0028 C   0  0  0  0  0  0  0  0  0  0  0  0
    1.2633    2.4349    0.8919 H   0  0  0  0  0  0  0  0  0  0  0  0
    0.6914    2.7572   -0.7976 H   0  0  0  0  0  0  0  0  0  0  0  0
    2.8143   -1.6953    0.7418 H   0  0  0  0  0  0  0  0  0  0  0  0
    2.7555   -1.1685   -1.0448 H   0  0  0  0  0  0  0  0  0  0  0  0
   -2.4182    1.3255   -0.4802 C   0  0  0  0  0  0  0  0  0  0  0  0
   -1.4998    0.8957    0.6321 C   0  0  0  0  0  3  0  0  0  0  0  0
   -1.1090   -0.4678    0.6974 C   0  0  0  0  0  0  0  0  0  0  0  0
   -1.1619   -1.2399   -0.3375 N   0  0  0  0  0  0  0  0  0  0  0  0
   -0.7784   -2.5226   -0.2090 N   0  0  0  0  0  0  0  0  0  0  0  0
   -2.4308    2.4089   -0.5808 H   0  0  0  0  0  0  0  0  0  0  0  0
   -3.4357    0.9899   -0.2767 H   0  0  0  0  0  0  0  0  0  0  0  0
   -2.0973    0.8741   -1.4142 H   0  0  0  0  0  0  0  0  0  0  0  0
   -0.3339    1.5489    0.3158 H   0  0  0  0  0  0  0  0  0  0  0  0
   -1.6923    1.3626    1.5940 H   0  0  0  0  0  0  0  0  0  0  0  0
   -0.6585   -0.8238    1.6332 H   0  0  0  0  0  0  0  0  0  0  0  0
   -0.4965   -2.9311   -1.0876 H   0  0  0  0  0  0  0  0  0  0  0  0
   -0.1907   -2.7597    0.5913 H   0  0  0  0  0  0  0  0  0  0  0  0
  1  2  1  0
  1  5  1  0
  1  6  1  0
  1 17  1  0
  2  3  1  0
  3  4  2  3
  4  7  1  0
  4  8  1  0
  9 10  1  0
  9 14  1  0
  9 15  1  0
  9 16  1  0
 10 11  1  0
 10 18  1  0
 11 12  2  3
 11 19  1  0
 12 13  1  0
 13 20  1  0
 13 21  1  0
M  RAD  1  10   2
M  END
>  <reaction>  (8) 
rmg_rxn_15703

>  <mol_properties>  (8) 
{"0": {"label": "*3", "atom_type": "Cs"}, "1": {"label": "*4", "atom_type": "O2s"}, "9": {"label": "*1", "atom_type": "Cs"}, "10": {"label": "*0", "atom_type": "Cd"}, "16": {"label": "*2", "atom_type": "H0"}}

>  <type>  (8) 
unop_4

>  <geom_source>  (8) 
Heuristics

$$$$

     RDKit          3D

 21 19  0  0  0  0  0  0  0  0999 V2000
   -1.2367   -1.6480   -0.4186 C   0  0  0  0  0  0  0  0  0  0  0  0
   -2.4332   -1.1052    0.0955 O   0  0  0  0  0  0  0  0  0  0  0  0
   -2.4268    0.2690    0.0583 N   0  0  0  0  0  0  0  0  0  0  0  0
   -3.4687    0.8500    0.4618 C   0  0  0  0  0  0  0  0  0  0  0  0
   -0.3470   -1.1269   -0.1213 H   0  0  0  0  0  0  0  0  0  0  0  0
   -1.2336   -2.7002   -0.1664 H   0  0  0  0  0  0  0  0  0  0  0  0
   -3.4656    1.9259    0.4384 H   0  0  0  0  0  0  0  0  0  0  0  0
   -4.3521    0.3345    0.8244 H   0  0  0  0  0  0  0  0  0  0  0  0
    3.1835   -1.3959    0.1826 C   0  0  0  0  0  0  0  0  0  0  0  0
    3.3300    0.0773    0.3074 C   0  0  0  0  0  3  0  0  0  0  0  0
    2.3154    0.9649    0.0961 C   0  0  0  0  0  0  0  0  0  0  0  0
    1.0874    0.5899   -0.2237 N   0  0  0  0  0  0  0  0  0  0  0  0
    0.1923    1.5438   -0.4922 N   0  0  0  0  0  0  0  0  0  0  0  0
    3.9099   -1.7923   -0.5286 H   0  0  0  0  0  0  0  0  0  0  0  0
    2.1810   -1.6440   -0.1514 H   0  0  0  0  0  0  0  0  0  0  0  0
    3.3727   -1.8825    1.1415 H   0  0  0  0  0  0  0  0  0  0  0  0
   -1.1035   -1.4715   -1.4938 H   0  0  0  0  0  0  0  0  0  0  0  0
    4.3012    0.4574    0.5865 H   0  0  0  0  0  0  0  0  0  0  0  0
    2.5263    2.0369    0.2044 H   0  0  0  0  0  0  0  0  0  0  0  0
   -0.7729    1.2369   -0.3917 H   0  0  0  0  0  0  0  0  0  0  0  0
    0.4107    2.5023   -0.2192 H   0  0  0  0  0  0  0  0  0  0  0  0
  1  2  1  0
  1  5  1  0
  1  6  1  0
  1 17  1  0
  2  3  1  0
  3  4  2  3
  4  7  1  0
  4  8  1  0
  9 10  1  0
  9 14  1  0
  9 15  1  0
  9 16  1  0
 10 11  1  0
 10 18  1  0
 11 12  2  3
 11 19  1  0
 12 13  1  0
 13 20  1  0
 13 21  1  0
M  RAD  1  10   2
M  END
>  <reaction>  (9) 
rmg_rxn_15703

>  <mol_properties>  (9) 
{"0": {"label": "*3", "atom_type": "Cs"}, "1": {"label": "*4", "atom_type": "O2s"}, "9": {"label": "*1", "atom_type": "Cs"}, "10": {"label": "*0", "atom_type": "Cd"}, "16": {"label": "*2", "atom_type": "H0"}}

>  <type>  (9) 
unop_5

>  <geom_source>  (9) 
Heuristics

$$$$

     RDKit          3D

 21 19  0  0  0  0  0  0  0  0999 V2000
   -0.8455   -0.9159    0.8356 C   0  0  0  0  0  0  0  0  0  0  0  0
   -1.1327   -1.8990   -0.1394 O   0  0  0  0  0  0  0  0  0  0  0  0
   -1.9219   -2.8803    0.4110 N   0  0  0  0  0  0  0  0  0  0  0  0
   -2.2062   -3.7844   -0.4248 C   0  0  0  0  0  0  0  0  0  0  0  0
   -1.7621   -0.4440    1.1966 H   0  0  0  0  0  0  0  0  0  0  0  0
   -0.3015   -1.3486    1.6783 H   0  0  0  0  0  0  0  0  0  0  0  0
   -2.8263   -4.5962   -0.0687 H   0  0  0  0  0  0  0  0  0  0  0  0
   -1.8538   -3.7633   -1.4538 H   0  0  0  0  0  0  0  0  0  0  0  0
    1.2405    0.3911   -1.5859 C   0  0  0  0  0  0  0  0  0  0  0  0
    1.2405    0.3911   -0.0660 C   0  0  0  0  0  3  0  0  0  0  0  0
    1.2405    1.7511    0.5590 C   0  0  0  0  0  0  0  0  0  0  0  0
    1.2246    2.8101   -0.1319 N   0  0  0  0  0  0  0  0  0  0  0  0
    1.1549    4.0140    0.5227 N   0  0  0  0  0  0  0  0  0  0  0  0
    2.1204    0.9025   -1.9768 H   0  0  0  0  0  0  0  0  0  0  0  0
    0.3643    0.9090   -1.9760 H   0  0  0  0  0  0  0  0  0  0  0  0
    1.2372   -0.6317   -1.9651 H   0  0  0  0  0  0  0  0  0  0  0  0
    0.1940   -0.2646    0.3863 H   0  0  0  0  0  0  0  0  0  0  0  0
    2.1096   -0.1586    0.3126 H   0  0  0  0  0  0  0  0  0  0  0  0
    1.2451    1.7934    1.6560 H   0  0  0  0  0  0  0  0  0  0  0  0
    1.5584    4.7372   -0.0499 H   0  0  0  0  0  0  0  0  0  0  0  0
    1.5574    4.0094    1.4547 H   0  0  0  0  0  0  0  0  0  0  0  0
  1  2  1  0
  1  5  1  0
  1  6  1  0
  1 17  1  0
  2  3  1  0
  3  4  2  3
  4  7  1  0
  4  8  1  0
  9 10  1  0
  9 14  1  0
  9 15  1  0
  9 16  1  0
 10 11  1  0
 10 18  1  0
 11 12  2  3
 11 19  1  0
 12 13  1  0
 13 20  1  0
 13 21  1  0
M  RAD  1  10   2
M  END
>  <reaction>  (10) 
rmg_rxn_15703

>  <mol_properties>  (10) 
{"0": {"label": "*3", "atom_type": "Cs"}, "1": {"label": "*4", "atom_type": "O2s"}, "9": {"label": "*1", "atom_type": "Cs"}, "10": {"label": "*0", "atom_type": "Cd"}, "16": {"label": "*2", "atom_type": "H0"}}

>  <type>  (10) 
unop_6

>  <geom_source>  (10) 
Heuristics

$$$$

     RDKit          3D

 21 19  0  0  0  0  0  0  0  0999 V2000
    1.0299    0.8949    0.0039 C   0  0  0  0  0  0  0  0  0  0  0  0
    2.1142    0.0144   -0.1279 O   0  0  0  0  0  0  0  0  0  0  0  0
    3.3233    0.6232    0.1872 N   0  0  0  0  0  0  0  0  0  0  0  0
    4.3446   -0.1022    0.0923 C   0  0  0  0  0  0  0  0  0  0  0  0
    0.8967    1.2392    1.0297 H   0  0  0  0  0  0  0  0  0  0  0  0
    1.0910    1.7338   -0.6905 H   0  0  0  0  0  0  0  0  0  0  0  0
    5.2869    0.3584    0.3335 H   0  0  0  0  0  0  0  0  0  0  0  0
    4.3328   -1.1455   -0.2130 H   0  0  0  0  0  0  0  0  0  0  0  0
   -0.7389   -1.7673    0.4375 C   0  0  0  0  0  0  0  0  0  0  0  0
   -0.9437   -0.7446   -0.6449 C   0  0  0  0  0  3  0  0  0  0  0  0
   -2.1468   -0.0059   -0.6744 C   0  0  0  0  0  0  0  0  0  0  0  0
   -2.9193    0.0885    0.3630 N   0  0  0  0  0  0  0  0  0  0  0  0
   -3.9746    0.9149    0.3118 N   0  0  0  0  0  0  0  0  0  0  0  0
    0.3189   -1.9916    0.5552 H   0  0  0  0  0  0  0  0  0  0  0  0
   -1.2576   -2.6925    0.1842 H   0  0  0  0  0  0  0  0  0  0  0  0
   -1.1428   -1.3958    1.3742 H   0  0  0  0  0  0  0  0  0  0  0  0
    0.0384    0.1768   -0.3087 H   0  0  0  0  0  0  0  0  0  0  0  0
   -0.5426   -1.0169   -1.6165 H   0  0  0  0  0  0  0  0  0  0  0  0
   -2.3820    0.5561   -1.5888 H   0  0  0  0  0  0  0  0  0  0  0  0
   -4.7067    0.6611    0.9577 H   0  0  0  0  0  0  0  0  0  0  0  0
   -4.2850    1.2417   -0.6040 H   0  0  0  0  0  0  0  0  0  0  0  0
  1  2  1  0
  1  5  1  0
  1  6  1  0
  1 17  1  0
  2  3  1  0
  3  4  2  3
  4  7  1  0
  4  8  1  0
  9 10  1  0
  9 14  1  0
  9 15  1  0
  9 16  1  0
 10 11  1  0
 10 18  1  0
 11 12  2  3
 11 19  1  0
 12 13  1  0
 13 20  1  0
 13 21  1  0
M  RAD  1  10   2
M  END
>  <reaction>  (11) 
rmg_rxn_15703

>  <mol_properties>  (11) 
{"0": {"label": "*3", "atom_type": "Cs"}, "1": {"label": "*4", "atom_type": "O2s"}, "9": {"label": "*1", "atom_type": "Cs"}, "10": {"label": "*0", "atom_type": "Cd"}, "16": {"label": "*2", "atom_type": "H0"}}

>  <type>  (11) 
unop_7

>  <geom_source>  (11) 
Heuristics

$$$$

     RDKit          3D

 21 19  0  0  0  0  0  0  0  0999 V2000
   -1.0721   -1.2819   -0.1786 C   0  0  0  0  0  0  0  0  0  0  0  0
   -0.6723   -1.8345    1.0601 O   0  0  0  0  0  0  0  0  0  0  0  0
   -1.7734   -2.0207    1.8612 N   0  0  0  0  0  0  0  0  0  0  0  0
   -1.4657   -2.5143    2.9830 C   0  0  0  0  0  0  0  0  0  0  0  0
   -1.7569   -1.9524   -0.7026 H   0  0  0  0  0  0  0  0  0  0  0  0
   -1.5501   -0.3100   -0.0367 H   0  0  0  0  0  0  0  0  0  0  0  0
   -2.2789   -2.6920    3.6739 H   0  0  0  0  0  0  0  0  0  0  0  0
   -0.4404   -2.7542    3.2564 H   0  0  0  0  0  0  0  0  0  0  0  0
    1.0139    0.0250   -2.6002 C   0  0  0  0  0  0  0  0  0  0  0  0
    1.0139    0.0250   -1.0802 C   0  0  0  0  0  3  0  0  0  0  0  0
    1.0139    1.3851   -0.4552 C   0  0  0  0  0  0  0  0  0  0  0  0
    0.9980    2.4441   -1.1461 N   0  0  0  0  0  0  0  0  0  0  0  0
    0.9283    3.6479   -0.4915 N   0  0  0  0  0  0  0  0  0  0  0  0
    1.8938    0.5365   -2.9910 H   0  0  0  0  0  0  0  0  0  0  0  0
    0.1377    0.5430   -2.9902 H   0  0  0  0  0  0  0  0  0  0  0  0
    1.0105   -0.9977   -2.9793 H   0  0  0  0  0  0  0  0  0  0  0  0
   -0.0326   -0.6306   -0.6279 H   0  0  0  0  0  0  0  0  0  0  0  0
    1.8830   -0.5246   -0.7016 H   0  0  0  0  0  0  0  0  0  0  0  0
    1.0184    1.4273    0.6418 H   0  0  0  0  0  0  0  0  0  0  0  0
    1.3318    4.3711   -1.0641 H   0  0  0  0  0  0  0  0  0  0  0  0
    1.3308    3.6434    0.4405 H   0  0  0  0  0  0  0  0  0  0  0  0
  1  2  1  0
  1  5  1  0
  1  6  1  0
  1 17  1  0
  2  3  1  0
  3  4  2  3
  4  7  1  0
  4  8  1  0
  9 10  1  0
  9 14  1  0
  9 15  1  0
  9 16  1  0
 10 11  1  0
 10 18  1  0
 11 12  2  3
 11 19  1  0
 12 13  1  0
 13 20  1  0
 13 21  1  0
M  RAD  1  10   2
M  END
>  <reaction>  (12) 
rmg_rxn_15703

>  <mol_properties>  (12) 
{"0": {"label": "*3", "atom_type": "Cs"}, "1": {"label": "*4", "atom_type": "O2s"}, "9": {"label": "*1", "atom_type": "Cs"}, "10": {"label": "*0", "atom_type": "Cd"}, "16": {"label": "*2", "atom_type": "H0"}}

>  <type>  (12) 
unop_8

>  <geom_source>  (12) 
Heuristics

$$$$

     RDKit          3D

 21 19  0  0  0  0  0  0  0  0999 V2000
   -0.4246   -1.8366    0.5558 C   0  0  0  0  0  0  0  0  0  0  0  0
   -1.5538   -1.1532    0.0486 O   0  0  0  0  0  0  0  0  0  0  0  0
   -2.5938   -1.2505    0.9417 N   0  0  0  0  0  0  0  0  0  0  0  0
   -3.6289   -0.6532    0.5312 C   0  0  0  0  0  0  0  0  0  0  0  0
   -0.0952   -1.3994    1.5010 H   0  0  0  0  0  0  0  0  0  0  0  0
   -0.6423   -2.8972    0.7005 H   0  0  0  0  0  0  0  0  0  0  0  0
   -4.4948   -0.6830    1.1789 H   0  0  0  0  0  0  0  0  0  0  0  0
   -3.6647   -0.1306   -0.4223 H   0  0  0  0  0  0  0  0  0  0  0  0
    1.6614   -0.5297   -1.8658 C   0  0  0  0  0  0  0  0  0  0  0  0
    1.6614   -0.5297   -0.3458 C   0  0  0  0  0  3  0  0  0  0  0  0
    1.6614    0.8303    0.2791 C   0  0  0  0  0  0  0  0  0  0  0  0
    1.6456    1.8893   -0.4118 N   0  0  0  0  0  0  0  0  0  0  0  0
    1.5758    3.0932    0.2428 N   0  0  0  0  0  0  0  0  0  0  0  0
    2.5413   -0.0182   -2.2567 H   0  0  0  0  0  0  0  0  0  0  0  0
    0.7852   -0.0118   -2.2558 H   0  0  0  0  0  0  0  0  0  0  0  0
    1.6581   -1.5525   -2.2450 H   0  0  0  0  0  0  0  0  0  0  0  0
    0.6149   -1.1854    0.1065 H   0  0  0  0  0  0  0  0  0  0  0  0
    2.5305   -1.0793    0.0327 H   0  0  0  0  0  0  0  0  0  0  0  0
    1.6660    0.8726    1.3761 H   0  0  0  0  0  0  0  0  0  0  0  0
    1.9793    3.8164   -0.3297 H   0  0  0  0  0  0  0  0  0  0  0  0
    1.9783    3.0886    1.1748 H   0  0  0  0  0  0  0  0  0  0  0  0
  1  2  1  0
  1  5  1  0
  1  6  1  0
  1 17  1  0
  2  3  1  0
  3  4  2  3
  4  7  1  0
  4  8  1  0
  9 10  1  0
  9 14  1  0
  9 15  1  0
  9 16  1  0
 10 11  1  0
 10 18  1  0
 11 12  2  3
 11 19  1  0
 12 13  1  0
 13 20  1  0
 13 21  1  0
M  RAD  1  10   2
M  END
>  <reaction>  (13) 
rmg_rxn_15703

>  <mol_properties>  (13) 
{"0": {"label": "*3", "atom_type": "Cs"}, "1": {"label": "*4", "atom_type": "O2s"}, "9": {"label": "*1", "atom_type": "Cs"}, "10": {"label": "*0", "atom_type": "Cd"}, "16": {"label": "*2", "atom_type": "H0"}}

>  <type>  (13) 
unop_9

>  <geom_source>  (13) 
Heuristics

$$$$

     RDKit          3D

 21 19  0  0  0  0  0  0  0  0999 V2000
    1.2415    1.6450    0.4273 C   0  0  0  0  0  0  0  0  0  0  0  0
    2.4371    1.1037   -0.0906 O   0  0  0  0  0  0  0  0  0  0  0  0
    2.4284   -0.2707   -0.0626 N   0  0  0  0  0  0  0  0  0  0  0  0
    3.4689   -0.8508   -0.4709 C   0  0  0  0  0  0  0  0  0  0  0  0
    1.2433    2.7001    0.1878 H   0  0  0  0  0  0  0  0  0  0  0  0
    0.3504    1.1311    0.1217 H   0  0  0  0  0  0  0  0  0  0  0  0
    3.4638   -1.9268   -0.4550 H   0  0  0  0  0  0  0  0  0  0  0  0
    4.3526   -0.3345   -0.8315 H   0  0  0  0  0  0  0  0  0  0  0  0
   -3.1867    1.3955   -0.1955 C   0  0  0  0  0  0  0  0  0  0  0  0
   -3.3338   -0.0789   -0.3039 C   0  0  0  0  0  3  0  0  0  0  0  0
   -2.3181   -0.9645   -0.0886 C   0  0  0  0  0  0  0  0  0  0  0  0
   -1.0885   -0.5867    0.2219 N   0  0  0  0  0  0  0  0  0  0  0  0
   -0.1927   -1.5384    0.4951 N   0  0  0  0  0  0  0  0  0  0  0  0
   -3.3831    1.8721   -1.1580 H   0  0  0  0  0  0  0  0  0  0  0  0
   -2.1819    1.6474    0.1286 H   0  0  0  0  0  0  0  0  0  0  0  0
   -3.9080    1.7993    0.5170 H   0  0  0  0  0  0  0  0  0  0  0  0
    1.1050    1.4561    1.5000 H   0  0  0  0  0  0  0  0  0  0  0  0
   -4.3063   -0.4619   -0.5742 H   0  0  0  0  0  0  0  0  0  0  0  0
   -2.5298   -2.0374   -0.1853 H   0  0  0  0  0  0  0  0  0  0  0  0
    0.7724   -1.2331    0.3887 H   0  0  0  0  0  0  0  0  0  0  0  0
   -0.4126   -2.4994    0.2320 H   0  0  0  0  0  0  0  0  0  0  0  0
  1  2  1  0
  1  5  1  0
  1  6  1  0
  1 17  1  0
  2  3  1  0
  3  4  2  3
  4  7  1  0
  4  8  1  0
  9 10  1  0
  9 14  1  0
  9 15  1  0
  9 16  1  0
 10 11  1  0
 10 18  1  0
 11 12  2  3
 11 19  1  0
 12 13  1  0
 13 20  1  0
 13 21  1  0
M  RAD  1  10   2
M  END
>  <reaction>  (14) 
rmg_rxn_15703

>  <mol_properties>  (14) 
{"0": {"label": "*3", "atom_type": "Cs"}, "1": {"label": "*4", "atom_type": "O2s"}, "9": {"label": "*1", "atom_type": "Cs"}, "10": {"label": "*0", "atom_type": "Cd"}, "16": {"label": "*2", "atom_type": "H0"}}

>  <type>  (14) 
unop_10

>  <geom_source>  (14) 
Heuristics

$$$$

     RDKit          3D

 21 19  0  0  0  0  0  0  0  0999 V2000
   -0.9474   -1.4372   -0.1983 C   0  0  0  0  0  0  0  0  0  0  0  0
   -0.8557   -1.3798    1.2116 O   0  0  0  0  0  0  0  0  0  0  0  0
   -1.9190   -2.0460    1.7724 N   0  0  0  0  0  0  0  0  0  0  0  0
   -1.8809   -2.0221    3.0352 C   0  0  0  0  0  0  0  0  0  0  0  0
   -0.9169   -2.4709   -0.5500 H   0  0  0  0  0  0  0  0  0  0  0  0
   -1.8643   -0.9589   -0.5500 H   0  0  0  0  0  0  0  0  0  0  0  0
   -2.6853   -2.5261    3.5541 H   0  0  0  0  0  0  0  0  0  0  0  0
   -1.0871   -1.5247    3.5884 H   0  0  0  0  0  0  0  0  0  0  0  0
    1.1386   -0.1302   -2.6199 C   0  0  0  0  0  0  0  0  0  0  0  0
    1.1386   -0.1302   -1.0999 C   0  0  0  0  0  3  0  0  0  0  0  0
    1.1386    1.2298   -0.4749 C   0  0  0  0  0  0  0  0  0  0  0  0
    1.1227    2.2888   -1.1658 N   0  0  0  0  0  0  0  0  0  0  0  0
    1.0530    3.4926   -0.5113 N   0  0  0  0  0  0  0  0  0  0  0  0
    2.0185    0.3812   -3.0108 H   0  0  0  0  0  0  0  0  0  0  0  0
    0.2624    0.3877   -3.0099 H   0  0  0  0  0  0  0  0  0  0  0  0
    1.1353   -1.1530   -2.9990 H   0  0  0  0  0  0  0  0  0  0  0  0
    0.0921   -0.7859   -0.6476 H   0  0  0  0  0  0  0  0  0  0  0  0
    2.0077   -0.6799   -0.7213 H   0  0  0  0  0  0  0  0  0  0  0  0
    1.1432    1.2721    0.6221 H   0  0  0  0  0  0  0  0  0  0  0  0
    1.4565    4.2159   -1.0838 H   0  0  0  0  0  0  0  0  0  0  0  0
    1.4555    3.4881    0.4208 H   0  0  0  0  0  0  0  0  0  0  0  0
  1  2  1  0
  1  5  1  0
  1  6  1  0
  1 17  1  0
  2  3  1  0
  3  4  2  3
  4  7  1  0
  4  8  1  0
  9 10  1  0
  9 14  1  0
  9 15  1  0
  9 16  1  0
 10 11  1  0
 10 18  1  0
 11 12  2  3
 11 19  1  0
 12 13  1  0
 13 20  1  0
 13 21  1  0
M  RAD  1  10   2
M  END
>  <reaction>  (15) 
rmg_rxn_15703

>  <mol_properties>  (15) 
{"0": {"label": "*3", "atom_type": "Cs"}, "1": {"label": "*4", "atom_type": "O2s"}, "9": {"label": "*1", "atom_type": "Cs"}, "10": {"label": "*0", "atom_type": "Cd"}, "16": {"label": "*2", "atom_type": "H0"}}

>  <type>  (15) 
unop_11

>  <geom_source>  (15) 
Heuristics

$$$$

     RDKit          3D

 21 19  0  0  0  0  0  0  0  0999 V2000
   -1.2319    1.6478   -0.4092 C   0  0  0  0  0  0  0  0  0  0  0  0
   -2.4329    1.1062    0.0952 O   0  0  0  0  0  0  0  0  0  0  0  0
   -2.4277   -0.2679    0.0578 N   0  0  0  0  0  0  0  0  0  0  0  0
   -3.4728   -0.8480    0.4543 C   0  0  0  0  0  0  0  0  0  0  0  0
   -1.2327    2.7016   -0.1648 H   0  0  0  0  0  0  0  0  0  0  0  0
   -0.3443    1.1293   -0.1033 H   0  0  0  0  0  0  0  0  0  0  0  0
   -3.4706   -1.9238    0.4309 H   0  0  0  0  0  0  0  0  0  0  0  0
   -4.3577   -0.3316    0.8119 H   0  0  0  0  0  0  0  0  0  0  0  0
    3.1860    1.3943    0.1732 C   0  0  0  0  0  0  0  0  0  0  0  0
    3.3292   -0.0782    0.3097 C   0  0  0  0  0  3  0  0  0  0  0  0
    2.3136   -0.9654    0.1013 C   0  0  0  0  0  0  0  0  0  0  0  0
    1.0873   -0.5904   -0.2249 N   0  0  0  0  0  0  0  0  0  0  0  0
    0.1915   -1.5443   -0.4905 N   0  0  0  0  0  0  0  0  0  0  0  0
    2.1858    1.6418   -0.1678 H   0  0  0  0  0  0  0  0  0  0  0  0
    3.9168    1.7840   -0.5374 H   0  0  0  0  0  0  0  0  0  0  0  0
    3.3712    1.8879    1.1293 H   0  0  0  0  0  0  0  0  0  0  0  0
   -1.0823    1.4612   -1.4797 H   0  0  0  0  0  0  0  0  0  0  0  0
    4.2985   -0.4580    0.5954 H   0  0  0  0  0  0  0  0  0  0  0  0
    2.5222   -2.0370    0.2178 H   0  0  0  0  0  0  0  0  0  0  0  0
   -0.7735   -1.2358   -0.3929 H   0  0  0  0  0  0  0  0  0  0  0  0
    0.4079   -2.5016   -0.2115 H   0  0  0  0  0  0  0  0  0  0  0  0
  1  2  1  0
  1  5  1  0
  1  6  1  0
  1 17  1  0
  2  3  1  0
  3  4  2  3
  4  7  1  0
  4  8  1  0
  9 10  1  0
  9 14  1  0
  9 15  1  0
  9 16  1  0
 10 11  1  0
 10 18  1  0
 11 12  2  3
 11 19  1  0
 12 13  1  0
 13 20  1  0
 13 21  1  0
M  RAD  1  10   2
M  END
>  <reaction>  (16) 
rmg_rxn_15703

>  <mol_properties>  (16) 
{"0": {"label": "*3", "atom_type": "Cs"}, "1": {"label": "*4", "atom_type": "O2s"}, "9": {"label": "*1", "atom_type": "Cs"}, "10": {"label": "*0", "atom_type": "Cd"}, "16": {"label": "*2", "atom_type": "H0"}}

>  <type>  (16) 
unop_12

>  <geom_source>  (16) 
Heuristics

$$$$

     RDKit          3D

 21 19  0  0  0  0  0  0  0  0999 V2000
   -0.5382   -1.9213    0.2247 C   0  0  0  0  0  0  0  0  0  0  0  0
   -1.5659   -0.9590    0.3566 O   0  0  0  0  0  0  0  0  0  0  0  0
   -2.2977   -1.2154    1.4913 N   0  0  0  0  0  0  0  0  0  0  0  0
   -3.2311   -0.3791    1.6527 C   0  0  0  0  0  0  0  0  0  0  0  0
    0.1436   -1.8841    1.0773 H   0  0  0  0  0  0  0  0  0  0  0  0
   -0.9542   -2.9272    0.1337 H   0  0  0  0  0  0  0  0  0  0  0  0
   -3.8555   -0.5120    2.5260 H   0  0  0  0  0  0  0  0  0  0  0  0
   -3.4117    0.4389    0.9585 H   0  0  0  0  0  0  0  0  0  0  0  0
    1.5478   -0.6143   -2.1969 C   0  0  0  0  0  0  0  0  0  0  0  0
    1.5478   -0.6143   -0.6769 C   0  0  0  0  0  3  0  0  0  0  0  0
    1.5478    0.7457   -0.0519 C   0  0  0  0  0  0  0  0  0  0  0  0
    1.5319    1.8047   -0.7428 N   0  0  0  0  0  0  0  0  0  0  0  0
    1.4622    3.0086   -0.0883 N   0  0  0  0  0  0  0  0  0  0  0  0
    2.4277   -0.1028   -2.5878 H   0  0  0  0  0  0  0  0  0  0  0  0
    0.6716   -0.0964   -2.5869 H   0  0  0  0  0  0  0  0  0  0  0  0
    1.5445   -1.6371   -2.5760 H   0  0  0  0  0  0  0  0  0  0  0  0
    0.5013   -1.2700   -0.2246 H   0  0  0  0  0  0  0  0  0  0  0  0
    2.4169   -1.1640   -0.2983 H   0  0  0  0  0  0  0  0  0  0  0  0
    1.5524    0.7880    1.0451 H   0  0  0  0  0  0  0  0  0  0  0  0
    1.8657    3.7318   -0.6608 H   0  0  0  0  0  0  0  0  0  0  0  0
    1.8647    3.0040    0.8438 H   0  0  0  0  0  0  0  0  0  0  0  0
  1  2  1  0
  1  5  1  0
  1  6  1  0
  1 17  1  0
  2  3  1  0
  3  4  2  3
  4  7  1  0
  4  8  1  0
  9 10  1  0
  9 14  1  0
  9 15  1  0
  9 16  1  0
 10 11  1  0
 10 18  1  0
 11 12  2  3
 11 19  1  0
 12 13  1  0
 13 20  1  0
 13 21  1  0
M  RAD  1  10   2
M  END
>  <reaction>  (17) 
rmg_rxn_15703

>  <mol_properties>  (17) 
{"0": {"label": "*3", "atom_type": "Cs"}, "1": {"label": "*4", "atom_type": "O2s"}, "9": {"label": "*1", "atom_type": "Cs"}, "10": {"label": "*0", "atom_type": "Cd"}, "16": {"label": "*2", "atom_type": "H0"}}

>  <type>  (17) 
unop_13

>  <geom_source>  (17) 
Heuristics

$$$$

     RDKit          3D

 21 19  0  0  0  0  0  0  0  0999 V2000
    0.8197    2.0212    0.0172 C   0  0  0  0  0  0  0  0  0  0  0  0
    1.5543    0.9701   -0.5377 O   0  0  0  0  0  0  0  0  0  0  0  0
    1.9030    0.0300    0.4073 N   0  0  0  0  0  0  0  0  0  0  0  0
    2.5060   -0.9900   -0.0248 C   0  0  0  0  0  0  0  0  0  0  0  0
    1.2705    2.4128    0.9282 H   0  0  0  0  0  0  0  0  0  0  0  0
    0.7115    2.7721   -0.7581 H   0  0  0  0  0  0  0  0  0  0  0  0
    2.7992   -1.7217    0.7076 H   0  0  0  0  0  0  0  0  0  0  0  0
    2.7475   -1.1632   -1.0695 H   0  0  0  0  0  0  0  0  0  0  0  0
   -2.4019    1.3334   -0.5029 C   0  0  0  0  0  0  0  0  0  0  0  0
   -1.5028    0.9025    0.6247 C   0  0  0  0  0  3  0  0  0  0  0  0
   -1.1192   -0.4626    0.6992 C   0  0  0  0  0  0  0  0  0  0  0  0
   -1.1624   -1.2378   -0.3339 N   0  0  0  0  0  0  0  0  0  0  0  0
   -0.7866   -2.5218   -0.1962 N   0  0  0  0  0  0  0  0  0  0  0  0
   -2.0667    0.8805   -1.4310 H   0  0  0  0  0  0  0  0  0  0  0  0
   -2.4103    2.4167   -0.6046 H   0  0  0  0  0  0  0  0  0  0  0  0
   -3.4233    1.0001   -0.3160 H   0  0  0  0  0  0  0  0  0  0  0  0
   -0.3294    1.5504    0.3258 H   0  0  0  0  0  0  0  0  0  0  0  0
   -1.7082    1.3726    1.5823 H   0  0  0  0  0  0  0  0  0  0  0  0
   -0.6829   -0.8178    1.6419 H   0  0  0  0  0  0  0  0  0  0  0  0
   -0.4950   -2.9345   -1.0697 H   0  0  0  0  0  0  0  0  0  0  0  0
   -0.2104   -2.7588    0.6124 H   0  0  0  0  0  0  0  0  0  0  0  0
  1  2  1  0
  1  5  1  0
  1  6  1  0
  1 17  1  0
  2  3  1  0
  3  4  2  3
  4  7  1  0
  4  8  1  0
  9 10  1  0
  9 14  1  0
  9 15  1  0
  9 16  1  0
 10 11  1  0
 10 18  1  0
 11 12  2  3
 11 19  1  0
 12 13  1  0
 13 20  1  0
 13 21  1  0
M  RAD  1  10   2
M  END
>  <reaction>  (18) 
rmg_rxn_15703

>  <mol_properties>  (18) 
{"0": {"label": "*3", "atom_type": "Cs"}, "1": {"label": "*4", "atom_type": "O2s"}, "9": {"label": "*1", "atom_type": "Cs"}, "10": {"label": "*0", "atom_type": "Cd"}, "16": {"label": "*2", "atom_type": "H0"}}

>  <type>  (18) 
unop_14

>  <geom_source>  (18) 
Heuristics

$$$$

     RDKit          3D

 21 19  0  0  0  0  0  0  0  0999 V2000
   -0.7120   -1.8247   -0.0448 C   0  0  0  0  0  0  0  0  0  0  0  0
   -1.4446   -0.8927    0.7261 O   0  0  0  0  0  0  0  0  0  0  0  0
   -1.9723   -1.5181    1.8303 N   0  0  0  0  0  0  0  0  0  0  0  0
   -2.6379   -0.7231    2.5526 C   0  0  0  0  0  0  0  0  0  0  0  0
    0.1172   -2.2420    0.5310 H   0  0  0  0  0  0  0  0  0  0  0  0
   -1.3565   -2.6340   -0.3954 H   0  0  0  0  0  0  0  0  0  0  0  0
   -3.0876   -1.1392    3.4442 H   0  0  0  0  0  0  0  0  0  0  0  0
   -2.7624    0.3289    2.3054 H   0  0  0  0  0  0  0  0  0  0  0  0
    1.3740   -0.5178   -2.4664 C   0  0  0  0  0  0  0  0  0  0  0  0
    1.3740   -0.5178   -0.9464 C   0  0  0  0  0  3  0  0  0  0  0  0
    1.3740    0.8422   -0.3214 C   0  0  0  0  0  0  0  0  0  0  0  0
    1.3581    1.9013   -1.0123 N   0  0  0  0  0  0  0  0  0  0  0  0
    1.2884    3.1051   -0.3578 N   0  0  0  0  0  0  0  0  0  0  0  0
    2.2539   -0.0063   -2.8573 H   0  0  0  0  0  0  0  0  0  0  0  0
    0.4978    0.0001   -2.8564 H   0  0  0  0  0  0  0  0  0  0  0  0
    1.3707   -1.5406   -2.8455 H   0  0  0  0  0  0  0  0  0  0  0  0
    0.3275   -1.1734   -0.4941 H   0  0  0  0  0  0  0  0  0  0  0  0
    2.2431   -1.0674   -0.5678 H   0  0  0  0  0  0  0  0  0  0  0  0
    1.3785    0.8845    0.7756 H   0  0  0  0  0  0  0  0  0  0  0  0
    1.6919    3.8283   -0.9303 H   0  0  0  0  0  0  0  0  0  0  0  0
    1.6909    3.1005    0.5743 H   0  0  0  0  0  0  0  0  0  0  0  0
  1  2  1  0
  1  5  1  0
  1  6  1  0
  1 17  1  0
  2  3  1  0
  3  4  2  3
  4  7  1  0
  4  8  1  0
  9 10  1  0
  9 14  1  0
  9 15  1  0
  9 16  1  0
 10 11  1  0
 10 18  1  0
 11 12  2  3
 11 19  1  0
 12 13  1  0
 13 20  1  0
 13 21  1  0
M  RAD  1  10   2
M  END
>  <reaction>  (19) 
rmg_rxn_15703

>  <mol_properties>  (19) 
{"0": {"label": "*3", "atom_type": "Cs"}, "1": {"label": "*4", "atom_type": "O2s"}, "9": {"label": "*1", "atom_type": "Cs"}, "10": {"label": "*0", "atom_type": "Cd"}, "16": {"label": "*2", "atom_type": "H0"}}

>  <type>  (19) 
unop_15

>  <geom_source>  (19) 
Heuristics

$$$$

     RDKit          3D

 21 19  0  0  0  0  0  0  0  0999 V2000
    1.7543   -1.2401   -0.1961 C   0  0  0  0  0  0  0  0  0  0  0  0
    2.0835    0.0383   -0.6604 O   0  0  0  0  0  0  0  0  0  0  0  0
    1.7979    1.1421    0.0657 N   0  0  0  0  0  0  0  0  0  0  0  0
    1.1866    1.0975    1.1680 C   0  0  0  0  0  0  0  0  0  0  0  0
    2.2320   -1.9355   -0.8792 H   0  0  0  0  0  0  0  0  0  0  0  0
    2.0534   -1.4167    0.8382 H   0  0  0  0  0  0  0  0  0  0  0  0
    1.0355    2.0465    1.6525 H   0  0  0  0  0  0  0  0  0  0  0  0
    0.7989    0.2138    1.6641 H   0  0  0  0  0  0  0  0  0  0  0  0
   -1.2988   -2.0715    0.8901 C   0  0  0  0  0  0  0  0  0  0  0  0
   -0.8752   -1.4995   -0.4371 C   0  0  0  0  0  3  0  0  0  0  0  0
   -1.2792   -0.1801   -0.7704 C   0  0  0  0  0  0  0  0  0  0  0  0
   -1.5635    0.6892    0.1449 N   0  0  0  0  0  0  0  0  0  0  0  0
   -1.9398    1.9228   -0.2252 N   0  0  0  0  0  0  0  0  0  0  0  0
   -0.6718   -2.9153    1.1731 H   0  0  0  0  0  0  0  0  0  0  0  0
   -2.3298   -2.4217    0.8308 H   0  0  0  0  0  0  0  0  0  0  0  0
   -1.2526   -1.3039    1.6571 H   0  0  0  0  0  0  0  0  0  0  0  0
    0.4880   -1.3962   -0.2892 H   0  0  0  0  0  0  0  0  0  0  0  0
   -0.8961   -2.2055   -1.2623 H   0  0  0  0  0  0  0  0  0  0  0  0
   -1.2260    0.1199   -1.8243 H   0  0  0  0  0  0  0  0  0  0  0  0
   -1.7907    2.6104    0.4977 H   0  0  0  0  0  0  0  0  0  0  0  0
   -1.7082    2.2252   -1.1716 H   0  0  0  0  0  0  0  0  0  0  0  0
  1  2  1  0
  1  5  1  0
  1  6  1  0
  1 17  1  0
  2  3  1  0
  3  4  2  3
  4  7  1  0
  4  8  1  0
  9 10  1  0
  9 14  1  0
  9 15  1  0
  9 16  1  0
 10 11  1  0
 10 18  1  0
 11 12  2  3
 11 19  1  0
 12 13  1  0
 13 20  1  0
 13 21  1  0
M  RAD  1  10   2
M  END
>  <reaction>  (20) 
rmg_rxn_15703

>  <mol_properties>  (20) 
{"0": {"label": "*3", "atom_type": "Cs"}, "1": {"label": "*4", "atom_type": "O2s"}, "9": {"label": "*1", "atom_type": "Cs"}, "10": {"label": "*0", "atom_type": "Cd"}, "16": {"label": "*2", "atom_type": "H0"}}

>  <type>  (20) 
unop_16

>  <geom_source>  (20) 
Heuristics

$$$$

     RDKit          3D

 21 19  0  0  0  0  0  0  0  0999 V2000
   -1.2045   -0.8579    0.2247 C   0  0  0  0  0  0  0  0  0  0  0  0
   -0.7869   -2.2024    0.3566 O   0  0  0  0  0  0  0  0  0  0  0  0
   -1.3368   -2.7490    1.4913 N   0  0  0  0  0  0  0  0  0  0  0  0
   -0.9914   -3.9537    1.6526 C   0  0  0  0  0  0  0  0  0  0  0  0
   -2.2911   -0.7934    0.1337 H   0  0  0  0  0  0  0  0  0  0  0  0
   -0.8736   -0.2606    1.0773 H   0  0  0  0  0  0  0  0  0  0  0  0
   -1.3834   -4.4577    2.5260 H   0  0  0  0  0  0  0  0  0  0  0  0
   -0.3341   -4.4731    0.9586 H   0  0  0  0  0  0  0  0  0  0  0  0
    0.8815    0.4491   -2.1969 C   0  0  0  0  0  0  0  0  0  0  0  0
    0.8815    0.4491   -0.6769 C   0  0  0  0  0  3  0  0  0  0  0  0
    0.8815    1.8091   -0.0519 C   0  0  0  0  0  0  0  0  0  0  0  0
    0.8656    2.8681   -0.7428 N   0  0  0  0  0  0  0  0  0  0  0  0
    0.7959    4.0720   -0.0883 N   0  0  0  0  0  0  0  0  0  0  0  0
    1.7614    0.9606   -2.5878 H   0  0  0  0  0  0  0  0  0  0  0  0
    0.0053    0.9670   -2.5869 H   0  0  0  0  0  0  0  0  0  0  0  0
    0.8782   -0.5737   -2.5760 H   0  0  0  0  0  0  0  0  0  0  0  0
   -0.1650   -0.2066   -0.2246 H   0  0  0  0  0  0  0  0  0  0  0  0
    1.7506   -0.1005   -0.2983 H   0  0  0  0  0  0  0  0  0  0  0  0
    0.8861    1.8514    1.0451 H   0  0  0  0  0  0  0  0  0  0  0  0
    1.1994    4.7952   -0.6608 H   0  0  0  0  0  0  0  0  0  0  0  0
    1.1984    4.0674    0.8438 H   0  0  0  0  0  0  0  0  0  0  0  0
  1  2  1  0
  1  5  1  0
  1  6  1  0
  1 17  1  0
  2  3  1  0
  3  4  2  3
  4  7  1  0
  4  8  1  0
  9 10  1  0
  9 14  1  0
  9 15  1  0
  9 16  1  0
 10 11  1  0
 10 18  1  0
 11 12  2  3
 11 19  1  0
 12 13  1  0
 13 20  1  0
 13 21  1  0
M  RAD  1  10   2
M  END
>  <reaction>  (21) 
rmg_rxn_15703

>  <mol_properties>  (21) 
{"0": {"label": "*3", "atom_type": "Cs"}, "1": {"label": "*4", "atom_type": "O2s"}, "9": {"label": "*1", "atom_type": "Cs"}, "10": {"label": "*0", "atom_type": "Cd"}, "16": {"label": "*2", "atom_type": "H0"}}

>  <type>  (21) 
unop_17

>  <geom_source>  (21) 
Heuristics

$$$$

     RDKit          3D

 21 19  0  0  0  0  0  0  0  0999 V2000
    1.7560   -1.2368   -0.2031 C   0  0  0  0  0  0  0  0  0  0  0  0
    2.0814    0.0445   -0.6622 O   0  0  0  0  0  0  0  0  0  0  0  0
    1.7941    1.1444    0.0692 N   0  0  0  0  0  0  0  0  0  0  0  0
    1.1844    1.0932    1.1721 C   0  0  0  0  0  0  0  0  0  0  0  0
    2.2333   -1.9279   -0.8908 H   0  0  0  0  0  0  0  0  0  0  0  0
    2.0583   -1.4175    0.8296 H   0  0  0  0  0  0  0  0  0  0  0  0
    1.0315    2.0394    1.6613 H   0  0  0  0  0  0  0  0  0  0  0  0
    0.7999    0.2061    1.6648 H   0  0  0  0  0  0  0  0  0  0  0  0
   -1.2918   -2.0718    0.8929 C   0  0  0  0  0  0  0  0  0  0  0  0
   -0.8737   -1.5008   -0.4365 C   0  0  0  0  0  3  0  0  0  0  0  0
   -1.2808   -0.1826   -0.7703 C   0  0  0  0  0  0  0  0  0  0  0  0
   -1.5624    0.6880    0.1445 N   0  0  0  0  0  0  0  0  0  0  0  0
   -1.9416    1.9204   -0.2262 N   0  0  0  0  0  0  0  0  0  0  0  0
   -1.2439   -1.3032    1.6588 H   0  0  0  0  0  0  0  0  0  0  0  0
   -0.6627   -2.9144    1.1749 H   0  0  0  0  0  0  0  0  0  0  0  0
   -2.3226   -2.4234    0.8380 H   0  0  0  0  0  0  0  0  0  0  0  0
    0.4900   -1.3953   -0.2936 H   0  0  0  0  0  0  0  0  0  0  0  0
   -0.8963   -2.2081   -1.2605 H   0  0  0  0  0  0  0  0  0  0  0  0
   -1.2323    0.1157   -1.8251 H   0  0  0  0  0  0  0  0  0  0  0  0
   -1.7902    2.6096    0.4947 H   0  0  0  0  0  0  0  0  0  0  0  0
   -1.7145    2.2214   -1.1742 H   0  0  0  0  0  0  0  0  0  0  0  0
  1  2  1  0
  1  5  1  0
  1  6  1  0
  1 17  1  0
  2  3  1  0
  3  4  2  3
  4  7  1  0
  4  8  1  0
  9 10  1  0
  9 14  1  0
  9 15  1  0
  9 16  1  0
 10 11  1  0
 10 18  1  0
 11 12  2  3
 11 19  1  0
 12 13  1  0
 13 20  1  0
 13 21  1  0
M  RAD  1  10   2
M  END
>  <reaction>  (22) 
rmg_rxn_15703

>  <mol_properties>  (22) 
{"0": {"label": "*3", "atom_type": "Cs"}, "1": {"label": "*4", "atom_type": "O2s"}, "9": {"label": "*1", "atom_type": "Cs"}, "10": {"label": "*0", "atom_type": "Cd"}, "16": {"label": "*2", "atom_type": "H0"}}

>  <type>  (22) 
unop_18

>  <geom_source>  (22) 
Heuristics

$$$$

     RDKit          3D

 21 19  0  0  0  0  0  0  0  0999 V2000
   -0.4338   -1.5729    0.8356 C   0  0  0  0  0  0  0  0  0  0  0  0
   -1.4437   -1.4026   -0.1394 O   0  0  0  0  0  0  0  0  0  0  0  0
   -2.6711   -1.6846    0.4110 N   0  0  0  0  0  0  0  0  0  0  0  0
   -3.6086   -1.5461   -0.4248 C   0  0  0  0  0  0  0  0  0  0  0  0
   -0.5859   -0.8947    1.6783 H   0  0  0  0  0  0  0  0  0  0  0  0
   -0.4091   -2.6036    1.1966 H   0  0  0  0  0  0  0  0  0  0  0  0
   -4.6096   -1.7500   -0.0687 H   0  0  0  0  0  0  0  0  0  0  0  0
   -3.4359   -1.2382   -1.4538 H   0  0  0  0  0  0  0  0  0  0  0  0
    1.6522   -0.2660   -1.5860 C   0  0  0  0  0  0  0  0  0  0  0  0
    1.6522   -0.2660   -0.0660 C   0  0  0  0  0  3  0  0  0  0  0  0
    1.6522    1.0941    0.5590 C   0  0  0  0  0  0  0  0  0  0  0  0
    1.6363    2.1531   -0.1319 N   0  0  0  0  0  0  0  0  0  0  0  0
    1.5666    3.3569    0.5227 N   0  0  0  0  0  0  0  0  0  0  0  0
    2.5321    0.2455   -1.9768 H   0  0  0  0  0  0  0  0  0  0  0  0
    0.7760    0.2520   -1.9760 H   0  0  0  0  0  0  0  0  0  0  0  0
    1.6489   -1.2887   -1.9651 H   0  0  0  0  0  0  0  0  0  0  0  0
    0.6057   -0.9216    0.3863 H   0  0  0  0  0  0  0  0  0  0  0  0
    2.5213   -0.8156    0.3126 H   0  0  0  0  0  0  0  0  0  0  0  0
    1.6567    1.1363    1.6560 H   0  0  0  0  0  0  0  0  0  0  0  0
    1.9701    4.0801   -0.0499 H   0  0  0  0  0  0  0  0  0  0  0  0
    1.9691    3.3524    1.4547 H   0  0  0  0  0  0  0  0  0  0  0  0
  1  2  1  0
  1  5  1  0
  1  6  1  0
  1 17  1  0
  2  3  1  0
  3  4  2  3
  4  7  1  0
  4  8  1  0
  9 10  1  0
  9 14  1  0
  9 15  1  0
  9 16  1  0
 10 11  1  0
 10 18  1  0
 11 12  2  3
 11 19  1  0
 12 13  1  0
 13 20  1  0
 13 21  1  0
M  RAD  1  10   2
M  END
>  <reaction>  (23) 
rmg_rxn_15703

>  <mol_properties>  (23) 
{"0": {"label": "*3", "atom_type": "Cs"}, "1": {"label": "*4", "atom_type": "O2s"}, "9": {"label": "*1", "atom_type": "Cs"}, "10": {"label": "*0", "atom_type": "Cd"}, "16": {"label": "*2", "atom_type": "H0"}}

>  <type>  (23) 
unop_19

>  <geom_source>  (23) 
Heuristics

$$$$

     RDKit          3D

 21 19  0  0  0  0  0  0  0  0999 V2000
   -1.0787   -0.7925    0.5558 C   0  0  0  0  0  0  0  0  0  0  0  0
   -0.9563   -2.1068    0.0486 O   0  0  0  0  0  0  0  0  0  0  0  0
   -1.4976   -3.0002    0.9417 N   0  0  0  0  0  0  0  0  0  0  0  0
   -1.4115   -4.1922    0.5312 C   0  0  0  0  0  0  0  0  0  0  0  0
   -2.1281   -0.5258    0.7005 H   0  0  0  0  0  0  0  0  0  0  0  0
   -0.5416   -0.6869    1.5010 H   0  0  0  0  0  0  0  0  0  0  0  0
   -1.8162   -4.9584    1.1789 H   0  0  0  0  0  0  0  0  0  0  0  0
   -0.9569   -4.4524   -0.4223 H   0  0  0  0  0  0  0  0  0  0  0  0
    1.0072    0.5144   -1.8658 C   0  0  0  0  0  0  0  0  0  0  0  0
    1.0072    0.5144   -0.3458 C   0  0  0  0  0  3  0  0  0  0  0  0
    1.0072    1.8745    0.2791 C   0  0  0  0  0  0  0  0  0  0  0  0
    0.9914    2.9335   -0.4118 N   0  0  0  0  0  0  0  0  0  0  0  0
    0.9217    4.1373    0.2428 N   0  0  0  0  0  0  0  0  0  0  0  0
    1.8871    1.0259   -2.2567 H   0  0  0  0  0  0  0  0  0  0  0  0
    0.1311    1.0324   -2.2558 H   0  0  0  0  0  0  0  0  0  0  0  0
    1.0039   -0.5083   -2.2450 H   0  0  0  0  0  0  0  0  0  0  0  0
   -0.0393   -0.1412    0.1065 H   0  0  0  0  0  0  0  0  0  0  0  0
    1.8763   -0.0352    0.0327 H   0  0  0  0  0  0  0  0  0  0  0  0
    1.0118    1.9168    1.3761 H   0  0  0  0  0  0  0  0  0  0  0  0
    1.3252    4.8605   -0.3297 H   0  0  0  0  0  0  0  0  0  0  0  0
    1.3242    4.1328    1.1748 H   0  0  0  0  0  0  0  0  0  0  0  0
  1  2  1  0
  1  5  1  0
  1  6  1  0
  1 17  1  0
  2  3  1  0
  3  4  2  3
  4  7  1  0
  4  8  1  0
  9 10  1  0
  9 14  1  0
  9 15  1  0
  9 16  1  0
 10 11  1  0
 10 18  1  0
 11 12  2  3
 11 19  1  0
 12 13  1  0
 13 20  1  0
 13 21  1  0
M  RAD  1  10   2
M  END
>  <reaction>  (24) 
rmg_rxn_15703

>  <mol_properties>  (24) 
{"0": {"label": "*3", "atom_type": "Cs"}, "1": {"label": "*4", "atom_type": "O2s"}, "9": {"label": "*1", "atom_type": "Cs"}, "10": {"label": "*0", "atom_type": "Cd"}, "16": {"label": "*2", "atom_type": "H0"}}

>  <type>  (24) 
unop_20

>  <geom_source>  (24) 
Heuristics

$$$$

     RDKit          3D

 21 19  0  0  0  0  0  0  0  0999 V2000
   -0.8621   -1.6172   -0.1786 C   0  0  0  0  0  0  0  0  0  0  0  0
   -1.1849   -1.0164    1.0601 O   0  0  0  0  0  0  0  0  0  0  0  0
   -1.8327   -1.9260    1.8612 N   0  0  0  0  0  0  0  0  0  0  0  0
   -2.1426   -1.4338    2.9830 C   0  0  0  0  0  0  0  0  0  0  0  0
   -0.1960   -2.4712   -0.0367 H   0  0  0  0  0  0  0  0  0  0  0  0
   -1.7641   -1.9410   -0.7027 H   0  0  0  0  0  0  0  0  0  0  0  0
   -2.6573   -2.0880    3.6740 H   0  0  0  0  0  0  0  0  0  0  0  0
   -1.9114   -0.4065    3.2564 H   0  0  0  0  0  0  0  0  0  0  0  0
    1.2239   -0.3102   -2.6002 C   0  0  0  0  0  0  0  0  0  0  0  0
    1.2239   -0.3102   -1.0802 C   0  0  0  0  0  3  0  0  0  0  0  0
    1.2239    1.0498   -0.4552 C   0  0  0  0  0  0  0  0  0  0  0  0
    1.2080    2.1088   -1.1461 N   0  0  0  0  0  0  0  0  0  0  0  0
    1.1383    3.3126   -0.4916 N   0  0  0  0  0  0  0  0  0  0  0  0
    2.1038    0.2012   -2.9911 H   0  0  0  0  0  0  0  0  0  0  0  0
    0.3477    0.2077   -2.9902 H   0  0  0  0  0  0  0  0  0  0  0  0
    1.2206   -1.3330   -2.9793 H   0  0  0  0  0  0  0  0  0  0  0  0
    0.1774   -0.9659   -0.6279 H   0  0  0  0  0  0  0  0  0  0  0  0
    2.0930   -0.8599   -0.7016 H   0  0  0  0  0  0  0  0  0  0  0  0
    1.2285    1.0921    0.6418 H   0  0  0  0  0  0  0  0  0  0  0  0
    1.5418    4.0359   -1.0641 H   0  0  0  0  0  0  0  0  0  0  0  0
    1.5408    3.3081    0.4405 H   0  0  0  0  0  0  0  0  0  0  0  0
  1  2  1  0
  1  5  1  0
  1  6  1  0
  1 17  1  0
  2  3  1  0
  3  4  2  3
  4  7  1  0
  4  8  1  0
  9 10  1  0
  9 14  1  0
  9 15  1  0
  9 16  1  0
 10 11  1  0
 10 18  1  0
 11 12  2  3
 11 19  1  0
 12 13  1  0
 13 20  1  0
 13 21  1  0
M  RAD  1  10   2
M  END
>  <reaction>  (25) 
rmg_rxn_15703

>  <mol_properties>  (25) 
{"0": {"label": "*3", "atom_type": "Cs"}, "1": {"label": "*4", "atom_type": "O2s"}, "9": {"label": "*1", "atom_type": "Cs"}, "10": {"label": "*0", "atom_type": "Cd"}, "16": {"label": "*2", "atom_type": "H0"}}

>  <type>  (25) 
unop_21

>  <geom_source>  (25) 
Heuristics

$$$$

     RDKit          3D

 21 19  0  0  0  0  0  0  0  0999 V2000
   -0.5917   -1.2144    0.9477 C   0  0  0  0  0  0  0  0  0  0  0  0
   -1.2934   -1.6540   -0.1985 O   0  0  0  0  0  0  0  0  0  0  0  0
   -2.4121   -2.3549    0.1838 N   0  0  0  0  0  0  0  0  0  0  0  0
   -3.0742   -2.7697   -0.8093 C   0  0  0  0  0  0  0  0  0  0  0  0
   -1.2112   -0.5497    1.5540 H   0  0  0  0  0  0  0  0  0  0  0  0
   -0.2639   -2.0617    1.5540 H   0  0  0  0  0  0  0  0  0  0  0  0
   -3.9723   -3.3324   -0.5924 H   0  0  0  0  0  0  0  0  0  0  0  0
   -2.7709   -2.5798   -1.8367 H   0  0  0  0  0  0  0  0  0  0  0  0
    1.4943    0.0926   -1.4739 C   0  0  0  0  0  0  0  0  0  0  0  0
    1.4943    0.0926    0.0461 C   0  0  0  0  0  3  0  0  0  0  0  0
    1.4943    1.4526    0.6710 C   0  0  0  0  0  0  0  0  0  0  0  0
    1.4784    2.5116   -0.0199 N   0  0  0  0  0  0  0  0  0  0  0  0
    1.4087    3.7155    0.6347 N   0  0  0  0  0  0  0  0  0  0  0  0
    2.3742    0.6041   -1.8648 H   0  0  0  0  0  0  0  0  0  0  0  0
    0.6181    0.6105   -1.8639 H   0  0  0  0  0  0  0  0  0  0  0  0
    1.4910   -0.9302   -1.8531 H   0  0  0  0  0  0  0  0  0  0  0  0
    0.4478   -0.5631    0.4984 H   0  0  0  0  0  0  0  0  0  0  0  0
    2.3634   -0.4570    0.4246 H   0  0  0  0  0  0  0  0  0  0  0  0
    1.4989    1.4949    1.7680 H   0  0  0  0  0  0  0  0  0  0  0  0
    1.8122    4.4387    0.0622 H   0  0  0  0  0  0  0  0  0  0  0  0
    1.8112    3.7109    1.5667 H   0  0  0  0  0  0  0  0  0  0  0  0
  1  2  1  0
  1  5  1  0
  1  6  1  0
  1 17  1  0
  2  3  1  0
  3  4  2  3
  4  7  1  0
  4  8  1  0
  9 10  1  0
  9 14  1  0
  9 15  1  0
  9 16  1  0
 10 11  1  0
 10 18  1  0
 11 12  2  3
 11 19  1  0
 12 13  1  0
 13 20  1  0
 13 21  1  0
M  RAD  1  10   2
M  END
>  <reaction>  (26) 
rmg_rxn_15703

>  <mol_properties>  (26) 
{"0": {"label": "*3", "atom_type": "Cs"}, "1": {"label": "*4", "atom_type": "O2s"}, "9": {"label": "*1", "atom_type": "Cs"}, "10": {"label": "*0", "atom_type": "Cd"}, "16": {"label": "*2", "atom_type": "H0"}}

>  <type>  (26) 
unop_22

>  <geom_source>  (26) 
Heuristics

$$$$

     RDKit          3D

 21 19  0  0  0  0  0  0  0  0999 V2000
   -1.2344   -1.6475   -0.4118 C   0  0  0  0  0  0  0  0  0  0  0  0
   -2.4350   -1.1056    0.0932 O   0  0  0  0  0  0  0  0  0  0  0  0
   -2.4277    0.2686    0.0596 N   0  0  0  0  0  0  0  0  0  0  0  0
   -3.4718    0.8493    0.4579 C   0  0  0  0  0  0  0  0  0  0  0  0
   -0.3463   -1.1311   -0.1041 H   0  0  0  0  0  0  0  0  0  0  0  0
   -1.2368   -2.7020   -0.1700 H   0  0  0  0  0  0  0  0  0  0  0  0
   -3.4677    1.9251    0.4375 H   0  0  0  0  0  0  0  0  0  0  0  0
   -4.3577    0.3334    0.8137 H   0  0  0  0  0  0  0  0  0  0  0  0
    3.1870   -1.3943    0.1776 C   0  0  0  0  0  0  0  0  0  0  0  0
    3.3304    0.0787    0.3088 C   0  0  0  0  0  3  0  0  0  0  0  0
    2.3145    0.9652    0.0989 C   0  0  0  0  0  0  0  0  0  0  0  0
    1.0878    0.5891   -0.2249 N   0  0  0  0  0  0  0  0  0  0  0  0
    0.1918    1.5424   -0.4921 N   0  0  0  0  0  0  0  0  0  0  0  0
    2.1887   -1.6424   -0.1683 H   0  0  0  0  0  0  0  0  0  0  0  0
    3.3655   -1.8838    1.1371 H   0  0  0  0  0  0  0  0  0  0  0  0
    3.9221   -1.7877   -0.5263 H   0  0  0  0  0  0  0  0  0  0  0  0
   -1.0839   -1.4586   -1.4818 H   0  0  0  0  0  0  0  0  0  0  0  0
    4.3000    0.4595    0.5923 H   0  0  0  0  0  0  0  0  0  0  0  0
    2.5233    2.0371    0.2114 H   0  0  0  0  0  0  0  0  0  0  0  0
   -0.7732    1.2343   -0.3925 H   0  0  0  0  0  0  0  0  0  0  0  0
    0.4085    2.5004   -0.2157 H   0  0  0  0  0  0  0  0  0  0  0  0
  1  2  1  0
  1  5  1  0
  1  6  1  0
  1 17  1  0
  2  3  1  0
  3  4  2  3
  4  7  1  0
  4  8  1  0
  9 10  1  0
  9 14  1  0
  9 15  1  0
  9 16  1  0
 10 11  1  0
 10 18  1  0
 11 12  2  3
 11 19  1  0
 12 13  1  0
 13 20  1  0
 13 21  1  0
M  RAD  1  10   2
M  END
>  <reaction>  (27) 
rmg_rxn_15703

>  <mol_properties>  (27) 
{"0": {"label": "*3", "atom_type": "Cs"}, "1": {"label": "*4", "atom_type": "O2s"}, "9": {"label": "*1", "atom_type": "Cs"}, "10": {"label": "*0", "atom_type": "Cd"}, "16": {"label": "*2", "atom_type": "H0"}}

>  <type>  (27) 
unop_23

>  <geom_source>  (27) 
Heuristics

$$$$

     RDKit          3D

 21 19  0  0  0  0  0  0  0  0999 V2000
    2.5005   -0.6138   -0.7670 O   0  0  0  0  0  0  0  0  0  0  0  0
   -2.5769    2.2035    0.3046 N   0  0  0  0  0  0  0  0  0  0  0  0
   -1.9167    1.0519   -0.1469 N   0  0  0  0  0  0  0  0  0  0  0  0
    3.7546   -0.0235   -0.7456 N   0  0  0  0  0  0  0  0  0  0  0  0
   -1.8111   -1.9106   -0.9165 C   0  0  0  0  0  0  0  0  0  0  0  0
    1.4134   -0.1901    0.0513 C   0  0  0  0  0  0  0  0  0  0  0  0
   -0.9818   -1.1634    0.1205 C   0  0  0  0  0  3  0  0  0  0  0  0
   -1.7072    0.0387    0.6327 C   0  0  0  0  0  0  0  0  0  0  0  0
    4.0877    0.9752    0.0132 C   0  0  0  0  0  0  0  0  0  0  0  0
   -2.7730   -2.2466   -0.4732 H   0  0  0  0  0  0  0  0  0  0  0  0
   -2.0143   -1.2563   -1.7905 H   0  0  0  0  0  0  0  0  0  0  0  0
   -1.2467   -2.8001   -1.2656 H   0  0  0  0  0  0  0  0  0  0  0  0
    1.1550    0.8655   -0.1757 H   0  0  0  0  0  0  0  0  0  0  0  0
    1.6801   -0.2970    1.1237 H   0  0  0  0  0  0  0  0  0  0  0  0
    0.3779   -0.9358   -0.1974 H   0  0  0  0  0  0  0  0  0  0  0  0
   -0.7440   -1.8448    0.9652 H   0  0  0  0  0  0  0  0  0  0  0  0
   -2.0260    0.0655    1.6683 H   0  0  0  0  0  0  0  0  0  0  0  0
    3.3874    1.4280    0.7012 H   0  0  0  0  0  0  0  0  0  0  0  0
    5.0926    1.3710   -0.0387 H   0  0  0  0  0  0  0  0  0  0  0  0
   -2.9232    2.2819    1.2876 H   0  0  0  0  0  0  0  0  0  0  0  0
   -2.7283    3.0007   -0.3513 H   0  0  0  0  0  0  0  0  0  0  0  0
  1  6  1  0
  1  4  1  0
  2  3  1  0
  2 20  1  0
  2 21  1  0
  3  8  2  3
  4  9  2  3
  5  7  1  0
  5 10  1  0
  5 11  1  0
  5 12  1  0
  6 13  1  0
  6 14  1  0
  6 15  1  0
  7  8  1  0
  7 16  1  0
  8 17  1  0
  9 18  1  0
  9 19  1  0
M  RAD  1   7   2
M  END
>  <reaction>  (28) 
rmg_rxn_15703

>  <mol_properties>  (28) 
{"0": {"label": "*3", "atom_type": "Cs"}, "1": {"label": "*4", "atom_type": "O2s"}, "9": {"label": "*1", "atom_type": "Cs"}, "10": {"label": "*0", "atom_type": "Cd"}, "16": {"label": "*2", "atom_type": "H0"}}

>  <type>  (28) 
unop_24

>  <geom_source>  (28) 
AutoTST

$$$$

     RDKit          3D

 21 19  0  0  0  0  0  0  0  0999 V2000
   -0.8455   -0.9159    0.8356 C   0  0  0  0  0  0  0  0  0  0  0  0
   -1.1327   -1.8990   -0.1394 O   0  0  0  0  0  0  0  0  0  0  0  0
   -1.9220   -2.8803    0.4110 N   0  0  0  0  0  0  0  0  0  0  0  0
   -2.2062   -3.7844   -0.4248 C   0  0  0  0  0  0  0  0  0  0  0  0
   -1.7621   -0.4440    1.1966 H   0  0  0  0  0  0  0  0  0  0  0  0
   -0.3015   -1.3486    1.6783 H   0  0  0  0  0  0  0  0  0  0  0  0
   -2.8264   -4.5962   -0.0687 H   0  0  0  0  0  0  0  0  0  0  0  0
   -1.8538   -3.7633   -1.4538 H   0  0  0  0  0  0  0  0  0  0  0  0
    1.2405    0.3911   -1.5859 C   0  0  0  0  0  0  0  0  0  0  0  0
    1.2405    0.3911   -0.0660 C   0  0  0  0  0  3  0  0  0  0  0  0
    1.2405    1.7511    0.5590 C   0  0  0  0  0  0  0  0  0  0  0  0
    1.2246    2.8101   -0.1319 N   0  0  0  0  0  0  0  0  0  0  0  0
    1.1549    4.0140    0.5227 N   0  0  0  0  0  0  0  0  0  0  0  0
    2.1204    0.9025   -1.9768 H   0  0  0  0  0  0  0  0  0  0  0  0
    0.3643    0.9090   -1.9760 H   0  0  0  0  0  0  0  0  0  0  0  0
    1.2372   -0.6317   -1.9651 H   0  0  0  0  0  0  0  0  0  0  0  0
    0.1940   -0.2646    0.3864 H   0  0  0  0  0  0  0  0  0  0  0  0
    2.1096   -0.1586    0.3126 H   0  0  0  0  0  0  0  0  0  0  0  0
    1.2451    1.7934    1.6560 H   0  0  0  0  0  0  0  0  0  0  0  0
    1.5584    4.7372   -0.0499 H   0  0  0  0  0  0  0  0  0  0  0  0
    1.5574    4.0094    1.4547 H   0  0  0  0  0  0  0  0  0  0  0  0
  1  2  1  0
  1  5  1  0
  1  6  1  0
  1 17  1  0
  2  3  1  0
  3  4  2  3
  4  7  1  0
  4  8  1  0
  9 10  1  0
  9 14  1  0
  9 15  1  0
  9 16  1  0
 10 11  1  0
 10 18  1  0
 11 12  2  3
 11 19  1  0
 12 13  1  0
 13 20  1  0
 13 21  1  0
M  RAD  1  10   2
M  END
>  <reaction>  (29) 
rmg_rxn_15703

>  <mol_properties>  (29) 
{"0": {"label": "*3", "atom_type": "Cs"}, "1": {"label": "*4", "atom_type": "O2s"}, "9": {"label": "*1", "atom_type": "Cs"}, "10": {"label": "*0", "atom_type": "Cd"}, "16": {"label": "*2", "atom_type": "H0"}}

>  <type>  (29) 
unop_25

>  <geom_source>  (29) 
gaussian_log

$$$$
