
     RDKit          3D

 18 17  0  0  0  0  0  0  0  0999 V2000
    2.2026   -0.7213   -0.2612 C   0  0  0  0  0  0  0  0  0  0  0  0
    1.5384    0.2638    0.6915 C   0  0  0  0  0  0  0  0  0  0  0  0
    2.2584    1.5946    0.7694 C   0  0  0  0  0  0  0  0  0  0  0  0
    2.2212    2.2185   -0.4893 O   0  0  0  0  0  0  0  0  0  0  0  0
    2.8988    3.4488   -0.5204 C   0  0  0  0  0  0  0  0  0  0  0  0
    2.7981    4.0296   -1.9118 C   0  0  0  0  0  0  0  0  0  0  0  0
    3.2294   -0.9309    0.0486 H   0  0  0  0  0  0  0  0  0  0  0  0
    2.2338   -0.3181   -1.2734 H   0  0  0  0  0  0  0  0  0  0  0  0
    1.6610   -1.6680   -0.2875 H   0  0  0  0  0  0  0  0  0  0  0  0
    1.4990   -0.1566    1.7002 H   0  0  0  0  0  0  0  0  0  0  0  0
    0.5055    0.4455    0.3835 H   0  0  0  0  0  0  0  0  0  0  0  0
    3.3038    1.4410    1.0808 H   0  0  0  0  0  0  0  0  0  0  0  0
    1.7844    2.2410    1.5226 H   0  0  0  0  0  0  0  0  0  0  0  0
    2.4596    4.1376    0.2164 H   0  0  0  0  0  0  0  0  0  0  0  0
    3.9524    3.3035   -0.2397 H   0  0  0  0  0  0  0  0  0  0  0  0
    1.7543    4.1869   -2.1856 H   0  0  0  0  0  0  0  0  0  0  0  0
    3.2472    3.3545   -2.6411 H   0  0  0  0  0  0  0  0  0  0  0  0
    3.3178    4.9878   -1.9600 H   0  0  0  0  0  0  0  0  0  0  0  0
  1  2  1  0
  1  7  1  0
  1  8  1  0
  1  9  1  0
  2  3  1  0
  2 10  1  0
  2 11  1  0
  3  4  1  0
  3 12  1  0
  3 13  1  0
  4  5  1  0
  5  6  1  0
  5 14  1  0
  5 15  1  0
  6 16  1  0
  6 17  1  0
  6 18  1  0
M  END
>  <reaction>  (1) 
rmg_rxn_15427

>  <mol_properties>  (1) 
{"2": {"label": "donator", "atom_type": "Cs"}, "11": {"label": "d_hydrogen", "atom_type": "H0"}}

>  <type>  (1) 
r1h

$$$$

     RDKit          3D

  5  4  0  0  0  0  0  0  0  0999 V2000
    0.8934    0.3742    0.4948 O   0  0  0  0  0  0  0  0  0  0  0  0
    0.1582   -0.1610   -0.5904 N   0  0  0  0  0  0  0  0  0  0  0  0
   -1.0297   -0.3739   -0.4689 C   0  0  0  0  0  3  0  0  0  0  0  0
    1.7804    0.4382    0.1306 H   0  0  0  0  0  0  0  0  0  0  0  0
   -1.8023   -0.2775    0.2859 H   0  0  0  0  0  0  0  0  0  0  0  0
  1  2  1  0
  1  4  1  0
  2  3  2  3
  3  5  1  0
M  RAD  1   3   2
M  END
>  <reaction>  (2) 
rmg_rxn_15427

>  <mol_properties>  (2) 
{"2": {"label": "acceptor", "atom_type": "Cd"}}

>  <type>  (2) 
r2

$$$$

     RDKit          3D

  6  5  0  0  0  0  0  0  0  0999 V2000
    1.2314    0.0428    0.5088 O   0  0  0  0  0  0  0  0  0  0  0  0
    0.2987    0.2341   -0.4915 N   0  0  0  0  0  0  0  0  0  0  0  0
   -0.8599   -0.1122   -0.1290 C   0  0  0  0  0  0  0  0  0  0  0  0
    2.0507    0.3401    0.1082 H   0  0  0  0  0  0  0  0  0  0  0  0
   -1.0700   -0.5112    0.8610 H   0  0  0  0  0  0  0  0  0  0  0  0
   -1.6509    0.0064   -0.8574 H   0  0  0  0  0  0  0  0  0  0  0  0
  1  2  1  0
  1  4  1  0
  2  3  2  3
  3  5  1  0
  3  6  1  0
M  END
>  <reaction>  (3) 
rmg_rxn_15427

>  <mol_properties>  (3) 
{"2": {"label": "acceptor", "atom_type": "Cd"}, "5": {"label": "a_hydrogen", "atom_type": "H0"}}

>  <type>  (3) 
r2h

$$$$

     RDKit          3D

 23 21  0  0  0  0  0  0  0  0999 V2000
    3.4496    1.6908   -0.6631 O   0  0  0  0  0  0  0  0  0  0  0  0
    2.3569    1.1451    0.0343 N   0  0  0  0  0  0  0  0  0  0  0  0
    1.6788    0.3430   -0.6303 C   0  0  0  0  0  3  0  0  0  0  0  0
    3.8497    2.2675   -0.0082 H   0  0  0  0  0  0  0  0  0  0  0  0
    1.8347    0.0310   -1.6634 H   0  0  0  0  0  0  0  0  0  0  0  0
   -0.6669   -2.6153   -0.6967 C   0  0  0  0  0  0  0  0  0  0  0  0
   -0.4441   -2.1358    0.7324 C   0  0  0  0  0  0  0  0  0  0  0  0
   -0.4037   -0.6349    0.8596 C   0  0  0  0  0  0  0  0  0  0  0  0
   -1.5719   -0.0556    0.4098 O   0  0  0  0  0  0  0  0  0  0  0  0
   -1.6256    1.3458    0.5885 C   0  0  0  0  0  0  0  0  0  0  0  0
   -2.9431    1.8536    0.0538 C   0  0  0  0  0  0  0  0  0  0  0  0
    0.1336   -2.2671   -1.3531 H   0  0  0  0  0  0  0  0  0  0  0  0
   -1.6111   -2.2391   -1.0898 H   0  0  0  0  0  0  0  0  0  0  0  0
   -0.6875   -3.7048   -0.7423 H   0  0  0  0  0  0  0  0  0  0  0  0
    0.5007   -2.5259    1.1194 H   0  0  0  0  0  0  0  0  0  0  0  0
   -1.2359   -2.5213    1.3831 H   0  0  0  0  0  0  0  0  0  0  0  0
    0.5325   -0.2261    0.1630 H   0  0  0  0  0  0  0  0  0  0  0  0
   -0.1301   -0.2905    1.8662 H   0  0  0  0  0  0  0  0  0  0  0  0
   -1.5196    1.5818    1.6557 H   0  0  0  0  0  0  0  0  0  0  0  0
   -0.7830    1.8127    0.0643 H   0  0  0  0  0  0  0  0  0  0  0  0
   -3.7773    1.3897    0.5812 H   0  0  0  0  0  0  0  0  0  0  0  0
   -3.0380    1.6283   -1.0089 H   0  0  0  0  0  0  0  0  0  0  0  0
   -3.0081    2.9347    0.1851 H   0  0  0  0  0  0  0  0  0  0  0  0
  1  2  1  0
  1  4  1  0
  2  3  2  3
  3  5  1  0
  6  7  1  0
  6 12  1  0
  6 13  1  0
  6 14  1  0
  7  8  1  0
  7 15  1  0
  7 16  1  0
  8  9  1  0
  8 17  1  0
  8 18  1  0
  9 10  1  0
 10 11  1  0
 10 19  1  0
 10 20  1  0
 11 21  1  0
 11 22  1  0
 11 23  1  0
M  RAD  1   3   2
M  END
>  <reaction>  (4) 
rmg_rxn_15427

>  <mol_properties>  (4) 
{"1": {"label": "*4", "atom_type": "N3d"}, "2": {"label": "*3", "atom_type": "Cd"}, "7": {"label": "*1", "atom_type": "Cs"}, "8": {"label": "*0", "atom_type": "O2s"}, "16": {"label": "*2", "atom_type": "H0"}}

>  <type>  (4) 
ts

$$$$

     RDKit          3D

 23 21  0  0  0  0  0  0  0  0999 V2000
    3.7091   -0.7999    0.0494 O   0  0  0  0  0  0  0  0  0  0  0  0
    2.3609   -0.4154    0.2434 N   0  0  0  0  0  0  0  0  0  0  0  0
    1.4661   -1.0620   -0.3245 C   0  0  0  0  0  0  0  0  0  0  0  0
    4.2171   -0.1646    0.5714 H   0  0  0  0  0  0  0  0  0  0  0  0
    1.5772   -1.9212   -0.9764 H   0  0  0  0  0  0  0  0  0  0  0  0
   -3.3031   -1.3496    0.2928 C   0  0  0  0  0  0  0  0  0  0  0  0
   -1.8662   -1.4660   -0.2218 C   0  0  0  0  0  0  0  0  0  0  0  0
   -1.0118   -0.3043    0.2314 C   0  0  0  0  0  3  0  0  0  0  0  0
   -1.3393    0.8585   -0.4421 O   0  0  0  0  0  0  0  0  0  0  0  0
   -0.9493    2.0722    0.1580 C   0  0  0  0  0  0  0  0  0  0  0  0
    0.5321    2.3877   -0.0297 C   0  0  0  0  0  0  0  0  0  0  0  0
   -3.9010   -2.1837   -0.0662 H   0  0  0  0  0  0  0  0  0  0  0  0
   -3.7485   -0.4229   -0.0596 H   0  0  0  0  0  0  0  0  0  0  0  0
   -3.3208   -1.3535    1.3806 H   0  0  0  0  0  0  0  0  0  0  0  0
   -1.8748   -1.4837   -1.3124 H   0  0  0  0  0  0  0  0  0  0  0  0
   -1.4218   -2.3953    0.1395 H   0  0  0  0  0  0  0  0  0  0  0  0
    0.2672   -0.6644   -0.0725 H   0  0  0  0  0  0  0  0  0  0  0  0
   -0.9840   -0.1731    1.3187 H   0  0  0  0  0  0  0  0  0  0  0  0
   -1.5602    2.8367   -0.3310 H   0  0  0  0  0  0  0  0  0  0  0  0
   -1.1948    2.0552    1.2301 H   0  0  0  0  0  0  0  0  0  0  0  0
    1.1506    1.6385    0.4583 H   0  0  0  0  0  0  0  0  0  0  0  0
    0.7496    3.3648    0.3928 H   0  0  0  0  0  0  0  0  0  0  0  0
    0.7755    2.3985   -1.0890 H   0  0  0  0  0  0  0  0  0  0  0  0
  1  2  1  0
  1  4  1  0
  2  3  2  3
  3  5  1  0
  3 17  1  0
  6  7  1  0
  6 12  1  0
  6 13  1  0
  6 14  1  0
  7  8  1  0
  7 15  1  0
  7 16  1  0
  8  9  1  0
  8 18  1  0
  9 10  1  0
 10 11  1  0
 10 19  1  0
 10 20  1  0
 11 21  1  0
 11 22  1  0
 11 23  1  0
M  RAD  1   8   2
M  END
>  <reaction>  (5) 
rmg_rxn_15427

>  <mol_properties>  (5) 
{"1": {"label": "*4", "atom_type": "N3d"}, "2": {"label": "*3", "atom_type": "Cd"}, "7": {"label": "*1", "atom_type": "Cs"}, "8": {"label": "*0", "atom_type": "O2s"}, "16": {"label": "*2", "atom_type": "H0"}}

>  <type>  (5) 
unop_1

>  <geom_source>  (5) 
crest_best.xyz

$$$$

     RDKit          3D

 23 21  0  0  0  0  0  0  0  0999 V2000
    2.4917    2.3156   -0.3661 O   0  0  0  0  0  0  0  0  0  0  0  0
    1.6512    1.2862   -0.7416 N   0  0  0  0  0  0  0  0  0  0  0  0
    1.8893    0.2249   -0.1009 C   0  0  0  0  0  0  0  0  0  0  0  0
    2.2081    3.0465   -0.9187 H   0  0  0  0  0  0  0  0  0  0  0  0
    2.6709    0.1575    0.6529 H   0  0  0  0  0  0  0  0  0  0  0  0
   -0.1900   -2.5122   -1.3621 C   0  0  0  0  0  0  0  0  0  0  0  0
   -0.1900   -2.5122    0.1608 C   0  0  0  0  0  0  0  0  0  0  0  0
   -0.1900   -1.1192    0.7563 C   0  0  0  0  0  3  0  0  0  0  0  0
   -1.3730   -0.4556    0.3887 O   0  0  0  0  0  0  0  0  0  0  0  0
   -1.4437    0.8625    0.8696 C   0  0  0  0  0  0  0  0  0  0  0  0
   -2.7470    1.4803    0.4188 C   0  0  0  0  0  0  0  0  0  0  0  0
    0.6921   -1.9979   -1.7517 H   0  0  0  0  0  0  0  0  0  0  0  0
   -1.0727   -2.0026   -1.7482 H   0  0  0  0  0  0  0  0  0  0  0  0
   -0.1845   -3.5301   -1.7548 H   0  0  0  0  0  0  0  0  0  0  0  0
    0.6915   -3.0387    0.5371 H   0  0  0  0  0  0  0  0  0  0  0  0
   -1.0644   -3.0502    0.5361 H   0  0  0  0  0  0  0  0  0  0  0  0
    0.8591   -0.4411    0.3238 H   0  0  0  0  0  0  0  0  0  0  0  0
   -0.1152   -1.1731    1.8524 H   0  0  0  0  0  0  0  0  0  0  0  0
   -1.3764    0.8653    1.9677 H   0  0  0  0  0  0  0  0  0  0  0  0
   -0.5908    1.4455    0.4917 H   0  0  0  0  0  0  0  0  0  0  0  0
   -3.5934    0.9109    0.8045 H   0  0  0  0  0  0  0  0  0  0  0  0
   -2.8078    1.4921   -0.6700 H   0  0  0  0  0  0  0  0  0  0  0  0
   -2.8246    2.5063    0.7818 H   0  0  0  0  0  0  0  0  0  0  0  0
  1  2  1  0
  1  4  1  0
  2  3  2  3
  3  5  1  0
  3 17  1  0
  6  7  1  0
  6 12  1  0
  6 13  1  0
  6 14  1  0
  7  8  1  0
  7 15  1  0
  7 16  1  0
  8  9  1  0
  8 18  1  0
  9 10  1  0
 10 11  1  0
 10 19  1  0
 10 20  1  0
 11 21  1  0
 11 22  1  0
 11 23  1  0
M  RAD  1   8   2
M  END
>  <reaction>  (6) 
rmg_rxn_15427

>  <mol_properties>  (6) 
{"1": {"label": "*4", "atom_type": "N3d"}, "2": {"label": "*3", "atom_type": "Cd"}, "7": {"label": "*1", "atom_type": "Cs"}, "8": {"label": "*0", "atom_type": "O2s"}, "16": {"label": "*2", "atom_type": "H0"}}

>  <type>  (6) 
unop_2

>  <geom_source>  (6) 
Heuristics

$$$$

     RDKit          3D

 23 21  0  0  0  0  0  0  0  0999 V2000
    3.7089   -0.8007    0.0496 O   0  0  0  0  0  0  0  0  0  0  0  0
    2.3609   -0.4146    0.2420 N   0  0  0  0  0  0  0  0  0  0  0  0
    1.4656   -1.0632   -0.3229 C   0  0  0  0  0  0  0  0  0  0  0  0
    4.2172   -0.1629    0.5683 H   0  0  0  0  0  0  0  0  0  0  0  0
    1.5760   -1.9256   -0.9707 H   0  0  0  0  0  0  0  0  0  0  0  0
   -3.3028   -1.3504    0.2935 C   0  0  0  0  0  0  0  0  0  0  0  0
   -1.8664   -1.4653   -0.2226 C   0  0  0  0  0  0  0  0  0  0  0  0
   -1.0121   -0.3037    0.2311 C   0  0  0  0  0  3  0  0  0  0  0  0
   -1.3392    0.8591   -0.4425 O   0  0  0  0  0  0  0  0  0  0  0  0
   -0.9490    2.0727    0.1577 C   0  0  0  0  0  0  0  0  0  0  0  0
    0.5327    2.3875   -0.0288 C   0  0  0  0  0  0  0  0  0  0  0  0
   -3.3195   -1.3562    1.3813 H   0  0  0  0  0  0  0  0  0  0  0  0
   -3.9006   -2.1843   -0.0663 H   0  0  0  0  0  0  0  0  0  0  0  0
   -3.7492   -0.4234   -0.0570 H   0  0  0  0  0  0  0  0  0  0  0  0
   -1.8759   -1.4818   -1.3132 H   0  0  0  0  0  0  0  0  0  0  0  0
   -1.4212   -2.3949    0.1372 H   0  0  0  0  0  0  0  0  0  0  0  0
    0.2670   -0.6643   -0.0721 H   0  0  0  0  0  0  0  0  0  0  0  0
   -0.9848   -0.1726    1.3184 H   0  0  0  0  0  0  0  0  0  0  0  0
   -1.5590    2.8374   -0.3321 H   0  0  0  0  0  0  0  0  0  0  0  0
   -1.1955    2.0561    1.2295 H   0  0  0  0  0  0  0  0  0  0  0  0
    0.7768    2.3999   -1.0879 H   0  0  0  0  0  0  0  0  0  0  0  0
    1.1504    1.6370    0.4583 H   0  0  0  0  0  0  0  0  0  0  0  0
    0.7507    3.3637    0.3955 H   0  0  0  0  0  0  0  0  0  0  0  0
  1  2  1  0
  1  4  1  0
  2  3  2  3
  3  5  1  0
  3 17  1  0
  6  7  1  0
  6 12  1  0
  6 13  1  0
  6 14  1  0
  7  8  1  0
  7 15  1  0
  7 16  1  0
  8  9  1  0
  8 18  1  0
  9 10  1  0
 10 11  1  0
 10 19  1  0
 10 20  1  0
 11 21  1  0
 11 22  1  0
 11 23  1  0
M  RAD  1   8   2
M  END
>  <reaction>  (7) 
rmg_rxn_15427

>  <mol_properties>  (7) 
{"1": {"label": "*4", "atom_type": "N3d"}, "2": {"label": "*3", "atom_type": "Cd"}, "7": {"label": "*1", "atom_type": "Cs"}, "8": {"label": "*0", "atom_type": "O2s"}, "16": {"label": "*2", "atom_type": "H0"}}

>  <type>  (7) 
unop_3

>  <geom_source>  (7) 
Heuristics

$$$$

     RDKit          3D

 23 21  0  0  0  0  0  0  0  0999 V2000
    3.7091   -0.7997    0.0493 O   0  0  0  0  0  0  0  0  0  0  0  0
    2.3610   -0.4145    0.2423 N   0  0  0  0  0  0  0  0  0  0  0  0
    1.4661   -1.0629   -0.3233 C   0  0  0  0  0  0  0  0  0  0  0  0
    4.2172   -0.1623    0.5687 H   0  0  0  0  0  0  0  0  0  0  0  0
    1.5771   -1.9241   -0.9726 H   0  0  0  0  0  0  0  0  0  0  0  0
   -3.3032   -1.3489    0.2932 C   0  0  0  0  0  0  0  0  0  0  0  0
   -1.8664   -1.4660   -0.2212 C   0  0  0  0  0  0  0  0  0  0  0  0
   -1.0118   -0.3041    0.2312 C   0  0  0  0  0  3  0  0  0  0  0  0
   -1.3390    0.8582   -0.4432 O   0  0  0  0  0  0  0  0  0  0  0  0
   -0.9497    2.0723    0.1565 C   0  0  0  0  0  0  0  0  0  0  0  0
    0.5324    2.3867   -0.0276 C   0  0  0  0  0  0  0  0  0  0  0  0
   -3.3210   -1.3525    1.3810 H   0  0  0  0  0  0  0  0  0  0  0  0
   -3.9015   -2.1829   -0.0656 H   0  0  0  0  0  0  0  0  0  0  0  0
   -3.7483   -0.4221   -0.0595 H   0  0  0  0  0  0  0  0  0  0  0  0
   -1.8749   -1.4844   -1.3118 H   0  0  0  0  0  0  0  0  0  0  0  0
   -1.4222   -2.3952    0.1407 H   0  0  0  0  0  0  0  0  0  0  0  0
    0.2672   -0.6647   -0.0722 H   0  0  0  0  0  0  0  0  0  0  0  0
   -0.9842   -0.1722    1.3184 H   0  0  0  0  0  0  0  0  0  0  0  0
   -1.5587    2.8366   -0.3350 H   0  0  0  0  0  0  0  0  0  0  0  0
   -1.1980    2.0567    1.2279 H   0  0  0  0  0  0  0  0  0  0  0  0
    1.1492    1.6376    0.4629 H   0  0  0  0  0  0  0  0  0  0  0  0
    0.7494    3.3641    0.3944 H   0  0  0  0  0  0  0  0  0  0  0  0
    0.7787    2.3960   -1.0862 H   0  0  0  0  0  0  0  0  0  0  0  0
  1  2  1  0
  1  4  1  0
  2  3  2  3
  3  5  1  0
  3 17  1  0
  6  7  1  0
  6 12  1  0
  6 13  1  0
  6 14  1  0
  7  8  1  0
  7 15  1  0
  7 16  1  0
  8  9  1  0
  8 18  1  0
  9 10  1  0
 10 11  1  0
 10 19  1  0
 10 20  1  0
 11 21  1  0
 11 22  1  0
 11 23  1  0
M  RAD  1   8   2
M  END
>  <reaction>  (8) 
rmg_rxn_15427

>  <mol_properties>  (8) 
{"1": {"label": "*4", "atom_type": "N3d"}, "2": {"label": "*3", "atom_type": "Cd"}, "7": {"label": "*1", "atom_type": "Cs"}, "8": {"label": "*0", "atom_type": "O2s"}, "16": {"label": "*2", "atom_type": "H0"}}

>  <type>  (8) 
unop_4

>  <geom_source>  (8) 
Heuristics

$$$$

     RDKit          3D

 23 21  0  0  0  0  0  0  0  0999 V2000
    2.9766    1.2429   -1.5308 O   0  0  0  0  0  0  0  0  0  0  0  0
    2.1662    0.2527   -1.0113 N   0  0  0  0  0  0  0  0  0  0  0  0
    1.7363    0.5492    0.1379 C   0  0  0  0  0  0  0  0  0  0  0  0
    3.2288    0.8961   -2.3888 H   0  0  0  0  0  0  0  0  0  0  0  0
    1.9905    1.4821    0.6367 H   0  0  0  0  0  0  0  0  0  0  0  0
   -0.3430   -2.1879   -1.1233 C   0  0  0  0  0  0  0  0  0  0  0  0
   -0.3430   -2.1879    0.3996 C   0  0  0  0  0  0  0  0  0  0  0  0
   -0.3430   -0.7949    0.9951 C   0  0  0  0  0  3  0  0  0  0  0  0
   -1.5260   -0.1313    0.6275 O   0  0  0  0  0  0  0  0  0  0  0  0
   -1.5967    1.1868    1.1084 C   0  0  0  0  0  0  0  0  0  0  0  0
   -2.9000    1.8046    0.6576 C   0  0  0  0  0  0  0  0  0  0  0  0
    0.5391   -1.6736   -1.5129 H   0  0  0  0  0  0  0  0  0  0  0  0
   -1.2257   -1.6782   -1.5094 H   0  0  0  0  0  0  0  0  0  0  0  0
   -0.3375   -3.2058   -1.5160 H   0  0  0  0  0  0  0  0  0  0  0  0
    0.5386   -2.7144    0.7759 H   0  0  0  0  0  0  0  0  0  0  0  0
   -1.2173   -2.7259    0.7749 H   0  0  0  0  0  0  0  0  0  0  0  0
    0.7061   -0.1168    0.5627 H   0  0  0  0  0  0  0  0  0  0  0  0
   -0.2682   -0.8488    2.0912 H   0  0  0  0  0  0  0  0  0  0  0  0
   -1.5294    1.1896    2.2065 H   0  0  0  0  0  0  0  0  0  0  0  0
   -0.7438    1.7698    0.7305 H   0  0  0  0  0  0  0  0  0  0  0  0
   -3.7464    1.2352    1.0433 H   0  0  0  0  0  0  0  0  0  0  0  0
   -2.9608    1.8164   -0.4312 H   0  0  0  0  0  0  0  0  0  0  0  0
   -2.9776    2.8306    1.0206 H   0  0  0  0  0  0  0  0  0  0  0  0
  1  2  1  0
  1  4  1  0
  2  3  2  3
  3  5  1  0
  3 17  1  0
  6  7  1  0
  6 12  1  0
  6 13  1  0
  6 14  1  0
  7  8  1  0
  7 15  1  0
  7 16  1  0
  8  9  1  0
  8 18  1  0
  9 10  1  0
 10 11  1  0
 10 19  1  0
 10 20  1  0
 11 21  1  0
 11 22  1  0
 11 23  1  0
M  RAD  1   8   2
M  END
>  <reaction>  (9) 
rmg_rxn_15427

>  <mol_properties>  (9) 
{"1": {"label": "*4", "atom_type": "N3d"}, "2": {"label": "*3", "atom_type": "Cd"}, "7": {"label": "*1", "atom_type": "Cs"}, "8": {"label": "*0", "atom_type": "O2s"}, "16": {"label": "*2", "atom_type": "H0"}}

>  <type>  (9) 
unop_5

>  <geom_source>  (9) 
Heuristics

$$$$

     RDKit          3D

 23 21  0  0  0  0  0  0  0  0999 V2000
   -3.7097    0.7984    0.0493 O   0  0  0  0  0  0  0  0  0  0  0  0
   -2.3613    0.4148    0.2437 N   0  0  0  0  0  0  0  0  0  0  0  0
   -1.4670    1.0606   -0.3259 C   0  0  0  0  0  0  0  0  0  0  0  0
   -4.2173    0.1638    0.5726 H   0  0  0  0  0  0  0  0  0  0  0  0
   -1.5792    1.9185   -0.9794 H   0  0  0  0  0  0  0  0  0  0  0  0
    3.3022    1.3498    0.2935 C   0  0  0  0  0  0  0  0  0  0  0  0
    1.8652    1.4672   -0.2201 C   0  0  0  0  0  0  0  0  0  0  0  0
    1.0111    0.3044    0.2309 C   0  0  0  0  0  3  0  0  0  0  0  0
    1.3396   -0.8573   -0.4439 O   0  0  0  0  0  0  0  0  0  0  0  0
    0.9518   -2.0720    0.1557 C   0  0  0  0  0  0  0  0  0  0  0  0
   -0.5304   -2.3871   -0.0265 C   0  0  0  0  0  0  0  0  0  0  0  0
    3.7472    0.4235   -0.0603 H   0  0  0  0  0  0  0  0  0  0  0  0
    3.3206    1.3523    1.3814 H   0  0  0  0  0  0  0  0  0  0  0  0
    3.9002    2.1842   -0.0647 H   0  0  0  0  0  0  0  0  0  0  0  0
    1.8732    1.4875   -1.3106 H   0  0  0  0  0  0  0  0  0  0  0  0
    1.4207    2.3957    0.1436 H   0  0  0  0  0  0  0  0  0  0  0  0
   -0.2680    0.6641   -0.0736 H   0  0  0  0  0  0  0  0  0  0  0  0
    0.9826    0.1719    1.3180 H   0  0  0  0  0  0  0  0  0  0  0  0
    1.5605   -2.8357   -0.3372 H   0  0  0  0  0  0  0  0  0  0  0  0
    1.2017   -2.0569    1.2267 H   0  0  0  0  0  0  0  0  0  0  0  0
   -0.7464   -3.3644    0.3962 H   0  0  0  0  0  0  0  0  0  0  0  0
   -0.7782   -2.3969   -1.0847 H   0  0  0  0  0  0  0  0  0  0  0  0
   -1.1469   -1.6382    0.4646 H   0  0  0  0  0  0  0  0  0  0  0  0
  1  2  1  0
  1  4  1  0
  2  3  2  3
  3  5  1  0
  3 17  1  0
  6  7  1  0
  6 12  1  0
  6 13  1  0
  6 14  1  0
  7  8  1  0
  7 15  1  0
  7 16  1  0
  8  9  1  0
  8 18  1  0
  9 10  1  0
 10 11  1  0
 10 19  1  0
 10 20  1  0
 11 21  1  0
 11 22  1  0
 11 23  1  0
M  RAD  1   8   2
M  END
>  <reaction>  (10) 
rmg_rxn_15427

>  <mol_properties>  (10) 
{"1": {"label": "*4", "atom_type": "N3d"}, "2": {"label": "*3", "atom_type": "Cd"}, "7": {"label": "*1", "atom_type": "Cs"}, "8": {"label": "*0", "atom_type": "O2s"}, "16": {"label": "*2", "atom_type": "H0"}}

>  <type>  (10) 
unop_6

>  <geom_source>  (10) 
Heuristics

$$$$

     RDKit          3D

 23 21  0  0  0  0  0  0  0  0999 V2000
    2.8619    2.1496   -0.0478 O   0  0  0  0  0  0  0  0  0  0  0  0
    1.6836    1.4792   -0.3110 N   0  0  0  0  0  0  0  0  0  0  0  0
    1.8205    0.2281   -0.2136 C   0  0  0  0  0  0  0  0  0  0  0  0
    2.6213    3.0719   -0.1549 H   0  0  0  0  0  0  0  0  0  0  0  0
    2.7670   -0.2398    0.0485 H   0  0  0  0  0  0  0  0  0  0  0  0
   -0.2588   -2.5090   -1.4748 C   0  0  0  0  0  0  0  0  0  0  0  0
   -0.2588   -2.5090    0.0481 C   0  0  0  0  0  0  0  0  0  0  0  0
   -0.2588   -1.1159    0.6436 C   0  0  0  0  0  3  0  0  0  0  0  0
   -1.4418   -0.4523    0.2760 O   0  0  0  0  0  0  0  0  0  0  0  0
   -1.5125    0.8657    0.7569 C   0  0  0  0  0  0  0  0  0  0  0  0
   -2.8159    1.4835    0.3061 C   0  0  0  0  0  0  0  0  0  0  0  0
    0.6233   -1.9947   -1.8644 H   0  0  0  0  0  0  0  0  0  0  0  0
   -1.1415   -1.9993   -1.8609 H   0  0  0  0  0  0  0  0  0  0  0  0
   -0.2533   -3.5269   -1.8675 H   0  0  0  0  0  0  0  0  0  0  0  0
    0.6227   -3.0355    0.4244 H   0  0  0  0  0  0  0  0  0  0  0  0
   -1.1332   -3.0470    0.4234 H   0  0  0  0  0  0  0  0  0  0  0  0
    0.7902   -0.4378    0.2111 H   0  0  0  0  0  0  0  0  0  0  0  0
   -0.1840   -1.1698    1.7396 H   0  0  0  0  0  0  0  0  0  0  0  0
   -1.4453    0.8686    1.8550 H   0  0  0  0  0  0  0  0  0  0  0  0
   -0.6597    1.4487    0.3790 H   0  0  0  0  0  0  0  0  0  0  0  0
   -3.6622    0.9141    0.6917 H   0  0  0  0  0  0  0  0  0  0  0  0
   -2.8767    1.4954   -0.7828 H   0  0  0  0  0  0  0  0  0  0  0  0
   -2.8935    2.5095    0.6691 H   0  0  0  0  0  0  0  0  0  0  0  0
  1  2  1  0
  1  4  1  0
  2  3  2  3
  3  5  1  0
  3 17  1  0
  6  7  1  0
  6 12  1  0
  6 13  1  0
  6 14  1  0
  7  8  1  0
  7 15  1  0
  7 16  1  0
  8  9  1  0
  8 18  1  0
  9 10  1  0
 10 11  1  0
 10 19  1  0
 10 20  1  0
 11 21  1  0
 11 22  1  0
 11 23  1  0
M  RAD  1   8   2
M  END
>  <reaction>  (11) 
rmg_rxn_15427

>  <mol_properties>  (11) 
{"1": {"label": "*4", "atom_type": "N3d"}, "2": {"label": "*3", "atom_type": "Cd"}, "7": {"label": "*1", "atom_type": "Cs"}, "8": {"label": "*0", "atom_type": "O2s"}, "16": {"label": "*2", "atom_type": "H0"}}

>  <type>  (11) 
unop_7

>  <geom_source>  (11) 
Heuristics

$$$$

     RDKit          3D

 23 21  0  0  0  0  0  0  0  0999 V2000
    3.6373    1.0978    0.1593 O   0  0  0  0  0  0  0  0  0  0  0  0
    2.6870    0.1117   -0.0177 N   0  0  0  0  0  0  0  0  0  0  0  0
    1.5520    0.5932   -0.2887 C   0  0  0  0  0  0  0  0  0  0  0  0
    4.4358    0.6039    0.3555 H   0  0  0  0  0  0  0  0  0  0  0  0
    1.3722    1.6633   -0.3672 H   0  0  0  0  0  0  0  0  0  0  0  0
   -0.5273   -2.1439   -1.5499 C   0  0  0  0  0  0  0  0  0  0  0  0
   -0.5273   -2.1439   -0.0270 C   0  0  0  0  0  0  0  0  0  0  0  0
   -0.5273   -0.7508    0.5685 C   0  0  0  0  0  3  0  0  0  0  0  0
   -1.7103   -0.0872    0.2009 O   0  0  0  0  0  0  0  0  0  0  0  0
   -1.7810    1.2308    0.6818 C   0  0  0  0  0  0  0  0  0  0  0  0
   -3.0844    1.8486    0.2310 C   0  0  0  0  0  0  0  0  0  0  0  0
    0.3547   -1.6296   -1.9395 H   0  0  0  0  0  0  0  0  0  0  0  0
   -1.4101   -1.6342   -1.9360 H   0  0  0  0  0  0  0  0  0  0  0  0
   -0.5219   -3.1618   -1.9426 H   0  0  0  0  0  0  0  0  0  0  0  0
    0.3542   -2.6704    0.3493 H   0  0  0  0  0  0  0  0  0  0  0  0
   -1.4017   -2.6819    0.3483 H   0  0  0  0  0  0  0  0  0  0  0  0
    0.5217   -0.0727    0.1360 H   0  0  0  0  0  0  0  0  0  0  0  0
   -0.4525   -0.8048    1.6646 H   0  0  0  0  0  0  0  0  0  0  0  0
   -1.7138    1.2337    1.7799 H   0  0  0  0  0  0  0  0  0  0  0  0
   -0.9282    1.8138    0.3039 H   0  0  0  0  0  0  0  0  0  0  0  0
   -3.9307    1.2792    0.6167 H   0  0  0  0  0  0  0  0  0  0  0  0
   -3.1452    1.8605   -0.8578 H   0  0  0  0  0  0  0  0  0  0  0  0
   -3.1620    2.8746    0.5940 H   0  0  0  0  0  0  0  0  0  0  0  0
  1  2  1  0
  1  4  1  0
  2  3  2  3
  3  5  1  0
  3 17  1  0
  6  7  1  0
  6 12  1  0
  6 13  1  0
  6 14  1  0
  7  8  1  0
  7 15  1  0
  7 16  1  0
  8  9  1  0
  8 18  1  0
  9 10  1  0
 10 11  1  0
 10 19  1  0
 10 20  1  0
 11 21  1  0
 11 22  1  0
 11 23  1  0
M  RAD  1   8   2
M  END
>  <reaction>  (12) 
rmg_rxn_15427

>  <mol_properties>  (12) 
{"1": {"label": "*4", "atom_type": "N3d"}, "2": {"label": "*3", "atom_type": "Cd"}, "7": {"label": "*1", "atom_type": "Cs"}, "8": {"label": "*0", "atom_type": "O2s"}, "16": {"label": "*2", "atom_type": "H0"}}

>  <type>  (12) 
unop_8

>  <geom_source>  (12) 
Heuristics

$$$$

     RDKit          3D

 23 21  0  0  0  0  0  0  0  0999 V2000
    3.7094   -0.8002    0.0520 O   0  0  0  0  0  0  0  0  0  0  0  0
    2.3612   -0.4146    0.2433 N   0  0  0  0  0  0  0  0  0  0  0  0
    1.4672   -1.0587   -0.3288 C   0  0  0  0  0  0  0  0  0  0  0  0
    4.2166   -0.1674    0.5778 H   0  0  0  0  0  0  0  0  0  0  0  0
    1.5793   -1.9163   -0.9825 H   0  0  0  0  0  0  0  0  0  0  0  0
   -3.2998   -1.3549    0.2960 C   0  0  0  0  0  0  0  0  0  0  0  0
   -1.8644   -1.4664   -0.2235 C   0  0  0  0  0  0  0  0  0  0  0  0
   -1.0110   -0.3040    0.2295 C   0  0  0  0  0  3  0  0  0  0  0  0
   -1.3416    0.8591   -0.4419 O   0  0  0  0  0  0  0  0  0  0  0  0
   -0.9517    2.0726    0.1589 C   0  0  0  0  0  0  0  0  0  0  0  0
    0.5294    2.3888   -0.0296 C   0  0  0  0  0  0  0  0  0  0  0  0
   -3.7487   -0.4284   -0.0525 H   0  0  0  0  0  0  0  0  0  0  0  0
   -3.3138   -1.3616    1.3839 H   0  0  0  0  0  0  0  0  0  0  0  0
   -3.8970   -2.1895   -0.0631 H   0  0  0  0  0  0  0  0  0  0  0  0
   -1.8765   -1.4815   -1.3141 H   0  0  0  0  0  0  0  0  0  0  0  0
   -1.4167   -2.3956    0.1341 H   0  0  0  0  0  0  0  0  0  0  0  0
    0.2681   -0.6620   -0.0769 H   0  0  0  0  0  0  0  0  0  0  0  0
   -0.9816   -0.1742    1.3169 H   0  0  0  0  0  0  0  0  0  0  0  0
   -1.5633    2.8372   -0.3292 H   0  0  0  0  0  0  0  0  0  0  0  0
   -1.1965    2.0547    1.2310 H   0  0  0  0  0  0  0  0  0  0  0  0
    0.7723    2.4003   -1.0890 H   0  0  0  0  0  0  0  0  0  0  0  0
    1.1487    1.6397    0.4577 H   0  0  0  0  0  0  0  0  0  0  0  0
    0.7467    3.3657    0.3934 H   0  0  0  0  0  0  0  0  0  0  0  0
  1  2  1  0
  1  4  1  0
  2  3  2  3
  3  5  1  0
  3 17  1  0
  6  7  1  0
  6 12  1  0
  6 13  1  0
  6 14  1  0
  7  8  1  0
  7 15  1  0
  7 16  1  0
  8  9  1  0
  8 18  1  0
  9 10  1  0
 10 11  1  0
 10 19  1  0
 10 20  1  0
 11 21  1  0
 11 22  1  0
 11 23  1  0
M  RAD  1   8   2
M  END
>  <reaction>  (13) 
rmg_rxn_15427

>  <mol_properties>  (13) 
{"1": {"label": "*4", "atom_type": "N3d"}, "2": {"label": "*3", "atom_type": "Cd"}, "7": {"label": "*1", "atom_type": "Cs"}, "8": {"label": "*0", "atom_type": "O2s"}, "16": {"label": "*2", "atom_type": "H0"}}

>  <type>  (13) 
unop_9

>  <geom_source>  (13) 
Heuristics

$$$$

     RDKit          3D

 23 21  0  0  0  0  0  0  0  0999 V2000
    3.0129    2.0522   -0.3206 O   0  0  0  0  0  0  0  0  0  0  0  0
    1.8882    1.4344    0.1898 N   0  0  0  0  0  0  0  0  0  0  0  0
    1.7670    0.2511   -0.2326 C   0  0  0  0  0  0  0  0  0  0  0  0
    2.9840    2.9264    0.0730 H   0  0  0  0  0  0  0  0  0  0  0  0
    2.4797   -0.2032   -0.9176 H   0  0  0  0  0  0  0  0  0  0  0  0
   -0.3123   -2.4861   -1.4939 C   0  0  0  0  0  0  0  0  0  0  0  0
   -0.3123   -2.4861    0.0290 C   0  0  0  0  0  0  0  0  0  0  0  0
   -0.3123   -1.0930    0.6246 C   0  0  0  0  0  3  0  0  0  0  0  0
   -1.4953   -0.4294    0.2570 O   0  0  0  0  0  0  0  0  0  0  0  0
   -1.5660    0.8887    0.7379 C   0  0  0  0  0  0  0  0  0  0  0  0
   -2.8694    1.5064    0.2870 C   0  0  0  0  0  0  0  0  0  0  0  0
    0.5697   -1.9717   -1.8835 H   0  0  0  0  0  0  0  0  0  0  0  0
   -1.1950   -1.9764   -1.8799 H   0  0  0  0  0  0  0  0  0  0  0  0
   -0.3068   -3.5039   -1.8865 H   0  0  0  0  0  0  0  0  0  0  0  0
    0.5692   -3.0125    0.4053 H   0  0  0  0  0  0  0  0  0  0  0  0
   -1.1867   -3.0240    0.4043 H   0  0  0  0  0  0  0  0  0  0  0  0
    0.7367   -0.4149    0.1921 H   0  0  0  0  0  0  0  0  0  0  0  0
   -0.2375   -1.1469    1.7206 H   0  0  0  0  0  0  0  0  0  0  0  0
   -1.4988    0.8915    1.8359 H   0  0  0  0  0  0  0  0  0  0  0  0
   -0.7132    1.4716    0.3600 H   0  0  0  0  0  0  0  0  0  0  0  0
   -3.7157    0.9370    0.6727 H   0  0  0  0  0  0  0  0  0  0  0  0
   -2.9302    1.5183   -0.8018 H   0  0  0  0  0  0  0  0  0  0  0  0
   -2.9470    2.5325    0.6501 H   0  0  0  0  0  0  0  0  0  0  0  0
  1  2  1  0
  1  4  1  0
  2  3  2  3
  3  5  1  0
  3 17  1  0
  6  7  1  0
  6 12  1  0
  6 13  1  0
  6 14  1  0
  7  8  1  0
  7 15  1  0
  7 16  1  0
  8  9  1  0
  8 18  1  0
  9 10  1  0
 10 11  1  0
 10 19  1  0
 10 20  1  0
 11 21  1  0
 11 22  1  0
 11 23  1  0
M  RAD  1   8   2
M  END
>  <reaction>  (14) 
rmg_rxn_15427

>  <mol_properties>  (14) 
{"1": {"label": "*4", "atom_type": "N3d"}, "2": {"label": "*3", "atom_type": "Cd"}, "7": {"label": "*1", "atom_type": "Cs"}, "8": {"label": "*0", "atom_type": "O2s"}, "16": {"label": "*2", "atom_type": "H0"}}

>  <type>  (14) 
unop_10

>  <geom_source>  (14) 
Heuristics

$$$$

     RDKit          3D

 23 21  0  0  0  0  0  0  0  0999 V2000
    3.7084   -0.8009    0.0499 O   0  0  0  0  0  0  0  0  0  0  0  0
    2.3603   -0.4150    0.2415 N   0  0  0  0  0  0  0  0  0  0  0  0
    1.4653   -1.0649   -0.3224 C   0  0  0  0  0  0  0  0  0  0  0  0
    4.2164   -0.1619    0.5676 H   0  0  0  0  0  0  0  0  0  0  0  0
    1.5762   -1.9282   -0.9689 H   0  0  0  0  0  0  0  0  0  0  0  0
   -3.3047   -1.3469    0.2920 C   0  0  0  0  0  0  0  0  0  0  0  0
   -1.8679   -1.4649   -0.2221 C   0  0  0  0  0  0  0  0  0  0  0  0
   -1.0122   -0.3044    0.2316 C   0  0  0  0  0  3  0  0  0  0  0  0
   -1.3385    0.8591   -0.4413 O   0  0  0  0  0  0  0  0  0  0  0  0
   -0.9467    2.0721    0.1590 C   0  0  0  0  0  0  0  0  0  0  0  0
    0.5345    2.3868   -0.0312 C   0  0  0  0  0  0  0  0  0  0  0  0
   -3.3228   -1.3509    1.3798 H   0  0  0  0  0  0  0  0  0  0  0  0
   -3.9035   -2.1803   -0.0673 H   0  0  0  0  0  0  0  0  0  0  0  0
   -3.7491   -0.4197   -0.0604 H   0  0  0  0  0  0  0  0  0  0  0  0
   -1.8762   -1.4824   -1.3128 H   0  0  0  0  0  0  0  0  0  0  0  0
   -1.4247   -2.3948    0.1391 H   0  0  0  0  0  0  0  0  0  0  0  0
    0.2665   -0.6658   -0.0721 H   0  0  0  0  0  0  0  0  0  0  0  0
   -0.9843   -0.1738    1.3189 H   0  0  0  0  0  0  0  0  0  0  0  0
   -1.5579    2.8374   -0.3283 H   0  0  0  0  0  0  0  0  0  0  0  0
   -1.1903    2.0545    1.2315 H   0  0  0  0  0  0  0  0  0  0  0  0
    0.7537    3.3629    0.3928 H   0  0  0  0  0  0  0  0  0  0  0  0
    0.7759    2.3993   -1.0909 H   0  0  0  0  0  0  0  0  0  0  0  0
    1.1534    1.6361    0.4542 H   0  0  0  0  0  0  0  0  0  0  0  0
  1  2  1  0
  1  4  1  0
  2  3  2  3
  3  5  1  0
  3 17  1  0
  6  7  1  0
  6 12  1  0
  6 13  1  0
  6 14  1  0
  7  8  1  0
  7 15  1  0
  7 16  1  0
  8  9  1  0
  8 18  1  0
  9 10  1  0
 10 11  1  0
 10 19  1  0
 10 20  1  0
 11 21  1  0
 11 22  1  0
 11 23  1  0
M  RAD  1   8   2
M  END
>  <reaction>  (15) 
rmg_rxn_15427

>  <mol_properties>  (15) 
{"1": {"label": "*4", "atom_type": "N3d"}, "2": {"label": "*3", "atom_type": "Cd"}, "7": {"label": "*1", "atom_type": "Cs"}, "8": {"label": "*0", "atom_type": "O2s"}, "16": {"label": "*2", "atom_type": "H0"}}

>  <type>  (15) 
unop_11

>  <geom_source>  (15) 
Heuristics

$$$$

     RDKit          3D

 23 21  0  0  0  0  0  0  0  0999 V2000
    3.3089    1.6007    0.4246 O   0  0  0  0  0  0  0  0  0  0  0  0
    2.6645    0.3843    0.3132 N   0  0  0  0  0  0  0  0  0  0  0  0
    1.6122    0.4694   -0.3789 C   0  0  0  0  0  0  0  0  0  0  0  0
    4.0756    1.3971    0.9637 H   0  0  0  0  0  0  0  0  0  0  0  0
    1.2762    1.4038   -0.8233 H   0  0  0  0  0  0  0  0  0  0  0  0
   -0.4671   -2.2678   -1.6401 C   0  0  0  0  0  0  0  0  0  0  0  0
   -0.4671   -2.2678   -0.1172 C   0  0  0  0  0  0  0  0  0  0  0  0
   -0.4671   -0.8747    0.4783 C   0  0  0  0  0  3  0  0  0  0  0  0
   -1.6501   -0.2111    0.1107 O   0  0  0  0  0  0  0  0  0  0  0  0
   -1.7208    1.1070    0.5916 C   0  0  0  0  0  0  0  0  0  0  0  0
   -3.0241    1.7247    0.1408 C   0  0  0  0  0  0  0  0  0  0  0  0
    0.4150   -1.7534   -2.0298 H   0  0  0  0  0  0  0  0  0  0  0  0
   -1.3498   -1.7581   -2.0262 H   0  0  0  0  0  0  0  0  0  0  0  0
   -0.4616   -3.2856   -2.0328 H   0  0  0  0  0  0  0  0  0  0  0  0
    0.4144   -2.7942    0.2591 H   0  0  0  0  0  0  0  0  0  0  0  0
   -1.3415   -2.8057    0.2581 H   0  0  0  0  0  0  0  0  0  0  0  0
    0.5819   -0.1966    0.0458 H   0  0  0  0  0  0  0  0  0  0  0  0
   -0.3923   -0.9286    1.5743 H   0  0  0  0  0  0  0  0  0  0  0  0
   -1.6536    1.1098    1.6897 H   0  0  0  0  0  0  0  0  0  0  0  0
   -0.8680    1.6899    0.2137 H   0  0  0  0  0  0  0  0  0  0  0  0
   -3.8705    1.1553    0.5264 H   0  0  0  0  0  0  0  0  0  0  0  0
   -3.0849    1.7366   -0.9481 H   0  0  0  0  0  0  0  0  0  0  0  0
   -3.1017    2.7508    0.5038 H   0  0  0  0  0  0  0  0  0  0  0  0
  1  2  1  0
  1  4  1  0
  2  3  2  3
  3  5  1  0
  3 17  1  0
  6  7  1  0
  6 12  1  0
  6 13  1  0
  6 14  1  0
  7  8  1  0
  7 15  1  0
  7 16  1  0
  8  9  1  0
  8 18  1  0
  9 10  1  0
 10 11  1  0
 10 19  1  0
 10 20  1  0
 11 21  1  0
 11 22  1  0
 11 23  1  0
M  RAD  1   8   2
M  END
>  <reaction>  (16) 
rmg_rxn_15427

>  <mol_properties>  (16) 
{"1": {"label": "*4", "atom_type": "N3d"}, "2": {"label": "*3", "atom_type": "Cd"}, "7": {"label": "*1", "atom_type": "Cs"}, "8": {"label": "*0", "atom_type": "O2s"}, "16": {"label": "*2", "atom_type": "H0"}}

>  <type>  (16) 
unop_12

>  <geom_source>  (16) 
Heuristics

$$$$

     RDKit          3D

 23 21  0  0  0  0  0  0  0  0999 V2000
    3.7097   -0.7995    0.0505 O   0  0  0  0  0  0  0  0  0  0  0  0
    2.3615   -0.4142    0.2432 N   0  0  0  0  0  0  0  0  0  0  0  0
    1.4670   -1.0592   -0.3271 C   0  0  0  0  0  0  0  0  0  0  0  0
    4.2173   -0.1660    0.5752 H   0  0  0  0  0  0  0  0  0  0  0  0
    1.5784   -1.9176   -0.9801 H   0  0  0  0  0  0  0  0  0  0  0  0
   -3.2999   -1.3544    0.2961 C   0  0  0  0  0  0  0  0  0  0  0  0
   -1.8641   -1.4668   -0.2222 C   0  0  0  0  0  0  0  0  0  0  0  0
   -1.0112   -0.3035    0.2297 C   0  0  0  0  0  3  0  0  0  0  0  0
   -1.3409    0.8585   -0.4440 O   0  0  0  0  0  0  0  0  0  0  0  0
   -0.9528    2.0729    0.1560 C   0  0  0  0  0  0  0  0  0  0  0  0
    0.5294    2.3878   -0.0260 C   0  0  0  0  0  0  0  0  0  0  0  0
   -3.8968   -2.1893   -0.0627 H   0  0  0  0  0  0  0  0  0  0  0  0
   -3.7484   -0.4282   -0.0538 H   0  0  0  0  0  0  0  0  0  0  0  0
   -3.3149   -1.3600    1.3840 H   0  0  0  0  0  0  0  0  0  0  0  0
   -1.8754   -1.4836   -1.3128 H   0  0  0  0  0  0  0  0  0  0  0  0
   -1.4167   -2.3954    0.1372 H   0  0  0  0  0  0  0  0  0  0  0  0
    0.2680   -0.6620   -0.0752 H   0  0  0  0  0  0  0  0  0  0  0  0
   -0.9827   -0.1719    1.3169 H   0  0  0  0  0  0  0  0  0  0  0  0
   -1.5614    2.8369   -0.3366 H   0  0  0  0  0  0  0  0  0  0  0  0
   -1.2027    2.0575    1.2271 H   0  0  0  0  0  0  0  0  0  0  0  0
    0.7454    3.3655    0.3960 H   0  0  0  0  0  0  0  0  0  0  0  0
    0.7774    2.3968   -1.0841 H   0  0  0  0  0  0  0  0  0  0  0  0
    1.1458    1.6393    0.4658 H   0  0  0  0  0  0  0  0  0  0  0  0
  1  2  1  0
  1  4  1  0
  2  3  2  3
  3  5  1  0
  3 17  1  0
  6  7  1  0
  6 12  1  0
  6 13  1  0
  6 14  1  0
  7  8  1  0
  7 15  1  0
  7 16  1  0
  8  9  1  0
  8 18  1  0
  9 10  1  0
 10 11  1  0
 10 19  1  0
 10 20  1  0
 11 21  1  0
 11 22  1  0
 11 23  1  0
M  RAD  1   8   2
M  END
>  <reaction>  (17) 
rmg_rxn_15427

>  <mol_properties>  (17) 
{"1": {"label": "*4", "atom_type": "N3d"}, "2": {"label": "*3", "atom_type": "Cd"}, "7": {"label": "*1", "atom_type": "Cs"}, "8": {"label": "*0", "atom_type": "O2s"}, "16": {"label": "*2", "atom_type": "H0"}}

>  <type>  (17) 
unop_13

>  <geom_source>  (17) 
Heuristics

$$$$

     RDKit          3D

 23 21  0  0  0  0  0  0  0  0999 V2000
    2.9214    2.0488    0.2579 O   0  0  0  0  0  0  0  0  0  0  0  0
    2.5083    0.7541    0.5031 N   0  0  0  0  0  0  0  0  0  0  0  0
    1.7005    0.3421   -0.3751 C   0  0  0  0  0  0  0  0  0  0  0  0
    3.5191    2.2326    0.9853 H   0  0  0  0  0  0  0  0  0  0  0  0
    1.3843    0.9563   -1.2156 H   0  0  0  0  0  0  0  0  0  0  0  0
   -0.3788   -2.3950   -1.6363 C   0  0  0  0  0  0  0  0  0  0  0  0
   -0.3788   -2.3950   -0.1134 C   0  0  0  0  0  0  0  0  0  0  0  0
   -0.3788   -1.0020    0.4821 C   0  0  0  0  0  3  0  0  0  0  0  0
   -1.5618   -0.3384    0.1145 O   0  0  0  0  0  0  0  0  0  0  0  0
   -1.6325    0.9797    0.5954 C   0  0  0  0  0  0  0  0  0  0  0  0
   -2.9358    1.5975    0.1446 C   0  0  0  0  0  0  0  0  0  0  0  0
    0.5033   -1.8807   -2.0260 H   0  0  0  0  0  0  0  0  0  0  0  0
   -1.2615   -1.8853   -2.0224 H   0  0  0  0  0  0  0  0  0  0  0  0
   -0.3733   -3.4129   -2.0290 H   0  0  0  0  0  0  0  0  0  0  0  0
    0.5027   -2.9215    0.2628 H   0  0  0  0  0  0  0  0  0  0  0  0
   -1.2532   -2.9330    0.2618 H   0  0  0  0  0  0  0  0  0  0  0  0
    0.6702   -0.3239    0.0496 H   0  0  0  0  0  0  0  0  0  0  0  0
   -0.3040   -1.0559    1.5781 H   0  0  0  0  0  0  0  0  0  0  0  0
   -1.5653    0.9826    1.6935 H   0  0  0  0  0  0  0  0  0  0  0  0
   -0.7797    1.5627    0.2175 H   0  0  0  0  0  0  0  0  0  0  0  0
   -3.7822    1.0281    0.5302 H   0  0  0  0  0  0  0  0  0  0  0  0
   -2.9967    1.6093   -0.9443 H   0  0  0  0  0  0  0  0  0  0  0  0
   -3.0135    2.6235    0.5076 H   0  0  0  0  0  0  0  0  0  0  0  0
  1  2  1  0
  1  4  1  0
  2  3  2  3
  3  5  1  0
  3 17  1  0
  6  7  1  0
  6 12  1  0
  6 13  1  0
  6 14  1  0
  7  8  1  0
  7 15  1  0
  7 16  1  0
  8  9  1  0
  8 18  1  0
  9 10  1  0
 10 11  1  0
 10 19  1  0
 10 20  1  0
 11 21  1  0
 11 22  1  0
 11 23  1  0
M  RAD  1   8   2
M  END
>  <reaction>  (18) 
rmg_rxn_15427

>  <mol_properties>  (18) 
{"1": {"label": "*4", "atom_type": "N3d"}, "2": {"label": "*3", "atom_type": "Cd"}, "7": {"label": "*1", "atom_type": "Cs"}, "8": {"label": "*0", "atom_type": "O2s"}, "16": {"label": "*2", "atom_type": "H0"}}

>  <type>  (18) 
unop_14

>  <geom_source>  (18) 
Heuristics

$$$$

     RDKit          3D

 23 21  0  0  0  0  0  0  0  0999 V2000
    3.7091   -0.8011    0.0519 O   0  0  0  0  0  0  0  0  0  0  0  0
    2.3611   -0.4143    0.2428 N   0  0  0  0  0  0  0  0  0  0  0  0
    1.4667   -1.0590   -0.3279 C   0  0  0  0  0  0  0  0  0  0  0  0
    4.2169   -0.1666    0.5752 H   0  0  0  0  0  0  0  0  0  0  0  0
    1.5782   -1.9180   -0.9799 H   0  0  0  0  0  0  0  0  0  0  0  0
   -3.2997   -1.3554    0.2958 C   0  0  0  0  0  0  0  0  0  0  0  0
   -1.8644   -1.4661   -0.2240 C   0  0  0  0  0  0  0  0  0  0  0  0
   -1.0114   -0.3036    0.2298 C   0  0  0  0  0  3  0  0  0  0  0  0
   -1.3417    0.8597   -0.4414 O   0  0  0  0  0  0  0  0  0  0  0  0
   -0.9511    2.0729    0.1592 C   0  0  0  0  0  0  0  0  0  0  0  0
    0.5300    2.3888   -0.0301 C   0  0  0  0  0  0  0  0  0  0  0  0
   -3.8965   -2.1900   -0.0641 H   0  0  0  0  0  0  0  0  0  0  0  0
   -3.7490   -0.4288   -0.0518 H   0  0  0  0  0  0  0  0  0  0  0  0
   -3.3137   -1.3633    1.3837 H   0  0  0  0  0  0  0  0  0  0  0  0
   -1.8765   -1.4804   -1.3147 H   0  0  0  0  0  0  0  0  0  0  0  0
   -1.4163   -2.3954    0.1328 H   0  0  0  0  0  0  0  0  0  0  0  0
    0.2678   -0.6615   -0.0763 H   0  0  0  0  0  0  0  0  0  0  0  0
   -0.9822   -0.1741    1.3172 H   0  0  0  0  0  0  0  0  0  0  0  0
   -1.5626    2.8378   -0.3285 H   0  0  0  0  0  0  0  0  0  0  0  0
   -1.1953    2.0551    1.2315 H   0  0  0  0  0  0  0  0  0  0  0  0
    0.7722    2.4006   -1.0896 H   0  0  0  0  0  0  0  0  0  0  0  0
    1.1493    1.6392    0.4565 H   0  0  0  0  0  0  0  0  0  0  0  0
    0.7480    3.3655    0.3931 H   0  0  0  0  0  0  0  0  0  0  0  0
  1  2  1  0
  1  4  1  0
  2  3  2  3
  3  5  1  0
  3 17  1  0
  6  7  1  0
  6 12  1  0
  6 13  1  0
  6 14  1  0
  7  8  1  0
  7 15  1  0
  7 16  1  0
  8  9  1  0
  8 18  1  0
  9 10  1  0
 10 11  1  0
 10 19  1  0
 10 20  1  0
 11 21  1  0
 11 22  1  0
 11 23  1  0
M  RAD  1   8   2
M  END
>  <reaction>  (19) 
rmg_rxn_15427

>  <mol_properties>  (19) 
{"1": {"label": "*4", "atom_type": "N3d"}, "2": {"label": "*3", "atom_type": "Cd"}, "7": {"label": "*1", "atom_type": "Cs"}, "8": {"label": "*0", "atom_type": "O2s"}, "16": {"label": "*2", "atom_type": "H0"}}

>  <type>  (19) 
unop_15

>  <geom_source>  (19) 
Heuristics

$$$$

     RDKit          3D

 23 21  0  0  0  0  0  0  0  0999 V2000
    2.3596    2.1899   -0.9539 O   0  0  0  0  0  0  0  0  0  0  0  0
    1.7445    0.9555   -1.0229 N   0  0  0  0  0  0  0  0  0  0  0  0
    1.8999    0.2907    0.0389 C   0  0  0  0  0  0  0  0  0  0  0  0
    2.1671    2.5820   -1.8079 H   0  0  0  0  0  0  0  0  0  0  0  0
    2.4576    0.6704    0.8924 H   0  0  0  0  0  0  0  0  0  0  0  0
   -0.1794   -2.4464   -1.2223 C   0  0  0  0  0  0  0  0  0  0  0  0
   -0.1794   -2.4464    0.3006 C   0  0  0  0  0  0  0  0  0  0  0  0
   -0.1794   -1.0533    0.8961 C   0  0  0  0  0  3  0  0  0  0  0  0
   -1.3624   -0.3897    0.5285 O   0  0  0  0  0  0  0  0  0  0  0  0
   -1.4331    0.9283    1.0094 C   0  0  0  0  0  0  0  0  0  0  0  0
   -2.7364    1.5461    0.5586 C   0  0  0  0  0  0  0  0  0  0  0  0
    0.7027   -1.9321   -1.6119 H   0  0  0  0  0  0  0  0  0  0  0  0
   -1.0621   -1.9367   -1.6084 H   0  0  0  0  0  0  0  0  0  0  0  0
   -0.1739   -3.4643   -1.6150 H   0  0  0  0  0  0  0  0  0  0  0  0
    0.7021   -2.9729    0.6769 H   0  0  0  0  0  0  0  0  0  0  0  0
   -1.0538   -2.9844    0.6759 H   0  0  0  0  0  0  0  0  0  0  0  0
    0.8697   -0.3752    0.4637 H   0  0  0  0  0  0  0  0  0  0  0  0
   -0.1046   -1.1073    1.9922 H   0  0  0  0  0  0  0  0  0  0  0  0
   -1.3658    0.9312    2.1075 H   0  0  0  0  0  0  0  0  0  0  0  0
   -0.5802    1.5113    0.6316 H   0  0  0  0  0  0  0  0  0  0  0  0
   -3.5828    0.9767    0.9443 H   0  0  0  0  0  0  0  0  0  0  0  0
   -2.7972    1.5580   -0.5302 H   0  0  0  0  0  0  0  0  0  0  0  0
   -2.8140    2.5721    0.9217 H   0  0  0  0  0  0  0  0  0  0  0  0
  1  2  1  0
  1  4  1  0
  2  3  2  3
  3  5  1  0
  3 17  1  0
  6  7  1  0
  6 12  1  0
  6 13  1  0
  6 14  1  0
  7  8  1  0
  7 15  1  0
  7 16  1  0
  8  9  1  0
  8 18  1  0
  9 10  1  0
 10 11  1  0
 10 19  1  0
 10 20  1  0
 11 21  1  0
 11 22  1  0
 11 23  1  0
M  RAD  1   8   2
M  END
>  <reaction>  (20) 
rmg_rxn_15427

>  <mol_properties>  (20) 
{"1": {"label": "*4", "atom_type": "N3d"}, "2": {"label": "*3", "atom_type": "Cd"}, "7": {"label": "*1", "atom_type": "Cs"}, "8": {"label": "*0", "atom_type": "O2s"}, "16": {"label": "*2", "atom_type": "H0"}}

>  <type>  (20) 
unop_16

>  <geom_source>  (20) 
Heuristics

$$$$

     RDKit          3D

 23 21  0  0  0  0  0  0  0  0999 V2000
    3.7091   -0.7999    0.0494 O   0  0  0  0  0  0  0  0  0  0  0  0
    2.3609   -0.4154    0.2434 N   0  0  0  0  0  0  0  0  0  0  0  0
    1.4661   -1.0620   -0.3245 C   0  0  0  0  0  0  0  0  0  0  0  0
    4.2171   -0.1646    0.5714 H   0  0  0  0  0  0  0  0  0  0  0  0
    1.5772   -1.9212   -0.9764 H   0  0  0  0  0  0  0  0  0  0  0  0
   -3.3031   -1.3496    0.2928 C   0  0  0  0  0  0  0  0  0  0  0  0
   -1.8662   -1.4660   -0.2218 C   0  0  0  0  0  0  0  0  0  0  0  0
   -1.0118   -0.3043    0.2314 C   0  0  0  0  0  3  0  0  0  0  0  0
   -1.3393    0.8585   -0.4421 O   0  0  0  0  0  0  0  0  0  0  0  0
   -0.9493    2.0722    0.1580 C   0  0  0  0  0  0  0  0  0  0  0  0
    0.5321    2.3877   -0.0297 C   0  0  0  0  0  0  0  0  0  0  0  0
   -3.9010   -2.1837   -0.0662 H   0  0  0  0  0  0  0  0  0  0  0  0
   -3.7485   -0.4229   -0.0596 H   0  0  0  0  0  0  0  0  0  0  0  0
   -3.3208   -1.3535    1.3806 H   0  0  0  0  0  0  0  0  0  0  0  0
   -1.8748   -1.4837   -1.3124 H   0  0  0  0  0  0  0  0  0  0  0  0
   -1.4218   -2.3953    0.1395 H   0  0  0  0  0  0  0  0  0  0  0  0
    0.2672   -0.6644   -0.0725 H   0  0  0  0  0  0  0  0  0  0  0  0
   -0.9840   -0.1731    1.3187 H   0  0  0  0  0  0  0  0  0  0  0  0
   -1.5602    2.8367   -0.3310 H   0  0  0  0  0  0  0  0  0  0  0  0
   -1.1948    2.0552    1.2301 H   0  0  0  0  0  0  0  0  0  0  0  0
    1.1506    1.6385    0.4583 H   0  0  0  0  0  0  0  0  0  0  0  0
    0.7496    3.3648    0.3928 H   0  0  0  0  0  0  0  0  0  0  0  0
    0.7755    2.3985   -1.0890 H   0  0  0  0  0  0  0  0  0  0  0  0
  1  2  1  0
  1  4  1  0
  2  3  2  3
  3  5  1  0
  3 17  1  0
  6  7  1  0
  6 12  1  0
  6 13  1  0
  6 14  1  0
  7  8  1  0
  7 15  1  0
  7 16  1  0
  8  9  1  0
  8 18  1  0
  9 10  1  0
 10 11  1  0
 10 19  1  0
 10 20  1  0
 11 21  1  0
 11 22  1  0
 11 23  1  0
M  RAD  1   8   2
M  END
>  <reaction>  (21) 
rmg_rxn_15427

>  <mol_properties>  (21) 
{"1": {"label": "*4", "atom_type": "N3d"}, "2": {"label": "*3", "atom_type": "Cd"}, "7": {"label": "*1", "atom_type": "Cs"}, "8": {"label": "*0", "atom_type": "O2s"}, "16": {"label": "*2", "atom_type": "H0"}}

>  <type>  (21) 
unop_17

>  <geom_source>  (21) 
Heuristics

$$$$

     RDKit          3D

 23 21  0  0  0  0  0  0  0  0999 V2000
    3.7157    0.7841   -0.4575 O   0  0  0  0  0  0  0  0  0  0  0  0
    2.5855   -0.0076   -0.4024 N   0  0  0  0  0  0  0  0  0  0  0  0
    1.5518    0.6638   -0.1301 C   0  0  0  0  0  0  0  0  0  0  0  0
    4.4134    0.1606   -0.6684 H   0  0  0  0  0  0  0  0  0  0  0  0
    1.5774    1.7385    0.0368 H   0  0  0  0  0  0  0  0  0  0  0  0
   -0.5275   -2.0734   -1.3913 C   0  0  0  0  0  0  0  0  0  0  0  0
   -0.5275   -2.0734    0.1316 C   0  0  0  0  0  0  0  0  0  0  0  0
   -0.5275   -0.6803    0.7271 C   0  0  0  0  0  3  0  0  0  0  0  0
   -1.7105   -0.0167    0.3595 O   0  0  0  0  0  0  0  0  0  0  0  0
   -1.7812    1.3014    0.8404 C   0  0  0  0  0  0  0  0  0  0  0  0
   -3.0845    1.9191    0.3896 C   0  0  0  0  0  0  0  0  0  0  0  0
    0.3546   -1.5590   -1.7809 H   0  0  0  0  0  0  0  0  0  0  0  0
   -1.4102   -1.5637   -1.7774 H   0  0  0  0  0  0  0  0  0  0  0  0
   -0.5220   -3.0912   -1.7840 H   0  0  0  0  0  0  0  0  0  0  0  0
    0.3540   -2.5998    0.5079 H   0  0  0  0  0  0  0  0  0  0  0  0
   -1.4019   -2.6113    0.5069 H   0  0  0  0  0  0  0  0  0  0  0  0
    0.5215   -0.0022    0.2947 H   0  0  0  0  0  0  0  0  0  0  0  0
   -0.4527   -0.7342    1.8232 H   0  0  0  0  0  0  0  0  0  0  0  0
   -1.7140    1.3042    1.9385 H   0  0  0  0  0  0  0  0  0  0  0  0
   -0.9284    1.8843    0.4625 H   0  0  0  0  0  0  0  0  0  0  0  0
   -3.9309    1.3497    0.7753 H   0  0  0  0  0  0  0  0  0  0  0  0
   -3.1453    1.9310   -0.6992 H   0  0  0  0  0  0  0  0  0  0  0  0
   -3.1622    2.9452    0.7526 H   0  0  0  0  0  0  0  0  0  0  0  0
  1  2  1  0
  1  4  1  0
  2  3  2  3
  3  5  1  0
  3 17  1  0
  6  7  1  0
  6 12  1  0
  6 13  1  0
  6 14  1  0
  7  8  1  0
  7 15  1  0
  7 16  1  0
  8  9  1  0
  8 18  1  0
  9 10  1  0
 10 11  1  0
 10 19  1  0
 10 20  1  0
 11 21  1  0
 11 22  1  0
 11 23  1  0
M  RAD  1   8   2
M  END
>  <reaction>  (22) 
rmg_rxn_15427

>  <mol_properties>  (22) 
{"1": {"label": "*4", "atom_type": "N3d"}, "2": {"label": "*3", "atom_type": "Cd"}, "7": {"label": "*1", "atom_type": "Cs"}, "8": {"label": "*0", "atom_type": "O2s"}, "16": {"label": "*2", "atom_type": "H0"}}

>  <type>  (22) 
unop_18

>  <geom_source>  (22) 
Heuristics

$$$$

     RDKit          3D

 23 21  0  0  0  0  0  0  0  0999 V2000
    2.5419    1.7779   -1.4315 O   0  0  0  0  0  0  0  0  0  0  0  0
    1.9323    0.5802   -1.1137 N   0  0  0  0  0  0  0  0  0  0  0  0
    1.8432    0.4124    0.1342 C   0  0  0  0  0  0  0  0  0  0  0  0
    2.5449    1.7779   -2.3906 H   0  0  0  0  0  0  0  0  0  0  0  0
    2.2118    1.1421    0.8521 H   0  0  0  0  0  0  0  0  0  0  0  0
   -0.2361   -2.3247   -1.1270 C   0  0  0  0  0  0  0  0  0  0  0  0
   -0.2361   -2.3247    0.3959 C   0  0  0  0  0  0  0  0  0  0  0  0
   -0.2361   -0.9316    0.9914 C   0  0  0  0  0  3  0  0  0  0  0  0
   -1.4191   -0.2680    0.6238 O   0  0  0  0  0  0  0  0  0  0  0  0
   -1.4898    1.0500    1.1047 C   0  0  0  0  0  0  0  0  0  0  0  0
   -2.7931    1.6678    0.6539 C   0  0  0  0  0  0  0  0  0  0  0  0
    0.6460   -1.8104   -1.5166 H   0  0  0  0  0  0  0  0  0  0  0  0
   -1.1188   -1.8150   -1.5131 H   0  0  0  0  0  0  0  0  0  0  0  0
   -0.2306   -3.3426   -1.5197 H   0  0  0  0  0  0  0  0  0  0  0  0
    0.6454   -2.8512    0.7722 H   0  0  0  0  0  0  0  0  0  0  0  0
   -1.1105   -2.8627    0.7712 H   0  0  0  0  0  0  0  0  0  0  0  0
    0.8129   -0.2535    0.5590 H   0  0  0  0  0  0  0  0  0  0  0  0
   -0.1613   -0.9856    2.0875 H   0  0  0  0  0  0  0  0  0  0  0  0
   -1.4226    1.0529    2.2028 H   0  0  0  0  0  0  0  0  0  0  0  0
   -0.6370    1.6330    0.7269 H   0  0  0  0  0  0  0  0  0  0  0  0
   -3.6395    1.0984    1.0396 H   0  0  0  0  0  0  0  0  0  0  0  0
   -2.8539    1.6797   -0.4349 H   0  0  0  0  0  0  0  0  0  0  0  0
   -2.8708    2.6938    1.0170 H   0  0  0  0  0  0  0  0  0  0  0  0
  1  2  1  0
  1  4  1  0
  2  3  2  3
  3  5  1  0
  3 17  1  0
  6  7  1  0
  6 12  1  0
  6 13  1  0
  6 14  1  0
  7  8  1  0
  7 15  1  0
  7 16  1  0
  8  9  1  0
  8 18  1  0
  9 10  1  0
 10 11  1  0
 10 19  1  0
 10 20  1  0
 11 21  1  0
 11 22  1  0
 11 23  1  0
M  RAD  1   8   2
M  END
>  <reaction>  (23) 
rmg_rxn_15427

>  <mol_properties>  (23) 
{"1": {"label": "*4", "atom_type": "N3d"}, "2": {"label": "*3", "atom_type": "Cd"}, "7": {"label": "*1", "atom_type": "Cs"}, "8": {"label": "*0", "atom_type": "O2s"}, "16": {"label": "*2", "atom_type": "H0"}}

>  <type>  (23) 
unop_19

>  <geom_source>  (23) 
Heuristics

$$$$

     RDKit          3D

 23 21  0  0  0  0  0  0  0  0999 V2000
    2.7562    2.2152   -0.2013 O   0  0  0  0  0  0  0  0  0  0  0  0
    2.2329    1.1383    0.4866 N   0  0  0  0  0  0  0  0  0  0  0  0
    1.7659    0.2620   -0.2929 C   0  0  0  0  0  0  0  0  0  0  0  0
    3.0700    2.7934    0.4968 H   0  0  0  0  0  0  0  0  0  0  0  0
    1.7866    0.3688   -1.3754 H   0  0  0  0  0  0  0  0  0  0  0  0
   -0.3134   -2.4751   -1.5541 C   0  0  0  0  0  0  0  0  0  0  0  0
   -0.3134   -2.4751   -0.0312 C   0  0  0  0  0  0  0  0  0  0  0  0
   -0.3134   -1.0820    0.5643 C   0  0  0  0  0  3  0  0  0  0  0  0
   -1.4964   -0.4184    0.1967 O   0  0  0  0  0  0  0  0  0  0  0  0
   -1.5671    0.8996    0.6776 C   0  0  0  0  0  0  0  0  0  0  0  0
   -2.8704    1.5174    0.2268 C   0  0  0  0  0  0  0  0  0  0  0  0
    0.5687   -1.9608   -1.9437 H   0  0  0  0  0  0  0  0  0  0  0  0
   -1.1961   -1.9654   -1.9402 H   0  0  0  0  0  0  0  0  0  0  0  0
   -0.3079   -3.4930   -1.9468 H   0  0  0  0  0  0  0  0  0  0  0  0
    0.5681   -3.0016    0.3451 H   0  0  0  0  0  0  0  0  0  0  0  0
   -1.1878   -3.0131    0.3441 H   0  0  0  0  0  0  0  0  0  0  0  0
    0.7356   -0.4039    0.1318 H   0  0  0  0  0  0  0  0  0  0  0  0
   -0.2386   -1.1360    1.6604 H   0  0  0  0  0  0  0  0  0  0  0  0
   -1.4999    0.9025    1.7757 H   0  0  0  0  0  0  0  0  0  0  0  0
   -0.7143    1.4826    0.2997 H   0  0  0  0  0  0  0  0  0  0  0  0
   -3.7168    0.9480    0.6125 H   0  0  0  0  0  0  0  0  0  0  0  0
   -2.9313    1.5293   -0.8620 H   0  0  0  0  0  0  0  0  0  0  0  0
   -2.9481    2.5434    0.5898 H   0  0  0  0  0  0  0  0  0  0  0  0
  1  2  1  0
  1  4  1  0
  2  3  2  3
  3  5  1  0
  3 17  1  0
  6  7  1  0
  6 12  1  0
  6 13  1  0
  6 14  1  0
  7  8  1  0
  7 15  1  0
  7 16  1  0
  8  9  1  0
  8 18  1  0
  9 10  1  0
 10 11  1  0
 10 19  1  0
 10 20  1  0
 11 21  1  0
 11 22  1  0
 11 23  1  0
M  RAD  1   8   2
M  END
>  <reaction>  (24) 
rmg_rxn_15427

>  <mol_properties>  (24) 
{"1": {"label": "*4", "atom_type": "N3d"}, "2": {"label": "*3", "atom_type": "Cd"}, "7": {"label": "*1", "atom_type": "Cs"}, "8": {"label": "*0", "atom_type": "O2s"}, "16": {"label": "*2", "atom_type": "H0"}}

>  <type>  (24) 
unop_20

>  <geom_source>  (24) 
Heuristics

$$$$

     RDKit          3D

 23 21  0  0  0  0  0  0  0  0999 V2000
    3.4574    0.8383   -1.1456 O   0  0  0  0  0  0  0  0  0  0  0  0
    2.3974    0.0439   -0.7554 N   0  0  0  0  0  0  0  0  0  0  0  0
    1.6218    0.6475    0.0368 C   0  0  0  0  0  0  0  0  0  0  0  0
    3.9573    0.2685   -1.7334 H   0  0  0  0  0  0  0  0  0  0  0  0
    1.7926    1.6729    0.3575 H   0  0  0  0  0  0  0  0  0  0  0  0
   -0.4575   -2.0897   -1.2244 C   0  0  0  0  0  0  0  0  0  0  0  0
   -0.4575   -2.0897    0.2985 C   0  0  0  0  0  0  0  0  0  0  0  0
   -0.4575   -0.6966    0.8940 C   0  0  0  0  0  3  0  0  0  0  0  0
   -1.6405   -0.0330    0.5264 O   0  0  0  0  0  0  0  0  0  0  0  0
   -1.7112    1.2851    1.0073 C   0  0  0  0  0  0  0  0  0  0  0  0
   -3.0145    1.9029    0.5565 C   0  0  0  0  0  0  0  0  0  0  0  0
    0.4246   -1.5753   -1.6141 H   0  0  0  0  0  0  0  0  0  0  0  0
   -1.3402   -1.5800   -1.6105 H   0  0  0  0  0  0  0  0  0  0  0  0
   -0.4520   -3.1075   -1.6171 H   0  0  0  0  0  0  0  0  0  0  0  0
    0.4240   -2.6161    0.6748 H   0  0  0  0  0  0  0  0  0  0  0  0
   -1.3319   -2.6276    0.6737 H   0  0  0  0  0  0  0  0  0  0  0  0
    0.5915   -0.0185    0.4615 H   0  0  0  0  0  0  0  0  0  0  0  0
   -0.3827   -0.7505    1.9900 H   0  0  0  0  0  0  0  0  0  0  0  0
   -1.6440    1.2879    2.1054 H   0  0  0  0  0  0  0  0  0  0  0  0
   -0.8583    1.8680    0.6294 H   0  0  0  0  0  0  0  0  0  0  0  0
   -3.8609    1.3334    0.9421 H   0  0  0  0  0  0  0  0  0  0  0  0
   -3.0753    1.9147   -0.5324 H   0  0  0  0  0  0  0  0  0  0  0  0
   -3.0921    2.9289    0.9195 H   0  0  0  0  0  0  0  0  0  0  0  0
  1  2  1  0
  1  4  1  0
  2  3  2  3
  3  5  1  0
  3 17  1  0
  6  7  1  0
  6 12  1  0
  6 13  1  0
  6 14  1  0
  7  8  1  0
  7 15  1  0
  7 16  1  0
  8  9  1  0
  8 18  1  0
  9 10  1  0
 10 11  1  0
 10 19  1  0
 10 20  1  0
 11 21  1  0
 11 22  1  0
 11 23  1  0
M  RAD  1   8   2
M  END
>  <reaction>  (25) 
rmg_rxn_15427

>  <mol_properties>  (25) 
{"1": {"label": "*4", "atom_type": "N3d"}, "2": {"label": "*3", "atom_type": "Cd"}, "7": {"label": "*1", "atom_type": "Cs"}, "8": {"label": "*0", "atom_type": "O2s"}, "16": {"label": "*2", "atom_type": "H0"}}

>  <type>  (25) 
unop_21

>  <geom_source>  (25) 
Heuristics

$$$$

     RDKit          3D

 23 20  0  0  0  0  0  0  0  0999 V2000
   -0.3393   -0.3718   -0.3651 O   0  0  0  0  0  1  0  0  0  0  0  0
    2.9884   -1.9789    0.7187 O   0  0  0  0  0  0  0  0  0  0  0  0
    3.1744   -0.9730   -0.2053 N   0  0  0  0  0  0  0  0  0  0  0  0
   -0.2210    1.3999    1.3045 C   0  0  0  0  0  0  0  0  0  0  0  0
   -1.5897   -1.0216   -0.2787 C   0  0  0  0  0  0  0  0  0  0  0  0
    0.4496    2.3944    0.3628 C   0  0  0  0  0  0  0  0  0  0  0  0
   -2.1401   -1.2329   -1.6805 C   0  0  0  0  0  0  0  0  0  0  0  0
    0.1280   -0.0404    0.9284 C   0  0  0  0  0  2  0  0  0  0  0  0
    2.1970   -0.2207   -0.5962 C   0  0  0  0  0  0  0  0  0  0  0  0
    0.1329    1.5930    2.3397 H   0  0  0  0  0  0  0  0  0  0  0  0
   -1.3216    1.5467    1.2816 H   0  0  0  0  0  0  0  0  0  0  0  0
   -2.3243   -0.4118    0.2949 H   0  0  0  0  0  0  0  0  0  0  0  0
   -1.4754   -2.0172    0.2065 H   0  0  0  0  0  0  0  0  0  0  0  0
   -2.2755   -0.2534   -2.1866 H   0  0  0  0  0  0  0  0  0  0  0  0
   -1.4387   -1.8564   -2.2746 H   0  0  0  0  0  0  0  0  0  0  0  0
   -3.1220   -1.7486   -1.6250 H   0  0  0  0  0  0  0  0  0  0  0  0
    0.0732    2.2619   -0.6738 H   0  0  0  0  0  0  0  0  0  0  0  0
    1.5515    2.2531    0.3749 H   0  0  0  0  0  0  0  0  0  0  0  0
    0.2199    3.4298    0.6917 H   0  0  0  0  0  0  0  0  0  0  0  0
   -0.1691   -0.7629    1.7249 H   0  0  0  0  0  0  0  0  0  0  0  0
    2.3770    0.5597   -1.3227 H   0  0  0  0  0  0  0  0  0  0  0  0
    1.0468   -0.3842   -0.1449 H   0  0  0  0  0  0  0  0  0  0  0  0
    2.0780   -2.1648    1.1249 H   0  0  0  0  0  0  0  0  0  0  0  0
  1  5  1  0
  2  3  1  0
  2 23  1  0
  3  9  2  3
  4  8  1  0
  4  6  1  0
  4 10  1  0
  4 11  1  0
  5  7  1  0
  5 12  1  0
  5 13  1  0
  6 17  1  0
  6 18  1  0
  6 19  1  0
  7 14  1  0
  7 15  1  0
  7 16  1  0
  8 20  1  0
  9 21  1  0
  9 22  1  0
M  RAD  2   1   2   8   3
M  END
>  <reaction>  (26) 
rmg_rxn_15427

>  <mol_properties>  (26) 
{"1": {"label": "*4", "atom_type": "N3d"}, "2": {"label": "*3", "atom_type": "Cd"}, "7": {"label": "*1", "atom_type": "Cs"}, "8": {"label": "*0", "atom_type": "O2s"}, "16": {"label": "*2", "atom_type": "H0"}}

>  <type>  (26) 
unop_22

>  <geom_source>  (26) 
AutoTST

$$$$

     RDKit          3D

 23 21  0  0  0  0  0  0  0  0999 V2000
    2.9766    1.2429   -1.5308 O   0  0  0  0  0  0  0  0  0  0  0  0
    2.1662    0.2527   -1.0113 N   0  0  0  0  0  0  0  0  0  0  0  0
    1.7363    0.5492    0.1379 C   0  0  0  0  0  0  0  0  0  0  0  0
    3.2288    0.8961   -2.3888 H   0  0  0  0  0  0  0  0  0  0  0  0
    1.9905    1.4821    0.6367 H   0  0  0  0  0  0  0  0  0  0  0  0
   -0.3430   -2.1879   -1.1233 C   0  0  0  0  0  0  0  0  0  0  0  0
   -0.3430   -2.1879    0.3996 C   0  0  0  0  0  0  0  0  0  0  0  0
   -0.3430   -0.7949    0.9951 C   0  0  0  0  0  3  0  0  0  0  0  0
   -1.5260   -0.1313    0.6275 O   0  0  0  0  0  0  0  0  0  0  0  0
   -1.5967    1.1868    1.1084 C   0  0  0  0  0  0  0  0  0  0  0  0
   -2.9000    1.8046    0.6576 C   0  0  0  0  0  0  0  0  0  0  0  0
    0.5391   -1.6736   -1.5129 H   0  0  0  0  0  0  0  0  0  0  0  0
   -1.2257   -1.6782   -1.5094 H   0  0  0  0  0  0  0  0  0  0  0  0
   -0.3375   -3.2058   -1.5160 H   0  0  0  0  0  0  0  0  0  0  0  0
    0.5386   -2.7144    0.7759 H   0  0  0  0  0  0  0  0  0  0  0  0
   -1.2173   -2.7259    0.7749 H   0  0  0  0  0  0  0  0  0  0  0  0
    0.7061   -0.1168    0.5627 H   0  0  0  0  0  0  0  0  0  0  0  0
   -0.2682   -0.8488    2.0912 H   0  0  0  0  0  0  0  0  0  0  0  0
   -1.5294    1.1897    2.2065 H   0  0  0  0  0  0  0  0  0  0  0  0
   -0.7438    1.7698    0.7306 H   0  0  0  0  0  0  0  0  0  0  0  0
   -3.7464    1.2352    1.0433 H   0  0  0  0  0  0  0  0  0  0  0  0
   -2.9608    1.8164   -0.4312 H   0  0  0  0  0  0  0  0  0  0  0  0
   -2.9776    2.8306    1.0207 H   0  0  0  0  0  0  0  0  0  0  0  0
  1  2  1  0
  1  4  1  0
  2  3  2  3
  3  5  1  0
  3 17  1  0
  6  7  1  0
  6 12  1  0
  6 13  1  0
  6 14  1  0
  7  8  1  0
  7 15  1  0
  7 16  1  0
  8  9  1  0
  8 18  1  0
  9 10  1  0
 10 11  1  0
 10 19  1  0
 10 20  1  0
 11 21  1  0
 11 22  1  0
 11 23  1  0
M  RAD  1   8   2
M  END
>  <reaction>  (27) 
rmg_rxn_15427

>  <mol_properties>  (27) 
{"1": {"label": "*4", "atom_type": "N3d"}, "2": {"label": "*3", "atom_type": "Cd"}, "7": {"label": "*1", "atom_type": "Cs"}, "8": {"label": "*0", "atom_type": "O2s"}, "16": {"label": "*2", "atom_type": "H0"}}

>  <type>  (27) 
unop_23

>  <geom_source>  (27) 
gaussian_log

$$$$
