
     RDKit          3D

 15 14  0  0  0  0  0  0  0  0999 V2000
   -2.0554    0.0723   -0.4910 C   0  0  0  0  0  0  0  0  0  0  0  0
   -0.7461   -0.6266   -0.8178 C   0  0  0  0  0  0  0  0  0  0  0  0
    0.3249    0.2591   -1.9782 S   0  0  0  0  0  0  0  0  0  0  0  0
   -0.7172    0.3642   -3.4551 C   0  0  0  0  0  0  0  0  0  0  0  0
   -1.1375   -0.9737   -4.0409 C   0  0  0  0  0  0  0  0  0  0  0  0
   -2.7005    0.1427   -1.3684 H   0  0  0  0  0  0  0  0  0  0  0  0
   -2.6016   -0.4848    0.2733 H   0  0  0  0  0  0  0  0  0  0  0  0
   -1.8758    1.0825   -0.1213 H   0  0  0  0  0  0  0  0  0  0  0  0
   -0.1320   -0.7246    0.0789 H   0  0  0  0  0  0  0  0  0  0  0  0
   -0.9254   -1.6374   -1.1879 H   0  0  0  0  0  0  0  0  0  0  0  0
   -1.5873    0.9874   -3.2422 H   0  0  0  0  0  0  0  0  0  0  0  0
   -0.1021    0.9161   -4.1678 H   0  0  0  0  0  0  0  0  0  0  0  0
   -1.7876   -1.5224   -3.3574 H   0  0  0  0  0  0  0  0  0  0  0  0
   -0.2676   -1.5962   -4.2534 H   0  0  0  0  0  0  0  0  0  0  0  0
   -1.6916   -0.8229   -4.9700 H   0  0  0  0  0  0  0  0  0  0  0  0
  1  2  1  0
  1  6  1  0
  1  7  1  0
  1  8  1  0
  2  3  1  0
  2  9  1  0
  2 10  1  0
  3  4  1  0
  4  5  1  0
  4 11  1  0
  4 12  1  0
  5 13  1  0
  5 14  1  0
  5 15  1  0
M  END
>  <reaction>  (1) 
rmg_rxn_498

>  <mol_properties>  (1) 
{"1": {"label": "donator", "atom_type": "Cs"}, "8": {"label": "d_hydrogen", "atom_type": "H0"}}

>  <type>  (1) 
r1h

$$$$

     RDKit          3D

 10  9  0  0  0  0  0  0  0  0999 V2000
    1.4352    0.2660   -0.1351 C   0  0  0  0  0  3  0  0  0  0  0  0
    0.2236   -0.3243    0.4850 C   0  0  0  0  0  0  0  0  0  0  0  0
   -0.8893    0.6872    0.7364 C   0  0  0  0  0  0  0  0  0  0  0  0
    2.3577   -0.2958   -0.1940 H   0  0  0  0  0  0  0  0  0  0  0  0
    1.3935    1.2286   -0.6287 H   0  0  0  0  0  0  0  0  0  0  0  0
   -0.1633   -1.1318   -0.1556 H   0  0  0  0  0  0  0  0  0  0  0  0
    0.4945   -0.8215    1.4240 H   0  0  0  0  0  0  0  0  0  0  0  0
   -1.1991    1.1627   -0.1967 H   0  0  0  0  0  0  0  0  0  0  0  0
   -1.7660    0.2103    1.1768 H   0  0  0  0  0  0  0  0  0  0  0  0
   -0.5545    1.4732    1.4159 H   0  0  0  0  0  0  0  0  0  0  0  0
  1  2  1  0
  1  4  1  0
  1  5  1  0
  2  3  1  0
  2  6  1  0
  2  7  1  0
  3  8  1  0
  3  9  1  0
  3 10  1  0
M  RAD  1   1   2
M  END
>  <reaction>  (2) 
rmg_rxn_498

>  <mol_properties>  (2) 
{"0": {"label": "acceptor", "atom_type": "Cs"}}

>  <type>  (2) 
r2

$$$$

     RDKit          3D

 11 10  0  0  0  0  0  0  0  0999 V2000
   -1.2710    0.1907   -0.2084 C   0  0  0  0  0  0  0  0  0  0  0  0
    0.0202   -0.6130   -0.2928 C   0  0  0  0  0  0  0  0  0  0  0  0
    0.1086   -1.6953    0.7756 C   0  0  0  0  0  0  0  0  0  0  0  0
   -1.3607    0.6851    0.7620 H   0  0  0  0  0  0  0  0  0  0  0  0
   -2.1429   -0.4567   -0.3299 H   0  0  0  0  0  0  0  0  0  0  0  0
   -1.3158    0.9602   -0.9809 H   0  0  0  0  0  0  0  0  0  0  0  0
    0.8757    0.0616   -0.1992 H   0  0  0  0  0  0  0  0  0  0  0  0
    0.0997   -1.0712   -1.2825 H   0  0  0  0  0  0  0  0  0  0  0  0
   -0.7198   -2.4022    0.6850 H   0  0  0  0  0  0  0  0  0  0  0  0
    1.0395   -2.2596    0.6989 H   0  0  0  0  0  0  0  0  0  0  0  0
    0.0624   -1.2603    1.7770 H   0  0  0  0  0  0  0  0  0  0  0  0
  1  2  1  0
  1  4  1  0
  1  5  1  0
  1  6  1  0
  2  3  1  0
  2  7  1  0
  2  8  1  0
  3  9  1  0
  3 10  1  0
  3 11  1  0
M  END
>  <reaction>  (3) 
rmg_rxn_498

>  <mol_properties>  (3) 
{"0": {"label": "acceptor", "atom_type": "Cs"}, "10": {"label": "a_hydrogen", "atom_type": "H0"}}

>  <type>  (3) 
r2h

$$$$

     RDKit          3D

 25 23  0  0  0  0  0  0  0  0999 V2000
   -1.5011   -2.1405    0.6937 C   0  0  0  0  0  3  0  0  0  0  0  0
   -2.3103   -1.1980    1.5437 C   0  0  0  0  0  0  0  0  0  0  0  0
   -2.9750   -0.0865    0.7406 C   0  0  0  0  0  0  0  0  0  0  0  0
   -0.9765   -2.9239    1.2375 H   0  0  0  0  0  0  0  0  0  0  0  0
   -2.0203   -2.5289   -0.1827 H   0  0  0  0  0  0  0  0  0  0  0  0
   -3.0781   -1.7694    2.0801 H   0  0  0  0  0  0  0  0  0  0  0  0
   -1.6692   -0.7603    2.3144 H   0  0  0  0  0  0  0  0  0  0  0  0
   -3.6069   -0.4994   -0.0497 H   0  0  0  0  0  0  0  0  0  0  0  0
   -3.6001    0.5412    1.3773 H   0  0  0  0  0  0  0  0  0  0  0  0
   -2.2240    0.5553    0.2763 H   0  0  0  0  0  0  0  0  0  0  0  0
   -0.0077   -0.3639   -1.8005 C   0  0  0  0  0  0  0  0  0  0  0  0
    0.5093   -0.7559   -0.4413 C   0  0  0  0  0  0  0  0  0  0  0  0
    0.8520    0.5539    0.7191 S   0  0  0  0  0  0  0  0  0  0  0  0
    2.0628    1.5687   -0.1781 C   0  0  0  0  0  0  0  0  0  0  0  0
    3.3573    0.8502   -0.5169 C   0  0  0  0  0  0  0  0  0  0  0  0
    0.7598    0.1364   -2.3990 H   0  0  0  0  0  0  0  0  0  0  0  0
   -0.3253   -1.2502   -2.3549 H   0  0  0  0  0  0  0  0  0  0  0  0
   -0.8594    0.3128   -1.7155 H   0  0  0  0  0  0  0  0  0  0  0  0
   -0.4793   -1.4283    0.1490 H   0  0  0  0  0  0  0  0  0  0  0  0
    1.3004   -1.5048   -0.4727 H   0  0  0  0  0  0  0  0  0  0  0  0
    1.5922    1.9739   -1.0752 H   0  0  0  0  0  0  0  0  0  0  0  0
    2.2502    2.4099    0.4916 H   0  0  0  0  0  0  0  0  0  0  0  0
    3.1781    0.0119   -1.1924 H   0  0  0  0  0  0  0  0  0  0  0  0
    3.8337    0.4611    0.3836 H   0  0  0  0  0  0  0  0  0  0  0  0
    4.0535    1.5319   -1.0109 H   0  0  0  0  0  0  0  0  0  0  0  0
  1  2  1  0
  1  4  1  0
  1  5  1  0
  2  3  1  0
  2  6  1  0
  2  7  1  0
  3  8  1  0
  3  9  1  0
  3 10  1  0
 11 12  1  0
 11 16  1  0
 11 17  1  0
 11 18  1  0
 12 13  1  0
 12 19  1  0
 12 20  1  0
 13 14  1  0
 14 15  1  0
 14 21  1  0
 14 22  1  0
 15 23  1  0
 15 24  1  0
 15 25  1  0
M  RAD  1   1   2
M  END
>  <reaction>  (4) 
rmg_rxn_498

>  <mol_properties>  (4) 
{"0": {"label": "*3", "atom_type": "Cs"}, "1": {"label": "*4", "atom_type": "Cs"}, "11": {"label": "*1", "atom_type": "Cs"}, "12": {"label": "*0", "atom_type": "S2s"}, "18": {"label": "*2", "atom_type": "H0"}}

>  <type>  (4) 
ts

$$$$

     RDKit          3D

 25 23  0  0  0  0  0  0  0  0999 V2000
   -2.1921   -1.3069    0.2887 C   0  0  0  0  0  3  0  0  0  0  0  0
   -1.8664   -2.5236    1.1455 C   0  0  0  0  0  0  0  0  0  0  0  0
   -0.4319   -2.5132    1.6580 C   0  0  0  0  0  0  0  0  0  0  0  0
   -3.2229   -1.3323   -0.0688 H   0  0  0  0  0  0  0  0  0  0  0  0
   -2.0571   -0.3825    0.8555 H   0  0  0  0  0  0  0  0  0  0  0  0
   -2.5556   -2.5668    1.9933 H   0  0  0  0  0  0  0  0  0  0  0  0
   -2.0390   -3.4342    0.5651 H   0  0  0  0  0  0  0  0  0  0  0  0
   -0.2415   -1.6268    2.2680 H   0  0  0  0  0  0  0  0  0  0  0  0
   -0.2179   -3.3917    2.2690 H   0  0  0  0  0  0  0  0  0  0  0  0
    0.2793   -2.5011    0.8285 H   0  0  0  0  0  0  0  0  0  0  0  0
   -0.0037   -0.1929   -2.1468 C   0  0  0  0  0  0  0  0  0  0  0  0
   -0.0037   -0.1929   -0.6270 C   0  0  0  0  0  0  0  0  0  0  0  0
   -0.0037    1.4482    0.1379 S   0  0  0  0  0  0  0  0  0  0  0  0
    1.5368    2.1621   -0.4907 C   0  0  0  0  0  0  0  0  0  0  0  0
    2.7978    1.4033   -0.1115 C   0  0  0  0  0  0  0  0  0  0  0  0
    0.9193    0.2307   -2.5462 H   0  0  0  0  0  0  0  0  0  0  0  0
   -0.0863   -1.2140   -2.5254 H   0  0  0  0  0  0  0  0  0  0  0  0
   -0.8395    0.3896   -2.5362 H   0  0  0  0  0  0  0  0  0  0  0  0
   -1.0972   -0.7495   -0.1695 H   0  0  0  0  0  0  0  0  0  0  0  0
    0.8325   -0.7755   -0.2370 H   0  0  0  0  0  0  0  0  0  0  0  0
    1.4657    2.2844   -1.5728 H   0  0  0  0  0  0  0  0  0  0  0  0
    1.5519    3.1653   -0.0615 H   0  0  0  0  0  0  0  0  0  0  0  0
    2.8190    0.4114   -0.5662 H   0  0  0  0  0  0  0  0  0  0  0  0
    2.8684    1.2813    0.9699 H   0  0  0  0  0  0  0  0  0  0  0  0
    3.6825    1.9417   -0.4585 H   0  0  0  0  0  0  0  0  0  0  0  0
  1  2  1  0
  1  4  1  0
  1  5  1  0
  2  3  1  0
  2  6  1  0
  2  7  1  0
  3  8  1  0
  3  9  1  0
  3 10  1  0
 11 12  1  0
 11 16  1  0
 11 17  1  0
 11 18  1  0
 12 13  1  0
 12 19  1  0
 12 20  1  0
 13 14  1  0
 14 15  1  0
 14 21  1  0
 14 22  1  0
 15 23  1  0
 15 24  1  0
 15 25  1  0
M  RAD  1   1   2
M  END
>  <reaction>  (5) 
rmg_rxn_498

>  <mol_properties>  (5) 
{"0": {"label": "*3", "atom_type": "Cs"}, "1": {"label": "*4", "atom_type": "Cs"}, "11": {"label": "*1", "atom_type": "Cs"}, "12": {"label": "*0", "atom_type": "S2s"}, "18": {"label": "*2", "atom_type": "H0"}}

>  <type>  (5) 
unop_1

>  <geom_source>  (5) 
Heuristics

$$$$

     RDKit          3D

 25 23  0  0  0  0  0  0  0  0999 V2000
   -1.9724   -1.2381    0.8121 C   0  0  0  0  0  3  0  0  0  0  0  0
   -2.4881   -2.2988   -0.1521 C   0  0  0  0  0  0  0  0  0  0  0  0
   -1.3712   -3.1568   -0.7325 C   0  0  0  0  0  0  0  0  0  0  0  0
   -2.7863   -0.6342    1.2169 H   0  0  0  0  0  0  0  0  0  0  0  0
   -1.4460   -1.6969    1.6525 H   0  0  0  0  0  0  0  0  0  0  0  0
   -3.2089   -2.9395    0.3633 H   0  0  0  0  0  0  0  0  0  0  0  0
   -3.0361   -1.8156   -0.9657 H   0  0  0  0  0  0  0  0  0  0  0  0
   -0.8258   -3.6761    0.0593 H   0  0  0  0  0  0  0  0  0  0  0  0
   -1.7599   -3.9099   -1.4200 H   0  0  0  0  0  0  0  0  0  0  0  0
   -0.6517   -2.5433   -1.2802 H   0  0  0  0  0  0  0  0  0  0  0  0
    0.2160   -0.1241   -1.6234 C   0  0  0  0  0  0  0  0  0  0  0  0
    0.2160   -0.1241   -0.1036 C   0  0  0  0  0  0  0  0  0  0  0  0
    0.2160    1.5170    0.6612 S   0  0  0  0  0  0  0  0  0  0  0  0
    1.7565    2.2309    0.0327 C   0  0  0  0  0  0  0  0  0  0  0  0
    3.0175    1.4721    0.4119 C   0  0  0  0  0  0  0  0  0  0  0  0
    1.1390    0.2995   -2.0228 H   0  0  0  0  0  0  0  0  0  0  0  0
    0.1334   -1.1452   -2.0020 H   0  0  0  0  0  0  0  0  0  0  0  0
   -0.6198    0.4584   -2.0128 H   0  0  0  0  0  0  0  0  0  0  0  0
   -0.8775   -0.6807    0.3539 H   0  0  0  0  0  0  0  0  0  0  0  0
    1.0522   -0.7067    0.2864 H   0  0  0  0  0  0  0  0  0  0  0  0
    1.6854    2.3532   -1.0494 H   0  0  0  0  0  0  0  0  0  0  0  0
    1.7716    3.2341    0.4619 H   0  0  0  0  0  0  0  0  0  0  0  0
    3.0387    0.4802   -0.0428 H   0  0  0  0  0  0  0  0  0  0  0  0
    3.0881    1.3500    1.4933 H   0  0  0  0  0  0  0  0  0  0  0  0
    3.9022    2.0105    0.0649 H   0  0  0  0  0  0  0  0  0  0  0  0
  1  2  1  0
  1  4  1  0
  1  5  1  0
  2  3  1  0
  2  6  1  0
  2  7  1  0
  3  8  1  0
  3  9  1  0
  3 10  1  0
 11 12  1  0
 11 16  1  0
 11 17  1  0
 11 18  1  0
 12 13  1  0
 12 19  1  0
 12 20  1  0
 13 14  1  0
 14 15  1  0
 14 21  1  0
 14 22  1  0
 15 23  1  0
 15 24  1  0
 15 25  1  0
M  RAD  1   1   2
M  END
>  <reaction>  (6) 
rmg_rxn_498

>  <mol_properties>  (6) 
{"0": {"label": "*3", "atom_type": "Cs"}, "1": {"label": "*4", "atom_type": "Cs"}, "11": {"label": "*1", "atom_type": "Cs"}, "12": {"label": "*0", "atom_type": "S2s"}, "18": {"label": "*2", "atom_type": "H0"}}

>  <type>  (6) 
unop_2

>  <geom_source>  (6) 
Heuristics

$$$$

     RDKit          3D

 25 23  0  0  0  0  0  0  0  0999 V2000
   -2.1337   -1.5048    0.1502 C   0  0  0  0  0  3  0  0  0  0  0  0
   -1.8820   -2.1749    1.4949 C   0  0  0  0  0  0  0  0  0  0  0  0
   -0.8047   -1.4701    2.3092 C   0  0  0  0  0  0  0  0  0  0  0  0
   -2.9077   -2.0235   -0.4179 H   0  0  0  0  0  0  0  0  0  0  0  0
   -2.4543   -0.4688    0.2840 H   0  0  0  0  0  0  0  0  0  0  0  0
   -2.8128   -2.2014    2.0682 H   0  0  0  0  0  0  0  0  0  0  0  0
   -1.5930   -3.2172    1.3338 H   0  0  0  0  0  0  0  0  0  0  0  0
   -1.0835   -0.4329    2.5110 H   0  0  0  0  0  0  0  0  0  0  0  0
   -0.6389   -1.9642    3.2680 H   0  0  0  0  0  0  0  0  0  0  0  0
    0.1460   -1.4568    1.7707 H   0  0  0  0  0  0  0  0  0  0  0  0
    0.0547   -0.3908   -2.2852 C   0  0  0  0  0  0  0  0  0  0  0  0
    0.0547   -0.3908   -0.7655 C   0  0  0  0  0  0  0  0  0  0  0  0
    0.0547    1.2503   -0.0006 S   0  0  0  0  0  0  0  0  0  0  0  0
    1.5953    1.9642   -0.6292 C   0  0  0  0  0  0  0  0  0  0  0  0
    2.8562    1.2054   -0.2500 C   0  0  0  0  0  0  0  0  0  0  0  0
    0.9777    0.0328   -2.6847 H   0  0  0  0  0  0  0  0  0  0  0  0
   -0.0279   -1.4120   -2.6639 H   0  0  0  0  0  0  0  0  0  0  0  0
   -0.7810    0.1917   -2.6746 H   0  0  0  0  0  0  0  0  0  0  0  0
   -1.0388   -0.9474   -0.3080 H   0  0  0  0  0  0  0  0  0  0  0  0
    0.8909   -0.9734   -0.3755 H   0  0  0  0  0  0  0  0  0  0  0  0
    1.5241    2.0864   -1.7113 H   0  0  0  0  0  0  0  0  0  0  0  0
    1.6104    2.9674   -0.1999 H   0  0  0  0  0  0  0  0  0  0  0  0
    2.8774    0.2135   -0.7047 H   0  0  0  0  0  0  0  0  0  0  0  0
    2.9269    1.0833    0.8314 H   0  0  0  0  0  0  0  0  0  0  0  0
    3.7409    1.7438   -0.5969 H   0  0  0  0  0  0  0  0  0  0  0  0
  1  2  1  0
  1  4  1  0
  1  5  1  0
  2  3  1  0
  2  6  1  0
  2  7  1  0
  3  8  1  0
  3  9  1  0
  3 10  1  0
 11 12  1  0
 11 16  1  0
 11 17  1  0
 11 18  1  0
 12 13  1  0
 12 19  1  0
 12 20  1  0
 13 14  1  0
 14 15  1  0
 14 21  1  0
 14 22  1  0
 15 23  1  0
 15 24  1  0
 15 25  1  0
M  RAD  1   1   2
M  END
>  <reaction>  (7) 
rmg_rxn_498

>  <mol_properties>  (7) 
{"0": {"label": "*3", "atom_type": "Cs"}, "1": {"label": "*4", "atom_type": "Cs"}, "11": {"label": "*1", "atom_type": "Cs"}, "12": {"label": "*0", "atom_type": "S2s"}, "18": {"label": "*2", "atom_type": "H0"}}

>  <type>  (7) 
unop_3

>  <geom_source>  (7) 
Heuristics

$$$$

     RDKit          3D

 25 23  0  0  0  0  0  0  0  0999 V2000
   -1.6257   -1.6731    0.7859 C   0  0  0  0  0  3  0  0  0  0  0  0
   -2.8609   -0.9194    0.3096 C   0  0  0  0  0  0  0  0  0  0  0  0
   -3.4171   -1.4706   -0.9970 C   0  0  0  0  0  0  0  0  0  0  0  0
   -1.2423   -1.2640    1.7221 H   0  0  0  0  0  0  0  0  0  0  0  0
   -1.8519   -2.7295    0.9499 H   0  0  0  0  0  0  0  0  0  0  0  0
   -3.6341   -0.9631    1.0816 H   0  0  0  0  0  0  0  0  0  0  0  0
   -2.6154    0.1387    0.1831 H   0  0  0  0  0  0  0  0  0  0  0  0
   -3.6997   -2.5206   -0.8891 H   0  0  0  0  0  0  0  0  0  0  0  0
   -4.3006   -0.9184   -1.3216 H   0  0  0  0  0  0  0  0  0  0  0  0
   -2.6729   -1.4101   -1.7948 H   0  0  0  0  0  0  0  0  0  0  0  0
    0.5626   -0.5591   -1.6496 C   0  0  0  0  0  0  0  0  0  0  0  0
    0.5626   -0.5591   -0.1299 C   0  0  0  0  0  0  0  0  0  0  0  0
    0.5626    1.0820    0.6350 S   0  0  0  0  0  0  0  0  0  0  0  0
    2.1032    1.7959    0.0064 C   0  0  0  0  0  0  0  0  0  0  0  0
    3.3641    1.0371    0.3857 C   0  0  0  0  0  0  0  0  0  0  0  0
    1.4857   -0.1355   -2.0490 H   0  0  0  0  0  0  0  0  0  0  0  0
    0.4801   -1.5803   -2.0283 H   0  0  0  0  0  0  0  0  0  0  0  0
   -0.2731    0.0234   -2.0390 H   0  0  0  0  0  0  0  0  0  0  0  0
   -0.5308   -1.1157    0.3277 H   0  0  0  0  0  0  0  0  0  0  0  0
    1.3988   -1.1417    0.2602 H   0  0  0  0  0  0  0  0  0  0  0  0
    2.0321    1.9181   -1.0756 H   0  0  0  0  0  0  0  0  0  0  0  0
    2.1183    2.7991    0.4357 H   0  0  0  0  0  0  0  0  0  0  0  0
    3.3854    0.0452   -0.0690 H   0  0  0  0  0  0  0  0  0  0  0  0
    3.4348    0.9150    1.4671 H   0  0  0  0  0  0  0  0  0  0  0  0
    4.2489    1.5755    0.0387 H   0  0  0  0  0  0  0  0  0  0  0  0
  1  2  1  0
  1  4  1  0
  1  5  1  0
  2  3  1  0
  2  6  1  0
  2  7  1  0
  3  8  1  0
  3  9  1  0
  3 10  1  0
 11 12  1  0
 11 16  1  0
 11 17  1  0
 11 18  1  0
 12 13  1  0
 12 19  1  0
 12 20  1  0
 13 14  1  0
 14 15  1  0
 14 21  1  0
 14 22  1  0
 15 23  1  0
 15 24  1  0
 15 25  1  0
M  RAD  1   1   2
M  END
>  <reaction>  (8) 
rmg_rxn_498

>  <mol_properties>  (8) 
{"0": {"label": "*3", "atom_type": "Cs"}, "1": {"label": "*4", "atom_type": "Cs"}, "11": {"label": "*1", "atom_type": "Cs"}, "12": {"label": "*0", "atom_type": "S2s"}, "18": {"label": "*2", "atom_type": "H0"}}

>  <type>  (8) 
unop_4

>  <geom_source>  (8) 
Heuristics

$$$$

     RDKit          3D

 25 23  0  0  0  0  0  0  0  0999 V2000
   -1.9631   -1.7249    0.1380 C   0  0  0  0  0  3  0  0  0  0  0  0
   -1.9748   -1.7308    1.6613 C   0  0  0  0  0  0  0  0  0  0  0  0
   -1.8989   -0.3297    2.2541 C   0  0  0  0  0  0  0  0  0  0  0  0
   -2.0181   -2.7365   -0.2676 H   0  0  0  0  0  0  0  0  0  0  0  0
   -2.8106   -1.1595   -0.2570 H   0  0  0  0  0  0  0  0  0  0  0  0
   -2.8820   -2.2276    2.0163 H   0  0  0  0  0  0  0  0  0  0  0  0
   -1.1358   -2.3278    2.0294 H   0  0  0  0  0  0  0  0  0  0  0  0
   -2.7444    0.2797    1.9258 H   0  0  0  0  0  0  0  0  0  0  0  0
   -1.9085   -0.3546    3.3450 H   0  0  0  0  0  0  0  0  0  0  0  0
   -0.9844    0.1788    1.9390 H   0  0  0  0  0  0  0  0  0  0  0  0
    0.2253   -0.6109   -2.2975 C   0  0  0  0  0  0  0  0  0  0  0  0
    0.2253   -0.6109   -0.7777 C   0  0  0  0  0  0  0  0  0  0  0  0
    0.2253    1.0302   -0.0128 S   0  0  0  0  0  0  0  0  0  0  0  0
    1.7658    1.7441   -0.6414 C   0  0  0  0  0  0  0  0  0  0  0  0
    3.0268    0.9853   -0.2622 C   0  0  0  0  0  0  0  0  0  0  0  0
    1.1483   -0.1873   -2.6969 H   0  0  0  0  0  0  0  0  0  0  0  0
    0.1427   -1.6320   -2.6761 H   0  0  0  0  0  0  0  0  0  0  0  0
   -0.6105   -0.0284   -2.6869 H   0  0  0  0  0  0  0  0  0  0  0  0
   -0.8682   -1.1675   -0.3202 H   0  0  0  0  0  0  0  0  0  0  0  0
    1.0615   -1.1935   -0.3877 H   0  0  0  0  0  0  0  0  0  0  0  0
    1.6947    1.8664   -1.7235 H   0  0  0  0  0  0  0  0  0  0  0  0
    1.7809    2.7473   -0.2122 H   0  0  0  0  0  0  0  0  0  0  0  0
    3.0480   -0.0066   -0.7169 H   0  0  0  0  0  0  0  0  0  0  0  0
    3.0974    0.8632    0.8192 H   0  0  0  0  0  0  0  0  0  0  0  0
    3.9115    1.5237   -0.6092 H   0  0  0  0  0  0  0  0  0  0  0  0
  1  2  1  0
  1  4  1  0
  1  5  1  0
  2  3  1  0
  2  6  1  0
  2  7  1  0
  3  8  1  0
  3  9  1  0
  3 10  1  0
 11 12  1  0
 11 16  1  0
 11 17  1  0
 11 18  1  0
 12 13  1  0
 12 19  1  0
 12 20  1  0
 13 14  1  0
 14 15  1  0
 14 21  1  0
 14 22  1  0
 15 23  1  0
 15 24  1  0
 15 25  1  0
M  RAD  1   1   2
M  END
>  <reaction>  (9) 
rmg_rxn_498

>  <mol_properties>  (9) 
{"0": {"label": "*3", "atom_type": "Cs"}, "1": {"label": "*4", "atom_type": "Cs"}, "11": {"label": "*1", "atom_type": "Cs"}, "12": {"label": "*0", "atom_type": "S2s"}, "18": {"label": "*2", "atom_type": "H0"}}

>  <type>  (9) 
unop_5

>  <geom_source>  (9) 
Heuristics

$$$$

     RDKit          3D

 25 23  0  0  0  0  0  0  0  0999 V2000
   -1.6078   -1.7984    0.6222 C   0  0  0  0  0  3  0  0  0  0  0  0
   -2.7079   -0.7621    0.8125 C   0  0  0  0  0  0  0  0  0  0  0  0
   -3.6994   -0.7399   -0.3437 C   0  0  0  0  0  0  0  0  0  0  0  0
   -0.9081   -1.7992    1.4598 H   0  0  0  0  0  0  0  0  0  0  0  0
   -2.0283   -2.8033    0.5366 H   0  0  0  0  0  0  0  0  0  0  0  0
   -3.2411   -0.9644    1.7455 H   0  0  0  0  0  0  0  0  0  0  0  0
   -2.2590    0.2286    0.9261 H   0  0  0  0  0  0  0  0  0  0  0  0
   -4.1859   -1.7115   -0.4598 H   0  0  0  0  0  0  0  0  0  0  0  0
   -4.4791    0.0079   -0.1893 H   0  0  0  0  0  0  0  0  0  0  0  0
   -3.1960   -0.5090   -1.2857 H   0  0  0  0  0  0  0  0  0  0  0  0
    0.5806   -0.6844   -1.8132 C   0  0  0  0  0  0  0  0  0  0  0  0
    0.5806   -0.6844   -0.2935 C   0  0  0  0  0  0  0  0  0  0  0  0
    0.5806    0.9567    0.4714 S   0  0  0  0  0  0  0  0  0  0  0  0
    2.1212    1.6706   -0.1572 C   0  0  0  0  0  0  0  0  0  0  0  0
    3.3821    0.9117    0.2220 C   0  0  0  0  0  0  0  0  0  0  0  0
    1.5036   -0.2608   -2.2126 H   0  0  0  0  0  0  0  0  0  0  0  0
    0.4981   -1.7056   -2.1919 H   0  0  0  0  0  0  0  0  0  0  0  0
   -0.2551   -0.1019   -2.2026 H   0  0  0  0  0  0  0  0  0  0  0  0
   -0.5128   -1.2410    0.1641 H   0  0  0  0  0  0  0  0  0  0  0  0
    1.4168   -1.2671    0.0966 H   0  0  0  0  0  0  0  0  0  0  0  0
    2.0500    1.7928   -1.2392 H   0  0  0  0  0  0  0  0  0  0  0  0
    2.1363    2.6738    0.2721 H   0  0  0  0  0  0  0  0  0  0  0  0
    3.4033   -0.0801   -0.2326 H   0  0  0  0  0  0  0  0  0  0  0  0
    3.4528    0.7897    1.3034 H   0  0  0  0  0  0  0  0  0  0  0  0
    4.2669    1.4501   -0.1249 H   0  0  0  0  0  0  0  0  0  0  0  0
  1  2  1  0
  1  4  1  0
  1  5  1  0
  2  3  1  0
  2  6  1  0
  2  7  1  0
  3  8  1  0
  3  9  1  0
  3 10  1  0
 11 12  1  0
 11 16  1  0
 11 17  1  0
 11 18  1  0
 12 13  1  0
 12 19  1  0
 12 20  1  0
 13 14  1  0
 14 15  1  0
 14 21  1  0
 14 22  1  0
 15 23  1  0
 15 24  1  0
 15 25  1  0
M  RAD  1   1   2
M  END
>  <reaction>  (10) 
rmg_rxn_498

>  <mol_properties>  (10) 
{"0": {"label": "*3", "atom_type": "Cs"}, "1": {"label": "*4", "atom_type": "Cs"}, "11": {"label": "*1", "atom_type": "Cs"}, "12": {"label": "*0", "atom_type": "S2s"}, "18": {"label": "*2", "atom_type": "H0"}}

>  <type>  (10) 
unop_6

>  <geom_source>  (10) 
Heuristics

$$$$

     RDKit          3D

 25 23  0  0  0  0  0  0  0  0999 V2000
   -1.6578   -1.8540    0.4323 C   0  0  0  0  0  3  0  0  0  0  0  0
   -2.4500   -0.8747    1.2891 C   0  0  0  0  0  0  0  0  0  0  0  0
   -3.6027   -0.2303    0.5299 C   0  0  0  0  0  0  0  0  0  0  0  0
   -0.8372   -2.3048    0.9930 H   0  0  0  0  0  0  0  0  0  0  0  0
   -2.2980   -2.6614    0.0687 H   0  0  0  0  0  0  0  0  0  0  0  0
   -2.8389   -1.3935    2.1697 H   0  0  0  0  0  0  0  0  0  0  0  0
   -1.7807   -0.0956    1.6646 H   0  0  0  0  0  0  0  0  0  0  0  0
   -4.3042   -0.9866    0.1694 H   0  0  0  0  0  0  0  0  0  0  0  0
   -4.1577    0.4672    1.1596 H   0  0  0  0  0  0  0  0  0  0  0  0
   -3.2377    0.3216   -0.3397 H   0  0  0  0  0  0  0  0  0  0  0  0
    0.5306   -0.7400   -2.0031 C   0  0  0  0  0  0  0  0  0  0  0  0
    0.5306   -0.7400   -0.4834 C   0  0  0  0  0  0  0  0  0  0  0  0
    0.5306    0.9011    0.2815 S   0  0  0  0  0  0  0  0  0  0  0  0
    2.0712    1.6151   -0.3471 C   0  0  0  0  0  0  0  0  0  0  0  0
    3.3321    0.8562    0.0321 C   0  0  0  0  0  0  0  0  0  0  0  0
    1.4536   -0.3164   -2.4025 H   0  0  0  0  0  0  0  0  0  0  0  0
    0.4480   -1.7611   -2.3818 H   0  0  0  0  0  0  0  0  0  0  0  0
   -0.3051   -0.1575   -2.3925 H   0  0  0  0  0  0  0  0  0  0  0  0
   -0.5629   -1.2966   -0.0258 H   0  0  0  0  0  0  0  0  0  0  0  0
    1.3668   -1.3226   -0.0933 H   0  0  0  0  0  0  0  0  0  0  0  0
    2.0000    1.7373   -1.4291 H   0  0  0  0  0  0  0  0  0  0  0  0
    2.0862    2.6182    0.0822 H   0  0  0  0  0  0  0  0  0  0  0  0
    3.3533   -0.1356   -0.4225 H   0  0  0  0  0  0  0  0  0  0  0  0
    3.4028    0.7342    1.1135 H   0  0  0  0  0  0  0  0  0  0  0  0
    4.2168    1.3946   -0.3148 H   0  0  0  0  0  0  0  0  0  0  0  0
  1  2  1  0
  1  4  1  0
  1  5  1  0
  2  3  1  0
  2  6  1  0
  2  7  1  0
  3  8  1  0
  3  9  1  0
  3 10  1  0
 11 12  1  0
 11 16  1  0
 11 17  1  0
 11 18  1  0
 12 13  1  0
 12 19  1  0
 12 20  1  0
 13 14  1  0
 14 15  1  0
 14 21  1  0
 14 22  1  0
 15 23  1  0
 15 24  1  0
 15 25  1  0
M  RAD  1   1   2
M  END
>  <reaction>  (11) 
rmg_rxn_498

>  <mol_properties>  (11) 
{"0": {"label": "*3", "atom_type": "Cs"}, "1": {"label": "*4", "atom_type": "Cs"}, "11": {"label": "*1", "atom_type": "Cs"}, "12": {"label": "*0", "atom_type": "S2s"}, "18": {"label": "*2", "atom_type": "H0"}}

>  <type>  (11) 
unop_7

>  <geom_source>  (11) 
Heuristics

$$$$

     RDKit          3D

 25 23  0  0  0  0  0  0  0  0999 V2000
   -2.1676   -1.1971    0.4798 C   0  0  0  0  0  3  0  0  0  0  0  0
   -1.9769   -2.6964    0.6700 C   0  0  0  0  0  0  0  0  0  0  0  0
   -0.5097   -3.0926    0.7751 C   0  0  0  0  0  0  0  0  0  0  0  0
   -3.2239   -0.9331    0.4068 H   0  0  0  0  0  0  0  0  0  0  0  0
   -1.7404   -0.6396    1.3169 H   0  0  0  0  0  0  0  0  0  0  0  0
   -2.5065   -3.0193    1.5706 H   0  0  0  0  0  0  0  0  0  0  0  0
   -2.4394   -3.2310   -0.1643 H   0  0  0  0  0  0  0  0  0  0  0  0
   -0.0303   -2.5949    1.6215 H   0  0  0  0  0  0  0  0  0  0  0  0
   -0.3936   -4.1692    0.9109 H   0  0  0  0  0  0  0  0  0  0  0  0
    0.0373   -2.8082   -0.1272 H   0  0  0  0  0  0  0  0  0  0  0  0
    0.0208   -0.0831   -1.9557 C   0  0  0  0  0  0  0  0  0  0  0  0
    0.0208   -0.0831   -0.4359 C   0  0  0  0  0  0  0  0  0  0  0  0
    0.0208    1.5580    0.3289 S   0  0  0  0  0  0  0  0  0  0  0  0
    1.5614    2.2719   -0.2996 C   0  0  0  0  0  0  0  0  0  0  0  0
    2.8223    1.5131    0.0796 C   0  0  0  0  0  0  0  0  0  0  0  0
    0.9438    0.3405   -2.3551 H   0  0  0  0  0  0  0  0  0  0  0  0
   -0.0618   -1.1043   -2.3343 H   0  0  0  0  0  0  0  0  0  0  0  0
   -0.8149    0.4994   -2.3451 H   0  0  0  0  0  0  0  0  0  0  0  0
   -1.0726   -0.6397    0.0216 H   0  0  0  0  0  0  0  0  0  0  0  0
    0.8570   -0.6657   -0.0459 H   0  0  0  0  0  0  0  0  0  0  0  0
    1.4902    2.3941   -1.3817 H   0  0  0  0  0  0  0  0  0  0  0  0
    1.5765    3.2751    0.1296 H   0  0  0  0  0  0  0  0  0  0  0  0
    2.8435    0.5212   -0.3751 H   0  0  0  0  0  0  0  0  0  0  0  0
    2.8930    1.3910    1.1610 H   0  0  0  0  0  0  0  0  0  0  0  0
    3.7071    2.0515   -0.2674 H   0  0  0  0  0  0  0  0  0  0  0  0
  1  2  1  0
  1  4  1  0
  1  5  1  0
  2  3  1  0
  2  6  1  0
  2  7  1  0
  3  8  1  0
  3  9  1  0
  3 10  1  0
 11 12  1  0
 11 16  1  0
 11 17  1  0
 11 18  1  0
 12 13  1  0
 12 19  1  0
 12 20  1  0
 13 14  1  0
 14 15  1  0
 14 21  1  0
 14 22  1  0
 15 23  1  0
 15 24  1  0
 15 25  1  0
M  RAD  1   1   2
M  END
>  <reaction>  (12) 
rmg_rxn_498

>  <mol_properties>  (12) 
{"0": {"label": "*3", "atom_type": "Cs"}, "1": {"label": "*4", "atom_type": "Cs"}, "11": {"label": "*1", "atom_type": "Cs"}, "12": {"label": "*0", "atom_type": "S2s"}, "18": {"label": "*2", "atom_type": "H0"}}

>  <type>  (12) 
unop_8

>  <geom_source>  (12) 
Heuristics

$$$$

     RDKit          3D

 25 23  0  0  0  0  0  0  0  0999 V2000
   -1.7101   -1.5093    0.8819 C   0  0  0  0  0  3  0  0  0  0  0  0
   -2.8711   -1.3021   -0.0823 C   0  0  0  0  0  0  0  0  0  0  0  0
   -2.8133   -2.2409   -1.2806 C   0  0  0  0  0  0  0  0  0  0  0  0
   -1.7689   -0.8285    1.7328 H   0  0  0  0  0  0  0  0  0  0  0  0
   -1.7023   -2.5306    1.2703 H   0  0  0  0  0  0  0  0  0  0  0  0
   -3.8158   -1.4477    0.4490 H   0  0  0  0  0  0  0  0  0  0  0  0
   -2.8739   -0.2658   -0.4315 H   0  0  0  0  0  0  0  0  0  0  0  0
   -2.8403   -3.2852   -0.9603 H   0  0  0  0  0  0  0  0  0  0  0  0
   -3.6524   -2.0775   -1.9590 H   0  0  0  0  0  0  0  0  0  0  0  0
   -1.8909   -2.0940   -1.8477 H   0  0  0  0  0  0  0  0  0  0  0  0
    0.4783   -0.3952   -1.5536 C   0  0  0  0  0  0  0  0  0  0  0  0
    0.4783   -0.3952   -0.0339 C   0  0  0  0  0  0  0  0  0  0  0  0
    0.4783    1.2458    0.7310 S   0  0  0  0  0  0  0  0  0  0  0  0
    2.0189    1.9598    0.1024 C   0  0  0  0  0  0  0  0  0  0  0  0
    3.2798    1.2009    0.4817 C   0  0  0  0  0  0  0  0  0  0  0  0
    1.4013    0.0283   -1.9530 H   0  0  0  0  0  0  0  0  0  0  0  0
    0.3957   -1.4164   -1.9322 H   0  0  0  0  0  0  0  0  0  0  0  0
   -0.3574    0.1872   -1.9430 H   0  0  0  0  0  0  0  0  0  0  0  0
   -0.6152   -0.9519    0.4237 H   0  0  0  0  0  0  0  0  0  0  0  0
    1.3145   -0.9779    0.3562 H   0  0  0  0  0  0  0  0  0  0  0  0
    1.9477    2.0820   -0.9796 H   0  0  0  0  0  0  0  0  0  0  0  0
    2.0340    2.9629    0.5317 H   0  0  0  0  0  0  0  0  0  0  0  0
    3.3010    0.2091    0.0270 H   0  0  0  0  0  0  0  0  0  0  0  0
    3.3505    1.0789    1.5631 H   0  0  0  0  0  0  0  0  0  0  0  0
    4.1645    1.7393    0.1347 H   0  0  0  0  0  0  0  0  0  0  0  0
  1  2  1  0
  1  4  1  0
  1  5  1  0
  2  3  1  0
  2  6  1  0
  2  7  1  0
  3  8  1  0
  3  9  1  0
  3 10  1  0
 11 12  1  0
 11 16  1  0
 11 17  1  0
 11 18  1  0
 12 13  1  0
 12 19  1  0
 12 20  1  0
 13 14  1  0
 14 15  1  0
 14 21  1  0
 14 22  1  0
 15 23  1  0
 15 24  1  0
 15 25  1  0
M  RAD  1   1   2
M  END
>  <reaction>  (13) 
rmg_rxn_498

>  <mol_properties>  (13) 
{"0": {"label": "*3", "atom_type": "Cs"}, "1": {"label": "*4", "atom_type": "Cs"}, "11": {"label": "*1", "atom_type": "Cs"}, "12": {"label": "*0", "atom_type": "S2s"}, "18": {"label": "*2", "atom_type": "H0"}}

>  <type>  (13) 
unop_9

>  <geom_source>  (13) 
Heuristics

$$$$

     RDKit          3D

 25 23  0  0  0  0  0  0  0  0999 V2000
   -2.0877   -1.1795    0.6676 C   0  0  0  0  0  3  0  0  0  0  0  0
   -2.2049   -2.6217    0.1913 C   0  0  0  0  0  0  0  0  0  0  0  0
   -0.8492   -3.2660   -0.0681 C   0  0  0  0  0  0  0  0  0  0  0  0
   -3.0682   -0.7355    0.8478 H   0  0  0  0  0  0  0  0  0  0  0  0
   -1.5174   -1.1204    1.5978 H   0  0  0  0  0  0  0  0  0  0  0  0
   -2.7499   -3.2079    0.9364 H   0  0  0  0  0  0  0  0  0  0  0  0
   -2.8049   -2.6557   -0.7223 H   0  0  0  0  0  0  0  0  0  0  0  0
   -0.2399   -3.2727    0.8390 H   0  0  0  0  0  0  0  0  0  0  0  0
   -0.9538   -4.2977   -0.4080 H   0  0  0  0  0  0  0  0  0  0  0  0
   -0.2953   -2.7161   -0.8328 H   0  0  0  0  0  0  0  0  0  0  0  0
    0.1007   -0.0655   -1.7679 C   0  0  0  0  0  0  0  0  0  0  0  0
    0.1007   -0.0655   -0.2481 C   0  0  0  0  0  0  0  0  0  0  0  0
    0.1007    1.5756    0.5167 S   0  0  0  0  0  0  0  0  0  0  0  0
    1.6413    2.2896   -0.1118 C   0  0  0  0  0  0  0  0  0  0  0  0
    2.9022    1.5307    0.2674 C   0  0  0  0  0  0  0  0  0  0  0  0
    1.0237    0.3581   -2.1673 H   0  0  0  0  0  0  0  0  0  0  0  0
    0.0181   -1.0866   -2.1465 H   0  0  0  0  0  0  0  0  0  0  0  0
   -0.7350    0.5170   -2.1573 H   0  0  0  0  0  0  0  0  0  0  0  0
   -0.9928   -0.6221    0.2094 H   0  0  0  0  0  0  0  0  0  0  0  0
    0.9369   -0.6481    0.1419 H   0  0  0  0  0  0  0  0  0  0  0  0
    1.5701    2.4118   -1.1939 H   0  0  0  0  0  0  0  0  0  0  0  0
    1.6564    3.2927    0.3174 H   0  0  0  0  0  0  0  0  0  0  0  0
    2.9234    0.5389   -0.1873 H   0  0  0  0  0  0  0  0  0  0  0  0
    2.9729    1.4087    1.3488 H   0  0  0  0  0  0  0  0  0  0  0  0
    3.7869    2.0691   -0.0796 H   0  0  0  0  0  0  0  0  0  0  0  0
  1  2  1  0
  1  4  1  0
  1  5  1  0
  2  3  1  0
  2  6  1  0
  2  7  1  0
  3  8  1  0
  3  9  1  0
  3 10  1  0
 11 12  1  0
 11 16  1  0
 11 17  1  0
 11 18  1  0
 12 13  1  0
 12 19  1  0
 12 20  1  0
 13 14  1  0
 14 15  1  0
 14 21  1  0
 14 22  1  0
 15 23  1  0
 15 24  1  0
 15 25  1  0
M  RAD  1   1   2
M  END
>  <reaction>  (14) 
rmg_rxn_498

>  <mol_properties>  (14) 
{"0": {"label": "*3", "atom_type": "Cs"}, "1": {"label": "*4", "atom_type": "Cs"}, "11": {"label": "*1", "atom_type": "Cs"}, "12": {"label": "*0", "atom_type": "S2s"}, "18": {"label": "*2", "atom_type": "H0"}}

>  <type>  (14) 
unop_10

>  <geom_source>  (14) 
Heuristics

$$$$

     RDKit          3D

 25 23  0  0  0  0  0  0  0  0999 V2000
   -1.7733   -1.8349    0.2582 C   0  0  0  0  0  3  0  0  0  0  0  0
   -2.1671   -1.2372    1.6029 C   0  0  0  0  0  0  0  0  0  0  0  0
   -3.0583   -0.0099    1.4610 C   0  0  0  0  0  0  0  0  0  0  0  0
   -1.1357   -2.7121    0.3804 H   0  0  0  0  0  0  0  0  0  0  0  0
   -2.6570   -2.1397   -0.3076 H   0  0  0  0  0  0  0  0  0  0  0  0
   -2.6823   -1.9940    2.2008 H   0  0  0  0  0  0  0  0  0  0  0  0
   -1.2652   -0.9696    2.1604 H   0  0  0  0  0  0  0  0  0  0  0  0
   -3.9825   -0.2572    0.9331 H   0  0  0  0  0  0  0  0  0  0  0  0
   -3.3295    0.4036    2.4339 H   0  0  0  0  0  0  0  0  0  0  0  0
   -2.5542    0.7753    0.8924 H   0  0  0  0  0  0  0  0  0  0  0  0
    0.4150   -0.7209   -2.1772 C   0  0  0  0  0  0  0  0  0  0  0  0
    0.4150   -0.7209   -0.6575 C   0  0  0  0  0  0  0  0  0  0  0  0
    0.4150    0.9202    0.1074 S   0  0  0  0  0  0  0  0  0  0  0  0
    1.9556    1.6341   -0.5212 C   0  0  0  0  0  0  0  0  0  0  0  0
    3.2166    0.8753   -0.1420 C   0  0  0  0  0  0  0  0  0  0  0  0
    1.3381   -0.2973   -2.5766 H   0  0  0  0  0  0  0  0  0  0  0  0
    0.3325   -1.7421   -2.5559 H   0  0  0  0  0  0  0  0  0  0  0  0
   -0.4207   -0.1384   -2.5666 H   0  0  0  0  0  0  0  0  0  0  0  0
   -0.6784   -1.2775   -0.1999 H   0  0  0  0  0  0  0  0  0  0  0  0
    1.2512   -1.3035   -0.2675 H   0  0  0  0  0  0  0  0  0  0  0  0
    1.8845    1.7563   -1.6032 H   0  0  0  0  0  0  0  0  0  0  0  0
    1.9707    2.6373   -0.0919 H   0  0  0  0  0  0  0  0  0  0  0  0
    3.2378   -0.1166   -0.5967 H   0  0  0  0  0  0  0  0  0  0  0  0
    3.2872    0.7532    0.9394 H   0  0  0  0  0  0  0  0  0  0  0  0
    4.1013    1.4137   -0.4889 H   0  0  0  0  0  0  0  0  0  0  0  0
  1  2  1  0
  1  4  1  0
  1  5  1  0
  2  3  1  0
  2  6  1  0
  2  7  1  0
  3  8  1  0
  3  9  1  0
  3 10  1  0
 11 12  1  0
 11 16  1  0
 11 17  1  0
 11 18  1  0
 12 13  1  0
 12 19  1  0
 12 20  1  0
 13 14  1  0
 14 15  1  0
 14 21  1  0
 14 22  1  0
 15 23  1  0
 15 24  1  0
 15 25  1  0
M  RAD  1   1   2
M  END
>  <reaction>  (15) 
rmg_rxn_498

>  <mol_properties>  (15) 
{"0": {"label": "*3", "atom_type": "Cs"}, "1": {"label": "*4", "atom_type": "Cs"}, "11": {"label": "*1", "atom_type": "Cs"}, "12": {"label": "*0", "atom_type": "S2s"}, "18": {"label": "*2", "atom_type": "H0"}}

>  <type>  (15) 
unop_11

>  <geom_source>  (15) 
Heuristics

$$$$

     RDKit          3D

 25 23  0  0  0  0  0  0  0  0999 V2000
   -1.8380   -1.3534    0.8890 C   0  0  0  0  0  3  0  0  0  0  0  0
   -2.7357   -1.8103   -0.2538 C   0  0  0  0  0  0  0  0  0  0  0  0
   -2.0570   -2.8274   -1.1623 C   0  0  0  0  0  0  0  0  0  0  0  0
   -2.3412   -0.6258    1.5281 H   0  0  0  0  0  0  0  0  0  0  0  0
   -1.5405   -2.1988    1.5141 H   0  0  0  0  0  0  0  0  0  0  0  0
   -3.6534   -2.2425    0.1548 H   0  0  0  0  0  0  0  0  0  0  0  0
   -3.0433   -0.9429   -0.8443 H   0  0  0  0  0  0  0  0  0  0  0  0
   -1.7664   -3.7193   -0.6019 H   0  0  0  0  0  0  0  0  0  0  0  0
   -2.7151   -3.1423   -1.9739 H   0  0  0  0  0  0  0  0  0  0  0  0
   -1.1515   -2.4094   -1.6088 H   0  0  0  0  0  0  0  0  0  0  0  0
    0.3504   -0.2393   -1.5465 C   0  0  0  0  0  0  0  0  0  0  0  0
    0.3504   -0.2393   -0.0267 C   0  0  0  0  0  0  0  0  0  0  0  0
    0.3504    1.4017    0.7381 S   0  0  0  0  0  0  0  0  0  0  0  0
    1.8910    2.1157    0.1096 C   0  0  0  0  0  0  0  0  0  0  0  0
    3.1519    1.3568    0.4888 C   0  0  0  0  0  0  0  0  0  0  0  0
    1.2734    0.1842   -1.9459 H   0  0  0  0  0  0  0  0  0  0  0  0
    0.2678   -1.2605   -1.9251 H   0  0  0  0  0  0  0  0  0  0  0  0
   -0.4853    0.3431   -1.9359 H   0  0  0  0  0  0  0  0  0  0  0  0
   -0.7431   -0.7960    0.4308 H   0  0  0  0  0  0  0  0  0  0  0  0
    1.1866   -0.8220    0.3633 H   0  0  0  0  0  0  0  0  0  0  0  0
    1.8198    2.2379   -0.9725 H   0  0  0  0  0  0  0  0  0  0  0  0
    1.9060    3.1188    0.5388 H   0  0  0  0  0  0  0  0  0  0  0  0
    3.1731    0.3650    0.0341 H   0  0  0  0  0  0  0  0  0  0  0  0
    3.2226    1.2348    1.5702 H   0  0  0  0  0  0  0  0  0  0  0  0
    4.0366    1.8952    0.1418 H   0  0  0  0  0  0  0  0  0  0  0  0
  1  2  1  0
  1  4  1  0
  1  5  1  0
  2  3  1  0
  2  6  1  0
  2  7  1  0
  3  8  1  0
  3  9  1  0
  3 10  1  0
 11 12  1  0
 11 16  1  0
 11 17  1  0
 11 18  1  0
 12 13  1  0
 12 19  1  0
 12 20  1  0
 13 14  1  0
 14 15  1  0
 14 21  1  0
 14 22  1  0
 15 23  1  0
 15 24  1  0
 15 25  1  0
M  RAD  1   1   2
M  END
>  <reaction>  (16) 
rmg_rxn_498

>  <mol_properties>  (16) 
{"0": {"label": "*3", "atom_type": "Cs"}, "1": {"label": "*4", "atom_type": "Cs"}, "11": {"label": "*1", "atom_type": "Cs"}, "12": {"label": "*0", "atom_type": "S2s"}, "18": {"label": "*2", "atom_type": "H0"}}

>  <type>  (16) 
unop_12

>  <geom_source>  (16) 
Heuristics

$$$$

     RDKit          3D

 25 23  0  0  0  0  0  0  0  0999 V2000
   -2.3892   -0.7121   -1.2379 S   0  0  0  0  0  0  0  0  0  0  0  0
    2.2054    0.2449   -0.5405 C   0  0  0  0  0  0  0  0  0  0  0  0
   -2.8484    0.3730    0.1570 C   0  0  0  0  0  0  0  0  0  0  0  0
    3.4664    0.8605    0.0581 C   0  0  0  0  0  0  0  0  0  0  0  0
    1.0003    0.4526    0.3705 C   0  0  0  0  0  0  0  0  0  0  0  0
   -2.0885    1.6917    0.0904 C   0  0  0  0  0  0  0  0  0  0  0  0
   -0.9486   -2.5580    0.2090 C   0  0  0  0  0  0  0  0  0  0  0  0
   -0.7992   -1.2281   -0.5124 C   0  0  0  0  0  3  0  0  0  0  0  0
    2.0013    0.7117   -1.5280 H   0  0  0  0  0  0  0  0  0  0  0  0
    2.3644   -0.8441   -0.6931 H   0  0  0  0  0  0  0  0  0  0  0  0
   -3.9370    0.5815    0.0923 H   0  0  0  0  0  0  0  0  0  0  0  0
   -2.6520   -0.1313    1.1271 H   0  0  0  0  0  0  0  0  0  0  0  0
    3.3327    1.9544    0.1983 H   0  0  0  0  0  0  0  0  0  0  0  0
    3.6977    0.3903    1.0376 H   0  0  0  0  0  0  0  0  0  0  0  0
    4.3233    0.6924   -0.6278 H   0  0  0  0  0  0  0  0  0  0  0  0
    1.1746   -0.0274    1.3571 H   0  0  0  0  0  0  0  0  0  0  0  0
    0.8094    1.5370    0.5175 H   0  0  0  0  0  0  0  0  0  0  0  0
   -0.0230   -0.0716   -0.1612 H   0  0  0  0  0  0  0  0  0  0  0  0
   -2.2919    2.2017   -0.8750 H   0  0  0  0  0  0  0  0  0  0  0  0
   -2.4174    2.3525    0.9198 H   0  0  0  0  0  0  0  0  0  0  0  0
   -0.9968    1.5155    0.1891 H   0  0  0  0  0  0  0  0  0  0  0  0
    0.0285   -2.8507    0.6463 H   0  0  0  0  0  0  0  0  0  0  0  0
   -1.6922   -2.4673    1.0278 H   0  0  0  0  0  0  0  0  0  0  0  0
   -1.2766   -3.3453   -0.5024 H   0  0  0  0  0  0  0  0  0  0  0  0
   -0.0433   -1.3238   -1.3198 H   0  0  0  0  0  0  0  0  0  0  0  0
  1  8  1  0
  1  3  1  0
  2  4  1  0
  2  5  1  0
  2  9  1  0
  2 10  1  0
  3  6  1  0
  3 11  1  0
  3 12  1  0
  4 13  1  0
  4 14  1  0
  4 15  1  0
  5 16  1  0
  5 17  1  0
  5 18  1  0
  6 19  1  0
  6 20  1  0
  6 21  1  0
  7  8  1  0
  7 22  1  0
  7 23  1  0
  7 24  1  0
  8 25  1  0
M  RAD  1   8   2
M  END
>  <reaction>  (17) 
rmg_rxn_498

>  <mol_properties>  (17) 
{"0": {"label": "*3", "atom_type": "Cs"}, "1": {"label": "*4", "atom_type": "Cs"}, "11": {"label": "*1", "atom_type": "Cs"}, "12": {"label": "*0", "atom_type": "S2s"}, "18": {"label": "*2", "atom_type": "H0"}}

>  <type>  (17) 
unop_13

>  <geom_source>  (17) 
AutoTST

$$$$

     RDKit          3D

 25 23  0  0  0  0  0  0  0  0999 V2000
   -1.9724   -1.2381    0.8121 C   0  0  0  0  0  3  0  0  0  0  0  0
   -2.4880   -2.2988   -0.1521 C   0  0  0  0  0  0  0  0  0  0  0  0
   -1.3712   -3.1568   -0.7325 C   0  0  0  0  0  0  0  0  0  0  0  0
   -2.7863   -0.6342    1.2169 H   0  0  0  0  0  0  0  0  0  0  0  0
   -1.4460   -1.6969    1.6525 H   0  0  0  0  0  0  0  0  0  0  0  0
   -3.2089   -2.9395    0.3633 H   0  0  0  0  0  0  0  0  0  0  0  0
   -3.0361   -1.8156   -0.9657 H   0  0  0  0  0  0  0  0  0  0  0  0
   -0.8258   -3.6761    0.0593 H   0  0  0  0  0  0  0  0  0  0  0  0
   -1.7599   -3.9099   -1.4200 H   0  0  0  0  0  0  0  0  0  0  0  0
   -0.6517   -2.5433   -1.2801 H   0  0  0  0  0  0  0  0  0  0  0  0
    0.2160   -0.1241   -1.6234 C   0  0  0  0  0  0  0  0  0  0  0  0
    0.2160   -0.1241   -0.1037 C   0  0  0  0  0  0  0  0  0  0  0  0
    0.2160    1.5170    0.6612 S   0  0  0  0  0  0  0  0  0  0  0  0
    1.7565    2.2309    0.0326 C   0  0  0  0  0  0  0  0  0  0  0  0
    3.0175    1.4721    0.4119 C   0  0  0  0  0  0  0  0  0  0  0  0
    1.1390    0.2995   -2.0228 H   0  0  0  0  0  0  0  0  0  0  0  0
    0.1334   -1.1453   -2.0021 H   0  0  0  0  0  0  0  0  0  0  0  0
   -0.6198    0.4584   -2.0128 H   0  0  0  0  0  0  0  0  0  0  0  0
   -0.8775   -0.6807    0.3539 H   0  0  0  0  0  0  0  0  0  0  0  0
    1.0522   -0.7067    0.2864 H   0  0  0  0  0  0  0  0  0  0  0  0
    1.6854    2.3532   -1.0494 H   0  0  0  0  0  0  0  0  0  0  0  0
    1.7716    3.2341    0.4619 H   0  0  0  0  0  0  0  0  0  0  0  0
    3.0387    0.4802   -0.0428 H   0  0  0  0  0  0  0  0  0  0  0  0
    3.0881    1.3500    1.4933 H   0  0  0  0  0  0  0  0  0  0  0  0
    3.9022    2.0105    0.0649 H   0  0  0  0  0  0  0  0  0  0  0  0
  1  2  1  0
  1  4  1  0
  1  5  1  0
  2  3  1  0
  2  6  1  0
  2  7  1  0
  3  8  1  0
  3  9  1  0
  3 10  1  0
 11 12  1  0
 11 16  1  0
 11 17  1  0
 11 18  1  0
 12 13  1  0
 12 19  1  0
 12 20  1  0
 13 14  1  0
 14 15  1  0
 14 21  1  0
 14 22  1  0
 15 23  1  0
 15 24  1  0
 15 25  1  0
M  RAD  1   1   2
M  END
>  <reaction>  (18) 
rmg_rxn_498

>  <mol_properties>  (18) 
{"0": {"label": "*3", "atom_type": "Cs"}, "1": {"label": "*4", "atom_type": "Cs"}, "11": {"label": "*1", "atom_type": "Cs"}, "12": {"label": "*0", "atom_type": "S2s"}, "18": {"label": "*2", "atom_type": "H0"}}

>  <type>  (18) 
unop_14

>  <geom_source>  (18) 
gaussian_log

$$$$
