
     RDKit          3D

 12 11  0  0  0  0  0  0  0  0999 V2000
   -1.4643   -0.2505   -0.5284 C   0  0  0  0  0  0  0  0  0  0  0  0
   -0.3946    0.4302    0.3143 C   0  0  0  0  0  0  0  0  0  0  0  0
   -0.5959    0.2382    1.8102 C   0  0  0  0  0  0  0  0  0  0  0  0
   -0.5633   -1.1190    2.2092 O   0  0  0  0  0  0  0  0  0  0  0  0
   -2.4511    0.1644   -0.3109 H   0  0  0  0  0  0  0  0  0  0  0  0
   -1.5019   -1.3198   -0.3181 H   0  0  0  0  0  0  0  0  0  0  0  0
   -1.2720   -0.1182   -1.5941 H   0  0  0  0  0  0  0  0  0  0  0  0
    0.5965    0.0515    0.0385 H   0  0  0  0  0  0  0  0  0  0  0  0
   -0.3776    1.5047    0.1078 H   0  0  0  0  0  0  0  0  0  0  0  0
   -1.5821    0.6048    2.1034 H   0  0  0  0  0  0  0  0  0  0  0  0
    0.1495    0.8220    2.3649 H   0  0  0  0  0  0  0  0  0  0  0  0
    0.3017   -1.4750    1.9997 H   0  0  0  0  0  0  0  0  0  0  0  0
  1  2  1  0
  1  5  1  0
  1  6  1  0
  1  7  1  0
  2  3  1  0
  2  8  1  0
  2  9  1  0
  3  4  1  0
  3 10  1  0
  3 11  1  0
  4 12  1  0
M  END
>  <reaction>  (1) 
rmg_rxn_15426

>  <mol_properties>  (1) 
{"3": {"label": "donator", "atom_type": "O2s"}, "11": {"label": "d_hydrogen", "atom_type": "H0"}}

>  <type>  (1) 
r1h

$$$$

     RDKit          3D

  5  4  0  0  0  0  0  0  0  0999 V2000
    0.8934    0.3742    0.4948 O   0  0  0  0  0  0  0  0  0  0  0  0
    0.1582   -0.1610   -0.5904 N   0  0  0  0  0  0  0  0  0  0  0  0
   -1.0297   -0.3739   -0.4689 C   0  0  0  0  0  3  0  0  0  0  0  0
    1.7804    0.4382    0.1306 H   0  0  0  0  0  0  0  0  0  0  0  0
   -1.8023   -0.2775    0.2859 H   0  0  0  0  0  0  0  0  0  0  0  0
  1  2  1  0
  1  4  1  0
  2  3  2  3
  3  5  1  0
M  RAD  1   3   2
M  END
>  <reaction>  (2) 
rmg_rxn_15426

>  <mol_properties>  (2) 
{"2": {"label": "acceptor", "atom_type": "Cd"}}

>  <type>  (2) 
r2

$$$$

     RDKit          3D

  6  5  0  0  0  0  0  0  0  0999 V2000
    1.2314    0.0428    0.5088 O   0  0  0  0  0  0  0  0  0  0  0  0
    0.2987    0.2341   -0.4915 N   0  0  0  0  0  0  0  0  0  0  0  0
   -0.8599   -0.1122   -0.1290 C   0  0  0  0  0  0  0  0  0  0  0  0
    2.0507    0.3401    0.1082 H   0  0  0  0  0  0  0  0  0  0  0  0
   -1.0700   -0.5112    0.8610 H   0  0  0  0  0  0  0  0  0  0  0  0
   -1.6509    0.0064   -0.8574 H   0  0  0  0  0  0  0  0  0  0  0  0
  1  2  1  0
  1  4  1  0
  2  3  2  3
  3  5  1  0
  3  6  1  0
M  END
>  <reaction>  (3) 
rmg_rxn_15426

>  <mol_properties>  (3) 
{"2": {"label": "acceptor", "atom_type": "Cd"}, "5": {"label": "a_hydrogen", "atom_type": "H0"}}

>  <type>  (3) 
r2h

$$$$

     RDKit          3D

 17 15  0  0  0  0  0  0  0  0999 V2000
   -1.6901   -0.2141    1.2130 O   0  0  0  0  0  0  0  0  0  0  0  0
   -1.9722   -0.9839    0.1378 N   0  0  0  0  0  0  0  0  0  0  0  0
   -1.4676   -0.7181   -0.9703 C   0  0  0  0  0  3  0  0  0  0  0  0
   -1.0723    0.4862    0.9125 H   0  0  0  0  0  0  0  0  0  0  0  0
   -1.6576   -1.3187   -1.8526 H   0  0  0  0  0  0  0  0  0  0  0  0
    3.1657   -0.5630    0.4643 C   0  0  0  0  0  0  0  0  0  0  0  0
    1.6948   -0.1727    0.5076 C   0  0  0  0  0  0  0  0  0  0  0  0
    1.3290    0.8007   -0.6024 C   0  0  0  0  0  0  0  0  0  0  0  0
   -0.0031    1.2385   -0.5751 O   0  0  0  0  0  0  0  0  0  0  0  0
    3.4205   -1.0383   -0.4857 H   0  0  0  0  0  0  0  0  0  0  0  0
    3.4081   -1.2650    1.2621 H   0  0  0  0  0  0  0  0  0  0  0  0
    3.8099    0.3113    0.5824 H   0  0  0  0  0  0  0  0  0  0  0  0
    1.0684   -1.0652    0.4154 H   0  0  0  0  0  0  0  0  0  0  0  0
    1.4527    0.2839    1.4707 H   0  0  0  0  0  0  0  0  0  0  0  0
    1.5798    0.3758   -1.5834 H   0  0  0  0  0  0  0  0  0  0  0  0
    1.9231    1.7190   -0.5002 H   0  0  0  0  0  0  0  0  0  0  0  0
   -0.7240    0.3044   -1.0160 H   0  0  0  0  0  0  0  0  0  0  0  0
  1  2  1  0
  1  4  1  0
  2  3  2  3
  3  5  1  0
  6  7  1  0
  6 10  1  0
  6 11  1  0
  6 12  1  0
  7  8  1  0
  7 13  1  0
  7 14  1  0
  8  9  1  0
  8 15  1  0
  8 16  1  0
  9 17  1  0
M  RAD  1   3   2
M  END
>  <reaction>  (4) 
rmg_rxn_15426

>  <mol_properties>  (4) 
{"1": {"label": "*4", "atom_type": "N3d"}, "2": {"label": "*3", "atom_type": "Cd"}, "7": {"label": "*0", "atom_type": "Cs"}, "8": {"label": "*1", "atom_type": "O2s"}, "16": {"label": "*2", "atom_type": "H0"}}

>  <type>  (4) 
ts

$$$$

     RDKit          3D

 17 15  0  0  0  0  0  0  0  0999 V2000
   -2.7170    0.3977    0.7187 O   0  0  0  0  0  0  0  0  0  0  0  0
   -2.4980   -0.6763   -0.0502 N   0  0  0  0  0  0  0  0  0  0  0  0
   -1.4645   -0.8560   -0.7041 C   0  0  0  0  0  3  0  0  0  0  0  0
   -1.9522    1.0125    0.6882 H   0  0  0  0  0  0  0  0  0  0  0  0
   -1.3221   -1.7295   -1.3099 H   0  0  0  0  0  0  0  0  0  0  0  0
    3.4140   -0.5624    0.2805 C   0  0  0  0  0  0  0  0  0  0  0  0
    1.9138   -0.3579    0.4355 C   0  0  0  0  0  0  0  0  0  0  0  0
    1.4048    0.7824   -0.4533 C   0  0  0  0  0  0  0  0  0  0  0  0
    0.0573    1.0405   -0.3095 O   0  0  0  0  0  0  0  0  0  0  0  0
    3.6634   -0.7851   -0.7550 H   0  0  0  0  0  0  0  0  0  0  0  0
    3.7509   -1.3893    0.9008 H   0  0  0  0  0  0  0  0  0  0  0  0
    3.9550    0.3332    0.5775 H   0  0  0  0  0  0  0  0  0  0  0  0
    1.3849   -1.2760    0.1624 H   0  0  0  0  0  0  0  0  0  0  0  0
    1.6711   -0.1313    1.4760 H   0  0  0  0  0  0  0  0  0  0  0  0
    1.6584    0.5730   -1.5068 H   0  0  0  0  0  0  0  0  0  0  0  0
    1.9140    1.7148   -0.1708 H   0  0  0  0  0  0  0  0  0  0  0  0
   -0.5688    0.0906   -0.5998 H   0  0  0  0  0  0  0  0  0  0  0  0
  1  2  1  0
  1  4  1  0
  2  3  2  3
  3  5  1  0
  6  7  1  0
  6 10  1  0
  6 11  1  0
  6 12  1  0
  7  8  1  0
  7 13  1  0
  7 14  1  0
  8  9  1  0
  8 15  1  0
  8 16  1  0
  9 17  1  0
M  RAD  1   3   2
M  END
>  <reaction>  (5) 
rmg_rxn_15426

>  <mol_properties>  (5) 
{"1": {"label": "*4", "atom_type": "N3d"}, "2": {"label": "*3", "atom_type": "Cd"}, "7": {"label": "*0", "atom_type": "Cs"}, "8": {"label": "*1", "atom_type": "O2s"}, "16": {"label": "*2", "atom_type": "H0"}}

>  <type>  (5) 
unop_1

>  <geom_source>  (5) 
crest_best.xyz

$$$$

     RDKit          3D

 17 15  0  0  0  0  0  0  0  0999 V2000
   -3.2428    0.4026    1.0695 O   0  0  0  0  0  0  0  0  0  0  0  0
   -1.8954    0.5440    1.3371 N   0  0  0  0  0  0  0  0  0  0  0  0
   -1.1818   -0.1053    0.5231 C   0  0  0  0  0  3  0  0  0  0  0  0
   -3.6611    0.9359    1.7481 H   0  0  0  0  0  0  0  0  0  0  0  0
   -1.6052   -0.6982   -0.2849 H   0  0  0  0  0  0  0  0  0  0  0  0
    1.9507   -1.1371   -2.0866 C   0  0  0  0  0  0  0  0  0  0  0  0
    1.9507   -1.1371   -0.5641 C   0  0  0  0  0  0  0  0  0  0  0  0
    1.9507    0.2609    0.0366 C   0  0  0  0  0  0  0  0  0  0  0  0
    0.8169    1.0256   -0.3265 O   0  0  0  0  0  0  0  0  0  0  0  0
    2.8499   -0.6528   -2.4740 H   0  0  0  0  0  0  0  0  0  0  0  0
    1.0891   -0.5930   -2.4747 H   0  0  0  0  0  0  0  0  0  0  0  0
    1.9199   -2.1533   -2.4822 H   0  0  0  0  0  0  0  0  0  0  0  0
    1.0774   -1.6837   -0.1897 H   0  0  0  0  0  0  0  0  0  0  0  0
    2.8281   -1.6706   -0.1861 H   0  0  0  0  0  0  0  0  0  0  0  0
    2.8118    0.8239   -0.3301 H   0  0  0  0  0  0  0  0  0  0  0  0
    2.0407    0.1977    1.1284 H   0  0  0  0  0  0  0  0  0  0  0  0
   -0.1221    0.4943    0.0726 H   0  0  0  0  0  0  0  0  0  0  0  0
  1  2  1  0
  1  4  1  0
  2  3  2  3
  3  5  1  0
  6  7  1  0
  6 10  1  0
  6 11  1  0
  6 12  1  0
  7  8  1  0
  7 13  1  0
  7 14  1  0
  8  9  1  0
  8 15  1  0
  8 16  1  0
  9 17  1  0
M  RAD  1   3   2
M  END
>  <reaction>  (6) 
rmg_rxn_15426

>  <mol_properties>  (6) 
{"1": {"label": "*4", "atom_type": "N3d"}, "2": {"label": "*3", "atom_type": "Cd"}, "7": {"label": "*0", "atom_type": "Cs"}, "8": {"label": "*1", "atom_type": "O2s"}, "16": {"label": "*2", "atom_type": "H0"}}

>  <type>  (6) 
unop_2

>  <geom_source>  (6) 
Heuristics

$$$$

     RDKit          3D

 17 15  0  0  0  0  0  0  0  0999 V2000
   -2.9481    1.0016   -0.1069 O   0  0  0  0  0  0  0  0  0  0  0  0
   -1.7762    0.2479   -0.1411 N   0  0  0  0  0  0  0  0  0  0  0  0
   -1.6058   -0.8270    0.4215 C   0  0  0  0  0  3  0  0  0  0  0  0
   -2.7621    1.7820   -0.6495 H   0  0  0  0  0  0  0  0  0  0  0  0
   -2.2214   -1.4597    1.0424 H   0  0  0  0  0  0  0  0  0  0  0  0
    2.6996    1.4584   -0.0266 C   0  0  0  0  0  0  0  0  0  0  0  0
    1.7991    0.3669    0.5347 C   0  0  0  0  0  0  0  0  0  0  0  0
    1.4185   -0.6605   -0.5373 C   0  0  0  0  0  0  0  0  0  0  0  0
    0.6478   -1.6978   -0.0675 O   0  0  0  0  0  0  0  0  0  0  0  0
    2.2038    1.9791   -0.8431 H   0  0  0  0  0  0  0  0  0  0  0  0
    3.6267    1.0335   -0.4052 H   0  0  0  0  0  0  0  0  0  0  0  0
    2.9449    2.1839    0.7451 H   0  0  0  0  0  0  0  0  0  0  0  0
    2.3015   -0.1503    1.3543 H   0  0  0  0  0  0  0  0  0  0  0  0
    0.8818    0.8086    0.9314 H   0  0  0  0  0  0  0  0  0  0  0  0
    2.3327   -1.1269   -0.9341 H   0  0  0  0  0  0  0  0  0  0  0  0
    0.9239   -0.1499   -1.3820 H   0  0  0  0  0  0  0  0  0  0  0  0
   -0.4118   -1.3189    0.1943 H   0  0  0  0  0  0  0  0  0  0  0  0
  1  2  1  0
  1  4  1  0
  2  3  2  3
  3  5  1  0
  6  7  1  0
  6 10  1  0
  6 11  1  0
  6 12  1  0
  7  8  1  0
  7 13  1  0
  7 14  1  0
  8  9  1  0
  8 15  1  0
  8 16  1  0
  9 17  1  0
M  RAD  1   3   2
M  END
>  <reaction>  (7) 
rmg_rxn_15426

>  <mol_properties>  (7) 
{"1": {"label": "*4", "atom_type": "N3d"}, "2": {"label": "*3", "atom_type": "Cd"}, "7": {"label": "*0", "atom_type": "Cs"}, "8": {"label": "*1", "atom_type": "O2s"}, "16": {"label": "*2", "atom_type": "H0"}}

>  <type>  (7) 
unop_3

>  <geom_source>  (7) 
Heuristics

$$$$

     RDKit          3D

 17 15  0  0  0  0  0  0  0  0999 V2000
   -2.5305   -0.6286    1.9681 O   0  0  0  0  0  0  0  0  0  0  0  0
   -1.3195   -0.3668    1.3582 N   0  0  0  0  0  0  0  0  0  0  0  0
   -1.4595    0.3110    0.3025 C   0  0  0  0  0  3  0  0  0  0  0  0
   -2.2836   -1.1397    2.7414 H   0  0  0  0  0  0  0  0  0  0  0  0
   -2.4318    0.6371   -0.0607 H   0  0  0  0  0  0  0  0  0  0  0  0
    1.6729   -0.7208   -2.3072 C   0  0  0  0  0  0  0  0  0  0  0  0
    1.6729   -0.7208   -0.7847 C   0  0  0  0  0  0  0  0  0  0  0  0
    1.6729    0.6771   -0.1840 C   0  0  0  0  0  0  0  0  0  0  0  0
    0.5391    1.4419   -0.5471 O   0  0  0  0  0  0  0  0  0  0  0  0
    2.5722   -0.2365   -2.6946 H   0  0  0  0  0  0  0  0  0  0  0  0
    0.8114   -0.1767   -2.6953 H   0  0  0  0  0  0  0  0  0  0  0  0
    1.6422   -1.7370   -2.7027 H   0  0  0  0  0  0  0  0  0  0  0  0
    0.7996   -1.2675   -0.4103 H   0  0  0  0  0  0  0  0  0  0  0  0
    2.5504   -1.2543   -0.4067 H   0  0  0  0  0  0  0  0  0  0  0  0
    2.5341    1.2402   -0.5507 H   0  0  0  0  0  0  0  0  0  0  0  0
    1.7629    0.6140    0.9078 H   0  0  0  0  0  0  0  0  0  0  0  0
   -0.3998    0.9106   -0.1480 H   0  0  0  0  0  0  0  0  0  0  0  0
  1  2  1  0
  1  4  1  0
  2  3  2  3
  3  5  1  0
  6  7  1  0
  6 10  1  0
  6 11  1  0
  6 12  1  0
  7  8  1  0
  7 13  1  0
  7 14  1  0
  8  9  1  0
  8 15  1  0
  8 16  1  0
  9 17  1  0
M  RAD  1   3   2
M  END
>  <reaction>  (8) 
rmg_rxn_15426

>  <mol_properties>  (8) 
{"1": {"label": "*4", "atom_type": "N3d"}, "2": {"label": "*3", "atom_type": "Cd"}, "7": {"label": "*0", "atom_type": "Cs"}, "8": {"label": "*1", "atom_type": "O2s"}, "16": {"label": "*2", "atom_type": "H0"}}

>  <type>  (8) 
unop_4

>  <geom_source>  (8) 
Heuristics

$$$$

     RDKit          3D

 17 15  0  0  0  0  0  0  0  0999 V2000
   -3.3140    0.0604    0.7353 O   0  0  0  0  0  0  0  0  0  0  0  0
   -2.1062    0.6868    0.9723 N   0  0  0  0  0  0  0  0  0  0  0  0
   -1.1258   -0.0490    0.6708 C   0  0  0  0  0  3  0  0  0  0  0  0
   -3.9606    0.7168    1.0020 H   0  0  0  0  0  0  0  0  0  0  0  0
   -1.2472   -1.0543    0.2730 H   0  0  0  0  0  0  0  0  0  0  0  0
    2.0066   -1.0808   -1.9388 C   0  0  0  0  0  0  0  0  0  0  0  0
    2.0066   -1.0808   -0.4164 C   0  0  0  0  0  0  0  0  0  0  0  0
    2.0066    0.3171    0.1843 C   0  0  0  0  0  0  0  0  0  0  0  0
    0.8728    1.0819   -0.1788 O   0  0  0  0  0  0  0  0  0  0  0  0
    2.9059   -0.5965   -2.3263 H   0  0  0  0  0  0  0  0  0  0  0  0
    1.1451   -0.5367   -2.3270 H   0  0  0  0  0  0  0  0  0  0  0  0
    1.9759   -2.0970   -2.3344 H   0  0  0  0  0  0  0  0  0  0  0  0
    1.1333   -1.6275   -0.0420 H   0  0  0  0  0  0  0  0  0  0  0  0
    2.8841   -1.6143   -0.0384 H   0  0  0  0  0  0  0  0  0  0  0  0
    2.8678    0.8801   -0.1824 H   0  0  0  0  0  0  0  0  0  0  0  0
    2.0966    0.2540    1.2761 H   0  0  0  0  0  0  0  0  0  0  0  0
   -0.0661    0.5506    0.2203 H   0  0  0  0  0  0  0  0  0  0  0  0
  1  2  1  0
  1  4  1  0
  2  3  2  3
  3  5  1  0
  6  7  1  0
  6 10  1  0
  6 11  1  0
  6 12  1  0
  7  8  1  0
  7 13  1  0
  7 14  1  0
  8  9  1  0
  8 15  1  0
  8 16  1  0
  9 17  1  0
M  RAD  1   3   2
M  END
>  <reaction>  (9) 
rmg_rxn_15426

>  <mol_properties>  (9) 
{"1": {"label": "*4", "atom_type": "N3d"}, "2": {"label": "*3", "atom_type": "Cd"}, "7": {"label": "*0", "atom_type": "Cs"}, "8": {"label": "*1", "atom_type": "O2s"}, "16": {"label": "*2", "atom_type": "H0"}}

>  <type>  (9) 
unop_5

>  <geom_source>  (9) 
Heuristics

$$$$

     RDKit          3D

 17 15  0  0  0  0  0  0  0  0999 V2000
   -2.8895   -0.9939    0.3526 O   0  0  0  0  0  0  0  0  0  0  0  0
   -1.5410   -0.7092    0.4393 N   0  0  0  0  0  0  0  0  0  0  0  0
   -1.3321    0.4621    0.8612 C   0  0  0  0  0  3  0  0  0  0  0  0
   -2.9055   -1.8957    0.0260 H   0  0  0  0  0  0  0  0  0  0  0  0
   -2.1386    1.1454    1.1186 H   0  0  0  0  0  0  0  0  0  0  0  0
    1.8003   -0.5698   -1.7485 C   0  0  0  0  0  0  0  0  0  0  0  0
    1.8003   -0.5698   -0.2260 C   0  0  0  0  0  0  0  0  0  0  0  0
    1.8003    0.8282    0.3747 C   0  0  0  0  0  0  0  0  0  0  0  0
    0.6665    1.5930    0.0116 O   0  0  0  0  0  0  0  0  0  0  0  0
    2.6995   -0.0854   -2.1360 H   0  0  0  0  0  0  0  0  0  0  0  0
    0.9388   -0.0256   -2.1367 H   0  0  0  0  0  0  0  0  0  0  0  0
    1.7695   -1.5860   -2.1441 H   0  0  0  0  0  0  0  0  0  0  0  0
    0.9270   -1.1164    0.1483 H   0  0  0  0  0  0  0  0  0  0  0  0
    2.6777   -1.1032    0.1520 H   0  0  0  0  0  0  0  0  0  0  0  0
    2.6614    1.3912    0.0079 H   0  0  0  0  0  0  0  0  0  0  0  0
    1.8903    0.7651    1.4664 H   0  0  0  0  0  0  0  0  0  0  0  0
   -0.2725    1.0617    0.4107 H   0  0  0  0  0  0  0  0  0  0  0  0
  1  2  1  0
  1  4  1  0
  2  3  2  3
  3  5  1  0
  6  7  1  0
  6 10  1  0
  6 11  1  0
  6 12  1  0
  7  8  1  0
  7 13  1  0
  7 14  1  0
  8  9  1  0
  8 15  1  0
  8 16  1  0
  9 17  1  0
M  RAD  1   3   2
M  END
>  <reaction>  (10) 
rmg_rxn_15426

>  <mol_properties>  (10) 
{"1": {"label": "*4", "atom_type": "N3d"}, "2": {"label": "*3", "atom_type": "Cd"}, "7": {"label": "*0", "atom_type": "Cs"}, "8": {"label": "*1", "atom_type": "O2s"}, "16": {"label": "*2", "atom_type": "H0"}}

>  <type>  (10) 
unop_6

>  <geom_source>  (10) 
Heuristics

$$$$

     RDKit          3D

 17 15  0  0  0  0  0  0  0  0999 V2000
   -2.9526    1.0000   -0.1066 O   0  0  0  0  0  0  0  0  0  0  0  0
   -1.7800    0.2475   -0.1431 N   0  0  0  0  0  0  0  0  0  0  0  0
   -1.6055   -0.8244    0.4238 C   0  0  0  0  0  3  0  0  0  0  0  0
   -2.7705    1.7778   -0.6543 H   0  0  0  0  0  0  0  0  0  0  0  0
   -2.2172   -1.4547    1.0508 H   0  0  0  0  0  0  0  0  0  0  0  0
    2.7066    1.4550   -0.0260 C   0  0  0  0  0  0  0  0  0  0  0  0
    1.7999    0.3681    0.5339 C   0  0  0  0  0  0  0  0  0  0  0  0
    1.4197   -0.6602   -0.5375 C   0  0  0  0  0  0  0  0  0  0  0  0
    0.6472   -1.6962   -0.0676 O   0  0  0  0  0  0  0  0  0  0  0  0
    3.6348    1.0262   -0.3974 H   0  0  0  0  0  0  0  0  0  0  0  0
    2.9492    2.1830    0.7444 H   0  0  0  0  0  0  0  0  0  0  0  0
    2.2171    1.9739   -0.8476 H   0  0  0  0  0  0  0  0  0  0  0  0
    2.2971   -0.1492    1.3565 H   0  0  0  0  0  0  0  0  0  0  0  0
    0.8826    0.8140    0.9260 H   0  0  0  0  0  0  0  0  0  0  0  0
    2.3340   -1.1281   -0.9323 H   0  0  0  0  0  0  0  0  0  0  0  0
    0.9270   -0.1501   -1.3835 H   0  0  0  0  0  0  0  0  0  0  0  0
   -0.4118   -1.3159    0.1943 H   0  0  0  0  0  0  0  0  0  0  0  0
  1  2  1  0
  1  4  1  0
  2  3  2  3
  3  5  1  0
  6  7  1  0
  6 10  1  0
  6 11  1  0
  6 12  1  0
  7  8  1  0
  7 13  1  0
  7 14  1  0
  8  9  1  0
  8 15  1  0
  8 16  1  0
  9 17  1  0
M  RAD  1   3   2
M  END
>  <reaction>  (11) 
rmg_rxn_15426

>  <mol_properties>  (11) 
{"1": {"label": "*4", "atom_type": "N3d"}, "2": {"label": "*3", "atom_type": "Cd"}, "7": {"label": "*0", "atom_type": "Cs"}, "8": {"label": "*1", "atom_type": "O2s"}, "16": {"label": "*2", "atom_type": "H0"}}

>  <type>  (11) 
unop_7

>  <geom_source>  (11) 
Heuristics

$$$$

     RDKit          3D

 17 15  0  0  0  0  0  0  0  0999 V2000
   -3.2805   -0.1411    0.9852 O   0  0  0  0  0  0  0  0  0  0  0  0
   -2.2209    0.5753    0.4646 N   0  0  0  0  0  0  0  0  0  0  0  0
   -1.1128    0.0201    0.7039 C   0  0  0  0  0  3  0  0  0  0  0  0
   -4.0454    0.3813    0.7363 H   0  0  0  0  0  0  0  0  0  0  0  0
   -1.0315   -0.9128    1.2577 H   0  0  0  0  0  0  0  0  0  0  0  0
    2.0197   -1.0117   -1.9057 C   0  0  0  0  0  0  0  0  0  0  0  0
    2.0197   -1.0117   -0.3833 C   0  0  0  0  0  0  0  0  0  0  0  0
    2.0197    0.3863    0.2175 C   0  0  0  0  0  0  0  0  0  0  0  0
    0.8858    1.1510   -0.1457 O   0  0  0  0  0  0  0  0  0  0  0  0
    2.9189   -0.5274   -2.2932 H   0  0  0  0  0  0  0  0  0  0  0  0
    1.1581   -0.4676   -2.2939 H   0  0  0  0  0  0  0  0  0  0  0  0
    1.9889   -2.0279   -2.3013 H   0  0  0  0  0  0  0  0  0  0  0  0
    1.1463   -1.5584   -0.0089 H   0  0  0  0  0  0  0  0  0  0  0  0
    2.8971   -1.5452   -0.0053 H   0  0  0  0  0  0  0  0  0  0  0  0
    2.8808    0.9493   -0.1493 H   0  0  0  0  0  0  0  0  0  0  0  0
    2.1097    0.3231    1.3092 H   0  0  0  0  0  0  0  0  0  0  0  0
   -0.0531    0.6197    0.2535 H   0  0  0  0  0  0  0  0  0  0  0  0
  1  2  1  0
  1  4  1  0
  2  3  2  3
  3  5  1  0
  6  7  1  0
  6 10  1  0
  6 11  1  0
  6 12  1  0
  7  8  1  0
  7 13  1  0
  7 14  1  0
  8  9  1  0
  8 15  1  0
  8 16  1  0
  9 17  1  0
M  RAD  1   3   2
M  END
>  <reaction>  (12) 
rmg_rxn_15426

>  <mol_properties>  (12) 
{"1": {"label": "*4", "atom_type": "N3d"}, "2": {"label": "*3", "atom_type": "Cd"}, "7": {"label": "*0", "atom_type": "Cs"}, "8": {"label": "*1", "atom_type": "O2s"}, "16": {"label": "*2", "atom_type": "H0"}}

>  <type>  (12) 
unop_8

>  <geom_source>  (12) 
Heuristics

$$$$

     RDKit          3D

 17 15  0  0  0  0  0  0  0  0999 V2000
   -2.9477    1.0021   -0.1067 O   0  0  0  0  0  0  0  0  0  0  0  0
   -1.7764    0.2475   -0.1416 N   0  0  0  0  0  0  0  0  0  0  0  0
   -1.6059   -0.8269    0.4218 C   0  0  0  0  0  3  0  0  0  0  0  0
   -2.7620    1.7818   -0.6503 H   0  0  0  0  0  0  0  0  0  0  0  0
   -2.2213   -1.4585    1.0439 H   0  0  0  0  0  0  0  0  0  0  0  0
    2.7004    1.4578   -0.0264 C   0  0  0  0  0  0  0  0  0  0  0  0
    1.7989    0.3670    0.5347 C   0  0  0  0  0  0  0  0  0  0  0  0
    1.4179   -0.6603   -0.5375 C   0  0  0  0  0  0  0  0  0  0  0  0
    0.6476   -1.6978   -0.0675 O   0  0  0  0  0  0  0  0  0  0  0  0
    2.9437    2.1848    0.7446 H   0  0  0  0  0  0  0  0  0  0  0  0
    2.2063    1.9770   -0.8451 H   0  0  0  0  0  0  0  0  0  0  0  0
    3.6284    1.0324   -0.4021 H   0  0  0  0  0  0  0  0  0  0  0  0
    2.3007   -0.1506    1.3544 H   0  0  0  0  0  0  0  0  0  0  0  0
    0.8818    0.8094    0.9310 H   0  0  0  0  0  0  0  0  0  0  0  0
    2.3319   -1.1262   -0.9351 H   0  0  0  0  0  0  0  0  0  0  0  0
    0.9226   -0.1495   -1.3816 H   0  0  0  0  0  0  0  0  0  0  0  0
   -0.4121   -1.3191    0.1942 H   0  0  0  0  0  0  0  0  0  0  0  0
  1  2  1  0
  1  4  1  0
  2  3  2  3
  3  5  1  0
  6  7  1  0
  6 10  1  0
  6 11  1  0
  6 12  1  0
  7  8  1  0
  7 13  1  0
  7 14  1  0
  8  9  1  0
  8 15  1  0
  8 16  1  0
  9 17  1  0
M  RAD  1   3   2
M  END
>  <reaction>  (13) 
rmg_rxn_15426

>  <mol_properties>  (13) 
{"1": {"label": "*4", "atom_type": "N3d"}, "2": {"label": "*3", "atom_type": "Cd"}, "7": {"label": "*0", "atom_type": "Cs"}, "8": {"label": "*1", "atom_type": "O2s"}, "16": {"label": "*2", "atom_type": "H0"}}

>  <type>  (13) 
unop_9

>  <geom_source>  (13) 
Heuristics

$$$$

     RDKit          3D

 17 15  0  0  0  0  0  0  0  0999 V2000
   -3.1487   -0.4567    0.2106 O   0  0  0  0  0  0  0  0  0  0  0  0
   -1.7707   -0.5396    0.1751 N   0  0  0  0  0  0  0  0  0  0  0  0
   -1.2274    0.3013    0.9440 C   0  0  0  0  0  3  0  0  0  0  0  0
   -3.4279   -1.1362   -0.4062 H   0  0  0  0  0  0  0  0  0  0  0  0
   -1.8017    0.9974    1.5517 H   0  0  0  0  0  0  0  0  0  0  0  0
    1.9050   -0.7305   -1.6657 C   0  0  0  0  0  0  0  0  0  0  0  0
    1.9050   -0.7305   -0.1432 C   0  0  0  0  0  0  0  0  0  0  0  0
    1.9050    0.6675    0.4575 C   0  0  0  0  0  0  0  0  0  0  0  0
    0.7712    1.4322    0.0944 O   0  0  0  0  0  0  0  0  0  0  0  0
    2.8043   -0.2462   -2.0531 H   0  0  0  0  0  0  0  0  0  0  0  0
    1.0435   -0.1864   -2.0538 H   0  0  0  0  0  0  0  0  0  0  0  0
    1.8743   -1.7467   -2.0612 H   0  0  0  0  0  0  0  0  0  0  0  0
    1.0317   -1.2771    0.2312 H   0  0  0  0  0  0  0  0  0  0  0  0
    2.7825   -1.2640    0.2348 H   0  0  0  0  0  0  0  0  0  0  0  0
    2.7662    1.2305    0.0908 H   0  0  0  0  0  0  0  0  0  0  0  0
    1.9951    0.6043    1.5493 H   0  0  0  0  0  0  0  0  0  0  0  0
   -0.1677    0.9009    0.4935 H   0  0  0  0  0  0  0  0  0  0  0  0
  1  2  1  0
  1  4  1  0
  2  3  2  3
  3  5  1  0
  6  7  1  0
  6 10  1  0
  6 11  1  0
  6 12  1  0
  7  8  1  0
  7 13  1  0
  7 14  1  0
  8  9  1  0
  8 15  1  0
  8 16  1  0
  9 17  1  0
M  RAD  1   3   2
M  END
>  <reaction>  (14) 
rmg_rxn_15426

>  <mol_properties>  (14) 
{"1": {"label": "*4", "atom_type": "N3d"}, "2": {"label": "*3", "atom_type": "Cd"}, "7": {"label": "*0", "atom_type": "Cs"}, "8": {"label": "*1", "atom_type": "O2s"}, "16": {"label": "*2", "atom_type": "H0"}}

>  <type>  (14) 
unop_10

>  <geom_source>  (14) 
Heuristics

$$$$

     RDKit          3D

 17 15  0  0  0  0  0  0  0  0999 V2000
   -2.9483   -1.0021   -0.1066 O   0  0  0  0  0  0  0  0  0  0  0  0
   -1.7767   -0.2478   -0.1416 N   0  0  0  0  0  0  0  0  0  0  0  0
   -1.6064    0.8267    0.4217 C   0  0  0  0  0  3  0  0  0  0  0  0
   -2.7627   -1.7820   -0.6501 H   0  0  0  0  0  0  0  0  0  0  0  0
   -2.2218    1.4585    1.0436 H   0  0  0  0  0  0  0  0  0  0  0  0
    2.7027   -1.4563   -0.0263 C   0  0  0  0  0  0  0  0  0  0  0  0
    1.7988   -0.3673    0.5344 C   0  0  0  0  0  0  0  0  0  0  0  0
    1.4175    0.6600   -0.5376 C   0  0  0  0  0  0  0  0  0  0  0  0
    0.6472    1.6974   -0.0673 O   0  0  0  0  0  0  0  0  0  0  0  0
    2.9461   -2.1835    0.7445 H   0  0  0  0  0  0  0  0  0  0  0  0
    3.6306   -1.0293   -0.4004 H   0  0  0  0  0  0  0  0  0  0  0  0
    2.2106   -1.9756   -0.8460 H   0  0  0  0  0  0  0  0  0  0  0  0
    0.8819   -0.8114    0.9294 H   0  0  0  0  0  0  0  0  0  0  0  0
    2.2988    0.1505    1.3550 H   0  0  0  0  0  0  0  0  0  0  0  0
    0.9221    0.1494   -1.3817 H   0  0  0  0  0  0  0  0  0  0  0  0
    2.3314    1.1262   -0.9352 H   0  0  0  0  0  0  0  0  0  0  0  0
   -0.4124    1.3186    0.1946 H   0  0  0  0  0  0  0  0  0  0  0  0
  1  2  1  0
  1  4  1  0
  2  3  2  3
  3  5  1  0
  6  7  1  0
  6 10  1  0
  6 11  1  0
  6 12  1  0
  7  8  1  0
  7 13  1  0
  7 14  1  0
  8  9  1  0
  8 15  1  0
  8 16  1  0
  9 17  1  0
M  RAD  1   3   2
M  END
>  <reaction>  (15) 
rmg_rxn_15426

>  <mol_properties>  (15) 
{"1": {"label": "*4", "atom_type": "N3d"}, "2": {"label": "*3", "atom_type": "Cd"}, "7": {"label": "*0", "atom_type": "Cs"}, "8": {"label": "*1", "atom_type": "O2s"}, "16": {"label": "*2", "atom_type": "H0"}}

>  <type>  (15) 
unop_11

>  <geom_source>  (15) 
Heuristics

$$$$

     RDKit          3D

 17 15  0  0  0  0  0  0  0  0999 V2000
   -3.2942    0.0388    0.4640 O   0  0  0  0  0  0  0  0  0  0  0  0
   -2.0050   -0.2302    0.0488 N   0  0  0  0  0  0  0  0  0  0  0  0
   -1.1492    0.1249    0.9061 C   0  0  0  0  0  3  0  0  0  0  0  0
   -3.8324   -0.2743   -0.2657 H   0  0  0  0  0  0  0  0  0  0  0  0
   -1.4234    0.5863    1.8524 H   0  0  0  0  0  0  0  0  0  0  0  0
    1.9832   -0.9069   -1.7035 C   0  0  0  0  0  0  0  0  0  0  0  0
    1.9832   -0.9069   -0.1811 C   0  0  0  0  0  0  0  0  0  0  0  0
    1.9832    0.4910    0.4196 C   0  0  0  0  0  0  0  0  0  0  0  0
    0.8494    1.2558    0.0565 O   0  0  0  0  0  0  0  0  0  0  0  0
    2.8825   -0.4226   -2.0910 H   0  0  0  0  0  0  0  0  0  0  0  0
    1.1217   -0.3628   -2.0917 H   0  0  0  0  0  0  0  0  0  0  0  0
    1.9525   -1.9231   -2.0991 H   0  0  0  0  0  0  0  0  0  0  0  0
    1.1099   -1.4536    0.1933 H   0  0  0  0  0  0  0  0  0  0  0  0
    2.8607   -1.4404    0.1969 H   0  0  0  0  0  0  0  0  0  0  0  0
    2.8444    1.0541    0.0529 H   0  0  0  0  0  0  0  0  0  0  0  0
    2.0733    0.4279    1.5114 H   0  0  0  0  0  0  0  0  0  0  0  0
   -0.0895    0.7245    0.4557 H   0  0  0  0  0  0  0  0  0  0  0  0
  1  2  1  0
  1  4  1  0
  2  3  2  3
  3  5  1  0
  6  7  1  0
  6 10  1  0
  6 11  1  0
  6 12  1  0
  7  8  1  0
  7 13  1  0
  7 14  1  0
  8  9  1  0
  8 15  1  0
  8 16  1  0
  9 17  1  0
M  RAD  1   3   2
M  END
>  <reaction>  (16) 
rmg_rxn_15426

>  <mol_properties>  (16) 
{"1": {"label": "*4", "atom_type": "N3d"}, "2": {"label": "*3", "atom_type": "Cd"}, "7": {"label": "*0", "atom_type": "Cs"}, "8": {"label": "*1", "atom_type": "O2s"}, "16": {"label": "*2", "atom_type": "H0"}}

>  <type>  (16) 
unop_12

>  <geom_source>  (16) 
Heuristics

$$$$

     RDKit          3D

 17 15  0  0  0  0  0  0  0  0999 V2000
   -3.0302    0.3804    1.6036 O   0  0  0  0  0  0  0  0  0  0  0  0
   -1.6562    0.2695    1.5214 N   0  0  0  0  0  0  0  0  0  0  0  0
   -1.2770   -0.0494    0.3604 C   0  0  0  0  0  3  0  0  0  0  0  0
   -3.1790    0.6222    2.5198 H   0  0  0  0  0  0  0  0  0  0  0  0
   -1.9728   -0.2116   -0.4601 H   0  0  0  0  0  0  0  0  0  0  0  0
    1.8554   -1.0812   -2.2493 C   0  0  0  0  0  0  0  0  0  0  0  0
    1.8554   -1.0812   -0.7268 C   0  0  0  0  0  0  0  0  0  0  0  0
    1.8554    0.3167   -0.1261 C   0  0  0  0  0  0  0  0  0  0  0  0
    0.7216    1.0815   -0.4892 O   0  0  0  0  0  0  0  0  0  0  0  0
    2.7547   -0.5969   -2.6368 H   0  0  0  0  0  0  0  0  0  0  0  0
    0.9939   -0.5371   -2.6375 H   0  0  0  0  0  0  0  0  0  0  0  0
    1.8246   -2.0975   -2.6449 H   0  0  0  0  0  0  0  0  0  0  0  0
    0.9821   -1.6279   -0.3525 H   0  0  0  0  0  0  0  0  0  0  0  0
    2.7328   -1.6147   -0.3488 H   0  0  0  0  0  0  0  0  0  0  0  0
    2.7166    0.8797   -0.4929 H   0  0  0  0  0  0  0  0  0  0  0  0
    1.9454    0.2536    0.9657 H   0  0  0  0  0  0  0  0  0  0  0  0
   -0.2174    0.5502   -0.0901 H   0  0  0  0  0  0  0  0  0  0  0  0
  1  2  1  0
  1  4  1  0
  2  3  2  3
  3  5  1  0
  6  7  1  0
  6 10  1  0
  6 11  1  0
  6 12  1  0
  7  8  1  0
  7 13  1  0
  7 14  1  0
  8  9  1  0
  8 15  1  0
  8 16  1  0
  9 17  1  0
M  RAD  1   3   2
M  END
>  <reaction>  (17) 
rmg_rxn_15426

>  <mol_properties>  (17) 
{"1": {"label": "*4", "atom_type": "N3d"}, "2": {"label": "*3", "atom_type": "Cd"}, "7": {"label": "*0", "atom_type": "Cs"}, "8": {"label": "*1", "atom_type": "O2s"}, "16": {"label": "*2", "atom_type": "H0"}}

>  <type>  (17) 
unop_13

>  <geom_source>  (17) 
Heuristics

$$$$

     RDKit          3D

 17 15  0  0  0  0  0  0  0  0999 V2000
   -2.7170    0.3977    0.7187 O   0  0  0  0  0  0  0  0  0  0  0  0
   -2.4980   -0.6763   -0.0502 N   0  0  0  0  0  0  0  0  0  0  0  0
   -1.4645   -0.8560   -0.7041 C   0  0  0  0  0  3  0  0  0  0  0  0
   -1.9522    1.0125    0.6882 H   0  0  0  0  0  0  0  0  0  0  0  0
   -1.3221   -1.7295   -1.3099 H   0  0  0  0  0  0  0  0  0  0  0  0
    3.4140   -0.5624    0.2805 C   0  0  0  0  0  0  0  0  0  0  0  0
    1.9138   -0.3579    0.4355 C   0  0  0  0  0  0  0  0  0  0  0  0
    1.4048    0.7824   -0.4533 C   0  0  0  0  0  0  0  0  0  0  0  0
    0.0573    1.0405   -0.3095 O   0  0  0  0  0  0  0  0  0  0  0  0
    3.6634   -0.7851   -0.7550 H   0  0  0  0  0  0  0  0  0  0  0  0
    3.7509   -1.3893    0.9008 H   0  0  0  0  0  0  0  0  0  0  0  0
    3.9550    0.3332    0.5775 H   0  0  0  0  0  0  0  0  0  0  0  0
    1.3849   -1.2760    0.1624 H   0  0  0  0  0  0  0  0  0  0  0  0
    1.6711   -0.1313    1.4760 H   0  0  0  0  0  0  0  0  0  0  0  0
    1.6584    0.5730   -1.5068 H   0  0  0  0  0  0  0  0  0  0  0  0
    1.9140    1.7148   -0.1708 H   0  0  0  0  0  0  0  0  0  0  0  0
   -0.5688    0.0906   -0.5998 H   0  0  0  0  0  0  0  0  0  0  0  0
  1  2  1  0
  1  4  1  0
  2  3  2  3
  3  5  1  0
  6  7  1  0
  6 10  1  0
  6 11  1  0
  6 12  1  0
  7  8  1  0
  7 13  1  0
  7 14  1  0
  8  9  1  0
  8 15  1  0
  8 16  1  0
  9 17  1  0
M  RAD  1   3   2
M  END
>  <reaction>  (18) 
rmg_rxn_15426

>  <mol_properties>  (18) 
{"1": {"label": "*4", "atom_type": "N3d"}, "2": {"label": "*3", "atom_type": "Cd"}, "7": {"label": "*0", "atom_type": "Cs"}, "8": {"label": "*1", "atom_type": "O2s"}, "16": {"label": "*2", "atom_type": "H0"}}

>  <type>  (18) 
unop_14

>  <geom_source>  (18) 
Heuristics

$$$$

     RDKit          3D

 17 15  0  0  0  0  0  0  0  0999 V2000
   -2.6242   -1.2907    0.8665 O   0  0  0  0  0  0  0  0  0  0  0  0
   -1.3697   -0.7218    0.7675 N   0  0  0  0  0  0  0  0  0  0  0  0
   -1.4277    0.5360    0.6768 C   0  0  0  0  0  3  0  0  0  0  0  0
   -2.4379   -2.2296    0.9277 H   0  0  0  0  0  0  0  0  0  0  0  0
   -2.3689    1.0815    0.6789 H   0  0  0  0  0  0  0  0  0  0  0  0
    1.7048   -0.4959   -1.9328 C   0  0  0  0  0  0  0  0  0  0  0  0
    1.7048   -0.4959   -0.4104 C   0  0  0  0  0  0  0  0  0  0  0  0
    1.7048    0.9021    0.1904 C   0  0  0  0  0  0  0  0  0  0  0  0
    0.5710    1.6668   -0.1728 O   0  0  0  0  0  0  0  0  0  0  0  0
    2.6040   -0.0115   -2.3203 H   0  0  0  0  0  0  0  0  0  0  0  0
    0.8432    0.0483   -2.3210 H   0  0  0  0  0  0  0  0  0  0  0  0
    1.6740   -1.5121   -2.3284 H   0  0  0  0  0  0  0  0  0  0  0  0
    0.8315   -1.0425   -0.0360 H   0  0  0  0  0  0  0  0  0  0  0  0
    2.5822   -1.0293   -0.0324 H   0  0  0  0  0  0  0  0  0  0  0  0
    2.5659    1.4651   -0.1764 H   0  0  0  0  0  0  0  0  0  0  0  0
    1.7948    0.8390    1.2821 H   0  0  0  0  0  0  0  0  0  0  0  0
   -0.3680    1.1356    0.2264 H   0  0  0  0  0  0  0  0  0  0  0  0
  1  2  1  0
  1  4  1  0
  2  3  2  3
  3  5  1  0
  6  7  1  0
  6 10  1  0
  6 11  1  0
  6 12  1  0
  7  8  1  0
  7 13  1  0
  7 14  1  0
  8  9  1  0
  8 15  1  0
  8 16  1  0
  9 17  1  0
M  RAD  1   3   2
M  END
>  <reaction>  (19) 
rmg_rxn_15426

>  <mol_properties>  (19) 
{"1": {"label": "*4", "atom_type": "N3d"}, "2": {"label": "*3", "atom_type": "Cd"}, "7": {"label": "*0", "atom_type": "Cs"}, "8": {"label": "*1", "atom_type": "O2s"}, "16": {"label": "*2", "atom_type": "H0"}}

>  <type>  (19) 
unop_15

>  <geom_source>  (19) 
Heuristics

$$$$

     RDKit          3D

 17 15  0  0  0  0  0  0  0  0999 V2000
   -2.7513   -0.0173    1.9777 O   0  0  0  0  0  0  0  0  0  0  0  0
   -1.4491   -0.0598    1.5199 N   0  0  0  0  0  0  0  0  0  0  0  0
   -1.3824    0.1071    0.2704 C   0  0  0  0  0  3  0  0  0  0  0  0
   -2.6591   -0.1550    2.9225 H   0  0  0  0  0  0  0  0  0  0  0  0
   -2.2634    0.2638   -0.3484 H   0  0  0  0  0  0  0  0  0  0  0  0
    1.7500   -0.9248   -2.3392 C   0  0  0  0  0  0  0  0  0  0  0  0
    1.7500   -0.9248   -0.8168 C   0  0  0  0  0  0  0  0  0  0  0  0
    1.7500    0.4732   -0.2161 C   0  0  0  0  0  0  0  0  0  0  0  0
    0.6162    1.2380   -0.5792 O   0  0  0  0  0  0  0  0  0  0  0  0
    2.6493   -0.4404   -2.7267 H   0  0  0  0  0  0  0  0  0  0  0  0
    0.8885   -0.3806   -2.7274 H   0  0  0  0  0  0  0  0  0  0  0  0
    1.7193   -1.9410   -2.7348 H   0  0  0  0  0  0  0  0  0  0  0  0
    0.8767   -1.4714   -0.4424 H   0  0  0  0  0  0  0  0  0  0  0  0
    2.6275   -1.4582   -0.4388 H   0  0  0  0  0  0  0  0  0  0  0  0
    2.6112    1.0362   -0.5828 H   0  0  0  0  0  0  0  0  0  0  0  0
    1.8400    0.4101    0.8757 H   0  0  0  0  0  0  0  0  0  0  0  0
   -0.3227    0.7067   -0.1800 H   0  0  0  0  0  0  0  0  0  0  0  0
  1  2  1  0
  1  4  1  0
  2  3  2  3
  3  5  1  0
  6  7  1  0
  6 10  1  0
  6 11  1  0
  6 12  1  0
  7  8  1  0
  7 13  1  0
  7 14  1  0
  8  9  1  0
  8 15  1  0
  8 16  1  0
  9 17  1  0
M  RAD  1   3   2
M  END
>  <reaction>  (20) 
rmg_rxn_15426

>  <mol_properties>  (20) 
{"1": {"label": "*4", "atom_type": "N3d"}, "2": {"label": "*3", "atom_type": "Cd"}, "7": {"label": "*0", "atom_type": "Cs"}, "8": {"label": "*1", "atom_type": "O2s"}, "16": {"label": "*2", "atom_type": "H0"}}

>  <type>  (20) 
unop_16

>  <geom_source>  (20) 
Heuristics

$$$$

     RDKit          3D

 17 15  0  0  0  0  0  0  0  0999 V2000
   -3.2976    0.1761    0.9277 O   0  0  0  0  0  0  0  0  0  0  0  0
   -2.1789    0.1734    0.1180 N   0  0  0  0  0  0  0  0  0  0  0  0
   -1.1164    0.0176    0.7815 C   0  0  0  0  0  3  0  0  0  0  0  0
   -4.0195    0.3000    0.3085 H   0  0  0  0  0  0  0  0  0  0  0  0
   -1.1120   -0.0986    1.8632 H   0  0  0  0  0  0  0  0  0  0  0  0
    2.0160   -1.0143   -1.8281 C   0  0  0  0  0  0  0  0  0  0  0  0
    2.0160   -1.0143   -0.3056 C   0  0  0  0  0  0  0  0  0  0  0  0
    2.0160    0.3837    0.2951 C   0  0  0  0  0  0  0  0  0  0  0  0
    0.8822    1.1484   -0.0681 O   0  0  0  0  0  0  0  0  0  0  0  0
    2.9153   -0.5299   -2.2156 H   0  0  0  0  0  0  0  0  0  0  0  0
    1.1545   -0.4702   -2.2163 H   0  0  0  0  0  0  0  0  0  0  0  0
    1.9853   -2.0305   -2.2237 H   0  0  0  0  0  0  0  0  0  0  0  0
    1.1427   -1.5609    0.0687 H   0  0  0  0  0  0  0  0  0  0  0  0
    2.8935   -1.5477    0.0723 H   0  0  0  0  0  0  0  0  0  0  0  0
    2.8772    0.9467   -0.0717 H   0  0  0  0  0  0  0  0  0  0  0  0
    2.1061    0.3205    1.3868 H   0  0  0  0  0  0  0  0  0  0  0  0
   -0.0567    0.6171    0.3311 H   0  0  0  0  0  0  0  0  0  0  0  0
  1  2  1  0
  1  4  1  0
  2  3  2  3
  3  5  1  0
  6  7  1  0
  6 10  1  0
  6 11  1  0
  6 12  1  0
  7  8  1  0
  7 13  1  0
  7 14  1  0
  8  9  1  0
  8 15  1  0
  8 16  1  0
  9 17  1  0
M  RAD  1   3   2
M  END
>  <reaction>  (21) 
rmg_rxn_15426

>  <mol_properties>  (21) 
{"1": {"label": "*4", "atom_type": "N3d"}, "2": {"label": "*3", "atom_type": "Cd"}, "7": {"label": "*0", "atom_type": "Cs"}, "8": {"label": "*1", "atom_type": "O2s"}, "16": {"label": "*2", "atom_type": "H0"}}

>  <type>  (21) 
unop_17

>  <geom_source>  (21) 
Heuristics

$$$$

     RDKit          3D

 17 15  0  0  0  0  0  0  0  0999 V2000
   -2.4789   -1.1524    1.5248 O   0  0  0  0  0  0  0  0  0  0  0  0
   -1.2914   -0.5974    1.0902 N   0  0  0  0  0  0  0  0  0  0  0  0
   -1.4771    0.4797    0.4587 C   0  0  0  0  0  3  0  0  0  0  0  0
   -2.1984   -1.9490    1.9796 H   0  0  0  0  0  0  0  0  0  0  0  0
   -2.4672    0.8984    0.2913 H   0  0  0  0  0  0  0  0  0  0  0  0
    1.6553   -0.5521   -2.1509 C   0  0  0  0  0  0  0  0  0  0  0  0
    1.6553   -0.5521   -0.6285 C   0  0  0  0  0  0  0  0  0  0  0  0
    1.6553    0.8459   -0.0278 C   0  0  0  0  0  0  0  0  0  0  0  0
    0.5215    1.6106   -0.3909 O   0  0  0  0  0  0  0  0  0  0  0  0
    2.5546   -0.0677   -2.5384 H   0  0  0  0  0  0  0  0  0  0  0  0
    0.7938   -0.0080   -2.5391 H   0  0  0  0  0  0  0  0  0  0  0  0
    1.6246   -1.5683   -2.5465 H   0  0  0  0  0  0  0  0  0  0  0  0
    0.7820   -1.0987   -0.2541 H   0  0  0  0  0  0  0  0  0  0  0  0
    2.5328   -1.0855   -0.2505 H   0  0  0  0  0  0  0  0  0  0  0  0
    2.5165    1.4089   -0.3945 H   0  0  0  0  0  0  0  0  0  0  0  0
    1.7454    0.7827    1.0640 H   0  0  0  0  0  0  0  0  0  0  0  0
   -0.4174    1.0793    0.0082 H   0  0  0  0  0  0  0  0  0  0  0  0
  1  2  1  0
  1  4  1  0
  2  3  2  3
  3  5  1  0
  6  7  1  0
  6 10  1  0
  6 11  1  0
  6 12  1  0
  7  8  1  0
  7 13  1  0
  7 14  1  0
  8  9  1  0
  8 15  1  0
  8 16  1  0
  9 17  1  0
M  RAD  1   3   2
M  END
>  <reaction>  (22) 
rmg_rxn_15426

>  <mol_properties>  (22) 
{"1": {"label": "*4", "atom_type": "N3d"}, "2": {"label": "*3", "atom_type": "Cd"}, "7": {"label": "*0", "atom_type": "Cs"}, "8": {"label": "*1", "atom_type": "O2s"}, "16": {"label": "*2", "atom_type": "H0"}}

>  <type>  (22) 
unop_18

>  <geom_source>  (22) 
Heuristics

$$$$

     RDKit          3D

 17 15  0  0  0  0  0  0  0  0999 V2000
    3.5134    1.3433    1.2068 O   0  0  0  0  0  0  0  0  0  0  0  0
    0.2225   -0.4659    0.5691 O   0  0  0  0  0  1  0  0  0  0  0  0
    3.5412    0.4219    0.1868 N   0  0  0  0  0  0  0  0  0  0  0  0
   -2.0830   -0.6137   -0.0920 C   0  0  0  0  0  0  0  0  0  0  0  0
   -0.6337   -0.9902   -0.4010 C   0  0  0  0  0  0  0  0  0  0  0  0
   -2.3127    0.8929   -0.1902 C   0  0  0  0  0  0  0  0  0  0  0  0
    2.5034   -0.3038   -0.0667 C   0  0  0  0  0  0  0  0  0  0  0  0
   -2.7515   -1.1269   -0.8166 H   0  0  0  0  0  0  0  0  0  0  0  0
   -2.3484   -0.9625    0.9296 H   0  0  0  0  0  0  0  0  0  0  0  0
   -0.5349   -2.0961   -0.4065 H   0  0  0  0  0  0  0  0  0  0  0  0
   -0.3387   -0.6063   -1.4009 H   0  0  0  0  0  0  0  0  0  0  0  0
   -3.3796    1.1195    0.0180 H   0  0  0  0  0  0  0  0  0  0  0  0
   -2.0660    1.2555   -1.2108 H   0  0  0  0  0  0  0  0  0  0  0  0
   -1.6862    1.4310    0.5524 H   0  0  0  0  0  0  0  0  0  0  0  0
    1.4896   -0.1818    0.5925 H   0  0  0  0  0  0  0  0  0  0  0  0
    2.5347   -1.0259   -0.8710 H   0  0  0  0  0  0  0  0  0  0  0  0
    4.3300    1.9089    1.4004 H   0  0  0  0  0  0  0  0  0  0  0  0
  1  3  1  0
  1 17  1  0
  2  5  1  0
  3  7  2  3
  4  6  1  0
  4  5  1  0
  4  8  1  0
  4  9  1  0
  5 10  1  0
  5 11  1  0
  6 12  1  0
  6 13  1  0
  6 14  1  0
  7 15  1  0
  7 16  1  0
M  RAD  1   2   2
M  END
>  <reaction>  (23) 
rmg_rxn_15426

>  <mol_properties>  (23) 
{"1": {"label": "*4", "atom_type": "N3d"}, "2": {"label": "*3", "atom_type": "Cd"}, "7": {"label": "*0", "atom_type": "Cs"}, "8": {"label": "*1", "atom_type": "O2s"}, "16": {"label": "*2", "atom_type": "H0"}}

>  <type>  (23) 
unop_19

>  <geom_source>  (23) 
AutoTST

$$$$

     RDKit          3D

 17 15  0  0  0  0  0  0  0  0999 V2000
   -2.5305   -0.6286    1.9681 O   0  0  0  0  0  0  0  0  0  0  0  0
   -1.3195   -0.3668    1.3581 N   0  0  0  0  0  0  0  0  0  0  0  0
   -1.4595    0.3110    0.3025 C   0  0  0  0  0  3  0  0  0  0  0  0
   -2.2837   -1.1397    2.7414 H   0  0  0  0  0  0  0  0  0  0  0  0
   -2.4318    0.6371   -0.0607 H   0  0  0  0  0  0  0  0  0  0  0  0
    1.6729   -0.7208   -2.3072 C   0  0  0  0  0  0  0  0  0  0  0  0
    1.6729   -0.7208   -0.7847 C   0  0  0  0  0  0  0  0  0  0  0  0
    1.6729    0.6771   -0.1840 C   0  0  0  0  0  0  0  0  0  0  0  0
    0.5391    1.4419   -0.5471 O   0  0  0  0  0  0  0  0  0  0  0  0
    2.5722   -0.2365   -2.6946 H   0  0  0  0  0  0  0  0  0  0  0  0
    0.8114   -0.1767   -2.6953 H   0  0  0  0  0  0  0  0  0  0  0  0
    1.6422   -1.7370   -2.7027 H   0  0  0  0  0  0  0  0  0  0  0  0
    0.7996   -1.2675   -0.4103 H   0  0  0  0  0  0  0  0  0  0  0  0
    2.5504   -1.2543   -0.4067 H   0  0  0  0  0  0  0  0  0  0  0  0
    2.5341    1.2402   -0.5507 H   0  0  0  0  0  0  0  0  0  0  0  0
    1.7629    0.6140    0.9078 H   0  0  0  0  0  0  0  0  0  0  0  0
   -0.3998    0.9106   -0.1480 H   0  0  0  0  0  0  0  0  0  0  0  0
  1  2  1  0
  1  4  1  0
  2  3  2  3
  3  5  1  0
  6  7  1  0
  6 10  1  0
  6 11  1  0
  6 12  1  0
  7  8  1  0
  7 13  1  0
  7 14  1  0
  8  9  1  0
  8 15  1  0
  8 16  1  0
  9 17  1  0
M  RAD  1   3   2
M  END
>  <reaction>  (24) 
rmg_rxn_15426

>  <mol_properties>  (24) 
{"1": {"label": "*4", "atom_type": "N3d"}, "2": {"label": "*3", "atom_type": "Cd"}, "7": {"label": "*0", "atom_type": "Cs"}, "8": {"label": "*1", "atom_type": "O2s"}, "16": {"label": "*2", "atom_type": "H0"}}

>  <type>  (24) 
unop_20

>  <geom_source>  (24) 
gaussian_log

$$$$
