
     RDKit          3D

  6  5  0  0  0  0  0  0  0  0999 V2000
   -0.4547   -0.0097   -0.0070 C   0  0  0  0  0  0  0  0  0  0  0  0
    0.8695   -0.1987   -0.6218 N   0  0  0  0  0  0  0  0  0  0  0  0
    1.0322   -1.2809   -1.0969 O   0  0  0  0  0  0  0  0  0  0  0  0
   -0.2820    0.2687    1.0347 H   0  0  0  0  0  0  0  0  0  0  0  0
   -1.0716   -0.9051   -0.0916 H   0  0  0  0  0  0  0  0  0  0  0  0
   -0.9130    0.8487   -0.5026 H   0  0  0  0  0  0  0  0  0  0  0  0
  1  2  1  0
  1  4  1  0
  1  5  1  0
  1  6  1  0
  2  3  2  0
M  END
>  <reaction>  (1) 
rmg_rxn_1538

>  <mol_properties>  (1) 
{"0": {"label": "donator", "atom_type": "Cs"}, "3": {"label": "d_hydrogen", "atom_type": "H0"}}

>  <type>  (1) 
r1h

$$$$

     RDKit          3D

  4  3  0  0  0  0  0  0  0  0999 V2000
   -0.8019    0.4189    0.0192 N   0  0  0  0  0  0  0  0  0  0  0  0
    0.3609    0.8266    0.0061 N   0  0  0  0  0  0  0  0  0  0  0  0
    0.8339    1.9183    0.0142 O   0  0  0  0  0  1  0  0  0  0  0  0
   -0.7779   -0.6002    0.0040 H   0  0  0  0  0  0  0  0  0  0  0  0
  1  2  2  3
  1  4  1  0
  2  3  1  0
M  RAD  1   3   2
M  END
>  <reaction>  (2) 
rmg_rxn_1538

>  <mol_properties>  (2) 
{"0": {"label": "acceptor", "atom_type": "N3s"}}

>  <type>  (2) 
r2

$$$$

     RDKit          3D

  5  4  0  0  0  0  0  0  0  0999 V2000
   -0.4583    0.0384    0.1517 N   0  0  0  0  0  0  0  0  0  0  0  0
    0.7454   -0.3487    0.5322 N   0  0  0  0  0  0  0  0  0  0  0  0
    0.7566   -1.0388    1.5193 O   0  0  0  0  0  0  0  0  0  0  0  0
   -1.2688   -0.2521    0.6850 H   0  0  0  0  0  0  0  0  0  0  0  0
   -0.5137    0.6154   -0.6670 H   0  0  0  0  0  0  0  0  0  0  0  0
  1  2  1  0
  1  4  1  0
  1  5  1  0
  2  3  2  0
M  END
>  <reaction>  (3) 
rmg_rxn_1538

>  <mol_properties>  (3) 
{"0": {"label": "acceptor", "atom_type": "N3s"}, "4": {"label": "a_hydrogen", "atom_type": "H0"}}

>  <type>  (3) 
r2h

$$$$

     RDKit          3D

 10  8  0  0  0  0  0  0  0  0999 V2000
   -0.5290    1.0837    1.0079 N   0  0  0  0  0  0  0  0  0  0  0  0
   -0.7639   -0.1164    0.7187 N   0  0  0  0  0  0  0  0  0  0  0  0
   -1.6951   -0.7815    1.1080 O   0  0  0  0  0  1  0  0  0  0  0  0
   -1.1962    1.5234    1.6399 H   0  0  0  0  0  0  0  0  0  0  0  0
    1.5595    0.7419   -0.4573 C   0  0  0  0  0  0  0  0  0  0  0  0
    0.8730   -0.4028   -0.7907 N   0  0  0  0  0  0  0  0  0  0  0  0
    0.3989   -0.6698   -1.8390 O   0  0  0  0  0  0  0  0  0  0  0  0
    0.6042    1.2705    0.2865 H   0  0  0  0  0  0  0  0  0  0  0  0
    1.8480    1.3461   -1.3136 H   0  0  0  0  0  0  0  0  0  0  0  0
    2.3198    0.5367    0.2898 H   0  0  0  0  0  0  0  0  0  0  0  0
  1  2  2  3
  1  4  1  0
  2  3  1  0
  5  6  1  0
  5  8  1  0
  5  9  1  0
  5 10  1  0
  6  7  2  0
M  RAD  1   3   2
M  END
>  <reaction>  (4) 
rmg_rxn_1538

>  <mol_properties>  (4) 
{"0": {"label": "*3", "atom_type": "N3d"}, "1": {"label": "*4", "atom_type": "N3d"}, "4": {"label": "*1", "atom_type": "Cs"}, "5": {"label": "*0", "atom_type": "N3d"}, "7": {"label": "*2", "atom_type": "H0"}}

>  <type>  (4) 
ts

$$$$

     RDKit          3D

 10  8  0  0  0  0  0  0  0  0999 V2000
   -0.9566   -0.4186   -0.0216 N   0  0  0  0  0  0  0  0  0  0  0  0
   -2.0054    0.2974   -0.0176 N   0  0  0  0  0  0  0  0  0  0  0  0
   -3.1208   -0.1951    0.0343 O   0  0  0  0  0  0  0  0  0  0  0  0
   -1.0115   -1.4412    0.0215 H   0  0  0  0  0  0  0  0  0  0  0  0
    1.1798    0.9098   -0.1535 C   0  0  0  0  0  0  0  0  0  0  0  0
    2.1469    0.1970    0.3377 N   0  0  0  0  0  0  0  0  0  0  0  0
    2.8806   -0.6523   -0.1307 O   0  0  0  0  0  1  0  0  0  0  0  0
    0.0874    0.1685   -0.0632 H   0  0  0  0  0  0  0  0  0  0  0  0
    1.1437    1.1009   -1.2316 H   0  0  0  0  0  0  0  0  0  0  0  0
    0.8609    1.7261    0.4846 H   0  0  0  0  0  0  0  0  0  0  0  0
  1  2  1  0
  1  4  1  0
  1  8  1  0
  2  3  2  0
  5  6  2  3
  5  9  1  0
  5 10  1  0
  6  7  1  0
M  RAD  1   7   2
M  END
>  <reaction>  (5) 
rmg_rxn_1538

>  <mol_properties>  (5) 
{"0": {"label": "*3", "atom_type": "N3d"}, "1": {"label": "*4", "atom_type": "N3d"}, "4": {"label": "*1", "atom_type": "Cs"}, "5": {"label": "*0", "atom_type": "N3d"}, "7": {"label": "*2", "atom_type": "H0"}}

>  <type>  (5) 
unop_1

>  <geom_source>  (5) 
crest_best.xyz

$$$$

     RDKit          3D

 10  8  0  0  0  0  0  0  0  0999 V2000
   -0.9445    0.2731    0.6387 N   0  0  0  0  0  0  0  0  0  0  0  0
   -0.7349    0.5101    1.9206 N   0  0  0  0  0  0  0  0  0  0  0  0
   -1.4579    1.3481    2.3958 O   0  0  0  0  0  0  0  0  0  0  0  0
   -1.6677    0.7845    0.1474 H   0  0  0  0  0  0  0  0  0  0  0  0
    1.0816    0.1362   -0.8436 C   0  0  0  0  0  0  0  0  0  0  0  0
    1.0816   -1.2096   -1.4404 N   0  0  0  0  0  0  0  0  0  0  0  0
    1.0816   -1.2096   -2.6335 O   0  0  0  0  0  1  0  0  0  0  0  0
    0.0256    0.2076   -0.0710 H   0  0  0  0  0  0  0  0  0  0  0  0
    1.0816    0.9166   -1.6054 H   0  0  0  0  0  0  0  0  0  0  0  0
    1.9616    0.1957   -0.1998 H   0  0  0  0  0  0  0  0  0  0  0  0
  1  2  1  0
  1  4  1  0
  1  8  1  0
  2  3  2  0
  5  6  2  3
  5  9  1  0
  5 10  1  0
  6  7  1  0
M  RAD  1   7   2
M  END
>  <reaction>  (6) 
rmg_rxn_1538

>  <mol_properties>  (6) 
{"0": {"label": "*3", "atom_type": "N3d"}, "1": {"label": "*4", "atom_type": "N3d"}, "4": {"label": "*1", "atom_type": "Cs"}, "5": {"label": "*0", "atom_type": "N3d"}, "7": {"label": "*2", "atom_type": "H0"}}

>  <type>  (6) 
unop_2

>  <geom_source>  (6) 
Heuristics

$$$$

     RDKit          3D

 10  8  0  0  0  0  0  0  0  0999 V2000
   -0.7421    0.8442    0.7858 N   0  0  0  0  0  0  0  0  0  0  0  0
   -1.1556   -0.2799    1.3418 N   0  0  0  0  0  0  0  0  0  0  0  0
   -1.8761   -0.1272    2.2949 O   0  0  0  0  0  0  0  0  0  0  0  0
   -1.0390    1.7320    1.1724 H   0  0  0  0  0  0  0  0  0  0  0  0
    1.2840    0.7072   -0.6965 C   0  0  0  0  0  0  0  0  0  0  0  0
    1.2840   -0.6386   -1.2933 N   0  0  0  0  0  0  0  0  0  0  0  0
    1.2840   -0.6386   -2.4864 O   0  0  0  0  0  1  0  0  0  0  0  0
    0.2280    0.7786    0.0761 H   0  0  0  0  0  0  0  0  0  0  0  0
    1.2840    1.4876   -1.4582 H   0  0  0  0  0  0  0  0  0  0  0  0
    2.1640    0.7667   -0.0527 H   0  0  0  0  0  0  0  0  0  0  0  0
  1  2  1  0
  1  4  1  0
  1  8  1  0
  2  3  2  0
  5  6  2  3
  5  9  1  0
  5 10  1  0
  6  7  1  0
M  RAD  1   7   2
M  END
>  <reaction>  (7) 
rmg_rxn_1538

>  <mol_properties>  (7) 
{"0": {"label": "*3", "atom_type": "N3d"}, "1": {"label": "*4", "atom_type": "N3d"}, "4": {"label": "*1", "atom_type": "Cs"}, "5": {"label": "*0", "atom_type": "N3d"}, "7": {"label": "*2", "atom_type": "H0"}}

>  <type>  (7) 
unop_3

>  <geom_source>  (7) 
Heuristics

$$$$

     RDKit          3D

 10  8  0  0  0  0  0  0  0  0999 V2000
   -0.8473    0.1421    0.7508 N   0  0  0  0  0  0  0  0  0  0  0  0
   -0.7653    0.9300    1.8071 N   0  0  0  0  0  0  0  0  0  0  0  0
   -1.7868    1.5093    2.0754 O   0  0  0  0  0  0  0  0  0  0  0  0
   -1.7229    0.0706    0.2469 H   0  0  0  0  0  0  0  0  0  0  0  0
    1.1789    0.0051   -0.7316 C   0  0  0  0  0  0  0  0  0  0  0  0
    1.1789   -1.3407   -1.3284 N   0  0  0  0  0  0  0  0  0  0  0  0
    1.1789   -1.3407   -2.5215 O   0  0  0  0  0  1  0  0  0  0  0  0
    0.1229    0.0765    0.0410 H   0  0  0  0  0  0  0  0  0  0  0  0
    1.1789    0.7855   -1.4933 H   0  0  0  0  0  0  0  0  0  0  0  0
    2.0589    0.0646   -0.0877 H   0  0  0  0  0  0  0  0  0  0  0  0
  1  2  1  0
  1  4  1  0
  1  8  1  0
  2  3  2  0
  5  6  2  3
  5  9  1  0
  5 10  1  0
  6  7  1  0
M  RAD  1   7   2
M  END
>  <reaction>  (8) 
rmg_rxn_1538

>  <mol_properties>  (8) 
{"0": {"label": "*3", "atom_type": "N3d"}, "1": {"label": "*4", "atom_type": "N3d"}, "4": {"label": "*1", "atom_type": "Cs"}, "5": {"label": "*0", "atom_type": "N3d"}, "7": {"label": "*2", "atom_type": "H0"}}

>  <type>  (8) 
unop_4

>  <geom_source>  (8) 
Heuristics

$$$$

     RDKit          3D

 10  8  0  0  0  0  0  0  0  0999 V2000
   -0.4621    0.4413    1.2412 N   0  0  0  0  0  0  0  0  0  0  0  0
   -1.6384    0.2696    0.6664 N   0  0  0  0  0  0  0  0  0  0  0  0
   -2.5285    0.9197    1.1523 O   0  0  0  0  0  0  0  0  0  0  0  0
   -0.3758    1.0799    2.0225 H   0  0  0  0  0  0  0  0  0  0  0  0
    1.5640    0.3043   -0.2411 C   0  0  0  0  0  0  0  0  0  0  0  0
    1.5640   -1.0415   -0.8379 N   0  0  0  0  0  0  0  0  0  0  0  0
    1.5640   -1.0415   -2.0310 O   0  0  0  0  0  1  0  0  0  0  0  0
    0.5080    0.3757    0.5315 H   0  0  0  0  0  0  0  0  0  0  0  0
    1.5640    1.0847   -1.0029 H   0  0  0  0  0  0  0  0  0  0  0  0
    2.4440    0.3638    0.4027 H   0  0  0  0  0  0  0  0  0  0  0  0
  1  2  1  0
  1  4  1  0
  1  8  1  0
  2  3  2  0
  5  6  2  3
  5  9  1  0
  5 10  1  0
  6  7  1  0
M  RAD  1   7   2
M  END
>  <reaction>  (9) 
rmg_rxn_1538

>  <mol_properties>  (9) 
{"0": {"label": "*3", "atom_type": "N3d"}, "1": {"label": "*4", "atom_type": "N3d"}, "4": {"label": "*1", "atom_type": "Cs"}, "5": {"label": "*0", "atom_type": "N3d"}, "7": {"label": "*2", "atom_type": "H0"}}

>  <type>  (9) 
unop_5

>  <geom_source>  (9) 
Heuristics

$$$$

     RDKit          3D

 10  8  0  0  0  0  0  0  0  0999 V2000
   -0.7635    0.1342    0.8057 N   0  0  0  0  0  0  0  0  0  0  0  0
   -0.9608    1.2707    1.4482 N   0  0  0  0  0  0  0  0  0  0  0  0
   -1.9440    1.2841    2.1439 O   0  0  0  0  0  0  0  0  0  0  0  0
   -1.4184   -0.6289    0.9268 H   0  0  0  0  0  0  0  0  0  0  0  0
    1.2626   -0.0028   -0.6766 C   0  0  0  0  0  0  0  0  0  0  0  0
    1.2626   -1.3486   -1.2734 N   0  0  0  0  0  0  0  0  0  0  0  0
    1.2626   -1.3486   -2.4665 O   0  0  0  0  0  1  0  0  0  0  0  0
    0.2066    0.0686    0.0960 H   0  0  0  0  0  0  0  0  0  0  0  0
    1.2626    0.7777   -1.4384 H   0  0  0  0  0  0  0  0  0  0  0  0
    2.1426    0.0567   -0.0328 H   0  0  0  0  0  0  0  0  0  0  0  0
  1  2  1  0
  1  4  1  0
  1  8  1  0
  2  3  2  0
  5  6  2  3
  5  9  1  0
  5 10  1  0
  6  7  1  0
M  RAD  1   7   2
M  END
>  <reaction>  (10) 
rmg_rxn_1538

>  <mol_properties>  (10) 
{"0": {"label": "*3", "atom_type": "N3d"}, "1": {"label": "*4", "atom_type": "N3d"}, "4": {"label": "*1", "atom_type": "Cs"}, "5": {"label": "*0", "atom_type": "N3d"}, "7": {"label": "*2", "atom_type": "H0"}}

>  <type>  (10) 
unop_6

>  <geom_source>  (10) 
Heuristics

$$$$

     RDKit          3D

 10  8  0  0  0  0  0  0  0  0999 V2000
   -0.5317    0.2198    1.1978 N   0  0  0  0  0  0  0  0  0  0  0  0
   -1.6501    0.6539    0.6462 N   0  0  0  0  0  0  0  0  0  0  0  0
   -2.2684    1.4340    1.3243 O   0  0  0  0  0  0  0  0  0  0  0  0
   -0.2667    0.5504    2.1176 H   0  0  0  0  0  0  0  0  0  0  0  0
    1.4944    0.0828   -0.2845 C   0  0  0  0  0  0  0  0  0  0  0  0
    1.4944   -1.2630   -0.8814 N   0  0  0  0  0  0  0  0  0  0  0  0
    1.4944   -1.2630   -2.0745 O   0  0  0  0  0  1  0  0  0  0  0  0
    0.4384    0.1542    0.4880 H   0  0  0  0  0  0  0  0  0  0  0  0
    1.4944    0.8633   -1.0463 H   0  0  0  0  0  0  0  0  0  0  0  0
    2.3744    0.1423    0.3593 H   0  0  0  0  0  0  0  0  0  0  0  0
  1  2  1  0
  1  4  1  0
  1  8  1  0
  2  3  2  0
  5  6  2  3
  5  9  1  0
  5 10  1  0
  6  7  1  0
M  RAD  1   7   2
M  END
>  <reaction>  (11) 
rmg_rxn_1538

>  <mol_properties>  (11) 
{"0": {"label": "*3", "atom_type": "N3d"}, "1": {"label": "*4", "atom_type": "N3d"}, "4": {"label": "*1", "atom_type": "Cs"}, "5": {"label": "*0", "atom_type": "N3d"}, "7": {"label": "*2", "atom_type": "H0"}}

>  <type>  (11) 
unop_7

>  <geom_source>  (11) 
Heuristics

$$$$

     RDKit          3D

 10  8  0  0  0  0  0  0  0  0999 V2000
    0.9567    0.4191    0.0246 N   0  0  0  0  0  0  0  0  0  0  0  0
    2.0052   -0.2974    0.0161 N   0  0  0  0  0  0  0  0  0  0  0  0
    3.1207    0.1947   -0.0355 O   0  0  0  0  0  0  0  0  0  0  0  0
    1.0119    1.4418   -0.0144 H   0  0  0  0  0  0  0  0  0  0  0  0
   -1.1797   -0.9095    0.1546 C   0  0  0  0  0  0  0  0  0  0  0  0
   -2.1463   -0.1971   -0.3380 N   0  0  0  0  0  0  0  0  0  0  0  0
   -2.8811    0.6519    0.1292 O   0  0  0  0  0  1  0  0  0  0  0  0
   -0.0874   -0.1679    0.0660 H   0  0  0  0  0  0  0  0  0  0  0  0
   -0.8594   -1.7256   -0.4829 H   0  0  0  0  0  0  0  0  0  0  0  0
   -1.1451   -1.1005    1.2327 H   0  0  0  0  0  0  0  0  0  0  0  0
  1  2  1  0
  1  4  1  0
  1  8  1  0
  2  3  2  0
  5  6  2  3
  5  9  1  0
  5 10  1  0
  6  7  1  0
M  RAD  1   7   2
M  END
>  <reaction>  (12) 
rmg_rxn_1538

>  <mol_properties>  (12) 
{"0": {"label": "*3", "atom_type": "N3d"}, "1": {"label": "*4", "atom_type": "N3d"}, "4": {"label": "*1", "atom_type": "Cs"}, "5": {"label": "*0", "atom_type": "N3d"}, "7": {"label": "*2", "atom_type": "H0"}}

>  <type>  (12) 
unop_8

>  <geom_source>  (12) 
Heuristics

$$$$

     RDKit          3D

 10  8  0  0  0  0  0  0  0  0999 V2000
   -0.6490    0.0864    1.0599 N   0  0  0  0  0  0  0  0  0  0  0  0
   -1.5393    1.0186    0.7740 N   0  0  0  0  0  0  0  0  0  0  0  0
   -1.9270    1.6446    1.7273 O   0  0  0  0  0  0  0  0  0  0  0  0
   -0.3540   -0.0459    2.0197 H   0  0  0  0  0  0  0  0  0  0  0  0
    1.3771   -0.0506   -0.4224 C   0  0  0  0  0  0  0  0  0  0  0  0
    1.3771   -1.3964   -1.0192 N   0  0  0  0  0  0  0  0  0  0  0  0
    1.3771   -1.3964   -2.2123 O   0  0  0  0  0  1  0  0  0  0  0  0
    0.3211    0.0208    0.3502 H   0  0  0  0  0  0  0  0  0  0  0  0
    1.3771    0.7298   -1.1842 H   0  0  0  0  0  0  0  0  0  0  0  0
    2.2571    0.0089    0.2214 H   0  0  0  0  0  0  0  0  0  0  0  0
  1  2  1  0
  1  4  1  0
  1  8  1  0
  2  3  2  0
  5  6  2  3
  5  9  1  0
  5 10  1  0
  6  7  1  0
M  RAD  1   7   2
M  END
>  <reaction>  (13) 
rmg_rxn_1538

>  <mol_properties>  (13) 
{"0": {"label": "*3", "atom_type": "N3d"}, "1": {"label": "*4", "atom_type": "N3d"}, "4": {"label": "*1", "atom_type": "Cs"}, "5": {"label": "*0", "atom_type": "N3d"}, "7": {"label": "*2", "atom_type": "H0"}}

>  <type>  (13) 
unop_9

>  <geom_source>  (13) 
Heuristics

$$$$

     RDKit          3D

 10  8  0  0  0  0  0  0  0  0999 V2000
   -0.9610    0.4911    0.5859 N   0  0  0  0  0  0  0  0  0  0  0  0
   -0.8092    0.1224    1.8447 N   0  0  0  0  0  0  0  0  0  0  0  0
   -1.3431    0.8491    2.6432 O   0  0  0  0  0  0  0  0  0  0  0  0
   -1.4929    1.3255    0.3699 H   0  0  0  0  0  0  0  0  0  0  0  0
    1.0651    0.3541   -0.8964 C   0  0  0  0  0  0  0  0  0  0  0  0
    1.0651   -0.9916   -1.4932 N   0  0  0  0  0  0  0  0  0  0  0  0
    1.0651   -0.9916   -2.6863 O   0  0  0  0  0  1  0  0  0  0  0  0
    0.0091    0.4255   -0.1238 H   0  0  0  0  0  0  0  0  0  0  0  0
    1.0651    1.1346   -1.6582 H   0  0  0  0  0  0  0  0  0  0  0  0
    1.9451    0.4136   -0.2526 H   0  0  0  0  0  0  0  0  0  0  0  0
  1  2  1  0
  1  4  1  0
  1  8  1  0
  2  3  2  0
  5  6  2  3
  5  9  1  0
  5 10  1  0
  6  7  1  0
M  RAD  1   7   2
M  END
>  <reaction>  (14) 
rmg_rxn_1538

>  <mol_properties>  (14) 
{"0": {"label": "*3", "atom_type": "N3d"}, "1": {"label": "*4", "atom_type": "N3d"}, "4": {"label": "*1", "atom_type": "Cs"}, "5": {"label": "*0", "atom_type": "N3d"}, "7": {"label": "*2", "atom_type": "H0"}}

>  <type>  (14) 
unop_10

>  <geom_source>  (14) 
Heuristics

$$$$

     RDKit          3D

 10  8  0  0  0  0  0  0  0  0999 V2000
   -0.9566   -0.4186   -0.0216 N   0  0  0  0  0  0  0  0  0  0  0  0
   -2.0054    0.2974   -0.0176 N   0  0  0  0  0  0  0  0  0  0  0  0
   -3.1208   -0.1951    0.0343 O   0  0  0  0  0  0  0  0  0  0  0  0
   -1.0115   -1.4412    0.0215 H   0  0  0  0  0  0  0  0  0  0  0  0
    1.1798    0.9098   -0.1535 C   0  0  0  0  0  0  0  0  0  0  0  0
    2.1469    0.1970    0.3377 N   0  0  0  0  0  0  0  0  0  0  0  0
    2.8806   -0.6523   -0.1307 O   0  0  0  0  0  1  0  0  0  0  0  0
    0.0874    0.1685   -0.0632 H   0  0  0  0  0  0  0  0  0  0  0  0
    1.1437    1.1009   -1.2316 H   0  0  0  0  0  0  0  0  0  0  0  0
    0.8609    1.7261    0.4846 H   0  0  0  0  0  0  0  0  0  0  0  0
  1  2  1  0
  1  4  1  0
  1  8  1  0
  2  3  2  0
  5  6  2  3
  5  9  1  0
  5 10  1  0
  6  7  1  0
M  RAD  1   7   2
M  END
>  <reaction>  (15) 
rmg_rxn_1538

>  <mol_properties>  (15) 
{"0": {"label": "*3", "atom_type": "N3d"}, "1": {"label": "*4", "atom_type": "N3d"}, "4": {"label": "*1", "atom_type": "Cs"}, "5": {"label": "*0", "atom_type": "N3d"}, "7": {"label": "*2", "atom_type": "H0"}}

>  <type>  (15) 
unop_11

>  <geom_source>  (15) 
Heuristics

$$$$

     RDKit          3D

 10  8  0  0  0  0  0  0  0  0999 V2000
   -0.4765    0.6762    1.1645 N   0  0  0  0  0  0  0  0  0  0  0  0
   -1.5250   -0.0464    0.8153 N   0  0  0  0  0  0  0  0  0  0  0  0
   -2.5611    0.3058    1.3186 O   0  0  0  0  0  0  0  0  0  0  0  0
   -0.5943    1.4509    1.8062 H   0  0  0  0  0  0  0  0  0  0  0  0
    1.5497    0.5392   -0.3178 C   0  0  0  0  0  0  0  0  0  0  0  0
    1.5497   -0.8065   -0.9146 N   0  0  0  0  0  0  0  0  0  0  0  0
    1.5497   -0.8065   -2.1077 O   0  0  0  0  0  1  0  0  0  0  0  0
    0.4936    0.6106    0.4548 H   0  0  0  0  0  0  0  0  0  0  0  0
    1.5496    1.3197   -1.0796 H   0  0  0  0  0  0  0  0  0  0  0  0
    2.4297    0.5987    0.3260 H   0  0  0  0  0  0  0  0  0  0  0  0
  1  2  1  0
  1  4  1  0
  1  8  1  0
  2  3  2  0
  5  6  2  3
  5  9  1  0
  5 10  1  0
  6  7  1  0
M  RAD  1   7   2
M  END
>  <reaction>  (16) 
rmg_rxn_1538

>  <mol_properties>  (16) 
{"0": {"label": "*3", "atom_type": "N3d"}, "1": {"label": "*4", "atom_type": "N3d"}, "4": {"label": "*1", "atom_type": "Cs"}, "5": {"label": "*0", "atom_type": "N3d"}, "7": {"label": "*2", "atom_type": "H0"}}

>  <type>  (16) 
unop_12

>  <geom_source>  (16) 
Heuristics

$$$$

     RDKit          3D

 10  8  0  0  0  0  0  0  0  0999 V2000
   -0.8865    0.7095    0.6364 N   0  0  0  0  0  0  0  0  0  0  0  0
   -0.9628   -0.1574    1.6295 N   0  0  0  0  0  0  0  0  0  0  0  0
   -1.4981    0.2684    2.6208 O   0  0  0  0  0  0  0  0  0  0  0  0
   -1.2643    1.6415    0.7561 H   0  0  0  0  0  0  0  0  0  0  0  0
    1.1397    0.5725   -0.8459 C   0  0  0  0  0  0  0  0  0  0  0  0
    1.1397   -0.7733   -1.4427 N   0  0  0  0  0  0  0  0  0  0  0  0
    1.1397   -0.7733   -2.6358 O   0  0  0  0  0  1  0  0  0  0  0  0
    0.0836    0.6439   -0.0733 H   0  0  0  0  0  0  0  0  0  0  0  0
    1.1397    1.3530   -1.6077 H   0  0  0  0  0  0  0  0  0  0  0  0
    2.0197    0.6320   -0.2021 H   0  0  0  0  0  0  0  0  0  0  0  0
  1  2  1  0
  1  4  1  0
  1  8  1  0
  2  3  2  0
  5  6  2  3
  5  9  1  0
  5 10  1  0
  6  7  1  0
M  RAD  1   7   2
M  END
>  <reaction>  (17) 
rmg_rxn_1538

>  <mol_properties>  (17) 
{"0": {"label": "*3", "atom_type": "N3d"}, "1": {"label": "*4", "atom_type": "N3d"}, "4": {"label": "*1", "atom_type": "Cs"}, "5": {"label": "*0", "atom_type": "N3d"}, "7": {"label": "*2", "atom_type": "H0"}}

>  <type>  (17) 
unop_13

>  <geom_source>  (17) 
Heuristics

$$$$

     RDKit          3D

 10  8  0  0  0  0  0  0  0  0999 V2000
   -0.7498    0.0805    0.8896 N   0  0  0  0  0  0  0  0  0  0  0  0
   -1.3030    1.2699    1.0408 N   0  0  0  0  0  0  0  0  0  0  0  0
   -1.7385    1.4787    2.1442 O   0  0  0  0  0  0  0  0  0  0  0  0
   -0.7228   -0.5616    1.6724 H   0  0  0  0  0  0  0  0  0  0  0  0
    1.2763   -0.0565   -0.5927 C   0  0  0  0  0  0  0  0  0  0  0  0
    1.2763   -1.4023   -1.1895 N   0  0  0  0  0  0  0  0  0  0  0  0
    1.2763   -1.4023   -2.3827 O   0  0  0  0  0  1  0  0  0  0  0  0
    0.2203    0.0149    0.1798 H   0  0  0  0  0  0  0  0  0  0  0  0
    1.2763    0.7240   -1.3545 H   0  0  0  0  0  0  0  0  0  0  0  0
    2.1563    0.0030    0.0511 H   0  0  0  0  0  0  0  0  0  0  0  0
  1  2  1  0
  1  4  1  0
  1  8  1  0
  2  3  2  0
  5  6  2  3
  5  9  1  0
  5 10  1  0
  6  7  1  0
M  RAD  1   7   2
M  END
>  <reaction>  (18) 
rmg_rxn_1538

>  <mol_properties>  (18) 
{"0": {"label": "*3", "atom_type": "N3d"}, "1": {"label": "*4", "atom_type": "N3d"}, "4": {"label": "*1", "atom_type": "Cs"}, "5": {"label": "*0", "atom_type": "N3d"}, "7": {"label": "*2", "atom_type": "H0"}}

>  <type>  (18) 
unop_14

>  <geom_source>  (18) 
Heuristics

$$$$

     RDKit          3D

 10  8  0  0  0  0  0  0  0  0999 V2000
   -0.5823    0.8335    0.9887 N   0  0  0  0  0  0  0  0  0  0  0  0
   -1.3516   -0.2377    1.0534 N   0  0  0  0  0  0  0  0  0  0  0  0
   -2.3077   -0.1199    1.7765 O   0  0  0  0  0  0  0  0  0  0  0  0
   -0.8261    1.6573    1.5251 H   0  0  0  0  0  0  0  0  0  0  0  0
    1.4438    0.6965   -0.4936 C   0  0  0  0  0  0  0  0  0  0  0  0
    1.4438   -0.6493   -1.0904 N   0  0  0  0  0  0  0  0  0  0  0  0
    1.4438   -0.6493   -2.2835 O   0  0  0  0  0  1  0  0  0  0  0  0
    0.3878    0.7679    0.2790 H   0  0  0  0  0  0  0  0  0  0  0  0
    1.4438    1.4770   -1.2554 H   0  0  0  0  0  0  0  0  0  0  0  0
    2.3238    0.7560    0.1502 H   0  0  0  0  0  0  0  0  0  0  0  0
  1  2  1  0
  1  4  1  0
  1  8  1  0
  2  3  2  0
  5  6  2  3
  5  9  1  0
  5 10  1  0
  6  7  1  0
M  RAD  1   7   2
M  END
>  <reaction>  (19) 
rmg_rxn_1538

>  <mol_properties>  (19) 
{"0": {"label": "*3", "atom_type": "N3d"}, "1": {"label": "*4", "atom_type": "N3d"}, "4": {"label": "*1", "atom_type": "Cs"}, "5": {"label": "*0", "atom_type": "N3d"}, "7": {"label": "*2", "atom_type": "H0"}}

>  <type>  (19) 
unop_15

>  <geom_source>  (19) 
Heuristics

$$$$

     RDKit          3D

 10  8  0  0  0  0  0  0  0  0999 V2000
   -0.7421    0.8442    0.7859 N   0  0  0  0  0  0  0  0  0  0  0  0
   -1.1556   -0.2799    1.3418 N   0  0  0  0  0  0  0  0  0  0  0  0
   -1.8761   -0.1272    2.2949 O   0  0  0  0  0  0  0  0  0  0  0  0
   -1.0390    1.7320    1.1724 H   0  0  0  0  0  0  0  0  0  0  0  0
    1.2840    0.7072   -0.6965 C   0  0  0  0  0  0  0  0  0  0  0  0
    1.2840   -0.6386   -1.2933 N   0  0  0  0  0  0  0  0  0  0  0  0
    1.2840   -0.6386   -2.4864 O   0  0  0  0  0  1  0  0  0  0  0  0
    0.2280    0.7786    0.0761 H   0  0  0  0  0  0  0  0  0  0  0  0
    1.2840    1.4876   -1.4582 H   0  0  0  0  0  0  0  0  0  0  0  0
    2.1640    0.7667   -0.0527 H   0  0  0  0  0  0  0  0  0  0  0  0
  1  2  1  0
  1  4  1  0
  1  8  1  0
  2  3  2  0
  5  6  2  3
  5  9  1  0
  5 10  1  0
  6  7  1  0
M  RAD  1   7   2
M  END
>  <reaction>  (20) 
rmg_rxn_1538

>  <mol_properties>  (20) 
{"0": {"label": "*3", "atom_type": "N3d"}, "1": {"label": "*4", "atom_type": "N3d"}, "4": {"label": "*1", "atom_type": "Cs"}, "5": {"label": "*0", "atom_type": "N3d"}, "7": {"label": "*2", "atom_type": "H0"}}

>  <type>  (20) 
unop_16

>  <geom_source>  (20) 
gaussian_log

$$$$
