
     RDKit          3D

  9  8  0  0  0  0  0  0  0  0999 V2000
   -0.8818   -0.3578    0.1297 C   0  0  0  0  0  0  0  0  0  0  0  0
    0.6153   -0.3021   -0.1188 C   0  0  0  0  0  0  0  0  0  0  0  0
    1.5354   -1.7170    0.5545 S   0  0  0  0  0  0  0  0  0  0  0  0
   -1.1018   -0.3317    1.1984 H   0  0  0  0  0  0  0  0  0  0  0  0
   -1.3114   -1.2723   -0.2799 H   0  0  0  0  0  0  0  0  0  0  0  0
   -1.3767    0.4976   -0.3363 H   0  0  0  0  0  0  0  0  0  0  0  0
    1.0467    0.6194    0.2718 H   0  0  0  0  0  0  0  0  0  0  0  0
    0.8295   -0.3275   -1.1882 H   0  0  0  0  0  0  0  0  0  0  0  0
    1.2306   -1.5077    1.8423 H   0  0  0  0  0  0  0  0  0  0  0  0
  1  2  1  0
  1  4  1  0
  1  5  1  0
  1  6  1  0
  2  3  1  0
  2  7  1  0
  2  8  1  0
  3  9  1  0
M  END
>  <reaction>  (1) 
rmg_rxn_40

>  <mol_properties>  (1) 
{"2": {"label": "donator", "atom_type": "S2s"}, "8": {"label": "d_hydrogen", "atom_type": "H0"}}

>  <type>  (1) 
r1h

$$$$

     RDKit          3D

 13 13  0  0  0  0  0  0  0  0999 V2000
    0.5794    1.5990    0.2108 C   0  0  0  0  0  3  0  0  0  0  0  0
    1.4528    0.6621   -0.2496 O   0  0  0  0  0  0  0  0  0  0  0  0
    1.0751   -0.6763    0.0423 C   0  0  0  0  0  0  0  0  0  0  0  0
   -0.3579   -0.9282   -0.3924 C   0  0  0  0  0  0  0  0  0  0  0  0
   -1.2426    0.1393    0.2269 C   0  0  0  0  0  0  0  0  0  0  0  0
   -0.7410    1.4341   -0.0749 O   0  0  0  0  0  0  0  0  0  0  0  0
    0.9183    2.6078    0.0084 H   0  0  0  0  0  0  0  0  0  0  0  0
    1.1839   -0.8508    1.1199 H   0  0  0  0  0  0  0  0  0  0  0  0
    1.7816   -1.3130   -0.4874 H   0  0  0  0  0  0  0  0  0  0  0  0
   -0.6818   -1.9210   -0.0736 H   0  0  0  0  0  0  0  0  0  0  0  0
   -0.4271   -0.8785   -1.4810 H   0  0  0  0  0  0  0  0  0  0  0  0
   -1.2832    0.0173    1.3164 H   0  0  0  0  0  0  0  0  0  0  0  0
   -2.2575    0.1083   -0.1657 H   0  0  0  0  0  0  0  0  0  0  0  0
  1  2  1  0
  1  6  1  0
  1  7  1  0
  2  3  1  0
  3  4  1  0
  3  8  1  0
  3  9  1  0
  4  5  1  0
  4 10  1  0
  4 11  1  0
  5  6  1  0
  5 12  1  0
  5 13  1  0
M  RAD  1   1   2
M  END
>  <reaction>  (2) 
rmg_rxn_40

>  <mol_properties>  (2) 
{"0": {"label": "acceptor", "atom_type": "Cs"}}

>  <type>  (2) 
r2

$$$$

     RDKit          3D

 14 14  0  0  0  0  0  0  0  0999 V2000
   -1.1778    0.2241    0.1818 C   0  0  0  0  0  0  0  0  0  0  0  0
   -0.5633   -1.1636    0.0678 C   0  0  0  0  0  0  0  0  0  0  0  0
    0.6943   -1.1996    0.7146 O   0  0  0  0  0  0  0  0  0  0  0  0
    1.5547   -0.2288    0.2011 C   0  0  0  0  0  0  0  0  0  0  0  0
    1.0729    1.0696    0.3698 O   0  0  0  0  0  0  0  0  0  0  0  0
   -0.1607    1.2493   -0.2989 C   0  0  0  0  0  0  0  0  0  0  0  0
   -2.0927    0.2866   -0.4117 H   0  0  0  0  0  0  0  0  0  0  0  0
   -1.4303    0.4248    1.2248 H   0  0  0  0  0  0  0  0  0  0  0  0
   -1.1822   -1.9235    0.5431 H   0  0  0  0  0  0  0  0  0  0  0  0
   -0.4389   -1.4347   -0.9919 H   0  0  0  0  0  0  0  0  0  0  0  0
    1.7250   -0.4207   -0.8742 H   0  0  0  0  0  0  0  0  0  0  0  0
    2.4896   -0.3010    0.7524 H   0  0  0  0  0  0  0  0  0  0  0  0
   -0.0080    1.1481   -1.3844 H   0  0  0  0  0  0  0  0  0  0  0  0
   -0.4826    2.2695   -0.0942 H   0  0  0  0  0  0  0  0  0  0  0  0
  1  2  1  0
  1  6  1  0
  1  7  1  0
  1  8  1  0
  2  3  1  0
  2  9  1  0
  2 10  1  0
  3  4  1  0
  4  5  1  0
  4 11  1  0
  4 12  1  0
  5  6  1  0
  6 13  1  0
  6 14  1  0
M  END
>  <reaction>  (3) 
rmg_rxn_40

>  <mol_properties>  (3) 
{"0": {"label": "a_hydrogen", "atom_type": "H0"}, "1": {"label": "acceptor", "atom_type": "Cs"}}

>  <type>  (3) 
r2h

$$$$

     RDKit          3D

 22 21  0  0  0  0  0  0  0  0999 V2000
   -1.9928   -1.3595   -0.7140 C   0  0  0  0  0  0  0  0  0  0  0  0
   -1.3258   -2.1916    0.3688 C   0  0  0  0  0  0  0  0  0  0  0  0
   -1.1852   -1.3452    1.9678 S   0  0  0  0  0  0  0  0  0  0  0  0
   -1.4246   -0.4476   -0.9024 H   0  0  0  0  0  0  0  0  0  0  0  0
   -3.0008   -1.0683   -0.4160 H   0  0  0  0  0  0  0  0  0  0  0  0
   -2.0568   -1.9258   -1.6473 H   0  0  0  0  0  0  0  0  0  0  0  0
   -0.3285   -2.5048    0.0597 H   0  0  0  0  0  0  0  0  0  0  0  0
   -1.9006   -3.0972    0.5717 H   0  0  0  0  0  0  0  0  0  0  0  0
   -0.1453   -0.4002    1.4981 H   0  0  0  0  0  0  0  0  0  0  0  0
    0.9259    0.3962    0.8024 C   0  0  0  0  0  3  0  0  0  0  0  0
    1.4823   -0.5092   -0.0483 O   0  0  0  0  0  0  0  0  0  0  0  0
    2.2680    0.0577   -1.0966 C   0  0  0  0  0  0  0  0  0  0  0  0
    1.4819    1.1344   -1.8194 C   0  0  0  0  0  0  0  0  0  0  0  0
    0.9647    2.1207   -0.7899 C   0  0  0  0  0  0  0  0  0  0  0  0
    0.2516    1.4325    0.2376 O   0  0  0  0  0  0  0  0  0  0  0  0
    1.5614    0.6709    1.6546 H   0  0  0  0  0  0  0  0  0  0  0  0
    3.1888    0.4746   -0.6678 H   0  0  0  0  0  0  0  0  0  0  0  0
    2.5350   -0.7696   -1.7509 H   0  0  0  0  0  0  0  0  0  0  0  0
    2.1174    1.6434   -2.5469 H   0  0  0  0  0  0  0  0  0  0  0  0
    0.6425    0.6833   -2.3521 H   0  0  0  0  0  0  0  0  0  0  0  0
    0.2609    2.8328   -1.2159 H   0  0  0  0  0  0  0  0  0  0  0  0
    1.7958    2.6785   -0.3384 H   0  0  0  0  0  0  0  0  0  0  0  0
  1  2  1  0
  1  4  1  0
  1  5  1  0
  1  6  1  0
  2  3  1  0
  2  7  1  0
  2  8  1  0
  3  9  1  0
 10 11  1  0
 10 15  1  0
 10 16  1  0
 11 12  1  0
 12 13  1  0
 12 17  1  0
 12 18  1  0
 13 14  1  0
 13 19  1  0
 13 20  1  0
 14 15  1  0
 14 21  1  0
 14 22  1  0
M  RAD  1  10   2
M  END
>  <reaction>  (4) 
rmg_rxn_40

>  <mol_properties>  (4) 
{"1": {"label": "*0", "atom_type": "Cs"}, "2": {"label": "*1", "atom_type": "S2s"}, "8": {"label": "*2", "atom_type": "H0"}, "9": {"label": "*3", "atom_type": "Cs"}, "10": {"label": "*4", "atom_type": "O2s"}}

>  <type>  (4) 
ts

$$$$

     RDKit          3D

 22 21  0  0  0  0  0  0  0  0999 V2000
   -1.7605   -2.5398   -1.5589 C   0  0  0  0  0  0  0  0  0  0  0  0
   -1.7605   -2.5398   -0.0403 C   0  0  0  0  0  0  0  0  0  0  0  0
   -1.7605   -0.8824    0.7047 S   0  0  0  0  0  1  0  0  0  0  0  0
   -0.8538   -2.0743   -1.9497 H   0  0  0  0  0  0  0  0  0  0  0  0
   -2.6164   -1.9885   -1.9490 H   0  0  0  0  0  0  0  0  0  0  0  0
   -1.8036   -3.5631   -1.9392 H   0  0  0  0  0  0  0  0  0  0  0  0
   -0.9172   -3.1059    0.3548 H   0  0  0  0  0  0  0  0  0  0  0  0
   -2.6681   -3.0068    0.3449 H   0  0  0  0  0  0  0  0  0  0  0  0
   -0.3507   -0.4004    0.1005 H   0  0  0  0  0  0  0  0  0  0  0  0
    0.7938   -0.0090   -0.3901 C   0  0  0  0  0  0  0  0  0  0  0  0
    0.5462    1.1209   -1.1701 O   0  0  0  0  0  0  0  0  0  0  0  0
    1.5687    2.0860   -1.0133 C   0  0  0  0  0  0  0  0  0  0  0  0
    1.7230    2.4601    0.4540 C   0  0  0  0  0  0  0  0  0  0  0  0
    1.8910    1.1849    1.2678 C   0  0  0  0  0  0  0  0  0  0  0  0
    0.8493    0.2735    0.9750 O   0  0  0  0  0  0  0  0  0  0  0  0
    1.7452   -0.4736   -0.7080 H   0  0  0  0  0  0  0  0  0  0  0  0
    2.5168    1.6826   -1.4009 H   0  0  0  0  0  0  0  0  0  0  0  0
    1.2878    2.9425   -1.6246 H   0  0  0  0  0  0  0  0  0  0  0  0
    2.5845    3.1174    0.5919 H   0  0  0  0  0  0  0  0  0  0  0  0
    0.8293    2.9898    0.7895 H   0  0  0  0  0  0  0  0  0  0  0  0
    1.8479    1.3767    2.3391 H   0  0  0  0  0  0  0  0  0  0  0  0
    2.8617    0.7181    1.0406 H   0  0  0  0  0  0  0  0  0  0  0  0
  1  2  1  0
  1  4  1  0
  1  5  1  0
  1  6  1  0
  2  3  1  0
  2  7  1  0
  2  8  1  0
  9 10  1  0
 10 11  1  0
 10 15  1  0
 10 16  1  0
 11 12  1  0
 12 13  1  0
 12 17  1  0
 12 18  1  0
 13 14  1  0
 13 19  1  0
 13 20  1  0
 14 15  1  0
 14 21  1  0
 14 22  1  0
M  RAD  1   3   2
M  END
>  <reaction>  (5) 
rmg_rxn_40

>  <mol_properties>  (5) 
{"1": {"label": "*0", "atom_type": "Cs"}, "2": {"label": "*1", "atom_type": "S2s"}, "8": {"label": "*2", "atom_type": "H0"}, "9": {"label": "*3", "atom_type": "Cs"}, "10": {"label": "*4", "atom_type": "O2s"}}

>  <type>  (5) 
unop_1

>  <geom_source>  (5) 
Heuristics

$$$$

     RDKit          3D

 22 21  0  0  0  0  0  0  0  0999 V2000
   -1.7039   -2.2541   -0.6860 C   0  0  0  0  0  0  0  0  0  0  0  0
   -1.7039   -2.2541    0.8327 C   0  0  0  0  0  0  0  0  0  0  0  0
   -1.7039   -0.5967    1.5776 S   0  0  0  0  0  1  0  0  0  0  0  0
   -0.7972   -1.7887   -1.0768 H   0  0  0  0  0  0  0  0  0  0  0  0
   -2.5598   -1.7029   -1.0761 H   0  0  0  0  0  0  0  0  0  0  0  0
   -1.7469   -3.2775   -1.0663 H   0  0  0  0  0  0  0  0  0  0  0  0
   -0.8606   -2.8202    1.2278 H   0  0  0  0  0  0  0  0  0  0  0  0
   -2.6115   -2.7211    1.2178 H   0  0  0  0  0  0  0  0  0  0  0  0
   -0.2941   -0.1147    0.9734 H   0  0  0  0  0  0  0  0  0  0  0  0
    0.8504    0.2766    0.4829 C   0  0  0  0  0  0  0  0  0  0  0  0
    1.0234   -0.3760   -0.7380 O   0  0  0  0  0  0  0  0  0  0  0  0
    1.9802    0.2866   -1.5423 C   0  0  0  0  0  0  0  0  0  0  0  0
    1.5793    1.7396   -1.7534 C   0  0  0  0  0  0  0  0  0  0  0  0
    1.3080    2.3732   -0.3963 C   0  0  0  0  0  0  0  0  0  0  0  0
    0.3913    1.5862    0.3397 O   0  0  0  0  0  0  0  0  0  0  0  0
    1.8078    0.2814    1.0357 H   0  0  0  0  0  0  0  0  0  0  0  0
    2.9669    0.2347   -1.0569 H   0  0  0  0  0  0  0  0  0  0  0  0
    2.0337   -0.2618   -2.4818 H   0  0  0  0  0  0  0  0  0  0  0  0
    2.3702    2.2818   -2.2767 H   0  0  0  0  0  0  0  0  0  0  0  0
    0.6735    1.7817   -2.3613 H   0  0  0  0  0  0  0  0  0  0  0  0
    0.8657    3.3640   -0.4905 H   0  0  0  0  0  0  0  0  0  0  0  0
    2.2474    2.4681    0.1697 H   0  0  0  0  0  0  0  0  0  0  0  0
  1  2  1  0
  1  4  1  0
  1  5  1  0
  1  6  1  0
  2  3  1  0
  2  7  1  0
  2  8  1  0
  9 10  1  0
 10 11  1  0
 10 15  1  0
 10 16  1  0
 11 12  1  0
 12 13  1  0
 12 17  1  0
 12 18  1  0
 13 14  1  0
 13 19  1  0
 13 20  1  0
 14 15  1  0
 14 21  1  0
 14 22  1  0
M  RAD  1   3   2
M  END
>  <reaction>  (6) 
rmg_rxn_40

>  <mol_properties>  (6) 
{"1": {"label": "*0", "atom_type": "Cs"}, "2": {"label": "*1", "atom_type": "S2s"}, "8": {"label": "*2", "atom_type": "H0"}, "9": {"label": "*3", "atom_type": "Cs"}, "10": {"label": "*4", "atom_type": "O2s"}}

>  <type>  (6) 
unop_2

>  <geom_source>  (6) 
Heuristics

$$$$

     RDKit          3D

 22 21  0  0  0  0  0  0  0  0999 V2000
   -2.0256   -2.2991   -1.6770 C   0  0  0  0  0  0  0  0  0  0  0  0
   -2.0256   -2.2991   -0.1583 C   0  0  0  0  0  0  0  0  0  0  0  0
   -2.0256   -0.6417    0.5867 S   0  0  0  0  0  1  0  0  0  0  0  0
   -1.1190   -1.8337   -2.0677 H   0  0  0  0  0  0  0  0  0  0  0  0
   -2.8816   -1.7479   -2.0671 H   0  0  0  0  0  0  0  0  0  0  0  0
   -2.0687   -3.3225   -2.0573 H   0  0  0  0  0  0  0  0  0  0  0  0
   -1.1824   -2.8652    0.2368 H   0  0  0  0  0  0  0  0  0  0  0  0
   -2.9332   -2.7661    0.2268 H   0  0  0  0  0  0  0  0  0  0  0  0
   -0.6159   -0.1597   -0.0176 H   0  0  0  0  0  0  0  0  0  0  0  0
    0.5286    0.2316   -0.5081 C   0  0  0  0  0  0  0  0  0  0  0  0
    0.4584    1.6153   -0.6721 O   0  0  0  0  0  0  0  0  0  0  0  0
    1.7394    2.2082   -0.5782 C   0  0  0  0  0  0  0  0  0  0  0  0
    2.3929    1.8494    0.7488 C   0  0  0  0  0  0  0  0  0  0  0  0
    2.3532    0.3374    0.9193 C   0  0  0  0  0  0  0  0  0  0  0  0
    1.0356   -0.1440    0.7362 O   0  0  0  0  0  0  0  0  0  0  0  0
    1.1581   -0.2014   -1.3072 H   0  0  0  0  0  0  0  0  0  0  0  0
    2.3668    1.8607   -1.4133 H   0  0  0  0  0  0  0  0  0  0  0  0
    1.5961    3.2827   -0.6842 H   0  0  0  0  0  0  0  0  0  0  0  0
    3.4237    2.2099    0.7766 H   0  0  0  0  0  0  0  0  0  0  0  0
    1.8416    2.3213    1.5643 H   0  0  0  0  0  0  0  0  0  0  0  0
    2.6627    0.0319    1.9178 H   0  0  0  0  0  0  0  0  0  0  0  0
    3.0238   -0.1417    0.1895 H   0  0  0  0  0  0  0  0  0  0  0  0
  1  2  1  0
  1  4  1  0
  1  5  1  0
  1  6  1  0
  2  3  1  0
  2  7  1  0
  2  8  1  0
  9 10  1  0
 10 11  1  0
 10 15  1  0
 10 16  1  0
 11 12  1  0
 12 13  1  0
 12 17  1  0
 12 18  1  0
 13 14  1  0
 13 19  1  0
 13 20  1  0
 14 15  1  0
 14 21  1  0
 14 22  1  0
M  RAD  1   3   2
M  END
>  <reaction>  (7) 
rmg_rxn_40

>  <mol_properties>  (7) 
{"1": {"label": "*0", "atom_type": "Cs"}, "2": {"label": "*1", "atom_type": "S2s"}, "8": {"label": "*2", "atom_type": "H0"}, "9": {"label": "*3", "atom_type": "Cs"}, "10": {"label": "*4", "atom_type": "O2s"}}

>  <type>  (7) 
unop_3

>  <geom_source>  (7) 
Heuristics

$$$$

     RDKit          3D

 22 21  0  0  0  0  0  0  0  0999 V2000
   -2.2498   -1.9520   -1.1197 C   0  0  0  0  0  0  0  0  0  0  0  0
   -2.2498   -1.9520    0.3989 C   0  0  0  0  0  0  0  0  0  0  0  0
   -2.2498   -0.2947    1.1439 S   0  0  0  0  0  1  0  0  0  0  0  0
   -1.3432   -1.4866   -1.5105 H   0  0  0  0  0  0  0  0  0  0  0  0
   -3.1058   -1.4008   -1.5098 H   0  0  0  0  0  0  0  0  0  0  0  0
   -2.2929   -2.9754   -1.5000 H   0  0  0  0  0  0  0  0  0  0  0  0
   -1.4066   -2.5182    0.7941 H   0  0  0  0  0  0  0  0  0  0  0  0
   -3.1574   -2.4191    0.7841 H   0  0  0  0  0  0  0  0  0  0  0  0
   -0.8401    0.1873    0.5397 H   0  0  0  0  0  0  0  0  0  0  0  0
    0.3045    0.5787    0.0491 C   0  0  0  0  0  0  0  0  0  0  0  0
    1.2795   -0.3025    0.5173 O   0  0  0  0  0  0  0  0  0  0  0  0
    2.5279    0.3463    0.6656 C   0  0  0  0  0  0  0  0  0  0  0  0
    2.9542    0.9812   -0.6504 C   0  0  0  0  0  0  0  0  0  0  0  0
    1.8164    1.8524   -1.1631 C   0  0  0  0  0  0  0  0  0  0  0  0
    0.6104    1.1139   -1.2024 O   0  0  0  0  0  0  0  0  0  0  0  0
    0.1714    1.3998    0.7772 H   0  0  0  0  0  0  0  0  0  0  0  0
    2.4505    1.1168    1.4480 H   0  0  0  0  0  0  0  0  0  0  0  0
    3.2363   -0.4099    1.0013 H   0  0  0  0  0  0  0  0  0  0  0  0
    3.8589    1.5774   -0.5113 H   0  0  0  0  0  0  0  0  0  0  0  0
    3.1680    0.1971   -1.3793 H   0  0  0  0  0  0  0  0  0  0  0  0
    1.9998    2.2073   -2.1764 H   0  0  0  0  0  0  0  0  0  0  0  0
    1.6889    2.7289   -0.5094 H   0  0  0  0  0  0  0  0  0  0  0  0
  1  2  1  0
  1  4  1  0
  1  5  1  0
  1  6  1  0
  2  3  1  0
  2  7  1  0
  2  8  1  0
  9 10  1  0
 10 11  1  0
 10 15  1  0
 10 16  1  0
 11 12  1  0
 12 13  1  0
 12 17  1  0
 12 18  1  0
 13 14  1  0
 13 19  1  0
 13 20  1  0
 14 15  1  0
 14 21  1  0
 14 22  1  0
M  RAD  1   3   2
M  END
>  <reaction>  (8) 
rmg_rxn_40

>  <mol_properties>  (8) 
{"1": {"label": "*0", "atom_type": "Cs"}, "2": {"label": "*1", "atom_type": "S2s"}, "8": {"label": "*2", "atom_type": "H0"}, "9": {"label": "*3", "atom_type": "Cs"}, "10": {"label": "*4", "atom_type": "O2s"}}

>  <type>  (8) 
unop_4

>  <geom_source>  (8) 
Heuristics

$$$$

     RDKit          3D

 22 21  0  0  0  0  0  0  0  0999 V2000
   -2.2346   -2.0882   -1.4364 C   0  0  0  0  0  0  0  0  0  0  0  0
   -2.2346   -2.0882    0.0823 C   0  0  0  0  0  0  0  0  0  0  0  0
   -2.2346   -0.4309    0.8273 S   0  0  0  0  0  1  0  0  0  0  0  0
   -1.3279   -1.6228   -1.8271 H   0  0  0  0  0  0  0  0  0  0  0  0
   -3.0905   -1.5370   -1.8265 H   0  0  0  0  0  0  0  0  0  0  0  0
   -2.2776   -3.1116   -1.8166 H   0  0  0  0  0  0  0  0  0  0  0  0
   -1.3913   -2.6544    0.4774 H   0  0  0  0  0  0  0  0  0  0  0  0
   -3.1422   -2.5553    0.4674 H   0  0  0  0  0  0  0  0  0  0  0  0
   -0.8248    0.0511    0.2230 H   0  0  0  0  0  0  0  0  0  0  0  0
    0.3197    0.4425   -0.2675 C   0  0  0  0  0  0  0  0  0  0  0  0
    0.5430    1.7425    0.1868 O   0  0  0  0  0  0  0  0  0  0  0  0
    1.7810    2.2431   -0.2803 C   0  0  0  0  0  0  0  0  0  0  0  0
    2.9165    1.3185    0.1346 C   0  0  0  0  0  0  0  0  0  0  0  0
    2.5742   -0.0998   -0.2988 C   0  0  0  0  0  0  0  0  0  0  0  0
    1.2890   -0.4608    0.1695 O   0  0  0  0  0  0  0  0  0  0  0  0
    0.2870    0.4401   -1.3725 H   0  0  0  0  0  0  0  0  0  0  0  0
    1.7502    2.3332   -1.3771 H   0  0  0  0  0  0  0  0  0  0  0  0
    1.8943    3.2414    0.1401 H   0  0  0  0  0  0  0  0  0  0  0  0
    3.8564    1.6402   -0.3196 H   0  0  0  0  0  0  0  0  0  0  0  0
    3.0312    1.3487    1.2199 H   0  0  0  0  0  0  0  0  0  0  0  0
    3.2726   -0.8299    0.1081 H   0  0  0  0  0  0  0  0  0  0  0  0
    2.5992   -0.1746   -1.3968 H   0  0  0  0  0  0  0  0  0  0  0  0
  1  2  1  0
  1  4  1  0
  1  5  1  0
  1  6  1  0
  2  3  1  0
  2  7  1  0
  2  8  1  0
  9 10  1  0
 10 11  1  0
 10 15  1  0
 10 16  1  0
 11 12  1  0
 12 13  1  0
 12 17  1  0
 12 18  1  0
 13 14  1  0
 13 19  1  0
 13 20  1  0
 14 15  1  0
 14 21  1  0
 14 22  1  0
M  RAD  1   3   2
M  END
>  <reaction>  (9) 
rmg_rxn_40

>  <mol_properties>  (9) 
{"1": {"label": "*0", "atom_type": "Cs"}, "2": {"label": "*1", "atom_type": "S2s"}, "8": {"label": "*2", "atom_type": "H0"}, "9": {"label": "*3", "atom_type": "Cs"}, "10": {"label": "*4", "atom_type": "O2s"}}

>  <type>  (9) 
unop_5

>  <geom_source>  (9) 
Heuristics

$$$$

     RDKit          3D

 22 21  0  0  0  0  0  0  0  0999 V2000
   -2.2353   -2.0908   -1.2128 C   0  0  0  0  0  0  0  0  0  0  0  0
   -2.2353   -2.0908    0.3059 C   0  0  0  0  0  0  0  0  0  0  0  0
   -2.2353   -0.4334    1.0508 S   0  0  0  0  0  1  0  0  0  0  0  0
   -1.3286   -1.6254   -1.6036 H   0  0  0  0  0  0  0  0  0  0  0  0
   -3.0912   -1.5396   -1.6029 H   0  0  0  0  0  0  0  0  0  0  0  0
   -2.2783   -3.1141   -1.5931 H   0  0  0  0  0  0  0  0  0  0  0  0
   -1.3920   -2.6569    0.7010 H   0  0  0  0  0  0  0  0  0  0  0  0
   -3.1429   -2.5578    0.6910 H   0  0  0  0  0  0  0  0  0  0  0  0
   -0.8255    0.0486    0.4466 H   0  0  0  0  0  0  0  0  0  0  0  0
    0.3190    0.4399   -0.0439 C   0  0  0  0  0  0  0  0  0  0  0  0
    1.3076    0.0820    0.8731 O   0  0  0  0  0  0  0  0  0  0  0  0
    2.3132    1.0736    0.9559 C   0  0  0  0  0  0  0  0  0  0  0  0
    2.9136    1.3347   -0.4182 C   0  0  0  0  0  0  0  0  0  0  0  0
    1.7846    1.6221   -1.3976 C   0  0  0  0  0  0  0  0  0  0  0  0
    0.8105    0.5978   -1.3401 O   0  0  0  0  0  0  0  0  0  0  0  0
   -0.1626    1.3797    0.2833 H   0  0  0  0  0  0  0  0  0  0  0  0
    1.8811    2.0017    1.3607 H   0  0  0  0  0  0  0  0  0  0  0  0
    3.0569    0.7078    1.6625 H   0  0  0  0  0  0  0  0  0  0  0  0
    3.6079    2.1770   -0.3778 H   0  0  0  0  0  0  0  0  0  0  0  0
    3.4639    0.4512   -0.7477 H   0  0  0  0  0  0  0  0  0  0  0  0
    2.1383    1.6609   -2.4270 H   0  0  0  0  0  0  0  0  0  0  0  0
    1.3153    2.5888   -1.1584 H   0  0  0  0  0  0  0  0  0  0  0  0
  1  2  1  0
  1  4  1  0
  1  5  1  0
  1  6  1  0
  2  3  1  0
  2  7  1  0
  2  8  1  0
  9 10  1  0
 10 11  1  0
 10 15  1  0
 10 16  1  0
 11 12  1  0
 12 13  1  0
 12 17  1  0
 12 18  1  0
 13 14  1  0
 13 19  1  0
 13 20  1  0
 14 15  1  0
 14 21  1  0
 14 22  1  0
M  RAD  1   3   2
M  END
>  <reaction>  (10) 
rmg_rxn_40

>  <mol_properties>  (10) 
{"1": {"label": "*0", "atom_type": "Cs"}, "2": {"label": "*1", "atom_type": "S2s"}, "8": {"label": "*2", "atom_type": "H0"}, "9": {"label": "*3", "atom_type": "Cs"}, "10": {"label": "*4", "atom_type": "O2s"}}

>  <type>  (10) 
unop_6

>  <geom_source>  (10) 
Heuristics

$$$$

     RDKit          3D

 22 21  0  0  0  0  0  0  0  0999 V2000
   -2.1974   -2.1740   -1.1889 C   0  0  0  0  0  0  0  0  0  0  0  0
   -2.1974   -2.1740    0.3298 C   0  0  0  0  0  0  0  0  0  0  0  0
   -2.1974   -0.5166    1.0747 S   0  0  0  0  0  1  0  0  0  0  0  0
   -1.2907   -1.7086   -1.5797 H   0  0  0  0  0  0  0  0  0  0  0  0
   -3.0533   -1.6228   -1.5790 H   0  0  0  0  0  0  0  0  0  0  0  0
   -2.2404   -3.1973   -1.5692 H   0  0  0  0  0  0  0  0  0  0  0  0
   -1.3541   -2.7401    0.7249 H   0  0  0  0  0  0  0  0  0  0  0  0
   -3.1050   -2.6410    0.7149 H   0  0  0  0  0  0  0  0  0  0  0  0
   -0.7876   -0.0346    0.4705 H   0  0  0  0  0  0  0  0  0  0  0  0
    0.3569    0.3567   -0.0200 C   0  0  0  0  0  0  0  0  0  0  0  0
    1.1915    0.6512    1.0584 O   0  0  0  0  0  0  0  0  0  0  0  0
    2.0061    1.7749    0.7841 C   0  0  0  0  0  0  0  0  0  0  0  0
    2.8155    1.5451   -0.4842 C   0  0  0  0  0  0  0  0  0  0  0  0
    1.8670    1.1315   -1.6004 C   0  0  0  0  0  0  0  0  0  0  0  0
    1.0606    0.0462   -1.1840 O   0  0  0  0  0  0  0  0  0  0  0  0
   -0.3111    1.2162   -0.2130 H   0  0  0  0  0  0  0  0  0  0  0  0
    1.3730    2.6682    0.6703 H   0  0  0  0  0  0  0  0  0  0  0  0
    2.6449    1.9190    1.6544 H   0  0  0  0  0  0  0  0  0  0  0  0
    3.3580    2.4520   -0.7606 H   0  0  0  0  0  0  0  0  0  0  0  0
    3.5423    0.7489   -0.3118 H   0  0  0  0  0  0  0  0  0  0  0  0
    2.4030    0.8010   -2.4890 H   0  0  0  0  0  0  0  0  0  0  0  0
    1.2240    1.9795   -1.8819 H   0  0  0  0  0  0  0  0  0  0  0  0
  1  2  1  0
  1  4  1  0
  1  5  1  0
  1  6  1  0
  2  3  1  0
  2  7  1  0
  2  8  1  0
  9 10  1  0
 10 11  1  0
 10 15  1  0
 10 16  1  0
 11 12  1  0
 12 13  1  0
 12 17  1  0
 12 18  1  0
 13 14  1  0
 13 19  1  0
 13 20  1  0
 14 15  1  0
 14 21  1  0
 14 22  1  0
M  RAD  1   3   2
M  END
>  <reaction>  (11) 
rmg_rxn_40

>  <mol_properties>  (11) 
{"1": {"label": "*0", "atom_type": "Cs"}, "2": {"label": "*1", "atom_type": "S2s"}, "8": {"label": "*2", "atom_type": "H0"}, "9": {"label": "*3", "atom_type": "Cs"}, "10": {"label": "*4", "atom_type": "O2s"}}

>  <type>  (11) 
unop_7

>  <geom_source>  (11) 
Heuristics

$$$$

     RDKit          3D

 22 21  0  0  0  0  0  0  0  0999 V2000
   -1.5939   -2.6146   -1.2434 C   0  0  0  0  0  0  0  0  0  0  0  0
   -1.5939   -2.6146    0.2753 C   0  0  0  0  0  0  0  0  0  0  0  0
   -1.5939   -0.9573    1.0203 S   0  0  0  0  0  1  0  0  0  0  0  0
   -0.6873   -2.1492   -1.6341 H   0  0  0  0  0  0  0  0  0  0  0  0
   -2.4499   -2.0634   -1.6335 H   0  0  0  0  0  0  0  0  0  0  0  0
   -1.6370   -3.6380   -1.6236 H   0  0  0  0  0  0  0  0  0  0  0  0
   -0.7507   -3.1808    0.6704 H   0  0  0  0  0  0  0  0  0  0  0  0
   -2.5015   -3.0817    0.6604 H   0  0  0  0  0  0  0  0  0  0  0  0
   -0.1842   -0.4753    0.4161 H   0  0  0  0  0  0  0  0  0  0  0  0
    0.9604   -0.0839   -0.0745 C   0  0  0  0  0  0  0  0  0  0  0  0
    0.6993    0.5227   -1.3034 O   0  0  0  0  0  0  0  0  0  0  0  0
    1.5047    1.6708   -1.4895 C   0  0  0  0  0  0  0  0  0  0  0  0
    1.3012    2.6517   -0.3436 C   0  0  0  0  0  0  0  0  0  0  0  0
    1.5014    1.9134    0.9722 C   0  0  0  0  0  0  0  0  0  0  0  0
    0.6962    0.7509    1.0116 O   0  0  0  0  0  0  0  0  0  0  0  0
    2.0172   -0.4066   -0.0413 H   0  0  0  0  0  0  0  0  0  0  0  0
    2.5626    1.3718   -1.5461 H   0  0  0  0  0  0  0  0  0  0  0  0
    1.2207    2.1008   -2.4491 H   0  0  0  0  0  0  0  0  0  0  0  0
    2.0032    3.4847   -0.4248 H   0  0  0  0  0  0  0  0  0  0  0  0
    0.2864    3.0522   -0.3844 H   0  0  0  0  0  0  0  0  0  0  0  0
    1.2150    2.5224    1.8286 H   0  0  0  0  0  0  0  0  0  0  0  0
    2.5591    1.6315    1.0888 H   0  0  0  0  0  0  0  0  0  0  0  0
  1  2  1  0
  1  4  1  0
  1  5  1  0
  1  6  1  0
  2  3  1  0
  2  7  1  0
  2  8  1  0
  9 10  1  0
 10 11  1  0
 10 15  1  0
 10 16  1  0
 11 12  1  0
 12 13  1  0
 12 17  1  0
 12 18  1  0
 13 14  1  0
 13 19  1  0
 13 20  1  0
 14 15  1  0
 14 21  1  0
 14 22  1  0
M  RAD  1   3   2
M  END
>  <reaction>  (12) 
rmg_rxn_40

>  <mol_properties>  (12) 
{"1": {"label": "*0", "atom_type": "Cs"}, "2": {"label": "*1", "atom_type": "S2s"}, "8": {"label": "*2", "atom_type": "H0"}, "9": {"label": "*3", "atom_type": "Cs"}, "10": {"label": "*4", "atom_type": "O2s"}}

>  <type>  (12) 
unop_8

>  <geom_source>  (12) 
Heuristics

$$$$

     RDKit          3D

 22 21  0  0  0  0  0  0  0  0999 V2000
   -2.1626   -1.8855   -0.9031 C   0  0  0  0  0  0  0  0  0  0  0  0
   -2.1626   -1.8855    0.6156 C   0  0  0  0  0  0  0  0  0  0  0  0
   -2.1626   -0.2281    1.3606 S   0  0  0  0  0  1  0  0  0  0  0  0
   -1.2559   -1.4201   -1.2938 H   0  0  0  0  0  0  0  0  0  0  0  0
   -3.0185   -1.3343   -1.2932 H   0  0  0  0  0  0  0  0  0  0  0  0
   -2.2056   -2.9088   -1.2834 H   0  0  0  0  0  0  0  0  0  0  0  0
   -1.3193   -2.4516    1.0107 H   0  0  0  0  0  0  0  0  0  0  0  0
   -3.0702   -2.3525    1.0007 H   0  0  0  0  0  0  0  0  0  0  0  0
   -0.7528    0.2539    0.7563 H   0  0  0  0  0  0  0  0  0  0  0  0
    0.3917    0.6452    0.2658 C   0  0  0  0  0  0  0  0  0  0  0  0
    1.1895   -0.4897    0.1179 O   0  0  0  0  0  0  0  0  0  0  0  0
    2.5534   -0.1424   -0.0251 C   0  0  0  0  0  0  0  0  0  0  0  0
    2.7372    0.8094   -1.1985 C   0  0  0  0  0  0  0  0  0  0  0  0
    1.7742    1.9767   -1.0357 C   0  0  0  0  0  0  0  0  0  0  0  0
    0.4567    1.5031   -0.8325 O   0  0  0  0  0  0  0  0  0  0  0  0
    0.6960    1.1918    1.1773 H   0  0  0  0  0  0  0  0  0  0  0  0
    2.9111    0.3301    0.9027 H   0  0  0  0  0  0  0  0  0  0  0  0
    3.1009   -1.0733   -0.1660 H   0  0  0  0  0  0  0  0  0  0  0  0
    3.7681    1.1679   -1.2416 H   0  0  0  0  0  0  0  0  0  0  0  0
    2.5168    0.2841   -2.1299 H   0  0  0  0  0  0  0  0  0  0  0  0
    1.7468    2.6089   -1.9222 H   0  0  0  0  0  0  0  0  0  0  0  0
    2.0770    2.5982   -0.1791 H   0  0  0  0  0  0  0  0  0  0  0  0
  1  2  1  0
  1  4  1  0
  1  5  1  0
  1  6  1  0
  2  3  1  0
  2  7  1  0
  2  8  1  0
  9 10  1  0
 10 11  1  0
 10 15  1  0
 10 16  1  0
 11 12  1  0
 12 13  1  0
 12 17  1  0
 12 18  1  0
 13 14  1  0
 13 19  1  0
 13 20  1  0
 14 15  1  0
 14 21  1  0
 14 22  1  0
M  RAD  1   3   2
M  END
>  <reaction>  (13) 
rmg_rxn_40

>  <mol_properties>  (13) 
{"1": {"label": "*0", "atom_type": "Cs"}, "2": {"label": "*1", "atom_type": "S2s"}, "8": {"label": "*2", "atom_type": "H0"}, "9": {"label": "*3", "atom_type": "Cs"}, "10": {"label": "*4", "atom_type": "O2s"}}

>  <type>  (13) 
unop_9

>  <geom_source>  (13) 
Heuristics

$$$$

     RDKit          3D

 22 21  0  0  0  0  0  0  0  0999 V2000
   -1.5692   -2.5017   -0.9049 C   0  0  0  0  0  0  0  0  0  0  0  0
   -1.5692   -2.5017    0.6137 C   0  0  0  0  0  0  0  0  0  0  0  0
   -1.5692   -0.8443    1.3587 S   0  0  0  0  0  1  0  0  0  0  0  0
   -0.6626   -2.0363   -1.2957 H   0  0  0  0  0  0  0  0  0  0  0  0
   -2.4252   -1.9505   -1.2950 H   0  0  0  0  0  0  0  0  0  0  0  0
   -1.6123   -3.5251   -1.2852 H   0  0  0  0  0  0  0  0  0  0  0  0
   -0.7260   -3.0678    1.0089 H   0  0  0  0  0  0  0  0  0  0  0  0
   -2.4768   -2.9687    0.9989 H   0  0  0  0  0  0  0  0  0  0  0  0
   -0.1595   -0.3623    0.7545 H   0  0  0  0  0  0  0  0  0  0  0  0
    0.9850    0.0290    0.2639 C   0  0  0  0  0  0  0  0  0  0  0  0
    0.8779   -0.0168   -1.1263 O   0  0  0  0  0  0  0  0  0  0  0  0
    1.6496    1.0017   -1.7336 C   0  0  0  0  0  0  0  0  0  0  0  0
    1.2385    2.3666   -1.2002 C   0  0  0  0  0  0  0  0  0  0  0  0
    1.2788    2.3287    0.3208 C   0  0  0  0  0  0  0  0  0  0  0  0
    0.5292    1.2312    0.8057 O   0  0  0  0  0  0  0  0  0  0  0  0
    2.0393   -0.1293    0.5565 H   0  0  0  0  0  0  0  0  0  0  0  0
    2.7168    0.8238   -1.5309 H   0  0  0  0  0  0  0  0  0  0  0  0
    1.4886    0.9187   -2.8076 H   0  0  0  0  0  0  0  0  0  0  0  0
    1.9068    3.1424   -1.5807 H   0  0  0  0  0  0  0  0  0  0  0  0
    0.2234    2.5950   -1.5309 H   0  0  0  0  0  0  0  0  0  0  0  0
    0.8443    3.2245    0.7623 H   0  0  0  0  0  0  0  0  0  0  0  0
    2.3200    2.2441    0.6681 H   0  0  0  0  0  0  0  0  0  0  0  0
  1  2  1  0
  1  4  1  0
  1  5  1  0
  1  6  1  0
  2  3  1  0
  2  7  1  0
  2  8  1  0
  9 10  1  0
 10 11  1  0
 10 15  1  0
 10 16  1  0
 11 12  1  0
 12 13  1  0
 12 17  1  0
 12 18  1  0
 13 14  1  0
 13 19  1  0
 13 20  1  0
 14 15  1  0
 14 21  1  0
 14 22  1  0
M  RAD  1   3   2
M  END
>  <reaction>  (14) 
rmg_rxn_40

>  <mol_properties>  (14) 
{"1": {"label": "*0", "atom_type": "Cs"}, "2": {"label": "*1", "atom_type": "S2s"}, "8": {"label": "*2", "atom_type": "H0"}, "9": {"label": "*3", "atom_type": "Cs"}, "10": {"label": "*4", "atom_type": "O2s"}}

>  <type>  (14) 
unop_10

>  <geom_source>  (14) 
Heuristics

$$$$

     RDKit          3D

 22 21  0  0  0  0  0  0  0  0999 V2000
   -2.2160   -2.1314   -1.1876 C   0  0  0  0  0  0  0  0  0  0  0  0
   -2.2160   -2.1314    0.3310 C   0  0  0  0  0  0  0  0  0  0  0  0
   -2.2160   -0.4741    1.0760 S   0  0  0  0  0  1  0  0  0  0  0  0
   -1.3093   -1.6660   -1.5784 H   0  0  0  0  0  0  0  0  0  0  0  0
   -3.0719   -1.5802   -1.5777 H   0  0  0  0  0  0  0  0  0  0  0  0
   -2.2590   -3.1548   -1.5679 H   0  0  0  0  0  0  0  0  0  0  0  0
   -1.3727   -2.6975    0.7262 H   0  0  0  0  0  0  0  0  0  0  0  0
   -3.1236   -2.5985    0.7162 H   0  0  0  0  0  0  0  0  0  0  0  0
   -0.8062    0.0080    0.4718 H   0  0  0  0  0  0  0  0  0  0  0  0
    0.3383    0.3993   -0.0188 C   0  0  0  0  0  0  0  0  0  0  0  0
    0.8929    1.3007    0.8903 O   0  0  0  0  0  0  0  0  0  0  0  0
    1.7762    2.1993    0.2471 C   0  0  0  0  0  0  0  0  0  0  0  0
    2.8636    1.4339   -0.4934 C   0  0  0  0  0  0  0  0  0  0  0  0
    2.2049    0.3995   -1.3949 C   0  0  0  0  0  0  0  0  0  0  0  0
    1.2961   -0.3918   -0.6538 O   0  0  0  0  0  0  0  0  0  0  0  0
   -0.2422    0.9542   -0.7785 H   0  0  0  0  0  0  0  0  0  0  0  0
    1.2110    2.8277   -0.4583 H   0  0  0  0  0  0  0  0  0  0  0  0
    2.1877    2.8436    1.0227 H   0  0  0  0  0  0  0  0  0  0  0  0
    3.4784    2.1180   -1.0827 H   0  0  0  0  0  0  0  0  0  0  0  0
    3.5076    0.9284    0.2288 H   0  0  0  0  0  0  0  0  0  0  0  0
    2.9327   -0.2837   -1.8305 H   0  0  0  0  0  0  0  0  0  0  0  0
    1.6699    0.9014   -2.2158 H   0  0  0  0  0  0  0  0  0  0  0  0
  1  2  1  0
  1  4  1  0
  1  5  1  0
  1  6  1  0
  2  3  1  0
  2  7  1  0
  2  8  1  0
  9 10  1  0
 10 11  1  0
 10 15  1  0
 10 16  1  0
 11 12  1  0
 12 13  1  0
 12 17  1  0
 12 18  1  0
 13 14  1  0
 13 19  1  0
 13 20  1  0
 14 15  1  0
 14 21  1  0
 14 22  1  0
M  RAD  1   3   2
M  END
>  <reaction>  (15) 
rmg_rxn_40

>  <mol_properties>  (15) 
{"1": {"label": "*0", "atom_type": "Cs"}, "2": {"label": "*1", "atom_type": "S2s"}, "8": {"label": "*2", "atom_type": "H0"}, "9": {"label": "*3", "atom_type": "Cs"}, "10": {"label": "*4", "atom_type": "O2s"}}

>  <type>  (15) 
unop_11

>  <geom_source>  (15) 
Heuristics

$$$$

     RDKit          3D

 22 21  0  0  0  0  0  0  0  0999 V2000
   -1.9485   -1.9972   -0.6962 C   0  0  0  0  0  0  0  0  0  0  0  0
   -1.9485   -1.9972    0.8225 C   0  0  0  0  0  0  0  0  0  0  0  0
   -1.9485   -0.3398    1.5675 S   0  0  0  0  0  1  0  0  0  0  0  0
   -1.0418   -1.5318   -1.0869 H   0  0  0  0  0  0  0  0  0  0  0  0
   -2.8044   -1.4460   -1.0863 H   0  0  0  0  0  0  0  0  0  0  0  0
   -1.9915   -3.0206   -1.0765 H   0  0  0  0  0  0  0  0  0  0  0  0
   -1.1052   -2.5633    1.2176 H   0  0  0  0  0  0  0  0  0  0  0  0
   -2.8561   -2.4642    1.2076 H   0  0  0  0  0  0  0  0  0  0  0  0
   -0.5387    0.1422    0.9632 H   0  0  0  0  0  0  0  0  0  0  0  0
    0.6058    0.5335    0.4727 C   0  0  0  0  0  0  0  0  0  0  0  0
    1.1100   -0.5178   -0.2935 O   0  0  0  0  0  0  0  0  0  0  0  0
    2.3468   -0.1722   -0.8870 C   0  0  0  0  0  0  0  0  0  0  0  0
    2.1978    1.0897   -1.7248 C   0  0  0  0  0  0  0  0  0  0  0  0
    1.5536    2.1708   -0.8686 C   0  0  0  0  0  0  0  0  0  0  0  0
    0.3641    1.6856   -0.2762 O   0  0  0  0  0  0  0  0  0  0  0  0
    1.3153    0.7673    1.2876 H   0  0  0  0  0  0  0  0  0  0  0  0
    3.1004   -0.0151   -0.1001 H   0  0  0  0  0  0  0  0  0  0  0  0
    2.6555   -1.0262   -1.4884 H   0  0  0  0  0  0  0  0  0  0  0  0
    3.1717    1.4224   -2.0909 H   0  0  0  0  0  0  0  0  0  0  0  0
    1.5600    0.8806   -2.5859 H   0  0  0  0  0  0  0  0  0  0  0  0
    1.2771    3.0450   -1.4563 H   0  0  0  0  0  0  0  0  0  0  0  0
    2.2514    2.4927   -0.0804 H   0  0  0  0  0  0  0  0  0  0  0  0
  1  2  1  0
  1  4  1  0
  1  5  1  0
  1  6  1  0
  2  3  1  0
  2  7  1  0
  2  8  1  0
  9 10  1  0
 10 11  1  0
 10 15  1  0
 10 16  1  0
 11 12  1  0
 12 13  1  0
 12 17  1  0
 12 18  1  0
 13 14  1  0
 13 19  1  0
 13 20  1  0
 14 15  1  0
 14 21  1  0
 14 22  1  0
M  RAD  1   3   2
M  END
>  <reaction>  (16) 
rmg_rxn_40

>  <mol_properties>  (16) 
{"1": {"label": "*0", "atom_type": "Cs"}, "2": {"label": "*1", "atom_type": "S2s"}, "8": {"label": "*2", "atom_type": "H0"}, "9": {"label": "*3", "atom_type": "Cs"}, "10": {"label": "*4", "atom_type": "O2s"}}

>  <type>  (16) 
unop_12

>  <geom_source>  (16) 
Heuristics

$$$$

     RDKit          3D

 22 21  0  0  0  0  0  0  0  0999 V2000
   -1.7039   -2.2541   -0.6860 C   0  0  0  0  0  0  0  0  0  0  0  0
   -1.7039   -2.2541    0.8327 C   0  0  0  0  0  0  0  0  0  0  0  0
   -1.7039   -0.5967    1.5776 S   0  0  0  0  0  1  0  0  0  0  0  0
   -0.7972   -1.7887   -1.0768 H   0  0  0  0  0  0  0  0  0  0  0  0
   -2.5598   -1.7029   -1.0761 H   0  0  0  0  0  0  0  0  0  0  0  0
   -1.7470   -3.2774   -1.0663 H   0  0  0  0  0  0  0  0  0  0  0  0
   -0.8606   -2.8202    1.2278 H   0  0  0  0  0  0  0  0  0  0  0  0
   -2.6115   -2.7211    1.2178 H   0  0  0  0  0  0  0  0  0  0  0  0
   -0.2941   -0.1147    0.9734 H   0  0  0  0  0  0  0  0  0  0  0  0
    0.8504    0.2766    0.4829 C   0  0  0  0  0  0  0  0  0  0  0  0
    1.0234   -0.3760   -0.7380 O   0  0  0  0  0  0  0  0  0  0  0  0
    1.9802    0.2866   -1.5423 C   0  0  0  0  0  0  0  0  0  0  0  0
    1.5794    1.7396   -1.7534 C   0  0  0  0  0  0  0  0  0  0  0  0
    1.3080    2.3732   -0.3963 C   0  0  0  0  0  0  0  0  0  0  0  0
    0.3913    1.5862    0.3397 O   0  0  0  0  0  0  0  0  0  0  0  0
    1.8078    0.2814    1.0356 H   0  0  0  0  0  0  0  0  0  0  0  0
    2.9669    0.2347   -1.0569 H   0  0  0  0  0  0  0  0  0  0  0  0
    2.0337   -0.2618   -2.4818 H   0  0  0  0  0  0  0  0  0  0  0  0
    2.3702    2.2818   -2.2767 H   0  0  0  0  0  0  0  0  0  0  0  0
    0.6735    1.7817   -2.3613 H   0  0  0  0  0  0  0  0  0  0  0  0
    0.8657    3.3640   -0.4904 H   0  0  0  0  0  0  0  0  0  0  0  0
    2.2474    2.4681    0.1697 H   0  0  0  0  0  0  0  0  0  0  0  0
  1  2  1  0
  1  4  1  0
  1  5  1  0
  1  6  1  0
  2  3  1  0
  2  7  1  0
  2  8  1  0
  9 10  1  0
 10 11  1  0
 10 15  1  0
 10 16  1  0
 11 12  1  0
 12 13  1  0
 12 17  1  0
 12 18  1  0
 13 14  1  0
 13 19  1  0
 13 20  1  0
 14 15  1  0
 14 21  1  0
 14 22  1  0
M  RAD  1   3   2
M  END
>  <reaction>  (17) 
rmg_rxn_40

>  <mol_properties>  (17) 
{"1": {"label": "*0", "atom_type": "Cs"}, "2": {"label": "*1", "atom_type": "S2s"}, "8": {"label": "*2", "atom_type": "H0"}, "9": {"label": "*3", "atom_type": "Cs"}, "10": {"label": "*4", "atom_type": "O2s"}}

>  <type>  (17) 
unop_13

>  <geom_source>  (17) 
gaussian_log

$$$$
