
     RDKit          3D

 12 11  0  0  0  0  0  0  0  0999 V2000
    1.8075    0.1979    0.4695 C   0  0  0  0  0  0  0  0  0  0  0  0
    1.0072   -0.8859   -0.7259 S   0  0  0  0  0  0  0  0  0  0  0  0
   -0.7258   -0.6904   -0.2447 C   0  0  0  0  0  0  0  0  0  0  0  0
   -1.0856   -1.2776    1.1108 C   0  0  0  0  0  0  0  0  0  0  0  0
    1.7126   -0.1777    1.4878 H   0  0  0  0  0  0  0  0  0  0  0  0
    1.4024    1.2089    0.4095 H   0  0  0  0  0  0  0  0  0  0  0  0
    2.8647    0.2298    0.2095 H   0  0  0  0  0  0  0  0  0  0  0  0
   -1.2866   -1.1892   -1.0369 H   0  0  0  0  0  0  0  0  0  0  0  0
   -0.9814    0.3707   -0.2917 H   0  0  0  0  0  0  0  0  0  0  0  0
   -0.5492   -0.7768    1.9180 H   0  0  0  0  0  0  0  0  0  0  0  0
   -0.8418   -2.3397    1.1503 H   0  0  0  0  0  0  0  0  0  0  0  0
   -2.1545   -1.1604    1.3035 H   0  0  0  0  0  0  0  0  0  0  0  0
  1  2  1  0
  1  5  1  0
  1  6  1  0
  1  7  1  0
  2  3  1  0
  3  4  1  0
  3  8  1  0
  3  9  1  0
  4 10  1  0
  4 11  1  0
  4 12  1  0
M  END
>  <reaction>  (1) 
rmg_rxn_550

>  <mol_properties>  (1) 
{"0": {"label": "donator", "atom_type": "Cs"}, "4": {"label": "d_hydrogen", "atom_type": "H0"}}

>  <type>  (1) 
r1h

$$$$

     RDKit          3D

 10  9  0  0  0  0  0  0  0  0999 V2000
    1.4352    0.2660   -0.1351 C   0  0  0  0  0  3  0  0  0  0  0  0
    0.2236   -0.3243    0.4850 C   0  0  0  0  0  0  0  0  0  0  0  0
   -0.8893    0.6872    0.7364 C   0  0  0  0  0  0  0  0  0  0  0  0
    2.3577   -0.2958   -0.1940 H   0  0  0  0  0  0  0  0  0  0  0  0
    1.3935    1.2286   -0.6287 H   0  0  0  0  0  0  0  0  0  0  0  0
   -0.1633   -1.1318   -0.1556 H   0  0  0  0  0  0  0  0  0  0  0  0
    0.4945   -0.8215    1.4240 H   0  0  0  0  0  0  0  0  0  0  0  0
   -1.1991    1.1627   -0.1967 H   0  0  0  0  0  0  0  0  0  0  0  0
   -1.7660    0.2103    1.1768 H   0  0  0  0  0  0  0  0  0  0  0  0
   -0.5545    1.4732    1.4159 H   0  0  0  0  0  0  0  0  0  0  0  0
  1  2  1  0
  1  4  1  0
  1  5  1  0
  2  3  1  0
  2  6  1  0
  2  7  1  0
  3  8  1  0
  3  9  1  0
  3 10  1  0
M  RAD  1   1   2
M  END
>  <reaction>  (2) 
rmg_rxn_550

>  <mol_properties>  (2) 
{"0": {"label": "acceptor", "atom_type": "Cs"}}

>  <type>  (2) 
r2

$$$$

     RDKit          3D

 11 10  0  0  0  0  0  0  0  0999 V2000
   -1.2710    0.1907   -0.2084 C   0  0  0  0  0  0  0  0  0  0  0  0
    0.0202   -0.6130   -0.2928 C   0  0  0  0  0  0  0  0  0  0  0  0
    0.1086   -1.6953    0.7756 C   0  0  0  0  0  0  0  0  0  0  0  0
   -1.3607    0.6851    0.7620 H   0  0  0  0  0  0  0  0  0  0  0  0
   -2.1429   -0.4567   -0.3299 H   0  0  0  0  0  0  0  0  0  0  0  0
   -1.3158    0.9602   -0.9809 H   0  0  0  0  0  0  0  0  0  0  0  0
    0.8757    0.0616   -0.1992 H   0  0  0  0  0  0  0  0  0  0  0  0
    0.0997   -1.0712   -1.2825 H   0  0  0  0  0  0  0  0  0  0  0  0
   -0.7198   -2.4022    0.6850 H   0  0  0  0  0  0  0  0  0  0  0  0
    1.0395   -2.2596    0.6989 H   0  0  0  0  0  0  0  0  0  0  0  0
    0.0624   -1.2603    1.7770 H   0  0  0  0  0  0  0  0  0  0  0  0
  1  2  1  0
  1  4  1  0
  1  5  1  0
  1  6  1  0
  2  3  1  0
  2  7  1  0
  2  8  1  0
  3  9  1  0
  3 10  1  0
  3 11  1  0
M  END
>  <reaction>  (3) 
rmg_rxn_550

>  <mol_properties>  (3) 
{"0": {"label": "acceptor", "atom_type": "Cs"}, "10": {"label": "a_hydrogen", "atom_type": "H0"}}

>  <type>  (3) 
r2h

$$$$

     RDKit          3D

 22 20  0  0  0  0  0  0  0  0999 V2000
    1.3010    0.8077   -1.5880 C   0  0  0  0  0  3  0  0  0  0  0  0
   -0.0580    0.9628   -2.2142 C   0  0  0  0  0  0  0  0  0  0  0  0
   -0.7839    2.2209   -1.7539 C   0  0  0  0  0  0  0  0  0  0  0  0
    1.8540   -0.0827   -1.8829 H   0  0  0  0  0  0  0  0  0  0  0  0
    1.9255    1.7004   -1.6147 H   0  0  0  0  0  0  0  0  0  0  0  0
    0.0394    0.9780   -3.3072 H   0  0  0  0  0  0  0  0  0  0  0  0
   -0.6678    0.0853   -1.9788 H   0  0  0  0  0  0  0  0  0  0  0  0
   -0.1981    3.1148   -1.9816 H   0  0  0  0  0  0  0  0  0  0  0  0
   -1.7538    2.3208   -2.2432 H   0  0  0  0  0  0  0  0  0  0  0  0
   -0.9566    2.1963   -0.6763 H   0  0  0  0  0  0  0  0  0  0  0  0
    0.8126    0.5075    1.0537 C   0  0  0  0  0  0  0  0  0  0  0  0
   -0.7516   -0.2450    1.3799 S   0  0  0  0  0  0  0  0  0  0  0  0
   -0.3627   -1.9939    1.1331 C   0  0  0  0  0  0  0  0  0  0  0  0
   -0.0557   -2.3876   -0.3020 C   0  0  0  0  0  0  0  0  0  0  0  0
    1.0692    0.6164   -0.2333 H   0  0  0  0  0  0  0  0  0  0  0  0
    1.6543   -0.0404    1.4778 H   0  0  0  0  0  0  0  0  0  0  0  0
    0.7976    1.5399    1.3971 H   0  0  0  0  0  0  0  0  0  0  0  0
   -1.2438   -2.5246    1.4974 H   0  0  0  0  0  0  0  0  0  0  0  0
    0.4661   -2.2532    1.7954 H   0  0  0  0  0  0  0  0  0  0  0  0
    0.8205   -1.8581   -0.6767 H   0  0  0  0  0  0  0  0  0  0  0  0
   -0.8963   -2.1572   -0.9573 H   0  0  0  0  0  0  0  0  0  0  0  0
    0.1461   -3.4593   -0.3650 H   0  0  0  0  0  0  0  0  0  0  0  0
  1  2  1  0
  1  4  1  0
  1  5  1  0
  2  3  1  0
  2  6  1  0
  2  7  1  0
  3  8  1  0
  3  9  1  0
  3 10  1  0
 11 12  1  0
 11 15  1  0
 11 16  1  0
 11 17  1  0
 12 13  1  0
 13 14  1  0
 13 18  1  0
 13 19  1  0
 14 20  1  0
 14 21  1  0
 14 22  1  0
M  RAD  1   1   2
M  END
>  <reaction>  (4) 
rmg_rxn_550

>  <mol_properties>  (4) 
{"0": {"label": "*3", "atom_type": "Cs"}, "1": {"label": "*4", "atom_type": "Cs"}, "10": {"label": "*1", "atom_type": "Cs"}, "11": {"label": "*0", "atom_type": "S2s"}, "14": {"label": "*2", "atom_type": "H0"}}

>  <type>  (4) 
ts

$$$$

     RDKit          3D

 22 20  0  0  0  0  0  0  0  0999 V2000
    0.8147    0.4794   -1.5641 C   0  0  0  0  0  3  0  0  0  0  0  0
    1.1610    1.9271   -1.8879 C   0  0  0  0  0  0  0  0  0  0  0  0
    1.7559    2.6685   -0.6975 C   0  0  0  0  0  0  0  0  0  0  0  0
    0.3904   -0.0345   -2.4283 H   0  0  0  0  0  0  0  0  0  0  0  0
    1.7029   -0.0736   -1.2487 H   0  0  0  0  0  0  0  0  0  0  0  0
    1.8662    1.9545   -2.7233 H   0  0  0  0  0  0  0  0  0  0  0  0
    0.2626    2.4486   -2.2296 H   0  0  0  0  0  0  0  0  0  0  0  0
    2.6737    2.1845   -0.3549 H   0  0  0  0  0  0  0  0  0  0  0  0
    1.9971    3.7027   -0.9488 H   0  0  0  0  0  0  0  0  0  0  0  0
    1.0574    2.6824    0.1427 H   0  0  0  0  0  0  0  0  0  0  0  0
    0.5847    0.1276    1.0206 C   0  0  0  0  0  0  0  0  0  0  0  0
   -1.0584   -0.4513    1.4783 S   0  0  0  0  0  0  0  0  0  0  0  0
   -1.0584   -2.0914    0.7147 C   0  0  0  0  0  0  0  0  0  0  0  0
   -1.0584   -2.0914   -0.8057 C   0  0  0  0  0  0  0  0  0  0  0  0
    0.6995    0.3032   -0.2698 H   0  0  0  0  0  0  0  0  0  0  0  0
    1.3517   -0.5655    1.3687 H   0  0  0  0  0  0  0  0  0  0  0  0
    0.7312    1.0869    1.5149 H   0  0  0  0  0  0  0  0  0  0  0  0
   -1.9625   -2.5694    1.0956 H   0  0  0  0  0  0  0  0  0  0  0  0
   -0.2092   -2.6563    1.1060 H   0  0  0  0  0  0  0  0  0  0  0  0
   -0.1514   -1.6352   -1.2050 H   0  0  0  0  0  0  0  0  0  0  0  0
   -1.9144   -1.5382   -1.1934 H   0  0  0  0  0  0  0  0  0  0  0  0
   -1.1069   -3.1146   -1.1852 H   0  0  0  0  0  0  0  0  0  0  0  0
  1  2  1  0
  1  4  1  0
  1  5  1  0
  2  3  1  0
  2  6  1  0
  2  7  1  0
  3  8  1  0
  3  9  1  0
  3 10  1  0
 11 12  1  0
 11 15  1  0
 11 16  1  0
 11 17  1  0
 12 13  1  0
 13 14  1  0
 13 18  1  0
 13 19  1  0
 14 20  1  0
 14 21  1  0
 14 22  1  0
M  RAD  1   1   2
M  END
>  <reaction>  (5) 
rmg_rxn_550

>  <mol_properties>  (5) 
{"0": {"label": "*3", "atom_type": "Cs"}, "1": {"label": "*4", "atom_type": "Cs"}, "10": {"label": "*1", "atom_type": "Cs"}, "11": {"label": "*0", "atom_type": "S2s"}, "14": {"label": "*2", "atom_type": "H0"}}

>  <type>  (5) 
unop_1

>  <geom_source>  (5) 
Heuristics

$$$$

     RDKit          3D

 22 20  0  0  0  0  0  0  0  0999 V2000
    1.4025    0.7017   -1.4478 C   0  0  0  0  0  3  0  0  0  0  0  0
    0.0650    1.0882   -2.0659 C   0  0  0  0  0  0  0  0  0  0  0  0
   -0.7056    2.0913   -1.2171 C   0  0  0  0  0  0  0  0  0  0  0  0
    1.9391   -0.0168   -2.0696 H   0  0  0  0  0  0  0  0  0  0  0  0
    2.0423    1.5784   -1.3213 H   0  0  0  0  0  0  0  0  0  0  0  0
    0.2318    1.5067   -3.0623 H   0  0  0  0  0  0  0  0  0  0  0  0
   -0.5426    0.1904   -2.2098 H   0  0  0  0  0  0  0  0  0  0  0  0
   -0.1323    3.0118   -1.0834 H   0  0  0  0  0  0  0  0  0  0  0  0
   -1.6599    2.3556   -1.6759 H   0  0  0  0  0  0  0  0  0  0  0  0
   -0.9128    1.6851   -0.2241 H   0  0  0  0  0  0  0  0  0  0  0  0
    1.1725    0.3498    1.1369 C   0  0  0  0  0  0  0  0  0  0  0  0
   -0.4706   -0.2290    1.5947 S   0  0  0  0  0  0  0  0  0  0  0  0
   -0.4706   -1.8692    0.8310 C   0  0  0  0  0  0  0  0  0  0  0  0
   -0.4706   -1.8692   -0.6893 C   0  0  0  0  0  0  0  0  0  0  0  0
    1.2873    0.5255   -0.1535 H   0  0  0  0  0  0  0  0  0  0  0  0
    1.9395   -0.3432    1.4850 H   0  0  0  0  0  0  0  0  0  0  0  0
    1.3190    1.3092    1.6312 H   0  0  0  0  0  0  0  0  0  0  0  0
   -1.3747   -2.3471    1.2119 H   0  0  0  0  0  0  0  0  0  0  0  0
    0.3786   -2.4340    1.2223 H   0  0  0  0  0  0  0  0  0  0  0  0
    0.4364   -1.4130   -1.0886 H   0  0  0  0  0  0  0  0  0  0  0  0
   -1.3266   -1.3159   -1.0771 H   0  0  0  0  0  0  0  0  0  0  0  0
   -0.5191   -2.8924   -1.0689 H   0  0  0  0  0  0  0  0  0  0  0  0
  1  2  1  0
  1  4  1  0
  1  5  1  0
  2  3  1  0
  2  6  1  0
  2  7  1  0
  3  8  1  0
  3  9  1  0
  3 10  1  0
 11 12  1  0
 11 15  1  0
 11 16  1  0
 11 17  1  0
 12 13  1  0
 13 14  1  0
 13 18  1  0
 13 19  1  0
 14 20  1  0
 14 21  1  0
 14 22  1  0
M  RAD  1   1   2
M  END
>  <reaction>  (6) 
rmg_rxn_550

>  <mol_properties>  (6) 
{"0": {"label": "*3", "atom_type": "Cs"}, "1": {"label": "*4", "atom_type": "Cs"}, "10": {"label": "*1", "atom_type": "Cs"}, "11": {"label": "*0", "atom_type": "S2s"}, "14": {"label": "*2", "atom_type": "H0"}}

>  <type>  (6) 
unop_2

>  <geom_source>  (6) 
Heuristics

$$$$

     RDKit          3D

 22 20  0  0  0  0  0  0  0  0999 V2000
    0.5927    0.6455   -1.5465 C   0  0  0  0  0  3  0  0  0  0  0  0
    1.5917    1.7523   -1.8587 C   0  0  0  0  0  0  0  0  0  0  0  0
    2.7015    1.8512   -0.8198 C   0  0  0  0  0  0  0  0  0  0  0  0
   -0.1937    0.5904   -2.3011 H   0  0  0  0  0  0  0  0  0  0  0  0
    1.0878   -0.3279   -1.5074 H   0  0  0  0  0  0  0  0  0  0  0  0
    2.0309    1.5788   -2.8450 H   0  0  0  0  0  0  0  0  0  0  0  0
    1.0665    2.7093   -1.9224 H   0  0  0  0  0  0  0  0  0  0  0  0
    3.2630    0.9158   -0.7578 H   0  0  0  0  0  0  0  0  0  0  0  0
    3.4064    2.6488   -1.0604 H   0  0  0  0  0  0  0  0  0  0  0  0
    2.2910    2.0553    0.1721 H   0  0  0  0  0  0  0  0  0  0  0  0
    0.3627    0.2936    1.0382 C   0  0  0  0  0  0  0  0  0  0  0  0
   -1.2804   -0.2852    1.4960 S   0  0  0  0  0  0  0  0  0  0  0  0
   -1.2804   -1.9253    0.7323 C   0  0  0  0  0  0  0  0  0  0  0  0
   -1.2804   -1.9253   -0.7881 C   0  0  0  0  0  0  0  0  0  0  0  0
    0.4776    0.4693   -0.2522 H   0  0  0  0  0  0  0  0  0  0  0  0
    1.1297   -0.3994    1.3863 H   0  0  0  0  0  0  0  0  0  0  0  0
    0.5092    1.2530    1.5325 H   0  0  0  0  0  0  0  0  0  0  0  0
   -2.1844   -2.4033    1.1132 H   0  0  0  0  0  0  0  0  0  0  0  0
   -0.4311   -2.4902    1.1236 H   0  0  0  0  0  0  0  0  0  0  0  0
   -0.3734   -1.4692   -1.1874 H   0  0  0  0  0  0  0  0  0  0  0  0
   -2.1364   -1.3721   -1.1758 H   0  0  0  0  0  0  0  0  0  0  0  0
   -1.3288   -2.9486   -1.1676 H   0  0  0  0  0  0  0  0  0  0  0  0
  1  2  1  0
  1  4  1  0
  1  5  1  0
  2  3  1  0
  2  6  1  0
  2  7  1  0
  3  8  1  0
  3  9  1  0
  3 10  1  0
 11 12  1  0
 11 15  1  0
 11 16  1  0
 11 17  1  0
 12 13  1  0
 13 14  1  0
 13 18  1  0
 13 19  1  0
 14 20  1  0
 14 21  1  0
 14 22  1  0
M  RAD  1   1   2
M  END
>  <reaction>  (7) 
rmg_rxn_550

>  <mol_properties>  (7) 
{"0": {"label": "*3", "atom_type": "Cs"}, "1": {"label": "*4", "atom_type": "Cs"}, "10": {"label": "*1", "atom_type": "Cs"}, "11": {"label": "*0", "atom_type": "S2s"}, "14": {"label": "*2", "atom_type": "H0"}}

>  <type>  (7) 
unop_3

>  <geom_source>  (7) 
Heuristics

$$$$

     RDKit          3D

 22 20  0  0  0  0  0  0  0  0999 V2000
    1.2207    1.2660   -1.2584 C   0  0  0  0  0  3  0  0  0  0  0  0
    0.9701   -0.0353   -2.0096 C   0  0  0  0  0  0  0  0  0  0  0  0
   -0.4895   -0.2106   -2.4087 C   0  0  0  0  0  0  0  0  0  0  0  0
    2.2708    1.3734   -0.9812 H   0  0  0  0  0  0  0  0  0  0  0  0
    0.9460    2.1291   -1.8697 H   0  0  0  0  0  0  0  0  0  0  0  0
    1.5983   -0.0661   -2.9041 H   0  0  0  0  0  0  0  0  0  0  0  0
    1.2816   -0.8799   -1.3886 H   0  0  0  0  0  0  0  0  0  0  0  0
   -0.8181    0.6059   -3.0563 H   0  0  0  0  0  0  0  0  0  0  0  0
   -0.6490   -1.1475   -2.9452 H   0  0  0  0  0  0  0  0  0  0  0  0
   -1.1374   -0.2143   -1.5288 H   0  0  0  0  0  0  0  0  0  0  0  0
    0.9907    0.9141    1.3263 C   0  0  0  0  0  0  0  0  0  0  0  0
   -0.6524    0.3353    1.7841 S   0  0  0  0  0  0  0  0  0  0  0  0
   -0.6524   -1.3048    1.0204 C   0  0  0  0  0  0  0  0  0  0  0  0
   -0.6524   -1.3048   -0.4999 C   0  0  0  0  0  0  0  0  0  0  0  0
    1.1056    1.0898    0.0359 H   0  0  0  0  0  0  0  0  0  0  0  0
    1.7577    0.2211    1.6744 H   0  0  0  0  0  0  0  0  0  0  0  0
    1.1372    1.8735    1.8206 H   0  0  0  0  0  0  0  0  0  0  0  0
   -1.5564   -1.7828    1.4014 H   0  0  0  0  0  0  0  0  0  0  0  0
    0.1968   -1.8697    1.4117 H   0  0  0  0  0  0  0  0  0  0  0  0
    0.2546   -0.8486   -0.8992 H   0  0  0  0  0  0  0  0  0  0  0  0
   -1.5084   -0.7516   -0.8877 H   0  0  0  0  0  0  0  0  0  0  0  0
   -0.7008   -2.3280   -0.8795 H   0  0  0  0  0  0  0  0  0  0  0  0
  1  2  1  0
  1  4  1  0
  1  5  1  0
  2  3  1  0
  2  6  1  0
  2  7  1  0
  3  8  1  0
  3  9  1  0
  3 10  1  0
 11 12  1  0
 11 15  1  0
 11 16  1  0
 11 17  1  0
 12 13  1  0
 13 14  1  0
 13 18  1  0
 13 19  1  0
 14 20  1  0
 14 21  1  0
 14 22  1  0
M  RAD  1   1   2
M  END
>  <reaction>  (8) 
rmg_rxn_550

>  <mol_properties>  (8) 
{"0": {"label": "*3", "atom_type": "Cs"}, "1": {"label": "*4", "atom_type": "Cs"}, "10": {"label": "*1", "atom_type": "Cs"}, "11": {"label": "*0", "atom_type": "S2s"}, "14": {"label": "*2", "atom_type": "H0"}}

>  <type>  (8) 
unop_4

>  <geom_source>  (8) 
Heuristics

$$$$

     RDKit          3D

 22 20  0  0  0  0  0  0  0  0999 V2000
    0.5014    0.9291   -1.4558 C   0  0  0  0  0  3  0  0  0  0  0  0
    1.8983    1.4182   -1.8167 C   0  0  0  0  0  0  0  0  0  0  0  0
    2.9889    0.4420   -1.3947 C   0  0  0  0  0  0  0  0  0  0  0  0
   -0.2654    1.6411   -1.7658 H   0  0  0  0  0  0  0  0  0  0  0  0
    0.2853   -0.0269   -1.9389 H   0  0  0  0  0  0  0  0  0  0  0  0
    1.9577    1.5862   -2.8956 H   0  0  0  0  0  0  0  0  0  0  0  0
    2.0768    2.3891   -1.3462 H   0  0  0  0  0  0  0  0  0  0  0  0
    2.8512   -0.5294   -1.8758 H   0  0  0  0  0  0  0  0  0  0  0  0
    3.9813    0.8094   -1.6614 H   0  0  0  0  0  0  0  0  0  0  0  0
    2.9713    0.2798   -0.3142 H   0  0  0  0  0  0  0  0  0  0  0  0
    0.2714    0.5773    1.1289 C   0  0  0  0  0  0  0  0  0  0  0  0
   -1.3717   -0.0015    1.5866 S   0  0  0  0  0  0  0  0  0  0  0  0
   -1.3717   -1.6417    0.8230 C   0  0  0  0  0  0  0  0  0  0  0  0
   -1.3717   -1.6417   -0.6974 C   0  0  0  0  0  0  0  0  0  0  0  0
    0.3862    0.7530   -0.1616 H   0  0  0  0  0  0  0  0  0  0  0  0
    1.0384   -0.1157    1.4770 H   0  0  0  0  0  0  0  0  0  0  0  0
    0.4179    1.5367    1.6232 H   0  0  0  0  0  0  0  0  0  0  0  0
   -2.2758   -2.1196    1.2039 H   0  0  0  0  0  0  0  0  0  0  0  0
   -0.5225   -2.2065    1.2142 H   0  0  0  0  0  0  0  0  0  0  0  0
   -0.4647   -1.1855   -1.0967 H   0  0  0  0  0  0  0  0  0  0  0  0
   -2.2277   -1.0884   -1.0851 H   0  0  0  0  0  0  0  0  0  0  0  0
   -1.4202   -2.6649   -1.0769 H   0  0  0  0  0  0  0  0  0  0  0  0
  1  2  1  0
  1  4  1  0
  1  5  1  0
  2  3  1  0
  2  6  1  0
  2  7  1  0
  3  8  1  0
  3  9  1  0
  3 10  1  0
 11 12  1  0
 11 15  1  0
 11 16  1  0
 11 17  1  0
 12 13  1  0
 13 14  1  0
 13 18  1  0
 13 19  1  0
 14 20  1  0
 14 21  1  0
 14 22  1  0
M  RAD  1   1   2
M  END
>  <reaction>  (9) 
rmg_rxn_550

>  <mol_properties>  (9) 
{"0": {"label": "*3", "atom_type": "Cs"}, "1": {"label": "*4", "atom_type": "Cs"}, "10": {"label": "*1", "atom_type": "Cs"}, "11": {"label": "*0", "atom_type": "S2s"}, "14": {"label": "*2", "atom_type": "H0"}}

>  <type>  (9) 
unop_5

>  <geom_source>  (9) 
Heuristics

$$$$

     RDKit          3D

 22 20  0  0  0  0  0  0  0  0999 V2000
    1.0004    1.3352   -1.2471 C   0  0  0  0  0  3  0  0  0  0  0  0
    1.4825    0.0614   -1.9294 C   0  0  0  0  0  0  0  0  0  0  0  0
    0.3455   -0.7334   -2.5588 C   0  0  0  0  0  0  0  0  0  0  0  0
    1.8283    1.8903   -0.8028 H   0  0  0  0  0  0  0  0  0  0  0  0
    0.4998    1.9948   -1.9601 H   0  0  0  0  0  0  0  0  0  0  0  0
    2.2176    0.3159   -2.6979 H   0  0  0  0  0  0  0  0  0  0  0  0
    2.0057   -0.5655   -1.2020 H   0  0  0  0  0  0  0  0  0  0  0  0
   -0.1758   -0.1391   -3.3131 H   0  0  0  0  0  0  0  0  0  0  0  0
    0.7102   -1.6414   -3.0420 H   0  0  0  0  0  0  0  0  0  0  0  0
   -0.3894   -1.0274   -1.8054 H   0  0  0  0  0  0  0  0  0  0  0  0
    0.7704    0.9834    1.3375 C   0  0  0  0  0  0  0  0  0  0  0  0
   -0.8727    0.4045    1.7953 S   0  0  0  0  0  0  0  0  0  0  0  0
   -0.8727   -1.2356    1.0317 C   0  0  0  0  0  0  0  0  0  0  0  0
   -0.8727   -1.2356   -0.4887 C   0  0  0  0  0  0  0  0  0  0  0  0
    0.8852    1.1590    0.0471 H   0  0  0  0  0  0  0  0  0  0  0  0
    1.5374    0.2903    1.6856 H   0  0  0  0  0  0  0  0  0  0  0  0
    0.9169    1.9428    1.8319 H   0  0  0  0  0  0  0  0  0  0  0  0
   -1.7768   -1.7136    1.4126 H   0  0  0  0  0  0  0  0  0  0  0  0
   -0.0235   -1.8005    1.4229 H   0  0  0  0  0  0  0  0  0  0  0  0
    0.0343   -0.7794   -0.8880 H   0  0  0  0  0  0  0  0  0  0  0  0
   -1.7287   -0.6824   -0.8764 H   0  0  0  0  0  0  0  0  0  0  0  0
   -0.9212   -2.2588   -0.8682 H   0  0  0  0  0  0  0  0  0  0  0  0
  1  2  1  0
  1  4  1  0
  1  5  1  0
  2  3  1  0
  2  6  1  0
  2  7  1  0
  3  8  1  0
  3  9  1  0
  3 10  1  0
 11 12  1  0
 11 15  1  0
 11 16  1  0
 11 17  1  0
 12 13  1  0
 13 14  1  0
 13 18  1  0
 13 19  1  0
 14 20  1  0
 14 21  1  0
 14 22  1  0
M  RAD  1   1   2
M  END
>  <reaction>  (10) 
rmg_rxn_550

>  <mol_properties>  (10) 
{"0": {"label": "*3", "atom_type": "Cs"}, "1": {"label": "*4", "atom_type": "Cs"}, "10": {"label": "*1", "atom_type": "Cs"}, "11": {"label": "*0", "atom_type": "S2s"}, "14": {"label": "*2", "atom_type": "H0"}}

>  <type>  (10) 
unop_6

>  <geom_source>  (10) 
Heuristics

$$$$

     RDKit          3D

 22 20  0  0  0  0  0  0  0  0999 V2000
    0.7767    1.2973   -1.2711 C   0  0  0  0  0  3  0  0  0  0  0  0
    1.8751    0.4119   -1.8456 C   0  0  0  0  0  0  0  0  0  0  0  0
    1.3292   -0.8531   -2.4954 C   0  0  0  0  0  0  0  0  0  0  0  0
    1.1870    2.1976   -0.8105 H   0  0  0  0  0  0  0  0  0  0  0  0
    0.0783    1.6093   -2.0514 H   0  0  0  0  0  0  0  0  0  0  0  0
    2.4523    0.9789   -2.5812 H   0  0  0  0  0  0  0  0  0  0  0  0
    2.5760    0.1399   -1.0515 H   0  0  0  0  0  0  0  0  0  0  0  0
    0.6481   -0.6090   -3.3143 H   0  0  0  0  0  0  0  0  0  0  0  0
    2.1302   -1.4738   -2.9006 H   0  0  0  0  0  0  0  0  0  0  0  0
    0.7728   -1.4547   -1.7725 H   0  0  0  0  0  0  0  0  0  0  0  0
    0.5467    0.9455    1.3136 C   0  0  0  0  0  0  0  0  0  0  0  0
   -1.0964    0.3667    1.7713 S   0  0  0  0  0  0  0  0  0  0  0  0
   -1.0964   -1.2735    1.0077 C   0  0  0  0  0  0  0  0  0  0  0  0
   -1.0964   -1.2735   -0.5127 C   0  0  0  0  0  0  0  0  0  0  0  0
    0.6616    1.1212    0.0232 H   0  0  0  0  0  0  0  0  0  0  0  0
    1.3137    0.2525    1.6617 H   0  0  0  0  0  0  0  0  0  0  0  0
    0.6932    1.9049    1.8079 H   0  0  0  0  0  0  0  0  0  0  0  0
   -2.0004   -1.7514    1.3886 H   0  0  0  0  0  0  0  0  0  0  0  0
   -0.2471   -1.8383    1.3990 H   0  0  0  0  0  0  0  0  0  0  0  0
   -0.1894   -0.8173   -0.9120 H   0  0  0  0  0  0  0  0  0  0  0  0
   -1.9524   -0.7202   -0.9004 H   0  0  0  0  0  0  0  0  0  0  0  0
   -1.1448   -2.2967   -0.8922 H   0  0  0  0  0  0  0  0  0  0  0  0
  1  2  1  0
  1  4  1  0
  1  5  1  0
  2  3  1  0
  2  6  1  0
  2  7  1  0
  3  8  1  0
  3  9  1  0
  3 10  1  0
 11 12  1  0
 11 15  1  0
 11 16  1  0
 11 17  1  0
 12 13  1  0
 13 14  1  0
 13 18  1  0
 13 19  1  0
 14 20  1  0
 14 21  1  0
 14 22  1  0
M  RAD  1   1   2
M  END
>  <reaction>  (11) 
rmg_rxn_550

>  <mol_properties>  (11) 
{"0": {"label": "*3", "atom_type": "Cs"}, "1": {"label": "*4", "atom_type": "Cs"}, "10": {"label": "*1", "atom_type": "Cs"}, "11": {"label": "*0", "atom_type": "S2s"}, "14": {"label": "*2", "atom_type": "H0"}}

>  <type>  (11) 
unop_7

>  <geom_source>  (11) 
Heuristics

$$$$

     RDKit          3D

 22 20  0  0  0  0  0  0  0  0999 V2000
    1.0606    0.4543   -1.5452 C   0  0  0  0  0  3  0  0  0  0  0  0
    0.6742    1.8745   -1.9380 C   0  0  0  0  0  0  0  0  0  0  0  0
    0.7406    2.8459   -0.7665 C   0  0  0  0  0  0  0  0  0  0  0  0
    1.0069   -0.2261   -2.3968 H   0  0  0  0  0  0  0  0  0  0  0  0
    2.0803    0.4209   -1.1539 H   0  0  0  0  0  0  0  0  0  0  0  0
    1.3335    2.2231   -2.7378 H   0  0  0  0  0  0  0  0  0  0  0  0
   -0.3371    1.8747   -2.3541 H   0  0  0  0  0  0  0  0  0  0  0  0
    1.7502    2.8879   -0.3506 H   0  0  0  0  0  0  0  0  0  0  0  0
    0.4607    3.8569   -1.0673 H   0  0  0  0  0  0  0  0  0  0  0  0
    0.0665    2.5367    0.0360 H   0  0  0  0  0  0  0  0  0  0  0  0
    0.8305    0.1024    1.0395 C   0  0  0  0  0  0  0  0  0  0  0  0
   -0.8126   -0.4764    1.4972 S   0  0  0  0  0  0  0  0  0  0  0  0
   -0.8126   -2.1165    0.7336 C   0  0  0  0  0  0  0  0  0  0  0  0
   -0.8126   -2.1165   -0.7868 C   0  0  0  0  0  0  0  0  0  0  0  0
    0.9454    0.2781   -0.2510 H   0  0  0  0  0  0  0  0  0  0  0  0
    1.5975   -0.5906    1.3876 H   0  0  0  0  0  0  0  0  0  0  0  0
    0.9770    1.0618    1.5338 H   0  0  0  0  0  0  0  0  0  0  0  0
   -1.7166   -2.5945    1.1145 H   0  0  0  0  0  0  0  0  0  0  0  0
    0.0367   -2.6814    1.1248 H   0  0  0  0  0  0  0  0  0  0  0  0
    0.0944   -1.6604   -1.1861 H   0  0  0  0  0  0  0  0  0  0  0  0
   -1.6685   -1.5633   -1.1745 H   0  0  0  0  0  0  0  0  0  0  0  0
   -0.8610   -3.1398   -1.1663 H   0  0  0  0  0  0  0  0  0  0  0  0
  1  2  1  0
  1  4  1  0
  1  5  1  0
  2  3  1  0
  2  6  1  0
  2  7  1  0
  3  8  1  0
  3  9  1  0
  3 10  1  0
 11 12  1  0
 11 15  1  0
 11 16  1  0
 11 17  1  0
 12 13  1  0
 13 14  1  0
 13 18  1  0
 13 19  1  0
 14 20  1  0
 14 21  1  0
 14 22  1  0
M  RAD  1   1   2
M  END
>  <reaction>  (12) 
rmg_rxn_550

>  <mol_properties>  (12) 
{"0": {"label": "*3", "atom_type": "Cs"}, "1": {"label": "*4", "atom_type": "Cs"}, "10": {"label": "*1", "atom_type": "Cs"}, "11": {"label": "*0", "atom_type": "S2s"}, "14": {"label": "*2", "atom_type": "H0"}}

>  <type>  (12) 
unop_8

>  <geom_source>  (12) 
Heuristics

$$$$

     RDKit          3D

 22 20  0  0  0  0  0  0  0  0999 V2000
    1.3820    1.1054   -1.3047 C   0  0  0  0  0  3  0  0  0  0  0  0
    0.4787    0.1449   -2.0676 C   0  0  0  0  0  0  0  0  0  0  0  0
   -0.9793    0.5863   -2.0685 C   0  0  0  0  0  0  0  0  0  0  0  0
    2.4213    0.7727   -1.3153 H   0  0  0  0  0  0  0  0  0  0  0  0
    1.3465    2.1060   -1.7425 H   0  0  0  0  0  0  0  0  0  0  0  0
    0.8321    0.0540   -3.0985 H   0  0  0  0  0  0  0  0  0  0  0  0
    0.5564   -0.8538   -1.6291 H   0  0  0  0  0  0  0  0  0  0  0  0
   -1.0892    1.5705   -2.5302 H   0  0  0  0  0  0  0  0  0  0  0  0
   -1.6100   -0.1136   -2.6192 H   0  0  0  0  0  0  0  0  0  0  0  0
   -1.3671    0.6556   -1.0492 H   0  0  0  0  0  0  0  0  0  0  0  0
    1.1520    0.7536    1.2799 C   0  0  0  0  0  0  0  0  0  0  0  0
   -0.4911    0.1747    1.7377 S   0  0  0  0  0  0  0  0  0  0  0  0
   -0.4911   -1.4654    0.9741 C   0  0  0  0  0  0  0  0  0  0  0  0
   -0.4911   -1.4654   -0.5463 C   0  0  0  0  0  0  0  0  0  0  0  0
    1.2668    0.9292   -0.0105 H   0  0  0  0  0  0  0  0  0  0  0  0
    1.9190    0.0605    1.6280 H   0  0  0  0  0  0  0  0  0  0  0  0
    1.2984    1.7130    1.7743 H   0  0  0  0  0  0  0  0  0  0  0  0
   -1.3952   -1.9434    1.3550 H   0  0  0  0  0  0  0  0  0  0  0  0
    0.3581   -2.0303    1.3653 H   0  0  0  0  0  0  0  0  0  0  0  0
    0.4159   -1.0092   -0.9456 H   0  0  0  0  0  0  0  0  0  0  0  0
   -1.3471   -0.9122   -0.9340 H   0  0  0  0  0  0  0  0  0  0  0  0
   -0.5396   -2.4886   -0.9258 H   0  0  0  0  0  0  0  0  0  0  0  0
  1  2  1  0
  1  4  1  0
  1  5  1  0
  2  3  1  0
  2  6  1  0
  2  7  1  0
  3  8  1  0
  3  9  1  0
  3 10  1  0
 11 12  1  0
 11 15  1  0
 11 16  1  0
 11 17  1  0
 12 13  1  0
 13 14  1  0
 13 18  1  0
 13 19  1  0
 14 20  1  0
 14 21  1  0
 14 22  1  0
M  RAD  1   1   2
M  END
>  <reaction>  (13) 
rmg_rxn_550

>  <mol_properties>  (13) 
{"0": {"label": "*3", "atom_type": "Cs"}, "1": {"label": "*4", "atom_type": "Cs"}, "10": {"label": "*1", "atom_type": "Cs"}, "11": {"label": "*0", "atom_type": "S2s"}, "14": {"label": "*2", "atom_type": "H0"}}

>  <type>  (13) 
unop_9

>  <geom_source>  (13) 
Heuristics

$$$$

     RDKit          3D

 22 20  0  0  0  0  0  0  0  0999 V2000
    1.2685    0.5412   -1.5051 C   0  0  0  0  0  3  0  0  0  0  0  0
    0.2658    1.5730   -2.0056 C   0  0  0  0  0  0  0  0  0  0  0  0
   -0.1075    2.5941   -0.9386 C   0  0  0  0  0  0  0  0  0  0  0  0
    1.5233   -0.1807   -2.2829 H   0  0  0  0  0  0  0  0  0  0  0  0
    2.1939    1.0221   -1.1788 H   0  0  0  0  0  0  0  0  0  0  0  0
    0.6795    2.0905   -2.8757 H   0  0  0  0  0  0  0  0  0  0  0  0
   -0.6371    1.0640   -2.3541 H   0  0  0  0  0  0  0  0  0  0  0  0
    0.7745    3.1396   -0.5943 H   0  0  0  0  0  0  0  0  0  0  0  0
   -0.8259    3.3239   -1.3156 H   0  0  0  0  0  0  0  0  0  0  0  0
   -0.5526    2.1050   -0.0686 H   0  0  0  0  0  0  0  0  0  0  0  0
    1.0385    0.1894    1.0795 C   0  0  0  0  0  0  0  0  0  0  0  0
   -0.6046   -0.3895    1.5373 S   0  0  0  0  0  0  0  0  0  0  0  0
   -0.6046   -2.0296    0.7737 C   0  0  0  0  0  0  0  0  0  0  0  0
   -0.6046   -2.0296   -0.7467 C   0  0  0  0  0  0  0  0  0  0  0  0
    1.1533    0.3650   -0.2109 H   0  0  0  0  0  0  0  0  0  0  0  0
    1.8055   -0.5037    1.4276 H   0  0  0  0  0  0  0  0  0  0  0  0
    1.1850    1.1488    1.5739 H   0  0  0  0  0  0  0  0  0  0  0  0
   -1.5087   -2.5076    1.1546 H   0  0  0  0  0  0  0  0  0  0  0  0
    0.2446   -2.5944    1.1649 H   0  0  0  0  0  0  0  0  0  0  0  0
    0.3024   -1.5734   -1.1460 H   0  0  0  0  0  0  0  0  0  0  0  0
   -1.4606   -1.4764   -1.1344 H   0  0  0  0  0  0  0  0  0  0  0  0
   -0.6530   -3.0528   -1.1262 H   0  0  0  0  0  0  0  0  0  0  0  0
  1  2  1  0
  1  4  1  0
  1  5  1  0
  2  3  1  0
  2  6  1  0
  2  7  1  0
  3  8  1  0
  3  9  1  0
  3 10  1  0
 11 12  1  0
 11 15  1  0
 11 16  1  0
 11 17  1  0
 12 13  1  0
 13 14  1  0
 13 18  1  0
 13 19  1  0
 14 20  1  0
 14 21  1  0
 14 22  1  0
M  RAD  1   1   2
M  END
>  <reaction>  (14) 
rmg_rxn_550

>  <mol_properties>  (14) 
{"0": {"label": "*3", "atom_type": "Cs"}, "1": {"label": "*4", "atom_type": "Cs"}, "10": {"label": "*1", "atom_type": "Cs"}, "11": {"label": "*0", "atom_type": "S2s"}, "14": {"label": "*2", "atom_type": "H0"}}

>  <type>  (14) 
unop_10

>  <geom_source>  (14) 
Heuristics

$$$$

     RDKit          3D

 22 20  0  0  0  0  0  0  0  0999 V2000
    0.5953    1.1640   -1.3366 C   0  0  0  0  0  3  0  0  0  0  0  0
    2.0285    0.9238   -1.7935 C   0  0  0  0  0  0  0  0  0  0  0  0
    2.2962   -0.5345   -2.1433 C   0  0  0  0  0  0  0  0  0  0  0  0
    0.4231    2.2132   -1.0907 H   0  0  0  0  0  0  0  0  0  0  0  0
   -0.1159    0.8820   -2.1168 H   0  0  0  0  0  0  0  0  0  0  0  0
    2.2437    1.5520   -2.6623 H   0  0  0  0  0  0  0  0  0  0  0  0
    2.7192    1.2423   -1.0078 H   0  0  0  0  0  0  0  0  0  0  0  0
    1.6386   -0.8699   -2.9490 H   0  0  0  0  0  0  0  0  0  0  0  0
    3.3269   -0.6864   -2.4680 H   0  0  0  0  0  0  0  0  0  0  0  0
    2.1179   -1.1821   -1.2815 H   0  0  0  0  0  0  0  0  0  0  0  0
    0.3653    0.8121    1.2481 C   0  0  0  0  0  0  0  0  0  0  0  0
   -1.2778    0.2333    1.7059 S   0  0  0  0  0  0  0  0  0  0  0  0
   -1.2778   -1.4069    0.9422 C   0  0  0  0  0  0  0  0  0  0  0  0
   -1.2778   -1.4069   -0.5781 C   0  0  0  0  0  0  0  0  0  0  0  0
    0.4801    0.9878   -0.0423 H   0  0  0  0  0  0  0  0  0  0  0  0
    1.1323    0.1191    1.5962 H   0  0  0  0  0  0  0  0  0  0  0  0
    0.5117    1.7715    1.7424 H   0  0  0  0  0  0  0  0  0  0  0  0
   -2.1819   -1.8848    1.3232 H   0  0  0  0  0  0  0  0  0  0  0  0
   -0.4286   -1.9717    1.3335 H   0  0  0  0  0  0  0  0  0  0  0  0
   -0.3708   -0.9507   -0.9774 H   0  0  0  0  0  0  0  0  0  0  0  0
   -2.1338   -0.8536   -0.9659 H   0  0  0  0  0  0  0  0  0  0  0  0
   -1.3263   -2.4301   -0.9577 H   0  0  0  0  0  0  0  0  0  0  0  0
  1  2  1  0
  1  4  1  0
  1  5  1  0
  2  3  1  0
  2  6  1  0
  2  7  1  0
  3  8  1  0
  3  9  1  0
  3 10  1  0
 11 12  1  0
 11 15  1  0
 11 16  1  0
 11 17  1  0
 12 13  1  0
 13 14  1  0
 13 18  1  0
 13 19  1  0
 14 20  1  0
 14 21  1  0
 14 22  1  0
M  RAD  1   1   2
M  END
>  <reaction>  (15) 
rmg_rxn_550

>  <mol_properties>  (15) 
{"0": {"label": "*3", "atom_type": "Cs"}, "1": {"label": "*4", "atom_type": "Cs"}, "10": {"label": "*1", "atom_type": "Cs"}, "11": {"label": "*0", "atom_type": "S2s"}, "14": {"label": "*2", "atom_type": "H0"}}

>  <type>  (15) 
unop_11

>  <geom_source>  (15) 
Heuristics

$$$$

     RDKit          3D

 22 20  0  0  0  0  0  0  0  0999 V2000
    1.4444    0.9007   -1.3758 C   0  0  0  0  0  3  0  0  0  0  0  0
    0.1433    0.5580   -2.0899 C   0  0  0  0  0  0  0  0  0  0  0  0
   -1.0267    1.4128   -1.6199 C   0  0  0  0  0  0  0  0  0  0  0  0
    2.2700    0.2786   -1.7256 H   0  0  0  0  0  0  0  0  0  0  0  0
    1.7184    1.9452   -1.5429 H   0  0  0  0  0  0  0  0  0  0  0  0
    0.2758    0.6836   -3.1681 H   0  0  0  0  0  0  0  0  0  0  0  0
   -0.0912   -0.4984   -1.9322 H   0  0  0  0  0  0  0  0  0  0  0  0
   -0.8307    2.4734   -1.7947 H   0  0  0  0  0  0  0  0  0  0  0  0
   -1.9489    1.1528   -2.1424 H   0  0  0  0  0  0  0  0  0  0  0  0
   -1.2006    1.2821   -0.5490 H   0  0  0  0  0  0  0  0  0  0  0  0
    1.2144    0.5488    1.2089 C   0  0  0  0  0  0  0  0  0  0  0  0
   -0.4287   -0.0300    1.6667 S   0  0  0  0  0  0  0  0  0  0  0  0
   -0.4287   -1.6701    0.9030 C   0  0  0  0  0  0  0  0  0  0  0  0
   -0.4287   -1.6701   -0.6173 C   0  0  0  0  0  0  0  0  0  0  0  0
    1.3293    0.7245   -0.0815 H   0  0  0  0  0  0  0  0  0  0  0  0
    1.9814   -0.1442    1.5570 H   0  0  0  0  0  0  0  0  0  0  0  0
    1.3609    1.5082    1.7032 H   0  0  0  0  0  0  0  0  0  0  0  0
   -1.3327   -2.1481    1.2840 H   0  0  0  0  0  0  0  0  0  0  0  0
    0.4206   -2.2350    1.2943 H   0  0  0  0  0  0  0  0  0  0  0  0
    0.4783   -1.2139   -1.0166 H   0  0  0  0  0  0  0  0  0  0  0  0
   -1.2847   -1.1169   -1.0050 H   0  0  0  0  0  0  0  0  0  0  0  0
   -0.4771   -2.6934   -0.9969 H   0  0  0  0  0  0  0  0  0  0  0  0
  1  2  1  0
  1  4  1  0
  1  5  1  0
  2  3  1  0
  2  6  1  0
  2  7  1  0
  3  8  1  0
  3  9  1  0
  3 10  1  0
 11 12  1  0
 11 15  1  0
 11 16  1  0
 11 17  1  0
 12 13  1  0
 13 14  1  0
 13 18  1  0
 13 19  1  0
 14 20  1  0
 14 21  1  0
 14 22  1  0
M  RAD  1   1   2
M  END
>  <reaction>  (16) 
rmg_rxn_550

>  <mol_properties>  (16) 
{"0": {"label": "*3", "atom_type": "Cs"}, "1": {"label": "*4", "atom_type": "Cs"}, "10": {"label": "*1", "atom_type": "Cs"}, "11": {"label": "*0", "atom_type": "S2s"}, "14": {"label": "*2", "atom_type": "H0"}}

>  <type>  (16) 
unop_12

>  <geom_source>  (16) 
Heuristics

$$$$

     RDKit          3D

 22 20  0  0  0  0  0  0  0  0999 V2000
    1.2672   -0.5727   -0.9185 S   0  0  0  0  0  0  0  0  0  0  0  0
   -2.9966    0.6604   -0.2392 C   0  0  0  0  0  0  0  0  0  0  0  0
    2.5541   -1.1094    0.2639 C   0  0  0  0  0  0  0  0  0  0  0  0
   -3.0035   -0.5788    0.6497 C   0  0  0  0  0  0  0  0  0  0  0  0
   -1.6872    0.7773   -1.0111 C   0  0  0  0  0  0  0  0  0  0  0  0
    3.8571   -0.3582    0.0232 C   0  0  0  0  0  0  0  0  0  0  0  0
    0.6763    0.8378    0.0727 C   0  0  0  0  0  3  0  0  0  0  0  0
   -3.1300    1.5650    0.3920 H   0  0  0  0  0  0  0  0  0  0  0  0
   -3.8431    0.6032   -0.9571 H   0  0  0  0  0  0  0  0  0  0  0  0
    2.2187   -0.9667    1.3132 H   0  0  0  0  0  0  0  0  0  0  0  0
    2.7342   -2.1940    0.1089 H   0  0  0  0  0  0  0  0  0  0  0  0
   -2.8902   -1.4964    0.0337 H   0  0  0  0  0  0  0  0  0  0  0  0
   -2.1759   -0.5283    1.3891 H   0  0  0  0  0  0  0  0  0  0  0  0
   -3.9669   -0.6366    1.1987 H   0  0  0  0  0  0  0  0  0  0  0  0
   -1.7070    1.6910   -1.6417 H   0  0  0  0  0  0  0  0  0  0  0  0
   -1.5462   -0.1067   -1.6691 H   0  0  0  0  0  0  0  0  0  0  0  0
   -0.6829    0.8626   -0.1800 H   0  0  0  0  0  0  0  0  0  0  0  0
    3.7220    0.7271    0.2094 H   0  0  0  0  0  0  0  0  0  0  0  0
    4.6388   -0.7404    0.7130 H   0  0  0  0  0  0  0  0  0  0  0  0
    4.1988   -0.5108   -1.0225 H   0  0  0  0  0  0  0  0  0  0  0  0
    1.4831    1.5836    0.2224 H   0  0  0  0  0  0  0  0  0  0  0  0
    0.2794    0.4910    1.0493 H   0  0  0  0  0  0  0  0  0  0  0  0
  1  7  1  0
  1  3  1  0
  2  4  1  0
  2  5  1  0
  2  8  1  0
  2  9  1  0
  3  6  1  0
  3 10  1  0
  3 11  1  0
  4 12  1  0
  4 13  1  0
  4 14  1  0
  5 15  1  0
  5 16  1  0
  5 17  1  0
  6 18  1  0
  6 19  1  0
  6 20  1  0
  7 21  1  0
  7 22  1  0
M  RAD  1   7   2
M  END
>  <reaction>  (17) 
rmg_rxn_550

>  <mol_properties>  (17) 
{"0": {"label": "*3", "atom_type": "Cs"}, "1": {"label": "*4", "atom_type": "Cs"}, "10": {"label": "*1", "atom_type": "Cs"}, "11": {"label": "*0", "atom_type": "S2s"}, "14": {"label": "*2", "atom_type": "H0"}}

>  <type>  (17) 
unop_13

>  <geom_source>  (17) 
AutoTST

$$$$

     RDKit          3D

 22 20  0  0  0  0  0  0  0  0999 V2000
    1.4025    0.7016   -1.4478 C   0  0  0  0  0  3  0  0  0  0  0  0
    0.0650    1.0882   -2.0659 C   0  0  0  0  0  0  0  0  0  0  0  0
   -0.7056    2.0913   -1.2171 C   0  0  0  0  0  0  0  0  0  0  0  0
    1.9391   -0.0169   -2.0696 H   0  0  0  0  0  0  0  0  0  0  0  0
    2.0423    1.5784   -1.3213 H   0  0  0  0  0  0  0  0  0  0  0  0
    0.2318    1.5067   -3.0623 H   0  0  0  0  0  0  0  0  0  0  0  0
   -0.5426    0.1904   -2.2098 H   0  0  0  0  0  0  0  0  0  0  0  0
   -0.1323    3.0118   -1.0834 H   0  0  0  0  0  0  0  0  0  0  0  0
   -1.6599    2.3556   -1.6759 H   0  0  0  0  0  0  0  0  0  0  0  0
   -0.9128    1.6851   -0.2241 H   0  0  0  0  0  0  0  0  0  0  0  0
    1.1725    0.3498    1.1369 C   0  0  0  0  0  0  0  0  0  0  0  0
   -0.4706   -0.2290    1.5947 S   0  0  0  0  0  0  0  0  0  0  0  0
   -0.4706   -1.8692    0.8310 C   0  0  0  0  0  0  0  0  0  0  0  0
   -0.4706   -1.8692   -0.6893 C   0  0  0  0  0  0  0  0  0  0  0  0
    1.2873    0.5255   -0.1535 H   0  0  0  0  0  0  0  0  0  0  0  0
    1.9395   -0.3432    1.4850 H   0  0  0  0  0  0  0  0  0  0  0  0
    1.3190    1.3092    1.6312 H   0  0  0  0  0  0  0  0  0  0  0  0
   -1.3747   -2.3471    1.2120 H   0  0  0  0  0  0  0  0  0  0  0  0
    0.3786   -2.4340    1.2223 H   0  0  0  0  0  0  0  0  0  0  0  0
    0.4364   -1.4130   -1.0886 H   0  0  0  0  0  0  0  0  0  0  0  0
   -1.3266   -1.3159   -1.0771 H   0  0  0  0  0  0  0  0  0  0  0  0
   -0.5191   -2.8924   -1.0689 H   0  0  0  0  0  0  0  0  0  0  0  0
  1  2  1  0
  1  4  1  0
  1  5  1  0
  2  3  1  0
  2  6  1  0
  2  7  1  0
  3  8  1  0
  3  9  1  0
  3 10  1  0
 11 12  1  0
 11 15  1  0
 11 16  1  0
 11 17  1  0
 12 13  1  0
 13 14  1  0
 13 18  1  0
 13 19  1  0
 14 20  1  0
 14 21  1  0
 14 22  1  0
M  RAD  1   1   2
M  END
>  <reaction>  (18) 
rmg_rxn_550

>  <mol_properties>  (18) 
{"0": {"label": "*3", "atom_type": "Cs"}, "1": {"label": "*4", "atom_type": "Cs"}, "10": {"label": "*1", "atom_type": "Cs"}, "11": {"label": "*0", "atom_type": "S2s"}, "14": {"label": "*2", "atom_type": "H0"}}

>  <type>  (18) 
unop_14

>  <geom_source>  (18) 
gaussian_log

$$$$
