
     RDKit          3D

  9  8  0  0  0  0  0  0  0  0999 V2000
   -1.5470   -0.0755   -0.1976 C   0  0  0  0  0  0  0  0  0  0  0  0
   -0.2885    0.4507    0.1749 O   0  0  0  0  0  0  0  0  0  0  0  0
   -0.1502    1.7216   -0.3294 N   0  0  0  0  0  0  0  0  0  0  0  0
    0.9626    2.2353   -0.0219 C   0  0  0  0  0  0  0  0  0  0  0  0
   -1.6392   -0.1356   -1.2844 H   0  0  0  0  0  0  0  0  0  0  0  0
   -2.3597    0.5337    0.2044 H   0  0  0  0  0  0  0  0  0  0  0  0
   -1.5879   -1.0750    0.2318 H   0  0  0  0  0  0  0  0  0  0  0  0
    1.1497    3.2381   -0.3820 H   0  0  0  0  0  0  0  0  0  0  0  0
    1.7060    1.7101    0.5739 H   0  0  0  0  0  0  0  0  0  0  0  0
  1  2  1  0
  1  5  1  0
  1  6  1  0
  1  7  1  0
  2  3  1  0
  3  4  2  3
  4  8  1  0
  4  9  1  0
M  END
>  <reaction>  (1) 
rmg_rxn_15688

>  <mol_properties>  (1) 
{"0": {"label": "donator", "atom_type": "Cs"}, "4": {"label": "d_hydrogen", "atom_type": "H0"}}

>  <type>  (1) 
r1h

$$$$

     RDKit          3D

  9  8  0  0  0  0  0  0  0  0999 V2000
    1.2172    0.4579   -0.1964 C   0  0  0  0  0  3  0  0  0  0  0  0
    0.1414   -0.5234    0.0523 C   0  0  0  0  0  0  0  0  0  0  0  0
    0.5861   -1.9610    0.1321 C   0  0  0  0  0  0  0  0  0  0  0  0
    1.7162   -2.3406    0.0105 O   0  0  0  0  0  0  0  0  0  0  0  0
    0.9857    1.5106   -0.2681 H   0  0  0  0  0  0  0  0  0  0  0  0
    2.2392    0.1268   -0.3076 H   0  0  0  0  0  0  0  0  0  0  0  0
   -0.6447   -0.4809   -0.7179 H   0  0  0  0  0  0  0  0  0  0  0  0
   -0.4048   -0.3122    0.9851 H   0  0  0  0  0  0  0  0  0  0  0  0
   -0.2343   -2.6846    0.3193 H   0  0  0  0  0  0  0  0  0  0  0  0
  1  2  1  0
  1  5  1  0
  1  6  1  0
  2  3  1  0
  2  7  1  0
  2  8  1  0
  3  4  2  0
  3  9  1  0
M  RAD  1   1   2
M  END
>  <reaction>  (2) 
rmg_rxn_15688

>  <mol_properties>  (2) 
{"0": {"label": "acceptor", "atom_type": "Cs"}}

>  <type>  (2) 
r2

$$$$

     RDKit          3D

 10  9  0  0  0  0  0  0  0  0999 V2000
   -1.1238    0.2714    0.2496 C   0  0  0  0  0  0  0  0  0  0  0  0
    0.0881   -0.5850   -0.0680 C   0  0  0  0  0  0  0  0  0  0  0  0
   -0.0512   -1.4242   -1.3070 C   0  0  0  0  0  0  0  0  0  0  0  0
   -1.0187   -1.4480   -2.0158 O   0  0  0  0  0  0  0  0  0  0  0  0
   -2.0096   -0.3470    0.3939 H   0  0  0  0  0  0  0  0  0  0  0  0
   -0.9564    0.8523    1.1567 H   0  0  0  0  0  0  0  0  0  0  0  0
   -1.3376    0.9606   -0.5673 H   0  0  0  0  0  0  0  0  0  0  0  0
    0.3267   -1.2715    0.7528 H   0  0  0  0  0  0  0  0  0  0  0  0
    0.9917    0.0222   -0.1983 H   0  0  0  0  0  0  0  0  0  0  0  0
    0.8330   -2.0534   -1.5447 H   0  0  0  0  0  0  0  0  0  0  0  0
  1  2  1  0
  1  5  1  0
  1  6  1  0
  1  7  1  0
  2  3  1  0
  2  8  1  0
  2  9  1  0
  3  4  2  0
  3 10  1  0
M  END
>  <reaction>  (3) 
rmg_rxn_15688

>  <mol_properties>  (3) 
{"0": {"label": "a_hydrogen", "atom_type": "H0"}, "1": {"label": "acceptor", "atom_type": "Cs"}}

>  <type>  (3) 
r2h

$$$$

     RDKit          3D

 18 16  0  0  0  0  0  0  0  0999 V2000
   -0.3093    1.6110   -0.7226 C   0  0  0  0  0  0  0  0  0  0  0  0
   -0.3492    0.5222   -1.5894 O   0  0  0  0  0  0  0  0  0  0  0  0
   -1.5859   -0.0829   -1.5535 N   0  0  0  0  0  0  0  0  0  0  0  0
   -1.6395   -1.0841   -2.3238 C   0  0  0  0  0  0  0  0  0  0  0  0
   -0.3088    1.1421    0.5130 H   0  0  0  0  0  0  0  0  0  0  0  0
   -1.1815    2.2581   -0.8108 H   0  0  0  0  0  0  0  0  0  0  0  0
    0.6460    2.1092   -0.8554 H   0  0  0  0  0  0  0  0  0  0  0  0
   -2.5807   -1.6162   -2.3598 H   0  0  0  0  0  0  0  0  0  0  0  0
   -0.7948   -1.4034   -2.9302 H   0  0  0  0  0  0  0  0  0  0  0  0
   -0.2474    0.4411    1.6912 C   0  0  0  0  0  3  0  0  0  0  0  0
    0.4024   -0.8628    1.3350 C   0  0  0  0  0  0  0  0  0  0  0  0
    1.8031   -0.7414    0.8018 C   0  0  0  0  0  0  0  0  0  0  0  0
    2.4241    0.2820    0.7186 O   0  0  0  0  0  0  0  0  0  0  0  0
   -1.2834    0.3568    2.0078 H   0  0  0  0  0  0  0  0  0  0  0  0
    0.3449    1.0871    2.3339 H   0  0  0  0  0  0  0  0  0  0  0  0
   -0.1809   -1.4101    0.5855 H   0  0  0  0  0  0  0  0  0  0  0  0
    0.4639   -1.5466    2.1951 H   0  0  0  0  0  0  0  0  0  0  0  0
    2.2609   -1.7015    0.4828 H   0  0  0  0  0  0  0  0  0  0  0  0
  1  2  1  0
  1  5  1  0
  1  6  1  0
  1  7  1  0
  2  3  1  0
  3  4  2  3
  4  8  1  0
  4  9  1  0
 10 11  1  0
 10 14  1  0
 10 15  1  0
 11 12  1  0
 11 16  1  0
 11 17  1  0
 12 13  2  0
 12 18  1  0
M  RAD  1  10   2
M  END
>  <reaction>  (4) 
rmg_rxn_15688

>  <mol_properties>  (4) 
{"0": {"label": "*1", "atom_type": "Cs"}, "1": {"label": "*0", "atom_type": "O2s"}, "4": {"label": "*2", "atom_type": "H0"}, "9": {"label": "*3", "atom_type": "Cs"}, "10": {"label": "*4", "atom_type": "Cs"}}

>  <type>  (4) 
ts

$$$$

     RDKit          3D

 18 16  0  0  0  0  0  0  0  0999 V2000
   -0.5559    1.9626    0.3004 C   0  0  0  0  0  3  0  0  0  0  0  0
   -1.1629    0.7535    0.5766 O   0  0  0  0  0  0  0  0  0  0  0  0
   -1.6258    0.1196   -0.5652 N   0  0  0  0  0  0  0  0  0  0  0  0
   -2.1072   -1.0333   -0.3906 C   0  0  0  0  0  0  0  0  0  0  0  0
    0.7405    1.7026    0.0145 H   0  0  0  0  0  0  0  0  0  0  0  0
   -0.5643    2.5688    1.1993 H   0  0  0  0  0  0  0  0  0  0  0  0
   -0.9516    2.4565   -0.5828 H   0  0  0  0  0  0  0  0  0  0  0  0
   -2.4682   -1.5365   -1.2695 H   0  0  0  0  0  0  0  0  0  0  0  0
   -2.1707   -1.5324    0.5697 H   0  0  0  0  0  0  0  0  0  0  0  0
    1.9368    1.2835   -0.2584 C   0  0  0  0  0  0  0  0  0  0  0  0
    1.8163   -0.1790   -0.6100 C   0  0  0  0  0  0  0  0  0  0  0  0
    1.2114   -0.9936    0.4982 C   0  0  0  0  0  0  0  0  0  0  0  0
    0.5506   -1.9828    0.3469 O   0  0  0  0  0  0  0  0  0  0  0  0
    2.5270    1.4586    0.6348 H   0  0  0  0  0  0  0  0  0  0  0  0
    2.2875    1.8880   -1.0863 H   0  0  0  0  0  0  0  0  0  0  0  0
    2.8106   -0.6127   -0.7892 H   0  0  0  0  0  0  0  0  0  0  0  0
    1.2316   -0.3230   -1.5212 H   0  0  0  0  0  0  0  0  0  0  0  0
    1.4455   -0.6127    1.5120 H   0  0  0  0  0  0  0  0  0  0  0  0
  1  2  1  0
  1  6  1  0
  1  7  1  0
  2  3  1  0
  3  4  2  3
  4  8  1  0
  4  9  1  0
  5 10  1  0
 10 11  1  0
 10 14  1  0
 10 15  1  0
 11 12  1  0
 11 16  1  0
 11 17  1  0
 12 13  2  0
 12 18  1  0
M  RAD  1   1   2
M  END
>  <reaction>  (5) 
rmg_rxn_15688

>  <mol_properties>  (5) 
{"0": {"label": "*1", "atom_type": "Cs"}, "1": {"label": "*0", "atom_type": "O2s"}, "4": {"label": "*2", "atom_type": "H0"}, "9": {"label": "*3", "atom_type": "Cs"}, "10": {"label": "*4", "atom_type": "Cs"}}

>  <type>  (5) 
unop_1

>  <geom_source>  (5) 
crest_best.xyz

$$$$

     RDKit          3D

 18 16  0  0  0  0  0  0  0  0999 V2000
   -1.4888    0.8672   -0.3004 C   0  0  0  0  0  3  0  0  0  0  0  0
   -1.4888    0.9251   -1.7133 O   0  0  0  0  0  0  0  0  0  0  0  0
   -1.4888   -0.3488   -2.2290 N   0  0  0  0  0  0  0  0  0  0  0  0
   -1.4888   -0.3488   -3.4927 C   0  0  0  0  0  0  0  0  0  0  0  0
   -0.4182    0.2550    0.1437 H   0  0  0  0  0  0  0  0  0  0  0  0
   -2.3809    0.3570    0.0697 H   0  0  0  0  0  0  0  0  0  0  0  0
   -1.4888    1.9021    0.0374 H   0  0  0  0  0  0  0  0  0  0  0  0
   -1.4888   -1.3158   -3.9775 H   0  0  0  0  0  0  0  0  0  0  0  0
   -1.4888    0.5677   -4.0788 H   0  0  0  0  0  0  0  0  0  0  0  0
    0.6502   -0.3559    0.5869 C   0  0  0  0  0  0  0  0  0  0  0  0
    1.4611    0.5652    1.4797 C   0  0  0  0  0  0  0  0  0  0  0  0
    2.0543   -0.1038    2.6879 C   0  0  0  0  0  0  0  0  0  0  0  0
    1.9248   -1.2640    2.9640 O   0  0  0  0  0  0  0  0  0  0  0  0
    1.2641   -1.1762    0.2150 H   0  0  0  0  0  0  0  0  0  0  0  0
   -0.1823   -0.7956    1.1359 H   0  0  0  0  0  0  0  0  0  0  0  0
    0.8612    1.4060    1.8475 H   0  0  0  0  0  0  0  0  0  0  0  0
    2.2924    1.0294    0.9362 H   0  0  0  0  0  0  0  0  0  0  0  0
    2.6490    0.5655    3.3454 H   0  0  0  0  0  0  0  0  0  0  0  0
  1  2  1  0
  1  6  1  0
  1  7  1  0
  2  3  1  0
  3  4  2  3
  4  8  1  0
  4  9  1  0
  5 10  1  0
 10 11  1  0
 10 14  1  0
 10 15  1  0
 11 12  1  0
 11 16  1  0
 11 17  1  0
 12 13  2  0
 12 18  1  0
M  RAD  1   1   2
M  END
>  <reaction>  (6) 
rmg_rxn_15688

>  <mol_properties>  (6) 
{"0": {"label": "*1", "atom_type": "Cs"}, "1": {"label": "*0", "atom_type": "O2s"}, "4": {"label": "*2", "atom_type": "H0"}, "9": {"label": "*3", "atom_type": "Cs"}, "10": {"label": "*4", "atom_type": "Cs"}}

>  <type>  (6) 
unop_2

>  <geom_source>  (6) 
Heuristics

$$$$

     RDKit          3D

 18 16  0  0  0  0  0  0  0  0999 V2000
   -1.2171   -1.8374   -0.2394 C   0  0  0  0  0  3  0  0  0  0  0  0
   -1.4736   -0.5430   -0.4711 O   0  0  0  0  0  0  0  0  0  0  0  0
   -1.5180    0.2383    0.6700 N   0  0  0  0  0  0  0  0  0  0  0  0
   -1.6186    1.4848    0.4661 C   0  0  0  0  0  0  0  0  0  0  0  0
    2.6494    0.3605    1.3775 H   0  0  0  0  0  0  0  0  0  0  0  0
   -1.2254   -2.2032    0.7711 H   0  0  0  0  0  0  0  0  0  0  0  0
   -1.3722   -2.4691   -1.0920 H   0  0  0  0  0  0  0  0  0  0  0  0
   -1.6449    2.1075    1.3414 H   0  0  0  0  0  0  0  0  0  0  0  0
   -1.6767    1.9432   -0.5138 H   0  0  0  0  0  0  0  0  0  0  0  0
    1.9896   -0.4980    1.2373 C   0  0  0  0  0  0  0  0  0  0  0  0
    1.6959   -0.7793   -0.2209 C   0  0  0  0  0  0  0  0  0  0  0  0
    1.2022    0.4247   -0.9584 C   0  0  0  0  0  0  0  0  0  0  0  0
    0.9608    1.5001   -0.4747 O   0  0  0  0  0  0  0  0  0  0  0  0
    1.1670   -0.0400    1.7430 H   0  0  0  0  0  0  0  0  0  0  0  0
    2.3567   -1.3655    1.7693 H   0  0  0  0  0  0  0  0  0  0  0  0
    0.9003   -1.5465   -0.3043 H   0  0  0  0  0  0  0  0  0  0  0  0
    2.5736   -1.1714   -0.7402 H   0  0  0  0  0  0  0  0  0  0  0  0
    1.0537    0.2442   -2.0427 H   0  0  0  0  0  0  0  0  0  0  0  0
  1  2  1  0
  1  6  1  0
  1  7  1  0
  2  3  1  0
  3  4  2  3
  4  8  1  0
  4  9  1  0
  5 10  1  0
 10 11  1  0
 10 14  1  0
 10 15  1  0
 11 12  1  0
 11 16  1  0
 11 17  1  0
 12 13  2  0
 12 18  1  0
M  RAD  1   1   2
M  END
>  <reaction>  (7) 
rmg_rxn_15688

>  <mol_properties>  (7) 
{"0": {"label": "*1", "atom_type": "Cs"}, "1": {"label": "*0", "atom_type": "O2s"}, "4": {"label": "*2", "atom_type": "H0"}, "9": {"label": "*3", "atom_type": "Cs"}, "10": {"label": "*4", "atom_type": "Cs"}}

>  <type>  (7) 
unop_3

>  <geom_source>  (7) 
Heuristics

$$$$

     RDKit          3D

 18 16  0  0  0  0  0  0  0  0999 V2000
   -1.8550    0.9298    0.4287 C   0  0  0  0  0  3  0  0  0  0  0  0
   -1.8550    0.9877   -0.9842 O   0  0  0  0  0  0  0  0  0  0  0  0
   -1.8550   -0.2861   -1.5000 N   0  0  0  0  0  0  0  0  0  0  0  0
   -1.8550   -0.2861   -2.7636 C   0  0  0  0  0  0  0  0  0  0  0  0
   -0.7844    0.3177    0.8728 H   0  0  0  0  0  0  0  0  0  0  0  0
   -2.7471    0.4196    0.7988 H   0  0  0  0  0  0  0  0  0  0  0  0
   -1.8550    1.9647    0.7665 H   0  0  0  0  0  0  0  0  0  0  0  0
   -1.8550   -1.2532   -3.2484 H   0  0  0  0  0  0  0  0  0  0  0  0
   -1.8550    0.6303   -3.3497 H   0  0  0  0  0  0  0  0  0  0  0  0
    0.2840   -0.2933    1.3160 C   0  0  0  0  0  0  0  0  0  0  0  0
    1.4497   -0.0884    0.3661 C   0  0  0  0  0  0  0  0  0  0  0  0
    2.7983   -0.3691    0.9674 C   0  0  0  0  0  0  0  0  0  0  0  0
    2.9862   -0.7267    2.0969 O   0  0  0  0  0  0  0  0  0  0  0  0
    0.2528   -1.3212    1.6771 H   0  0  0  0  0  0  0  0  0  0  0  0
    0.3742    0.3551    2.1874 H   0  0  0  0  0  0  0  0  0  0  0  0
    1.4837    0.9372   -0.0199 H   0  0  0  0  0  0  0  0  0  0  0  0
    1.3637   -0.7215   -0.5249 H   0  0  0  0  0  0  0  0  0  0  0  0
    3.6557   -0.2209    0.2767 H   0  0  0  0  0  0  0  0  0  0  0  0
  1  2  1  0
  1  6  1  0
  1  7  1  0
  2  3  1  0
  3  4  2  3
  4  8  1  0
  4  9  1  0
  5 10  1  0
 10 11  1  0
 10 14  1  0
 10 15  1  0
 11 12  1  0
 11 16  1  0
 11 17  1  0
 12 13  2  0
 12 18  1  0
M  RAD  1   1   2
M  END
>  <reaction>  (8) 
rmg_rxn_15688

>  <mol_properties>  (8) 
{"0": {"label": "*1", "atom_type": "Cs"}, "1": {"label": "*0", "atom_type": "O2s"}, "4": {"label": "*2", "atom_type": "H0"}, "9": {"label": "*3", "atom_type": "Cs"}, "10": {"label": "*4", "atom_type": "Cs"}}

>  <type>  (8) 
unop_4

>  <geom_source>  (8) 
Heuristics

$$$$

     RDKit          3D

 18 16  0  0  0  0  0  0  0  0999 V2000
   -0.8352    0.8105    0.9372 C   0  0  0  0  0  3  0  0  0  0  0  0
   -2.0793    0.8091    0.3409 O   0  0  0  0  0  0  0  0  0  0  0  0
   -2.5519   -0.2729   -0.3206 N   0  0  0  0  0  0  0  0  0  0  0  0
   -1.8430   -1.2956   -0.5402 C   0  0  0  0  0  0  0  0  0  0  0  0
    0.1258    0.9762   -0.0004 H   0  0  0  0  0  0  0  0  0  0  0  0
   -0.5673   -0.1125    1.4485 H   0  0  0  0  0  0  0  0  0  0  0  0
   -0.7821    1.6905    1.5686 H   0  0  0  0  0  0  0  0  0  0  0  0
   -2.3398   -2.0925   -1.0663 H   0  0  0  0  0  0  0  0  0  0  0  0
   -0.8030   -1.4417   -0.2659 H   0  0  0  0  0  0  0  0  0  0  0  0
    1.0502    1.1279   -0.8946 C   0  0  0  0  0  0  0  0  0  0  0  0
    2.3738    0.7846   -0.2592 C   0  0  0  0  0  0  0  0  0  0  0  0
    2.4252   -0.6029    0.3085 C   0  0  0  0  0  0  0  0  0  0  0  0
    1.5148   -1.3845    0.3355 O   0  0  0  0  0  0  0  0  0  0  0  0
    0.9898    2.1613   -1.2142 H   0  0  0  0  0  0  0  0  0  0  0  0
    0.7882    0.4507   -1.7001 H   0  0  0  0  0  0  0  0  0  0  0  0
    2.6126    1.4780    0.5533 H   0  0  0  0  0  0  0  0  0  0  0  0
    3.1943    0.8635   -0.9836 H   0  0  0  0  0  0  0  0  0  0  0  0
    3.4173   -0.8728    0.7219 H   0  0  0  0  0  0  0  0  0  0  0  0
  1  2  1  0
  1  6  1  0
  1  7  1  0
  2  3  1  0
  3  4  2  3
  4  8  1  0
  4  9  1  0
  5 10  1  0
 10 11  1  0
 10 14  1  0
 10 15  1  0
 11 12  1  0
 11 16  1  0
 11 17  1  0
 12 13  2  0
 12 18  1  0
M  RAD  1   1   2
M  END
>  <reaction>  (9) 
rmg_rxn_15688

>  <mol_properties>  (9) 
{"0": {"label": "*1", "atom_type": "Cs"}, "1": {"label": "*0", "atom_type": "O2s"}, "4": {"label": "*2", "atom_type": "H0"}, "9": {"label": "*3", "atom_type": "Cs"}, "10": {"label": "*4", "atom_type": "Cs"}}

>  <type>  (9) 
unop_5

>  <geom_source>  (9) 
Heuristics

$$$$

     RDKit          3D

 18 16  0  0  0  0  0  0  0  0999 V2000
   -1.4166    1.0882   -0.3136 C   0  0  0  0  0  3  0  0  0  0  0  0
   -1.4166    1.1461   -1.7265 O   0  0  0  0  0  0  0  0  0  0  0  0
   -1.4166   -0.1278   -2.2422 N   0  0  0  0  0  0  0  0  0  0  0  0
   -1.4166   -0.1278   -3.5058 C   0  0  0  0  0  0  0  0  0  0  0  0
   -0.3460    0.4760    0.1305 H   0  0  0  0  0  0  0  0  0  0  0  0
   -2.3087    0.5780    0.0565 H   0  0  0  0  0  0  0  0  0  0  0  0
   -1.4166    2.1231    0.0242 H   0  0  0  0  0  0  0  0  0  0  0  0
   -1.4166   -1.0948   -3.9907 H   0  0  0  0  0  0  0  0  0  0  0  0
   -1.4166    0.7887   -4.0920 H   0  0  0  0  0  0  0  0  0  0  0  0
    0.7224   -0.1349    0.5737 C   0  0  0  0  0  0  0  0  0  0  0  0
    1.1186    0.4021    1.9367 C   0  0  0  0  0  0  0  0  0  0  0  0
    1.8350   -0.5886    2.8110 C   0  0  0  0  0  0  0  0  0  0  0  0
    2.0936   -1.7181    2.5007 O   0  0  0  0  0  0  0  0  0  0  0  0
    1.5992   -0.4619    0.0149 H   0  0  0  0  0  0  0  0  0  0  0  0
    0.0601   -0.9949    0.6723 H   0  0  0  0  0  0  0  0  0  0  0  0
    0.2481    0.7519    2.5041 H   0  0  0  0  0  0  0  0  0  0  0  0
    1.7711    1.2792    1.8537 H   0  0  0  0  0  0  0  0  0  0  0  0
    2.1276   -0.2012    3.8102 H   0  0  0  0  0  0  0  0  0  0  0  0
  1  2  1  0
  1  6  1  0
  1  7  1  0
  2  3  1  0
  3  4  2  3
  4  8  1  0
  4  9  1  0
  5 10  1  0
 10 11  1  0
 10 14  1  0
 10 15  1  0
 11 12  1  0
 11 16  1  0
 11 17  1  0
 12 13  2  0
 12 18  1  0
M  RAD  1   1   2
M  END
>  <reaction>  (10) 
rmg_rxn_15688

>  <mol_properties>  (10) 
{"0": {"label": "*1", "atom_type": "Cs"}, "1": {"label": "*0", "atom_type": "O2s"}, "4": {"label": "*2", "atom_type": "H0"}, "9": {"label": "*3", "atom_type": "Cs"}, "10": {"label": "*4", "atom_type": "Cs"}}

>  <type>  (10) 
unop_6

>  <geom_source>  (10) 
Heuristics

$$$$

     RDKit          3D

 18 16  0  0  0  0  0  0  0  0999 V2000
   -1.3012    1.6320    0.1952 C   0  0  0  0  0  3  0  0  0  0  0  0
   -1.3012    1.6899   -1.2176 O   0  0  0  0  0  0  0  0  0  0  0  0
   -1.3012    0.4160   -1.7334 N   0  0  0  0  0  0  0  0  0  0  0  0
   -1.3012    0.4160   -2.9970 C   0  0  0  0  0  0  0  0  0  0  0  0
   -0.2306    1.0198    0.6394 H   0  0  0  0  0  0  0  0  0  0  0  0
   -2.1933    1.1218    0.5654 H   0  0  0  0  0  0  0  0  0  0  0  0
   -1.3012    2.6668    0.5331 H   0  0  0  0  0  0  0  0  0  0  0  0
   -1.3012   -0.5511   -3.4818 H   0  0  0  0  0  0  0  0  0  0  0  0
   -1.3012    1.3325   -3.5831 H   0  0  0  0  0  0  0  0  0  0  0  0
    0.8378    0.4088    1.0826 C   0  0  0  0  0  0  0  0  0  0  0  0
    0.9002   -1.0116    0.5520 C   0  0  0  0  0  0  0  0  0  0  0  0
    1.5539   -1.9946    1.4822 C   0  0  0  0  0  0  0  0  0  0  0  0
    2.0027   -1.7253    2.5616 O   0  0  0  0  0  0  0  0  0  0  0  0
    0.2790    0.4504    2.0174 H   0  0  0  0  0  0  0  0  0  0  0  0
    1.8377    0.7929    1.2839 H   0  0  0  0  0  0  0  0  0  0  0  0
    1.4443   -1.0667   -0.3982 H   0  0  0  0  0  0  0  0  0  0  0  0
   -0.0981   -1.4056    0.3276 H   0  0  0  0  0  0  0  0  0  0  0  0
    1.6026   -3.0362    1.0992 H   0  0  0  0  0  0  0  0  0  0  0  0
  1  2  1  0
  1  6  1  0
  1  7  1  0
  2  3  1  0
  3  4  2  3
  4  8  1  0
  4  9  1  0
  5 10  1  0
 10 11  1  0
 10 14  1  0
 10 15  1  0
 11 12  1  0
 11 16  1  0
 11 17  1  0
 12 13  2  0
 12 18  1  0
M  RAD  1   1   2
M  END
>  <reaction>  (11) 
rmg_rxn_15688

>  <mol_properties>  (11) 
{"0": {"label": "*1", "atom_type": "Cs"}, "1": {"label": "*0", "atom_type": "O2s"}, "4": {"label": "*2", "atom_type": "H0"}, "9": {"label": "*3", "atom_type": "Cs"}, "10": {"label": "*4", "atom_type": "Cs"}}

>  <type>  (11) 
unop_7

>  <geom_source>  (11) 
Heuristics

$$$$

     RDKit          3D

 18 16  0  0  0  0  0  0  0  0999 V2000
   -0.8334   -0.8077    0.9382 C   0  0  0  0  0  3  0  0  0  0  0  0
   -2.0783   -0.8087    0.3435 O   0  0  0  0  0  0  0  0  0  0  0  0
   -2.5522    0.2711   -0.3206 N   0  0  0  0  0  0  0  0  0  0  0  0
   -1.8441    1.2934   -0.5441 C   0  0  0  0  0  0  0  0  0  0  0  0
    0.1266   -0.9755   -0.0000 H   0  0  0  0  0  0  0  0  0  0  0  0
   -0.7790   -1.6859    1.5721 H   0  0  0  0  0  0  0  0  0  0  0  0
   -0.5654    0.1169    1.4466 H   0  0  0  0  0  0  0  0  0  0  0  0
   -2.3421    2.0888   -1.0712 H   0  0  0  0  0  0  0  0  0  0  0  0
   -0.8040    1.4410   -0.2707 H   0  0  0  0  0  0  0  0  0  0  0  0
    1.0503   -1.1283   -0.8947 C   0  0  0  0  0  0  0  0  0  0  0  0
    2.3742   -0.7836   -0.2606 C   0  0  0  0  0  0  0  0  0  0  0  0
    2.4247    0.6035    0.3081 C   0  0  0  0  0  0  0  0  0  0  0  0
    1.5132    1.3838    0.3372 O   0  0  0  0  0  0  0  0  0  0  0  0
    0.7876   -0.4526   -1.7012 H   0  0  0  0  0  0  0  0  0  0  0  0
    0.9901   -2.1622   -1.2126 H   0  0  0  0  0  0  0  0  0  0  0  0
    3.1941   -0.8610   -0.9860 H   0  0  0  0  0  0  0  0  0  0  0  0
    2.6148   -1.4773    0.5511 H   0  0  0  0  0  0  0  0  0  0  0  0
    3.4170    0.8743    0.7202 H   0  0  0  0  0  0  0  0  0  0  0  0
  1  2  1  0
  1  6  1  0
  1  7  1  0
  2  3  1  0
  3  4  2  3
  4  8  1  0
  4  9  1  0
  5 10  1  0
 10 11  1  0
 10 14  1  0
 10 15  1  0
 11 12  1  0
 11 16  1  0
 11 17  1  0
 12 13  2  0
 12 18  1  0
M  RAD  1   1   2
M  END
>  <reaction>  (12) 
rmg_rxn_15688

>  <mol_properties>  (12) 
{"0": {"label": "*1", "atom_type": "Cs"}, "1": {"label": "*0", "atom_type": "O2s"}, "4": {"label": "*2", "atom_type": "H0"}, "9": {"label": "*3", "atom_type": "Cs"}, "10": {"label": "*4", "atom_type": "Cs"}}

>  <type>  (12) 
unop_8

>  <geom_source>  (12) 
Heuristics

$$$$

     RDKit          3D

 18 16  0  0  0  0  0  0  0  0999 V2000
   -1.4726    1.1469   -0.2601 C   0  0  0  0  0  3  0  0  0  0  0  0
   -1.4726    1.2048   -1.6730 O   0  0  0  0  0  0  0  0  0  0  0  0
   -1.4726   -0.0691   -2.1888 N   0  0  0  0  0  0  0  0  0  0  0  0
   -1.4726   -0.0691   -3.4524 C   0  0  0  0  0  0  0  0  0  0  0  0
   -0.4020    0.5347    0.1840 H   0  0  0  0  0  0  0  0  0  0  0  0
   -2.3647    0.6367    0.1100 H   0  0  0  0  0  0  0  0  0  0  0  0
   -1.4726    2.1818    0.0777 H   0  0  0  0  0  0  0  0  0  0  0  0
   -1.4726   -1.0362   -3.9372 H   0  0  0  0  0  0  0  0  0  0  0  0
   -1.4726    0.8474   -4.0385 H   0  0  0  0  0  0  0  0  0  0  0  0
    0.6664   -0.0763    0.6272 C   0  0  0  0  0  0  0  0  0  0  0  0
    0.6587   -0.1342    2.1436 C   0  0  0  0  0  0  0  0  0  0  0  0
    1.8523   -0.8211    2.7456 C   0  0  0  0  0  0  0  0  0  0  0  0
    2.7583   -1.2981    2.1206 O   0  0  0  0  0  0  0  0  0  0  0  0
    1.5449    0.4563    0.2630 H   0  0  0  0  0  0  0  0  0  0  0  0
    0.6933   -1.0786    0.2001 H   0  0  0  0  0  0  0  0  0  0  0  0
   -0.2290   -0.6517    2.5259 H   0  0  0  0  0  0  0  0  0  0  0  0
    0.6136    0.8671    2.5881 H   0  0  0  0  0  0  0  0  0  0  0  0
    1.8524   -0.8666    3.8556 H   0  0  0  0  0  0  0  0  0  0  0  0
  1  2  1  0
  1  6  1  0
  1  7  1  0
  2  3  1  0
  3  4  2  3
  4  8  1  0
  4  9  1  0
  5 10  1  0
 10 11  1  0
 10 14  1  0
 10 15  1  0
 11 12  1  0
 11 16  1  0
 11 17  1  0
 12 13  2  0
 12 18  1  0
M  RAD  1   1   2
M  END
>  <reaction>  (13) 
rmg_rxn_15688

>  <mol_properties>  (13) 
{"0": {"label": "*1", "atom_type": "Cs"}, "1": {"label": "*0", "atom_type": "O2s"}, "4": {"label": "*2", "atom_type": "H0"}, "9": {"label": "*3", "atom_type": "Cs"}, "10": {"label": "*4", "atom_type": "Cs"}}

>  <type>  (13) 
unop_9

>  <geom_source>  (13) 
Heuristics

$$$$

     RDKit          3D

 18 16  0  0  0  0  0  0  0  0999 V2000
   -1.2196    1.8368   -0.2395 C   0  0  0  0  0  3  0  0  0  0  0  0
   -1.4719    0.5416   -0.4710 O   0  0  0  0  0  0  0  0  0  0  0  0
   -1.5168   -0.2392    0.6704 N   0  0  0  0  0  0  0  0  0  0  0  0
   -1.6158   -1.4859    0.4670 C   0  0  0  0  0  0  0  0  0  0  0  0
    2.6484   -0.3631    1.3776 H   0  0  0  0  0  0  0  0  0  0  0  0
   -1.2300    2.2033    0.7708 H   0  0  0  0  0  0  0  0  0  0  0  0
   -1.3735    2.4676   -1.0930 H   0  0  0  0  0  0  0  0  0  0  0  0
   -1.6423   -2.1082    1.3425 H   0  0  0  0  0  0  0  0  0  0  0  0
   -1.6726   -1.9448   -0.5128 H   0  0  0  0  0  0  0  0  0  0  0  0
    1.9874    0.4951    1.2395 C   0  0  0  0  0  0  0  0  0  0  0  0
    1.6959    0.7805   -0.2185 C   0  0  0  0  0  0  0  0  0  0  0  0
    1.2012   -0.4209   -0.9595 C   0  0  0  0  0  0  0  0  0  0  0  0
    0.9608   -1.4980   -0.4791 O   0  0  0  0  0  0  0  0  0  0  0  0
    2.3538    1.3615    1.7739 H   0  0  0  0  0  0  0  0  0  0  0  0
    1.1627    0.0375    1.7425 H   0  0  0  0  0  0  0  0  0  0  0  0
    2.5752    1.1718   -0.7358 H   0  0  0  0  0  0  0  0  0  0  0  0
    0.9023    1.5495   -0.3014 H   0  0  0  0  0  0  0  0  0  0  0  0
    1.0514   -0.2368   -2.0430 H   0  0  0  0  0  0  0  0  0  0  0  0
  1  2  1  0
  1  6  1  0
  1  7  1  0
  2  3  1  0
  3  4  2  3
  4  8  1  0
  4  9  1  0
  5 10  1  0
 10 11  1  0
 10 14  1  0
 10 15  1  0
 11 12  1  0
 11 16  1  0
 11 17  1  0
 12 13  2  0
 12 18  1  0
M  RAD  1   1   2
M  END
>  <reaction>  (14) 
rmg_rxn_15688

>  <mol_properties>  (14) 
{"0": {"label": "*1", "atom_type": "Cs"}, "1": {"label": "*0", "atom_type": "O2s"}, "4": {"label": "*2", "atom_type": "H0"}, "9": {"label": "*3", "atom_type": "Cs"}, "10": {"label": "*4", "atom_type": "Cs"}}

>  <type>  (14) 
unop_10

>  <geom_source>  (14) 
Heuristics

$$$$

     RDKit          3D

 18 16  0  0  0  0  0  0  0  0999 V2000
   -1.2005    1.5271   -0.0905 C   0  0  0  0  0  3  0  0  0  0  0  0
   -1.2005    1.5850   -1.5034 O   0  0  0  0  0  0  0  0  0  0  0  0
   -1.2005    0.3111   -2.0192 N   0  0  0  0  0  0  0  0  0  0  0  0
   -1.2005    0.3111   -3.2828 C   0  0  0  0  0  0  0  0  0  0  0  0
   -0.1299    0.9149    0.3536 H   0  0  0  0  0  0  0  0  0  0  0  0
   -2.0926    1.0169    0.2796 H   0  0  0  0  0  0  0  0  0  0  0  0
   -1.2005    2.5620    0.2473 H   0  0  0  0  0  0  0  0  0  0  0  0
   -1.2005   -0.6560   -3.7676 H   0  0  0  0  0  0  0  0  0  0  0  0
   -1.2005    1.2276   -3.8689 H   0  0  0  0  0  0  0  0  0  0  0  0
    0.9385    0.3039    0.7968 C   0  0  0  0  0  0  0  0  0  0  0  0
    0.6865   -1.1869    0.9271 C   0  0  0  0  0  0  0  0  0  0  0  0
    1.3036   -1.8177    2.1437 C   0  0  0  0  0  0  0  0  0  0  0  0
    1.9485   -1.2328    2.9689 O   0  0  0  0  0  0  0  0  0  0  0  0
    0.5420    0.8419    1.6578 H   0  0  0  0  0  0  0  0  0  0  0  0
    2.0067    0.5146    0.7452 H   0  0  0  0  0  0  0  0  0  0  0  0
    1.0642   -1.7400    0.0590 H   0  0  0  0  0  0  0  0  0  0  0  0
   -0.3851   -1.4161    0.9620 H   0  0  0  0  0  0  0  0  0  0  0  0
    1.1225   -2.9091    2.2445 H   0  0  0  0  0  0  0  0  0  0  0  0
  1  2  1  0
  1  6  1  0
  1  7  1  0
  2  3  1  0
  3  4  2  3
  4  8  1  0
  4  9  1  0
  5 10  1  0
 10 11  1  0
 10 14  1  0
 10 15  1  0
 11 12  1  0
 11 16  1  0
 11 17  1  0
 12 13  2  0
 12 18  1  0
M  RAD  1   1   2
M  END
>  <reaction>  (15) 
rmg_rxn_15688

>  <mol_properties>  (15) 
{"0": {"label": "*1", "atom_type": "Cs"}, "1": {"label": "*0", "atom_type": "O2s"}, "4": {"label": "*2", "atom_type": "H0"}, "9": {"label": "*3", "atom_type": "Cs"}, "10": {"label": "*4", "atom_type": "Cs"}}

>  <type>  (15) 
unop_11

>  <geom_source>  (15) 
Heuristics

$$$$

     RDKit          3D

 18 16  0  0  0  0  0  0  0  0999 V2000
   -0.5604   -1.9636    0.2963 C   0  0  0  0  0  3  0  0  0  0  0  0
   -1.1663   -0.7547    0.5756 O   0  0  0  0  0  0  0  0  0  0  0  0
   -1.6239   -0.1149   -0.5651 N   0  0  0  0  0  0  0  0  0  0  0  0
   -2.1045    1.0377   -0.3871 C   0  0  0  0  0  0  0  0  0  0  0  0
    0.7374   -1.7045    0.0152 H   0  0  0  0  0  0  0  0  0  0  0  0
   -0.9540   -2.4532   -0.5903 H   0  0  0  0  0  0  0  0  0  0  0  0
   -0.5726   -2.5736    1.1925 H   0  0  0  0  0  0  0  0  0  0  0  0
   -2.4605    1.5459   -1.2651 H   0  0  0  0  0  0  0  0  0  0  0  0
   -2.1709    1.5325    0.5752 H   0  0  0  0  0  0  0  0  0  0  0  0
    1.9348   -1.2867   -0.2542 C   0  0  0  0  0  0  0  0  0  0  0  0
    1.8161    0.1752   -0.6092 C   0  0  0  0  0  0  0  0  0  0  0  0
    1.2131    0.9932    0.4975 C   0  0  0  0  0  0  0  0  0  0  0  0
    0.5547    1.9837    0.3445 O   0  0  0  0  0  0  0  0  0  0  0  0
    2.2879   -1.8930   -1.0797 H   0  0  0  0  0  0  0  0  0  0  0  0
    2.5221   -1.4602    0.6412 H   0  0  0  0  0  0  0  0  0  0  0  0
    1.2310    0.3178   -1.5204 H   0  0  0  0  0  0  0  0  0  0  0  0
    2.8108    0.6071   -0.7901 H   0  0  0  0  0  0  0  0  0  0  0  0
    1.4461    0.6134    1.5120 H   0  0  0  0  0  0  0  0  0  0  0  0
  1  2  1  0
  1  6  1  0
  1  7  1  0
  2  3  1  0
  3  4  2  3
  4  8  1  0
  4  9  1  0
  5 10  1  0
 10 11  1  0
 10 14  1  0
 10 15  1  0
 11 12  1  0
 11 16  1  0
 11 17  1  0
 12 13  2  0
 12 18  1  0
M  RAD  1   1   2
M  END
>  <reaction>  (16) 
rmg_rxn_15688

>  <mol_properties>  (16) 
{"0": {"label": "*1", "atom_type": "Cs"}, "1": {"label": "*0", "atom_type": "O2s"}, "4": {"label": "*2", "atom_type": "H0"}, "9": {"label": "*3", "atom_type": "Cs"}, "10": {"label": "*4", "atom_type": "Cs"}}

>  <type>  (16) 
unop_12

>  <geom_source>  (16) 
Heuristics

$$$$

     RDKit          3D

 18 16  0  0  0  0  0  0  0  0999 V2000
   -1.2428    1.3105   -0.2823 C   0  0  0  0  0  3  0  0  0  0  0  0
   -1.2428    1.3684   -1.6951 O   0  0  0  0  0  0  0  0  0  0  0  0
   -1.2428    0.0946   -2.2109 N   0  0  0  0  0  0  0  0  0  0  0  0
   -1.2428    0.0946   -3.4745 C   0  0  0  0  0  0  0  0  0  0  0  0
   -0.1722    0.6983    0.1619 H   0  0  0  0  0  0  0  0  0  0  0  0
   -2.1349    0.8003    0.0879 H   0  0  0  0  0  0  0  0  0  0  0  0
   -1.2428    2.3454    0.0556 H   0  0  0  0  0  0  0  0  0  0  0  0
   -1.2428   -0.8725   -3.9593 H   0  0  0  0  0  0  0  0  0  0  0  0
   -1.2428    1.0110   -4.0606 H   0  0  0  0  0  0  0  0  0  0  0  0
    0.8962    0.0874    0.6051 C   0  0  0  0  0  0  0  0  0  0  0  0
    0.5143   -1.1412    1.4098 C   0  0  0  0  0  0  0  0  0  0  0  0
    1.3536   -1.3668    2.6361 C   0  0  0  0  0  0  0  0  0  0  0  0
    2.2585   -0.6626    2.9886 O   0  0  0  0  0  0  0  0  0  0  0  0
    0.8086    0.9904    1.2091 H   0  0  0  0  0  0  0  0  0  0  0  0
    1.9294    0.0230    0.2641 H   0  0  0  0  0  0  0  0  0  0  0  0
    0.5803   -2.0565    0.8098 H   0  0  0  0  0  0  0  0  0  0  0  0
   -0.5288   -1.0993    1.7448 H   0  0  0  0  0  0  0  0  0  0  0  0
    1.0787   -2.2648    3.2294 H   0  0  0  0  0  0  0  0  0  0  0  0
  1  2  1  0
  1  6  1  0
  1  7  1  0
  2  3  1  0
  3  4  2  3
  4  8  1  0
  4  9  1  0
  5 10  1  0
 10 11  1  0
 10 14  1  0
 10 15  1  0
 11 12  1  0
 11 16  1  0
 11 17  1  0
 12 13  2  0
 12 18  1  0
M  RAD  1   1   2
M  END
>  <reaction>  (17) 
rmg_rxn_15688

>  <mol_properties>  (17) 
{"0": {"label": "*1", "atom_type": "Cs"}, "1": {"label": "*0", "atom_type": "O2s"}, "4": {"label": "*2", "atom_type": "H0"}, "9": {"label": "*3", "atom_type": "Cs"}, "10": {"label": "*4", "atom_type": "Cs"}}

>  <type>  (17) 
unop_13

>  <geom_source>  (17) 
Heuristics

$$$$

     RDKit          3D

 18 16  0  0  0  0  0  0  0  0999 V2000
   -1.6565    0.7052   -0.1242 C   0  0  0  0  0  3  0  0  0  0  0  0
   -1.6565    0.7631   -1.5371 O   0  0  0  0  0  0  0  0  0  0  0  0
   -1.6565   -0.5108   -2.0528 N   0  0  0  0  0  0  0  0  0  0  0  0
   -1.6565   -0.5108   -3.3165 C   0  0  0  0  0  0  0  0  0  0  0  0
   -0.5859    0.0930    0.3199 H   0  0  0  0  0  0  0  0  0  0  0  0
   -2.5486    0.1950    0.2459 H   0  0  0  0  0  0  0  0  0  0  0  0
   -1.6565    1.7401    0.2136 H   0  0  0  0  0  0  0  0  0  0  0  0
   -1.6565   -1.4779   -3.8013 H   0  0  0  0  0  0  0  0  0  0  0  0
   -1.6565    0.4057   -3.9026 H   0  0  0  0  0  0  0  0  0  0  0  0
    0.4825   -0.5180    0.7631 C   0  0  0  0  0  0  0  0  0  0  0  0
    1.6077    0.4735    0.9951 C   0  0  0  0  0  0  0  0  0  0  0  0
    2.4270    0.2071    2.2267 C   0  0  0  0  0  0  0  0  0  0  0  0
    2.2444   -0.6994    2.9907 O   0  0  0  0  0  0  0  0  0  0  0  0
    0.8718   -1.5309    0.6614 H   0  0  0  0  0  0  0  0  0  0  0  0
   -0.2133   -0.5195    1.6020 H   0  0  0  0  0  0  0  0  0  0  0  0
    1.2330    1.5003    1.0816 H   0  0  0  0  0  0  0  0  0  0  0  0
    2.3067    0.4995    0.1508 H   0  0  0  0  0  0  0  0  0  0  0  0
    3.2524    0.9298    2.4018 H   0  0  0  0  0  0  0  0  0  0  0  0
  1  2  1  0
  1  6  1  0
  1  7  1  0
  2  3  1  0
  3  4  2  3
  4  8  1  0
  4  9  1  0
  5 10  1  0
 10 11  1  0
 10 14  1  0
 10 15  1  0
 11 12  1  0
 11 16  1  0
 11 17  1  0
 12 13  2  0
 12 18  1  0
M  RAD  1   1   2
M  END
>  <reaction>  (18) 
rmg_rxn_15688

>  <mol_properties>  (18) 
{"0": {"label": "*1", "atom_type": "Cs"}, "1": {"label": "*0", "atom_type": "O2s"}, "4": {"label": "*2", "atom_type": "H0"}, "9": {"label": "*3", "atom_type": "Cs"}, "10": {"label": "*4", "atom_type": "Cs"}}

>  <type>  (18) 
unop_14

>  <geom_source>  (18) 
Heuristics

$$$$

     RDKit          3D

 18 16  0  0  0  0  0  0  0  0999 V2000
   -0.5559    1.9626    0.3004 C   0  0  0  0  0  3  0  0  0  0  0  0
   -1.1629    0.7535    0.5766 O   0  0  0  0  0  0  0  0  0  0  0  0
   -1.6258    0.1196   -0.5652 N   0  0  0  0  0  0  0  0  0  0  0  0
   -2.1072   -1.0333   -0.3906 C   0  0  0  0  0  0  0  0  0  0  0  0
    0.7405    1.7026    0.0145 H   0  0  0  0  0  0  0  0  0  0  0  0
   -0.5643    2.5688    1.1993 H   0  0  0  0  0  0  0  0  0  0  0  0
   -0.9516    2.4565   -0.5828 H   0  0  0  0  0  0  0  0  0  0  0  0
   -2.4682   -1.5365   -1.2695 H   0  0  0  0  0  0  0  0  0  0  0  0
   -2.1707   -1.5324    0.5697 H   0  0  0  0  0  0  0  0  0  0  0  0
    1.9368    1.2835   -0.2584 C   0  0  0  0  0  0  0  0  0  0  0  0
    1.8163   -0.1790   -0.6100 C   0  0  0  0  0  0  0  0  0  0  0  0
    1.2114   -0.9936    0.4982 C   0  0  0  0  0  0  0  0  0  0  0  0
    0.5506   -1.9828    0.3469 O   0  0  0  0  0  0  0  0  0  0  0  0
    2.5270    1.4586    0.6348 H   0  0  0  0  0  0  0  0  0  0  0  0
    2.2875    1.8880   -1.0863 H   0  0  0  0  0  0  0  0  0  0  0  0
    2.8106   -0.6127   -0.7892 H   0  0  0  0  0  0  0  0  0  0  0  0
    1.2316   -0.3230   -1.5212 H   0  0  0  0  0  0  0  0  0  0  0  0
    1.4455   -0.6127    1.5120 H   0  0  0  0  0  0  0  0  0  0  0  0
  1  2  1  0
  1  6  1  0
  1  7  1  0
  2  3  1  0
  3  4  2  3
  4  8  1  0
  4  9  1  0
  5 10  1  0
 10 11  1  0
 10 14  1  0
 10 15  1  0
 11 12  1  0
 11 16  1  0
 11 17  1  0
 12 13  2  0
 12 18  1  0
M  RAD  1   1   2
M  END
>  <reaction>  (19) 
rmg_rxn_15688

>  <mol_properties>  (19) 
{"0": {"label": "*1", "atom_type": "Cs"}, "1": {"label": "*0", "atom_type": "O2s"}, "4": {"label": "*2", "atom_type": "H0"}, "9": {"label": "*3", "atom_type": "Cs"}, "10": {"label": "*4", "atom_type": "Cs"}}

>  <type>  (19) 
unop_15

>  <geom_source>  (19) 
Heuristics

$$$$

     RDKit          3D

 18 16  0  0  0  0  0  0  0  0999 V2000
   -1.5152    1.5422    0.4538 C   0  0  0  0  0  3  0  0  0  0  0  0
   -1.5153    1.6001   -0.9591 O   0  0  0  0  0  0  0  0  0  0  0  0
   -1.5153    0.3262   -1.4749 N   0  0  0  0  0  0  0  0  0  0  0  0
   -1.5153    0.3262   -2.7385 C   0  0  0  0  0  0  0  0  0  0  0  0
   -0.4446    0.9300    0.8979 H   0  0  0  0  0  0  0  0  0  0  0  0
   -2.4074    1.0320    0.8239 H   0  0  0  0  0  0  0  0  0  0  0  0
   -1.5153    2.5771    0.7916 H   0  0  0  0  0  0  0  0  0  0  0  0
   -1.5153   -0.6408   -3.2233 H   0  0  0  0  0  0  0  0  0  0  0  0
   -1.5153    1.2427   -3.3246 H   0  0  0  0  0  0  0  0  0  0  0  0
    0.6238    0.3191    1.3411 C   0  0  0  0  0  0  0  0  0  0  0  0
    1.1008   -0.7172    0.3404 C   0  0  0  0  0  0  0  0  0  0  0  0
    2.0324   -1.7496    0.9108 C   0  0  0  0  0  0  0  0  0  0  0  0
    2.3957   -1.7910    2.0533 O   0  0  0  0  0  0  0  0  0  0  0  0
    0.0919   -0.1537    2.1666 H   0  0  0  0  0  0  0  0  0  0  0  0
    1.4657    0.8649    1.7666 H   0  0  0  0  0  0  0  0  0  0  0  0
    1.6226   -0.2548   -0.5058 H   0  0  0  0  0  0  0  0  0  0  0  0
    0.2632   -1.2627   -0.1100 H   0  0  0  0  0  0  0  0  0  0  0  0
    2.3850   -2.5111    0.1829 H   0  0  0  0  0  0  0  0  0  0  0  0
  1  2  1  0
  1  6  1  0
  1  7  1  0
  2  3  1  0
  3  4  2  3
  4  8  1  0
  4  9  1  0
  5 10  1  0
 10 11  1  0
 10 14  1  0
 10 15  1  0
 11 12  1  0
 11 16  1  0
 11 17  1  0
 12 13  2  0
 12 18  1  0
M  RAD  1   1   2
M  END
>  <reaction>  (20) 
rmg_rxn_15688

>  <mol_properties>  (20) 
{"0": {"label": "*1", "atom_type": "Cs"}, "1": {"label": "*0", "atom_type": "O2s"}, "4": {"label": "*2", "atom_type": "H0"}, "9": {"label": "*3", "atom_type": "Cs"}, "10": {"label": "*4", "atom_type": "Cs"}}

>  <type>  (20) 
unop_16

>  <geom_source>  (20) 
Heuristics

$$$$

     RDKit          3D

 18 16  0  0  0  0  0  0  0  0999 V2000
   -1.8087    0.7173    0.1578 C   0  0  0  0  0  3  0  0  0  0  0  0
   -1.8087    0.7753   -1.2551 O   0  0  0  0  0  0  0  0  0  0  0  0
   -1.8087   -0.4986   -1.7709 N   0  0  0  0  0  0  0  0  0  0  0  0
   -1.8087   -0.4986   -3.0345 C   0  0  0  0  0  0  0  0  0  0  0  0
   -0.7381    0.1052    0.6019 H   0  0  0  0  0  0  0  0  0  0  0  0
   -2.7008    0.2071    0.5279 H   0  0  0  0  0  0  0  0  0  0  0  0
   -1.8087    1.7522    0.4956 H   0  0  0  0  0  0  0  0  0  0  0  0
   -1.8087   -1.4657   -3.5193 H   0  0  0  0  0  0  0  0  0  0  0  0
   -1.8087    0.4179   -3.6206 H   0  0  0  0  0  0  0  0  0  0  0  0
    0.3303   -0.5058    1.0451 C   0  0  0  0  0  0  0  0  0  0  0  0
    1.5854    0.2235    0.6026 C   0  0  0  0  0  0  0  0  0  0  0  0
    2.7325    0.1297    1.5693 C   0  0  0  0  0  0  0  0  0  0  0  0
    2.7047   -0.4602    2.6135 O   0  0  0  0  0  0  0  0  0  0  0  0
    0.5278   -1.5682    1.1871 H   0  0  0  0  0  0  0  0  0  0  0  0
   -0.0334   -0.1127    1.9944 H   0  0  0  0  0  0  0  0  0  0  0  0
    1.3982    1.2912    0.4381 H   0  0  0  0  0  0  0  0  0  0  0  0
    1.9535   -0.1490   -0.3606 H   0  0  0  0  0  0  0  0  0  0  0  0
    3.6542    0.6617    1.2508 H   0  0  0  0  0  0  0  0  0  0  0  0
  1  2  1  0
  1  6  1  0
  1  7  1  0
  2  3  1  0
  3  4  2  3
  4  8  1  0
  4  9  1  0
  5 10  1  0
 10 11  1  0
 10 14  1  0
 10 15  1  0
 11 12  1  0
 11 16  1  0
 11 17  1  0
 12 13  2  0
 12 18  1  0
M  RAD  1   1   2
M  END
>  <reaction>  (21) 
rmg_rxn_15688

>  <mol_properties>  (21) 
{"0": {"label": "*1", "atom_type": "Cs"}, "1": {"label": "*0", "atom_type": "O2s"}, "4": {"label": "*2", "atom_type": "H0"}, "9": {"label": "*3", "atom_type": "Cs"}, "10": {"label": "*4", "atom_type": "Cs"}}

>  <type>  (21) 
unop_17

>  <geom_source>  (21) 
Heuristics

$$$$

     RDKit          3D

 18 16  0  0  0  0  0  0  0  0999 V2000
   -1.3913    1.1336   -0.3117 C   0  0  0  0  0  3  0  0  0  0  0  0
   -1.3914    1.1916   -1.7246 O   0  0  0  0  0  0  0  0  0  0  0  0
   -1.3914   -0.0823   -2.2404 N   0  0  0  0  0  0  0  0  0  0  0  0
   -1.3914   -0.0823   -3.5040 C   0  0  0  0  0  0  0  0  0  0  0  0
   -0.3208    0.5215    0.1324 H   0  0  0  0  0  0  0  0  0  0  0  0
   -2.2835    0.6234    0.0584 H   0  0  0  0  0  0  0  0  0  0  0  0
   -1.3914    2.1685    0.0261 H   0  0  0  0  0  0  0  0  0  0  0  0
   -1.3914   -1.0494   -3.9888 H   0  0  0  0  0  0  0  0  0  0  0  0
   -1.3914    0.8342   -4.0901 H   0  0  0  0  0  0  0  0  0  0  0  0
    0.7477   -0.0895    0.5756 C   0  0  0  0  0  0  0  0  0  0  0  0
    0.4552   -0.7936    1.8877 C   0  0  0  0  0  0  0  0  0  0  0  0
    1.6439   -0.9330    2.7969 C   0  0  0  0  0  0  0  0  0  0  0  0
    2.7488   -0.5371    2.5490 O   0  0  0  0  0  0  0  0  0  0  0  0
    1.1219    0.9191    0.7507 H   0  0  0  0  0  0  0  0  0  0  0  0
    1.5087   -0.6250    0.0082 H   0  0  0  0  0  0  0  0  0  0  0  0
    0.0605   -1.8039    1.7274 H   0  0  0  0  0  0  0  0  0  0  0  0
   -0.3222   -0.2760    2.4620 H   0  0  0  0  0  0  0  0  0  0  0  0
    1.4359   -1.4478    3.7591 H   0  0  0  0  0  0  0  0  0  0  0  0
  1  2  1  0
  1  6  1  0
  1  7  1  0
  2  3  1  0
  3  4  2  3
  4  8  1  0
  4  9  1  0
  5 10  1  0
 10 11  1  0
 10 14  1  0
 10 15  1  0
 11 12  1  0
 11 16  1  0
 11 17  1  0
 12 13  2  0
 12 18  1  0
M  RAD  1   1   2
M  END
>  <reaction>  (22) 
rmg_rxn_15688

>  <mol_properties>  (22) 
{"0": {"label": "*1", "atom_type": "Cs"}, "1": {"label": "*0", "atom_type": "O2s"}, "4": {"label": "*2", "atom_type": "H0"}, "9": {"label": "*3", "atom_type": "Cs"}, "10": {"label": "*4", "atom_type": "Cs"}}

>  <type>  (22) 
unop_18

>  <geom_source>  (22) 
Heuristics

$$$$

     RDKit          3D

 18 16  0  0  0  0  0  0  0  0999 V2000
   -1.7428    1.2635    0.5518 C   0  0  0  0  0  3  0  0  0  0  0  0
   -1.7428    1.3214   -0.8611 O   0  0  0  0  0  0  0  0  0  0  0  0
   -1.7428    0.0475   -1.3768 N   0  0  0  0  0  0  0  0  0  0  0  0
   -1.7428    0.0475   -2.6404 C   0  0  0  0  0  0  0  0  0  0  0  0
   -0.6722    0.6513    0.9959 H   0  0  0  0  0  0  0  0  0  0  0  0
   -2.6349    0.7533    0.9219 H   0  0  0  0  0  0  0  0  0  0  0  0
   -1.7428    2.2984    0.8896 H   0  0  0  0  0  0  0  0  0  0  0  0
   -1.7428   -0.9196   -3.1252 H   0  0  0  0  0  0  0  0  0  0  0  0
   -1.7428    0.9640   -3.2266 H   0  0  0  0  0  0  0  0  0  0  0  0
    0.3962    0.0403    1.4392 C   0  0  0  0  0  0  0  0  0  0  0  0
    1.2771   -0.4011    0.2850 C   0  0  0  0  0  0  0  0  0  0  0  0
    2.5332   -1.1150    0.6992 C   0  0  0  0  0  0  0  0  0  0  0  0
    2.8540   -1.3394    1.8331 O   0  0  0  0  0  0  0  0  0  0  0  0
    0.0819   -0.8148    2.0374 H   0  0  0  0  0  0  0  0  0  0  0  0
    0.9335    0.7201    2.1003 H   0  0  0  0  0  0  0  0  0  0  0  0
    1.5869    0.4470   -0.3370 H   0  0  0  0  0  0  0  0  0  0  0  0
    0.7442   -1.0718   -0.3993 H   0  0  0  0  0  0  0  0  0  0  0  0
    3.1822   -1.4406   -0.1415 H   0  0  0  0  0  0  0  0  0  0  0  0
  1  2  1  0
  1  6  1  0
  1  7  1  0
  2  3  1  0
  3  4  2  3
  4  8  1  0
  4  9  1  0
  5 10  1  0
 10 11  1  0
 10 14  1  0
 10 15  1  0
 11 12  1  0
 11 16  1  0
 11 17  1  0
 12 13  2  0
 12 18  1  0
M  RAD  1   1   2
M  END
>  <reaction>  (23) 
rmg_rxn_15688

>  <mol_properties>  (23) 
{"0": {"label": "*1", "atom_type": "Cs"}, "1": {"label": "*0", "atom_type": "O2s"}, "4": {"label": "*2", "atom_type": "H0"}, "9": {"label": "*3", "atom_type": "Cs"}, "10": {"label": "*4", "atom_type": "Cs"}}

>  <type>  (23) 
unop_19

>  <geom_source>  (23) 
Heuristics

$$$$

     RDKit          3D

 18 16  0  0  0  0  0  0  0  0999 V2000
    2.0540   -0.4401   -0.9667 O   0  0  0  0  0  0  0  0  0  0  0  0
   -3.1853    1.9134    1.0655 O   0  0  0  0  0  0  0  0  0  0  0  0
    3.3805   -0.2391   -0.6179 N   0  0  0  0  0  0  0  0  0  0  0  0
   -2.4013   -0.1169    0.1576 C   0  0  0  0  0  0  0  0  0  0  0  0
   -1.4302   -0.5707   -0.9257 C   0  0  0  0  0  0  0  0  0  0  0  0
   -2.4560    1.3788    0.2462 C   0  0  0  0  0  0  0  0  0  0  0  0
    0.9793   -0.4173   -0.0312 C   0  0  0  0  0  3  0  0  0  0  0  0
    3.7995   -0.0085    0.5885 C   0  0  0  0  0  0  0  0  0  0  0  0
   -2.0730   -0.5288    1.1357 H   0  0  0  0  0  0  0  0  0  0  0  0
   -3.4156   -0.5083   -0.0719 H   0  0  0  0  0  0  0  0  0  0  0  0
   -1.4018   -1.6802   -0.9597 H   0  0  0  0  0  0  0  0  0  0  0  0
   -1.7549   -0.1918   -1.9185 H   0  0  0  0  0  0  0  0  0  0  0  0
   -0.2400   -0.1313   -0.6666 H   0  0  0  0  0  0  0  0  0  0  0  0
   -1.8533    1.9988   -0.4111 H   0  0  0  0  0  0  0  0  0  0  0  0
    1.1108   -1.2172    0.7275 H   0  0  0  0  0  0  0  0  0  0  0  0
    0.9106    0.5791    0.4537 H   0  0  0  0  0  0  0  0  0  0  0  0
    4.8562    0.1364    0.7663 H   0  0  0  0  0  0  0  0  0  0  0  0
    3.1206    0.0438    1.4283 H   0  0  0  0  0  0  0  0  0  0  0  0
  1  7  1  0
  1  3  1  0
  2  6  2  0
  3  8  2  3
  4  5  1  0
  4  6  1  0
  4  9  1  0
  4 10  1  0
  5 11  1  0
  5 12  1  0
  5 13  1  0
  6 14  1  0
  7 15  1  0
  7 16  1  0
  8 17  1  0
  8 18  1  0
M  RAD  1   7   2
M  END
>  <reaction>  (24) 
rmg_rxn_15688

>  <mol_properties>  (24) 
{"0": {"label": "*1", "atom_type": "Cs"}, "1": {"label": "*0", "atom_type": "O2s"}, "4": {"label": "*2", "atom_type": "H0"}, "9": {"label": "*3", "atom_type": "Cs"}, "10": {"label": "*4", "atom_type": "Cs"}}

>  <type>  (24) 
unop_20

>  <geom_source>  (24) 
AutoTST

$$$$

     RDKit          3D

 18 16  0  0  0  0  0  0  0  0999 V2000
   -1.8550    0.9298    0.4287 C   0  0  0  0  0  3  0  0  0  0  0  0
   -1.8550    0.9878   -0.9842 O   0  0  0  0  0  0  0  0  0  0  0  0
   -1.8550   -0.2861   -1.5000 N   0  0  0  0  0  0  0  0  0  0  0  0
   -1.8550   -0.2861   -2.7636 C   0  0  0  0  0  0  0  0  0  0  0  0
   -0.7844    0.3176    0.8728 H   0  0  0  0  0  0  0  0  0  0  0  0
   -2.7471    0.4196    0.7988 H   0  0  0  0  0  0  0  0  0  0  0  0
   -1.8550    1.9647    0.7665 H   0  0  0  0  0  0  0  0  0  0  0  0
   -1.8550   -1.2532   -3.2484 H   0  0  0  0  0  0  0  0  0  0  0  0
   -1.8550    0.6303   -3.3497 H   0  0  0  0  0  0  0  0  0  0  0  0
    0.2840   -0.2933    1.3160 C   0  0  0  0  0  0  0  0  0  0  0  0
    1.4497   -0.0885    0.3661 C   0  0  0  0  0  0  0  0  0  0  0  0
    2.7983   -0.3691    0.9674 C   0  0  0  0  0  0  0  0  0  0  0  0
    2.9862   -0.7267    2.0969 O   0  0  0  0  0  0  0  0  0  0  0  0
    0.2528   -1.3212    1.6770 H   0  0  0  0  0  0  0  0  0  0  0  0
    0.3741    0.3551    2.1875 H   0  0  0  0  0  0  0  0  0  0  0  0
    1.4837    0.9372   -0.0199 H   0  0  0  0  0  0  0  0  0  0  0  0
    1.3637   -0.7215   -0.5249 H   0  0  0  0  0  0  0  0  0  0  0  0
    3.6557   -0.2209    0.2767 H   0  0  0  0  0  0  0  0  0  0  0  0
  1  2  1  0
  1  6  1  0
  1  7  1  0
  2  3  1  0
  3  4  2  3
  4  8  1  0
  4  9  1  0
  5 10  1  0
 10 11  1  0
 10 14  1  0
 10 15  1  0
 11 12  1  0
 11 16  1  0
 11 17  1  0
 12 13  2  0
 12 18  1  0
M  RAD  1   1   2
M  END
>  <reaction>  (25) 
rmg_rxn_15688

>  <mol_properties>  (25) 
{"0": {"label": "*1", "atom_type": "Cs"}, "1": {"label": "*0", "atom_type": "O2s"}, "4": {"label": "*2", "atom_type": "H0"}, "9": {"label": "*3", "atom_type": "Cs"}, "10": {"label": "*4", "atom_type": "Cs"}}

>  <type>  (25) 
unop_21

>  <geom_source>  (25) 
gaussian_log

$$$$
