
     RDKit          3D

  8  7  0  0  0  0  0  0  0  0999 V2000
    0.9548    0.1194   -0.0790 C   0  0  0  0  0  0  0  0  0  0  0  0
   -0.4838   -0.2649    0.0193 C   0  0  0  0  0  0  0  0  0  0  0  0
   -0.8933   -1.1081    0.8664 N   0  0  0  0  0  0  0  0  0  0  0  0
    1.3360   -0.0983   -1.0800 H   0  0  0  0  0  0  0  0  0  0  0  0
    1.0698    1.1948    0.0786 H   0  0  0  0  0  0  0  0  0  0  0  0
    1.5426   -0.4219    0.6602 H   0  0  0  0  0  0  0  0  0  0  0  0
   -1.1575    0.2324   -0.6905 H   0  0  0  0  0  0  0  0  0  0  0  0
   -1.8989   -1.2455    0.7886 H   0  0  0  0  0  0  0  0  0  0  0  0
  1  2  1  0
  1  4  1  0
  1  5  1  0
  1  6  1  0
  2  3  2  3
  2  7  1  0
  3  8  1  0
M  END
>  <reaction>  (1) 
rmg_rxn_16772

>  <mol_properties>  (1) 
{"2": {"label": "donator", "atom_type": "N3d"}, "7": {"label": "d_hydrogen", "atom_type": "H0"}}

>  <type>  (1) 
r1h

$$$$

     RDKit          3D

  9  8  0  0  0  0  0  0  0  0999 V2000
   -1.1169    0.0984    0.1960 C   0  0  0  0  0  0  0  0  0  0  0  0
    0.2461    0.6091    0.4945 C   0  0  0  0  0  3  0  0  0  0  0  0
    0.8360    1.4588   -0.4414 N   0  0  0  0  0  0  0  0  0  0  0  0
   -1.1390   -0.5493   -0.6933 H   0  0  0  0  0  0  0  0  0  0  0  0
   -1.5047   -0.4792    1.0350 H   0  0  0  0  0  0  0  0  0  0  0  0
   -1.8183    0.9190    0.0077 H   0  0  0  0  0  0  0  0  0  0  0  0
    0.9405   -0.0153    1.0433 H   0  0  0  0  0  0  0  0  0  0  0  0
    1.6989    1.8854   -0.1450 H   0  0  0  0  0  0  0  0  0  0  0  0
    0.2106    2.1422   -0.8415 H   0  0  0  0  0  0  0  0  0  0  0  0
  1  2  1  0
  1  4  1  0
  1  5  1  0
  1  6  1  0
  2  3  1  0
  2  7  1  0
  3  8  1  0
  3  9  1  0
M  RAD  1   2   2
M  END
>  <reaction>  (2) 
rmg_rxn_16772

>  <mol_properties>  (2) 
{"1": {"label": "acceptor", "atom_type": "Cs"}}

>  <type>  (2) 
r2

$$$$

     RDKit          3D

 10  9  0  0  0  0  0  0  0  0999 V2000
   -1.1906   -0.0419   -0.0385 C   0  0  0  0  0  0  0  0  0  0  0  0
    0.2513    0.4500    0.0348 C   0  0  0  0  0  0  0  0  0  0  0  0
    1.2500   -0.5694    0.3278 N   0  0  0  0  0  0  0  0  0  0  0  0
   -1.4965   -0.4905    0.9100 H   0  0  0  0  0  0  0  0  0  0  0  0
   -1.3035   -0.7985   -0.8190 H   0  0  0  0  0  0  0  0  0  0  0  0
   -1.8789    0.7769   -0.2612 H   0  0  0  0  0  0  0  0  0  0  0  0
    0.3352    1.2278    0.7979 H   0  0  0  0  0  0  0  0  0  0  0  0
    0.5259    0.9233   -0.9113 H   0  0  0  0  0  0  0  0  0  0  0  0
    1.2298   -1.2971   -0.3752 H   0  0  0  0  0  0  0  0  0  0  0  0
    1.0523   -1.0138    1.2153 H   0  0  0  0  0  0  0  0  0  0  0  0
  1  2  1  0
  1  4  1  0
  1  5  1  0
  1  6  1  0
  2  3  1  0
  2  7  1  0
  2  8  1  0
  3  9  1  0
  3 10  1  0
M  END
>  <reaction>  (3) 
rmg_rxn_16772

>  <mol_properties>  (3) 
{"0": {"label": "a_hydrogen", "atom_type": "H0"}, "2": {"label": "acceptor", "atom_type": "Cs"}}

>  <type>  (3) 
r2h

$$$$

     RDKit          3D

 17 15  0  0  0  0  0  0  0  0999 V2000
   -3.2124   -0.0448   -0.0356 C   0  0  0  0  0  0  0  0  0  0  0  0
   -1.7264   -0.1021    0.1710 C   0  0  0  0  0  0  0  0  0  0  0  0
   -0.9182    0.5915   -0.4913 N   0  0  0  0  0  2  0  0  0  0  0  0
   -3.4627    0.6668   -0.8203 H   0  0  0  0  0  0  0  0  0  0  0  0
   -3.5905   -1.0333   -0.3074 H   0  0  0  0  0  0  0  0  0  0  0  0
   -3.7082    0.2484    0.8929 H   0  0  0  0  0  0  0  0  0  0  0  0
   -1.3847   -0.8004    0.9514 H   0  0  0  0  0  0  0  0  0  0  0  0
    0.2878    0.2912   -0.0542 H   0  0  0  0  0  0  0  0  0  0  0  0
    1.7639   -1.3728   -0.2790 C   0  0  0  0  0  0  0  0  0  0  0  0
    1.4575   -0.0558    0.3854 C   0  0  0  0  0  0  0  0  0  0  0  0
    2.3927    0.9685    0.0810 N   0  0  0  0  0  0  0  0  0  0  0  0
    1.0031   -2.1143   -0.0330 H   0  0  0  0  0  0  0  0  0  0  0  0
    1.7784   -1.2620   -1.3664 H   0  0  0  0  0  0  0  0  0  0  0  0
    2.7381   -1.7569    0.0359 H   0  0  0  0  0  0  0  0  0  0  0  0
    1.3162   -0.1401    1.4650 H   0  0  0  0  0  0  0  0  0  0  0  0
    2.5121    1.0965   -0.9145 H   0  0  0  0  0  0  0  0  0  0  0  0
    2.1544    1.8549    0.5009 H   0  0  0  0  0  0  0  0  0  0  0  0
  1  2  1  0
  1  4  1  0
  1  5  1  0
  1  6  1  0
  2  3  2  0
  2  7  1  0
  8 10  1  0
  9 10  1  0
  9 12  1  0
  9 13  1  0
  9 14  1  0
 10 11  1  0
 10 15  1  0
 11 16  1  0
 11 17  1  0
M  RAD  1   3   2
M  END
>  <reaction>  (4) 
rmg_rxn_16772

>  <mol_properties>  (4) 
{"1": {"label": "*4", "atom_type": "Cd"}, "2": {"label": "*3", "atom_type": "N3d"}, "7": {"label": "*2", "atom_type": "H0"}, "9": {"label": "*1", "atom_type": "Cs"}, "10": {"label": "*0", "atom_type": "N3s"}}

>  <type>  (4) 
ts

$$$$

     RDKit          3D

 17 15  0  0  0  0  0  0  0  0999 V2000
   -3.2257   -0.0139   -0.0675 C   0  0  0  0  0  0  0  0  0  0  0  0
   -1.7624   -0.1968    0.2040 C   0  0  0  0  0  0  0  0  0  0  0  0
   -0.8981    0.5829   -0.2270 N   0  0  0  0  0  0  0  0  0  0  0  0
   -3.3882    0.8726   -0.6739 H   0  0  0  0  0  0  0  0  0  0  0  0
   -3.6106   -0.8899   -0.5877 H   0  0  0  0  0  0  0  0  0  0  0  0
   -3.7608    0.0836    0.8760 H   0  0  0  0  0  0  0  0  0  0  0  0
   -1.5383   -1.0850    0.8195 H   0  0  0  0  0  0  0  0  0  0  0  0
    0.2620    0.2899    0.0810 H   0  0  0  0  0  0  0  0  0  0  0  0
    1.7844   -1.3681   -0.2104 C   0  0  0  0  0  0  0  0  0  0  0  0
    1.5077   -0.0175    0.4040 C   0  0  0  0  0  3  0  0  0  0  0  0
    2.3802    0.9982   -0.0665 N   0  0  0  0  0  0  0  0  0  0  0  0
    1.0769   -2.1049    0.1618 H   0  0  0  0  0  0  0  0  0  0  0  0
    1.6945   -1.3187   -1.2943 H   0  0  0  0  0  0  0  0  0  0  0  0
    2.7934   -1.7068    0.0324 H   0  0  0  0  0  0  0  0  0  0  0  0
    1.5075   -0.0361    1.4940 H   0  0  0  0  0  0  0  0  0  0  0  0
    2.4156    1.0362   -1.0774 H   0  0  0  0  0  0  0  0  0  0  0  0
    2.1631    1.9095    0.3139 H   0  0  0  0  0  0  0  0  0  0  0  0
  1  2  1  0
  1  4  1  0
  1  5  1  0
  1  6  1  0
  2  3  2  3
  2  7  1  0
  3  8  1  0
  9 10  1  0
  9 12  1  0
  9 13  1  0
  9 14  1  0
 10 11  1  0
 10 15  1  0
 11 16  1  0
 11 17  1  0
M  RAD  1  10   2
M  END
>  <reaction>  (5) 
rmg_rxn_16772

>  <mol_properties>  (5) 
{"1": {"label": "*4", "atom_type": "Cd"}, "2": {"label": "*3", "atom_type": "N3d"}, "7": {"label": "*2", "atom_type": "H0"}, "9": {"label": "*1", "atom_type": "Cs"}, "10": {"label": "*0", "atom_type": "N3s"}}

>  <type>  (5) 
unop_1

>  <geom_source>  (5) 
crest_best.xyz

$$$$

     RDKit          3D

 17 15  0  0  0  0  0  0  0  0999 V2000
   -0.0157   -0.7538   -3.0425 C   0  0  0  0  0  0  0  0  0  0  0  0
   -0.0157   -0.7538   -1.5501 C   0  0  0  0  0  0  0  0  0  0  0  0
   -0.0157    0.3188   -0.8824 N   0  0  0  0  0  0  0  0  0  0  0  0
    0.8626   -1.2838   -3.4199 H   0  0  0  0  0  0  0  0  0  0  0  0
   -0.8939   -1.2838   -3.4199 H   0  0  0  0  0  0  0  0  0  0  0  0
   -0.0157    0.2668   -3.4211 H   0  0  0  0  0  0  0  0  0  0  0  0
   -0.0157   -1.7435   -1.0755 H   0  0  0  0  0  0  0  0  0  0  0  0
   -0.0157    0.0887    0.3171 H   0  0  0  0  0  0  0  0  0  0  0  0
    1.2287    0.4506    2.2432 C   0  0  0  0  0  0  0  0  0  0  0  0
   -0.0157   -0.1585    1.6051 C   0  0  0  0  0  3  0  0  0  0  0  0
   -1.1341    0.7545    1.4100 N   0  0  0  0  0  0  0  0  0  0  0  0
    0.9999    0.8528    3.2333 H   0  0  0  0  0  0  0  0  0  0  0  0
    2.0213   -0.2927    2.3565 H   0  0  0  0  0  0  0  0  0  0  0  0
    1.6183    1.2680    1.6312 H   0  0  0  0  0  0  0  0  0  0  0  0
   -0.3695   -0.9932    2.2153 H   0  0  0  0  0  0  0  0  0  0  0  0
   -1.4280    1.1484    2.2947 H   0  0  0  0  0  0  0  0  0  0  0  0
   -0.8592    1.5302    0.8210 H   0  0  0  0  0  0  0  0  0  0  0  0
  1  2  1  0
  1  4  1  0
  1  5  1  0
  1  6  1  0
  2  3  2  3
  2  7  1  0
  3  8  1  0
  9 10  1  0
  9 12  1  0
  9 13  1  0
  9 14  1  0
 10 11  1  0
 10 15  1  0
 11 16  1  0
 11 17  1  0
M  RAD  1  10   2
M  END
>  <reaction>  (6) 
rmg_rxn_16772

>  <mol_properties>  (6) 
{"1": {"label": "*4", "atom_type": "Cd"}, "2": {"label": "*3", "atom_type": "N3d"}, "7": {"label": "*2", "atom_type": "H0"}, "9": {"label": "*1", "atom_type": "Cs"}, "10": {"label": "*0", "atom_type": "N3s"}}

>  <type>  (6) 
unop_2

>  <geom_source>  (6) 
Heuristics

$$$$

     RDKit          3D

 17 15  0  0  0  0  0  0  0  0999 V2000
   -0.2716   -0.4546   -3.0709 C   0  0  0  0  0  0  0  0  0  0  0  0
   -0.2716   -0.4546   -1.5786 C   0  0  0  0  0  0  0  0  0  0  0  0
   -0.2716    0.6180   -0.9109 N   0  0  0  0  0  0  0  0  0  0  0  0
    0.6067   -0.9846   -3.4483 H   0  0  0  0  0  0  0  0  0  0  0  0
   -1.1498   -0.9846   -3.4483 H   0  0  0  0  0  0  0  0  0  0  0  0
   -0.2716    0.5660   -3.4495 H   0  0  0  0  0  0  0  0  0  0  0  0
   -0.2716   -1.4443   -1.1039 H   0  0  0  0  0  0  0  0  0  0  0  0
   -0.2716    0.3878    0.2887 H   0  0  0  0  0  0  0  0  0  0  0  0
    0.4468   -1.1778    1.8449 C   0  0  0  0  0  0  0  0  0  0  0  0
   -0.2716    0.1407    1.5766 C   0  0  0  0  0  3  0  0  0  0  0  0
    0.4841    1.3452    1.8940 N   0  0  0  0  0  0  0  0  0  0  0  0
    0.7138   -1.2666    2.9009 H   0  0  0  0  0  0  0  0  0  0  0  0
   -0.1810   -2.0327    1.5832 H   0  0  0  0  0  0  0  0  0  0  0  0
    1.3675   -1.2443    1.2597 H   0  0  0  0  0  0  0  0  0  0  0  0
   -1.2040    0.1727    2.1458 H   0  0  0  0  0  0  0  0  0  0  0  0
    0.7435    1.3529    2.8722 H   0  0  0  0  0  0  0  0  0  0  0  0
    1.3449    1.3734    1.3625 H   0  0  0  0  0  0  0  0  0  0  0  0
  1  2  1  0
  1  4  1  0
  1  5  1  0
  1  6  1  0
  2  3  2  3
  2  7  1  0
  3  8  1  0
  9 10  1  0
  9 12  1  0
  9 13  1  0
  9 14  1  0
 10 11  1  0
 10 15  1  0
 11 16  1  0
 11 17  1  0
M  RAD  1  10   2
M  END
>  <reaction>  (7) 
rmg_rxn_16772

>  <mol_properties>  (7) 
{"1": {"label": "*4", "atom_type": "Cd"}, "2": {"label": "*3", "atom_type": "N3d"}, "7": {"label": "*2", "atom_type": "H0"}, "9": {"label": "*1", "atom_type": "Cs"}, "10": {"label": "*0", "atom_type": "N3s"}}

>  <type>  (7) 
unop_3

>  <geom_source>  (7) 
Heuristics

$$$$

     RDKit          3D

 17 15  0  0  0  0  0  0  0  0999 V2000
    0.1411   -0.7001   -3.0784 C   0  0  0  0  0  0  0  0  0  0  0  0
    0.1411   -0.7001   -1.5861 C   0  0  0  0  0  0  0  0  0  0  0  0
    0.1411    0.3725   -0.9184 N   0  0  0  0  0  0  0  0  0  0  0  0
    1.0194   -1.2301   -3.4558 H   0  0  0  0  0  0  0  0  0  0  0  0
   -0.7372   -1.2301   -3.4558 H   0  0  0  0  0  0  0  0  0  0  0  0
    0.1411    0.3205   -3.4570 H   0  0  0  0  0  0  0  0  0  0  0  0
    0.1411   -1.6898   -1.1114 H   0  0  0  0  0  0  0  0  0  0  0  0
    0.1411    0.1424    0.2812 H   0  0  0  0  0  0  0  0  0  0  0  0
    0.8595    1.0208    2.3063 C   0  0  0  0  0  0  0  0  0  0  0  0
    0.1411   -0.1048    1.5692 C   0  0  0  0  0  3  0  0  0  0  0  0
   -1.3061    0.0309    1.4699 N   0  0  0  0  0  0  0  0  0  0  0  0
    0.4996    1.1029    3.3350 H   0  0  0  0  0  0  0  0  0  0  0  0
    1.9379    0.8491    2.3396 H   0  0  0  0  0  0  0  0  0  0  0  0
    0.6863    1.9805    1.8131 H   0  0  0  0  0  0  0  0  0  0  0  0
    0.3535   -1.0583    2.0591 H   0  0  0  0  0  0  0  0  0  0  0  0
   -1.7209    0.0818    2.3916 H   0  0  0  0  0  0  0  0  0  0  0  0
   -1.5491    0.8891    0.9916 H   0  0  0  0  0  0  0  0  0  0  0  0
  1  2  1  0
  1  4  1  0
  1  5  1  0
  1  6  1  0
  2  3  2  3
  2  7  1  0
  3  8  1  0
  9 10  1  0
  9 12  1  0
  9 13  1  0
  9 14  1  0
 10 11  1  0
 10 15  1  0
 11 16  1  0
 11 17  1  0
M  RAD  1  10   2
M  END
>  <reaction>  (8) 
rmg_rxn_16772

>  <mol_properties>  (8) 
{"1": {"label": "*4", "atom_type": "Cd"}, "2": {"label": "*3", "atom_type": "N3d"}, "7": {"label": "*2", "atom_type": "H0"}, "9": {"label": "*1", "atom_type": "Cs"}, "10": {"label": "*0", "atom_type": "N3s"}}

>  <type>  (8) 
unop_4

>  <geom_source>  (8) 
Heuristics

$$$$

     RDKit          3D

 17 15  0  0  0  0  0  0  0  0999 V2000
    0.0170   -0.2969   -3.1917 C   0  0  0  0  0  0  0  0  0  0  0  0
    0.0170   -0.2969   -1.6993 C   0  0  0  0  0  0  0  0  0  0  0  0
    0.0170    0.7758   -1.0317 N   0  0  0  0  0  0  0  0  0  0  0  0
    0.8952   -0.8269   -3.5691 H   0  0  0  0  0  0  0  0  0  0  0  0
   -0.8613   -0.8269   -3.5691 H   0  0  0  0  0  0  0  0  0  0  0  0
    0.0170    0.7237   -3.5703 H   0  0  0  0  0  0  0  0  0  0  0  0
    0.0170   -1.2866   -1.2247 H   0  0  0  0  0  0  0  0  0  0  0  0
    0.0170    0.5456    0.1679 H   0  0  0  0  0  0  0  0  0  0  0  0
   -1.2273   -0.5035    1.8232 C   0  0  0  0  0  0  0  0  0  0  0  0
    0.0170    0.2985    1.4559 C   0  0  0  0  0  3  0  0  0  0  0  0
    1.1642    0.1186    2.3357 N   0  0  0  0  0  0  0  0  0  0  0  0
   -1.5784   -0.2388    2.8238 H   0  0  0  0  0  0  0  0  0  0  0  0
   -2.0423   -0.3167    1.1200 H   0  0  0  0  0  0  0  0  0  0  0  0
   -1.0146   -1.5755    1.8153 H   0  0  0  0  0  0  0  0  0  0  0  0
   -0.2254    1.3640    1.4381 H   0  0  0  0  0  0  0  0  0  0  0  0
    0.9260    0.3760    3.2850 H   0  0  0  0  0  0  0  0  0  0  0  0
    1.4447   -0.8536    2.3574 H   0  0  0  0  0  0  0  0  0  0  0  0
  1  2  1  0
  1  4  1  0
  1  5  1  0
  1  6  1  0
  2  3  2  3
  2  7  1  0
  3  8  1  0
  9 10  1  0
  9 12  1  0
  9 13  1  0
  9 14  1  0
 10 11  1  0
 10 15  1  0
 11 16  1  0
 11 17  1  0
M  RAD  1  10   2
M  END
>  <reaction>  (9) 
rmg_rxn_16772

>  <mol_properties>  (9) 
{"1": {"label": "*4", "atom_type": "Cd"}, "2": {"label": "*3", "atom_type": "N3d"}, "7": {"label": "*2", "atom_type": "H0"}, "9": {"label": "*1", "atom_type": "Cs"}, "10": {"label": "*0", "atom_type": "N3s"}}

>  <type>  (9) 
unop_5

>  <geom_source>  (9) 
Heuristics

$$$$

     RDKit          3D

 17 15  0  0  0  0  0  0  0  0999 V2000
    0.2048   -0.5413   -3.1554 C   0  0  0  0  0  0  0  0  0  0  0  0
    0.2048   -0.5413   -1.6631 C   0  0  0  0  0  0  0  0  0  0  0  0
    0.2048    0.5313   -0.9954 N   0  0  0  0  0  0  0  0  0  0  0  0
    1.0830   -1.0713   -3.5328 H   0  0  0  0  0  0  0  0  0  0  0  0
   -0.6735   -1.0713   -3.5328 H   0  0  0  0  0  0  0  0  0  0  0  0
    0.2048    0.4793   -3.5340 H   0  0  0  0  0  0  0  0  0  0  0  0
    0.2048   -1.5310   -1.1884 H   0  0  0  0  0  0  0  0  0  0  0  0
    0.2048    0.3011    0.2042 H   0  0  0  0  0  0  0  0  0  0  0  0
    0.2048    1.3686    2.2656 C   0  0  0  0  0  0  0  0  0  0  0  0
    0.2048    0.0540    1.4922 C   0  0  0  0  0  3  0  0  0  0  0  0
   -0.9098   -0.8413    1.7727 N   0  0  0  0  0  0  0  0  0  0  0  0
    0.2373    1.1855    3.3426 H   0  0  0  0  0  0  0  0  0  0  0  0
    1.0681    1.9844    2.0026 H   0  0  0  0  0  0  0  0  0  0  0  0
   -0.6983    1.9454    2.0509 H   0  0  0  0  0  0  0  0  0  0  0  0
    1.1297   -0.4913    1.6958 H   0  0  0  0  0  0  0  0  0  0  0  0
   -0.9293   -1.0854    2.7546 H   0  0  0  0  0  0  0  0  0  0  0  0
   -1.7899   -0.3863    1.5664 H   0  0  0  0  0  0  0  0  0  0  0  0
  1  2  1  0
  1  4  1  0
  1  5  1  0
  1  6  1  0
  2  3  2  3
  2  7  1  0
  3  8  1  0
  9 10  1  0
  9 12  1  0
  9 13  1  0
  9 14  1  0
 10 11  1  0
 10 15  1  0
 11 16  1  0
 11 17  1  0
M  RAD  1  10   2
M  END
>  <reaction>  (10) 
rmg_rxn_16772

>  <mol_properties>  (10) 
{"1": {"label": "*4", "atom_type": "Cd"}, "2": {"label": "*3", "atom_type": "N3d"}, "7": {"label": "*2", "atom_type": "H0"}, "9": {"label": "*1", "atom_type": "Cs"}, "10": {"label": "*0", "atom_type": "N3s"}}

>  <type>  (10) 
unop_6

>  <geom_source>  (10) 
Heuristics

$$$$

     RDKit          3D

 17 15  0  0  0  0  0  0  0  0999 V2000
    0.0742   -0.3490   -3.2122 C   0  0  0  0  0  0  0  0  0  0  0  0
    0.0742   -0.3490   -1.7199 C   0  0  0  0  0  0  0  0  0  0  0  0
    0.0742    0.7237   -1.0522 N   0  0  0  0  0  0  0  0  0  0  0  0
    0.9524   -0.8790   -3.5896 H   0  0  0  0  0  0  0  0  0  0  0  0
   -0.8041   -0.8790   -3.5896 H   0  0  0  0  0  0  0  0  0  0  0  0
    0.0742    0.6717   -3.5908 H   0  0  0  0  0  0  0  0  0  0  0  0
    0.0742   -1.3387   -1.2452 H   0  0  0  0  0  0  0  0  0  0  0  0
    0.0742    0.4935    0.1474 H   0  0  0  0  0  0  0  0  0  0  0  0
   -1.3627    0.1499    1.9381 C   0  0  0  0  0  0  0  0  0  0  0  0
    0.0742    0.2464    1.4353 C   0  0  0  0  0  3  0  0  0  0  0  0
    1.0839   -0.3552    2.2962 N   0  0  0  0  0  0  0  0  0  0  0  0
   -1.4689    0.6439    2.9071 H   0  0  0  0  0  0  0  0  0  0  0  0
   -2.0598    0.6216    1.2415 H   0  0  0  0  0  0  0  0  0  0  0  0
   -1.6623   -0.8941    2.0593 H   0  0  0  0  0  0  0  0  0  0  0  0
    0.3423    1.2959    1.2903 H   0  0  0  0  0  0  0  0  0  0  0  0
    1.0702    0.0752    3.2121 H   0  0  0  0  0  0  0  0  0  0  0  0
    0.8923   -1.3395    2.4322 H   0  0  0  0  0  0  0  0  0  0  0  0
  1  2  1  0
  1  4  1  0
  1  5  1  0
  1  6  1  0
  2  3  2  3
  2  7  1  0
  3  8  1  0
  9 10  1  0
  9 12  1  0
  9 13  1  0
  9 14  1  0
 10 11  1  0
 10 15  1  0
 11 16  1  0
 11 17  1  0
M  RAD  1  10   2
M  END
>  <reaction>  (11) 
rmg_rxn_16772

>  <mol_properties>  (11) 
{"1": {"label": "*4", "atom_type": "Cd"}, "2": {"label": "*3", "atom_type": "N3d"}, "7": {"label": "*2", "atom_type": "H0"}, "9": {"label": "*1", "atom_type": "Cs"}, "10": {"label": "*0", "atom_type": "N3s"}}

>  <type>  (11) 
unop_7

>  <geom_source>  (11) 
Heuristics

$$$$

     RDKit          3D

 17 15  0  0  0  0  0  0  0  0999 V2000
    0.0997   -0.3949   -3.2211 C   0  0  0  0  0  0  0  0  0  0  0  0
    0.0997   -0.3949   -1.7288 C   0  0  0  0  0  0  0  0  0  0  0  0
    0.0997    0.6777   -1.0611 N   0  0  0  0  0  0  0  0  0  0  0  0
    0.9780   -0.9249   -3.5985 H   0  0  0  0  0  0  0  0  0  0  0  0
   -0.7786   -0.9249   -3.5985 H   0  0  0  0  0  0  0  0  0  0  0  0
    0.0997    0.6257   -3.5997 H   0  0  0  0  0  0  0  0  0  0  0  0
    0.0997   -1.3846   -1.2541 H   0  0  0  0  0  0  0  0  0  0  0  0
    0.0997    0.4475    0.1385 H   0  0  0  0  0  0  0  0  0  0  0  0
   -1.1446    0.8095    2.0645 C   0  0  0  0  0  0  0  0  0  0  0  0
    0.0997    0.2004    1.4265 C   0  0  0  0  0  3  0  0  0  0  0  0
    0.7607   -0.8396    2.2036 N   0  0  0  0  0  0  0  0  0  0  0  0
   -0.9026    1.2687    3.0263 H   0  0  0  0  0  0  0  0  0  0  0  0
   -1.5830    1.5790    1.4248 H   0  0  0  0  0  0  0  0  0  0  0  0
   -1.9049    0.0443    2.2403 H   0  0  0  0  0  0  0  0  0  0  0  0
    0.8332    0.9864    1.2298 H   0  0  0  0  0  0  0  0  0  0  0  0
    1.0466   -0.4800    3.1053 H   0  0  0  0  0  0  0  0  0  0  0  0
    0.1246   -1.6062    2.3823 H   0  0  0  0  0  0  0  0  0  0  0  0
  1  2  1  0
  1  4  1  0
  1  5  1  0
  1  6  1  0
  2  3  2  3
  2  7  1  0
  3  8  1  0
  9 10  1  0
  9 12  1  0
  9 13  1  0
  9 14  1  0
 10 11  1  0
 10 15  1  0
 11 16  1  0
 11 17  1  0
M  RAD  1  10   2
M  END
>  <reaction>  (12) 
rmg_rxn_16772

>  <mol_properties>  (12) 
{"1": {"label": "*4", "atom_type": "Cd"}, "2": {"label": "*3", "atom_type": "N3d"}, "7": {"label": "*2", "atom_type": "H0"}, "9": {"label": "*1", "atom_type": "Cs"}, "10": {"label": "*0", "atom_type": "N3s"}}

>  <type>  (12) 
unop_8

>  <geom_source>  (12) 
Heuristics

$$$$

     RDKit          3D

 17 15  0  0  0  0  0  0  0  0999 V2000
   -0.1606   -0.7074   -3.0338 C   0  0  0  0  0  0  0  0  0  0  0  0
   -0.1606   -0.7074   -1.5415 C   0  0  0  0  0  0  0  0  0  0  0  0
   -0.1606    0.3653   -0.8738 N   0  0  0  0  0  0  0  0  0  0  0  0
    0.7176   -1.2373   -3.4112 H   0  0  0  0  0  0  0  0  0  0  0  0
   -1.0389   -1.2373   -3.4112 H   0  0  0  0  0  0  0  0  0  0  0  0
   -0.1606    0.3133   -3.4124 H   0  0  0  0  0  0  0  0  0  0  0  0
   -0.1606   -1.6970   -1.0668 H   0  0  0  0  0  0  0  0  0  0  0  0
   -0.1606    0.1351    0.3258 H   0  0  0  0  0  0  0  0  0  0  0  0
    1.2762   -0.2085    2.1165 C   0  0  0  0  0  0  0  0  0  0  0  0
   -0.1606   -0.1120    1.6138 C   0  0  0  0  0  3  0  0  0  0  0  0
   -0.6998    1.2370    1.5036 N   0  0  0  0  0  0  0  0  0  0  0  0
    1.3687    0.2286    3.1139 H   0  0  0  0  0  0  0  0  0  0  0  0
    1.6087   -1.2477    2.1720 H   0  0  0  0  0  0  0  0  0  0  0  0
    1.9572    0.3280    1.4510 H   0  0  0  0  0  0  0  0  0  0  0  0
   -0.8194   -0.6812    2.2744 H   0  0  0  0  0  0  0  0  0  0  0  0
   -0.6778    1.7014    2.4025 H   0  0  0  0  0  0  0  0  0  0  0  0
   -0.1364    1.7929    0.8728 H   0  0  0  0  0  0  0  0  0  0  0  0
  1  2  1  0
  1  4  1  0
  1  5  1  0
  1  6  1  0
  2  3  2  3
  2  7  1  0
  3  8  1  0
  9 10  1  0
  9 12  1  0
  9 13  1  0
  9 14  1  0
 10 11  1  0
 10 15  1  0
 11 16  1  0
 11 17  1  0
M  RAD  1  10   2
M  END
>  <reaction>  (13) 
rmg_rxn_16772

>  <mol_properties>  (13) 
{"1": {"label": "*4", "atom_type": "Cd"}, "2": {"label": "*3", "atom_type": "N3d"}, "7": {"label": "*2", "atom_type": "H0"}, "9": {"label": "*1", "atom_type": "Cs"}, "10": {"label": "*0", "atom_type": "N3s"}}

>  <type>  (13) 
unop_9

>  <geom_source>  (13) 
Heuristics

$$$$

     RDKit          3D

 17 15  0  0  0  0  0  0  0  0999 V2000
   -3.2257   -0.0139   -0.0675 C   0  0  0  0  0  0  0  0  0  0  0  0
   -1.7624   -0.1968    0.2040 C   0  0  0  0  0  0  0  0  0  0  0  0
   -0.8981    0.5829   -0.2270 N   0  0  0  0  0  0  0  0  0  0  0  0
   -3.3882    0.8726   -0.6739 H   0  0  0  0  0  0  0  0  0  0  0  0
   -3.6106   -0.8899   -0.5877 H   0  0  0  0  0  0  0  0  0  0  0  0
   -3.7608    0.0836    0.8760 H   0  0  0  0  0  0  0  0  0  0  0  0
   -1.5383   -1.0850    0.8195 H   0  0  0  0  0  0  0  0  0  0  0  0
    0.2620    0.2899    0.0810 H   0  0  0  0  0  0  0  0  0  0  0  0
    1.7844   -1.3681   -0.2104 C   0  0  0  0  0  0  0  0  0  0  0  0
    1.5077   -0.0175    0.4040 C   0  0  0  0  0  3  0  0  0  0  0  0
    2.3802    0.9982   -0.0665 N   0  0  0  0  0  0  0  0  0  0  0  0
    1.0769   -2.1049    0.1618 H   0  0  0  0  0  0  0  0  0  0  0  0
    1.6945   -1.3187   -1.2943 H   0  0  0  0  0  0  0  0  0  0  0  0
    2.7934   -1.7068    0.0324 H   0  0  0  0  0  0  0  0  0  0  0  0
    1.5075   -0.0361    1.4940 H   0  0  0  0  0  0  0  0  0  0  0  0
    2.4156    1.0362   -1.0774 H   0  0  0  0  0  0  0  0  0  0  0  0
    2.1631    1.9095    0.3139 H   0  0  0  0  0  0  0  0  0  0  0  0
  1  2  1  0
  1  4  1  0
  1  5  1  0
  1  6  1  0
  2  3  2  3
  2  7  1  0
  3  8  1  0
  9 10  1  0
  9 12  1  0
  9 13  1  0
  9 14  1  0
 10 11  1  0
 10 15  1  0
 11 16  1  0
 11 17  1  0
M  RAD  1  10   2
M  END
>  <reaction>  (14) 
rmg_rxn_16772

>  <mol_properties>  (14) 
{"1": {"label": "*4", "atom_type": "Cd"}, "2": {"label": "*3", "atom_type": "N3d"}, "7": {"label": "*2", "atom_type": "H0"}, "9": {"label": "*1", "atom_type": "Cs"}, "10": {"label": "*0", "atom_type": "N3s"}}

>  <type>  (14) 
unop_10

>  <geom_source>  (14) 
Heuristics

$$$$

     RDKit          3D

 17 15  0  0  0  0  0  0  0  0999 V2000
   -0.0869   -0.2772   -3.1592 C   0  0  0  0  0  0  0  0  0  0  0  0
   -0.0869   -0.2772   -1.6669 C   0  0  0  0  0  0  0  0  0  0  0  0
   -0.0869    0.7954   -0.9992 N   0  0  0  0  0  0  0  0  0  0  0  0
    0.7914   -0.8072   -3.5366 H   0  0  0  0  0  0  0  0  0  0  0  0
   -0.9652   -0.8072   -3.5366 H   0  0  0  0  0  0  0  0  0  0  0  0
   -0.0869    0.7434   -3.5378 H   0  0  0  0  0  0  0  0  0  0  0  0
   -0.0869   -1.2669   -1.1922 H   0  0  0  0  0  0  0  0  0  0  0  0
   -0.0869    0.5652    0.2004 H   0  0  0  0  0  0  0  0  0  0  0  0
   -0.8053   -1.0004    1.7566 C   0  0  0  0  0  0  0  0  0  0  0  0
   -0.0869    0.3181    1.4883 C   0  0  0  0  0  3  0  0  0  0  0  0
    1.1084    0.5573    2.2862 N   0  0  0  0  0  0  0  0  0  0  0  0
   -1.1291   -1.0611    2.7986 H   0  0  0  0  0  0  0  0  0  0  0  0
   -1.6887   -1.1076    1.1227 H   0  0  0  0  0  0  0  0  0  0  0  0
   -0.1451   -1.8491    1.5608 H   0  0  0  0  0  0  0  0  0  0  0  0
   -0.7735    1.1511    1.6587 H   0  0  0  0  0  0  0  0  0  0  0  0
    0.8831    0.5481    3.2728 H   0  0  0  0  0  0  0  0  0  0  0  0
    1.7882   -0.1768    2.1342 H   0  0  0  0  0  0  0  0  0  0  0  0
  1  2  1  0
  1  4  1  0
  1  5  1  0
  1  6  1  0
  2  3  2  3
  2  7  1  0
  3  8  1  0
  9 10  1  0
  9 12  1  0
  9 13  1  0
  9 14  1  0
 10 11  1  0
 10 15  1  0
 11 16  1  0
 11 17  1  0
M  RAD  1  10   2
M  END
>  <reaction>  (15) 
rmg_rxn_16772

>  <mol_properties>  (15) 
{"1": {"label": "*4", "atom_type": "Cd"}, "2": {"label": "*3", "atom_type": "N3d"}, "7": {"label": "*2", "atom_type": "H0"}, "9": {"label": "*1", "atom_type": "Cs"}, "10": {"label": "*0", "atom_type": "N3s"}}

>  <type>  (15) 
unop_11

>  <geom_source>  (15) 
Heuristics

$$$$

     RDKit          3D

 17 15  0  0  0  0  0  0  0  0999 V2000
   -0.2538   -0.5960   -3.0427 C   0  0  0  0  0  0  0  0  0  0  0  0
   -0.2538   -0.5960   -1.5504 C   0  0  0  0  0  0  0  0  0  0  0  0
   -0.2538    0.4766   -0.8827 N   0  0  0  0  0  0  0  0  0  0  0  0
    0.6245   -1.1260   -3.4202 H   0  0  0  0  0  0  0  0  0  0  0  0
   -1.1320   -1.1260   -3.4202 H   0  0  0  0  0  0  0  0  0  0  0  0
   -0.2538    0.4246   -3.4213 H   0  0  0  0  0  0  0  0  0  0  0  0
   -0.2538   -1.5857   -1.0758 H   0  0  0  0  0  0  0  0  0  0  0  0
   -0.2538    0.2464    0.3169 H   0  0  0  0  0  0  0  0  0  0  0  0
    0.9905   -0.8027    1.9722 C   0  0  0  0  0  0  0  0  0  0  0  0
   -0.2538   -0.0007    1.6048 C   0  0  0  0  0  3  0  0  0  0  0  0
   -0.1123    1.4477    1.6741 N   0  0  0  0  0  0  0  0  0  0  0  0
    1.3041   -0.5855    2.9963 H   0  0  0  0  0  0  0  0  0  0  0  0
    0.8073   -1.8771    1.8968 H   0  0  0  0  0  0  0  0  0  0  0  0
    1.8221   -0.5554    1.3075 H   0  0  0  0  0  0  0  0  0  0  0  0
   -1.0808   -0.2864    2.2596 H   0  0  0  0  0  0  0  0  0  0  0  0
    0.1484    1.7335    2.6092 H   0  0  0  0  0  0  0  0  0  0  0  0
    0.6249    1.7613    1.0557 H   0  0  0  0  0  0  0  0  0  0  0  0
  1  2  1  0
  1  4  1  0
  1  5  1  0
  1  6  1  0
  2  3  2  3
  2  7  1  0
  3  8  1  0
  9 10  1  0
  9 12  1  0
  9 13  1  0
  9 14  1  0
 10 11  1  0
 10 15  1  0
 11 16  1  0
 11 17  1  0
M  RAD  1  10   2
M  END
>  <reaction>  (16) 
rmg_rxn_16772

>  <mol_properties>  (16) 
{"1": {"label": "*4", "atom_type": "Cd"}, "2": {"label": "*3", "atom_type": "N3d"}, "7": {"label": "*2", "atom_type": "H0"}, "9": {"label": "*1", "atom_type": "Cs"}, "10": {"label": "*0", "atom_type": "N3s"}}

>  <type>  (16) 
unop_12

>  <geom_source>  (16) 
Heuristics

$$$$

     RDKit          3D

 17 15  0  0  0  0  0  0  0  0999 V2000
    0.1403   -0.4336   -3.2110 C   0  0  0  0  0  0  0  0  0  0  0  0
    0.1403   -0.4336   -1.7187 C   0  0  0  0  0  0  0  0  0  0  0  0
    0.1403    0.6390   -1.0510 N   0  0  0  0  0  0  0  0  0  0  0  0
    1.0185   -0.9636   -3.5885 H   0  0  0  0  0  0  0  0  0  0  0  0
   -0.7380   -0.9636   -3.5885 H   0  0  0  0  0  0  0  0  0  0  0  0
    0.1403    0.5870   -3.5896 H   0  0  0  0  0  0  0  0  0  0  0  0
    0.1403   -1.4233   -1.2441 H   0  0  0  0  0  0  0  0  0  0  0  0
    0.1403    0.4088    0.1486 H   0  0  0  0  0  0  0  0  0  0  0  0
   -0.5781    1.2873    2.1737 C   0  0  0  0  0  0  0  0  0  0  0  0
    0.1403    0.1617    1.4365 C   0  0  0  0  0  3  0  0  0  0  0  0
    0.0562   -1.1528    2.0592 N   0  0  0  0  0  0  0  0  0  0  0  0
   -0.1736    1.4117    3.1813 H   0  0  0  0  0  0  0  0  0  0  0  0
   -0.4705    2.2388    1.6478 H   0  0  0  0  0  0  0  0  0  0  0  0
   -1.6457    1.0720    2.2654 H   0  0  0  0  0  0  0  0  0  0  0  0
    1.1986    0.4116    1.3274 H   0  0  0  0  0  0  0  0  0  0  0  0
    0.4442   -1.1273    2.9935 H   0  0  0  0  0  0  0  0  0  0  0  0
   -0.9100   -1.4398    2.1509 H   0  0  0  0  0  0  0  0  0  0  0  0
  1  2  1  0
  1  4  1  0
  1  5  1  0
  1  6  1  0
  2  3  2  3
  2  7  1  0
  3  8  1  0
  9 10  1  0
  9 12  1  0
  9 13  1  0
  9 14  1  0
 10 11  1  0
 10 15  1  0
 11 16  1  0
 11 17  1  0
M  RAD  1  10   2
M  END
>  <reaction>  (17) 
rmg_rxn_16772

>  <mol_properties>  (17) 
{"1": {"label": "*4", "atom_type": "Cd"}, "2": {"label": "*3", "atom_type": "N3d"}, "7": {"label": "*2", "atom_type": "H0"}, "9": {"label": "*1", "atom_type": "Cs"}, "10": {"label": "*0", "atom_type": "N3s"}}

>  <type>  (17) 
unop_13

>  <geom_source>  (17) 
Heuristics

$$$$

     RDKit          3D

 17 15  0  0  0  0  0  0  0  0999 V2000
   -0.2048   -0.3312   -3.1151 C   0  0  0  0  0  0  0  0  0  0  0  0
   -0.2048   -0.3312   -1.6228 C   0  0  0  0  0  0  0  0  0  0  0  0
   -0.2048    0.7414   -0.9551 N   0  0  0  0  0  0  0  0  0  0  0  0
    0.6735   -0.8612   -3.4925 H   0  0  0  0  0  0  0  0  0  0  0  0
   -1.0830   -0.8612   -3.4925 H   0  0  0  0  0  0  0  0  0  0  0  0
   -0.2048    0.6894   -3.4937 H   0  0  0  0  0  0  0  0  0  0  0  0
   -0.2048   -1.3209   -1.1481 H   0  0  0  0  0  0  0  0  0  0  0  0
   -0.2048    0.5112    0.2445 H   0  0  0  0  0  0  0  0  0  0  0  0
   -0.2048   -1.2434    1.7644 C   0  0  0  0  0  0  0  0  0  0  0  0
   -0.2048    0.2641    1.5325 C   0  0  0  0  0  3  0  0  0  0  0  0
    0.9098    0.9920    2.1244 N   0  0  0  0  0  0  0  0  0  0  0  0
   -0.2373   -1.4719    2.8327 H   0  0  0  0  0  0  0  0  0  0  0  0
   -1.0681   -1.7181    1.2922 H   0  0  0  0  0  0  0  0  0  0  0  0
    0.6983   -1.6998    1.3514 H   0  0  0  0  0  0  0  0  0  0  0  0
   -1.1297    0.6954    1.9235 H   0  0  0  0  0  0  0  0  0  0  0  0
    0.9293    0.8553    3.1270 H   0  0  0  0  0  0  0  0  0  0  0  0
    1.7899    0.6457    1.7644 H   0  0  0  0  0  0  0  0  0  0  0  0
  1  2  1  0
  1  4  1  0
  1  5  1  0
  1  6  1  0
  2  3  2  3
  2  7  1  0
  3  8  1  0
  9 10  1  0
  9 12  1  0
  9 13  1  0
  9 14  1  0
 10 11  1  0
 10 15  1  0
 11 16  1  0
 11 17  1  0
M  RAD  1  10   2
M  END
>  <reaction>  (18) 
rmg_rxn_16772

>  <mol_properties>  (18) 
{"1": {"label": "*4", "atom_type": "Cd"}, "2": {"label": "*3", "atom_type": "N3d"}, "7": {"label": "*2", "atom_type": "H0"}, "9": {"label": "*1", "atom_type": "Cs"}, "10": {"label": "*0", "atom_type": "N3s"}}

>  <type>  (18) 
unop_14

>  <geom_source>  (18) 
Heuristics

$$$$

     RDKit          3D

 17 15  0  0  0  0  0  0  0  0999 V2000
   -0.2716   -0.4546   -3.0709 C   0  0  0  0  0  0  0  0  0  0  0  0
   -0.2716   -0.4546   -1.5786 C   0  0  0  0  0  0  0  0  0  0  0  0
   -0.2716    0.6180   -0.9109 N   0  0  0  0  0  0  0  0  0  0  0  0
    0.6067   -0.9846   -3.4483 H   0  0  0  0  0  0  0  0  0  0  0  0
   -1.1498   -0.9846   -3.4483 H   0  0  0  0  0  0  0  0  0  0  0  0
   -0.2716    0.5660   -3.4495 H   0  0  0  0  0  0  0  0  0  0  0  0
   -0.2716   -1.4443   -1.1039 H   0  0  0  0  0  0  0  0  0  0  0  0
   -0.2716    0.3878    0.2887 H   0  0  0  0  0  0  0  0  0  0  0  0
    0.4468   -1.1778    1.8449 C   0  0  0  0  0  0  0  0  0  0  0  0
   -0.2716    0.1407    1.5766 C   0  0  0  0  0  3  0  0  0  0  0  0
    0.4841    1.3452    1.8940 N   0  0  0  0  0  0  0  0  0  0  0  0
    0.7138   -1.2666    2.9009 H   0  0  0  0  0  0  0  0  0  0  0  0
   -0.1810   -2.0327    1.5832 H   0  0  0  0  0  0  0  0  0  0  0  0
    1.3675   -1.2443    1.2597 H   0  0  0  0  0  0  0  0  0  0  0  0
   -1.2040    0.1727    2.1458 H   0  0  0  0  0  0  0  0  0  0  0  0
    0.7435    1.3529    2.8722 H   0  0  0  0  0  0  0  0  0  0  0  0
    1.3449    1.3734    1.3625 H   0  0  0  0  0  0  0  0  0  0  0  0
  1  2  1  0
  1  4  1  0
  1  5  1  0
  1  6  1  0
  2  3  2  3
  2  7  1  0
  3  8  1  0
  9 10  1  0
  9 12  1  0
  9 13  1  0
  9 14  1  0
 10 11  1  0
 10 15  1  0
 11 16  1  0
 11 17  1  0
M  RAD  1  10   2
M  END
>  <reaction>  (19) 
rmg_rxn_16772

>  <mol_properties>  (19) 
{"1": {"label": "*4", "atom_type": "Cd"}, "2": {"label": "*3", "atom_type": "N3d"}, "7": {"label": "*2", "atom_type": "H0"}, "9": {"label": "*1", "atom_type": "Cs"}, "10": {"label": "*0", "atom_type": "N3s"}}

>  <type>  (19) 
unop_15

>  <geom_source>  (19) 
gaussian_log

$$$$
