
     RDKit          3D

 18 17  0  0  0  0  0  0  0  0999 V2000
    2.2026   -0.7213   -0.2612 C   0  0  0  0  0  0  0  0  0  0  0  0
    1.5384    0.2638    0.6915 C   0  0  0  0  0  0  0  0  0  0  0  0
    2.2584    1.5946    0.7694 C   0  0  0  0  0  0  0  0  0  0  0  0
    2.2212    2.2185   -0.4893 O   0  0  0  0  0  0  0  0  0  0  0  0
    2.8988    3.4488   -0.5204 C   0  0  0  0  0  0  0  0  0  0  0  0
    2.7981    4.0296   -1.9118 C   0  0  0  0  0  0  0  0  0  0  0  0
    3.2294   -0.9309    0.0486 H   0  0  0  0  0  0  0  0  0  0  0  0
    2.2338   -0.3181   -1.2734 H   0  0  0  0  0  0  0  0  0  0  0  0
    1.6610   -1.6680   -0.2875 H   0  0  0  0  0  0  0  0  0  0  0  0
    1.4990   -0.1566    1.7002 H   0  0  0  0  0  0  0  0  0  0  0  0
    0.5055    0.4455    0.3835 H   0  0  0  0  0  0  0  0  0  0  0  0
    3.3038    1.4410    1.0808 H   0  0  0  0  0  0  0  0  0  0  0  0
    1.7844    2.2410    1.5226 H   0  0  0  0  0  0  0  0  0  0  0  0
    2.4596    4.1376    0.2164 H   0  0  0  0  0  0  0  0  0  0  0  0
    3.9524    3.3035   -0.2397 H   0  0  0  0  0  0  0  0  0  0  0  0
    1.7543    4.1869   -2.1856 H   0  0  0  0  0  0  0  0  0  0  0  0
    3.2472    3.3545   -2.6411 H   0  0  0  0  0  0  0  0  0  0  0  0
    3.3178    4.9878   -1.9600 H   0  0  0  0  0  0  0  0  0  0  0  0
  1  2  1  0
  1  7  1  0
  1  8  1  0
  1  9  1  0
  2  3  1  0
  2 10  1  0
  2 11  1  0
  3  4  1  0
  3 12  1  0
  3 13  1  0
  4  5  1  0
  5  6  1  0
  5 14  1  0
  5 15  1  0
  6 16  1  0
  6 17  1  0
  6 18  1  0
M  END
>  <reaction>  (1) 
rmg_rxn_270

>  <mol_properties>  (1) 
{"4": {"label": "donator", "atom_type": "Cs"}, "13": {"label": "d_hydrogen", "atom_type": "H0"}}

>  <type>  (1) 
r1h

$$$$

     RDKit          3D

  9  8  0  0  0  0  0  0  0  0999 V2000
    1.3246   -0.8124   -0.0809 C   0  0  0  0  0  2  0  0  0  0  0  0
    0.4082    0.3080    0.1518 C   0  0  0  0  0  0  0  0  0  0  0  0
   -1.0545   -0.0277   -0.1520 C   0  0  0  0  0  0  0  0  0  0  0  0
    2.3933   -0.9471    0.0203 H   0  0  0  0  0  0  0  0  0  0  0  0
    0.4898    0.6406    1.1970 H   0  0  0  0  0  0  0  0  0  0  0  0
    0.7134    1.1680   -0.4624 H   0  0  0  0  0  0  0  0  0  0  0  0
   -1.4014   -0.8515    0.4727 H   0  0  0  0  0  0  0  0  0  0  0  0
   -1.1767   -0.3214   -1.1952 H   0  0  0  0  0  0  0  0  0  0  0  0
   -1.6915    0.8372    0.0370 H   0  0  0  0  0  0  0  0  0  0  0  0
  1  2  1  0
  1  4  1  0
  2  3  1  0
  2  5  1  0
  2  6  1  0
  3  7  1  0
  3  8  1  0
  3  9  1  0
M  RAD  1   1   3
M  END
>  <reaction>  (2) 
rmg_rxn_270

>  <mol_properties>  (2) 
{"0": {"label": "acceptor", "atom_type": "Cs"}}

>  <type>  (2) 
r2

$$$$

     RDKit          3D

 10  9  0  0  0  0  0  0  0  0999 V2000
    1.4352    0.2660   -0.1351 C   0  0  0  0  0  3  0  0  0  0  0  0
    0.2236   -0.3243    0.4850 C   0  0  0  0  0  0  0  0  0  0  0  0
   -0.8893    0.6872    0.7364 C   0  0  0  0  0  0  0  0  0  0  0  0
    2.3577   -0.2958   -0.1940 H   0  0  0  0  0  0  0  0  0  0  0  0
    1.3935    1.2286   -0.6287 H   0  0  0  0  0  0  0  0  0  0  0  0
   -0.1633   -1.1318   -0.1556 H   0  0  0  0  0  0  0  0  0  0  0  0
    0.4945   -0.8215    1.4240 H   0  0  0  0  0  0  0  0  0  0  0  0
   -1.1991    1.1627   -0.1967 H   0  0  0  0  0  0  0  0  0  0  0  0
   -1.7660    0.2103    1.1768 H   0  0  0  0  0  0  0  0  0  0  0  0
   -0.5545    1.4732    1.4159 H   0  0  0  0  0  0  0  0  0  0  0  0
  1  2  1  0
  1  4  1  0
  1  5  1  0
  2  3  1  0
  2  6  1  0
  2  7  1  0
  3  8  1  0
  3  9  1  0
  3 10  1  0
M  RAD  1   1   2
M  END
>  <reaction>  (3) 
rmg_rxn_270

>  <mol_properties>  (3) 
{"0": {"label": "acceptor", "atom_type": "Cs"}, "9": {"label": "a_hydrogen", "atom_type": "H0"}}

>  <type>  (3) 
r2h

$$$$

     RDKit          3D

 27 25  0  0  0  0  0  0  0  0999 V2000
    0.1437    1.9376    1.8004 C   0  0  0  0  0  2  0  0  0  0  0  0
   -0.1572    0.9884    2.8941 C   0  0  0  0  0  0  0  0  0  0  0  0
   -0.0238   -0.4819    2.4914 C   0  0  0  0  0  0  0  0  0  0  0  0
    0.5405    2.9388    1.9321 H   0  0  0  0  0  0  0  0  0  0  0  0
    0.4958    1.1931    3.7515 H   0  0  0  0  0  0  0  0  0  0  0  0
   -1.1818    1.1598    3.2580 H   0  0  0  0  0  0  0  0  0  0  0  0
    1.0061   -0.7150    2.2145 H   0  0  0  0  0  0  0  0  0  0  0  0
   -0.6547   -0.7127    1.6320 H   0  0  0  0  0  0  0  0  0  0  0  0
   -0.3094   -1.1372    3.3157 H   0  0  0  0  0  0  0  0  0  0  0  0
    1.0251   -2.3350   -2.3173 C   0  0  0  0  0  0  0  0  0  0  0  0
    1.5393   -1.6845   -1.0399 C   0  0  0  0  0  0  0  0  0  0  0  0
    1.1868   -0.2166   -0.9317 C   0  0  0  0  0  0  0  0  0  0  0  0
   -0.2174   -0.0787   -0.8947 O   0  0  0  0  0  0  0  0  0  0  0  0
   -0.6461    1.2204   -0.6911 C   0  0  0  0  0  0  0  0  0  0  0  0
   -2.1455    1.2951   -0.6905 C   0  0  0  0  0  0  0  0  0  0  0  0
    1.4395   -1.8419   -3.2001 H   0  0  0  0  0  0  0  0  0  0  0  0
   -0.0613   -2.2681   -2.3754 H   0  0  0  0  0  0  0  0  0  0  0  0
    1.3042   -3.3887   -2.3605 H   0  0  0  0  0  0  0  0  0  0  0  0
    2.6279   -1.7716   -0.9849 H   0  0  0  0  0  0  0  0  0  0  0  0
    1.1356   -2.2014   -0.1652 H   0  0  0  0  0  0  0  0  0  0  0  0
    1.5881    0.3421   -1.7903 H   0  0  0  0  0  0  0  0  0  0  0  0
    1.6186    0.2178   -0.0209 H   0  0  0  0  0  0  0  0  0  0  0  0
   -0.2547    1.5958    0.4529 H   0  0  0  0  0  0  0  0  0  0  0  0
   -0.1682    1.9261   -1.3841 H   0  0  0  0  0  0  0  0  0  0  0  0
   -2.5568    0.6405    0.0799 H   0  0  0  0  0  0  0  0  0  0  0  0
   -2.5560    0.9885   -1.6555 H   0  0  0  0  0  0  0  0  0  0  0  0
   -2.4680    2.3161   -0.4833 H   0  0  0  0  0  0  0  0  0  0  0  0
  1  2  1  0
  1  4  1  0
  2  3  1  0
  2  5  1  0
  2  6  1  0
  3  7  1  0
  3  8  1  0
  3  9  1  0
 10 11  1  0
 10 16  1  0
 10 17  1  0
 10 18  1  0
 11 12  1  0
 11 19  1  0
 11 20  1  0
 12 13  1  0
 12 21  1  0
 12 22  1  0
 13 14  1  0
 14 15  1  0
 14 23  1  0
 14 24  1  0
 15 25  1  0
 15 26  1  0
 15 27  1  0
M  RAD  1   1   3
M  END
>  <reaction>  (4) 
rmg_rxn_270

>  <mol_properties>  (4) 
{"0": {"label": "*3", "atom_type": "Cs"}, "1": {"label": "*4", "atom_type": "Cs"}, "12": {"label": "*0", "atom_type": "O2s"}, "13": {"label": "*1", "atom_type": "Cs"}, "22": {"label": "*2", "atom_type": "H0"}}

>  <type>  (4) 
ts

$$$$

     RDKit          3D

 27 25  0  0  0  0  0  0  0  0999 V2000
   -0.3591    0.7722    1.9421 C   0  0  0  0  0  3  0  0  0  0  0  0
    0.7371    1.4928    2.6349 C   0  0  0  0  0  0  0  0  0  0  0  0
    0.2477    2.5369    3.6326 C   0  0  0  0  0  0  0  0  0  0  0  0
   -1.3660    0.7785    2.3397 H   0  0  0  0  0  0  0  0  0  0  0  0
    1.3813    0.7700    3.1587 H   0  0  0  0  0  0  0  0  0  0  0  0
    1.3945    1.9641    1.8947 H   0  0  0  0  0  0  0  0  0  0  0  0
   -0.3764    2.0760    4.4012 H   0  0  0  0  0  0  0  0  0  0  0  0
   -0.3490    3.3026    3.1334 H   0  0  0  0  0  0  0  0  0  0  0  0
    1.0831    3.0308    4.1308 H   0  0  0  0  0  0  0  0  0  0  0  0
    0.7345   -2.6093   -2.9030 C   0  0  0  0  0  0  0  0  0  0  0  0
    0.7345   -2.6093   -1.3801 C   0  0  0  0  0  0  0  0  0  0  0  0
    0.7345   -1.2162   -0.7846 C   0  0  0  0  0  0  0  0  0  0  0  0
   -0.4485   -0.5527   -1.1522 O   0  0  0  0  0  0  0  0  0  0  0  0
   -0.5192    0.7654   -0.6713 C   0  0  0  0  0  3  0  0  0  0  0  0
   -1.8225    1.3832   -1.1221 C   0  0  0  0  0  0  0  0  0  0  0  0
    1.6166   -2.0950   -3.2926 H   0  0  0  0  0  0  0  0  0  0  0  0
   -0.1482   -2.0996   -3.2891 H   0  0  0  0  0  0  0  0  0  0  0  0
    0.7400   -3.6272   -3.2957 H   0  0  0  0  0  0  0  0  0  0  0  0
    1.6160   -3.1358   -1.0038 H   0  0  0  0  0  0  0  0  0  0  0  0
   -0.1399   -3.1473   -1.0048 H   0  0  0  0  0  0  0  0  0  0  0  0
    1.6087   -0.6512   -1.1450 H   0  0  0  0  0  0  0  0  0  0  0  0
    0.8093   -1.2702    0.3115 H   0  0  0  0  0  0  0  0  0  0  0  0
   -0.4385    0.7688    0.6464 H   0  0  0  0  0  0  0  0  0  0  0  0
    0.3337    1.3484   -1.0492 H   0  0  0  0  0  0  0  0  0  0  0  0
   -2.6689    0.8138   -0.7364 H   0  0  0  0  0  0  0  0  0  0  0  0
   -1.8833    1.3950   -2.2109 H   0  0  0  0  0  0  0  0  0  0  0  0
   -1.9001    2.4092   -0.7591 H   0  0  0  0  0  0  0  0  0  0  0  0
  1  2  1  0
  1  4  1  0
  1 23  1  0
  2  3  1  0
  2  5  1  0
  2  6  1  0
  3  7  1  0
  3  8  1  0
  3  9  1  0
 10 11  1  0
 10 16  1  0
 10 17  1  0
 10 18  1  0
 11 12  1  0
 11 19  1  0
 11 20  1  0
 12 13  1  0
 12 21  1  0
 12 22  1  0
 13 14  1  0
 14 15  1  0
 14 24  1  0
 15 25  1  0
 15 26  1  0
 15 27  1  0
M  RAD  2   1   2  14   2
M  END
>  <reaction>  (5) 
rmg_rxn_270

>  <mol_properties>  (5) 
{"0": {"label": "*3", "atom_type": "Cs"}, "1": {"label": "*4", "atom_type": "Cs"}, "12": {"label": "*0", "atom_type": "O2s"}, "13": {"label": "*1", "atom_type": "Cs"}, "22": {"label": "*2", "atom_type": "H0"}}

>  <type>  (5) 
unop_1

>  <geom_source>  (5) 
Heuristics

$$$$

     RDKit          3D

 27 25  0  0  0  0  0  0  0  0999 V2000
   -0.4125    1.2376    1.8980 C   0  0  0  0  0  3  0  0  0  0  0  0
    0.3514    0.1877    2.6157 C   0  0  0  0  0  0  0  0  0  0  0  0
    0.9443    0.6597    3.9389 C   0  0  0  0  0  0  0  0  0  0  0  0
   -0.7601    2.1229    2.4151 H   0  0  0  0  0  0  0  0  0  0  0  0
   -0.2996   -0.6799    2.8033 H   0  0  0  0  0  0  0  0  0  0  0  0
    1.1470   -0.1980    1.9674 H   0  0  0  0  0  0  0  0  0  0  0  0
    0.1592    1.0098    4.6125 H   0  0  0  0  0  0  0  0  0  0  0  0
    1.6406    1.4854    3.7808 H   0  0  0  0  0  0  0  0  0  0  0  0
    1.4826   -0.1452    4.4412 H   0  0  0  0  0  0  0  0  0  0  0  0
    0.6811   -2.1439   -2.9471 C   0  0  0  0  0  0  0  0  0  0  0  0
    0.6811   -2.1439   -1.4242 C   0  0  0  0  0  0  0  0  0  0  0  0
    0.6811   -0.7509   -0.8287 C   0  0  0  0  0  0  0  0  0  0  0  0
   -0.5019   -0.0873   -1.1963 O   0  0  0  0  0  0  0  0  0  0  0  0
   -0.5726    1.2308   -0.7154 C   0  0  0  0  0  3  0  0  0  0  0  0
   -1.8759    1.8486   -1.1662 C   0  0  0  0  0  0  0  0  0  0  0  0
    1.5632   -1.6296   -3.3367 H   0  0  0  0  0  0  0  0  0  0  0  0
   -0.2016   -1.6342   -3.3332 H   0  0  0  0  0  0  0  0  0  0  0  0
    0.6866   -3.1618   -3.3398 H   0  0  0  0  0  0  0  0  0  0  0  0
    1.5626   -2.6704   -1.0479 H   0  0  0  0  0  0  0  0  0  0  0  0
   -0.1933   -2.6819   -1.0489 H   0  0  0  0  0  0  0  0  0  0  0  0
    1.5553   -0.1858   -1.1891 H   0  0  0  0  0  0  0  0  0  0  0  0
    0.7559   -0.8048    0.2674 H   0  0  0  0  0  0  0  0  0  0  0  0
   -0.4919    1.2342    0.6023 H   0  0  0  0  0  0  0  0  0  0  0  0
    0.2803    1.8138   -1.0933 H   0  0  0  0  0  0  0  0  0  0  0  0
   -2.7223    1.2792   -0.7805 H   0  0  0  0  0  0  0  0  0  0  0  0
   -1.9367    1.8604   -2.2550 H   0  0  0  0  0  0  0  0  0  0  0  0
   -1.9535    2.8746   -0.8032 H   0  0  0  0  0  0  0  0  0  0  0  0
  1  2  1  0
  1  4  1  0
  1 23  1  0
  2  3  1  0
  2  5  1  0
  2  6  1  0
  3  7  1  0
  3  8  1  0
  3  9  1  0
 10 11  1  0
 10 16  1  0
 10 17  1  0
 10 18  1  0
 11 12  1  0
 11 19  1  0
 11 20  1  0
 12 13  1  0
 12 21  1  0
 12 22  1  0
 13 14  1  0
 14 15  1  0
 14 24  1  0
 15 25  1  0
 15 26  1  0
 15 27  1  0
M  RAD  2   1   2  14   2
M  END
>  <reaction>  (6) 
rmg_rxn_270

>  <mol_properties>  (6) 
{"0": {"label": "*3", "atom_type": "Cs"}, "1": {"label": "*4", "atom_type": "Cs"}, "12": {"label": "*0", "atom_type": "O2s"}, "13": {"label": "*1", "atom_type": "Cs"}, "22": {"label": "*2", "atom_type": "H0"}}

>  <type>  (6) 
unop_2

>  <geom_source>  (6) 
Heuristics

$$$$

     RDKit          3D

 27 25  0  0  0  0  0  0  0  0999 V2000
   -0.2048    0.7411    1.9158 C   0  0  0  0  0  3  0  0  0  0  0  0
    0.3920    1.8913    2.6380 C   0  0  0  0  0  0  0  0  0  0  0  0
   -0.4577    2.3902    3.8016 C   0  0  0  0  0  0  0  0  0  0  0  0
   -0.9876    0.1463    2.3692 H   0  0  0  0  0  0  0  0  0  0  0  0
    1.3888    1.6144    3.0144 H   0  0  0  0  0  0  0  0  0  0  0  0
    0.5795    2.7115    1.9349 H   0  0  0  0  0  0  0  0  0  0  0  0
   -0.6198    1.5949    4.5323 H   0  0  0  0  0  0  0  0  0  0  0  0
   -1.4358    2.7270    3.4529 H   0  0  0  0  0  0  0  0  0  0  0  0
    0.0237    3.2239    4.3148 H   0  0  0  0  0  0  0  0  0  0  0  0
    0.8889   -2.6405   -2.9293 C   0  0  0  0  0  0  0  0  0  0  0  0
    0.8889   -2.6405   -1.4064 C   0  0  0  0  0  0  0  0  0  0  0  0
    0.8889   -1.2474   -0.8109 C   0  0  0  0  0  0  0  0  0  0  0  0
   -0.2941   -0.5838   -1.1785 O   0  0  0  0  0  0  0  0  0  0  0  0
   -0.3649    0.7343   -0.6976 C   0  0  0  0  0  3  0  0  0  0  0  0
   -1.6682    1.3520   -1.1484 C   0  0  0  0  0  0  0  0  0  0  0  0
    1.7709   -2.1261   -3.3189 H   0  0  0  0  0  0  0  0  0  0  0  0
    0.0061   -2.1308   -3.3154 H   0  0  0  0  0  0  0  0  0  0  0  0
    0.8943   -3.6583   -3.3220 H   0  0  0  0  0  0  0  0  0  0  0  0
    1.7704   -3.1669   -1.0301 H   0  0  0  0  0  0  0  0  0  0  0  0
    0.0145   -3.1784   -1.0311 H   0  0  0  0  0  0  0  0  0  0  0  0
    1.7630   -0.6823   -1.1713 H   0  0  0  0  0  0  0  0  0  0  0  0
    0.9636   -1.3013    0.2852 H   0  0  0  0  0  0  0  0  0  0  0  0
   -0.2842    0.7377    0.6201 H   0  0  0  0  0  0  0  0  0  0  0  0
    0.4880    1.3172   -1.0755 H   0  0  0  0  0  0  0  0  0  0  0  0
   -2.5145    0.7826   -0.7627 H   0  0  0  0  0  0  0  0  0  0  0  0
   -1.7290    1.3639   -2.2372 H   0  0  0  0  0  0  0  0  0  0  0  0
   -1.7458    2.3781   -0.7854 H   0  0  0  0  0  0  0  0  0  0  0  0
  1  2  1  0
  1  4  1  0
  1 23  1  0
  2  3  1  0
  2  5  1  0
  2  6  1  0
  3  7  1  0
  3  8  1  0
  3  9  1  0
 10 11  1  0
 10 16  1  0
 10 17  1  0
 10 18  1  0
 11 12  1  0
 11 19  1  0
 11 20  1  0
 12 13  1  0
 12 21  1  0
 12 22  1  0
 13 14  1  0
 14 15  1  0
 14 24  1  0
 15 25  1  0
 15 26  1  0
 15 27  1  0
M  RAD  2   1   2  14   2
M  END
>  <reaction>  (7) 
rmg_rxn_270

>  <mol_properties>  (7) 
{"0": {"label": "*3", "atom_type": "Cs"}, "1": {"label": "*4", "atom_type": "Cs"}, "12": {"label": "*0", "atom_type": "O2s"}, "13": {"label": "*1", "atom_type": "Cs"}, "22": {"label": "*2", "atom_type": "H0"}}

>  <type>  (7) 
unop_3

>  <geom_source>  (7) 
Heuristics

$$$$

     RDKit          3D

 27 25  0  0  0  0  0  0  0  0999 V2000
    0.0637    1.1581    1.8614 C   0  0  0  0  0  3  0  0  0  0  0  0
   -0.9396    0.4414    2.6865 C   0  0  0  0  0  0  0  0  0  0  0  0
   -1.0098    0.9336    4.1279 C   0  0  0  0  0  0  0  0  0  0  0  0
    0.4586    2.1160    2.1751 H   0  0  0  0  0  0  0  0  0  0  0  0
   -1.9345    0.5382    2.2253 H   0  0  0  0  0  0  0  0  0  0  0  0
   -0.7302   -0.6347    2.6700 H   0  0  0  0  0  0  0  0  0  0  0  0
   -1.2581    1.9966    4.1630 H   0  0  0  0  0  0  0  0  0  0  0  0
   -0.0514    0.7983    4.6325 H   0  0  0  0  0  0  0  0  0  0  0  0
   -1.7695    0.3932    4.6945 H   0  0  0  0  0  0  0  0  0  0  0  0
    1.1573   -2.2234   -2.9837 C   0  0  0  0  0  0  0  0  0  0  0  0
    1.1573   -2.2234   -1.4608 C   0  0  0  0  0  0  0  0  0  0  0  0
    1.1573   -0.8304   -0.8653 C   0  0  0  0  0  0  0  0  0  0  0  0
   -0.0257   -0.1668   -1.2329 O   0  0  0  0  0  0  0  0  0  0  0  0
   -0.0964    1.1513   -0.7520 C   0  0  0  0  0  3  0  0  0  0  0  0
   -1.3997    1.7691   -1.2028 C   0  0  0  0  0  0  0  0  0  0  0  0
    2.0394   -1.7091   -3.3733 H   0  0  0  0  0  0  0  0  0  0  0  0
    0.2746   -1.7137   -3.3698 H   0  0  0  0  0  0  0  0  0  0  0  0
    1.1628   -3.2413   -3.3764 H   0  0  0  0  0  0  0  0  0  0  0  0
    2.0389   -2.7499   -1.0845 H   0  0  0  0  0  0  0  0  0  0  0  0
    0.2829   -2.7614   -1.0855 H   0  0  0  0  0  0  0  0  0  0  0  0
    2.0315   -0.2653   -1.2257 H   0  0  0  0  0  0  0  0  0  0  0  0
    1.2321   -0.8843    0.2308 H   0  0  0  0  0  0  0  0  0  0  0  0
   -0.0157    1.1547    0.5657 H   0  0  0  0  0  0  0  0  0  0  0  0
    0.7565    1.7343   -1.1299 H   0  0  0  0  0  0  0  0  0  0  0  0
   -2.2461    1.1997   -0.8171 H   0  0  0  0  0  0  0  0  0  0  0  0
   -1.4605    1.7809   -2.2916 H   0  0  0  0  0  0  0  0  0  0  0  0
   -1.4773    2.7951   -0.8398 H   0  0  0  0  0  0  0  0  0  0  0  0
  1  2  1  0
  1  4  1  0
  1 23  1  0
  2  3  1  0
  2  5  1  0
  2  6  1  0
  3  7  1  0
  3  8  1  0
  3  9  1  0
 10 11  1  0
 10 16  1  0
 10 17  1  0
 10 18  1  0
 11 12  1  0
 11 19  1  0
 11 20  1  0
 12 13  1  0
 12 21  1  0
 12 22  1  0
 13 14  1  0
 14 15  1  0
 14 24  1  0
 15 25  1  0
 15 26  1  0
 15 27  1  0
M  RAD  2   1   2  14   2
M  END
>  <reaction>  (8) 
rmg_rxn_270

>  <mol_properties>  (8) 
{"0": {"label": "*3", "atom_type": "Cs"}, "1": {"label": "*4", "atom_type": "Cs"}, "12": {"label": "*0", "atom_type": "O2s"}, "13": {"label": "*1", "atom_type": "Cs"}, "22": {"label": "*2", "atom_type": "H0"}}

>  <type>  (8) 
unop_4

>  <geom_source>  (8) 
Heuristics

$$$$

     RDKit          3D

 27 25  0  0  0  0  0  0  0  0999 V2000
   -0.1417    0.7954    1.8675 C   0  0  0  0  0  3  0  0  0  0  0  0
   -0.1917    2.0676    2.6290 C   0  0  0  0  0  0  0  0  0  0  0  0
   -0.3677    1.8744    4.1313 C   0  0  0  0  0  0  0  0  0  0  0  0
    0.0617   -0.1432    2.3671 H   0  0  0  0  0  0  0  0  0  0  0  0
    0.7284    2.6439    2.4466 H   0  0  0  0  0  0  0  0  0  0  0  0
   -0.9970    2.7005    2.2378 H   0  0  0  0  0  0  0  0  0  0  0  0
    0.4497    1.2792    4.5440 H   0  0  0  0  0  0  0  0  0  0  0  0
   -1.3022    1.3544    4.3499 H   0  0  0  0  0  0  0  0  0  0  0  0
   -0.3828    2.8315    4.6546 H   0  0  0  0  0  0  0  0  0  0  0  0
    0.9520   -2.5861   -2.9776 C   0  0  0  0  0  0  0  0  0  0  0  0
    0.9520   -2.5861   -1.4547 C   0  0  0  0  0  0  0  0  0  0  0  0
    0.9520   -1.1931   -0.8592 C   0  0  0  0  0  0  0  0  0  0  0  0
   -0.2310   -0.5295   -1.2268 O   0  0  0  0  0  0  0  0  0  0  0  0
   -0.3017    0.7886   -0.7459 C   0  0  0  0  0  3  0  0  0  0  0  0
   -1.6051    1.4064   -1.1967 C   0  0  0  0  0  0  0  0  0  0  0  0
    1.8340   -2.0718   -3.3672 H   0  0  0  0  0  0  0  0  0  0  0  0
    0.0693   -2.0765   -3.3637 H   0  0  0  0  0  0  0  0  0  0  0  0
    0.9575   -3.6040   -3.3703 H   0  0  0  0  0  0  0  0  0  0  0  0
    1.8335   -3.1126   -1.0784 H   0  0  0  0  0  0  0  0  0  0  0  0
    0.0776   -3.1241   -1.0794 H   0  0  0  0  0  0  0  0  0  0  0  0
    1.8262   -0.6280   -1.2196 H   0  0  0  0  0  0  0  0  0  0  0  0
    1.0268   -1.2470    0.2369 H   0  0  0  0  0  0  0  0  0  0  0  0
   -0.2210    0.7920    0.5718 H   0  0  0  0  0  0  0  0  0  0  0  0
    0.5511    1.3716   -1.1238 H   0  0  0  0  0  0  0  0  0  0  0  0
   -2.4514    0.8370   -0.8110 H   0  0  0  0  0  0  0  0  0  0  0  0
   -1.6659    1.4182   -2.2855 H   0  0  0  0  0  0  0  0  0  0  0  0
   -1.6827    2.4324   -0.8337 H   0  0  0  0  0  0  0  0  0  0  0  0
  1  2  1  0
  1  4  1  0
  1 23  1  0
  2  3  1  0
  2  5  1  0
  2  6  1  0
  3  7  1  0
  3  8  1  0
  3  9  1  0
 10 11  1  0
 10 16  1  0
 10 17  1  0
 10 18  1  0
 11 12  1  0
 11 19  1  0
 11 20  1  0
 12 13  1  0
 12 21  1  0
 12 22  1  0
 13 14  1  0
 14 15  1  0
 14 24  1  0
 15 25  1  0
 15 26  1  0
 15 27  1  0
M  RAD  2   1   2  14   2
M  END
>  <reaction>  (9) 
rmg_rxn_270

>  <mol_properties>  (9) 
{"0": {"label": "*3", "atom_type": "Cs"}, "1": {"label": "*4", "atom_type": "Cs"}, "12": {"label": "*0", "atom_type": "O2s"}, "13": {"label": "*1", "atom_type": "Cs"}, "22": {"label": "*2", "atom_type": "H0"}}

>  <type>  (9) 
unop_5

>  <geom_source>  (9) 
Heuristics

$$$$

     RDKit          3D

 27 25  0  0  0  0  0  0  0  0999 V2000
    0.0887    0.9915    1.8710 C   0  0  0  0  0  3  0  0  0  0  0  0
   -1.1326    0.8970    2.7078 C   0  0  0  0  0  0  0  0  0  0  0  0
   -1.0106    1.6096    4.0504 C   0  0  0  0  0  0  0  0  0  0  0  0
    0.8425    1.7423    2.0714 H   0  0  0  0  0  0  0  0  0  0  0  0
   -1.9907    1.3127    2.1576 H   0  0  0  0  0  0  0  0  0  0  0  0
   -1.3901   -0.1568    2.8673 H   0  0  0  0  0  0  0  0  0  0  0  0
   -0.7941    2.6705    3.9079 H   0  0  0  0  0  0  0  0  0  0  0  0
   -0.2022    1.1815    4.6461 H   0  0  0  0  0  0  0  0  0  0  0  0
   -1.9336    1.5302    4.6263 H   0  0  0  0  0  0  0  0  0  0  0  0
    1.1824   -2.3900   -2.9741 C   0  0  0  0  0  0  0  0  0  0  0  0
    1.1824   -2.3900   -1.4512 C   0  0  0  0  0  0  0  0  0  0  0  0
    1.1824   -0.9970   -0.8557 C   0  0  0  0  0  0  0  0  0  0  0  0
   -0.0006   -0.3334   -1.2233 O   0  0  0  0  0  0  0  0  0  0  0  0
   -0.0713    0.9847   -0.7424 C   0  0  0  0  0  3  0  0  0  0  0  0
   -1.3746    1.6025   -1.1932 C   0  0  0  0  0  0  0  0  0  0  0  0
    2.0645   -1.8757   -3.3637 H   0  0  0  0  0  0  0  0  0  0  0  0
    0.2997   -1.8803   -3.3602 H   0  0  0  0  0  0  0  0  0  0  0  0
    1.1879   -3.4079   -3.3668 H   0  0  0  0  0  0  0  0  0  0  0  0
    2.0639   -2.9165   -1.0749 H   0  0  0  0  0  0  0  0  0  0  0  0
    0.3080   -2.9280   -1.0759 H   0  0  0  0  0  0  0  0  0  0  0  0
    2.0566   -0.4319   -1.2161 H   0  0  0  0  0  0  0  0  0  0  0  0
    1.2572   -1.0509    0.2404 H   0  0  0  0  0  0  0  0  0  0  0  0
    0.0094    0.9881    0.5753 H   0  0  0  0  0  0  0  0  0  0  0  0
    0.7815    1.5677   -1.1203 H   0  0  0  0  0  0  0  0  0  0  0  0
   -2.2210    1.0331   -0.8075 H   0  0  0  0  0  0  0  0  0  0  0  0
   -1.4354    1.6143   -2.2820 H   0  0  0  0  0  0  0  0  0  0  0  0
   -1.4522    2.6285   -0.8302 H   0  0  0  0  0  0  0  0  0  0  0  0
  1  2  1  0
  1  4  1  0
  1 23  1  0
  2  3  1  0
  2  5  1  0
  2  6  1  0
  3  7  1  0
  3  8  1  0
  3  9  1  0
 10 11  1  0
 10 16  1  0
 10 17  1  0
 10 18  1  0
 11 12  1  0
 11 19  1  0
 11 20  1  0
 12 13  1  0
 12 21  1  0
 12 22  1  0
 13 14  1  0
 14 15  1  0
 14 24  1  0
 15 25  1  0
 15 26  1  0
 15 27  1  0
M  RAD  2   1   2  14   2
M  END
>  <reaction>  (10) 
rmg_rxn_270

>  <mol_properties>  (10) 
{"0": {"label": "*3", "atom_type": "Cs"}, "1": {"label": "*4", "atom_type": "Cs"}, "12": {"label": "*0", "atom_type": "O2s"}, "13": {"label": "*1", "atom_type": "Cs"}, "22": {"label": "*2", "atom_type": "H0"}}

>  <type>  (10) 
unop_6

>  <geom_source>  (10) 
Heuristics

$$$$

     RDKit          3D

 27 25  0  0  0  0  0  0  0  0999 V2000
    0.0176    0.8510    1.8803 C   0  0  0  0  0  3  0  0  0  0  0  0
   -1.0821    1.4046    2.7080 C   0  0  0  0  0  0  0  0  0  0  0  0
   -0.6037    2.0744    3.9916 C   0  0  0  0  0  0  0  0  0  0  0  0
    1.0407    1.1721    2.0295 H   0  0  0  0  0  0  0  0  0  0  0  0
   -1.6592    2.1323    2.1170 H   0  0  0  0  0  0  0  0  0  0  0  0
   -1.7997    0.6107    2.9470 H   0  0  0  0  0  0  0  0  0  0  0  0
    0.0814    2.8951    3.7685 H   0  0  0  0  0  0  0  0  0  0  0  0
   -0.0752    1.3625    4.6283 H   0  0  0  0  0  0  0  0  0  0  0  0
   -1.4401    2.4815    4.5614 H   0  0  0  0  0  0  0  0  0  0  0  0
    1.1113   -2.5305   -2.9648 C   0  0  0  0  0  0  0  0  0  0  0  0
    1.1113   -2.5305   -1.4419 C   0  0  0  0  0  0  0  0  0  0  0  0
    1.1113   -1.1374   -0.8464 C   0  0  0  0  0  0  0  0  0  0  0  0
   -0.0717   -0.4739   -1.2140 O   0  0  0  0  0  0  0  0  0  0  0  0
   -0.1424    0.8442   -0.7331 C   0  0  0  0  0  3  0  0  0  0  0  0
   -1.4457    1.4620   -1.1839 C   0  0  0  0  0  0  0  0  0  0  0  0
    1.9934   -2.0162   -3.3544 H   0  0  0  0  0  0  0  0  0  0  0  0
    0.2286   -2.0208   -3.3509 H   0  0  0  0  0  0  0  0  0  0  0  0
    1.1168   -3.5484   -3.3575 H   0  0  0  0  0  0  0  0  0  0  0  0
    1.9928   -3.0570   -1.0656 H   0  0  0  0  0  0  0  0  0  0  0  0
    0.2369   -3.0685   -1.0666 H   0  0  0  0  0  0  0  0  0  0  0  0
    1.9855   -0.5724   -1.2068 H   0  0  0  0  0  0  0  0  0  0  0  0
    1.1861   -1.1914    0.2497 H   0  0  0  0  0  0  0  0  0  0  0  0
   -0.0617    0.8476    0.5846 H   0  0  0  0  0  0  0  0  0  0  0  0
    0.7104    1.4272   -1.1110 H   0  0  0  0  0  0  0  0  0  0  0  0
   -2.2921    0.8926   -0.7982 H   0  0  0  0  0  0  0  0  0  0  0  0
   -1.5066    1.4738   -2.2727 H   0  0  0  0  0  0  0  0  0  0  0  0
   -1.5234    2.4880   -0.8209 H   0  0  0  0  0  0  0  0  0  0  0  0
  1  2  1  0
  1  4  1  0
  1 23  1  0
  2  3  1  0
  2  5  1  0
  2  6  1  0
  3  7  1  0
  3  8  1  0
  3  9  1  0
 10 11  1  0
 10 16  1  0
 10 17  1  0
 10 18  1  0
 11 12  1  0
 11 19  1  0
 11 20  1  0
 12 13  1  0
 12 21  1  0
 12 22  1  0
 13 14  1  0
 14 15  1  0
 14 24  1  0
 15 25  1  0
 15 26  1  0
 15 27  1  0
M  RAD  2   1   2  14   2
M  END
>  <reaction>  (11) 
rmg_rxn_270

>  <mol_properties>  (11) 
{"0": {"label": "*3", "atom_type": "Cs"}, "1": {"label": "*4", "atom_type": "Cs"}, "12": {"label": "*0", "atom_type": "O2s"}, "13": {"label": "*1", "atom_type": "Cs"}, "22": {"label": "*2", "atom_type": "H0"}}

>  <type>  (11) 
unop_7

>  <geom_source>  (11) 
Heuristics

$$$$

     RDKit          3D

 27 25  0  0  0  0  0  0  0  0999 V2000
   -0.4754    0.9014    1.9420 C   0  0  0  0  0  3  0  0  0  0  0  0
    0.8390    0.9999    2.6230 C   0  0  0  0  0  0  0  0  0  0  0  0
    0.9156    2.1301    3.6437 C   0  0  0  0  0  0  0  0  0  0  0  0
   -1.3538    1.3773    2.3589 H   0  0  0  0  0  0  0  0  0  0  0  0
    1.0674    0.0470    3.1248 H   0  0  0  0  0  0  0  0  0  0  0  0
    1.6335    1.1173    1.8766 H   0  0  0  0  0  0  0  0  0  0  0  0
    0.1556    2.0054    4.4180 H   0  0  0  0  0  0  0  0  0  0  0  0
    0.7495    3.0976    3.1662 H   0  0  0  0  0  0  0  0  0  0  0  0
    1.8906    2.1571    4.1323 H   0  0  0  0  0  0  0  0  0  0  0  0
    0.6183   -2.4801   -2.9031 C   0  0  0  0  0  0  0  0  0  0  0  0
    0.6183   -2.4801   -1.3802 C   0  0  0  0  0  0  0  0  0  0  0  0
    0.6183   -1.0870   -0.7847 C   0  0  0  0  0  0  0  0  0  0  0  0
   -0.5647   -0.4234   -1.1523 O   0  0  0  0  0  0  0  0  0  0  0  0
   -0.6354    0.8946   -0.6714 C   0  0  0  0  0  3  0  0  0  0  0  0
   -1.9387    1.5124   -1.1222 C   0  0  0  0  0  0  0  0  0  0  0  0
    1.5004   -1.9658   -3.2927 H   0  0  0  0  0  0  0  0  0  0  0  0
   -0.2644   -1.9704   -3.2892 H   0  0  0  0  0  0  0  0  0  0  0  0
    0.6238   -3.4979   -3.2958 H   0  0  0  0  0  0  0  0  0  0  0  0
    1.4998   -3.0065   -1.0039 H   0  0  0  0  0  0  0  0  0  0  0  0
   -0.2561   -3.0181   -1.0049 H   0  0  0  0  0  0  0  0  0  0  0  0
    1.4925   -0.5219   -1.1451 H   0  0  0  0  0  0  0  0  0  0  0  0
    0.6931   -1.1409    0.3114 H   0  0  0  0  0  0  0  0  0  0  0  0
   -0.5547    0.8981    0.6463 H   0  0  0  0  0  0  0  0  0  0  0  0
    0.2175    1.4776   -1.0493 H   0  0  0  0  0  0  0  0  0  0  0  0
   -2.7851    0.9430   -0.7365 H   0  0  0  0  0  0  0  0  0  0  0  0
   -1.9995    1.5243   -2.2110 H   0  0  0  0  0  0  0  0  0  0  0  0
   -2.0163    2.5384   -0.7592 H   0  0  0  0  0  0  0  0  0  0  0  0
  1  2  1  0
  1  4  1  0
  1 23  1  0
  2  3  1  0
  2  5  1  0
  2  6  1  0
  3  7  1  0
  3  8  1  0
  3  9  1  0
 10 11  1  0
 10 16  1  0
 10 17  1  0
 10 18  1  0
 11 12  1  0
 11 19  1  0
 11 20  1  0
 12 13  1  0
 12 21  1  0
 12 22  1  0
 13 14  1  0
 14 15  1  0
 14 24  1  0
 15 25  1  0
 15 26  1  0
 15 27  1  0
M  RAD  2   1   2  14   2
M  END
>  <reaction>  (12) 
rmg_rxn_270

>  <mol_properties>  (12) 
{"0": {"label": "*3", "atom_type": "Cs"}, "1": {"label": "*4", "atom_type": "Cs"}, "12": {"label": "*0", "atom_type": "O2s"}, "13": {"label": "*1", "atom_type": "Cs"}, "22": {"label": "*2", "atom_type": "H0"}}

>  <type>  (12) 
unop_8

>  <geom_source>  (12) 
Heuristics

$$$$

     RDKit          3D

 27 25  0  0  0  0  0  0  0  0999 V2000
   -0.0609    1.2859    1.8597 C   0  0  0  0  0  3  0  0  0  0  0  0
   -0.5648    0.1396    2.6554 C   0  0  0  0  0  0  0  0  0  0  0  0
   -0.5269    0.3767    4.1612 C   0  0  0  0  0  0  0  0  0  0  0  0
    0.0199    2.2728    2.2973 H   0  0  0  0  0  0  0  0  0  0  0  0
   -1.5979   -0.0933    2.3547 H   0  0  0  0  0  0  0  0  0  0  0  0
    0.0063   -0.7624    2.4057 H   0  0  0  0  0  0  0  0  0  0  0  0
   -1.1253    1.2494    4.4314 H   0  0  0  0  0  0  0  0  0  0  0  0
    0.4949    0.5548    4.5014 H   0  0  0  0  0  0  0  0  0  0  0  0
   -0.9204   -0.4817    4.7074 H   0  0  0  0  0  0  0  0  0  0  0  0
    1.0327   -2.0956   -2.9853 C   0  0  0  0  0  0  0  0  0  0  0  0
    1.0327   -2.0956   -1.4624 C   0  0  0  0  0  0  0  0  0  0  0  0
    1.0327   -0.7026   -0.8669 C   0  0  0  0  0  0  0  0  0  0  0  0
   -0.1503   -0.0390   -1.2345 O   0  0  0  0  0  0  0  0  0  0  0  0
   -0.2210    1.2791   -0.7536 C   0  0  0  0  0  3  0  0  0  0  0  0
   -1.5243    1.8969   -1.2044 C   0  0  0  0  0  0  0  0  0  0  0  0
    1.9148   -1.5813   -3.3750 H   0  0  0  0  0  0  0  0  0  0  0  0
    0.1500   -1.5859   -3.3714 H   0  0  0  0  0  0  0  0  0  0  0  0
    1.0382   -3.1135   -3.3780 H   0  0  0  0  0  0  0  0  0  0  0  0
    1.9142   -2.6221   -1.0862 H   0  0  0  0  0  0  0  0  0  0  0  0
    0.1583   -2.6336   -1.0872 H   0  0  0  0  0  0  0  0  0  0  0  0
    1.9069   -0.1375   -1.2273 H   0  0  0  0  0  0  0  0  0  0  0  0
    1.1075   -0.7565    0.2291 H   0  0  0  0  0  0  0  0  0  0  0  0
   -0.1403    1.2825    0.5641 H   0  0  0  0  0  0  0  0  0  0  0  0
    0.6319    1.8621   -1.1315 H   0  0  0  0  0  0  0  0  0  0  0  0
   -2.3707    1.3275   -0.8188 H   0  0  0  0  0  0  0  0  0  0  0  0
   -1.5851    1.9087   -2.2933 H   0  0  0  0  0  0  0  0  0  0  0  0
   -1.6019    2.9229   -0.8414 H   0  0  0  0  0  0  0  0  0  0  0  0
  1  2  1  0
  1  4  1  0
  1 23  1  0
  2  3  1  0
  2  5  1  0
  2  6  1  0
  3  7  1  0
  3  8  1  0
  3  9  1  0
 10 11  1  0
 10 16  1  0
 10 17  1  0
 10 18  1  0
 11 12  1  0
 11 19  1  0
 11 20  1  0
 12 13  1  0
 12 21  1  0
 12 22  1  0
 13 14  1  0
 14 15  1  0
 14 24  1  0
 15 25  1  0
 15 26  1  0
 15 27  1  0
M  RAD  2   1   2  14   2
M  END
>  <reaction>  (13) 
rmg_rxn_270

>  <mol_properties>  (13) 
{"0": {"label": "*3", "atom_type": "Cs"}, "1": {"label": "*4", "atom_type": "Cs"}, "12": {"label": "*0", "atom_type": "O2s"}, "13": {"label": "*1", "atom_type": "Cs"}, "22": {"label": "*2", "atom_type": "H0"}}

>  <type>  (13) 
unop_9

>  <geom_source>  (13) 
Heuristics

$$$$

     RDKit          3D

 27 25  0  0  0  0  0  0  0  0999 V2000
   -0.4981    1.0777    1.9250 C   0  0  0  0  0  3  0  0  0  0  0  0
    0.6946    0.5280    2.6151 C   0  0  0  0  0  0  0  0  0  0  0  0
    1.1935    1.4004    3.7620 C   0  0  0  0  0  0  0  0  0  0  0  0
   -1.1094    1.8384    2.3935 H   0  0  0  0  0  0  0  0  0  0  0  0
    0.4673   -0.4774    3.0016 H   0  0  0  0  0  0  0  0  0  0  0  0
    1.5009    0.3700    1.8891 H   0  0  0  0  0  0  0  0  0  0  0  0
    0.4137    1.5341    4.5149 H   0  0  0  0  0  0  0  0  0  0  0  0
    1.4820    2.3895    3.4015 H   0  0  0  0  0  0  0  0  0  0  0  0
    2.0595    0.9532    4.2520 H   0  0  0  0  0  0  0  0  0  0  0  0
    0.5956   -2.3039   -2.9201 C   0  0  0  0  0  0  0  0  0  0  0  0
    0.5956   -2.3039   -1.3972 C   0  0  0  0  0  0  0  0  0  0  0  0
    0.5956   -0.9108   -0.8017 C   0  0  0  0  0  0  0  0  0  0  0  0
   -0.5874   -0.2472   -1.1693 O   0  0  0  0  0  0  0  0  0  0  0  0
   -0.6582    1.0709   -0.6884 C   0  0  0  0  0  3  0  0  0  0  0  0
   -1.9615    1.6886   -1.1392 C   0  0  0  0  0  0  0  0  0  0  0  0
    1.4776   -1.7895   -3.3097 H   0  0  0  0  0  0  0  0  0  0  0  0
   -0.2872   -1.7942   -3.3062 H   0  0  0  0  0  0  0  0  0  0  0  0
    0.6010   -3.3217   -3.3128 H   0  0  0  0  0  0  0  0  0  0  0  0
    1.4771   -2.8303   -1.0209 H   0  0  0  0  0  0  0  0  0  0  0  0
   -0.2788   -2.8418   -1.0219 H   0  0  0  0  0  0  0  0  0  0  0  0
    1.4697   -0.3457   -1.1621 H   0  0  0  0  0  0  0  0  0  0  0  0
    0.6703   -0.9647    0.2944 H   0  0  0  0  0  0  0  0  0  0  0  0
   -0.5775    1.0743    0.6293 H   0  0  0  0  0  0  0  0  0  0  0  0
    0.1947    1.6538   -1.0663 H   0  0  0  0  0  0  0  0  0  0  0  0
   -2.8078    1.1192   -0.7535 H   0  0  0  0  0  0  0  0  0  0  0  0
   -2.0223    1.7005   -2.2281 H   0  0  0  0  0  0  0  0  0  0  0  0
   -2.0391    2.7147   -0.7762 H   0  0  0  0  0  0  0  0  0  0  0  0
  1  2  1  0
  1  4  1  0
  1 23  1  0
  2  3  1  0
  2  5  1  0
  2  6  1  0
  3  7  1  0
  3  8  1  0
  3  9  1  0
 10 11  1  0
 10 16  1  0
 10 17  1  0
 10 18  1  0
 11 12  1  0
 11 19  1  0
 11 20  1  0
 12 13  1  0
 12 21  1  0
 12 22  1  0
 13 14  1  0
 14 15  1  0
 14 24  1  0
 15 25  1  0
 15 26  1  0
 15 27  1  0
M  RAD  2   1   2  14   2
M  END
>  <reaction>  (14) 
rmg_rxn_270

>  <mol_properties>  (14) 
{"0": {"label": "*3", "atom_type": "Cs"}, "1": {"label": "*4", "atom_type": "Cs"}, "12": {"label": "*0", "atom_type": "O2s"}, "13": {"label": "*1", "atom_type": "Cs"}, "22": {"label": "*2", "atom_type": "H0"}}

>  <type>  (14) 
unop_10

>  <geom_source>  (14) 
Heuristics

$$$$

     RDKit          3D

 27 25  0  0  0  0  0  0  0  0999 V2000
   -0.0996    0.7912    1.8768 C   0  0  0  0  0  3  0  0  0  0  0  0
   -0.7706    1.8450    2.6770 C   0  0  0  0  0  0  0  0  0  0  0  0
   -0.1278    2.0806    4.0394 C   0  0  0  0  0  0  0  0  0  0  0  0
    0.9052    0.4674    2.1163 H   0  0  0  0  0  0  0  0  0  0  0  0
   -0.7743    2.7908    2.1135 H   0  0  0  0  0  0  0  0  0  0  0  0
   -1.8304    1.5938    2.8034 H   0  0  0  0  0  0  0  0  0  0  0  0
    0.9190    2.3718    3.9290 H   0  0  0  0  0  0  0  0  0  0  0  0
   -0.1594    1.1741    4.6466 H   0  0  0  0  0  0  0  0  0  0  0  0
   -0.6400    2.8727    4.5875 H   0  0  0  0  0  0  0  0  0  0  0  0
    0.9940   -2.5903   -2.9683 C   0  0  0  0  0  0  0  0  0  0  0  0
    0.9940   -2.5903   -1.4454 C   0  0  0  0  0  0  0  0  0  0  0  0
    0.9940   -1.1972   -0.8499 C   0  0  0  0  0  0  0  0  0  0  0  0
   -0.1890   -0.5336   -1.2175 O   0  0  0  0  0  0  0  0  0  0  0  0
   -0.2597    0.7844   -0.7366 C   0  0  0  0  0  3  0  0  0  0  0  0
   -1.5630    1.4022   -1.1874 C   0  0  0  0  0  0  0  0  0  0  0  0
    1.8761   -2.0759   -3.3579 H   0  0  0  0  0  0  0  0  0  0  0  0
    0.1113   -2.0806   -3.3544 H   0  0  0  0  0  0  0  0  0  0  0  0
    0.9995   -3.6081   -3.3609 H   0  0  0  0  0  0  0  0  0  0  0  0
    1.8755   -3.1167   -1.0691 H   0  0  0  0  0  0  0  0  0  0  0  0
    0.1196   -3.1282   -1.0701 H   0  0  0  0  0  0  0  0  0  0  0  0
    1.8682   -0.6321   -1.2102 H   0  0  0  0  0  0  0  0  0  0  0  0
    1.0688   -1.2511    0.2462 H   0  0  0  0  0  0  0  0  0  0  0  0
   -0.1790    0.7879    0.5811 H   0  0  0  0  0  0  0  0  0  0  0  0
    0.5932    1.3674   -1.1144 H   0  0  0  0  0  0  0  0  0  0  0  0
   -2.4094    0.8328   -0.8017 H   0  0  0  0  0  0  0  0  0  0  0  0
   -1.6238    1.4141   -2.2762 H   0  0  0  0  0  0  0  0  0  0  0  0
   -1.6406    2.4283   -0.8243 H   0  0  0  0  0  0  0  0  0  0  0  0
  1  2  1  0
  1  4  1  0
  1 23  1  0
  2  3  1  0
  2  5  1  0
  2  6  1  0
  3  7  1  0
  3  8  1  0
  3  9  1  0
 10 11  1  0
 10 16  1  0
 10 17  1  0
 10 18  1  0
 11 12  1  0
 11 19  1  0
 11 20  1  0
 12 13  1  0
 12 21  1  0
 12 22  1  0
 13 14  1  0
 14 15  1  0
 14 24  1  0
 15 25  1  0
 15 26  1  0
 15 27  1  0
M  RAD  2   1   2  14   2
M  END
>  <reaction>  (15) 
rmg_rxn_270

>  <mol_properties>  (15) 
{"0": {"label": "*3", "atom_type": "Cs"}, "1": {"label": "*4", "atom_type": "Cs"}, "12": {"label": "*0", "atom_type": "O2s"}, "13": {"label": "*1", "atom_type": "Cs"}, "22": {"label": "*2", "atom_type": "H0"}}

>  <type>  (15) 
unop_11

>  <geom_source>  (15) 
Heuristics

$$$$

     RDKit          3D

 27 25  0  0  0  0  0  0  0  0999 V2000
   -0.2445    1.3185    1.8724 C   0  0  0  0  0  3  0  0  0  0  0  0
   -0.1016    0.0502    2.6288 C   0  0  0  0  0  0  0  0  0  0  0  0
    0.2563    0.2511    4.0973 C   0  0  0  0  0  0  0  0  0  0  0  0
   -0.3857    2.2597    2.3882 H   0  0  0  0  0  0  0  0  0  0  0  0
   -1.0368   -0.5267    2.5630 H   0  0  0  0  0  0  0  0  0  0  0  0
    0.6502   -0.5849    2.1455 H   0  0  0  0  0  0  0  0  0  0  0  0
   -0.5048    0.8487    4.6036 H   0  0  0  0  0  0  0  0  0  0  0  0
    1.2104    0.7719    4.1976 H   0  0  0  0  0  0  0  0  0  0  0  0
    0.3355   -0.7032    4.6198 H   0  0  0  0  0  0  0  0  0  0  0  0
    0.8491   -2.0631   -2.9727 C   0  0  0  0  0  0  0  0  0  0  0  0
    0.8491   -2.0631   -1.4498 C   0  0  0  0  0  0  0  0  0  0  0  0
    0.8491   -0.6700   -0.8542 C   0  0  0  0  0  0  0  0  0  0  0  0
   -0.3339   -0.0064   -1.2218 O   0  0  0  0  0  0  0  0  0  0  0  0
   -0.4046    1.3117   -0.7410 C   0  0  0  0  0  3  0  0  0  0  0  0
   -1.7079    1.9295   -1.1918 C   0  0  0  0  0  0  0  0  0  0  0  0
    1.7312   -1.5487   -3.3623 H   0  0  0  0  0  0  0  0  0  0  0  0
   -0.0336   -1.5534   -3.3587 H   0  0  0  0  0  0  0  0  0  0  0  0
    0.8546   -3.0809   -3.3653 H   0  0  0  0  0  0  0  0  0  0  0  0
    1.7307   -2.5895   -1.0735 H   0  0  0  0  0  0  0  0  0  0  0  0
   -0.0253   -2.6010   -1.0745 H   0  0  0  0  0  0  0  0  0  0  0  0
    1.7233   -0.1049   -1.2146 H   0  0  0  0  0  0  0  0  0  0  0  0
    0.9239   -0.7239    0.2418 H   0  0  0  0  0  0  0  0  0  0  0  0
   -0.3239    1.3151    0.5767 H   0  0  0  0  0  0  0  0  0  0  0  0
    0.4483    1.8946   -1.1188 H   0  0  0  0  0  0  0  0  0  0  0  0
   -2.5543    1.3600   -0.8061 H   0  0  0  0  0  0  0  0  0  0  0  0
   -1.7687    1.9413   -2.2806 H   0  0  0  0  0  0  0  0  0  0  0  0
   -1.7855    2.9555   -0.8287 H   0  0  0  0  0  0  0  0  0  0  0  0
  1  2  1  0
  1  4  1  0
  1 23  1  0
  2  3  1  0
  2  5  1  0
  2  6  1  0
  3  7  1  0
  3  8  1  0
  3  9  1  0
 10 11  1  0
 10 16  1  0
 10 17  1  0
 10 18  1  0
 11 12  1  0
 11 19  1  0
 11 20  1  0
 12 13  1  0
 12 21  1  0
 12 22  1  0
 13 14  1  0
 14 15  1  0
 14 24  1  0
 15 25  1  0
 15 26  1  0
 15 27  1  0
M  RAD  2   1   2  14   2
M  END
>  <reaction>  (16) 
rmg_rxn_270

>  <mol_properties>  (16) 
{"0": {"label": "*3", "atom_type": "Cs"}, "1": {"label": "*4", "atom_type": "Cs"}, "12": {"label": "*0", "atom_type": "O2s"}, "13": {"label": "*1", "atom_type": "Cs"}, "22": {"label": "*2", "atom_type": "H0"}}

>  <type>  (16) 
unop_12

>  <geom_source>  (16) 
Heuristics

$$$$

     RDKit          3D

 27 25  0  0  0  0  0  0  0  0999 V2000
   -0.9882    0.0804    0.1005 O   0  0  0  0  0  0  0  0  0  0  0  0
   -3.1560    0.6118    0.9988 C   0  0  0  0  0  0  0  0  0  0  0  0
    3.0431   -0.5574    0.7454 C   0  0  0  0  0  0  0  0  0  0  0  0
   -2.0474    1.0127    0.0250 C   0  0  0  0  0  0  0  0  0  0  0  0
   -3.8029   -0.7150    0.6065 C   0  0  0  0  0  0  0  0  0  0  0  0
    4.4019   -0.0803    1.2435 C   0  0  0  0  0  0  0  0  0  0  0  0
   -0.2803   -0.5383   -2.1316 C   0  0  0  0  0  0  0  0  0  0  0  0
   -0.0378    0.3406   -0.9127 C   0  0  0  0  0  3  0  0  0  0  0  0
    2.4673    0.4177   -0.2703 C   0  0  0  0  0  3  0  0  0  0  0  0
   -3.9360    1.4037    1.0061 H   0  0  0  0  0  0  0  0  0  0  0  0
   -2.7377    0.5294    2.0254 H   0  0  0  0  0  0  0  0  0  0  0  0
    2.3447   -0.6365    1.6053 H   0  0  0  0  0  0  0  0  0  0  0  0
    3.1469   -1.5601    0.2780 H   0  0  0  0  0  0  0  0  0  0  0  0
   -1.6818    2.0233    0.3158 H   0  0  0  0  0  0  0  0  0  0  0  0
   -2.4751    1.0671   -1.0028 H   0  0  0  0  0  0  0  0  0  0  0  0
    5.1224   -0.0188    0.4000 H   0  0  0  0  0  0  0  0  0  0  0  0
    4.7950   -0.7973    1.9947 H   0  0  0  0  0  0  0  0  0  0  0  0
    4.3080    0.9191    1.7197 H   0  0  0  0  0  0  0  0  0  0  0  0
   -3.0540   -1.5349    0.6297 H   0  0  0  0  0  0  0  0  0  0  0  0
   -4.2392   -0.6456   -0.4127 H   0  0  0  0  0  0  0  0  0  0  0  0
   -4.6148   -0.9581    1.3240 H   0  0  0  0  0  0  0  0  0  0  0  0
   -1.2393   -0.2668   -2.6198 H   0  0  0  0  0  0  0  0  0  0  0  0
    0.5471   -0.3973   -2.8575 H   0  0  0  0  0  0  0  0  0  0  0  0
   -0.3122   -1.6050   -1.8258 H   0  0  0  0  0  0  0  0  0  0  0  0
    0.0689    1.4172   -1.1854 H   0  0  0  0  0  0  0  0  0  0  0  0
    3.1122    0.4637   -1.1738 H   0  0  0  0  0  0  0  0  0  0  0  0
    1.2449    0.0247   -0.6259 H   0  0  0  0  0  0  0  0  0  0  0  0
  1  8  1  0
  1  4  1  0
  2  5  1  0
  2  4  1  0
  2 10  1  0
  2 11  1  0
  3  9  1  0
  3  6  1  0
  3 12  1  0
  3 13  1  0
  4 14  1  0
  4 15  1  0
  5 19  1  0
  5 20  1  0
  5 21  1  0
  6 16  1  0
  6 17  1  0
  6 18  1  0
  7  8  1  0
  7 22  1  0
  7 23  1  0
  7 24  1  0
  8 25  1  0
  9 26  1  0
  9 27  1  0
M  RAD  2   8   2   9   2
M  END
>  <reaction>  (17) 
rmg_rxn_270

>  <mol_properties>  (17) 
{"0": {"label": "*3", "atom_type": "Cs"}, "1": {"label": "*4", "atom_type": "Cs"}, "12": {"label": "*0", "atom_type": "O2s"}, "13": {"label": "*1", "atom_type": "Cs"}, "22": {"label": "*2", "atom_type": "H0"}}

>  <type>  (17) 
unop_13

>  <geom_source>  (17) 
AutoTST

$$$$

     RDKit          3D

 27 25  0  0  0  0  0  0  0  0999 V2000
   -0.4125    1.2376    1.8980 C   0  0  0  0  0  3  0  0  0  0  0  0
    0.3514    0.1878    2.6157 C   0  0  0  0  0  0  0  0  0  0  0  0
    0.9443    0.6597    3.9389 C   0  0  0  0  0  0  0  0  0  0  0  0
   -0.7601    2.1229    2.4151 H   0  0  0  0  0  0  0  0  0  0  0  0
   -0.2996   -0.6799    2.8033 H   0  0  0  0  0  0  0  0  0  0  0  0
    1.1470   -0.1980    1.9674 H   0  0  0  0  0  0  0  0  0  0  0  0
    0.1592    1.0098    4.6125 H   0  0  0  0  0  0  0  0  0  0  0  0
    1.6406    1.4853    3.7808 H   0  0  0  0  0  0  0  0  0  0  0  0
    1.4827   -0.1452    4.4412 H   0  0  0  0  0  0  0  0  0  0  0  0
    0.6811   -2.1439   -2.9471 C   0  0  0  0  0  0  0  0  0  0  0  0
    0.6811   -2.1439   -1.4242 C   0  0  0  0  0  0  0  0  0  0  0  0
    0.6811   -0.7509   -0.8287 C   0  0  0  0  0  0  0  0  0  0  0  0
   -0.5019   -0.0873   -1.1963 O   0  0  0  0  0  0  0  0  0  0  0  0
   -0.5726    1.2308   -0.7154 C   0  0  0  0  0  3  0  0  0  0  0  0
   -1.8759    1.8486   -1.1662 C   0  0  0  0  0  0  0  0  0  0  0  0
    1.5632   -1.6296   -3.3367 H   0  0  0  0  0  0  0  0  0  0  0  0
   -0.2016   -1.6342   -3.3332 H   0  0  0  0  0  0  0  0  0  0  0  0
    0.6866   -3.1618   -3.3398 H   0  0  0  0  0  0  0  0  0  0  0  0
    1.5626   -2.6704   -1.0479 H   0  0  0  0  0  0  0  0  0  0  0  0
   -0.1933   -2.6819   -1.0489 H   0  0  0  0  0  0  0  0  0  0  0  0
    1.5553   -0.1858   -1.1891 H   0  0  0  0  0  0  0  0  0  0  0  0
    0.7559   -0.8048    0.2674 H   0  0  0  0  0  0  0  0  0  0  0  0
   -0.4919    1.2342    0.6023 H   0  0  0  0  0  0  0  0  0  0  0  0
    0.2803    1.8138   -1.0933 H   0  0  0  0  0  0  0  0  0  0  0  0
   -2.7223    1.2792   -0.7805 H   0  0  0  0  0  0  0  0  0  0  0  0
   -1.9367    1.8604   -2.2550 H   0  0  0  0  0  0  0  0  0  0  0  0
   -1.9535    2.8746   -0.8032 H   0  0  0  0  0  0  0  0  0  0  0  0
  1  2  1  0
  1  4  1  0
  1 23  1  0
  2  3  1  0
  2  5  1  0
  2  6  1  0
  3  7  1  0
  3  8  1  0
  3  9  1  0
 10 11  1  0
 10 16  1  0
 10 17  1  0
 10 18  1  0
 11 12  1  0
 11 19  1  0
 11 20  1  0
 12 13  1  0
 12 21  1  0
 12 22  1  0
 13 14  1  0
 14 15  1  0
 14 24  1  0
 15 25  1  0
 15 26  1  0
 15 27  1  0
M  RAD  2   1   2  14   2
M  END
>  <reaction>  (18) 
rmg_rxn_270

>  <mol_properties>  (18) 
{"0": {"label": "*3", "atom_type": "Cs"}, "1": {"label": "*4", "atom_type": "Cs"}, "12": {"label": "*0", "atom_type": "O2s"}, "13": {"label": "*1", "atom_type": "Cs"}, "22": {"label": "*2", "atom_type": "H0"}}

>  <type>  (18) 
unop_14

>  <geom_source>  (18) 
gaussian_log

$$$$
