
     RDKit          3D

 15 14  0  0  0  0  0  0  0  0999 V2000
   -2.0554    0.0723   -0.4910 C   0  0  0  0  0  0  0  0  0  0  0  0
   -0.7461   -0.6266   -0.8178 C   0  0  0  0  0  0  0  0  0  0  0  0
    0.3249    0.2591   -1.9782 S   0  0  0  0  0  0  0  0  0  0  0  0
   -0.7172    0.3642   -3.4551 C   0  0  0  0  0  0  0  0  0  0  0  0
   -1.1375   -0.9737   -4.0409 C   0  0  0  0  0  0  0  0  0  0  0  0
   -2.7005    0.1427   -1.3684 H   0  0  0  0  0  0  0  0  0  0  0  0
   -2.6016   -0.4848    0.2733 H   0  0  0  0  0  0  0  0  0  0  0  0
   -1.8758    1.0825   -0.1213 H   0  0  0  0  0  0  0  0  0  0  0  0
   -0.1320   -0.7246    0.0789 H   0  0  0  0  0  0  0  0  0  0  0  0
   -0.9254   -1.6374   -1.1879 H   0  0  0  0  0  0  0  0  0  0  0  0
   -1.5873    0.9874   -3.2422 H   0  0  0  0  0  0  0  0  0  0  0  0
   -0.1021    0.9161   -4.1678 H   0  0  0  0  0  0  0  0  0  0  0  0
   -1.7876   -1.5224   -3.3574 H   0  0  0  0  0  0  0  0  0  0  0  0
   -0.2676   -1.5962   -4.2534 H   0  0  0  0  0  0  0  0  0  0  0  0
   -1.6916   -0.8229   -4.9700 H   0  0  0  0  0  0  0  0  0  0  0  0
  1  2  1  0
  1  6  1  0
  1  7  1  0
  1  8  1  0
  2  3  1  0
  2  9  1  0
  2 10  1  0
  3  4  1  0
  4  5  1  0
  4 11  1  0
  4 12  1  0
  5 13  1  0
  5 14  1  0
  5 15  1  0
M  END
>  <reaction>  (1) 
rmg_rxn_632

>  <mol_properties>  (1) 
{"1": {"label": "donator", "atom_type": "Cs"}, "8": {"label": "d_hydrogen", "atom_type": "H0"}}

>  <type>  (1) 
r1h

$$$$

     RDKit          3D

 14 13  0  0  0  0  0  0  0  0999 V2000
    2.6694    0.2813   -0.6046 C   0  0  0  0  0  3  0  0  0  0  0  0
    1.5626   -0.5075   -0.0103 C   0  0  0  0  0  0  0  0  0  0  0  0
    0.5522   -0.8487   -0.9278 O   0  0  0  0  0  0  0  0  0  0  0  0
    0.9505   -1.8204   -1.8682 C   0  0  0  0  0  0  0  0  0  0  0  0
   -0.2101   -2.1029   -2.7930 C   0  0  0  0  0  0  0  0  0  0  0  0
    2.4666    0.9443   -1.4355 H   0  0  0  0  0  0  0  0  0  0  0  0
    3.6339    0.3312   -0.1179 H   0  0  0  0  0  0  0  0  0  0  0  0
    1.0573    0.0741    0.7733 H   0  0  0  0  0  0  0  0  0  0  0  0
    1.9580   -1.4106    0.4809 H   0  0  0  0  0  0  0  0  0  0  0  0
    1.8195   -1.4649   -2.4379 H   0  0  0  0  0  0  0  0  0  0  0  0
    1.2587   -2.7372   -1.3440 H   0  0  0  0  0  0  0  0  0  0  0  0
   -0.5051   -1.1971   -3.3238 H   0  0  0  0  0  0  0  0  0  0  0  0
    0.0686   -2.8601   -3.5276 H   0  0  0  0  0  0  0  0  0  0  0  0
   -1.0699   -2.4661   -2.2289 H   0  0  0  0  0  0  0  0  0  0  0  0
  1  2  1  0
  1  6  1  0
  1  7  1  0
  2  3  1  0
  2  8  1  0
  2  9  1  0
  3  4  1  0
  4  5  1  0
  4 10  1  0
  4 11  1  0
  5 12  1  0
  5 13  1  0
  5 14  1  0
M  RAD  1   1   2
M  END
>  <reaction>  (2) 
rmg_rxn_632

>  <mol_properties>  (2) 
{"0": {"label": "acceptor", "atom_type": "Cs"}}

>  <type>  (2) 
r2

$$$$

     RDKit          3D

 15 14  0  0  0  0  0  0  0  0999 V2000
    2.4145    0.0817    0.4065 C   0  0  0  0  0  0  0  0  0  0  0  0
    1.1257   -0.2220   -0.3219 C   0  0  0  0  0  0  0  0  0  0  0  0
    1.0983   -1.5879   -0.6512 O   0  0  0  0  0  0  0  0  0  0  0  0
   -0.0685   -1.9694   -1.3352 C   0  0  0  0  0  0  0  0  0  0  0  0
    0.0024   -3.4478   -1.6403 C   0  0  0  0  0  0  0  0  0  0  0  0
    3.2736   -0.1534   -0.2229 H   0  0  0  0  0  0  0  0  0  0  0  0
    2.4581    1.1389    0.6728 H   0  0  0  0  0  0  0  0  0  0  0  0
    2.4855   -0.5095    1.3201 H   0  0  0  0  0  0  0  0  0  0  0  0
    0.2597    0.0294    0.3083 H   0  0  0  0  0  0  0  0  0  0  0  0
    1.0482    0.3858   -1.2356 H   0  0  0  0  0  0  0  0  0  0  0  0
   -0.9535   -1.7457   -0.7211 H   0  0  0  0  0  0  0  0  0  0  0  0
   -0.1650   -1.3894   -2.2650 H   0  0  0  0  0  0  0  0  0  0  0  0
    0.0831   -4.0247   -0.7183 H   0  0  0  0  0  0  0  0  0  0  0  0
   -0.8950   -3.7674   -2.1724 H   0  0  0  0  0  0  0  0  0  0  0  0
    0.8712   -3.6686   -2.2613 H   0  0  0  0  0  0  0  0  0  0  0  0
  1  2  1  0
  1  6  1  0
  1  7  1  0
  1  8  1  0
  2  3  1  0
  2  9  1  0
  2 10  1  0
  3  4  1  0
  4  5  1  0
  4 11  1  0
  4 12  1  0
  5 13  1  0
  5 14  1  0
  5 15  1  0
M  END
>  <reaction>  (3) 
rmg_rxn_632

>  <mol_properties>  (3) 
{"0": {"label": "acceptor", "atom_type": "Cs"}, "14": {"label": "a_hydrogen", "atom_type": "H0"}}

>  <type>  (3) 
r2h

$$$$

     RDKit          3D

 29 27  0  0  0  0  0  0  0  0999 V2000
   -0.2533   -2.0972   -0.4984 C   0  0  0  0  0  3  0  0  0  0  0  0
   -0.3449   -1.6342    0.9185 C   0  0  0  0  0  0  0  0  0  0  0  0
   -1.3706   -0.6778    1.0202 O   0  0  0  0  0  0  0  0  0  0  0  0
   -1.3906   -0.0143    2.2596 C   0  0  0  0  0  0  0  0  0  0  0  0
   -2.4817    1.0303    2.2335 C   0  0  0  0  0  0  0  0  0  0  0  0
   -1.1997   -2.4049   -0.9372 H   0  0  0  0  0  0  0  0  0  0  0  0
    0.5575   -2.7947   -0.6944 H   0  0  0  0  0  0  0  0  0  0  0  0
    0.6120   -1.1890    1.2291 H   0  0  0  0  0  0  0  0  0  0  0  0
   -0.5476   -2.4745    1.6049 H   0  0  0  0  0  0  0  0  0  0  0  0
   -1.5655   -0.7367    3.0706 H   0  0  0  0  0  0  0  0  0  0  0  0
   -0.4143    0.4569    2.4404 H   0  0  0  0  0  0  0  0  0  0  0  0
   -3.4516    0.5684    2.0447 H   0  0  0  0  0  0  0  0  0  0  0  0
   -2.5271    1.5544    3.1894 H   0  0  0  0  0  0  0  0  0  0  0  0
   -2.2873    1.7620    1.4480 H   0  0  0  0  0  0  0  0  0  0  0  0
   -1.1484    0.7307   -2.0400 C   0  0  0  0  0  0  0  0  0  0  0  0
    0.2504    0.2468   -1.7394 C   0  0  0  0  0  0  0  0  0  0  0  0
    1.1250    1.3154   -0.6195 S   0  0  0  0  0  0  0  0  0  0  0  0
    2.8337    0.7872   -0.8903 C   0  0  0  0  0  0  0  0  0  0  0  0
    3.1526   -0.6196   -0.4114 C   0  0  0  0  0  0  0  0  0  0  0  0
   -1.1401    1.6944   -2.5551 H   0  0  0  0  0  0  0  0  0  0  0  0
   -1.6612    0.0067   -2.6760 H   0  0  0  0  0  0  0  0  0  0  0  0
   -1.7232    0.8275   -1.1182 H   0  0  0  0  0  0  0  0  0  0  0  0
    0.0857   -0.9162   -1.1938 H   0  0  0  0  0  0  0  0  0  0  0  0
    0.8460    0.0516   -2.6333 H   0  0  0  0  0  0  0  0  0  0  0  0
    3.0608    0.8976   -1.9528 H   0  0  0  0  0  0  0  0  0  0  0  0
    3.4379    1.5212   -0.3548 H   0  0  0  0  0  0  0  0  0  0  0  0
    2.5475   -1.3601   -0.9353 H   0  0  0  0  0  0  0  0  0  0  0  0
    2.9600   -0.7201    0.6574 H   0  0  0  0  0  0  0  0  0  0  0  0
    4.2039   -0.8534   -0.5945 H   0  0  0  0  0  0  0  0  0  0  0  0
  1  2  1  0
  1  6  1  0
  1  7  1  0
  2  3  1  0
  2  8  1  0
  2  9  1  0
  3  4  1  0
  4  5  1  0
  4 10  1  0
  4 11  1  0
  5 12  1  0
  5 13  1  0
  5 14  1  0
 15 16  1  0
 15 20  1  0
 15 21  1  0
 15 22  1  0
 16 17  1  0
 16 23  1  0
 16 24  1  0
 17 18  1  0
 18 19  1  0
 18 25  1  0
 18 26  1  0
 19 27  1  0
 19 28  1  0
 19 29  1  0
M  RAD  1   1   2
M  END
>  <reaction>  (4) 
rmg_rxn_632

>  <mol_properties>  (4) 
{"0": {"label": "*3", "atom_type": "Cs"}, "1": {"label": "*4", "atom_type": "Cs"}, "15": {"label": "*1", "atom_type": "Cs"}, "16": {"label": "*0", "atom_type": "S2s"}, "22": {"label": "*2", "atom_type": "H0"}}

>  <type>  (4) 
ts

$$$$

     RDKit          3D

 29 27  0  0  0  0  0  0  0  0999 V2000
   -2.2873   -0.6934   -0.1728 C   0  0  0  0  0  0  0  0  0  0  0  0
   -1.9530   -1.8987    0.6753 C   0  0  0  0  0  0  0  0  0  0  0  0
   -0.6189   -1.7982    1.1057 O   0  0  0  0  0  0  0  0  0  0  0  0
   -0.2122   -2.8795    1.9059 C   0  0  0  0  0  0  0  0  0  0  0  0
    1.2287   -2.6745    2.3128 C   0  0  0  0  0  0  0  0  0  0  0  0
   -2.1637    0.2247    0.4025 H   0  0  0  0  0  0  0  0  0  0  0  0
   -3.3205   -0.7498   -0.5191 H   0  0  0  0  0  0  0  0  0  0  0  0
   -2.0923   -2.8251    0.0985 H   0  0  0  0  0  0  0  0  0  0  0  0
   -2.6245   -1.9550    1.5449 H   0  0  0  0  0  0  0  0  0  0  0  0
   -0.8561   -2.9513    2.7950 H   0  0  0  0  0  0  0  0  0  0  0  0
   -0.3239   -3.8215    1.3486 H   0  0  0  0  0  0  0  0  0  0  0  0
    1.3380   -1.7483    2.8780 H   0  0  0  0  0  0  0  0  0  0  0  0
    1.5671   -3.5037    2.9361 H   0  0  0  0  0  0  0  0  0  0  0  0
    1.8699   -2.6179    1.4325 H   0  0  0  0  0  0  0  0  0  0  0  0
   -0.1012    0.4195   -2.6073 C   0  0  0  0  0  0  0  0  0  0  0  0
   -0.1012    0.4195   -1.0876 C   0  0  0  0  0  3  0  0  0  0  0  0
   -0.1012    2.0605   -0.3227 S   0  0  0  0  0  0  0  0  0  0  0  0
    1.4394    2.7745   -0.9513 C   0  0  0  0  0  0  0  0  0  0  0  0
    2.7003    2.0156   -0.5721 C   0  0  0  0  0  0  0  0  0  0  0  0
    0.8219    0.8430   -3.0067 H   0  0  0  0  0  0  0  0  0  0  0  0
   -0.1837   -0.6017   -2.9860 H   0  0  0  0  0  0  0  0  0  0  0  0
   -0.9369    1.0019   -2.9967 H   0  0  0  0  0  0  0  0  0  0  0  0
   -1.1946   -0.1372   -0.6300 H   0  0  0  0  0  0  0  0  0  0  0  0
    0.7350   -0.1632   -0.6975 H   0  0  0  0  0  0  0  0  0  0  0  0
    1.3683    2.8967   -2.0333 H   0  0  0  0  0  0  0  0  0  0  0  0
    1.4545    3.7776   -0.5220 H   0  0  0  0  0  0  0  0  0  0  0  0
    2.7216    1.0238   -1.0268 H   0  0  0  0  0  0  0  0  0  0  0  0
    2.7710    1.8936    0.5093 H   0  0  0  0  0  0  0  0  0  0  0  0
    3.5851    2.5540   -0.9190 H   0  0  0  0  0  0  0  0  0  0  0  0
  1  2  1  0
  1  6  1  0
  1  7  1  0
  1 23  1  0
  2  3  1  0
  2  8  1  0
  2  9  1  0
  3  4  1  0
  4  5  1  0
  4 10  1  0
  4 11  1  0
  5 12  1  0
  5 13  1  0
  5 14  1  0
 15 16  1  0
 15 20  1  0
 15 21  1  0
 15 22  1  0
 16 17  1  0
 16 24  1  0
 17 18  1  0
 18 19  1  0
 18 25  1  0
 18 26  1  0
 19 27  1  0
 19 28  1  0
 19 29  1  0
M  RAD  1  16   2
M  END
>  <reaction>  (5) 
rmg_rxn_632

>  <mol_properties>  (5) 
{"0": {"label": "*3", "atom_type": "Cs"}, "1": {"label": "*4", "atom_type": "Cs"}, "15": {"label": "*1", "atom_type": "Cs"}, "16": {"label": "*0", "atom_type": "S2s"}, "22": {"label": "*2", "atom_type": "H0"}}

>  <type>  (5) 
unop_1

>  <geom_source>  (5) 
Heuristics

$$$$

     RDKit          3D

 29 27  0  0  0  0  0  0  0  0999 V2000
   -1.7589   -0.4453    1.1242 C   0  0  0  0  0  0  0  0  0  0  0  0
   -2.2616   -1.4953    0.1607 C   0  0  0  0  0  0  0  0  0  0  0  0
   -1.1676   -2.2350   -0.3201 O   0  0  0  0  0  0  0  0  0  0  0  0
   -1.5362   -3.2419   -1.2285 C   0  0  0  0  0  0  0  0  0  0  0  0
   -0.2937   -3.9731   -1.6817 C   0  0  0  0  0  0  0  0  0  0  0  0
   -1.2443   -0.9127    1.9644 H   0  0  0  0  0  0  0  0  0  0  0  0
   -2.5925    0.1427    1.5112 H   0  0  0  0  0  0  0  0  0  0  0  0
   -2.7934   -1.0235   -0.6789 H   0  0  0  0  0  0  0  0  0  0  0  0
   -2.9766   -2.1652    0.6610 H   0  0  0  0  0  0  0  0  0  0  0  0
   -2.2397   -3.9395   -0.7503 H   0  0  0  0  0  0  0  0  0  0  0  0
   -2.0565   -2.7978   -2.0901 H   0  0  0  0  0  0  0  0  0  0  0  0
    0.2149   -4.4262   -0.8301 H   0  0  0  0  0  0  0  0  0  0  0  0
   -0.5558   -4.7613   -2.3892 H   0  0  0  0  0  0  0  0  0  0  0  0
    0.3980   -3.2852   -2.1691 H   0  0  0  0  0  0  0  0  0  0  0  0
    0.4273    0.6676   -1.3104 C   0  0  0  0  0  0  0  0  0  0  0  0
    0.4273    0.6676    0.2094 C   0  0  0  0  0  3  0  0  0  0  0  0
    0.4273    2.3087    0.9743 S   0  0  0  0  0  0  0  0  0  0  0  0
    1.9679    3.0226    0.3457 C   0  0  0  0  0  0  0  0  0  0  0  0
    3.2288    2.2638    0.7249 C   0  0  0  0  0  0  0  0  0  0  0  0
    1.3503    1.0912   -1.7098 H   0  0  0  0  0  0  0  0  0  0  0  0
    0.3448   -0.3536   -1.6890 H   0  0  0  0  0  0  0  0  0  0  0  0
   -0.4084    1.2501   -1.6998 H   0  0  0  0  0  0  0  0  0  0  0  0
   -0.6661    0.1110    0.6669 H   0  0  0  0  0  0  0  0  0  0  0  0
    1.2635    0.0850    0.5994 H   0  0  0  0  0  0  0  0  0  0  0  0
    1.8968    3.1448   -0.7364 H   0  0  0  0  0  0  0  0  0  0  0  0
    1.9830    4.0258    0.7749 H   0  0  0  0  0  0  0  0  0  0  0  0
    3.2500    1.2719    0.2702 H   0  0  0  0  0  0  0  0  0  0  0  0
    3.2995    2.1417    1.8063 H   0  0  0  0  0  0  0  0  0  0  0  0
    4.1136    2.8022    0.3779 H   0  0  0  0  0  0  0  0  0  0  0  0
  1  2  1  0
  1  6  1  0
  1  7  1  0
  1 23  1  0
  2  3  1  0
  2  8  1  0
  2  9  1  0
  3  4  1  0
  4  5  1  0
  4 10  1  0
  4 11  1  0
  5 12  1  0
  5 13  1  0
  5 14  1  0
 15 16  1  0
 15 20  1  0
 15 21  1  0
 15 22  1  0
 16 17  1  0
 16 24  1  0
 17 18  1  0
 18 19  1  0
 18 25  1  0
 18 26  1  0
 19 27  1  0
 19 28  1  0
 19 29  1  0
M  RAD  1  16   2
M  END
>  <reaction>  (6) 
rmg_rxn_632

>  <mol_properties>  (6) 
{"0": {"label": "*3", "atom_type": "Cs"}, "1": {"label": "*4", "atom_type": "Cs"}, "15": {"label": "*1", "atom_type": "Cs"}, "16": {"label": "*0", "atom_type": "S2s"}, "22": {"label": "*2", "atom_type": "H0"}}

>  <type>  (6) 
unop_2

>  <geom_source>  (6) 
Heuristics

$$$$

     RDKit          3D

 29 27  0  0  0  0  0  0  0  0999 V2000
   -2.1171   -1.2162   -0.5200 C   0  0  0  0  0  0  0  0  0  0  0  0
   -1.8565   -1.8776    0.8135 C   0  0  0  0  0  0  0  0  0  0  0  0
   -0.8593   -1.1575    1.4932 O   0  0  0  0  0  0  0  0  0  0  0  0
   -0.5456   -1.6988    2.7516 C   0  0  0  0  0  0  0  0  0  0  0  0
    0.5307   -0.8549    3.3945 C   0  0  0  0  0  0  0  0  0  0  0  0
   -2.4507   -0.1877   -0.3777 H   0  0  0  0  0  0  0  0  0  0  0  0
   -2.8896   -1.7592   -1.0668 H   0  0  0  0  0  0  0  0  0  0  0  0
   -1.5344   -2.9196    0.6692 H   0  0  0  0  0  0  0  0  0  0  0  0
   -2.7767   -1.9040    1.4158 H   0  0  0  0  0  0  0  0  0  0  0  0
   -1.4450   -1.7223    3.3846 H   0  0  0  0  0  0  0  0  0  0  0  0
   -0.2027   -2.7379    2.6381 H   0  0  0  0  0  0  0  0  0  0  0  0
    0.1864    0.1721    3.5210 H   0  0  0  0  0  0  0  0  0  0  0  0
    0.7911   -1.2571    4.3748 H   0  0  0  0  0  0  0  0  0  0  0  0
    1.4279   -0.8430    2.7748 H   0  0  0  0  0  0  0  0  0  0  0  0
    0.0690   -0.1033   -2.9546 C   0  0  0  0  0  0  0  0  0  0  0  0
    0.0690   -0.1033   -1.4348 C   0  0  0  0  0  3  0  0  0  0  0  0
    0.0690    1.5378   -0.6699 S   0  0  0  0  0  0  0  0  0  0  0  0
    1.6096    2.2517   -1.2985 C   0  0  0  0  0  0  0  0  0  0  0  0
    2.8705    1.4929   -0.9193 C   0  0  0  0  0  0  0  0  0  0  0  0
    0.9921    0.3203   -3.3540 H   0  0  0  0  0  0  0  0  0  0  0  0
   -0.0135   -1.1245   -3.3332 H   0  0  0  0  0  0  0  0  0  0  0  0
   -0.7667    0.4792   -3.3440 H   0  0  0  0  0  0  0  0  0  0  0  0
   -1.0244   -0.6599   -0.9773 H   0  0  0  0  0  0  0  0  0  0  0  0
    0.9052   -0.6859   -1.0448 H   0  0  0  0  0  0  0  0  0  0  0  0
    1.5385    2.3739   -2.3806 H   0  0  0  0  0  0  0  0  0  0  0  0
    1.6247    3.2549   -0.8693 H   0  0  0  0  0  0  0  0  0  0  0  0
    2.8918    0.5010   -1.3740 H   0  0  0  0  0  0  0  0  0  0  0  0
    2.9412    1.3708    0.1621 H   0  0  0  0  0  0  0  0  0  0  0  0
    3.7553    2.0313   -1.2663 H   0  0  0  0  0  0  0  0  0  0  0  0
  1  2  1  0
  1  6  1  0
  1  7  1  0
  1 23  1  0
  2  3  1  0
  2  8  1  0
  2  9  1  0
  3  4  1  0
  4  5  1  0
  4 10  1  0
  4 11  1  0
  5 12  1  0
  5 13  1  0
  5 14  1  0
 15 16  1  0
 15 20  1  0
 15 21  1  0
 15 22  1  0
 16 17  1  0
 16 24  1  0
 17 18  1  0
 18 19  1  0
 18 25  1  0
 18 26  1  0
 19 27  1  0
 19 28  1  0
 19 29  1  0
M  RAD  1  16   2
M  END
>  <reaction>  (7) 
rmg_rxn_632

>  <mol_properties>  (7) 
{"0": {"label": "*3", "atom_type": "Cs"}, "1": {"label": "*4", "atom_type": "Cs"}, "15": {"label": "*1", "atom_type": "Cs"}, "16": {"label": "*0", "atom_type": "S2s"}, "22": {"label": "*2", "atom_type": "H0"}}

>  <type>  (7) 
unop_3

>  <geom_source>  (7) 
Heuristics

$$$$

     RDKit          3D

 29 27  0  0  0  0  0  0  0  0999 V2000
   -0.7893   -1.4530    1.1496 C   0  0  0  0  0  0  0  0  0  0  0  0
   -2.0079   -0.6979    0.6715 C   0  0  0  0  0  0  0  0  0  0  0  0
   -2.4562   -1.2694   -0.5315 O   0  0  0  0  0  0  0  0  0  0  0  0
   -3.5926   -0.6318   -1.0579 C   0  0  0  0  0  0  0  0  0  0  0  0
   -3.9901   -1.3195   -2.3435 C   0  0  0  0  0  0  0  0  0  0  0  0
   -1.0324   -2.5025    1.3192 H   0  0  0  0  0  0  0  0  0  0  0  0
   -0.4227   -1.0261    2.0845 H   0  0  0  0  0  0  0  0  0  0  0  0
   -1.7652    0.3637    0.5150 H   0  0  0  0  0  0  0  0  0  0  0  0
   -2.8065   -0.7392    1.4270 H   0  0  0  0  0  0  0  0  0  0  0  0
   -4.4164   -0.6720   -0.3299 H   0  0  0  0  0  0  0  0  0  0  0  0
   -3.3751    0.4308   -1.2419 H   0  0  0  0  0  0  0  0  0  0  0  0
   -4.2202   -2.3695   -2.1597 H   0  0  0  0  0  0  0  0  0  0  0  0
   -4.8722   -0.8405   -2.7713 H   0  0  0  0  0  0  0  0  0  0  0  0
   -3.1796   -1.2673   -3.0712 H   0  0  0  0  0  0  0  0  0  0  0  0
    1.3968   -0.3401   -1.2849 C   0  0  0  0  0  0  0  0  0  0  0  0
    1.3968   -0.3401    0.2348 C   0  0  0  0  0  3  0  0  0  0  0  0
    1.3968    1.3010    0.9997 S   0  0  0  0  0  0  0  0  0  0  0  0
    2.9374    2.0149    0.3711 C   0  0  0  0  0  0  0  0  0  0  0  0
    4.1984    1.2561    0.7503 C   0  0  0  0  0  0  0  0  0  0  0  0
    2.3199    0.0835   -1.6843 H   0  0  0  0  0  0  0  0  0  0  0  0
    1.3143   -1.3613   -1.6636 H   0  0  0  0  0  0  0  0  0  0  0  0
    0.5611    0.2424   -1.6743 H   0  0  0  0  0  0  0  0  0  0  0  0
    0.3034   -0.8967    0.6924 H   0  0  0  0  0  0  0  0  0  0  0  0
    2.2330   -0.9227    0.6249 H   0  0  0  0  0  0  0  0  0  0  0  0
    2.8663    2.1371   -0.7109 H   0  0  0  0  0  0  0  0  0  0  0  0
    2.9525    3.0181    0.8004 H   0  0  0  0  0  0  0  0  0  0  0  0
    4.2196    0.2642    0.2956 H   0  0  0  0  0  0  0  0  0  0  0  0
    4.2690    1.1340    1.8317 H   0  0  0  0  0  0  0  0  0  0  0  0
    5.0831    1.7945    0.4034 H   0  0  0  0  0  0  0  0  0  0  0  0
  1  2  1  0
  1  6  1  0
  1  7  1  0
  1 23  1  0
  2  3  1  0
  2  8  1  0
  2  9  1  0
  3  4  1  0
  4  5  1  0
  4 10  1  0
  4 11  1  0
  5 12  1  0
  5 13  1  0
  5 14  1  0
 15 16  1  0
 15 20  1  0
 15 21  1  0
 15 22  1  0
 16 17  1  0
 16 24  1  0
 17 18  1  0
 18 19  1  0
 18 25  1  0
 18 26  1  0
 19 27  1  0
 19 28  1  0
 19 29  1  0
M  RAD  1  16   2
M  END
>  <reaction>  (8) 
rmg_rxn_632

>  <mol_properties>  (8) 
{"0": {"label": "*3", "atom_type": "Cs"}, "1": {"label": "*4", "atom_type": "Cs"}, "15": {"label": "*1", "atom_type": "Cs"}, "16": {"label": "*0", "atom_type": "S2s"}, "22": {"label": "*2", "atom_type": "H0"}}

>  <type>  (8) 
unop_4

>  <geom_source>  (8) 
Heuristics

$$$$

     RDKit          3D

 29 27  0  0  0  0  0  0  0  0999 V2000
   -1.6222   -1.7918   -0.5250 C   0  0  0  0  0  0  0  0  0  0  0  0
   -1.6236   -1.7925    0.9862 C   0  0  0  0  0  0  0  0  0  0  0  0
   -1.5535   -0.4655    1.4434 O   0  0  0  0  0  0  0  0  0  0  0  0
   -1.5492   -0.3620    2.8449 C   0  0  0  0  0  0  0  0  0  0  0  0
   -1.4720    1.0974    3.2293 C   0  0  0  0  0  0  0  0  0  0  0  0
   -2.4779   -1.2344   -0.9076 H   0  0  0  0  0  0  0  0  0  0  0  0
   -1.6762   -2.8138   -0.9035 H   0  0  0  0  0  0  0  0  0  0  0  0
   -0.7683   -2.3676    1.3710 H   0  0  0  0  0  0  0  0  0  0  0  0
   -2.5357   -2.2737    1.3694 H   0  0  0  0  0  0  0  0  0  0  0  0
   -2.4601   -0.8205    3.2577 H   0  0  0  0  0  0  0  0  0  0  0  0
   -0.6928   -0.9144    3.2593 H   0  0  0  0  0  0  0  0  0  0  0  0
   -2.3283    1.6431    2.8315 H   0  0  0  0  0  0  0  0  0  0  0  0
   -1.4674    1.2025    4.3153 H   0  0  0  0  0  0  0  0  0  0  0  0
   -0.5620    1.5492    2.8330 H   0  0  0  0  0  0  0  0  0  0  0  0
    0.5640   -0.6789   -2.9595 C   0  0  0  0  0  0  0  0  0  0  0  0
    0.5640   -0.6789   -1.4398 C   0  0  0  0  0  3  0  0  0  0  0  0
    0.5640    0.9622   -0.6749 S   0  0  0  0  0  0  0  0  0  0  0  0
    2.1045    1.6761   -1.3035 C   0  0  0  0  0  0  0  0  0  0  0  0
    3.3655    0.9172   -0.9243 C   0  0  0  0  0  0  0  0  0  0  0  0
    1.4870   -0.2553   -3.3590 H   0  0  0  0  0  0  0  0  0  0  0  0
    0.4814   -1.7001   -3.3382 H   0  0  0  0  0  0  0  0  0  0  0  0
   -0.2718   -0.0965   -3.3489 H   0  0  0  0  0  0  0  0  0  0  0  0
   -0.5295   -1.2356   -0.9823 H   0  0  0  0  0  0  0  0  0  0  0  0
    1.4001   -1.2616   -1.0498 H   0  0  0  0  0  0  0  0  0  0  0  0
    2.0334    1.7983   -2.3856 H   0  0  0  0  0  0  0  0  0  0  0  0
    2.1196    2.6793   -0.8742 H   0  0  0  0  0  0  0  0  0  0  0  0
    3.3867   -0.0746   -1.3790 H   0  0  0  0  0  0  0  0  0  0  0  0
    3.4361    0.7952    0.1571 H   0  0  0  0  0  0  0  0  0  0  0  0
    4.2502    1.4556   -1.2712 H   0  0  0  0  0  0  0  0  0  0  0  0
  1  2  1  0
  1  6  1  0
  1  7  1  0
  1 23  1  0
  2  3  1  0
  2  8  1  0
  2  9  1  0
  3  4  1  0
  4  5  1  0
  4 10  1  0
  4 11  1  0
  5 12  1  0
  5 13  1  0
  5 14  1  0
 15 16  1  0
 15 20  1  0
 15 21  1  0
 15 22  1  0
 16 17  1  0
 16 24  1  0
 17 18  1  0
 18 19  1  0
 18 25  1  0
 18 26  1  0
 19 27  1  0
 19 28  1  0
 19 29  1  0
M  RAD  1  16   2
M  END
>  <reaction>  (9) 
rmg_rxn_632

>  <mol_properties>  (9) 
{"0": {"label": "*3", "atom_type": "Cs"}, "1": {"label": "*4", "atom_type": "Cs"}, "15": {"label": "*1", "atom_type": "Cs"}, "16": {"label": "*0", "atom_type": "S2s"}, "22": {"label": "*2", "atom_type": "H0"}}

>  <type>  (9) 
unop_5

>  <geom_source>  (9) 
Heuristics

$$$$

     RDKit          3D

 29 27  0  0  0  0  0  0  0  0999 V2000
   -0.6981   -1.8018    0.7654 C   0  0  0  0  0  0  0  0  0  0  0  0
   -1.7823   -0.7655    0.9504 C   0  0  0  0  0  0  0  0  0  0  0  0
   -2.6507   -0.8111   -0.1536 O   0  0  0  0  0  0  0  0  0  0  0  0
   -3.6986    0.1218   -0.0730 C   0  0  0  0  0  0  0  0  0  0  0  0
   -4.5686   -0.0096   -1.3016 C   0  0  0  0  0  0  0  0  0  0  0  0
   -1.1320   -2.7995    0.6907 H   0  0  0  0  0  0  0  0  0  0  0  0
   -0.0105   -1.7847    1.6124 H   0  0  0  0  0  0  0  0  0  0  0  0
   -1.3426    0.2389    1.0405 H   0  0  0  0  0  0  0  0  0  0  0  0
   -2.3433   -0.9574    1.8771 H   0  0  0  0  0  0  0  0  0  0  0  0
   -4.2900   -0.0560    0.8375 H   0  0  0  0  0  0  0  0  0  0  0  0
   -3.2893    1.1403    0.0009 H   0  0  0  0  0  0  0  0  0  0  0  0
   -4.9867   -1.0146   -1.3680 H   0  0  0  0  0  0  0  0  0  0  0  0
   -5.3908    0.7065   -1.2610 H   0  0  0  0  0  0  0  0  0  0  0  0
   -3.9867    0.1809   -2.2040 H   0  0  0  0  0  0  0  0  0  0  0  0
    1.4880   -0.6889   -1.6691 C   0  0  0  0  0  0  0  0  0  0  0  0
    1.4880   -0.6889   -0.1494 C   0  0  0  0  0  3  0  0  0  0  0  0
    1.4880    0.9522    0.6155 S   0  0  0  0  0  0  0  0  0  0  0  0
    3.0286    1.6661   -0.0131 C   0  0  0  0  0  0  0  0  0  0  0  0
    4.2895    0.9073    0.3661 C   0  0  0  0  0  0  0  0  0  0  0  0
    2.4111   -0.2653   -2.0685 H   0  0  0  0  0  0  0  0  0  0  0  0
    1.4055   -1.7100   -2.0478 H   0  0  0  0  0  0  0  0  0  0  0  0
    0.6523   -0.1064   -2.0585 H   0  0  0  0  0  0  0  0  0  0  0  0
    0.3946   -1.2455    0.3082 H   0  0  0  0  0  0  0  0  0  0  0  0
    2.3242   -1.2715    0.2407 H   0  0  0  0  0  0  0  0  0  0  0  0
    2.9575    1.7884   -1.0951 H   0  0  0  0  0  0  0  0  0  0  0  0
    3.0437    2.6693    0.4162 H   0  0  0  0  0  0  0  0  0  0  0  0
    4.3108   -0.0846   -0.0886 H   0  0  0  0  0  0  0  0  0  0  0  0
    4.3602    0.7853    1.4475 H   0  0  0  0  0  0  0  0  0  0  0  0
    5.1743    1.4457    0.0192 H   0  0  0  0  0  0  0  0  0  0  0  0
  1  2  1  0
  1  6  1  0
  1  7  1  0
  1 23  1  0
  2  3  1  0
  2  8  1  0
  2  9  1  0
  3  4  1  0
  4  5  1  0
  4 10  1  0
  4 11  1  0
  5 12  1  0
  5 13  1  0
  5 14  1  0
 15 16  1  0
 15 20  1  0
 15 21  1  0
 15 22  1  0
 16 17  1  0
 16 24  1  0
 17 18  1  0
 18 19  1  0
 18 25  1  0
 18 26  1  0
 19 27  1  0
 19 28  1  0
 19 29  1  0
M  RAD  1  16   2
M  END
>  <reaction>  (10) 
rmg_rxn_632

>  <mol_properties>  (10) 
{"0": {"label": "*3", "atom_type": "Cs"}, "1": {"label": "*4", "atom_type": "Cs"}, "15": {"label": "*1", "atom_type": "Cs"}, "16": {"label": "*0", "atom_type": "S2s"}, "22": {"label": "*2", "atom_type": "H0"}}

>  <type>  (10) 
unop_6

>  <geom_source>  (10) 
Heuristics

$$$$

     RDKit          3D

 29 27  0  0  0  0  0  0  0  0999 V2000
   -0.7924   -1.9999    0.2923 C   0  0  0  0  0  0  0  0  0  0  0  0
   -1.5702   -1.0204    1.1404 C   0  0  0  0  0  0  0  0  0  0  0  0
   -2.6091   -0.4727    0.3685 O   0  0  0  0  0  0  0  0  0  0  0  0
   -3.3935    0.4554    1.0745 C   0  0  0  0  0  0  0  0  0  0  0  0
   -4.4750    0.9809    0.1592 C   0  0  0  0  0  0  0  0  0  0  0  0
   -1.4422   -2.8030   -0.0569 H   0  0  0  0  0  0  0  0  0  0  0  0
    0.0213   -2.4387    0.8719 H   0  0  0  0  0  0  0  0  0  0  0  0
   -0.9105   -0.2187    1.5043 H   0  0  0  0  0  0  0  0  0  0  0  0
   -1.9860   -1.5241    2.0256 H   0  0  0  0  0  0  0  0  0  0  0  0
   -3.8382   -0.0249    1.9587 H   0  0  0  0  0  0  0  0  0  0  0  0
   -2.7628    1.2805    1.4374 H   0  0  0  0  0  0  0  0  0  0  0  0
   -5.1099    0.1657   -0.1895 H   0  0  0  0  0  0  0  0  0  0  0  0
   -5.0980    1.7049    0.6868 H   0  0  0  0  0  0  0  0  0  0  0  0
   -4.0351    1.4703   -0.7105 H   0  0  0  0  0  0  0  0  0  0  0  0
    1.3938   -0.8870   -2.1422 C   0  0  0  0  0  0  0  0  0  0  0  0
    1.3938   -0.8870   -0.6225 C   0  0  0  0  0  3  0  0  0  0  0  0
    1.3938    0.7541    0.1424 S   0  0  0  0  0  0  0  0  0  0  0  0
    2.9344    1.4680   -0.4862 C   0  0  0  0  0  0  0  0  0  0  0  0
    4.1953    0.7092   -0.1070 C   0  0  0  0  0  0  0  0  0  0  0  0
    2.3168   -0.4634   -2.5417 H   0  0  0  0  0  0  0  0  0  0  0  0
    1.3112   -1.9081   -2.5209 H   0  0  0  0  0  0  0  0  0  0  0  0
    0.5581   -0.3045   -2.5316 H   0  0  0  0  0  0  0  0  0  0  0  0
    0.3003   -1.4436   -0.1650 H   0  0  0  0  0  0  0  0  0  0  0  0
    2.2300   -1.4696   -0.2325 H   0  0  0  0  0  0  0  0  0  0  0  0
    2.8632    1.5903   -1.5683 H   0  0  0  0  0  0  0  0  0  0  0  0
    2.9494    2.4712   -0.0569 H   0  0  0  0  0  0  0  0  0  0  0  0
    4.2165   -0.2827   -0.5617 H   0  0  0  0  0  0  0  0  0  0  0  0
    4.2660    0.5871    0.9744 H   0  0  0  0  0  0  0  0  0  0  0  0
    5.0800    1.2476   -0.4539 H   0  0  0  0  0  0  0  0  0  0  0  0
  1  2  1  0
  1  6  1  0
  1  7  1  0
  1 23  1  0
  2  3  1  0
  2  8  1  0
  2  9  1  0
  3  4  1  0
  4  5  1  0
  4 10  1  0
  4 11  1  0
  5 12  1  0
  5 13  1  0
  5 14  1  0
 15 16  1  0
 15 20  1  0
 15 21  1  0
 15 22  1  0
 16 17  1  0
 16 24  1  0
 17 18  1  0
 18 19  1  0
 18 25  1  0
 18 26  1  0
 19 27  1  0
 19 28  1  0
 19 29  1  0
M  RAD  1  16   2
M  END
>  <reaction>  (11) 
rmg_rxn_632

>  <mol_properties>  (11) 
{"0": {"label": "*3", "atom_type": "Cs"}, "1": {"label": "*4", "atom_type": "Cs"}, "15": {"label": "*1", "atom_type": "Cs"}, "16": {"label": "*0", "atom_type": "S2s"}, "22": {"label": "*2", "atom_type": "H0"}}

>  <type>  (11) 
unop_7

>  <geom_source>  (11) 
Heuristics

$$$$

     RDKit          3D

 29 27  0  0  0  0  0  0  0  0999 V2000
   -2.2350   -0.4030    0.3032 C   0  0  0  0  0  0  0  0  0  0  0  0
   -2.0350   -1.8894    0.4882 C   0  0  0  0  0  0  0  0  0  0  0  0
   -0.6583   -2.1570    0.5790 O   0  0  0  0  0  0  0  0  0  0  0  0
   -0.3696   -3.5213    0.7533 C   0  0  0  0  0  0  0  0  0  0  0  0
    1.1286   -3.6991    0.8386 C   0  0  0  0  0  0  0  0  0  0  0  0
   -1.8171    0.1467    1.1473 H   0  0  0  0  0  0  0  0  0  0  0  0
   -3.2986   -0.1709    0.2300 H   0  0  0  0  0  0  0  0  0  0  0  0
   -2.4700   -2.4438   -0.3566 H   0  0  0  0  0  0  0  0  0  0  0  0
   -2.5453   -2.2354    1.3993 H   0  0  0  0  0  0  0  0  0  0  0  0
   -0.8535   -3.8932    1.6686 H   0  0  0  0  0  0  0  0  0  0  0  0
   -0.7782   -4.1016   -0.0873 H   0  0  0  0  0  0  0  0  0  0  0  0
    1.5329   -3.1360    1.6805 H   0  0  0  0  0  0  0  0  0  0  0  0
    1.3771   -4.7529    0.9744 H   0  0  0  0  0  0  0  0  0  0  0  0
    1.6081   -3.3443   -0.0743 H   0  0  0  0  0  0  0  0  0  0  0  0
   -0.0488    0.7099   -2.1313 C   0  0  0  0  0  0  0  0  0  0  0  0
   -0.0488    0.7099   -0.6116 C   0  0  0  0  0  3  0  0  0  0  0  0
   -0.0488    2.3510    0.1533 S   0  0  0  0  0  0  0  0  0  0  0  0
    1.4918    3.0649   -0.4753 C   0  0  0  0  0  0  0  0  0  0  0  0
    2.7527    2.3061   -0.0961 C   0  0  0  0  0  0  0  0  0  0  0  0
    0.8743    1.1335   -2.5308 H   0  0  0  0  0  0  0  0  0  0  0  0
   -0.1313   -0.3113   -2.5100 H   0  0  0  0  0  0  0  0  0  0  0  0
   -0.8845    1.2924   -2.5207 H   0  0  0  0  0  0  0  0  0  0  0  0
   -1.1422    0.1533   -0.1540 H   0  0  0  0  0  0  0  0  0  0  0  0
    0.7874    0.1273   -0.2216 H   0  0  0  0  0  0  0  0  0  0  0  0
    1.4207    3.1871   -1.5574 H   0  0  0  0  0  0  0  0  0  0  0  0
    1.5069    4.0681   -0.0460 H   0  0  0  0  0  0  0  0  0  0  0  0
    2.7739    1.3142   -0.5508 H   0  0  0  0  0  0  0  0  0  0  0  0
    2.8234    2.1840    0.9853 H   0  0  0  0  0  0  0  0  0  0  0  0
    3.6375    2.8445   -0.4430 H   0  0  0  0  0  0  0  0  0  0  0  0
  1  2  1  0
  1  6  1  0
  1  7  1  0
  1 23  1  0
  2  3  1  0
  2  8  1  0
  2  9  1  0
  3  4  1  0
  4  5  1  0
  4 10  1  0
  4 11  1  0
  5 12  1  0
  5 13  1  0
  5 14  1  0
 15 16  1  0
 15 20  1  0
 15 21  1  0
 15 22  1  0
 16 17  1  0
 16 24  1  0
 17 18  1  0
 18 19  1  0
 18 25  1  0
 18 26  1  0
 19 27  1  0
 19 28  1  0
 19 29  1  0
M  RAD  1  16   2
M  END
>  <reaction>  (12) 
rmg_rxn_632

>  <mol_properties>  (12) 
{"0": {"label": "*3", "atom_type": "Cs"}, "1": {"label": "*4", "atom_type": "Cs"}, "15": {"label": "*1", "atom_type": "Cs"}, "16": {"label": "*0", "atom_type": "S2s"}, "22": {"label": "*2", "atom_type": "H0"}}

>  <type>  (12) 
unop_8

>  <geom_source>  (12) 
Heuristics

$$$$

     RDKit          3D

 29 27  0  0  0  0  0  0  0  0999 V2000
   -1.0502   -1.0408    1.3514 C   0  0  0  0  0  0  0  0  0  0  0  0
   -2.1950   -0.8295    0.3879 C   0  0  0  0  0  0  0  0  0  0  0  0
   -2.0656   -1.7336   -0.6803 O   0  0  0  0  0  0  0  0  0  0  0  0
   -3.0901   -1.6135   -1.6348 C   0  0  0  0  0  0  0  0  0  0  0  0
   -2.8579   -2.6242   -2.7339 C   0  0  0  0  0  0  0  0  0  0  0  0
   -1.0609   -2.0598    1.7399 H   0  0  0  0  0  0  0  0  0  0  0  0
   -1.1299   -0.3483    2.1908 H   0  0  0  0  0  0  0  0  0  0  0  0
   -2.1920    0.2029    0.0080 H   0  0  0  0  0  0  0  0  0  0  0  0
   -3.1585   -0.9845    0.8959 H   0  0  0  0  0  0  0  0  0  0  0  0
   -4.0677   -1.7809   -1.1589 H   0  0  0  0  0  0  0  0  0  0  0  0
   -3.1013   -0.5934   -2.0467 H   0  0  0  0  0  0  0  0  0  0  0  0
   -2.8613   -3.6367   -2.3288 H   0  0  0  0  0  0  0  0  0  0  0  0
   -3.6428   -2.5494   -3.4882 H   0  0  0  0  0  0  0  0  0  0  0  0
   -1.8955   -2.4500   -3.2162 H   0  0  0  0  0  0  0  0  0  0  0  0
    1.1360    0.0721   -1.0831 C   0  0  0  0  0  0  0  0  0  0  0  0
    1.1360    0.0721    0.4366 C   0  0  0  0  0  3  0  0  0  0  0  0
    1.1360    1.7131    1.2015 S   0  0  0  0  0  0  0  0  0  0  0  0
    2.6765    2.4271    0.5729 C   0  0  0  0  0  0  0  0  0  0  0  0
    3.9375    1.6682    0.9521 C   0  0  0  0  0  0  0  0  0  0  0  0
    2.0590    0.4956   -1.4826 H   0  0  0  0  0  0  0  0  0  0  0  0
    1.0534   -0.9491   -1.4618 H   0  0  0  0  0  0  0  0  0  0  0  0
    0.3002    0.6545   -1.4725 H   0  0  0  0  0  0  0  0  0  0  0  0
    0.0425   -0.4846    0.8941 H   0  0  0  0  0  0  0  0  0  0  0  0
    1.9722   -0.5106    0.8266 H   0  0  0  0  0  0  0  0  0  0  0  0
    2.6054    2.5493   -0.5092 H   0  0  0  0  0  0  0  0  0  0  0  0
    2.6916    3.4302    1.0022 H   0  0  0  0  0  0  0  0  0  0  0  0
    3.9587    0.6764    0.4974 H   0  0  0  0  0  0  0  0  0  0  0  0
    4.0081    1.5462    2.0335 H   0  0  0  0  0  0  0  0  0  0  0  0
    4.8222    2.2066    0.6052 H   0  0  0  0  0  0  0  0  0  0  0  0
  1  2  1  0
  1  6  1  0
  1  7  1  0
  1 23  1  0
  2  3  1  0
  2  8  1  0
  2  9  1  0
  3  4  1  0
  4  5  1  0
  4 10  1  0
  4 11  1  0
  5 12  1  0
  5 13  1  0
  5 14  1  0
 15 16  1  0
 15 20  1  0
 15 21  1  0
 15 22  1  0
 16 17  1  0
 16 24  1  0
 17 18  1  0
 18 19  1  0
 18 25  1  0
 18 26  1  0
 19 27  1  0
 19 28  1  0
 19 29  1  0
M  RAD  1  16   2
M  END
>  <reaction>  (13) 
rmg_rxn_632

>  <mol_properties>  (13) 
{"0": {"label": "*3", "atom_type": "Cs"}, "1": {"label": "*4", "atom_type": "Cs"}, "15": {"label": "*1", "atom_type": "Cs"}, "16": {"label": "*0", "atom_type": "S2s"}, "22": {"label": "*2", "atom_type": "H0"}}

>  <type>  (13) 
unop_9

>  <geom_source>  (13) 
Heuristics

$$$$

     RDKit          3D

 29 27  0  0  0  0  0  0  0  0999 V2000
   -2.0432   -0.3375    0.7652 C   0  0  0  0  0  0  0  0  0  0  0  0
   -2.1496   -1.7671    0.2871 C   0  0  0  0  0  0  0  0  0  0  0  0
   -0.8564   -2.2760    0.0779 O   0  0  0  0  0  0  0  0  0  0  0  0
   -0.8511   -3.6079   -0.3706 C   0  0  0  0  0  0  0  0  0  0  0  0
    0.5793   -4.0554   -0.5632 C   0  0  0  0  0  0  0  0  0  0  0  0
   -1.4822   -0.2877    1.6990 H   0  0  0  0  0  0  0  0  0  0  0  0
   -3.0372    0.0793    0.9346 H   0  0  0  0  0  0  0  0  0  0  0  0
   -2.7284   -1.8179   -0.6471 H   0  0  0  0  0  0  0  0  0  0  0  0
   -2.6792   -2.3823    1.0296 H   0  0  0  0  0  0  0  0  0  0  0  0
   -1.3602   -4.2522    0.3615 H   0  0  0  0  0  0  0  0  0  0  0  0
   -1.4094   -3.6878   -1.3152 H   0  0  0  0  0  0  0  0  0  0  0  0
    1.1297   -3.9905    0.3760 H   0  0  0  0  0  0  0  0  0  0  0  0
    0.6084   -5.0889   -0.9119 H   0  0  0  0  0  0  0  0  0  0  0  0
    1.0806   -3.4265   -1.2997 H   0  0  0  0  0  0  0  0  0  0  0  0
    0.1430    0.7754   -1.6694 C   0  0  0  0  0  0  0  0  0  0  0  0
    0.1430    0.7754   -0.1496 C   0  0  0  0  0  3  0  0  0  0  0  0
    0.1430    2.4165    0.6152 S   0  0  0  0  0  0  0  0  0  0  0  0
    1.6836    3.1304   -0.0133 C   0  0  0  0  0  0  0  0  0  0  0  0
    2.9445    2.3715    0.3659 C   0  0  0  0  0  0  0  0  0  0  0  0
    1.0660    1.1989   -2.0688 H   0  0  0  0  0  0  0  0  0  0  0  0
    0.0604   -0.2458   -2.0480 H   0  0  0  0  0  0  0  0  0  0  0  0
   -0.6927    1.3578   -2.0588 H   0  0  0  0  0  0  0  0  0  0  0  0
   -0.9505    0.2187    0.3079 H   0  0  0  0  0  0  0  0  0  0  0  0
    0.9792    0.1927    0.2404 H   0  0  0  0  0  0  0  0  0  0  0  0
    1.6124    3.2526   -1.0954 H   0  0  0  0  0  0  0  0  0  0  0  0
    1.6986    4.1335    0.4159 H   0  0  0  0  0  0  0  0  0  0  0  0
    2.9657    1.3797   -0.0888 H   0  0  0  0  0  0  0  0  0  0  0  0
    3.0151    2.2495    1.4473 H   0  0  0  0  0  0  0  0  0  0  0  0
    3.8292    2.9099    0.0189 H   0  0  0  0  0  0  0  0  0  0  0  0
  1  2  1  0
  1  6  1  0
  1  7  1  0
  1 23  1  0
  2  3  1  0
  2  8  1  0
  2  9  1  0
  3  4  1  0
  4  5  1  0
  4 10  1  0
  4 11  1  0
  5 12  1  0
  5 13  1  0
  5 14  1  0
 15 16  1  0
 15 20  1  0
 15 21  1  0
 15 22  1  0
 16 17  1  0
 16 24  1  0
 17 18  1  0
 18 19  1  0
 18 25  1  0
 18 26  1  0
 19 27  1  0
 19 28  1  0
 19 29  1  0
M  RAD  1  16   2
M  END
>  <reaction>  (14) 
rmg_rxn_632

>  <mol_properties>  (14) 
{"0": {"label": "*3", "atom_type": "Cs"}, "1": {"label": "*4", "atom_type": "Cs"}, "15": {"label": "*1", "atom_type": "Cs"}, "16": {"label": "*0", "atom_type": "S2s"}, "22": {"label": "*2", "atom_type": "H0"}}

>  <type>  (14) 
unop_10

>  <geom_source>  (14) 
Heuristics

$$$$

     RDKit          3D

 29 27  0  0  0  0  0  0  0  0999 V2000
   -1.0843   -2.0237   -0.1716 C   0  0  0  0  0  0  0  0  0  0  0  0
   -1.4657   -1.4238    1.1619 C   0  0  0  0  0  0  0  0  0  0  0  0
   -2.2811   -0.3006    0.9408 O   0  0  0  0  0  0  0  0  0  0  0  0
   -2.6897    0.3296    2.1286 C   0  0  0  0  0  0  0  0  0  0  0  0
   -3.5565    1.5177    1.7809 C   0  0  0  0  0  0  0  0  0  0  0  0
   -1.9748   -2.3291   -0.7219 H   0  0  0  0  0  0  0  0  0  0  0  0
   -0.4497   -2.8991   -0.0246 H   0  0  0  0  0  0  0  0  0  0  0  0
   -0.5660   -1.1297    1.7225 H   0  0  0  0  0  0  0  0  0  0  0  0
   -2.0026   -2.1620    1.7760 H   0  0  0  0  0  0  0  0  0  0  0  0
   -3.2460   -0.3808    2.7580 H   0  0  0  0  0  0  0  0  0  0  0  0
   -1.8094    0.6515    2.7045 H   0  0  0  0  0  0  0  0  0  0  0  0
   -4.4370    1.1979    1.2226 H   0  0  0  0  0  0  0  0  0  0  0  0
   -3.8863    2.0238    2.6895 H   0  0  0  0  0  0  0  0  0  0  0  0
   -3.0013    2.2296    1.1692 H   0  0  0  0  0  0  0  0  0  0  0  0
    1.1019   -0.9108   -2.6061 C   0  0  0  0  0  0  0  0  0  0  0  0
    1.1019   -0.9108   -1.0864 C   0  0  0  0  0  3  0  0  0  0  0  0
    1.1019    0.7303   -0.3215 S   0  0  0  0  0  0  0  0  0  0  0  0
    2.6425    1.4442   -0.9501 C   0  0  0  0  0  0  0  0  0  0  0  0
    3.9034    0.6854   -0.5708 C   0  0  0  0  0  0  0  0  0  0  0  0
    2.0249   -0.4872   -3.0055 H   0  0  0  0  0  0  0  0  0  0  0  0
    1.0194   -1.9320   -2.9848 H   0  0  0  0  0  0  0  0  0  0  0  0
    0.2662   -0.3283   -2.9955 H   0  0  0  0  0  0  0  0  0  0  0  0
    0.0085   -1.4674   -0.6288 H   0  0  0  0  0  0  0  0  0  0  0  0
    1.9381   -1.4934   -0.6963 H   0  0  0  0  0  0  0  0  0  0  0  0
    2.5713    1.5664   -2.0321 H   0  0  0  0  0  0  0  0  0  0  0  0
    2.6576    2.4474   -0.5208 H   0  0  0  0  0  0  0  0  0  0  0  0
    3.9246   -0.3065   -1.0255 H   0  0  0  0  0  0  0  0  0  0  0  0
    3.9741    0.5633    0.5106 H   0  0  0  0  0  0  0  0  0  0  0  0
    4.7882    1.2238   -0.9178 H   0  0  0  0  0  0  0  0  0  0  0  0
  1  2  1  0
  1  6  1  0
  1  7  1  0
  1 23  1  0
  2  3  1  0
  2  8  1  0
  2  9  1  0
  3  4  1  0
  4  5  1  0
  4 10  1  0
  4 11  1  0
  5 12  1  0
  5 13  1  0
  5 14  1  0
 15 16  1  0
 15 20  1  0
 15 21  1  0
 15 22  1  0
 16 17  1  0
 16 24  1  0
 17 18  1  0
 18 19  1  0
 18 25  1  0
 18 26  1  0
 19 27  1  0
 19 28  1  0
 19 29  1  0
M  RAD  1  16   2
M  END
>  <reaction>  (15) 
rmg_rxn_632

>  <mol_properties>  (15) 
{"0": {"label": "*3", "atom_type": "Cs"}, "1": {"label": "*4", "atom_type": "Cs"}, "15": {"label": "*1", "atom_type": "Cs"}, "16": {"label": "*0", "atom_type": "S2s"}, "22": {"label": "*2", "atom_type": "H0"}}

>  <type>  (15) 
unop_11

>  <geom_source>  (15) 
Heuristics

$$$$

     RDKit          3D

 29 27  0  0  0  0  0  0  0  0999 V2000
   -1.4086   -0.6840    1.3333 C   0  0  0  0  0  0  0  0  0  0  0  0
   -2.2914   -1.1334    0.1922 C   0  0  0  0  0  0  0  0  0  0  0  0
   -1.5885   -2.0669   -0.5886 O   0  0  0  0  0  0  0  0  0  0  0  0
   -2.3312   -2.5463   -1.6811 C   0  0  0  0  0  0  0  0  0  0  0  0
   -1.4891   -3.5376   -2.4502 C   0  0  0  0  0  0  0  0  0  0  0  0
   -1.1272   -1.5337    1.9562 H   0  0  0  0  0  0  0  0  0  0  0  0
   -1.9344    0.0428    1.9545 H   0  0  0  0  0  0  0  0  0  0  0  0
   -2.5868   -0.2733   -0.4270 H   0  0  0  0  0  0  0  0  0  0  0  0
   -3.2164   -1.5874    0.5776 H   0  0  0  0  0  0  0  0  0  0  0  0
   -3.2568   -3.0227   -1.3254 H   0  0  0  0  0  0  0  0  0  0  0  0
   -2.6273   -1.7086   -2.3299 H   0  0  0  0  0  0  0  0  0  0  0  0
   -1.2073   -4.3758   -1.8119 H   0  0  0  0  0  0  0  0  0  0  0  0
   -2.0463   -3.9241   -3.3050 H   0  0  0  0  0  0  0  0  0  0  0  0
   -0.5781   -3.0625   -2.8159 H   0  0  0  0  0  0  0  0  0  0  0  0
    0.7776    0.4289   -1.1012 C   0  0  0  0  0  0  0  0  0  0  0  0
    0.7776    0.4289    0.4185 C   0  0  0  0  0  3  0  0  0  0  0  0
    0.7776    2.0700    1.1834 S   0  0  0  0  0  0  0  0  0  0  0  0
    2.3182    2.7839    0.5548 C   0  0  0  0  0  0  0  0  0  0  0  0
    3.5791    2.0251    0.9340 C   0  0  0  0  0  0  0  0  0  0  0  0
    1.7006    0.8525   -1.5006 H   0  0  0  0  0  0  0  0  0  0  0  0
    0.6950   -0.5922   -1.4799 H   0  0  0  0  0  0  0  0  0  0  0  0
   -0.0581    1.0114   -1.4906 H   0  0  0  0  0  0  0  0  0  0  0  0
   -0.3158   -0.1277    0.8761 H   0  0  0  0  0  0  0  0  0  0  0  0
    1.6138   -0.1537    0.8086 H   0  0  0  0  0  0  0  0  0  0  0  0
    2.2470    2.9062   -0.5272 H   0  0  0  0  0  0  0  0  0  0  0  0
    2.3333    3.7871    0.9841 H   0  0  0  0  0  0  0  0  0  0  0  0
    3.6003    1.0332    0.4794 H   0  0  0  0  0  0  0  0  0  0  0  0
    3.6498    1.9031    2.0154 H   0  0  0  0  0  0  0  0  0  0  0  0
    4.4639    2.5635    0.5871 H   0  0  0  0  0  0  0  0  0  0  0  0
  1  2  1  0
  1  6  1  0
  1  7  1  0
  1 23  1  0
  2  3  1  0
  2  8  1  0
  2  9  1  0
  3  4  1  0
  4  5  1  0
  4 10  1  0
  4 11  1  0
  5 12  1  0
  5 13  1  0
  5 14  1  0
 15 16  1  0
 15 20  1  0
 15 21  1  0
 15 22  1  0
 16 17  1  0
 16 24  1  0
 17 18  1  0
 18 19  1  0
 18 25  1  0
 18 26  1  0
 19 27  1  0
 19 28  1  0
 19 29  1  0
M  RAD  1  16   2
M  END
>  <reaction>  (16) 
rmg_rxn_632

>  <mol_properties>  (16) 
{"0": {"label": "*3", "atom_type": "Cs"}, "1": {"label": "*4", "atom_type": "Cs"}, "15": {"label": "*1", "atom_type": "Cs"}, "16": {"label": "*0", "atom_type": "S2s"}, "22": {"label": "*2", "atom_type": "H0"}}

>  <type>  (16) 
unop_12

>  <geom_source>  (16) 
Heuristics

$$$$

     RDKit          3D

 29 27  0  0  0  0  0  0  0  0999 V2000
   -2.5724    0.8185   -1.1434 S   0  0  0  0  0  0  0  0  0  0  0  0
    2.3505    0.3658    0.2047 O   0  0  0  0  0  0  0  0  0  0  0  0
    3.7397    0.1243    0.1393 C   0  0  0  0  0  0  0  0  0  0  0  0
    1.7119   -0.7306    0.8226 C   0  0  0  0  0  0  0  0  0  0  0  0
   -2.9896    0.4591    0.5941 C   0  0  0  0  0  0  0  0  0  0  0  0
    4.4213    1.3090   -0.5278 C   0  0  0  0  0  0  0  0  0  0  0  0
    0.2171   -0.4627    0.8881 C   0  0  0  0  0  0  0  0  0  0  0  0
   -4.0614    1.4225    1.0807 C   0  0  0  0  0  0  0  0  0  0  0  0
   -1.8853   -1.7555   -1.8319 C   0  0  0  0  0  0  0  0  0  0  0  0
   -1.3036   -0.4844   -1.2337 C   0  0  0  0  0  3  0  0  0  0  0  0
    4.1698    0.0048    1.1601 H   0  0  0  0  0  0  0  0  0  0  0  0
    3.9558   -0.7868   -0.4643 H   0  0  0  0  0  0  0  0  0  0  0  0
    2.0866   -0.8746    1.8618 H   0  0  0  0  0  0  0  0  0  0  0  0
    1.8709   -1.6638    0.2356 H   0  0  0  0  0  0  0  0  0  0  0  0
   -3.3671   -0.5818    0.6822 H   0  0  0  0  0  0  0  0  0  0  0  0
   -2.0823    0.5711    1.2256 H   0  0  0  0  0  0  0  0  0  0  0  0
    5.5158    1.1298   -0.5847 H   0  0  0  0  0  0  0  0  0  0  0  0
    4.0248    1.4459   -1.5563 H   0  0  0  0  0  0  0  0  0  0  0  0
    4.2378    2.2335    0.0598 H   0  0  0  0  0  0  0  0  0  0  0  0
   -0.2987   -1.3212    1.3679 H   0  0  0  0  0  0  0  0  0  0  0  0
    0.0205    0.4547    1.4826 H   0  0  0  0  0  0  0  0  0  0  0  0
   -0.2424   -0.3073   -0.2821 H   0  0  0  0  0  0  0  0  0  0  0  0
   -4.9803    1.3142    0.4663 H   0  0  0  0  0  0  0  0  0  0  0  0
   -3.6949    2.4688    1.0122 H   0  0  0  0  0  0  0  0  0  0  0  0
   -4.3106    1.1994    2.1395 H   0  0  0  0  0  0  0  0  0  0  0  0
   -2.2596   -1.5597   -2.8591 H   0  0  0  0  0  0  0  0  0  0  0  0
   -1.0964   -2.5347   -1.8775 H   0  0  0  0  0  0  0  0  0  0  0  0
   -2.7179   -2.1291   -1.2004 H   0  0  0  0  0  0  0  0  0  0  0  0
   -0.4599   -0.1290   -1.8617 H   0  0  0  0  0  0  0  0  0  0  0  0
  1 10  1  0
  1  5  1  0
  2  3  1  0
  2  4  1  0
  3  6  1  0
  3 11  1  0
  3 12  1  0
  4  7  1  0
  4 13  1  0
  4 14  1  0
  5  8  1  0
  5 15  1  0
  5 16  1  0
  6 17  1  0
  6 18  1  0
  6 19  1  0
  7 20  1  0
  7 21  1  0
  7 22  1  0
  8 23  1  0
  8 24  1  0
  8 25  1  0
  9 10  1  0
  9 26  1  0
  9 27  1  0
  9 28  1  0
 10 29  1  0
M  RAD  1  10   2
M  END
>  <reaction>  (17) 
rmg_rxn_632

>  <mol_properties>  (17) 
{"0": {"label": "*3", "atom_type": "Cs"}, "1": {"label": "*4", "atom_type": "Cs"}, "15": {"label": "*1", "atom_type": "Cs"}, "16": {"label": "*0", "atom_type": "S2s"}, "22": {"label": "*2", "atom_type": "H0"}}

>  <type>  (17) 
unop_13

>  <geom_source>  (17) 
AutoTST

$$$$

     RDKit          3D

 29 27  0  0  0  0  0  0  0  0999 V2000
   -1.7589   -0.4453    1.1242 C   0  0  0  0  0  0  0  0  0  0  0  0
   -2.2616   -1.4953    0.1607 C   0  0  0  0  0  0  0  0  0  0  0  0
   -1.1676   -2.2350   -0.3201 O   0  0  0  0  0  0  0  0  0  0  0  0
   -1.5362   -3.2420   -1.2285 C   0  0  0  0  0  0  0  0  0  0  0  0
   -0.2937   -3.9731   -1.6817 C   0  0  0  0  0  0  0  0  0  0  0  0
   -1.2443   -0.9127    1.9644 H   0  0  0  0  0  0  0  0  0  0  0  0
   -2.5925    0.1427    1.5112 H   0  0  0  0  0  0  0  0  0  0  0  0
   -2.7934   -1.0235   -0.6789 H   0  0  0  0  0  0  0  0  0  0  0  0
   -2.9766   -2.1652    0.6610 H   0  0  0  0  0  0  0  0  0  0  0  0
   -2.2397   -3.9395   -0.7503 H   0  0  0  0  0  0  0  0  0  0  0  0
   -2.0565   -2.7978   -2.0901 H   0  0  0  0  0  0  0  0  0  0  0  0
    0.2149   -4.4262   -0.8301 H   0  0  0  0  0  0  0  0  0  0  0  0
   -0.5558   -4.7613   -2.3892 H   0  0  0  0  0  0  0  0  0  0  0  0
    0.3980   -3.2852   -2.1691 H   0  0  0  0  0  0  0  0  0  0  0  0
    0.4273    0.6676   -1.3104 C   0  0  0  0  0  0  0  0  0  0  0  0
    0.4273    0.6676    0.2094 C   0  0  0  0  0  3  0  0  0  0  0  0
    0.4273    2.3087    0.9742 S   0  0  0  0  0  0  0  0  0  0  0  0
    1.9679    3.0226    0.3457 C   0  0  0  0  0  0  0  0  0  0  0  0
    3.2288    2.2638    0.7249 C   0  0  0  0  0  0  0  0  0  0  0  0
    1.3503    1.0912   -1.7098 H   0  0  0  0  0  0  0  0  0  0  0  0
    0.3448   -0.3536   -1.6890 H   0  0  0  0  0  0  0  0  0  0  0  0
   -0.4084    1.2501   -1.6998 H   0  0  0  0  0  0  0  0  0  0  0  0
   -0.6661    0.1110    0.6669 H   0  0  0  0  0  0  0  0  0  0  0  0
    1.2635    0.0850    0.5994 H   0  0  0  0  0  0  0  0  0  0  0  0
    1.8968    3.1448   -0.7364 H   0  0  0  0  0  0  0  0  0  0  0  0
    1.9830    4.0258    0.7749 H   0  0  0  0  0  0  0  0  0  0  0  0
    3.2500    1.2719    0.2702 H   0  0  0  0  0  0  0  0  0  0  0  0
    3.2995    2.1417    1.8063 H   0  0  0  0  0  0  0  0  0  0  0  0
    4.1136    2.8022    0.3779 H   0  0  0  0  0  0  0  0  0  0  0  0
  1  2  1  0
  1  6  1  0
  1  7  1  0
  1 23  1  0
  2  3  1  0
  2  8  1  0
  2  9  1  0
  3  4  1  0
  4  5  1  0
  4 10  1  0
  4 11  1  0
  5 12  1  0
  5 13  1  0
  5 14  1  0
 15 16  1  0
 15 20  1  0
 15 21  1  0
 15 22  1  0
 16 17  1  0
 16 24  1  0
 17 18  1  0
 18 19  1  0
 18 25  1  0
 18 26  1  0
 19 27  1  0
 19 28  1  0
 19 29  1  0
M  RAD  1  16   2
M  END
>  <reaction>  (18) 
rmg_rxn_632

>  <mol_properties>  (18) 
{"0": {"label": "*3", "atom_type": "Cs"}, "1": {"label": "*4", "atom_type": "Cs"}, "15": {"label": "*1", "atom_type": "Cs"}, "16": {"label": "*0", "atom_type": "S2s"}, "22": {"label": "*2", "atom_type": "H0"}}

>  <type>  (18) 
unop_14

>  <geom_source>  (18) 
gaussian_log

$$$$
