
     RDKit          3D

  8  7  0  0  0  0  0  0  0  0999 V2000
    0.9548    0.1194   -0.0790 C   0  0  0  0  0  0  0  0  0  0  0  0
   -0.4838   -0.2649    0.0193 C   0  0  0  0  0  0  0  0  0  0  0  0
   -0.8933   -1.1081    0.8664 N   0  0  0  0  0  0  0  0  0  0  0  0
    1.3360   -0.0983   -1.0800 H   0  0  0  0  0  0  0  0  0  0  0  0
    1.0698    1.1948    0.0786 H   0  0  0  0  0  0  0  0  0  0  0  0
    1.5426   -0.4219    0.6602 H   0  0  0  0  0  0  0  0  0  0  0  0
   -1.1575    0.2324   -0.6905 H   0  0  0  0  0  0  0  0  0  0  0  0
   -1.8989   -1.2455    0.7886 H   0  0  0  0  0  0  0  0  0  0  0  0
  1  2  1  0
  1  4  1  0
  1  5  1  0
  1  6  1  0
  2  3  2  3
  2  7  1  0
  3  8  1  0
M  END
>  <reaction>  (1) 
rmg_rxn_16462

>  <mol_properties>  (1) 
{"2": {"label": "donator", "atom_type": "N3d"}, "7": {"label": "d_hydrogen", "atom_type": "H0"}}

>  <type>  (1) 
r1h

$$$$

     RDKit          3D

 17 16  0  0  0  0  0  0  0  0999 V2000
    2.3993   -0.7259   -0.8796 C   0  0  0  0  0  0  0  0  0  0  0  0
    1.8173   -0.7170    0.4851 C   0  0  0  0  0  3  0  0  0  0  0  0
    2.6779   -0.5182    1.6852 C   0  0  0  0  0  0  0  0  0  0  0  0
    3.8710   -1.2723    1.6674 O   0  0  0  0  0  0  0  0  0  0  0  0
    3.6589   -2.6587    1.8015 C   0  0  0  0  0  0  0  0  0  0  0  0
    4.9969   -3.3586    1.7556 C   0  0  0  0  0  0  0  0  0  0  0  0
    3.3755   -1.2152   -0.8894 H   0  0  0  0  0  0  0  0  0  0  0  0
    1.7457   -1.2284   -1.5943 H   0  0  0  0  0  0  0  0  0  0  0  0
    2.5578    0.2962   -1.2545 H   0  0  0  0  0  0  0  0  0  0  0  0
    0.7445   -0.6275    0.6059 H   0  0  0  0  0  0  0  0  0  0  0  0
    2.1057   -0.7316    2.5992 H   0  0  0  0  0  0  0  0  0  0  0  0
    3.0103    0.5272    1.7516 H   0  0  0  0  0  0  0  0  0  0  0  0
    3.0050   -3.0235    0.9977 H   0  0  0  0  0  0  0  0  0  0  0  0
    3.1469   -2.8645    2.7531 H   0  0  0  0  0  0  0  0  0  0  0  0
    5.6430   -3.0039    2.5594 H   0  0  0  0  0  0  0  0  0  0  0  0
    4.8641   -4.4360    1.8660 H   0  0  0  0  0  0  0  0  0  0  0  0
    5.4957   -3.1672    0.8046 H   0  0  0  0  0  0  0  0  0  0  0  0
  1  2  1  0
  1  7  1  0
  1  8  1  0
  1  9  1  0
  2  3  1  0
  2 10  1  0
  3  4  1  0
  3 11  1  0
  3 12  1  0
  4  5  1  0
  5  6  1  0
  5 13  1  0
  5 14  1  0
  6 15  1  0
  6 16  1  0
  6 17  1  0
M  RAD  1   2   2
M  END
>  <reaction>  (2) 
rmg_rxn_16462

>  <mol_properties>  (2) 
{"1": {"label": "acceptor", "atom_type": "Cs"}}

>  <type>  (2) 
r2

$$$$

     RDKit          3D

 18 17  0  0  0  0  0  0  0  0999 V2000
    2.2026   -0.7213   -0.2612 C   0  0  0  0  0  0  0  0  0  0  0  0
    1.5384    0.2638    0.6915 C   0  0  0  0  0  0  0  0  0  0  0  0
    2.2584    1.5946    0.7694 C   0  0  0  0  0  0  0  0  0  0  0  0
    2.2212    2.2185   -0.4893 O   0  0  0  0  0  0  0  0  0  0  0  0
    2.8988    3.4488   -0.5204 C   0  0  0  0  0  0  0  0  0  0  0  0
    2.7981    4.0296   -1.9118 C   0  0  0  0  0  0  0  0  0  0  0  0
    3.2294   -0.9309    0.0486 H   0  0  0  0  0  0  0  0  0  0  0  0
    2.2338   -0.3181   -1.2734 H   0  0  0  0  0  0  0  0  0  0  0  0
    1.6610   -1.6680   -0.2875 H   0  0  0  0  0  0  0  0  0  0  0  0
    1.4990   -0.1566    1.7002 H   0  0  0  0  0  0  0  0  0  0  0  0
    0.5055    0.4455    0.3835 H   0  0  0  0  0  0  0  0  0  0  0  0
    3.3038    1.4410    1.0808 H   0  0  0  0  0  0  0  0  0  0  0  0
    1.7844    2.2410    1.5226 H   0  0  0  0  0  0  0  0  0  0  0  0
    2.4596    4.1376    0.2164 H   0  0  0  0  0  0  0  0  0  0  0  0
    3.9524    3.3035   -0.2397 H   0  0  0  0  0  0  0  0  0  0  0  0
    1.7543    4.1869   -2.1856 H   0  0  0  0  0  0  0  0  0  0  0  0
    3.2472    3.3545   -2.6411 H   0  0  0  0  0  0  0  0  0  0  0  0
    3.3178    4.9878   -1.9600 H   0  0  0  0  0  0  0  0  0  0  0  0
  1  2  1  0
  1  7  1  0
  1  8  1  0
  1  9  1  0
  2  3  1  0
  2 10  1  0
  2 11  1  0
  3  4  1  0
  3 12  1  0
  3 13  1  0
  4  5  1  0
  5  6  1  0
  5 14  1  0
  5 15  1  0
  6 16  1  0
  6 17  1  0
  6 18  1  0
M  END
>  <reaction>  (3) 
rmg_rxn_16462

>  <mol_properties>  (3) 
{"0": {"label": "a_hydrogen", "atom_type": "H0"}, "2": {"label": "acceptor", "atom_type": "Cs"}}

>  <type>  (3) 
r2h

$$$$

     RDKit          3D

 25 23  0  0  0  0  0  0  0  0999 V2000
   -0.9955   -0.8511   -3.2286 C   0  0  0  0  0  0  0  0  0  0  0  0
   -0.9704   -0.7550   -1.7329 C   0  0  0  0  0  0  0  0  0  0  0  0
   -2.0239   -0.6483   -1.0550 N   0  0  0  0  0  0  0  0  0  0  0  0
   -0.4198   -0.0304   -3.6634 H   0  0  0  0  0  0  0  0  0  0  0  0
   -0.5230   -1.7827   -3.5495 H   0  0  0  0  0  0  0  0  0  0  0  0
   -2.0175   -0.8152   -3.6015 H   0  0  0  0  0  0  0  0  0  0  0  0
    0.0175   -0.7718   -1.2583 H   0  0  0  0  0  0  0  0  0  0  0  0
   -1.7142   -0.6012    0.1324 H   0  0  0  0  0  0  0  0  0  0  0  0
   -0.5914   -1.9266    1.6536 C   0  0  0  0  0  0  0  0  0  0  0  0
   -1.2443   -0.5920    1.4217 C   0  0  0  0  0  3  0  0  0  0  0  0
   -0.3769    0.6234    1.5589 C   0  0  0  0  0  0  0  0  0  0  0  0
    0.7721    0.4882    0.7575 O   0  0  0  0  0  0  0  0  0  0  0  0
    1.6365    1.5942    0.8315 C   0  0  0  0  0  0  0  0  0  0  0  0
    2.8189    1.3509   -0.0772 C   0  0  0  0  0  0  0  0  0  0  0  0
   -0.2464   -2.0204    2.6904 H   0  0  0  0  0  0  0  0  0  0  0  0
   -1.2894   -2.7415    1.4597 H   0  0  0  0  0  0  0  0  0  0  0  0
    0.2789   -2.0559    1.0093 H   0  0  0  0  0  0  0  0  0  0  0  0
   -2.1916   -0.4641    1.9460 H   0  0  0  0  0  0  0  0  0  0  0  0
   -0.0756    0.7573    2.6135 H   0  0  0  0  0  0  0  0  0  0  0  0
   -0.9383    1.5226    1.2676 H   0  0  0  0  0  0  0  0  0  0  0  0
    1.9708    1.7384    1.8691 H   0  0  0  0  0  0  0  0  0  0  0  0
    1.1022    2.5073    0.5321 H   0  0  0  0  0  0  0  0  0  0  0  0
    2.4891    1.2276   -1.1097 H   0  0  0  0  0  0  0  0  0  0  0  0
    3.5091    2.1947   -0.0341 H   0  0  0  0  0  0  0  0  0  0  0  0
    3.3542    0.4498    0.2241 H   0  0  0  0  0  0  0  0  0  0  0  0
  1  2  1  0
  1  4  1  0
  1  5  1  0
  1  6  1  0
  2  3  2  3
  2  7  1  0
  3  8  1  0
  9 10  1  0
  9 15  1  0
  9 16  1  0
  9 17  1  0
 10 11  1  0
 10 18  1  0
 11 12  1  0
 11 19  1  0
 11 20  1  0
 12 13  1  0
 13 14  1  0
 13 21  1  0
 13 22  1  0
 14 23  1  0
 14 24  1  0
 14 25  1  0
M  RAD  1  10   2
M  END
>  <reaction>  (4) 
rmg_rxn_16462

>  <mol_properties>  (4) 
{"1": {"label": "*0", "atom_type": "Cd"}, "2": {"label": "*1", "atom_type": "N3d"}, "7": {"label": "*2", "atom_type": "H0"}, "9": {"label": "*3", "atom_type": "Cs"}, "10": {"label": "*4", "atom_type": "Cs"}}

>  <type>  (4) 
ts

$$$$

     RDKit          3D

 25 23  0  0  0  0  0  0  0  0999 V2000
   -2.9648   -1.9339    0.1881 C   0  0  0  0  0  0  0  0  0  0  0  0
   -1.8709   -0.9081    0.1490 C   0  0  0  0  0  0  0  0  0  0  0  0
   -1.9402    0.1091   -0.5571 N   0  0  0  0  0  0  0  0  0  0  0  0
   -2.5652   -2.8981   -0.1221 H   0  0  0  0  0  0  0  0  0  0  0  0
   -3.3317   -2.0294    1.2087 H   0  0  0  0  0  0  0  0  0  0  0  0
   -3.7800   -1.6454   -0.4697 H   0  0  0  0  0  0  0  0  0  0  0  0
   -1.0152   -1.1459    0.7936 H   0  0  0  0  0  0  0  0  0  0  0  0
   -0.9538    0.8708   -0.4805 H   0  0  0  0  0  0  0  0  0  0  0  0
   -0.4489    3.0329   -0.0919 C   0  0  0  0  0  0  0  0  0  0  0  0
    0.0821    1.6511   -0.3761 C   0  0  0  0  0  3  0  0  0  0  0  0
    0.9571    1.0946    0.7283 C   0  0  0  0  0  0  0  0  0  0  0  0
    1.2576   -0.2795    0.6162 O   0  0  0  0  0  0  0  0  0  0  0  0
    2.1249   -0.6196   -0.4449 C   0  0  0  0  0  0  0  0  0  0  0  0
    2.5366   -2.0740   -0.2776 C   0  0  0  0  0  0  0  0  0  0  0  0
   -1.1255    3.3471   -0.8823 H   0  0  0  0  0  0  0  0  0  0  0  0
   -0.9873    3.0524    0.8535 H   0  0  0  0  0  0  0  0  0  0  0  0
    0.3653    3.7593   -0.0310 H   0  0  0  0  0  0  0  0  0  0  0  0
    0.5550    1.5873   -1.3545 H   0  0  0  0  0  0  0  0  0  0  0  0
    0.4446    1.1901    1.6910 H   0  0  0  0  0  0  0  0  0  0  0  0
    1.9004    1.6720    0.7850 H   0  0  0  0  0  0  0  0  0  0  0  0
    3.0113    0.0343   -0.4224 H   0  0  0  0  0  0  0  0  0  0  0  0
    1.6223   -0.4842   -1.4132 H   0  0  0  0  0  0  0  0  0  0  0  0
    1.6570   -2.7110   -0.3083 H   0  0  0  0  0  0  0  0  0  0  0  0
    3.2142   -2.3626   -1.0763 H   0  0  0  0  0  0  0  0  0  0  0  0
    3.0306   -2.2125    0.6802 H   0  0  0  0  0  0  0  0  0  0  0  0
  1  2  1  0
  1  4  1  0
  1  5  1  0
  1  6  1  0
  2  3  2  3
  2  7  1  0
  3  8  1  0
  9 10  1  0
  9 15  1  0
  9 16  1  0
  9 17  1  0
 10 11  1  0
 10 18  1  0
 11 12  1  0
 11 19  1  0
 11 20  1  0
 12 13  1  0
 13 14  1  0
 13 21  1  0
 13 22  1  0
 14 23  1  0
 14 24  1  0
 14 25  1  0
M  RAD  1  10   2
M  END
>  <reaction>  (5) 
rmg_rxn_16462

>  <mol_properties>  (5) 
{"1": {"label": "*0", "atom_type": "Cd"}, "2": {"label": "*1", "atom_type": "N3d"}, "7": {"label": "*2", "atom_type": "H0"}, "9": {"label": "*3", "atom_type": "Cs"}, "10": {"label": "*4", "atom_type": "Cs"}}

>  <type>  (5) 
unop_1

>  <geom_source>  (5) 
crest_best.xyz

$$$$

     RDKit          3D

 25 23  0  0  0  0  0  0  0  0999 V2000
    0.3807   -1.7295   -3.0480 C   0  0  0  0  0  0  0  0  0  0  0  0
    0.3807   -1.7295   -1.5557 C   0  0  0  0  0  0  0  0  0  0  0  0
    0.3807   -0.6569   -0.8880 N   0  0  0  0  0  0  0  0  0  0  0  0
    1.2590   -2.2595   -3.4254 H   0  0  0  0  0  0  0  0  0  0  0  0
   -0.4975   -2.2595   -3.4254 H   0  0  0  0  0  0  0  0  0  0  0  0
    0.3807   -0.7089   -3.4266 H   0  0  0  0  0  0  0  0  0  0  0  0
    0.3807   -2.7192   -1.0810 H   0  0  0  0  0  0  0  0  0  0  0  0
    0.3807   -0.8871    0.3116 H   0  0  0  0  0  0  0  0  0  0  0  0
    1.6194   -0.5304    2.2480 C   0  0  0  0  0  0  0  0  0  0  0  0
    0.3807   -1.1343    1.5998 C   0  0  0  0  0  3  0  0  0  0  0  0
   -0.7389   -0.1321    1.4068 C   0  0  0  0  0  0  0  0  0  0  0  0
   -0.3153    0.8750    0.5228 O   0  0  0  0  0  0  0  0  0  0  0  0
   -1.2820    1.8721    0.3114 C   0  0  0  0  0  0  0  0  0  0  0  0
   -0.7263    2.8991   -0.6478 C   0  0  0  0  0  0  0  0  0  0  0  0
    1.3832   -0.1211    3.2334 H   0  0  0  0  0  0  0  0  0  0  0  0
    2.4010   -1.2808    2.3759 H   0  0  0  0  0  0  0  0  0  0  0  0
    2.0198    0.2782    1.6366 H   0  0  0  0  0  0  0  0  0  0  0  0
   -0.0036   -1.9537    2.2135 H   0  0  0  0  0  0  0  0  0  0  0  0
   -1.0192    0.3125    2.3748 H   0  0  0  0  0  0  0  0  0  0  0  0
   -1.6329   -0.6318    1.0055 H   0  0  0  0  0  0  0  0  0  0  0  0
   -1.5485    2.3445    1.2684 H   0  0  0  0  0  0  0  0  0  0  0  0
   -2.2008    1.4239   -0.0951 H   0  0  0  0  0  0  0  0  0  0  0  0
   -0.4747    2.4342   -1.6017 H   0  0  0  0  0  0  0  0  0  0  0  0
   -1.4615    3.6850   -0.8280 H   0  0  0  0  0  0  0  0  0  0  0  0
    0.1759    3.3553   -0.2388 H   0  0  0  0  0  0  0  0  0  0  0  0
  1  2  1  0
  1  4  1  0
  1  5  1  0
  1  6  1  0
  2  3  2  3
  2  7  1  0
  3  8  1  0
  9 10  1  0
  9 15  1  0
  9 16  1  0
  9 17  1  0
 10 11  1  0
 10 18  1  0
 11 12  1  0
 11 19  1  0
 11 20  1  0
 12 13  1  0
 13 14  1  0
 13 21  1  0
 13 22  1  0
 14 23  1  0
 14 24  1  0
 14 25  1  0
M  RAD  1  10   2
M  END
>  <reaction>  (6) 
rmg_rxn_16462

>  <mol_properties>  (6) 
{"1": {"label": "*0", "atom_type": "Cd"}, "2": {"label": "*1", "atom_type": "N3d"}, "7": {"label": "*2", "atom_type": "H0"}, "9": {"label": "*3", "atom_type": "Cs"}, "10": {"label": "*4", "atom_type": "Cs"}}

>  <type>  (6) 
unop_2

>  <geom_source>  (6) 
Heuristics

$$$$

     RDKit          3D

 25 23  0  0  0  0  0  0  0  0999 V2000
   -1.1865   -1.1585   -3.3813 C   0  0  0  0  0  0  0  0  0  0  0  0
   -1.1865   -1.1585   -1.8890 C   0  0  0  0  0  0  0  0  0  0  0  0
   -1.1865   -0.0859   -1.2213 N   0  0  0  0  0  0  0  0  0  0  0  0
   -0.3082   -1.6885   -3.7588 H   0  0  0  0  0  0  0  0  0  0  0  0
   -2.0648   -1.6885   -3.7588 H   0  0  0  0  0  0  0  0  0  0  0  0
   -1.1865   -0.1379   -3.7599 H   0  0  0  0  0  0  0  0  0  0  0  0
   -1.1865   -2.1482   -1.4144 H   0  0  0  0  0  0  0  0  0  0  0  0
   -1.1865   -0.3161   -0.0217 H   0  0  0  0  0  0  0  0  0  0  0  0
   -0.4713   -1.8783    1.5465 C   0  0  0  0  0  0  0  0  0  0  0  0
   -1.1865   -0.5632    1.2664 C   0  0  0  0  0  3  0  0  0  0  0  0
   -0.3489    0.6536    1.6027 C   0  0  0  0  0  0  0  0  0  0  0  0
    0.7926    0.6741    0.7831 O   0  0  0  0  0  0  0  0  0  0  0  0
    1.6500    1.7543    1.0507 C   0  0  0  0  0  0  0  0  0  0  0  0
    2.8382    1.6801    0.1200 C   0  0  0  0  0  0  0  0  0  0  0  0
   -0.2014   -1.9578    2.6025 H   0  0  0  0  0  0  0  0  0  0  0  0
   -1.1053   -2.7307    1.2981 H   0  0  0  0  0  0  0  0  0  0  0  0
    0.4445   -1.9522    0.9602 H   0  0  0  0  0  0  0  0  0  0  0  0
   -2.1108   -0.5063    1.8481 H   0  0  0  0  0  0  0  0  0  0  0  0
   -0.0490    0.6249    2.6622 H   0  0  0  0  0  0  0  0  0  0  0  0
   -0.9344    1.5726    1.4533 H   0  0  0  0  0  0  0  0  0  0  0  0
    1.9803    1.7196    2.0994 H   0  0  0  0  0  0  0  0  0  0  0  0
    1.1118    2.7037    0.9122 H   0  0  0  0  0  0  0  0  0  0  0  0
    2.5127    1.7283   -0.9198 H   0  0  0  0  0  0  0  0  0  0  0  0
    3.5192    2.5113    0.3093 H   0  0  0  0  0  0  0  0  0  0  0  0
    3.3814    0.7461    0.2675 H   0  0  0  0  0  0  0  0  0  0  0  0
  1  2  1  0
  1  4  1  0
  1  5  1  0
  1  6  1  0
  2  3  2  3
  2  7  1  0
  3  8  1  0
  9 10  1  0
  9 15  1  0
  9 16  1  0
  9 17  1  0
 10 11  1  0
 10 18  1  0
 11 12  1  0
 11 19  1  0
 11 20  1  0
 12 13  1  0
 13 14  1  0
 13 21  1  0
 13 22  1  0
 14 23  1  0
 14 24  1  0
 14 25  1  0
M  RAD  1  10   2
M  END
>  <reaction>  (7) 
rmg_rxn_16462

>  <mol_properties>  (7) 
{"1": {"label": "*0", "atom_type": "Cd"}, "2": {"label": "*1", "atom_type": "N3d"}, "7": {"label": "*2", "atom_type": "H0"}, "9": {"label": "*3", "atom_type": "Cs"}, "10": {"label": "*4", "atom_type": "Cs"}}

>  <type>  (7) 
unop_3

>  <geom_source>  (7) 
Heuristics

$$$$

     RDKit          3D

 25 23  0  0  0  0  0  0  0  0999 V2000
    1.0255   -1.3443   -3.1986 C   0  0  0  0  0  0  0  0  0  0  0  0
    1.0255   -1.3443   -1.7063 C   0  0  0  0  0  0  0  0  0  0  0  0
    1.0255   -0.2717   -1.0386 N   0  0  0  0  0  0  0  0  0  0  0  0
    1.9038   -1.8743   -3.5760 H   0  0  0  0  0  0  0  0  0  0  0  0
    0.1472   -1.8743   -3.5760 H   0  0  0  0  0  0  0  0  0  0  0  0
    1.0255   -0.3237   -3.5772 H   0  0  0  0  0  0  0  0  0  0  0  0
    1.0255   -2.3340   -1.2316 H   0  0  0  0  0  0  0  0  0  0  0  0
    1.0255   -0.5019    0.1610 H   0  0  0  0  0  0  0  0  0  0  0  0
    1.7407    0.3689    2.1961 C   0  0  0  0  0  0  0  0  0  0  0  0
    1.0255   -0.7491    1.4492 C   0  0  0  0  0  3  0  0  0  0  0  0
   -0.4728   -0.5428    1.3609 C   0  0  0  0  0  0  0  0  0  0  0  0
   -0.7398    0.6224    0.6219 O   0  0  0  0  0  0  0  0  0  0  0  0
   -2.1102    0.9133    0.5181 C   0  0  0  0  0  0  0  0  0  0  0  0
   -2.2836    2.1783   -0.2901 C   0  0  0  0  0  0  0  0  0  0  0  0
    1.3686    0.4535    3.2202 H   0  0  0  0  0  0  0  0  0  0  0  0
    2.8148    0.1844    2.2445 H   0  0  0  0  0  0  0  0  0  0  0  0
    1.5813    1.3271    1.7016 H   0  0  0  0  0  0  0  0  0  0  0  0
    1.2043   -1.7072    1.9449 H   0  0  0  0  0  0  0  0  0  0  0  0
   -0.9021   -0.4524    2.3713 H   0  0  0  0  0  0  0  0  0  0  0  0
   -0.9493   -1.4096    0.8797 H   0  0  0  0  0  0  0  0  0  0  0  0
   -2.5443    1.0355    1.5214 H   0  0  0  0  0  0  0  0  0  0  0  0
   -2.6364    0.0750    0.0377 H   0  0  0  0  0  0  0  0  0  0  0  0
   -1.8658    2.0535   -1.2897 H   0  0  0  0  0  0  0  0  0  0  0  0
   -3.3424    2.4243   -0.3848 H   0  0  0  0  0  0  0  0  0  0  0  0
   -1.7754    3.0134    0.1934 H   0  0  0  0  0  0  0  0  0  0  0  0
  1  2  1  0
  1  4  1  0
  1  5  1  0
  1  6  1  0
  2  3  2  3
  2  7  1  0
  3  8  1  0
  9 10  1  0
  9 15  1  0
  9 16  1  0
  9 17  1  0
 10 11  1  0
 10 18  1  0
 11 12  1  0
 11 19  1  0
 11 20  1  0
 12 13  1  0
 13 14  1  0
 13 21  1  0
 13 22  1  0
 14 23  1  0
 14 24  1  0
 14 25  1  0
M  RAD  1  10   2
M  END
>  <reaction>  (8) 
rmg_rxn_16462

>  <mol_properties>  (8) 
{"1": {"label": "*0", "atom_type": "Cd"}, "2": {"label": "*1", "atom_type": "N3d"}, "7": {"label": "*2", "atom_type": "H0"}, "9": {"label": "*3", "atom_type": "Cs"}, "10": {"label": "*4", "atom_type": "Cs"}}

>  <type>  (8) 
unop_4

>  <geom_source>  (8) 
Heuristics

$$$$

     RDKit          3D

 25 23  0  0  0  0  0  0  0  0999 V2000
   -0.8020    0.3810   -4.1464 C   0  0  0  0  0  0  0  0  0  0  0  0
   -0.8020    0.3810   -2.6541 C   0  0  0  0  0  0  0  0  0  0  0  0
   -0.8020    1.4537   -1.9864 N   0  0  0  0  0  0  0  0  0  0  0  0
    0.0763   -0.1490   -4.5238 H   0  0  0  0  0  0  0  0  0  0  0  0
   -1.6803   -0.1490   -4.5238 H   0  0  0  0  0  0  0  0  0  0  0  0
   -0.8020    1.4017   -4.5250 H   0  0  0  0  0  0  0  0  0  0  0  0
   -0.8020   -0.6087   -2.1794 H   0  0  0  0  0  0  0  0  0  0  0  0
   -0.8020    1.2235   -0.7868 H   0  0  0  0  0  0  0  0  0  0  0  0
   -2.0407    0.1755    0.8801 C   0  0  0  0  0  0  0  0  0  0  0  0
   -0.8020    0.9763    0.5014 C   0  0  0  0  0  3  0  0  0  0  0  0
    0.3656    0.7463    1.4390 C   0  0  0  0  0  0  0  0  0  0  0  0
    0.7621   -0.6000    1.3673 O   0  0  0  0  0  0  0  0  0  0  0  0
    1.8218   -0.9146    2.2343 C   0  0  0  0  0  0  0  0  0  0  0  0
    2.1659   -2.3777    2.0784 C   0  0  0  0  0  0  0  0  0  0  0  0
   -2.3814    0.4367    1.8851 H   0  0  0  0  0  0  0  0  0  0  0  0
   -2.8610    0.3700    0.1876 H   0  0  0  0  0  0  0  0  0  0  0  0
   -1.8286   -0.8936    0.8657 H   0  0  0  0  0  0  0  0  0  0  0  0
   -1.0299    2.0458    0.5045 H   0  0  0  0  0  0  0  0  0  0  0  0
    0.0760    0.9972    2.4718 H   0  0  0  0  0  0  0  0  0  0  0  0
    1.2072    1.4002    1.1674 H   0  0  0  0  0  0  0  0  0  0  0  0
    1.5335   -0.6960    3.2731 H   0  0  0  0  0  0  0  0  0  0  0  0
    2.6953   -0.2874    2.0021 H   0  0  0  0  0  0  0  0  0  0  0  0
    2.4652   -2.5926    1.0520 H   0  0  0  0  0  0  0  0  0  0  0  0
    2.9886   -2.6456    2.7431 H   0  0  0  0  0  0  0  0  0  0  0  0
    1.3051   -3.0009    2.3234 H   0  0  0  0  0  0  0  0  0  0  0  0
  1  2  1  0
  1  4  1  0
  1  5  1  0
  1  6  1  0
  2  3  2  3
  2  7  1  0
  3  8  1  0
  9 10  1  0
  9 15  1  0
  9 16  1  0
  9 17  1  0
 10 11  1  0
 10 18  1  0
 11 12  1  0
 11 19  1  0
 11 20  1  0
 12 13  1  0
 13 14  1  0
 13 21  1  0
 13 22  1  0
 14 23  1  0
 14 24  1  0
 14 25  1  0
M  RAD  1  10   2
M  END
>  <reaction>  (9) 
rmg_rxn_16462

>  <mol_properties>  (9) 
{"1": {"label": "*0", "atom_type": "Cd"}, "2": {"label": "*1", "atom_type": "N3d"}, "7": {"label": "*2", "atom_type": "H0"}, "9": {"label": "*3", "atom_type": "Cs"}, "10": {"label": "*4", "atom_type": "Cs"}}

>  <type>  (9) 
unop_5

>  <geom_source>  (9) 
Heuristics

$$$$

     RDKit          3D

 25 23  0  0  0  0  0  0  0  0999 V2000
    1.3467   -0.4042   -3.6448 C   0  0  0  0  0  0  0  0  0  0  0  0
    1.3467   -0.4042   -2.1525 C   0  0  0  0  0  0  0  0  0  0  0  0
    1.3467    0.6684   -1.4848 N   0  0  0  0  0  0  0  0  0  0  0  0
    2.2249   -0.9342   -4.0222 H   0  0  0  0  0  0  0  0  0  0  0  0
    0.4684   -0.9342   -4.0222 H   0  0  0  0  0  0  0  0  0  0  0  0
    1.3467    0.6164   -4.0234 H   0  0  0  0  0  0  0  0  0  0  0  0
    1.3467   -1.3939   -1.6778 H   0  0  0  0  0  0  0  0  0  0  0  0
    1.3467    0.4383   -0.2852 H   0  0  0  0  0  0  0  0  0  0  0  0
    1.3467    1.4973    1.7860 C   0  0  0  0  0  0  0  0  0  0  0  0
    1.3467    0.1911    1.0030 C   0  0  0  0  0  3  0  0  0  0  0  0
    0.1602   -0.6950    1.3229 C   0  0  0  0  0  0  0  0  0  0  0  0
   -1.0249   -0.0405    0.9459 O   0  0  0  0  0  0  0  0  0  0  0  0
   -2.1846   -0.7771    1.2394 C   0  0  0  0  0  0  0  0  0  0  0  0
   -3.3937    0.0139    0.7968 C   0  0  0  0  0  0  0  0  0  0  0  0
    1.3708    1.3066    2.8618 H   0  0  0  0  0  0  0  0  0  0  0  0
    2.2165    2.1059    1.5344 H   0  0  0  0  0  0  0  0  0  0  0  0
    0.4500    2.0777    1.5687 H   0  0  0  0  0  0  0  0  0  0  0  0
    2.2570   -0.3758    1.2168 H   0  0  0  0  0  0  0  0  0  0  0  0
    0.1370   -0.9210    2.4008 H   0  0  0  0  0  0  0  0  0  0  0  0
    0.2453   -1.6533    0.7897 H   0  0  0  0  0  0  0  0  0  0  0  0
   -2.2342   -0.9835    2.3188 H   0  0  0  0  0  0  0  0  0  0  0  0
   -2.1518   -1.7491    0.7253 H   0  0  0  0  0  0  0  0  0  0  0  0
   -3.3522    0.2071   -0.2757 H   0  0  0  0  0  0  0  0  0  0  0  0
   -4.3082   -0.5399    1.0146 H   0  0  0  0  0  0  0  0  0  0  0  0
   -3.4357    0.9712    1.3175 H   0  0  0  0  0  0  0  0  0  0  0  0
  1  2  1  0
  1  4  1  0
  1  5  1  0
  1  6  1  0
  2  3  2  3
  2  7  1  0
  3  8  1  0
  9 10  1  0
  9 15  1  0
  9 16  1  0
  9 17  1  0
 10 11  1  0
 10 18  1  0
 11 12  1  0
 11 19  1  0
 11 20  1  0
 12 13  1  0
 13 14  1  0
 13 21  1  0
 13 22  1  0
 14 23  1  0
 14 24  1  0
 14 25  1  0
M  RAD  1  10   2
M  END
>  <reaction>  (10) 
rmg_rxn_16462

>  <mol_properties>  (10) 
{"1": {"label": "*0", "atom_type": "Cd"}, "2": {"label": "*1", "atom_type": "N3d"}, "7": {"label": "*2", "atom_type": "H0"}, "9": {"label": "*3", "atom_type": "Cs"}, "10": {"label": "*4", "atom_type": "Cs"}}

>  <type>  (10) 
unop_6

>  <geom_source>  (10) 
Heuristics

$$$$

     RDKit          3D

 25 23  0  0  0  0  0  0  0  0999 V2000
   -0.3598    0.5818   -4.2312 C   0  0  0  0  0  0  0  0  0  0  0  0
   -0.3598    0.5818   -2.7389 C   0  0  0  0  0  0  0  0  0  0  0  0
   -0.3598    1.6544   -2.0712 N   0  0  0  0  0  0  0  0  0  0  0  0
    0.5184    0.0518   -4.6086 H   0  0  0  0  0  0  0  0  0  0  0  0
   -1.2381    0.0518   -4.6086 H   0  0  0  0  0  0  0  0  0  0  0  0
   -0.3598    1.6024   -4.6098 H   0  0  0  0  0  0  0  0  0  0  0  0
   -0.3598   -0.4079   -2.2642 H   0  0  0  0  0  0  0  0  0  0  0  0
   -0.3598    1.4243   -0.8716 H   0  0  0  0  0  0  0  0  0  0  0  0
   -1.7902    1.0786    0.9300 C   0  0  0  0  0  0  0  0  0  0  0  0
   -0.3598    1.1771    0.4166 C   0  0  0  0  0  3  0  0  0  0  0  0
    0.6508    0.5301    1.3414 C   0  0  0  0  0  0  0  0  0  0  0  0
    0.3861   -0.8472    1.4300 O   0  0  0  0  0  0  0  0  0  0  0  0
    1.2567   -1.5261    2.2987 C   0  0  0  0  0  0  0  0  0  0  0  0
    0.8853   -2.9907    2.3201 C   0  0  0  0  0  0  0  0  0  0  0  0
   -1.8892    1.5660    1.9032 H   0  0  0  0  0  0  0  0  0  0  0  0
   -2.4881    1.5588    0.2427 H   0  0  0  0  0  0  0  0  0  0  0  0
   -2.0880    0.0365    1.0456 H   0  0  0  0  0  0  0  0  0  0  0  0
   -0.0768    2.2258    0.2902 H   0  0  0  0  0  0  0  0  0  0  0  0
    0.5947    0.9876    2.3418 H   0  0  0  0  0  0  0  0  0  0  0  0
    1.6713    0.6925    0.9644 H   0  0  0  0  0  0  0  0  0  0  0  0
    1.1876   -1.0970    3.3092 H   0  0  0  0  0  0  0  0  0  0  0  0
    2.2966   -1.3981    1.9632 H   0  0  0  0  0  0  0  0  0  0  0  0
    0.9669   -3.4203    1.3211 H   0  0  0  0  0  0  0  0  0  0  0  0
    1.5499   -3.5395    2.9893 H   0  0  0  0  0  0  0  0  0  0  0  0
   -0.1404   -3.1198    2.6675 H   0  0  0  0  0  0  0  0  0  0  0  0
  1  2  1  0
  1  4  1  0
  1  5  1  0
  1  6  1  0
  2  3  2  3
  2  7  1  0
  3  8  1  0
  9 10  1  0
  9 15  1  0
  9 16  1  0
  9 17  1  0
 10 11  1  0
 10 18  1  0
 11 12  1  0
 11 19  1  0
 11 20  1  0
 12 13  1  0
 13 14  1  0
 13 21  1  0
 13 22  1  0
 14 23  1  0
 14 24  1  0
 14 25  1  0
M  RAD  1  10   2
M  END
>  <reaction>  (11) 
rmg_rxn_16462

>  <mol_properties>  (11) 
{"1": {"label": "*0", "atom_type": "Cd"}, "2": {"label": "*1", "atom_type": "N3d"}, "7": {"label": "*2", "atom_type": "H0"}, "9": {"label": "*3", "atom_type": "Cs"}, "10": {"label": "*4", "atom_type": "Cs"}}

>  <type>  (11) 
unop_7

>  <geom_source>  (11) 
Heuristics

$$$$

     RDKit          3D

 25 23  0  0  0  0  0  0  0  0999 V2000
    0.1557    0.6334   -4.2241 C   0  0  0  0  0  0  0  0  0  0  0  0
    0.1557    0.6334   -2.7317 C   0  0  0  0  0  0  0  0  0  0  0  0
    0.1557    1.7060   -2.0640 N   0  0  0  0  0  0  0  0  0  0  0  0
    1.0339    0.1034   -4.6015 H   0  0  0  0  0  0  0  0  0  0  0  0
   -0.7226    0.1034   -4.6015 H   0  0  0  0  0  0  0  0  0  0  0  0
    0.1557    1.6540   -4.6027 H   0  0  0  0  0  0  0  0  0  0  0  0
    0.1557   -0.3563   -2.2571 H   0  0  0  0  0  0  0  0  0  0  0  0
    0.1557    1.4758   -0.8645 H   0  0  0  0  0  0  0  0  0  0  0  0
   -1.0831    1.8325    1.0720 C   0  0  0  0  0  0  0  0  0  0  0  0
    0.1557    1.2287    0.4237 C   0  0  0  0  0  3  0  0  0  0  0  0
    0.8027    0.1490    1.2669 C   0  0  0  0  0  0  0  0  0  0  0  0
   -0.0929   -0.9234    1.4178 O   0  0  0  0  0  0  0  0  0  0  0  0
    0.4119   -1.9610    2.2192 C   0  0  0  0  0  0  0  0  0  0  0  0
   -0.6254   -3.0556    2.3158 C   0  0  0  0  0  0  0  0  0  0  0  0
   -0.8372    2.2842    2.0363 H   0  0  0  0  0  0  0  0  0  0  0  0
   -1.5182    2.6083    0.4403 H   0  0  0  0  0  0  0  0  0  0  0  0
   -1.8406    1.0678    1.2437 H   0  0  0  0  0  0  0  0  0  0  0  0
    0.9026    2.0065    0.2425 H   0  0  0  0  0  0  0  0  0  0  0  0
    1.0738    0.5529    2.2552 H   0  0  0  0  0  0  0  0  0  0  0  0
    1.7306   -0.2013    0.7912 H   0  0  0  0  0  0  0  0  0  0  0  0
    0.6586   -1.5756    3.2195 H   0  0  0  0  0  0  0  0  0  0  0  0
    1.3437   -2.3517    1.7840 H   0  0  0  0  0  0  0  0  0  0  0  0
   -0.8605   -3.4477    1.3258 H   0  0  0  0  0  0  0  0  0  0  0  0
   -0.2545   -3.8744    2.9344 H   0  0  0  0  0  0  0  0  0  0  0  0
   -1.5443   -2.6730    2.7615 H   0  0  0  0  0  0  0  0  0  0  0  0
  1  2  1  0
  1  4  1  0
  1  5  1  0
  1  6  1  0
  2  3  2  3
  2  7  1  0
  3  8  1  0
  9 10  1  0
  9 15  1  0
  9 16  1  0
  9 17  1  0
 10 11  1  0
 10 18  1  0
 11 12  1  0
 11 19  1  0
 11 20  1  0
 12 13  1  0
 13 14  1  0
 13 21  1  0
 13 22  1  0
 14 23  1  0
 14 24  1  0
 14 25  1  0
M  RAD  1  10   2
M  END
>  <reaction>  (12) 
rmg_rxn_16462

>  <mol_properties>  (12) 
{"1": {"label": "*0", "atom_type": "Cd"}, "2": {"label": "*1", "atom_type": "N3d"}, "7": {"label": "*2", "atom_type": "H0"}, "9": {"label": "*3", "atom_type": "Cs"}, "10": {"label": "*4", "atom_type": "Cs"}}

>  <type>  (12) 
unop_8

>  <geom_source>  (12) 
Heuristics

$$$$

     RDKit          3D

 25 23  0  0  0  0  0  0  0  0999 V2000
   -0.2230   -1.7723   -3.0596 C   0  0  0  0  0  0  0  0  0  0  0  0
   -0.2230   -1.7723   -1.5672 C   0  0  0  0  0  0  0  0  0  0  0  0
   -0.2230   -0.6997   -0.8996 N   0  0  0  0  0  0  0  0  0  0  0  0
    0.6553   -2.3023   -3.4370 H   0  0  0  0  0  0  0  0  0  0  0  0
   -1.1012   -2.3023   -3.4370 H   0  0  0  0  0  0  0  0  0  0  0  0
   -0.2230   -0.7517   -3.4382 H   0  0  0  0  0  0  0  0  0  0  0  0
   -0.2230   -2.7620   -1.0926 H   0  0  0  0  0  0  0  0  0  0  0  0
   -0.2230   -0.9298    0.3000 H   0  0  0  0  0  0  0  0  0  0  0  0
    1.2074   -1.2755    2.1017 C   0  0  0  0  0  0  0  0  0  0  0  0
   -0.2230   -1.1770    1.5882 C   0  0  0  0  0  3  0  0  0  0  0  0
   -0.7201    0.2501    1.4808 C   0  0  0  0  0  0  0  0  0  0  0  0
    0.0574    0.9444    0.5383 O   0  0  0  0  0  0  0  0  0  0  0  0
   -0.3114    2.2927    0.3980 C   0  0  0  0  0  0  0  0  0  0  0  0
    0.5833    2.9417   -0.6325 C   0  0  0  0  0  0  0  0  0  0  0  0
    1.2960   -0.8303    3.0958 H   0  0  0  0  0  0  0  0  0  0  0  0
    1.5289   -2.3157    2.1710 H   0  0  0  0  0  0  0  0  0  0  0  0
    1.8932   -0.7502    1.4371 H   0  0  0  0  0  0  0  0  0  0  0  0
   -0.8999   -1.7196    2.2539 H   0  0  0  0  0  0  0  0  0  0  0  0
   -0.6540    0.7481    2.4610 H   0  0  0  0  0  0  0  0  0  0  0  0
   -1.7774    0.2637    1.1778 H   0  0  0  0  0  0  0  0  0  0  0  0
   -0.2208    2.8085    1.3654 H   0  0  0  0  0  0  0  0  0  0  0  0
   -1.3655    2.3633    0.0911 H   0  0  0  0  0  0  0  0  0  0  0  0
    0.4838    2.4396   -1.5954 H   0  0  0  0  0  0  0  0  0  0  0  0
    0.3145    3.9916   -0.7590 H   0  0  0  0  0  0  0  0  0  0  0  0
    1.6272    2.8860   -0.3217 H   0  0  0  0  0  0  0  0  0  0  0  0
  1  2  1  0
  1  4  1  0
  1  5  1  0
  1  6  1  0
  2  3  2  3
  2  7  1  0
  3  8  1  0
  9 10  1  0
  9 15  1  0
  9 16  1  0
  9 17  1  0
 10 11  1  0
 10 18  1  0
 11 12  1  0
 11 19  1  0
 11 20  1  0
 12 13  1  0
 13 14  1  0
 13 21  1  0
 13 22  1  0
 14 23  1  0
 14 24  1  0
 14 25  1  0
M  RAD  1  10   2
M  END
>  <reaction>  (13) 
rmg_rxn_16462

>  <mol_properties>  (13) 
{"1": {"label": "*0", "atom_type": "Cd"}, "2": {"label": "*1", "atom_type": "N3d"}, "7": {"label": "*2", "atom_type": "H0"}, "9": {"label": "*3", "atom_type": "Cs"}, "10": {"label": "*4", "atom_type": "Cs"}}

>  <type>  (13) 
unop_9

>  <geom_source>  (13) 
Heuristics

$$$$

     RDKit          3D

 25 23  0  0  0  0  0  0  0  0999 V2000
   -2.9648   -1.9339    0.1881 C   0  0  0  0  0  0  0  0  0  0  0  0
   -1.8709   -0.9081    0.1490 C   0  0  0  0  0  0  0  0  0  0  0  0
   -1.9402    0.1091   -0.5571 N   0  0  0  0  0  0  0  0  0  0  0  0
   -2.5652   -2.8981   -0.1221 H   0  0  0  0  0  0  0  0  0  0  0  0
   -3.3317   -2.0294    1.2087 H   0  0  0  0  0  0  0  0  0  0  0  0
   -3.7800   -1.6454   -0.4697 H   0  0  0  0  0  0  0  0  0  0  0  0
   -1.0152   -1.1459    0.7936 H   0  0  0  0  0  0  0  0  0  0  0  0
   -0.9538    0.8708   -0.4805 H   0  0  0  0  0  0  0  0  0  0  0  0
   -0.4489    3.0329   -0.0919 C   0  0  0  0  0  0  0  0  0  0  0  0
    0.0821    1.6511   -0.3761 C   0  0  0  0  0  3  0  0  0  0  0  0
    0.9571    1.0946    0.7283 C   0  0  0  0  0  0  0  0  0  0  0  0
    1.2576   -0.2795    0.6162 O   0  0  0  0  0  0  0  0  0  0  0  0
    2.1249   -0.6196   -0.4449 C   0  0  0  0  0  0  0  0  0  0  0  0
    2.5366   -2.0740   -0.2776 C   0  0  0  0  0  0  0  0  0  0  0  0
   -1.1255    3.3471   -0.8823 H   0  0  0  0  0  0  0  0  0  0  0  0
   -0.9873    3.0524    0.8535 H   0  0  0  0  0  0  0  0  0  0  0  0
    0.3653    3.7593   -0.0310 H   0  0  0  0  0  0  0  0  0  0  0  0
    0.5550    1.5873   -1.3545 H   0  0  0  0  0  0  0  0  0  0  0  0
    0.4446    1.1901    1.6910 H   0  0  0  0  0  0  0  0  0  0  0  0
    1.9004    1.6720    0.7850 H   0  0  0  0  0  0  0  0  0  0  0  0
    3.0113    0.0343   -0.4224 H   0  0  0  0  0  0  0  0  0  0  0  0
    1.6223   -0.4842   -1.4132 H   0  0  0  0  0  0  0  0  0  0  0  0
    1.6570   -2.7110   -0.3083 H   0  0  0  0  0  0  0  0  0  0  0  0
    3.2142   -2.3626   -1.0763 H   0  0  0  0  0  0  0  0  0  0  0  0
    3.0306   -2.2125    0.6802 H   0  0  0  0  0  0  0  0  0  0  0  0
  1  2  1  0
  1  4  1  0
  1  5  1  0
  1  6  1  0
  2  3  2  3
  2  7  1  0
  3  8  1  0
  9 10  1  0
  9 15  1  0
  9 16  1  0
  9 17  1  0
 10 11  1  0
 10 18  1  0
 11 12  1  0
 11 19  1  0
 11 20  1  0
 12 13  1  0
 13 14  1  0
 13 21  1  0
 13 22  1  0
 14 23  1  0
 14 24  1  0
 14 25  1  0
M  RAD  1  10   2
M  END
>  <reaction>  (14) 
rmg_rxn_16462

>  <mol_properties>  (14) 
{"1": {"label": "*0", "atom_type": "Cd"}, "2": {"label": "*1", "atom_type": "N3d"}, "7": {"label": "*2", "atom_type": "H0"}, "9": {"label": "*3", "atom_type": "Cs"}, "10": {"label": "*4", "atom_type": "Cs"}}

>  <type>  (14) 
unop_10

>  <geom_source>  (14) 
Heuristics

$$$$

     RDKit          3D

 25 23  0  0  0  0  0  0  0  0999 V2000
   -1.1742    0.0023   -3.9591 C   0  0  0  0  0  0  0  0  0  0  0  0
   -1.1742    0.0023   -2.4667 C   0  0  0  0  0  0  0  0  0  0  0  0
   -1.1742    1.0749   -1.7991 N   0  0  0  0  0  0  0  0  0  0  0  0
   -0.2959   -0.5277   -4.3365 H   0  0  0  0  0  0  0  0  0  0  0  0
   -2.0525   -0.5277   -4.3365 H   0  0  0  0  0  0  0  0  0  0  0  0
   -1.1742    1.0229   -4.3377 H   0  0  0  0  0  0  0  0  0  0  0  0
   -1.1742   -0.9874   -1.9921 H   0  0  0  0  0  0  0  0  0  0  0  0
   -1.1742    0.8447   -0.5995 H   0  0  0  0  0  0  0  0  0  0  0  0
   -1.8894   -0.7175    0.9688 C   0  0  0  0  0  0  0  0  0  0  0  0
   -1.1742    0.5976    0.6887 C   0  0  0  0  0  3  0  0  0  0  0  0
    0.0680    0.7916    1.5339 C   0  0  0  0  0  0  0  0  0  0  0  0
    1.0041   -0.2094    1.2228 O   0  0  0  0  0  0  0  0  0  0  0  0
    2.1795   -0.1288    1.9879 C   0  0  0  0  0  0  0  0  0  0  0  0
    3.1109   -1.2451    1.5759 C   0  0  0  0  0  0  0  0  0  0  0  0
   -2.2017   -0.7761    2.0144 H   0  0  0  0  0  0  0  0  0  0  0  0
   -2.7801   -0.8202    0.3473 H   0  0  0  0  0  0  0  0  0  0  0  0
   -1.2334   -1.5643    0.7671 H   0  0  0  0  0  0  0  0  0  0  0  0
   -1.8457    1.4392    0.8798 H   0  0  0  0  0  0  0  0  0  0  0  0
   -0.1911    0.7430    2.6035 H   0  0  0  0  0  0  0  0  0  0  0  0
    0.5044    1.7841    1.3481 H   0  0  0  0  0  0  0  0  0  0  0  0
    1.9362   -0.2062    3.0579 H   0  0  0  0  0  0  0  0  0  0  0  0
    2.6602    0.8490    1.8353 H   0  0  0  0  0  0  0  0  0  0  0  0
    3.3637   -1.1612    0.5184 H   0  0  0  0  0  0  0  0  0  0  0  0
    4.0331   -1.2023    2.1576 H   0  0  0  0  0  0  0  0  0  0  0  0
    2.6412   -2.2154    1.7414 H   0  0  0  0  0  0  0  0  0  0  0  0
  1  2  1  0
  1  4  1  0
  1  5  1  0
  1  6  1  0
  2  3  2  3
  2  7  1  0
  3  8  1  0
  9 10  1  0
  9 15  1  0
  9 16  1  0
  9 17  1  0
 10 11  1  0
 10 18  1  0
 11 12  1  0
 11 19  1  0
 11 20  1  0
 12 13  1  0
 13 14  1  0
 13 21  1  0
 13 22  1  0
 14 23  1  0
 14 24  1  0
 14 25  1  0
M  RAD  1  10   2
M  END
>  <reaction>  (15) 
rmg_rxn_16462

>  <mol_properties>  (15) 
{"1": {"label": "*0", "atom_type": "Cd"}, "2": {"label": "*1", "atom_type": "N3d"}, "7": {"label": "*2", "atom_type": "H0"}, "9": {"label": "*3", "atom_type": "Cs"}, "10": {"label": "*4", "atom_type": "Cs"}}

>  <type>  (15) 
unop_11

>  <geom_source>  (15) 
Heuristics

$$$$

     RDKit          3D

 25 23  0  0  0  0  0  0  0  0999 V2000
   -0.7646   -1.5803   -3.1702 C   0  0  0  0  0  0  0  0  0  0  0  0
   -0.7646   -1.5803   -1.6779 C   0  0  0  0  0  0  0  0  0  0  0  0
   -0.7646   -0.5077   -1.0102 N   0  0  0  0  0  0  0  0  0  0  0  0
    0.1137   -2.1103   -3.5476 H   0  0  0  0  0  0  0  0  0  0  0  0
   -1.6428   -2.1103   -3.5476 H   0  0  0  0  0  0  0  0  0  0  0  0
   -0.7646   -0.5597   -3.5488 H   0  0  0  0  0  0  0  0  0  0  0  0
   -0.7646   -2.5700   -1.2032 H   0  0  0  0  0  0  0  0  0  0  0  0
   -0.7646   -0.7379    0.1894 H   0  0  0  0  0  0  0  0  0  0  0  0
    0.4741   -1.7859    1.8563 C   0  0  0  0  0  0  0  0  0  0  0  0
   -0.7646   -0.9851    1.4776 C   0  0  0  0  0  3  0  0  0  0  0  0
   -0.5519    0.5130    1.5551 C   0  0  0  0  0  0  0  0  0  0  0  0
    0.4301    0.8927    0.6244 O   0  0  0  0  0  0  0  0  0  0  0  0
    0.7195    2.2672    0.6507 C   0  0  0  0  0  0  0  0  0  0  0  0
    1.7820    2.5650   -0.3817 C   0  0  0  0  0  0  0  0  0  0  0  0
    0.7867   -1.5598    2.8789 H   0  0  0  0  0  0  0  0  0  0  0  0
    0.2826   -2.8582    1.7943 H   0  0  0  0  0  0  0  0  0  0  0  0
    1.3051   -1.5490    1.1919 H   0  0  0  0  0  0  0  0  0  0  0  0
   -1.5956   -1.2414    2.1405 H   0  0  0  0  0  0  0  0  0  0  0  0
   -0.2354    0.7976    2.5711 H   0  0  0  0  0  0  0  0  0  0  0  0
   -1.4926    1.0430    1.3453 H   0  0  0  0  0  0  0  0  0  0  0  0
    1.0655    2.5580    1.6536 H   0  0  0  0  0  0  0  0  0  0  0  0
   -0.1922    2.8466    0.4423 H   0  0  0  0  0  0  0  0  0  0  0  0
    1.4345    2.2898   -1.3781 H   0  0  0  0  0  0  0  0  0  0  0  0
    2.0231    3.6292   -0.3799 H   0  0  0  0  0  0  0  0  0  0  0  0
    2.6916    2.0030   -0.1670 H   0  0  0  0  0  0  0  0  0  0  0  0
  1  2  1  0
  1  4  1  0
  1  5  1  0
  1  6  1  0
  2  3  2  3
  2  7  1  0
  3  8  1  0
  9 10  1  0
  9 15  1  0
  9 16  1  0
  9 17  1  0
 10 11  1  0
 10 18  1  0
 11 12  1  0
 11 19  1  0
 11 20  1  0
 12 13  1  0
 13 14  1  0
 13 21  1  0
 13 22  1  0
 14 23  1  0
 14 24  1  0
 14 25  1  0
M  RAD  1  10   2
M  END
>  <reaction>  (16) 
rmg_rxn_16462

>  <mol_properties>  (16) 
{"1": {"label": "*0", "atom_type": "Cd"}, "2": {"label": "*1", "atom_type": "N3d"}, "7": {"label": "*2", "atom_type": "H0"}, "9": {"label": "*3", "atom_type": "Cs"}, "10": {"label": "*4", "atom_type": "Cs"}}

>  <type>  (16) 
unop_12

>  <geom_source>  (16) 
Heuristics

$$$$

     RDKit          3D

 25 23  0  0  0  0  0  0  0  0999 V2000
    0.8131    0.4177   -4.0756 C   0  0  0  0  0  0  0  0  0  0  0  0
    0.8131    0.4177   -2.5832 C   0  0  0  0  0  0  0  0  0  0  0  0
    0.8131    1.4903   -1.9156 N   0  0  0  0  0  0  0  0  0  0  0  0
    1.6914   -0.1123   -4.4530 H   0  0  0  0  0  0  0  0  0  0  0  0
   -0.0652   -0.1123   -4.4530 H   0  0  0  0  0  0  0  0  0  0  0  0
    0.8131    1.4383   -4.4542 H   0  0  0  0  0  0  0  0  0  0  0  0
    0.8131   -0.5720   -2.1086 H   0  0  0  0  0  0  0  0  0  0  0  0
    0.8131    1.2601   -0.7160 H   0  0  0  0  0  0  0  0  0  0  0  0
    0.0979    2.1309    1.3191 C   0  0  0  0  0  0  0  0  0  0  0  0
    0.8131    1.0130    0.5722 C   0  0  0  0  0  3  0  0  0  0  0  0
    0.6915   -0.3332    1.2566 C   0  0  0  0  0  0  0  0  0  0  0  0
   -0.6595   -0.7186    1.2893 O   0  0  0  0  0  0  0  0  0  0  0  0
   -0.8724   -1.9450    1.9407 C   0  0  0  0  0  0  0  0  0  0  0  0
   -2.3497   -2.2620    1.9199 C   0  0  0  0  0  0  0  0  0  0  0  0
    0.5030    2.2471    2.3275 H   0  0  0  0  0  0  0  0  0  0  0  0
    0.2113    3.0844    0.8011 H   0  0  0  0  0  0  0  0  0  0  0  0
   -0.9669    1.9159    1.4086 H   0  0  0  0  0  0  0  0  0  0  0  0
    1.8771    1.2459    0.4752 H   0  0  0  0  0  0  0  0  0  0  0  0
    1.0891   -0.2731    2.2821 H   0  0  0  0  0  0  0  0  0  0  0  0
    1.2842   -1.0886    0.7199 H   0  0  0  0  0  0  0  0  0  0  0  0
   -0.5059   -1.8877    2.9763 H   0  0  0  0  0  0  0  0  0  0  0  0
   -0.3014   -2.7403    1.4390 H   0  0  0  0  0  0  0  0  0  0  0  0
   -2.7109   -2.3326    0.8933 H   0  0  0  0  0  0  0  0  0  0  0  0
   -2.5395   -3.2126    2.4208 H   0  0  0  0  0  0  0  0  0  0  0  0
   -2.9152   -1.4819    2.4307 H   0  0  0  0  0  0  0  0  0  0  0  0
  1  2  1  0
  1  4  1  0
  1  5  1  0
  1  6  1  0
  2  3  2  3
  2  7  1  0
  3  8  1  0
  9 10  1  0
  9 15  1  0
  9 16  1  0
  9 17  1  0
 10 11  1  0
 10 18  1  0
 11 12  1  0
 11 19  1  0
 11 20  1  0
 12 13  1  0
 13 14  1  0
 13 21  1  0
 13 22  1  0
 14 23  1  0
 14 24  1  0
 14 25  1  0
M  RAD  1  10   2
M  END
>  <reaction>  (17) 
rmg_rxn_16462

>  <mol_properties>  (17) 
{"1": {"label": "*0", "atom_type": "Cd"}, "2": {"label": "*1", "atom_type": "N3d"}, "7": {"label": "*2", "atom_type": "H0"}, "9": {"label": "*3", "atom_type": "Cs"}, "10": {"label": "*4", "atom_type": "Cs"}}

>  <type>  (17) 
unop_13

>  <geom_source>  (17) 
Heuristics

$$$$

     RDKit          3D

 25 23  0  0  0  0  0  0  0  0999 V2000
   -1.3467   -0.5640   -3.6755 C   0  0  0  0  0  0  0  0  0  0  0  0
   -1.3467   -0.5640   -2.1832 C   0  0  0  0  0  0  0  0  0  0  0  0
   -1.3467    0.5086   -1.5155 N   0  0  0  0  0  0  0  0  0  0  0  0
   -0.4684   -1.0940   -4.0529 H   0  0  0  0  0  0  0  0  0  0  0  0
   -2.2249   -1.0940   -4.0529 H   0  0  0  0  0  0  0  0  0  0  0  0
   -1.3467    0.4566   -4.0541 H   0  0  0  0  0  0  0  0  0  0  0  0
   -1.3467   -1.5537   -1.7085 H   0  0  0  0  0  0  0  0  0  0  0  0
   -1.3467    0.2784   -0.3159 H   0  0  0  0  0  0  0  0  0  0  0  0
   -1.3467   -1.4720    1.2163 C   0  0  0  0  0  0  0  0  0  0  0  0
   -1.3467    0.0312    0.9723 C   0  0  0  0  0  3  0  0  0  0  0  0
   -0.1602    0.7360    1.5974 C   0  0  0  0  0  0  0  0  0  0  0  0
    1.0249    0.2675    1.0050 O   0  0  0  0  0  0  0  0  0  0  0  0
    2.1846    0.8431    1.5503 C   0  0  0  0  0  0  0  0  0  0  0  0
    3.3937    0.2722    0.8464 C   0  0  0  0  0  0  0  0  0  0  0  0
   -1.3708   -1.6931    2.2863 H   0  0  0  0  0  0  0  0  0  0  0  0
   -2.2165   -1.9443    0.7573 H   0  0  0  0  0  0  0  0  0  0  0  0
   -0.4500   -1.9307    0.7996 H   0  0  0  0  0  0  0  0  0  0  0  0
   -2.2570    0.4787    1.3808 H   0  0  0  0  0  0  0  0  0  0  0  0
   -0.1370    0.5470    2.6824 H   0  0  0  0  0  0  0  0  0  0  0  0
   -0.2453    1.8236    1.4568 H   0  0  0  0  0  0  0  0  0  0  0  0
    2.2342    0.6354    2.6294 H   0  0  0  0  0  0  0  0  0  0  0  0
    2.1518    1.9365    1.4324 H   0  0  0  0  0  0  0  0  0  0  0  0
    3.3522    0.4896   -0.2215 H   0  0  0  0  0  0  0  0  0  0  0  0
    4.3082    0.7061    1.2537 H   0  0  0  0  0  0  0  0  0  0  0  0
    3.4357   -0.8099    0.9758 H   0  0  0  0  0  0  0  0  0  0  0  0
  1  2  1  0
  1  4  1  0
  1  5  1  0
  1  6  1  0
  2  3  2  3
  2  7  1  0
  3  8  1  0
  9 10  1  0
  9 15  1  0
  9 16  1  0
  9 17  1  0
 10 11  1  0
 10 18  1  0
 11 12  1  0
 11 19  1  0
 11 20  1  0
 12 13  1  0
 13 14  1  0
 13 21  1  0
 13 22  1  0
 14 23  1  0
 14 24  1  0
 14 25  1  0
M  RAD  1  10   2
M  END
>  <reaction>  (18) 
rmg_rxn_16462

>  <mol_properties>  (18) 
{"1": {"label": "*0", "atom_type": "Cd"}, "2": {"label": "*1", "atom_type": "N3d"}, "7": {"label": "*2", "atom_type": "H0"}, "9": {"label": "*3", "atom_type": "Cs"}, "10": {"label": "*4", "atom_type": "Cs"}}

>  <type>  (18) 
unop_14

>  <geom_source>  (18) 
Heuristics

$$$$

     RDKit          3D

 25 23  0  0  0  0  0  0  0  0999 V2000
   -1.1865   -1.1585   -3.3813 C   0  0  0  0  0  0  0  0  0  0  0  0
   -1.1865   -1.1585   -1.8890 C   0  0  0  0  0  0  0  0  0  0  0  0
   -1.1865   -0.0859   -1.2213 N   0  0  0  0  0  0  0  0  0  0  0  0
   -0.3083   -1.6885   -3.7588 H   0  0  0  0  0  0  0  0  0  0  0  0
   -2.0648   -1.6885   -3.7588 H   0  0  0  0  0  0  0  0  0  0  0  0
   -1.1865   -0.1379   -3.7599 H   0  0  0  0  0  0  0  0  0  0  0  0
   -1.1865   -2.1482   -1.4144 H   0  0  0  0  0  0  0  0  0  0  0  0
   -1.1865   -0.3161   -0.0217 H   0  0  0  0  0  0  0  0  0  0  0  0
   -0.4713   -1.8783    1.5465 C   0  0  0  0  0  0  0  0  0  0  0  0
   -1.1865   -0.5632    1.2665 C   0  0  0  0  0  3  0  0  0  0  0  0
   -0.3489    0.6536    1.6027 C   0  0  0  0  0  0  0  0  0  0  0  0
    0.7926    0.6741    0.7831 O   0  0  0  0  0  0  0  0  0  0  0  0
    1.6500    1.7543    1.0507 C   0  0  0  0  0  0  0  0  0  0  0  0
    2.8382    1.6801    0.1200 C   0  0  0  0  0  0  0  0  0  0  0  0
   -0.2014   -1.9578    2.6025 H   0  0  0  0  0  0  0  0  0  0  0  0
   -1.1053   -2.7307    1.2981 H   0  0  0  0  0  0  0  0  0  0  0  0
    0.4445   -1.9522    0.9602 H   0  0  0  0  0  0  0  0  0  0  0  0
   -2.1108   -0.5062    1.8481 H   0  0  0  0  0  0  0  0  0  0  0  0
   -0.0490    0.6249    2.6622 H   0  0  0  0  0  0  0  0  0  0  0  0
   -0.9344    1.5726    1.4533 H   0  0  0  0  0  0  0  0  0  0  0  0
    1.9803    1.7196    2.0994 H   0  0  0  0  0  0  0  0  0  0  0  0
    1.1118    2.7037    0.9122 H   0  0  0  0  0  0  0  0  0  0  0  0
    2.5127    1.7283   -0.9198 H   0  0  0  0  0  0  0  0  0  0  0  0
    3.5192    2.5113    0.3094 H   0  0  0  0  0  0  0  0  0  0  0  0
    3.3814    0.7461    0.2675 H   0  0  0  0  0  0  0  0  0  0  0  0
  1  2  1  0
  1  4  1  0
  1  5  1  0
  1  6  1  0
  2  3  2  3
  2  7  1  0
  3  8  1  0
  9 10  1  0
  9 15  1  0
  9 16  1  0
  9 17  1  0
 10 11  1  0
 10 18  1  0
 11 12  1  0
 11 19  1  0
 11 20  1  0
 12 13  1  0
 13 14  1  0
 13 21  1  0
 13 22  1  0
 14 23  1  0
 14 24  1  0
 14 25  1  0
M  RAD  1  10   2
M  END
>  <reaction>  (19) 
rmg_rxn_16462

>  <mol_properties>  (19) 
{"1": {"label": "*0", "atom_type": "Cd"}, "2": {"label": "*1", "atom_type": "N3d"}, "7": {"label": "*2", "atom_type": "H0"}, "9": {"label": "*3", "atom_type": "Cs"}, "10": {"label": "*4", "atom_type": "Cs"}}

>  <type>  (19) 
unop_15

>  <geom_source>  (19) 
gaussian_log

$$$$
