
     RDKit          3D

  9  8  0  0  0  0  0  0  0  0999 V2000
   -1.2461    0.5037    0.0950 C   0  0  0  0  0  0  0  0  0  0  0  0
   -0.0155   -0.3334    0.0640 C   0  0  0  0  0  0  0  0  0  0  0  0
    1.0697    0.1457   -0.3733 N   0  0  0  0  0  0  0  0  0  0  0  0
    2.1001   -0.7834   -0.3224 O   0  0  0  0  0  0  0  0  0  0  0  0
   -2.0357    0.0440   -0.5039 H   0  0  0  0  0  0  0  0  0  0  0  0
   -1.6237    0.5897    1.1166 H   0  0  0  0  0  0  0  0  0  0  0  0
   -1.0397    1.4998   -0.2929 H   0  0  0  0  0  0  0  0  0  0  0  0
   -0.0537   -1.3634    0.4205 H   0  0  0  0  0  0  0  0  0  0  0  0
    2.8478   -0.2985   -0.6758 H   0  0  0  0  0  0  0  0  0  0  0  0
  1  2  1  0
  1  5  1  0
  1  6  1  0
  1  7  1  0
  2  3  2  3
  2  8  1  0
  3  4  1  0
  4  9  1  0
M  END
>  <reaction>  (1) 
rmg_rxn_394

>  <mol_properties>  (1) 
{"3": {"label": "donator", "atom_type": "O2s"}, "8": {"label": "d_hydrogen", "atom_type": "H0"}}

>  <type>  (1) 
r1h

$$$$

     RDKit          3D

  8  7  0  0  0  0  0  0  0  0999 V2000
   -0.7858    0.1030   -0.0954 C   0  0  0  0  0  0  0  0  0  0  0  0
    0.7192   -0.1034   -0.1137 C   0  0  0  0  0  0  0  0  0  0  0  0
    1.3602    0.3217   -1.2323 O   0  0  0  0  0  1  0  0  0  0  0  0
   -1.2146   -0.2670    0.8381 H   0  0  0  0  0  0  0  0  0  0  0  0
   -1.0252    1.1628   -0.1896 H   0  0  0  0  0  0  0  0  0  0  0  0
   -1.2525   -0.4291   -0.9250 H   0  0  0  0  0  0  0  0  0  0  0  0
    1.2081    0.3891    0.7475 H   0  0  0  0  0  0  0  0  0  0  0  0
    0.9858   -1.1674    0.0284 H   0  0  0  0  0  0  0  0  0  0  0  0
  1  2  1  0
  1  4  1  0
  1  5  1  0
  1  6  1  0
  2  3  1  0
  2  7  1  0
  2  8  1  0
M  RAD  1   3   2
M  END
>  <reaction>  (2) 
rmg_rxn_394

>  <mol_properties>  (2) 
{"2": {"label": "acceptor", "atom_type": "O2s"}}

>  <type>  (2) 
r2

$$$$

     RDKit          3D

  9  8  0  0  0  0  0  0  0  0999 V2000
   -0.9895    0.3048    0.1041 C   0  0  0  0  0  0  0  0  0  0  0  0
    0.3761   -0.3562    0.0721 C   0  0  0  0  0  0  0  0  0  0  0  0
    0.3441   -1.6564   -0.4834 O   0  0  0  0  0  0  0  0  0  0  0  0
   -1.6997   -0.3114    0.6572 H   0  0  0  0  0  0  0  0  0  0  0  0
   -0.9320    1.2848    0.5822 H   0  0  0  0  0  0  0  0  0  0  0  0
   -1.3774    0.4507   -0.9077 H   0  0  0  0  0  0  0  0  0  0  0  0
    0.7581   -0.4813    1.0862 H   0  0  0  0  0  0  0  0  0  0  0  0
    1.0900    0.2787   -0.4681 H   0  0  0  0  0  0  0  0  0  0  0  0
    0.0089   -1.5959   -1.3792 H   0  0  0  0  0  0  0  0  0  0  0  0
  1  2  1  0
  1  4  1  0
  1  5  1  0
  1  6  1  0
  2  3  1  0
  2  7  1  0
  2  8  1  0
  3  9  1  0
M  END
>  <reaction>  (3) 
rmg_rxn_394

>  <mol_properties>  (3) 
{"2": {"label": "acceptor", "atom_type": "O2s"}, "8": {"label": "a_hydrogen", "atom_type": "H0"}}

>  <type>  (3) 
r2h

$$$$

     RDKit          3D

 17 15  0  0  0  0  0  0  0  0999 V2000
   -1.9230    1.7932    0.5358 C   0  0  0  0  0  0  0  0  0  0  0  0
   -0.4035    1.7693    0.6004 C   0  0  0  0  0  0  0  0  0  0  0  0
    0.1112    1.1823    1.7063 O   0  0  0  0  0  1  0  0  0  0  0  0
   -2.3272    2.3796    1.3622 H   0  0  0  0  0  0  0  0  0  0  0  0
   -2.2605    2.2363   -0.4030 H   0  0  0  0  0  0  0  0  0  0  0  0
   -2.3195    0.7793    0.6074 H   0  0  0  0  0  0  0  0  0  0  0  0
   -0.0319    1.1439   -0.2681 H   0  0  0  0  0  0  0  0  0  0  0  0
    0.0448    2.7608    0.4396 H   0  0  0  0  0  0  0  0  0  0  0  0
    0.5798   -1.5899   -2.5842 C   0  0  0  0  0  0  0  0  0  0  0  0
    0.6813   -1.7814   -1.1121 C   0  0  0  0  0  0  0  0  0  0  0  0
    0.4892   -0.8117   -0.3192 N   0  0  0  0  0  0  0  0  0  0  0  0
    0.5884   -1.0000    0.9744 O   0  0  0  0  0  0  0  0  0  0  0  0
    1.5241   -1.8466   -3.0695 H   0  0  0  0  0  0  0  0  0  0  0  0
   -0.1878   -2.2443   -3.0036 H   0  0  0  0  0  0  0  0  0  0  0  0
    0.3311   -0.5565   -2.8210 H   0  0  0  0  0  0  0  0  0  0  0  0
    0.9228   -2.7629   -0.7064 H   0  0  0  0  0  0  0  0  0  0  0  0
    0.3361   -0.0285    1.4564 H   0  0  0  0  0  0  0  0  0  0  0  0
  1  2  1  0
  1  4  1  0
  1  5  1  0
  1  6  1  0
  2  3  1  0
  2  7  1  0
  2  8  1  0
  9 10  1  0
  9 13  1  0
  9 14  1  0
  9 15  1  0
 10 11  2  3
 10 16  1  0
 11 12  1  0
 12 17  1  0
M  RAD  1   3   2
M  END
>  <reaction>  (4) 
rmg_rxn_394

>  <mol_properties>  (4) 
{"1": {"label": "*4", "atom_type": "Cs"}, "2": {"label": "*3", "atom_type": "O2s"}, "10": {"label": "*0", "atom_type": "N3d"}, "11": {"label": "*1", "atom_type": "O2s"}, "16": {"label": "*2", "atom_type": "H0"}}

>  <type>  (4) 
ts

$$$$

     RDKit          3D

 17 15  0  0  0  0  0  0  0  0999 V2000
   -1.3886    0.4187    2.3078 C   0  0  0  0  0  0  0  0  0  0  0  0
   -0.7343    1.7350    1.9307 C   0  0  0  0  0  0  0  0  0  0  0  0
    0.4273    1.5649    1.1421 O   0  0  0  0  0  0  0  0  0  0  0  0
   -0.6807   -0.2232    2.8339 H   0  0  0  0  0  0  0  0  0  0  0  0
   -2.2519    0.5890    2.9544 H   0  0  0  0  0  0  0  0  0  0  0  0
   -1.7386   -0.1130    1.4189 H   0  0  0  0  0  0  0  0  0  0  0  0
   -1.4579    2.3833    1.4202 H   0  0  0  0  0  0  0  0  0  0  0  0
   -0.4042    2.2621    2.8269 H   0  0  0  0  0  0  0  0  0  0  0  0
    0.4273   -1.4616   -3.2032 C   0  0  0  0  0  0  0  0  0  0  0  0
    0.4273   -1.4616   -1.7145 C   0  0  0  0  0  0  0  0  0  0  0  0
    0.4273   -0.3695   -1.0777 N   0  0  0  0  0  0  0  0  0  0  0  0
    0.4273   -0.5742    0.2955 O   0  0  0  0  0  1  0  0  0  0  0  0
    1.3067   -1.9854   -3.5850 H   0  0  0  0  0  0  0  0  0  0  0  0
   -0.4521   -1.9854   -3.5850 H   0  0  0  0  0  0  0  0  0  0  0  0
    0.4273   -0.4419   -3.5846 H   0  0  0  0  0  0  0  0  0  0  0  0
    0.4273   -2.4091   -1.1744 H   0  0  0  0  0  0  0  0  0  0  0  0
    0.4273    0.4955    0.7189 H   0  0  0  0  0  0  0  0  0  0  0  0
  1  2  1  0
  1  4  1  0
  1  5  1  0
  1  6  1  0
  2  3  1  0
  2  7  1  0
  2  8  1  0
  3 17  1  0
  9 10  1  0
  9 13  1  0
  9 14  1  0
  9 15  1  0
 10 11  2  3
 10 16  1  0
 11 12  1  0
M  RAD  1  12   2
M  END
>  <reaction>  (5) 
rmg_rxn_394

>  <mol_properties>  (5) 
{"1": {"label": "*4", "atom_type": "Cs"}, "2": {"label": "*3", "atom_type": "O2s"}, "10": {"label": "*0", "atom_type": "N3d"}, "11": {"label": "*1", "atom_type": "O2s"}, "16": {"label": "*2", "atom_type": "H0"}}

>  <type>  (5) 
unop_1

>  <geom_source>  (5) 
Heuristics

$$$$

     RDKit          3D

 17 15  0  0  0  0  0  0  0  0999 V2000
   -1.5197    1.4640    0.2354 C   0  0  0  0  0  0  0  0  0  0  0  0
   -0.3026    2.1206    0.8602 C   0  0  0  0  0  0  0  0  0  0  0  0
    0.3680    1.2762    1.7753 O   0  0  0  0  0  0  0  0  0  0  0  0
   -2.2164    1.1363    1.0082 H   0  0  0  0  0  0  0  0  0  0  0  0
   -2.0365    2.1617   -0.4268 H   0  0  0  0  0  0  0  0  0  0  0  0
   -1.2321    0.5924   -0.3590 H   0  0  0  0  0  0  0  0  0  0  0  0
    0.3839    2.4658    0.0765 H   0  0  0  0  0  0  0  0  0  0  0  0
   -0.6016    2.9970    1.4368 H   0  0  0  0  0  0  0  0  0  0  0  0
    0.3680   -1.7502   -2.5700 C   0  0  0  0  0  0  0  0  0  0  0  0
    0.3680   -1.7502   -1.0813 C   0  0  0  0  0  0  0  0  0  0  0  0
    0.3680   -0.6582   -0.4445 N   0  0  0  0  0  0  0  0  0  0  0  0
    0.3680   -0.8628    0.9287 O   0  0  0  0  0  1  0  0  0  0  0  0
    1.2475   -2.2741   -2.9518 H   0  0  0  0  0  0  0  0  0  0  0  0
   -0.5114   -2.2741   -2.9518 H   0  0  0  0  0  0  0  0  0  0  0  0
    0.3680   -0.7305   -2.9514 H   0  0  0  0  0  0  0  0  0  0  0  0
    0.3680   -2.6977   -0.5412 H   0  0  0  0  0  0  0  0  0  0  0  0
    0.3680    0.2068    1.3521 H   0  0  0  0  0  0  0  0  0  0  0  0
  1  2  1  0
  1  4  1  0
  1  5  1  0
  1  6  1  0
  2  3  1  0
  2  7  1  0
  2  8  1  0
  3 17  1  0
  9 10  1  0
  9 13  1  0
  9 14  1  0
  9 15  1  0
 10 11  2  3
 10 16  1  0
 11 12  1  0
M  RAD  1  12   2
M  END
>  <reaction>  (6) 
rmg_rxn_394

>  <mol_properties>  (6) 
{"1": {"label": "*4", "atom_type": "Cs"}, "2": {"label": "*3", "atom_type": "O2s"}, "10": {"label": "*0", "atom_type": "N3d"}, "11": {"label": "*1", "atom_type": "O2s"}, "16": {"label": "*2", "atom_type": "H0"}}

>  <type>  (6) 
unop_2

>  <geom_source>  (6) 
Heuristics

$$$$

     RDKit          3D

 17 15  0  0  0  0  0  0  0  0999 V2000
   -0.4013    0.2695    2.9156 C   0  0  0  0  0  0  0  0  0  0  0  0
   -0.4916    1.6094    2.2089 C   0  0  0  0  0  0  0  0  0  0  0  0
    0.1790    1.6200    0.9638 O   0  0  0  0  0  0  0  0  0  0  0  0
    0.6412   -0.0172    3.0598 H   0  0  0  0  0  0  0  0  0  0  0  0
   -0.8885    0.3153    3.8918 H   0  0  0  0  0  0  0  0  0  0  0  0
   -0.8951   -0.5137    2.3339 H   0  0  0  0  0  0  0  0  0  0  0  0
   -1.5426    1.9008    2.0856 H   0  0  0  0  0  0  0  0  0  0  0  0
   -0.0096    2.3841    2.8068 H   0  0  0  0  0  0  0  0  0  0  0  0
    0.1790   -1.4065   -3.3814 C   0  0  0  0  0  0  0  0  0  0  0  0
    0.1790   -1.4065   -1.8928 C   0  0  0  0  0  0  0  0  0  0  0  0
    0.1790   -0.3144   -1.2560 N   0  0  0  0  0  0  0  0  0  0  0  0
    0.1790   -0.5191    0.1172 O   0  0  0  0  0  1  0  0  0  0  0  0
    1.0584   -1.9303   -3.7632 H   0  0  0  0  0  0  0  0  0  0  0  0
   -0.7004   -1.9303   -3.7632 H   0  0  0  0  0  0  0  0  0  0  0  0
    0.1790   -0.3868   -3.7629 H   0  0  0  0  0  0  0  0  0  0  0  0
    0.1790   -2.3540   -1.3526 H   0  0  0  0  0  0  0  0  0  0  0  0
    0.1790    0.5506    0.5406 H   0  0  0  0  0  0  0  0  0  0  0  0
  1  2  1  0
  1  4  1  0
  1  5  1  0
  1  6  1  0
  2  3  1  0
  2  7  1  0
  2  8  1  0
  3 17  1  0
  9 10  1  0
  9 13  1  0
  9 14  1  0
  9 15  1  0
 10 11  2  3
 10 16  1  0
 11 12  1  0
M  RAD  1  12   2
M  END
>  <reaction>  (7) 
rmg_rxn_394

>  <mol_properties>  (7) 
{"1": {"label": "*4", "atom_type": "Cs"}, "2": {"label": "*3", "atom_type": "O2s"}, "10": {"label": "*0", "atom_type": "N3d"}, "11": {"label": "*1", "atom_type": "O2s"}, "16": {"label": "*2", "atom_type": "H0"}}

>  <type>  (7) 
unop_3

>  <geom_source>  (7) 
Heuristics

$$$$

     RDKit          3D

 17 15  0  0  0  0  0  0  0  0999 V2000
    0.6226    2.5842    0.0131 C   0  0  0  0  0  0  0  0  0  0  0  0
    0.8631    1.7812    1.2781 C   0  0  0  0  0  0  0  0  0  0  0  0
   -0.2985    1.1175    1.7367 O   0  0  0  0  0  0  0  0  0  0  0  0
   -0.1763    3.3107    0.1675 H   0  0  0  0  0  0  0  0  0  0  0  0
    1.5278    3.1188   -0.2819 H   0  0  0  0  0  0  0  0  0  0  0  0
    0.3368    1.9314   -0.8162 H   0  0  0  0  0  0  0  0  0  0  0  0
    1.6815    1.0668    1.1215 H   0  0  0  0  0  0  0  0  0  0  0  0
    1.1626    2.4421    2.0927 H   0  0  0  0  0  0  0  0  0  0  0  0
   -0.2985   -1.9089   -2.6086 C   0  0  0  0  0  0  0  0  0  0  0  0
   -0.2985   -1.9089   -1.1199 C   0  0  0  0  0  0  0  0  0  0  0  0
   -0.2985   -0.8168   -0.4831 N   0  0  0  0  0  0  0  0  0  0  0  0
   -0.2985   -1.0215    0.8901 O   0  0  0  0  0  1  0  0  0  0  0  0
    0.5809   -2.4327   -2.9904 H   0  0  0  0  0  0  0  0  0  0  0  0
   -1.1779   -2.4327   -2.9904 H   0  0  0  0  0  0  0  0  0  0  0  0
   -0.2985   -0.8892   -2.9900 H   0  0  0  0  0  0  0  0  0  0  0  0
   -0.2985   -2.8564   -0.5798 H   0  0  0  0  0  0  0  0  0  0  0  0
   -0.2985    0.0481    1.3134 H   0  0  0  0  0  0  0  0  0  0  0  0
  1  2  1  0
  1  4  1  0
  1  5  1  0
  1  6  1  0
  2  3  1  0
  2  7  1  0
  2  8  1  0
  3 17  1  0
  9 10  1  0
  9 13  1  0
  9 14  1  0
  9 15  1  0
 10 11  2  3
 10 16  1  0
 11 12  1  0
M  RAD  1  12   2
M  END
>  <reaction>  (8) 
rmg_rxn_394

>  <mol_properties>  (8) 
{"1": {"label": "*4", "atom_type": "Cs"}, "2": {"label": "*3", "atom_type": "O2s"}, "10": {"label": "*0", "atom_type": "N3d"}, "11": {"label": "*1", "atom_type": "O2s"}, "16": {"label": "*2", "atom_type": "H0"}}

>  <type>  (8) 
unop_4

>  <geom_source>  (8) 
Heuristics

$$$$

     RDKit          3D

 17 15  0  0  0  0  0  0  0  0999 V2000
    1.0294    0.7321    2.9007 C   0  0  0  0  0  0  0  0  0  0  0  0
   -0.1736    1.4761    2.3508 C   0  0  0  0  0  0  0  0  0  0  0  0
   -0.1736    1.5528    0.9387 O   0  0  0  0  0  0  0  0  0  0  0  0
    1.9552    1.1976    2.5602 H   0  0  0  0  0  0  0  0  0  0  0  0
    1.0184    0.7357    3.9926 H   0  0  0  0  0  0  0  0  0  0  0  0
    1.0285   -0.3105    2.5715 H   0  0  0  0  0  0  0  0  0  0  0  0
   -1.1009    1.0147    2.7140 H   0  0  0  0  0  0  0  0  0  0  0  0
   -0.1690    2.5098    2.6994 H   0  0  0  0  0  0  0  0  0  0  0  0
   -0.1736   -1.4736   -3.4066 C   0  0  0  0  0  0  0  0  0  0  0  0
   -0.1736   -1.4736   -1.9179 C   0  0  0  0  0  0  0  0  0  0  0  0
   -0.1736   -0.3816   -1.2811 N   0  0  0  0  0  0  0  0  0  0  0  0
   -0.1736   -0.5862    0.0921 O   0  0  0  0  0  1  0  0  0  0  0  0
    0.7058   -1.9975   -3.7884 H   0  0  0  0  0  0  0  0  0  0  0  0
   -1.0530   -1.9975   -3.7884 H   0  0  0  0  0  0  0  0  0  0  0  0
   -0.1736   -0.4539   -3.7880 H   0  0  0  0  0  0  0  0  0  0  0  0
   -0.1736   -2.4211   -1.3778 H   0  0  0  0  0  0  0  0  0  0  0  0
   -0.1736    0.4834    0.5154 H   0  0  0  0  0  0  0  0  0  0  0  0
  1  2  1  0
  1  4  1  0
  1  5  1  0
  1  6  1  0
  2  3  1  0
  2  7  1  0
  2  8  1  0
  3 17  1  0
  9 10  1  0
  9 13  1  0
  9 14  1  0
  9 15  1  0
 10 11  2  3
 10 16  1  0
 11 12  1  0
M  RAD  1  12   2
M  END
>  <reaction>  (9) 
rmg_rxn_394

>  <mol_properties>  (9) 
{"1": {"label": "*4", "atom_type": "Cs"}, "2": {"label": "*3", "atom_type": "O2s"}, "10": {"label": "*0", "atom_type": "N3d"}, "11": {"label": "*1", "atom_type": "O2s"}, "16": {"label": "*2", "atom_type": "H0"}}

>  <type>  (9) 
unop_5

>  <geom_source>  (9) 
Heuristics

$$$$

     RDKit          3D

 17 15  0  0  0  0  0  0  0  0999 V2000
    1.3571    2.5176    0.5960 C   0  0  0  0  0  0  0  0  0  0  0  0
    0.8892    1.5868    1.6995 C   0  0  0  0  0  0  0  0  0  0  0  0
   -0.4521    1.1699    1.5345 O   0  0  0  0  0  0  0  0  0  0  0  0
    0.7081    3.3919    0.5325 H   0  0  0  0  0  0  0  0  0  0  0  0
    2.3787    2.8546    0.7837 H   0  0  0  0  0  0  0  0  0  0  0  0
    1.3467    2.0116   -0.3732 H   0  0  0  0  0  0  0  0  0  0  0  0
    1.5586    0.7199    1.7710 H   0  0  0  0  0  0  0  0  0  0  0  0
    0.9195    2.0986    2.6623 H   0  0  0  0  0  0  0  0  0  0  0  0
   -0.4521   -1.8565   -2.8108 C   0  0  0  0  0  0  0  0  0  0  0  0
   -0.4521   -1.8565   -1.3221 C   0  0  0  0  0  0  0  0  0  0  0  0
   -0.4521   -0.7644   -0.6853 N   0  0  0  0  0  0  0  0  0  0  0  0
   -0.4521   -0.9691    0.6879 O   0  0  0  0  0  1  0  0  0  0  0  0
    0.4273   -2.3803   -3.1926 H   0  0  0  0  0  0  0  0  0  0  0  0
   -1.3315   -2.3803   -3.1926 H   0  0  0  0  0  0  0  0  0  0  0  0
   -0.4521   -0.8368   -3.1922 H   0  0  0  0  0  0  0  0  0  0  0  0
   -0.4521   -2.8040   -0.7820 H   0  0  0  0  0  0  0  0  0  0  0  0
   -0.4521    0.1005    1.1112 H   0  0  0  0  0  0  0  0  0  0  0  0
  1  2  1  0
  1  4  1  0
  1  5  1  0
  1  6  1  0
  2  3  1  0
  2  7  1  0
  2  8  1  0
  3 17  1  0
  9 10  1  0
  9 13  1  0
  9 14  1  0
  9 15  1  0
 10 11  2  3
 10 16  1  0
 11 12  1  0
M  RAD  1  12   2
M  END
>  <reaction>  (10) 
rmg_rxn_394

>  <mol_properties>  (10) 
{"1": {"label": "*4", "atom_type": "Cs"}, "2": {"label": "*3", "atom_type": "O2s"}, "10": {"label": "*0", "atom_type": "N3d"}, "11": {"label": "*1", "atom_type": "O2s"}, "16": {"label": "*2", "atom_type": "H0"}}

>  <type>  (10) 
unop_6

>  <geom_source>  (10) 
Heuristics

$$$$

     RDKit          3D

 17 15  0  0  0  0  0  0  0  0999 V2000
    1.7581    2.2168    1.3758 C   0  0  0  0  0  0  0  0  0  0  0  0
    0.6720    1.4318    2.0878 C   0  0  0  0  0  0  0  0  0  0  0  0
   -0.4896    1.2617    1.2993 O   0  0  0  0  0  0  0  0  0  0  0  0
    1.3826    3.1922    1.0635 H   0  0  0  0  0  0  0  0  0  0  0  0
    2.6175    2.3679    2.0322 H   0  0  0  0  0  0  0  0  0  0  0  0
    2.1078    1.6835    0.4876 H   0  0  0  0  0  0  0  0  0  0  0  0
    1.0628    0.4604    2.4170 H   0  0  0  0  0  0  0  0  0  0  0  0
    0.3436    1.9669    2.9799 H   0  0  0  0  0  0  0  0  0  0  0  0
   -0.4896   -1.7648   -3.0460 C   0  0  0  0  0  0  0  0  0  0  0  0
   -0.4896   -1.7648   -1.5573 C   0  0  0  0  0  0  0  0  0  0  0  0
   -0.4896   -0.6727   -0.9205 N   0  0  0  0  0  0  0  0  0  0  0  0
   -0.4896   -0.8774    0.4527 O   0  0  0  0  0  1  0  0  0  0  0  0
    0.3898   -2.2886   -3.4278 H   0  0  0  0  0  0  0  0  0  0  0  0
   -1.3690   -2.2886   -3.4278 H   0  0  0  0  0  0  0  0  0  0  0  0
   -0.4896   -0.7451   -3.4274 H   0  0  0  0  0  0  0  0  0  0  0  0
   -0.4896   -2.7123   -1.0172 H   0  0  0  0  0  0  0  0  0  0  0  0
   -0.4896    0.1923    0.8760 H   0  0  0  0  0  0  0  0  0  0  0  0
  1  2  1  0
  1  4  1  0
  1  5  1  0
  1  6  1  0
  2  3  1  0
  2  7  1  0
  2  8  1  0
  3 17  1  0
  9 10  1  0
  9 13  1  0
  9 14  1  0
  9 15  1  0
 10 11  2  3
 10 16  1  0
 11 12  1  0
M  RAD  1  12   2
M  END
>  <reaction>  (11) 
rmg_rxn_394

>  <mol_properties>  (11) 
{"1": {"label": "*4", "atom_type": "Cs"}, "2": {"label": "*3", "atom_type": "O2s"}, "10": {"label": "*0", "atom_type": "N3d"}, "11": {"label": "*1", "atom_type": "O2s"}, "16": {"label": "*2", "atom_type": "H0"}}

>  <type>  (11) 
unop_7

>  <geom_source>  (11) 
Heuristics

$$$$

     RDKit          3D

 17 15  0  0  0  0  0  0  0  0999 V2000
   -1.7982    0.7322    1.5215 C   0  0  0  0  0  0  0  0  0  0  0  0
   -0.8148    1.8878    1.5434 C   0  0  0  0  0  0  0  0  0  0  0  0
    0.5265    1.4710    1.3784 O   0  0  0  0  0  0  0  0  0  0  0  0
   -1.5458    0.0008    2.2904 H   0  0  0  0  0  0  0  0  0  0  0  0
   -2.8150    1.0882    1.6993 H   0  0  0  0  0  0  0  0  0  0  0  0
   -1.7874    0.2278    0.5515 H   0  0  0  0  0  0  0  0  0  0  0  0
   -1.0869    2.6292    0.7813 H   0  0  0  0  0  0  0  0  0  0  0  0
   -0.8471    2.3918    2.5104 H   0  0  0  0  0  0  0  0  0  0  0  0
    0.5265   -1.5555   -2.9668 C   0  0  0  0  0  0  0  0  0  0  0  0
    0.5265   -1.5555   -1.4782 C   0  0  0  0  0  0  0  0  0  0  0  0
    0.5265   -0.4634   -0.8414 N   0  0  0  0  0  0  0  0  0  0  0  0
    0.5265   -0.6681    0.5318 O   0  0  0  0  0  1  0  0  0  0  0  0
    1.4059   -2.0793   -3.3486 H   0  0  0  0  0  0  0  0  0  0  0  0
   -0.3530   -2.0793   -3.3486 H   0  0  0  0  0  0  0  0  0  0  0  0
    0.5265   -0.5358   -3.3482 H   0  0  0  0  0  0  0  0  0  0  0  0
    0.5265   -2.5030   -0.9380 H   0  0  0  0  0  0  0  0  0  0  0  0
    0.5265    0.4016    0.9552 H   0  0  0  0  0  0  0  0  0  0  0  0
  1  2  1  0
  1  4  1  0
  1  5  1  0
  1  6  1  0
  2  3  1  0
  2  7  1  0
  2  8  1  0
  3 17  1  0
  9 10  1  0
  9 13  1  0
  9 14  1  0
  9 15  1  0
 10 11  2  3
 10 16  1  0
 11 12  1  0
M  RAD  1  12   2
M  END
>  <reaction>  (12) 
rmg_rxn_394

>  <mol_properties>  (12) 
{"1": {"label": "*4", "atom_type": "Cs"}, "2": {"label": "*3", "atom_type": "O2s"}, "10": {"label": "*0", "atom_type": "N3d"}, "11": {"label": "*1", "atom_type": "O2s"}, "16": {"label": "*2", "atom_type": "H0"}}

>  <type>  (12) 
unop_8

>  <geom_source>  (12) 
Heuristics

$$$$

     RDKit          3D

 17 15  0  0  0  0  0  0  0  0999 V2000
   -0.2667    2.3725   -0.2355 C   0  0  0  0  0  0  0  0  0  0  0  0
    0.6038    1.9674    0.9396 C   0  0  0  0  0  0  0  0  0  0  0  0
   -0.0668    1.1230    1.8547 O   0  0  0  0  0  0  0  0  0  0  0  0
   -1.1768    2.8620    0.1137 H   0  0  0  0  0  0  0  0  0  0  0  0
    0.2691    3.0605   -0.8927 H   0  0  0  0  0  0  0  0  0  0  0  0
   -0.5527    1.5002   -0.8295 H   0  0  0  0  0  0  0  0  0  0  0  0
    1.5266    1.4942    0.5801 H   0  0  0  0  0  0  0  0  0  0  0  0
    0.8949    2.8478    1.5141 H   0  0  0  0  0  0  0  0  0  0  0  0
   -0.0668   -1.9034   -2.4906 C   0  0  0  0  0  0  0  0  0  0  0  0
   -0.0668   -1.9034   -1.0019 C   0  0  0  0  0  0  0  0  0  0  0  0
   -0.0668   -0.8113   -0.3651 N   0  0  0  0  0  0  0  0  0  0  0  0
   -0.0668   -1.0160    1.0081 O   0  0  0  0  0  1  0  0  0  0  0  0
    0.8126   -2.4272   -2.8724 H   0  0  0  0  0  0  0  0  0  0  0  0
   -0.9462   -2.4272   -2.8724 H   0  0  0  0  0  0  0  0  0  0  0  0
   -0.0668   -0.8837   -2.8720 H   0  0  0  0  0  0  0  0  0  0  0  0
   -0.0668   -2.8509   -0.4618 H   0  0  0  0  0  0  0  0  0  0  0  0
   -0.0668    0.0536    1.4315 H   0  0  0  0  0  0  0  0  0  0  0  0
  1  2  1  0
  1  4  1  0
  1  5  1  0
  1  6  1  0
  2  3  1  0
  2  7  1  0
  2  8  1  0
  3 17  1  0
  9 10  1  0
  9 13  1  0
  9 14  1  0
  9 15  1  0
 10 11  2  3
 10 16  1  0
 11 12  1  0
M  RAD  1  12   2
M  END
>  <reaction>  (13) 
rmg_rxn_394

>  <mol_properties>  (13) 
{"1": {"label": "*4", "atom_type": "Cs"}, "2": {"label": "*3", "atom_type": "O2s"}, "10": {"label": "*0", "atom_type": "N3d"}, "11": {"label": "*1", "atom_type": "O2s"}, "16": {"label": "*2", "atom_type": "H0"}}

>  <type>  (13) 
unop_9

>  <geom_source>  (13) 
Heuristics

$$$$

     RDKit          3D

 17 15  0  0  0  0  0  0  0  0999 V2000
   -1.7905    1.0790    0.7933 C   0  0  0  0  0  0  0  0  0  0  0  0
   -0.6662    2.0350    1.1465 C   0  0  0  0  0  0  0  0  0  0  0  0
    0.4954    1.3713    1.6051 O   0  0  0  0  0  0  0  0  0  0  0  0
   -2.0422    0.4518    1.6495 H   0  0  0  0  0  0  0  0  0  0  0  0
   -2.6834    1.6297    0.4901 H   0  0  0  0  0  0  0  0  0  0  0  0
   -1.5038    0.4275   -0.0367 H   0  0  0  0  0  0  0  0  0  0  0  0
   -0.4324    2.6764    0.2872 H   0  0  0  0  0  0  0  0  0  0  0  0
   -0.9708    2.6892    1.9645 H   0  0  0  0  0  0  0  0  0  0  0  0
    0.4954   -1.6551   -2.7402 C   0  0  0  0  0  0  0  0  0  0  0  0
    0.4954   -1.6551   -1.2515 C   0  0  0  0  0  0  0  0  0  0  0  0
    0.4954   -0.5631   -0.6147 N   0  0  0  0  0  0  0  0  0  0  0  0
    0.4954   -0.7677    0.7585 O   0  0  0  0  0  1  0  0  0  0  0  0
    1.3748   -2.1790   -3.1220 H   0  0  0  0  0  0  0  0  0  0  0  0
   -0.3840   -2.1790   -3.1220 H   0  0  0  0  0  0  0  0  0  0  0  0
    0.4954   -0.6354   -3.1216 H   0  0  0  0  0  0  0  0  0  0  0  0
    0.4954   -2.6026   -0.7114 H   0  0  0  0  0  0  0  0  0  0  0  0
    0.4954    0.3019    1.1819 H   0  0  0  0  0  0  0  0  0  0  0  0
  1  2  1  0
  1  4  1  0
  1  5  1  0
  1  6  1  0
  2  3  1  0
  2  7  1  0
  2  8  1  0
  3 17  1  0
  9 10  1  0
  9 13  1  0
  9 14  1  0
  9 15  1  0
 10 11  2  3
 10 16  1  0
 11 12  1  0
M  RAD  1  12   2
M  END
>  <reaction>  (14) 
rmg_rxn_394

>  <mol_properties>  (14) 
{"1": {"label": "*4", "atom_type": "Cs"}, "2": {"label": "*3", "atom_type": "O2s"}, "10": {"label": "*0", "atom_type": "N3d"}, "11": {"label": "*1", "atom_type": "O2s"}, "16": {"label": "*2", "atom_type": "H0"}}

>  <type>  (14) 
unop_10

>  <geom_source>  (14) 
Heuristics

$$$$

     RDKit          3D

 17 15  0  0  0  0  0  0  0  0999 V2000
    1.7512    1.6495    2.2003 C   0  0  0  0  0  0  0  0  0  0  0  0
    0.2640    1.3767    2.3295 C   0  0  0  0  0  0  0  0  0  0  0  0
   -0.4066    1.3873    1.0844 O   0  0  0  0  0  0  0  0  0  0  0  0
    1.9228    2.6041    1.7011 H   0  0  0  0  0  0  0  0  0  0  0  0
    2.2241    1.6806    3.1840 H   0  0  0  0  0  0  0  0  0  0  0  0
    2.2438    0.8652    1.6192 H   0  0  0  0  0  0  0  0  0  0  0  0
    0.0990    0.4249    2.8506 H   0  0  0  0  0  0  0  0  0  0  0  0
   -0.2121    2.1574    2.9243 H   0  0  0  0  0  0  0  0  0  0  0  0
   -0.4066   -1.6392   -3.2608 C   0  0  0  0  0  0  0  0  0  0  0  0
   -0.4066   -1.6392   -1.7722 C   0  0  0  0  0  0  0  0  0  0  0  0
   -0.4066   -0.5471   -1.1354 N   0  0  0  0  0  0  0  0  0  0  0  0
   -0.4066   -0.7518    0.2378 O   0  0  0  0  0  1  0  0  0  0  0  0
    0.4728   -2.1630   -3.6426 H   0  0  0  0  0  0  0  0  0  0  0  0
   -1.2860   -2.1630   -3.6426 H   0  0  0  0  0  0  0  0  0  0  0  0
   -0.4066   -0.6195   -3.6422 H   0  0  0  0  0  0  0  0  0  0  0  0
   -0.4066   -2.5867   -1.2320 H   0  0  0  0  0  0  0  0  0  0  0  0
   -0.4066    0.3179    0.6612 H   0  0  0  0  0  0  0  0  0  0  0  0
  1  2  1  0
  1  4  1  0
  1  5  1  0
  1  6  1  0
  2  3  1  0
  2  7  1  0
  2  8  1  0
  3 17  1  0
  9 10  1  0
  9 13  1  0
  9 14  1  0
  9 15  1  0
 10 11  2  3
 10 16  1  0
 11 12  1  0
M  RAD  1  12   2
M  END
>  <reaction>  (15) 
rmg_rxn_394

>  <mol_properties>  (15) 
{"1": {"label": "*4", "atom_type": "Cs"}, "2": {"label": "*3", "atom_type": "O2s"}, "10": {"label": "*0", "atom_type": "N3d"}, "11": {"label": "*1", "atom_type": "O2s"}, "16": {"label": "*2", "atom_type": "H0"}}

>  <type>  (15) 
unop_11

>  <geom_source>  (15) 
Heuristics

$$$$

     RDKit          3D

 17 15  0  0  0  0  0  0  0  0999 V2000
   -1.0294    1.9308   -0.1278 C   0  0  0  0  0  0  0  0  0  0  0  0
    0.1736    2.0969    0.7822 C   0  0  0  0  0  0  0  0  0  0  0  0
    0.1736    1.1864    1.8644 O   0  0  0  0  0  0  0  0  0  0  0  0
   -1.9552    2.0372    0.4390 H   0  0  0  0  0  0  0  0  0  0  0  0
   -1.0184    2.6806   -0.9215 H   0  0  0  0  0  0  0  0  0  0  0  0
   -1.0285    0.9453   -0.6014 H   0  0  0  0  0  0  0  0  0  0  0  0
    1.1009    2.0090    0.2017 H   0  0  0  0  0  0  0  0  0  0  0  0
    0.1690    3.0892    1.2355 H   0  0  0  0  0  0  0  0  0  0  0  0
    0.1736   -1.8400   -2.4808 C   0  0  0  0  0  0  0  0  0  0  0  0
    0.1736   -1.8400   -0.9922 C   0  0  0  0  0  0  0  0  0  0  0  0
    0.1736   -0.7479   -0.3554 N   0  0  0  0  0  0  0  0  0  0  0  0
    0.1736   -0.9526    1.0178 O   0  0  0  0  0  1  0  0  0  0  0  0
    1.0530   -2.3638   -2.8626 H   0  0  0  0  0  0  0  0  0  0  0  0
   -0.7058   -2.3638   -2.8626 H   0  0  0  0  0  0  0  0  0  0  0  0
    0.1736   -0.8203   -2.8623 H   0  0  0  0  0  0  0  0  0  0  0  0
    0.1736   -2.7875   -0.4520 H   0  0  0  0  0  0  0  0  0  0  0  0
    0.1736    0.1170    1.4412 H   0  0  0  0  0  0  0  0  0  0  0  0
  1  2  1  0
  1  4  1  0
  1  5  1  0
  1  6  1  0
  2  3  1  0
  2  7  1  0
  2  8  1  0
  3 17  1  0
  9 10  1  0
  9 13  1  0
  9 14  1  0
  9 15  1  0
 10 11  2  3
 10 16  1  0
 11 12  1  0
M  RAD  1  12   2
M  END
>  <reaction>  (16) 
rmg_rxn_394

>  <mol_properties>  (16) 
{"1": {"label": "*4", "atom_type": "Cs"}, "2": {"label": "*3", "atom_type": "O2s"}, "10": {"label": "*0", "atom_type": "N3d"}, "11": {"label": "*1", "atom_type": "O2s"}, "16": {"label": "*2", "atom_type": "H0"}}

>  <type>  (16) 
unop_12

>  <geom_source>  (16) 
Heuristics

$$$$

     RDKit          3D

 17 15  0  0  0  0  0  0  0  0999 V2000
   -1.1143   -0.0990   -1.5979 O   0  0  0  0  0  0  0  0  0  0  0  0
    1.0820   -0.2245   -1.5225 O   0  0  0  0  0  1  0  0  0  0  0  0
    1.7805   -1.2960   -1.0136 N   0  0  0  0  0  2  0  0  0  0  0  0
   -2.0372   -0.1351   -0.5456 C   0  0  0  0  0  0  0  0  0  0  0  0
   -2.1404    1.2343    0.1131 C   0  0  0  0  0  0  0  0  0  0  0  0
    2.1857   -0.0686    1.0574 C   0  0  0  0  0  0  0  0  0  0  0  0
    2.3062   -1.2678    0.1709 C   0  0  0  0  0  3  0  0  0  0  0  0
   -3.0310   -0.4212   -0.9499 H   0  0  0  0  0  0  0  0  0  0  0  0
   -1.7355   -0.8972    0.2071 H   0  0  0  0  0  0  0  0  0  0  0  0
   -2.8938    1.2015    0.9282 H   0  0  0  0  0  0  0  0  0  0  0  0
   -1.1589    1.5263    0.5430 H   0  0  0  0  0  0  0  0  0  0  0  0
   -2.4520    1.9936   -0.6352 H   0  0  0  0  0  0  0  0  0  0  0  0
    2.7059   -0.2597    2.0193 H   0  0  0  0  0  0  0  0  0  0  0  0
    2.6502    0.8122    0.5665 H   0  0  0  0  0  0  0  0  0  0  0  0
    1.1154    0.1426    1.2635 H   0  0  0  0  0  0  0  0  0  0  0  0
    2.8465   -2.1350    0.5274 H   0  0  0  0  0  0  0  0  0  0  0  0
   -0.1095   -0.1065   -1.1317 H   0  0  0  0  0  0  0  0  0  0  0  0
  1 17  1  0
  1  4  1  0
  2  3  1  0
  3  7  1  0
  4  8  1  0
  4  5  1  0
  4  9  1  0
  5 12  1  0
  5 11  1  0
  5 10  1  0
  6 14  1  0
  6  7  1  0
  6 13  1  0
  6 15  1  0
  7 16  1  0
M  RAD  3   2   2   3   2   7   2
M  END
>  <reaction>  (17) 
rmg_rxn_394

>  <mol_properties>  (17) 
{"1": {"label": "*4", "atom_type": "Cs"}, "2": {"label": "*3", "atom_type": "O2s"}, "10": {"label": "*0", "atom_type": "N3d"}, "11": {"label": "*1", "atom_type": "O2s"}, "16": {"label": "*2", "atom_type": "H0"}}

>  <type>  (17) 
unop_13

>  <geom_source>  (17) 
AutoTST

$$$$

     RDKit          3D

 17 15  0  0  0  0  0  0  0  0999 V2000
   -1.5197    1.4640    0.2354 C   0  0  0  0  0  0  0  0  0  0  0  0
   -0.3026    2.1206    0.8602 C   0  0  0  0  0  0  0  0  0  0  0  0
    0.3680    1.2762    1.7753 O   0  0  0  0  0  0  0  0  0  0  0  0
   -2.2164    1.1363    1.0082 H   0  0  0  0  0  0  0  0  0  0  0  0
   -2.0365    2.1616   -0.4268 H   0  0  0  0  0  0  0  0  0  0  0  0
   -1.2322    0.5924   -0.3590 H   0  0  0  0  0  0  0  0  0  0  0  0
    0.3839    2.4658    0.0765 H   0  0  0  0  0  0  0  0  0  0  0  0
   -0.6016    2.9970    1.4368 H   0  0  0  0  0  0  0  0  0  0  0  0
    0.3680   -1.7502   -2.5700 C   0  0  0  0  0  0  0  0  0  0  0  0
    0.3680   -1.7502   -1.0813 C   0  0  0  0  0  0  0  0  0  0  0  0
    0.3680   -0.6582   -0.4445 N   0  0  0  0  0  0  0  0  0  0  0  0
    0.3680   -0.8628    0.9287 O   0  0  0  0  0  1  0  0  0  0  0  0
    1.2474   -2.2741   -2.9518 H   0  0  0  0  0  0  0  0  0  0  0  0
   -0.5114   -2.2741   -2.9518 H   0  0  0  0  0  0  0  0  0  0  0  0
    0.3680   -0.7305   -2.9514 H   0  0  0  0  0  0  0  0  0  0  0  0
    0.3680   -2.6978   -0.5412 H   0  0  0  0  0  0  0  0  0  0  0  0
    0.3680    0.2068    1.3520 H   0  0  0  0  0  0  0  0  0  0  0  0
  1  2  1  0
  1  4  1  0
  1  5  1  0
  1  6  1  0
  2  3  1  0
  2  7  1  0
  2  8  1  0
  3 17  1  0
  9 10  1  0
  9 13  1  0
  9 14  1  0
  9 15  1  0
 10 11  2  3
 10 16  1  0
 11 12  1  0
M  RAD  1  12   2
M  END
>  <reaction>  (18) 
rmg_rxn_394

>  <mol_properties>  (18) 
{"1": {"label": "*4", "atom_type": "Cs"}, "2": {"label": "*3", "atom_type": "O2s"}, "10": {"label": "*0", "atom_type": "N3d"}, "11": {"label": "*1", "atom_type": "O2s"}, "16": {"label": "*2", "atom_type": "H0"}}

>  <type>  (18) 
unop_14

>  <geom_source>  (18) 
gaussian_log

$$$$
