
     RDKit          3D

  9  8  0  0  0  0  0  0  0  0999 V2000
    1.1303   -0.2933   -0.7510 C   0  0  0  0  0  0  0  0  0  0  0  0
    0.2866    0.4560   -0.0588 C   0  0  0  0  0  0  0  0  0  0  0  0
   -0.9719   -0.0331    0.5823 C   0  0  0  0  0  0  0  0  0  0  0  0
    2.0274    0.1230   -1.1916 H   0  0  0  0  0  0  0  0  0  0  0  0
    0.9532   -1.3530   -0.9023 H   0  0  0  0  0  0  0  0  0  0  0  0
    0.5065    1.5132    0.0659 H   0  0  0  0  0  0  0  0  0  0  0  0
   -0.9526    0.1426    1.6610 H   0  0  0  0  0  0  0  0  0  0  0  0
   -1.1182   -1.1002    0.4106 H   0  0  0  0  0  0  0  0  0  0  0  0
   -1.8412    0.5010    0.1901 H   0  0  0  0  0  0  0  0  0  0  0  0
  1  2  2  3
  1  4  1  0
  1  5  1  0
  2  3  1  0
  2  6  1  0
  3  7  1  0
  3  8  1  0
  3  9  1  0
M  END
>  <reaction>  (1) 
rmg_rxn_15538

>  <mol_properties>  (1) 
{"1": {"label": "donator", "atom_type": "Cd"}, "5": {"label": "d_hydrogen", "atom_type": "H0"}}

>  <type>  (1) 
r1h

$$$$

     RDKit          3D

  5  4  0  0  0  0  0  0  0  0999 V2000
    0.8934    0.3742    0.4948 O   0  0  0  0  0  0  0  0  0  0  0  0
    0.1582   -0.1610   -0.5904 N   0  0  0  0  0  0  0  0  0  0  0  0
   -1.0297   -0.3739   -0.4689 C   0  0  0  0  0  3  0  0  0  0  0  0
    1.7804    0.4382    0.1306 H   0  0  0  0  0  0  0  0  0  0  0  0
   -1.8023   -0.2775    0.2859 H   0  0  0  0  0  0  0  0  0  0  0  0
  1  2  1  0
  1  4  1  0
  2  3  2  3
  3  5  1  0
M  RAD  1   3   2
M  END
>  <reaction>  (2) 
rmg_rxn_15538

>  <mol_properties>  (2) 
{"2": {"label": "acceptor", "atom_type": "Cd"}}

>  <type>  (2) 
r2

$$$$

     RDKit          3D

  6  5  0  0  0  0  0  0  0  0999 V2000
    1.2314    0.0428    0.5088 O   0  0  0  0  0  0  0  0  0  0  0  0
    0.2987    0.2341   -0.4915 N   0  0  0  0  0  0  0  0  0  0  0  0
   -0.8599   -0.1122   -0.1290 C   0  0  0  0  0  0  0  0  0  0  0  0
    2.0507    0.3401    0.1082 H   0  0  0  0  0  0  0  0  0  0  0  0
   -1.0700   -0.5112    0.8610 H   0  0  0  0  0  0  0  0  0  0  0  0
   -1.6509    0.0064   -0.8574 H   0  0  0  0  0  0  0  0  0  0  0  0
  1  2  1  0
  1  4  1  0
  2  3  2  3
  3  5  1  0
  3  6  1  0
M  END
>  <reaction>  (3) 
rmg_rxn_15538

>  <mol_properties>  (3) 
{"2": {"label": "acceptor", "atom_type": "Cd"}, "5": {"label": "a_hydrogen", "atom_type": "H0"}}

>  <type>  (3) 
r2h

$$$$

     RDKit          3D

 14 12  0  0  0  0  0  0  0  0999 V2000
    2.9625    0.0117   -0.0098 O   0  0  0  0  0  0  0  0  0  0  0  0
    1.5931   -0.2724   -0.0034 N   0  0  0  0  0  0  0  0  0  0  0  0
    0.8678    0.7402   -0.0118 C   0  0  0  0  0  3  0  0  0  0  0  0
    3.3615   -0.8613   -0.0019 H   0  0  0  0  0  0  0  0  0  0  0  0
    1.1857    1.7825   -0.0232 H   0  0  0  0  0  0  0  0  0  0  0  0
   -2.6023    1.0139   -0.0056 C   0  0  0  0  0  0  0  0  0  0  0  0
   -1.7011    0.0567    0.0018 C   0  0  0  0  0  0  0  0  0  0  0  0
   -1.8304   -1.4188    0.0171 C   0  0  0  0  0  0  0  0  0  0  0  0
   -2.3232    2.0612   -0.0169 H   0  0  0  0  0  0  0  0  0  0  0  0
   -3.6665    0.7885   -0.0005 H   0  0  0  0  0  0  0  0  0  0  0  0
   -0.4649    0.4430   -0.0053 H   0  0  0  0  0  0  0  0  0  0  0  0
   -1.3405   -1.8390    0.8979 H   0  0  0  0  0  0  0  0  0  0  0  0
   -1.3450   -1.8568   -0.8575 H   0  0  0  0  0  0  0  0  0  0  0  0
   -2.8815   -1.7198    0.0229 H   0  0  0  0  0  0  0  0  0  0  0  0
  1  2  1  0
  1  4  1  0
  2  3  2  3
  3  5  1  0
  6  7  2  3
  6  9  1  0
  6 10  1  0
  7  8  1  0
  7 11  1  0
  8 12  1  0
  8 13  1  0
  8 14  1  0
M  RAD  1   3   2
M  END
>  <reaction>  (4) 
rmg_rxn_15538

>  <mol_properties>  (4) 
{"1": {"label": "*4", "atom_type": "N3d"}, "2": {"label": "*3", "atom_type": "Cd"}, "5": {"label": "*0", "atom_type": "Cd"}, "6": {"label": "*1", "atom_type": "Cd"}, "10": {"label": "*2", "atom_type": "H0"}}

>  <type>  (4) 
ts

$$$$

     RDKit          3D

 14 12  0  0  0  0  0  0  0  0999 V2000
    3.0070   -0.0395   -0.0000 O   0  0  0  0  0  0  0  0  0  0  0  0
    1.6060   -0.2217   -0.0037 N   0  0  0  0  0  0  0  0  0  0  0  0
    0.8476    0.7531    0.0046 C   0  0  0  0  0  3  0  0  0  0  0  0
    3.3653   -0.9377   -0.0094 H   0  0  0  0  0  0  0  0  0  0  0  0
    1.0666    1.8133    0.0154 H   0  0  0  0  0  0  0  0  0  0  0  0
   -2.5850    1.0065   -0.0028 C   0  0  0  0  0  0  0  0  0  0  0  0
   -1.6774    0.0623   -0.0001 C   0  0  0  0  0  0  0  0  0  0  0  0
   -1.8303   -1.4080    0.0020 C   0  0  0  0  0  0  0  0  0  0  0  0
   -2.3303    2.0536   -0.0041 H   0  0  0  0  0  0  0  0  0  0  0  0
   -3.6481    0.7890   -0.0041 H   0  0  0  0  0  0  0  0  0  0  0  0
   -0.4249    0.4203    0.0015 H   0  0  0  0  0  0  0  0  0  0  0  0
   -2.8828   -1.6968    0.0007 H   0  0  0  0  0  0  0  0  0  0  0  0
   -1.3485   -1.8311    0.8827 H   0  0  0  0  0  0  0  0  0  0  0  0
   -1.3455   -1.8340   -0.8756 H   0  0  0  0  0  0  0  0  0  0  0  0
  1  2  1  0
  1  4  1  0
  2  3  2  3
  3  5  1  0
  6  7  2  3
  6  9  1  0
  6 10  1  0
  7  8  1  0
  7 11  1  0
  8 12  1  0
  8 13  1  0
  8 14  1  0
M  RAD  1   3   2
M  END
>  <reaction>  (5) 
rmg_rxn_15538

>  <mol_properties>  (5) 
{"1": {"label": "*4", "atom_type": "N3d"}, "2": {"label": "*3", "atom_type": "Cd"}, "5": {"label": "*0", "atom_type": "Cd"}, "6": {"label": "*1", "atom_type": "Cd"}, "10": {"label": "*2", "atom_type": "H0"}}

>  <type>  (5) 
unop_1

>  <geom_source>  (5) 
crest_best.xyz

$$$$

     RDKit          3D

 14 12  0  0  0  0  0  0  0  0999 V2000
    0.3072   -1.9195    2.1153 O   0  0  0  0  0  0  0  0  0  0  0  0
    0.7067   -1.3522    0.9213 N   0  0  0  0  0  0  0  0  0  0  0  0
   -0.2709   -1.1288    0.1545 C   0  0  0  0  0  0  0  0  0  0  0  0
    1.1310   -2.0342    2.5931 H   0  0  0  0  0  0  0  0  0  0  0  0
   -1.2970   -1.3654    0.4279 H   0  0  0  0  0  0  0  0  0  0  0  0
   -0.2709    1.1521   -2.4227 C   0  0  0  0  0  0  0  0  0  0  0  0
   -0.2709    1.1521   -1.0989 C   0  0  0  0  0  3  0  0  0  0  0  0
   -0.2709    2.3743   -0.2384 C   0  0  0  0  0  0  0  0  0  0  0  0
   -0.2709    0.2294   -2.9892 H   0  0  0  0  0  0  0  0  0  0  0  0
   -0.2709    2.0777   -2.9887 H   0  0  0  0  0  0  0  0  0  0  0  0
   -0.2709    0.0090   -0.4707 H   0  0  0  0  0  0  0  0  0  0  0  0
   -1.1486    2.3914    0.4128 H   0  0  0  0  0  0  0  0  0  0  0  0
   -0.2709    3.2847   -0.8390 H   0  0  0  0  0  0  0  0  0  0  0  0
    0.6068    2.3914    0.4128 H   0  0  0  0  0  0  0  0  0  0  0  0
  1  2  1  0
  1  4  1  0
  2  3  2  3
  3  5  1  0
  3 11  1  0
  6  7  2  3
  6  9  1  0
  6 10  1  0
  7  8  1  0
  8 12  1  0
  8 13  1  0
  8 14  1  0
M  RAD  1   7   2
M  END
>  <reaction>  (6) 
rmg_rxn_15538

>  <mol_properties>  (6) 
{"1": {"label": "*4", "atom_type": "N3d"}, "2": {"label": "*3", "atom_type": "Cd"}, "5": {"label": "*0", "atom_type": "Cd"}, "6": {"label": "*1", "atom_type": "Cd"}, "10": {"label": "*2", "atom_type": "H0"}}

>  <type>  (6) 
unop_2

>  <geom_source>  (6) 
Heuristics

$$$$

     RDKit          3D

 14 12  0  0  0  0  0  0  0  0999 V2000
    3.0074    0.0397   -0.0025 O   0  0  0  0  0  0  0  0  0  0  0  0
    1.6065    0.2218   -0.0039 N   0  0  0  0  0  0  0  0  0  0  0  0
    0.8478   -0.7526    0.0094 C   0  0  0  0  0  3  0  0  0  0  0  0
    3.3657    0.9378   -0.0147 H   0  0  0  0  0  0  0  0  0  0  0  0
    1.0661   -1.8130    0.0233 H   0  0  0  0  0  0  0  0  0  0  0  0
   -2.5843   -1.0070   -0.0058 C   0  0  0  0  0  0  0  0  0  0  0  0
   -1.6773   -0.0623    0.0006 C   0  0  0  0  0  0  0  0  0  0  0  0
   -1.8318    1.4079    0.0029 C   0  0  0  0  0  0  0  0  0  0  0  0
   -2.3290   -2.0541   -0.0067 H   0  0  0  0  0  0  0  0  0  0  0  0
   -3.6475   -0.7902   -0.0105 H   0  0  0  0  0  0  0  0  0  0  0  0
   -0.4248   -0.4195    0.0054 H   0  0  0  0  0  0  0  0  0  0  0  0
   -2.8847    1.6955   -0.0038 H   0  0  0  0  0  0  0  0  0  0  0  0
   -1.3429    1.8350   -0.8719 H   0  0  0  0  0  0  0  0  0  0  0  0
   -1.3552    1.8311    0.8864 H   0  0  0  0  0  0  0  0  0  0  0  0
  1  2  1  0
  1  4  1  0
  2  3  2  3
  3  5  1  0
  6  7  2  3
  6  9  1  0
  6 10  1  0
  7  8  1  0
  7 11  1  0
  8 12  1  0
  8 13  1  0
  8 14  1  0
M  RAD  1   3   2
M  END
>  <reaction>  (7) 
rmg_rxn_15538

>  <mol_properties>  (7) 
{"1": {"label": "*4", "atom_type": "N3d"}, "2": {"label": "*3", "atom_type": "Cd"}, "5": {"label": "*0", "atom_type": "Cd"}, "6": {"label": "*1", "atom_type": "Cd"}, "10": {"label": "*2", "atom_type": "H0"}}

>  <type>  (7) 
unop_3

>  <geom_source>  (7) 
Heuristics

$$$$

     RDKit          3D

 14 12  0  0  0  0  0  0  0  0999 V2000
    3.0067    0.0399    0.0005 O   0  0  0  0  0  0  0  0  0  0  0  0
    1.6057    0.2210    0.0013 N   0  0  0  0  0  0  0  0  0  0  0  0
    0.8476   -0.7539   -0.0025 C   0  0  0  0  0  3  0  0  0  0  0  0
    3.3644    0.9384    0.0041 H   0  0  0  0  0  0  0  0  0  0  0  0
    1.0666   -1.8142   -0.0069 H   0  0  0  0  0  0  0  0  0  0  0  0
   -2.5857   -1.0056    0.0015 C   0  0  0  0  0  0  0  0  0  0  0  0
   -1.6772   -0.0623   -0.0001 C   0  0  0  0  0  0  0  0  0  0  0  0
   -1.8291    1.4081   -0.0009 C   0  0  0  0  0  0  0  0  0  0  0  0
   -2.3321   -2.0531    0.0020 H   0  0  0  0  0  0  0  0  0  0  0  0
   -3.6485   -0.7870    0.0025 H   0  0  0  0  0  0  0  0  0  0  0  0
   -0.4250   -0.4210   -0.0012 H   0  0  0  0  0  0  0  0  0  0  0  0
   -1.3453    1.8329    0.8779 H   0  0  0  0  0  0  0  0  0  0  0  0
   -2.8814    1.6976   -0.0007 H   0  0  0  0  0  0  0  0  0  0  0  0
   -1.3458    1.8320   -0.8803 H   0  0  0  0  0  0  0  0  0  0  0  0
  1  2  1  0
  1  4  1  0
  2  3  2  3
  3  5  1  0
  6  7  2  3
  6  9  1  0
  6 10  1  0
  7  8  1  0
  7 11  1  0
  8 12  1  0
  8 13  1  0
  8 14  1  0
M  RAD  1   3   2
M  END
>  <reaction>  (8) 
rmg_rxn_15538

>  <mol_properties>  (8) 
{"1": {"label": "*4", "atom_type": "N3d"}, "2": {"label": "*3", "atom_type": "Cd"}, "5": {"label": "*0", "atom_type": "Cd"}, "6": {"label": "*1", "atom_type": "Cd"}, "10": {"label": "*2", "atom_type": "H0"}}

>  <type>  (8) 
unop_4

>  <geom_source>  (8) 
Heuristics

$$$$

     RDKit          3D

 14 12  0  0  0  0  0  0  0  0999 V2000
    0.5985   -2.7606    0.9956 O   0  0  0  0  0  0  0  0  0  0  0  0
    0.2996   -1.7326    0.1233 N   0  0  0  0  0  0  0  0  0  0  0  0
   -0.2648   -0.7666    0.7078 C   0  0  0  0  0  0  0  0  0  0  0  0
    1.0150   -3.4158    0.4323 H   0  0  0  0  0  0  0  0  0  0  0  0
   -0.4784   -0.7703    1.7746 H   0  0  0  0  0  0  0  0  0  0  0  0
   -0.2648    1.5143   -1.8694 C   0  0  0  0  0  0  0  0  0  0  0  0
   -0.2648    1.5143   -0.5456 C   0  0  0  0  0  3  0  0  0  0  0  0
   -0.2648    2.7365    0.3149 C   0  0  0  0  0  0  0  0  0  0  0  0
   -0.2648    0.5916   -2.4359 H   0  0  0  0  0  0  0  0  0  0  0  0
   -0.2648    2.4399   -2.4354 H   0  0  0  0  0  0  0  0  0  0  0  0
   -0.2648    0.3711    0.0826 H   0  0  0  0  0  0  0  0  0  0  0  0
   -1.1425    2.7536    0.9661 H   0  0  0  0  0  0  0  0  0  0  0  0
   -0.2648    3.6469   -0.2857 H   0  0  0  0  0  0  0  0  0  0  0  0
    0.6129    2.7536    0.9661 H   0  0  0  0  0  0  0  0  0  0  0  0
  1  2  1  0
  1  4  1  0
  2  3  2  3
  3  5  1  0
  3 11  1  0
  6  7  2  3
  6  9  1  0
  6 10  1  0
  7  8  1  0
  8 12  1  0
  8 13  1  0
  8 14  1  0
M  RAD  1   7   2
M  END
>  <reaction>  (9) 
rmg_rxn_15538

>  <mol_properties>  (9) 
{"1": {"label": "*4", "atom_type": "N3d"}, "2": {"label": "*3", "atom_type": "Cd"}, "5": {"label": "*0", "atom_type": "Cd"}, "6": {"label": "*1", "atom_type": "Cd"}, "10": {"label": "*2", "atom_type": "H0"}}

>  <type>  (9) 
unop_5

>  <geom_source>  (9) 
Heuristics

$$$$

     RDKit          3D

 14 12  0  0  0  0  0  0  0  0999 V2000
    3.0071   -0.0398   -0.0009 O   0  0  0  0  0  0  0  0  0  0  0  0
    1.6060   -0.2214    0.0017 N   0  0  0  0  0  0  0  0  0  0  0  0
    0.8477    0.7534   -0.0002 C   0  0  0  0  0  3  0  0  0  0  0  0
    3.3650   -0.9381    0.0017 H   0  0  0  0  0  0  0  0  0  0  0  0
    1.0665    1.8137   -0.0049 H   0  0  0  0  0  0  0  0  0  0  0  0
   -2.5853    1.0061    0.0002 C   0  0  0  0  0  0  0  0  0  0  0  0
   -1.6772    0.0624    0.0002 C   0  0  0  0  0  0  0  0  0  0  0  0
   -1.8302   -1.4079   -0.0006 C   0  0  0  0  0  0  0  0  0  0  0  0
   -2.3313    2.0535    0.0012 H   0  0  0  0  0  0  0  0  0  0  0  0
   -3.6482    0.7878   -0.0013 H   0  0  0  0  0  0  0  0  0  0  0  0
   -0.4249    0.4204    0.0014 H   0  0  0  0  0  0  0  0  0  0  0  0
   -2.8827   -1.6967   -0.0104 H   0  0  0  0  0  0  0  0  0  0  0  0
   -1.3554   -1.8321    0.8834 H   0  0  0  0  0  0  0  0  0  0  0  0
   -1.3385   -1.8331   -0.8748 H   0  0  0  0  0  0  0  0  0  0  0  0
  1  2  1  0
  1  4  1  0
  2  3  2  3
  3  5  1  0
  6  7  2  3
  6  9  1  0
  6 10  1  0
  7  8  1  0
  7 11  1  0
  8 12  1  0
  8 13  1  0
  8 14  1  0
M  RAD  1   3   2
M  END
>  <reaction>  (10) 
rmg_rxn_15538

>  <mol_properties>  (10) 
{"1": {"label": "*4", "atom_type": "N3d"}, "2": {"label": "*3", "atom_type": "Cd"}, "5": {"label": "*0", "atom_type": "Cd"}, "6": {"label": "*1", "atom_type": "Cd"}, "10": {"label": "*2", "atom_type": "H0"}}

>  <type>  (10) 
unop_6

>  <geom_source>  (10) 
Heuristics

$$$$

     RDKit          3D

 14 12  0  0  0  0  0  0  0  0999 V2000
   -0.1261   -2.0459    2.0845 O   0  0  0  0  0  0  0  0  0  0  0  0
    0.4861   -1.1597    1.2202 N   0  0  0  0  0  0  0  0  0  0  0  0
   -0.0783   -1.1353    0.0914 C   0  0  0  0  0  0  0  0  0  0  0  0
    0.3921   -1.9664    2.8878 H   0  0  0  0  0  0  0  0  0  0  0  0
   -0.9437   -1.7507   -0.1453 H   0  0  0  0  0  0  0  0  0  0  0  0
   -0.0783    1.1456   -2.4859 C   0  0  0  0  0  0  0  0  0  0  0  0
   -0.0783    1.1456   -1.1621 C   0  0  0  0  0  3  0  0  0  0  0  0
   -0.0783    2.3678   -0.3016 C   0  0  0  0  0  0  0  0  0  0  0  0
   -0.0783    0.2229   -3.0523 H   0  0  0  0  0  0  0  0  0  0  0  0
   -0.0783    2.0712   -3.0519 H   0  0  0  0  0  0  0  0  0  0  0  0
   -0.0783    0.0024   -0.5339 H   0  0  0  0  0  0  0  0  0  0  0  0
   -0.9560    2.3849    0.3496 H   0  0  0  0  0  0  0  0  0  0  0  0
   -0.0783    3.2782   -0.9022 H   0  0  0  0  0  0  0  0  0  0  0  0
    0.7994    2.3849    0.3496 H   0  0  0  0  0  0  0  0  0  0  0  0
  1  2  1  0
  1  4  1  0
  2  3  2  3
  3  5  1  0
  3 11  1  0
  6  7  2  3
  6  9  1  0
  6 10  1  0
  7  8  1  0
  8 12  1  0
  8 13  1  0
  8 14  1  0
M  RAD  1   7   2
M  END
>  <reaction>  (11) 
rmg_rxn_15538

>  <mol_properties>  (11) 
{"1": {"label": "*4", "atom_type": "N3d"}, "2": {"label": "*3", "atom_type": "Cd"}, "5": {"label": "*0", "atom_type": "Cd"}, "6": {"label": "*1", "atom_type": "Cd"}, "10": {"label": "*2", "atom_type": "H0"}}

>  <type>  (11) 
unop_7

>  <geom_source>  (11) 
Heuristics

$$$$

     RDKit          3D

 14 12  0  0  0  0  0  0  0  0999 V2000
   -0.8782   -2.4238    1.4122 O   0  0  0  0  0  0  0  0  0  0  0  0
   -0.5597   -1.6594    0.3071 N   0  0  0  0  0  0  0  0  0  0  0  0
    0.4178   -0.8923    0.5296 C   0  0  0  0  0  0  0  0  0  0  0  0
   -1.6218   -2.9498    1.1115 H   0  0  0  0  0  0  0  0  0  0  0  0
    0.9303   -0.8582    1.4886 H   0  0  0  0  0  0  0  0  0  0  0  0
    0.4178    1.3886   -2.0476 C   0  0  0  0  0  0  0  0  0  0  0  0
    0.4178    1.3886   -0.7239 C   0  0  0  0  0  3  0  0  0  0  0  0
    0.4178    2.6107    0.1366 C   0  0  0  0  0  0  0  0  0  0  0  0
    0.4178    0.4658   -2.6141 H   0  0  0  0  0  0  0  0  0  0  0  0
    0.4178    2.3142   -2.6137 H   0  0  0  0  0  0  0  0  0  0  0  0
    0.4178    0.2454   -0.0957 H   0  0  0  0  0  0  0  0  0  0  0  0
   -0.4599    2.6279    0.7878 H   0  0  0  0  0  0  0  0  0  0  0  0
    0.4178    3.5212   -0.4640 H   0  0  0  0  0  0  0  0  0  0  0  0
    1.2955    2.6279    0.7878 H   0  0  0  0  0  0  0  0  0  0  0  0
  1  2  1  0
  1  4  1  0
  2  3  2  3
  3  5  1  0
  3 11  1  0
  6  7  2  3
  6  9  1  0
  6 10  1  0
  7  8  1  0
  8 12  1  0
  8 13  1  0
  8 14  1  0
M  RAD  1   7   2
M  END
>  <reaction>  (12) 
rmg_rxn_15538

>  <mol_properties>  (12) 
{"1": {"label": "*4", "atom_type": "N3d"}, "2": {"label": "*3", "atom_type": "Cd"}, "5": {"label": "*0", "atom_type": "Cd"}, "6": {"label": "*1", "atom_type": "Cd"}, "10": {"label": "*2", "atom_type": "H0"}}

>  <type>  (12) 
unop_8

>  <geom_source>  (12) 
Heuristics

$$$$

     RDKit          3D

 14 12  0  0  0  0  0  0  0  0999 V2000
    3.0074    0.0397   -0.0016 O   0  0  0  0  0  0  0  0  0  0  0  0
    1.6065    0.2218   -0.0021 N   0  0  0  0  0  0  0  0  0  0  0  0
    0.8478   -0.7527    0.0056 C   0  0  0  0  0  3  0  0  0  0  0  0
    3.3657    0.9379   -0.0086 H   0  0  0  0  0  0  0  0  0  0  0  0
    1.0660   -1.8131    0.0135 H   0  0  0  0  0  0  0  0  0  0  0  0
   -2.5843   -1.0070   -0.0034 C   0  0  0  0  0  0  0  0  0  0  0  0
   -1.6773   -0.0623    0.0004 C   0  0  0  0  0  0  0  0  0  0  0  0
   -1.8318    1.4079    0.0017 C   0  0  0  0  0  0  0  0  0  0  0  0
   -2.3290   -2.0540   -0.0040 H   0  0  0  0  0  0  0  0  0  0  0  0
   -3.6476   -0.7901   -0.0063 H   0  0  0  0  0  0  0  0  0  0  0  0
   -0.4248   -0.4195    0.0033 H   0  0  0  0  0  0  0  0  0  0  0  0
   -1.3516    1.8321    0.8827 H   0  0  0  0  0  0  0  0  0  0  0  0
   -2.8846    1.6955   -0.0011 H   0  0  0  0  0  0  0  0  0  0  0  0
   -1.3464    1.8340   -0.8756 H   0  0  0  0  0  0  0  0  0  0  0  0
  1  2  1  0
  1  4  1  0
  2  3  2  3
  3  5  1  0
  6  7  2  3
  6  9  1  0
  6 10  1  0
  7  8  1  0
  7 11  1  0
  8 12  1  0
  8 13  1  0
  8 14  1  0
M  RAD  1   3   2
M  END
>  <reaction>  (13) 
rmg_rxn_15538

>  <mol_properties>  (13) 
{"1": {"label": "*4", "atom_type": "N3d"}, "2": {"label": "*3", "atom_type": "Cd"}, "5": {"label": "*0", "atom_type": "Cd"}, "6": {"label": "*1", "atom_type": "Cd"}, "10": {"label": "*2", "atom_type": "H0"}}

>  <type>  (13) 
unop_9

>  <geom_source>  (13) 
Heuristics

$$$$

     RDKit          3D

 14 12  0  0  0  0  0  0  0  0999 V2000
    0.0000   -2.2967    1.9313 O   0  0  0  0  0  0  0  0  0  0  0  0
    0.0000   -1.0366    1.3662 N   0  0  0  0  0  0  0  0  0  0  0  0
    0.0000   -1.0851    0.1048 C   0  0  0  0  0  0  0  0  0  0  0  0
    0.0000   -2.1174    2.8736 H   0  0  0  0  0  0  0  0  0  0  0  0
    0.0000   -2.0231   -0.4463 H   0  0  0  0  0  0  0  0  0  0  0  0
   -0.0000    1.1958   -2.4724 C   0  0  0  0  0  0  0  0  0  0  0  0
   -0.0000    1.1958   -1.1487 C   0  0  0  0  0  3  0  0  0  0  0  0
   -0.0000    2.4180   -0.2882 C   0  0  0  0  0  0  0  0  0  0  0  0
   -0.0000    0.2731   -3.0389 H   0  0  0  0  0  0  0  0  0  0  0  0
   -0.0000    2.1214   -3.0384 H   0  0  0  0  0  0  0  0  0  0  0  0
   -0.0000    0.0527   -0.5205 H   0  0  0  0  0  0  0  0  0  0  0  0
   -0.8777    2.4351    0.3630 H   0  0  0  0  0  0  0  0  0  0  0  0
   -0.0000    3.3284   -0.8888 H   0  0  0  0  0  0  0  0  0  0  0  0
    0.8777    2.4351    0.3630 H   0  0  0  0  0  0  0  0  0  0  0  0
  1  2  1  0
  1  4  1  0
  2  3  2  3
  3  5  1  0
  3 11  1  0
  6  7  2  3
  6  9  1  0
  6 10  1  0
  7  8  1  0
  8 12  1  0
  8 13  1  0
  8 14  1  0
M  RAD  1   7   2
M  END
>  <reaction>  (14) 
rmg_rxn_15538

>  <mol_properties>  (14) 
{"1": {"label": "*4", "atom_type": "N3d"}, "2": {"label": "*3", "atom_type": "Cd"}, "5": {"label": "*0", "atom_type": "Cd"}, "6": {"label": "*1", "atom_type": "Cd"}, "10": {"label": "*2", "atom_type": "H0"}}

>  <type>  (14) 
unop_10

>  <geom_source>  (14) 
Heuristics

$$$$

     RDKit          3D

 14 12  0  0  0  0  0  0  0  0999 V2000
    3.0074   -0.0399   -0.0009 O   0  0  0  0  0  0  0  0  0  0  0  0
    1.6065   -0.2216   -0.0014 N   0  0  0  0  0  0  0  0  0  0  0  0
    0.8478    0.7528    0.0035 C   0  0  0  0  0  3  0  0  0  0  0  0
    3.3655   -0.9381   -0.0063 H   0  0  0  0  0  0  0  0  0  0  0  0
    1.0659    1.8133    0.0099 H   0  0  0  0  0  0  0  0  0  0  0  0
   -2.5844    1.0069   -0.0022 C   0  0  0  0  0  0  0  0  0  0  0  0
   -1.6773    0.0623    0.0002 C   0  0  0  0  0  0  0  0  0  0  0  0
   -1.8318   -1.4079    0.0011 C   0  0  0  0  0  0  0  0  0  0  0  0
   -2.3292    2.0540   -0.0030 H   0  0  0  0  0  0  0  0  0  0  0  0
   -3.6476    0.7899   -0.0038 H   0  0  0  0  0  0  0  0  0  0  0  0
   -0.4249    0.4195    0.0026 H   0  0  0  0  0  0  0  0  0  0  0  0
   -1.3515   -1.8322    0.8820 H   0  0  0  0  0  0  0  0  0  0  0  0
   -1.3466   -1.8339   -0.8762 H   0  0  0  0  0  0  0  0  0  0  0  0
   -2.8847   -1.6955   -0.0015 H   0  0  0  0  0  0  0  0  0  0  0  0
  1  2  1  0
  1  4  1  0
  2  3  2  3
  3  5  1  0
  6  7  2  3
  6  9  1  0
  6 10  1  0
  7  8  1  0
  7 11  1  0
  8 12  1  0
  8 13  1  0
  8 14  1  0
M  RAD  1   3   2
M  END
>  <reaction>  (15) 
rmg_rxn_15538

>  <mol_properties>  (15) 
{"1": {"label": "*4", "atom_type": "N3d"}, "2": {"label": "*3", "atom_type": "Cd"}, "5": {"label": "*0", "atom_type": "Cd"}, "6": {"label": "*1", "atom_type": "Cd"}, "10": {"label": "*2", "atom_type": "H0"}}

>  <type>  (15) 
unop_11

>  <geom_source>  (15) 
Heuristics

$$$$

     RDKit          3D

 14 12  0  0  0  0  0  0  0  0999 V2000
   -0.7433   -2.0878    1.8530 O   0  0  0  0  0  0  0  0  0  0  0  0
   -0.7160   -1.5273    0.5912 N   0  0  0  0  0  0  0  0  0  0  0  0
    0.4128   -1.0321    0.3191 C   0  0  0  0  0  0  0  0  0  0  0  0
   -1.6400   -2.4199    1.9291 H   0  0  0  0  0  0  0  0  0  0  0  0
    1.2481   -1.0580    1.0156 H   0  0  0  0  0  0  0  0  0  0  0  0
    0.4128    1.2488   -2.2581 C   0  0  0  0  0  0  0  0  0  0  0  0
    0.4128    1.2488   -0.9344 C   0  0  0  0  0  3  0  0  0  0  0  0
    0.4128    2.4710   -0.0739 C   0  0  0  0  0  0  0  0  0  0  0  0
    0.4128    0.3260   -2.8246 H   0  0  0  0  0  0  0  0  0  0  0  0
    0.4128    2.1744   -2.8242 H   0  0  0  0  0  0  0  0  0  0  0  0
    0.4128    0.1056   -0.3062 H   0  0  0  0  0  0  0  0  0  0  0  0
   -0.4649    2.4881    0.5773 H   0  0  0  0  0  0  0  0  0  0  0  0
    0.4128    3.3814   -0.6745 H   0  0  0  0  0  0  0  0  0  0  0  0
    1.2905    2.4881    0.5773 H   0  0  0  0  0  0  0  0  0  0  0  0
  1  2  1  0
  1  4  1  0
  2  3  2  3
  3  5  1  0
  3 11  1  0
  6  7  2  3
  6  9  1  0
  6 10  1  0
  7  8  1  0
  8 12  1  0
  8 13  1  0
  8 14  1  0
M  RAD  1   7   2
M  END
>  <reaction>  (16) 
rmg_rxn_15538

>  <mol_properties>  (16) 
{"1": {"label": "*4", "atom_type": "N3d"}, "2": {"label": "*3", "atom_type": "Cd"}, "5": {"label": "*0", "atom_type": "Cd"}, "6": {"label": "*1", "atom_type": "Cd"}, "10": {"label": "*2", "atom_type": "H0"}}

>  <type>  (16) 
unop_12

>  <geom_source>  (16) 
Heuristics

$$$$

     RDKit          3D

 14 12  0  0  0  0  0  0  0  0999 V2000
    3.0065   -0.0400   -0.0018 O   0  0  0  0  0  0  0  0  0  0  0  0
    1.6054   -0.2208   -0.0026 N   0  0  0  0  0  0  0  0  0  0  0  0
    0.8476    0.7543    0.0064 C   0  0  0  0  0  3  0  0  0  0  0  0
    3.3639   -0.9384   -0.0099 H   0  0  0  0  0  0  0  0  0  0  0  0
    1.0669    1.8145    0.0157 H   0  0  0  0  0  0  0  0  0  0  0  0
   -2.5863    1.0051   -0.0039 C   0  0  0  0  0  0  0  0  0  0  0  0
   -1.6771    0.0624    0.0004 C   0  0  0  0  0  0  0  0  0  0  0  0
   -1.8281   -1.4082    0.0020 C   0  0  0  0  0  0  0  0  0  0  0  0
   -2.3333    2.0527   -0.0047 H   0  0  0  0  0  0  0  0  0  0  0  0
   -3.6490    0.7857   -0.0077 H   0  0  0  0  0  0  0  0  0  0  0  0
   -0.4251    0.4217    0.0040 H   0  0  0  0  0  0  0  0  0  0  0  0
   -1.3368   -1.8338   -0.8723 H   0  0  0  0  0  0  0  0  0  0  0  0
   -2.8802   -1.6984   -0.0061 H   0  0  0  0  0  0  0  0  0  0  0  0
   -1.3515   -1.8304    0.8860 H   0  0  0  0  0  0  0  0  0  0  0  0
  1  2  1  0
  1  4  1  0
  2  3  2  3
  3  5  1  0
  6  7  2  3
  6  9  1  0
  6 10  1  0
  7  8  1  0
  7 11  1  0
  8 12  1  0
  8 13  1  0
  8 14  1  0
M  RAD  1   3   2
M  END
>  <reaction>  (17) 
rmg_rxn_15538

>  <mol_properties>  (17) 
{"1": {"label": "*4", "atom_type": "N3d"}, "2": {"label": "*3", "atom_type": "Cd"}, "5": {"label": "*0", "atom_type": "Cd"}, "6": {"label": "*1", "atom_type": "Cd"}, "10": {"label": "*2", "atom_type": "H0"}}

>  <type>  (17) 
unop_13

>  <geom_source>  (17) 
Heuristics

$$$$

     RDKit          3D

 14 12  0  0  0  0  0  0  0  0999 V2000
   -0.3072   -1.9195    2.1153 O   0  0  0  0  0  0  0  0  0  0  0  0
   -0.7067   -1.3522    0.9213 N   0  0  0  0  0  0  0  0  0  0  0  0
    0.2709   -1.1288    0.1545 C   0  0  0  0  0  0  0  0  0  0  0  0
   -1.1310   -2.0342    2.5931 H   0  0  0  0  0  0  0  0  0  0  0  0
    1.2970   -1.3654    0.4279 H   0  0  0  0  0  0  0  0  0  0  0  0
    0.2709    1.1521   -2.4227 C   0  0  0  0  0  0  0  0  0  0  0  0
    0.2709    1.1521   -1.0989 C   0  0  0  0  0  3  0  0  0  0  0  0
    0.2709    2.3743   -0.2384 C   0  0  0  0  0  0  0  0  0  0  0  0
    0.2709    0.2294   -2.9892 H   0  0  0  0  0  0  0  0  0  0  0  0
    0.2709    2.0777   -2.9887 H   0  0  0  0  0  0  0  0  0  0  0  0
    0.2709    0.0090   -0.4707 H   0  0  0  0  0  0  0  0  0  0  0  0
   -0.6068    2.3914    0.4128 H   0  0  0  0  0  0  0  0  0  0  0  0
    0.2709    3.2847   -0.8390 H   0  0  0  0  0  0  0  0  0  0  0  0
    1.1486    2.3914    0.4128 H   0  0  0  0  0  0  0  0  0  0  0  0
  1  2  1  0
  1  4  1  0
  2  3  2  3
  3  5  1  0
  3 11  1  0
  6  7  2  3
  6  9  1  0
  6 10  1  0
  7  8  1  0
  8 12  1  0
  8 13  1  0
  8 14  1  0
M  RAD  1   7   2
M  END
>  <reaction>  (18) 
rmg_rxn_15538

>  <mol_properties>  (18) 
{"1": {"label": "*4", "atom_type": "N3d"}, "2": {"label": "*3", "atom_type": "Cd"}, "5": {"label": "*0", "atom_type": "Cd"}, "6": {"label": "*1", "atom_type": "Cd"}, "10": {"label": "*2", "atom_type": "H0"}}

>  <type>  (18) 
unop_14

>  <geom_source>  (18) 
Heuristics

$$$$

     RDKit          3D

 14 12  0  0  0  0  0  0  0  0999 V2000
    3.0080   -0.0395    0.0046 O   0  0  0  0  0  0  0  0  0  0  0  0
    1.6072   -0.2224    0.0076 N   0  0  0  0  0  0  0  0  0  0  0  0
    0.8479    0.7513   -0.0181 C   0  0  0  0  0  3  0  0  0  0  0  0
    3.3668   -0.9371    0.0283 H   0  0  0  0  0  0  0  0  0  0  0  0
    1.0657    1.8115   -0.0449 H   0  0  0  0  0  0  0  0  0  0  0  0
   -2.5830    1.0084    0.0110 C   0  0  0  0  0  0  0  0  0  0  0  0
   -1.6775    0.0623   -0.0011 C   0  0  0  0  0  0  0  0  0  0  0  0
   -1.8343   -1.4076   -0.0056 C   0  0  0  0  0  0  0  0  0  0  0  0
   -2.3260    2.0550    0.0131 H   0  0  0  0  0  0  0  0  0  0  0  0
   -3.6465    0.7932    0.0198 H   0  0  0  0  0  0  0  0  0  0  0  0
   -0.4246    0.4180   -0.0101 H   0  0  0  0  0  0  0  0  0  0  0  0
   -1.3643   -1.8297   -0.8932 H   0  0  0  0  0  0  0  0  0  0  0  0
   -2.8875   -1.6936    0.0074 H   0  0  0  0  0  0  0  0  0  0  0  0
   -1.3402   -1.8374    0.8649 H   0  0  0  0  0  0  0  0  0  0  0  0
  1  2  1  0
  1  4  1  0
  2  3  2  3
  3  5  1  0
  6  7  2  3
  6  9  1  0
  6 10  1  0
  7  8  1  0
  7 11  1  0
  8 12  1  0
  8 13  1  0
  8 14  1  0
M  RAD  1   3   2
M  END
>  <reaction>  (19) 
rmg_rxn_15538

>  <mol_properties>  (19) 
{"1": {"label": "*4", "atom_type": "N3d"}, "2": {"label": "*3", "atom_type": "Cd"}, "5": {"label": "*0", "atom_type": "Cd"}, "6": {"label": "*1", "atom_type": "Cd"}, "10": {"label": "*2", "atom_type": "H0"}}

>  <type>  (19) 
unop_15

>  <geom_source>  (19) 
Heuristics

$$$$

     RDKit          3D

 14 12  0  0  0  0  0  0  0  0999 V2000
    0.7433   -2.0878    1.8530 O   0  0  0  0  0  0  0  0  0  0  0  0
    0.7160   -1.5273    0.5912 N   0  0  0  0  0  0  0  0  0  0  0  0
   -0.4128   -1.0321    0.3191 C   0  0  0  0  0  0  0  0  0  0  0  0
    1.6400   -2.4199    1.9291 H   0  0  0  0  0  0  0  0  0  0  0  0
   -1.2481   -1.0580    1.0156 H   0  0  0  0  0  0  0  0  0  0  0  0
   -0.4128    1.2488   -2.2581 C   0  0  0  0  0  0  0  0  0  0  0  0
   -0.4128    1.2488   -0.9344 C   0  0  0  0  0  3  0  0  0  0  0  0
   -0.4128    2.4709   -0.0739 C   0  0  0  0  0  0  0  0  0  0  0  0
   -0.4128    0.3260   -2.8246 H   0  0  0  0  0  0  0  0  0  0  0  0
   -0.4128    2.1744   -2.8242 H   0  0  0  0  0  0  0  0  0  0  0  0
   -0.4128    0.1056   -0.3062 H   0  0  0  0  0  0  0  0  0  0  0  0
   -1.2905    2.4881    0.5773 H   0  0  0  0  0  0  0  0  0  0  0  0
   -0.4128    3.3814   -0.6745 H   0  0  0  0  0  0  0  0  0  0  0  0
    0.4649    2.4881    0.5773 H   0  0  0  0  0  0  0  0  0  0  0  0
  1  2  1  0
  1  4  1  0
  2  3  2  3
  3  5  1  0
  3 11  1  0
  6  7  2  3
  6  9  1  0
  6 10  1  0
  7  8  1  0
  8 12  1  0
  8 13  1  0
  8 14  1  0
M  RAD  1   7   2
M  END
>  <reaction>  (20) 
rmg_rxn_15538

>  <mol_properties>  (20) 
{"1": {"label": "*4", "atom_type": "N3d"}, "2": {"label": "*3", "atom_type": "Cd"}, "5": {"label": "*0", "atom_type": "Cd"}, "6": {"label": "*1", "atom_type": "Cd"}, "10": {"label": "*2", "atom_type": "H0"}}

>  <type>  (20) 
unop_16

>  <geom_source>  (20) 
Heuristics

$$$$

     RDKit          3D

 14 12  0  0  0  0  0  0  0  0999 V2000
    3.0070   -0.0395   -0.0000 O   0  0  0  0  0  0  0  0  0  0  0  0
    1.6060   -0.2217   -0.0037 N   0  0  0  0  0  0  0  0  0  0  0  0
    0.8476    0.7531    0.0046 C   0  0  0  0  0  3  0  0  0  0  0  0
    3.3653   -0.9377   -0.0094 H   0  0  0  0  0  0  0  0  0  0  0  0
    1.0666    1.8133    0.0154 H   0  0  0  0  0  0  0  0  0  0  0  0
   -2.5850    1.0065   -0.0028 C   0  0  0  0  0  0  0  0  0  0  0  0
   -1.6774    0.0623   -0.0001 C   0  0  0  0  0  0  0  0  0  0  0  0
   -1.8303   -1.4080    0.0020 C   0  0  0  0  0  0  0  0  0  0  0  0
   -2.3303    2.0536   -0.0041 H   0  0  0  0  0  0  0  0  0  0  0  0
   -3.6481    0.7890   -0.0041 H   0  0  0  0  0  0  0  0  0  0  0  0
   -0.4249    0.4203    0.0015 H   0  0  0  0  0  0  0  0  0  0  0  0
   -2.8828   -1.6968    0.0007 H   0  0  0  0  0  0  0  0  0  0  0  0
   -1.3485   -1.8311    0.8827 H   0  0  0  0  0  0  0  0  0  0  0  0
   -1.3455   -1.8340   -0.8756 H   0  0  0  0  0  0  0  0  0  0  0  0
  1  2  1  0
  1  4  1  0
  2  3  2  3
  3  5  1  0
  6  7  2  3
  6  9  1  0
  6 10  1  0
  7  8  1  0
  7 11  1  0
  8 12  1  0
  8 13  1  0
  8 14  1  0
M  RAD  1   3   2
M  END
>  <reaction>  (21) 
rmg_rxn_15538

>  <mol_properties>  (21) 
{"1": {"label": "*4", "atom_type": "N3d"}, "2": {"label": "*3", "atom_type": "Cd"}, "5": {"label": "*0", "atom_type": "Cd"}, "6": {"label": "*1", "atom_type": "Cd"}, "10": {"label": "*2", "atom_type": "H0"}}

>  <type>  (21) 
unop_17

>  <geom_source>  (21) 
Heuristics

$$$$

     RDKit          3D

 14 12  0  0  0  0  0  0  0  0999 V2000
   -0.5985   -2.7606    0.9956 O   0  0  0  0  0  0  0  0  0  0  0  0
   -0.2996   -1.7326    0.1233 N   0  0  0  0  0  0  0  0  0  0  0  0
    0.2648   -0.7666    0.7078 C   0  0  0  0  0  0  0  0  0  0  0  0
   -1.0150   -3.4158    0.4323 H   0  0  0  0  0  0  0  0  0  0  0  0
    0.4784   -0.7703    1.7746 H   0  0  0  0  0  0  0  0  0  0  0  0
    0.2648    1.5143   -1.8694 C   0  0  0  0  0  0  0  0  0  0  0  0
    0.2648    1.5143   -0.5456 C   0  0  0  0  0  3  0  0  0  0  0  0
    0.2648    2.7365    0.3149 C   0  0  0  0  0  0  0  0  0  0  0  0
    0.2648    0.5916   -2.4359 H   0  0  0  0  0  0  0  0  0  0  0  0
    0.2648    2.4399   -2.4354 H   0  0  0  0  0  0  0  0  0  0  0  0
    0.2648    0.3711    0.0826 H   0  0  0  0  0  0  0  0  0  0  0  0
   -0.6129    2.7536    0.9661 H   0  0  0  0  0  0  0  0  0  0  0  0
    0.2648    3.6469   -0.2857 H   0  0  0  0  0  0  0  0  0  0  0  0
    1.1425    2.7536    0.9661 H   0  0  0  0  0  0  0  0  0  0  0  0
  1  2  1  0
  1  4  1  0
  2  3  2  3
  3  5  1  0
  3 11  1  0
  6  7  2  3
  6  9  1  0
  6 10  1  0
  7  8  1  0
  8 12  1  0
  8 13  1  0
  8 14  1  0
M  RAD  1   7   2
M  END
>  <reaction>  (22) 
rmg_rxn_15538

>  <mol_properties>  (22) 
{"1": {"label": "*4", "atom_type": "N3d"}, "2": {"label": "*3", "atom_type": "Cd"}, "5": {"label": "*0", "atom_type": "Cd"}, "6": {"label": "*1", "atom_type": "Cd"}, "10": {"label": "*2", "atom_type": "H0"}}

>  <type>  (22) 
unop_18

>  <geom_source>  (22) 
Heuristics

$$$$

     RDKit          3D

 14 12  0  0  0  0  0  0  0  0999 V2000
    0.8782   -2.4238    1.4122 O   0  0  0  0  0  0  0  0  0  0  0  0
    0.5597   -1.6593    0.3071 N   0  0  0  0  0  0  0  0  0  0  0  0
   -0.4178   -0.8923    0.5296 C   0  0  0  0  0  0  0  0  0  0  0  0
    1.6218   -2.9498    1.1115 H   0  0  0  0  0  0  0  0  0  0  0  0
   -0.9303   -0.8582    1.4886 H   0  0  0  0  0  0  0  0  0  0  0  0
   -0.4178    1.3886   -2.0476 C   0  0  0  0  0  0  0  0  0  0  0  0
   -0.4178    1.3886   -0.7239 C   0  0  0  0  0  3  0  0  0  0  0  0
   -0.4178    2.6107    0.1366 C   0  0  0  0  0  0  0  0  0  0  0  0
   -0.4178    0.4658   -2.6141 H   0  0  0  0  0  0  0  0  0  0  0  0
   -0.4178    2.3142   -2.6137 H   0  0  0  0  0  0  0  0  0  0  0  0
   -0.4178    0.2454   -0.0957 H   0  0  0  0  0  0  0  0  0  0  0  0
   -1.2955    2.6279    0.7878 H   0  0  0  0  0  0  0  0  0  0  0  0
   -0.4178    3.5212   -0.4640 H   0  0  0  0  0  0  0  0  0  0  0  0
    0.4599    2.6279    0.7878 H   0  0  0  0  0  0  0  0  0  0  0  0
  1  2  1  0
  1  4  1  0
  2  3  2  3
  3  5  1  0
  3 11  1  0
  6  7  2  3
  6  9  1  0
  6 10  1  0
  7  8  1  0
  8 12  1  0
  8 13  1  0
  8 14  1  0
M  RAD  1   7   2
M  END
>  <reaction>  (23) 
rmg_rxn_15538

>  <mol_properties>  (23) 
{"1": {"label": "*4", "atom_type": "N3d"}, "2": {"label": "*3", "atom_type": "Cd"}, "5": {"label": "*0", "atom_type": "Cd"}, "6": {"label": "*1", "atom_type": "Cd"}, "10": {"label": "*2", "atom_type": "H0"}}

>  <type>  (23) 
unop_19

>  <geom_source>  (23) 
Heuristics

$$$$

     RDKit          3D

 14 12  0  0  0  0  0  0  0  0999 V2000
    0.1261   -2.0459    2.0845 O   0  0  0  0  0  0  0  0  0  0  0  0
   -0.4861   -1.1597    1.2202 N   0  0  0  0  0  0  0  0  0  0  0  0
    0.0783   -1.1353    0.0914 C   0  0  0  0  0  0  0  0  0  0  0  0
   -0.3921   -1.9664    2.8878 H   0  0  0  0  0  0  0  0  0  0  0  0
    0.9437   -1.7507   -0.1453 H   0  0  0  0  0  0  0  0  0  0  0  0
    0.0783    1.1456   -2.4859 C   0  0  0  0  0  0  0  0  0  0  0  0
    0.0783    1.1456   -1.1621 C   0  0  0  0  0  3  0  0  0  0  0  0
    0.0783    2.3678   -0.3016 C   0  0  0  0  0  0  0  0  0  0  0  0
    0.0783    0.2229   -3.0523 H   0  0  0  0  0  0  0  0  0  0  0  0
    0.0783    2.0712   -3.0519 H   0  0  0  0  0  0  0  0  0  0  0  0
    0.0783    0.0024   -0.5339 H   0  0  0  0  0  0  0  0  0  0  0  0
   -0.7994    2.3849    0.3496 H   0  0  0  0  0  0  0  0  0  0  0  0
    0.0783    3.2782   -0.9022 H   0  0  0  0  0  0  0  0  0  0  0  0
    0.9560    2.3849    0.3496 H   0  0  0  0  0  0  0  0  0  0  0  0
  1  2  1  0
  1  4  1  0
  2  3  2  3
  3  5  1  0
  3 11  1  0
  6  7  2  3
  6  9  1  0
  6 10  1  0
  7  8  1  0
  8 12  1  0
  8 13  1  0
  8 14  1  0
M  RAD  1   7   2
M  END
>  <reaction>  (24) 
rmg_rxn_15538

>  <mol_properties>  (24) 
{"1": {"label": "*4", "atom_type": "N3d"}, "2": {"label": "*3", "atom_type": "Cd"}, "5": {"label": "*0", "atom_type": "Cd"}, "6": {"label": "*1", "atom_type": "Cd"}, "10": {"label": "*2", "atom_type": "H0"}}

>  <type>  (24) 
unop_20

>  <geom_source>  (24) 
Heuristics

$$$$

     RDKit          3D

 14 12  0  0  0  0  0  0  0  0999 V2000
    0.0000   -2.9062    0.8221 O   0  0  0  0  0  0  0  0  0  0  0  0
    0.0000   -1.7537    0.0614 N   0  0  0  0  0  0  0  0  0  0  0  0
    0.0000   -0.7148    0.7785 C   0  0  0  0  0  0  0  0  0  0  0  0
    0.0000   -3.6056    0.1656 H   0  0  0  0  0  0  0  0  0  0  0  0
    0.0000   -0.7525    1.8658 H   0  0  0  0  0  0  0  0  0  0  0  0
   -0.0000    1.5661   -1.7987 C   0  0  0  0  0  0  0  0  0  0  0  0
   -0.0000    1.5661   -0.4750 C   0  0  0  0  0  3  0  0  0  0  0  0
   -0.0000    2.7882    0.3855 C   0  0  0  0  0  0  0  0  0  0  0  0
   -0.0000    0.6433   -2.3652 H   0  0  0  0  0  0  0  0  0  0  0  0
   -0.0000    2.4917   -2.3647 H   0  0  0  0  0  0  0  0  0  0  0  0
   -0.0000    0.4229    0.1532 H   0  0  0  0  0  0  0  0  0  0  0  0
   -0.8777    2.8053    1.0367 H   0  0  0  0  0  0  0  0  0  0  0  0
   -0.0000    3.6987   -0.2151 H   0  0  0  0  0  0  0  0  0  0  0  0
    0.8777    2.8053    1.0367 H   0  0  0  0  0  0  0  0  0  0  0  0
  1  2  1  0
  1  4  1  0
  2  3  2  3
  3  5  1  0
  3 11  1  0
  6  7  2  3
  6  9  1  0
  6 10  1  0
  7  8  1  0
  8 12  1  0
  8 13  1  0
  8 14  1  0
M  RAD  1   7   2
M  END
>  <reaction>  (25) 
rmg_rxn_15538

>  <mol_properties>  (25) 
{"1": {"label": "*4", "atom_type": "N3d"}, "2": {"label": "*3", "atom_type": "Cd"}, "5": {"label": "*0", "atom_type": "Cd"}, "6": {"label": "*1", "atom_type": "Cd"}, "10": {"label": "*2", "atom_type": "H0"}}

>  <type>  (25) 
unop_21

>  <geom_source>  (25) 
Heuristics

$$$$

     RDKit          3D

 14 12  0  0  0  0  0  0  0  0999 V2000
    3.6875    0.7948   -0.4012 O   0  0  0  0  0  0  0  0  0  0  0  0
    2.3805    1.0406   -0.0370 N   0  0  0  0  0  0  0  0  0  0  0  0
   -1.5279   -1.1773    0.3560 C   0  0  0  0  0  0  0  0  0  0  0  0
   -1.8463    1.1853   -0.2949 C   0  0  0  0  0  0  0  0  0  0  0  0
    1.5219    0.0831    0.1083 C   0  0  0  0  0  0  0  0  0  0  0  0
   -1.0359    0.2170    0.1340 C   0  0  0  0  0  3  0  0  0  0  0  0
   -2.3304   -1.1798    1.1237 H   0  0  0  0  0  0  0  0  0  0  0  0
   -0.6870   -1.8084    0.7101 H   0  0  0  0  0  0  0  0  0  0  0  0
   -1.9207   -1.5978   -0.5938 H   0  0  0  0  0  0  0  0  0  0  0  0
    1.8077   -0.9485   -0.0536 H   0  0  0  0  0  0  0  0  0  0  0  0
    0.2767    0.3646    0.4593 H   0  0  0  0  0  0  0  0  0  0  0  0
   -2.8949    0.9883   -0.4971 H   0  0  0  0  0  0  0  0  0  0  0  0
   -1.4547    2.1852   -0.4449 H   0  0  0  0  0  0  0  0  0  0  0  0
    4.0235   -0.1472   -0.5688 H   0  0  0  0  0  0  0  0  0  0  0  0
  1  2  1  0
  1 14  1  0
  2  5  2  3
  3  6  1  0
  3  7  1  0
  3  8  1  0
  3  9  1  0
  4  6  2  3
  4 12  1  0
  4 13  1  0
  5 10  1  0
  5 11  1  0
M  RAD  1   6   2
M  END
>  <reaction>  (26) 
rmg_rxn_15538

>  <mol_properties>  (26) 
{"1": {"label": "*4", "atom_type": "N3d"}, "2": {"label": "*3", "atom_type": "Cd"}, "5": {"label": "*0", "atom_type": "Cd"}, "6": {"label": "*1", "atom_type": "Cd"}, "10": {"label": "*2", "atom_type": "H0"}}

>  <type>  (26) 
unop_22

>  <geom_source>  (26) 
AutoTST

$$$$

     RDKit          3D

 14 12  0  0  0  0  0  0  0  0999 V2000
    0.5985   -2.7606    0.9956 O   0  0  0  0  0  0  0  0  0  0  0  0
    0.2996   -1.7326    0.1232 N   0  0  0  0  0  0  0  0  0  0  0  0
   -0.2648   -0.7666    0.7078 C   0  0  0  0  0  0  0  0  0  0  0  0
    1.0150   -3.4158    0.4323 H   0  0  0  0  0  0  0  0  0  0  0  0
   -0.4784   -0.7703    1.7746 H   0  0  0  0  0  0  0  0  0  0  0  0
   -0.2648    1.5143   -1.8694 C   0  0  0  0  0  0  0  0  0  0  0  0
   -0.2648    1.5143   -0.5456 C   0  0  0  0  0  3  0  0  0  0  0  0
   -0.2648    2.7365    0.3149 C   0  0  0  0  0  0  0  0  0  0  0  0
   -0.2648    0.5916   -2.4359 H   0  0  0  0  0  0  0  0  0  0  0  0
   -0.2648    2.4399   -2.4354 H   0  0  0  0  0  0  0  0  0  0  0  0
   -0.2648    0.3711    0.0826 H   0  0  0  0  0  0  0  0  0  0  0  0
   -1.1425    2.7536    0.9661 H   0  0  0  0  0  0  0  0  0  0  0  0
   -0.2648    3.6469   -0.2857 H   0  0  0  0  0  0  0  0  0  0  0  0
    0.6129    2.7536    0.9661 H   0  0  0  0  0  0  0  0  0  0  0  0
  1  2  1  0
  1  4  1  0
  2  3  2  3
  3  5  1  0
  3 11  1  0
  6  7  2  3
  6  9  1  0
  6 10  1  0
  7  8  1  0
  8 12  1  0
  8 13  1  0
  8 14  1  0
M  RAD  1   7   2
M  END
>  <reaction>  (27) 
rmg_rxn_15538

>  <mol_properties>  (27) 
{"1": {"label": "*4", "atom_type": "N3d"}, "2": {"label": "*3", "atom_type": "Cd"}, "5": {"label": "*0", "atom_type": "Cd"}, "6": {"label": "*1", "atom_type": "Cd"}, "10": {"label": "*2", "atom_type": "H0"}}

>  <type>  (27) 
unop_23

>  <geom_source>  (27) 
gaussian_log

$$$$
