
     RDKit          3D

 14 13  0  0  0  0  0  0  0  0999 V2000
    1.8106   -0.5953    0.5577 C   0  0  0  0  0  0  0  0  0  0  0  0
    0.5197    0.2064    0.6554 C   0  0  0  0  0  0  0  0  0  0  0  0
   -0.5206   -0.2080   -0.3788 C   0  0  0  0  0  0  0  0  0  0  0  0
   -1.8114    0.5937   -0.2812 C   0  0  0  0  0  0  0  0  0  0  0  0
    2.2725   -0.4752   -0.4251 H   0  0  0  0  0  0  0  0  0  0  0  0
    1.6214   -1.6612    0.7052 H   0  0  0  0  0  0  0  0  0  0  0  0
    2.5364   -0.2784    1.3084 H   0  0  0  0  0  0  0  0  0  0  0  0
    0.0930    0.0950    1.6574 H   0  0  0  0  0  0  0  0  0  0  0  0
    0.7393    1.2723    0.5354 H   0  0  0  0  0  0  0  0  0  0  0  0
   -0.7402   -1.2739   -0.2588 H   0  0  0  0  0  0  0  0  0  0  0  0
   -0.0938   -0.0965   -1.3808 H   0  0  0  0  0  0  0  0  0  0  0  0
   -1.6222    1.6596   -0.4287 H   0  0  0  0  0  0  0  0  0  0  0  0
   -2.2734    0.4736    0.7017 H   0  0  0  0  0  0  0  0  0  0  0  0
   -2.5373    0.2768   -1.0318 H   0  0  0  0  0  0  0  0  0  0  0  0
  1  2  1  0
  1  5  1  0
  1  6  1  0
  1  7  1  0
  2  3  1  0
  2  8  1  0
  2  9  1  0
  3  4  1  0
  3 10  1  0
  3 11  1  0
  4 12  1  0
  4 13  1  0
  4 14  1  0
M  END
>  <reaction>  (1) 
rmg_rxn_371

>  <mol_properties>  (1) 
{"3": {"label": "donator", "atom_type": "Cs"}, "12": {"label": "d_hydrogen", "atom_type": "H0"}}

>  <type>  (1) 
r1h

$$$$

     RDKit          3D

  8  7  0  0  0  0  0  0  0  0999 V2000
   -0.7875    0.0853   -0.1040 C   0  0  0  0  0  0  0  0  0  0  0  0
    0.7204   -0.0938   -0.1477 C   0  0  0  0  0  0  0  0  0  0  0  0
    1.3762    0.6440   -1.0797 O   0  0  0  0  0  1  0  0  0  0  0  0
   -1.2283   -0.5441    0.6718 H   0  0  0  0  0  0  0  0  0  0  0  0
   -1.0408    1.1244    0.1086 H   0  0  0  0  0  0  0  0  0  0  0  0
   -1.2305   -0.1866   -1.0627 H   0  0  0  0  0  0  0  0  0  0  0  0
    1.1856    0.1312    0.8302 H   0  0  0  0  0  0  0  0  0  0  0  0
    1.0001   -1.1507   -0.3151 H   0  0  0  0  0  0  0  0  0  0  0  0
  1  2  1  0
  1  4  1  0
  1  5  1  0
  1  6  1  0
  2  3  1  0
  2  7  1  0
  2  8  1  0
M  RAD  1   3   2
M  END
>  <reaction>  (2) 
rmg_rxn_371

>  <mol_properties>  (2) 
{"2": {"label": "acceptor", "atom_type": "O2s"}}

>  <type>  (2) 
r2

$$$$

     RDKit          3D

  9  8  0  0  0  0  0  0  0  0999 V2000
   -0.9895    0.3048    0.1041 C   0  0  0  0  0  0  0  0  0  0  0  0
    0.3761   -0.3562    0.0721 C   0  0  0  0  0  0  0  0  0  0  0  0
    0.3441   -1.6564   -0.4834 O   0  0  0  0  0  0  0  0  0  0  0  0
   -1.6997   -0.3114    0.6572 H   0  0  0  0  0  0  0  0  0  0  0  0
   -0.9320    1.2848    0.5822 H   0  0  0  0  0  0  0  0  0  0  0  0
   -1.3774    0.4507   -0.9077 H   0  0  0  0  0  0  0  0  0  0  0  0
    0.7581   -0.4813    1.0862 H   0  0  0  0  0  0  0  0  0  0  0  0
    1.0900    0.2787   -0.4681 H   0  0  0  0  0  0  0  0  0  0  0  0
    0.0089   -1.5959   -1.3792 H   0  0  0  0  0  0  0  0  0  0  0  0
  1  2  1  0
  1  4  1  0
  1  5  1  0
  1  6  1  0
  2  3  1  0
  2  7  1  0
  2  8  1  0
  3  9  1  0
M  END
>  <reaction>  (3) 
rmg_rxn_371

>  <mol_properties>  (3) 
{"2": {"label": "acceptor", "atom_type": "O2s"}, "8": {"label": "a_hydrogen", "atom_type": "H0"}}

>  <type>  (3) 
r2h

$$$$

     RDKit          3D

 22 20  0  0  0  0  0  0  0  0999 V2000
   -1.9461    0.9495    1.5020 C   0  0  0  0  0  0  0  0  0  0  0  0
   -1.1394   -0.0157    2.3542 C   0  0  0  0  0  0  0  0  0  0  0  0
   -0.3660   -0.9125    1.6169 O   0  0  0  0  0  0  0  0  0  0  0  0
   -2.5579    0.4019    0.7838 H   0  0  0  0  0  0  0  0  0  0  0  0
   -2.6014    1.5612    2.1258 H   0  0  0  0  0  0  0  0  0  0  0  0
   -1.2854    1.6196    0.9483 H   0  0  0  0  0  0  0  0  0  0  0  0
   -0.5251    0.5329    3.0815 H   0  0  0  0  0  0  0  0  0  0  0  0
   -1.8152   -0.6514    2.9409 H   0  0  0  0  0  0  0  0  0  0  0  0
    0.6209   -0.6035   -3.1204 C   0  0  0  0  0  0  0  0  0  0  0  0
    0.9964   -0.7408   -1.6517 C   0  0  0  0  0  0  0  0  0  0  0  0
    1.0444    0.6003   -0.9274 C   0  0  0  0  0  0  0  0  0  0  0  0
    1.4166    0.4799    0.5261 C   0  0  0  0  0  3  0  0  0  0  0  0
    1.3391    0.0234   -3.6545 H   0  0  0  0  0  0  0  0  0  0  0  0
   -0.3648   -0.1452   -3.2307 H   0  0  0  0  0  0  0  0  0  0  0  0
    0.5930   -1.5752   -3.6156 H   0  0  0  0  0  0  0  0  0  0  0  0
    0.2790   -1.3888   -1.1418 H   0  0  0  0  0  0  0  0  0  0  0  0
    1.9716   -1.2299   -1.5640 H   0  0  0  0  0  0  0  0  0  0  0  0
    0.0737    1.0974   -1.0184 H   0  0  0  0  0  0  0  0  0  0  0  0
    1.7692    1.2576   -1.4261 H   0  0  0  0  0  0  0  0  0  0  0  0
    2.3419   -0.0650    0.7150 H   0  0  0  0  0  0  0  0  0  0  0  0
    0.5558   -0.2564    1.0743 H   0  0  0  0  0  0  0  0  0  0  0  0
    1.3773    1.4101    1.0921 H   0  0  0  0  0  0  0  0  0  0  0  0
  1  2  1  0
  1  4  1  0
  1  5  1  0
  1  6  1  0
  2  3  1  0
  2  7  1  0
  2  8  1  0
  3 21  1  0
  9 10  1  0
  9 13  1  0
  9 14  1  0
  9 15  1  0
 10 11  1  0
 10 16  1  0
 10 17  1  0
 11 12  1  0
 11 18  1  0
 11 19  1  0
 12 20  1  0
 12 22  1  0
M  RAD  1  12   2
M  END
>  <reaction>  (4) 
rmg_rxn_371

>  <mol_properties>  (4) 
{"1": {"label": "*0", "atom_type": "Cs"}, "2": {"label": "*1", "atom_type": "O2s"}, "10": {"label": "*4", "atom_type": "Cs"}, "11": {"label": "*3", "atom_type": "Cs"}, "20": {"label": "*2", "atom_type": "H0"}}

>  <type>  (4) 
ts

$$$$

     RDKit          3D

 22 20  0  0  0  0  0  0  0  0999 V2000
    0.0669   -0.0286    3.0220 C   0  0  0  0  0  0  0  0  0  0  0  0
   -1.0390   -0.7771    2.3012 C   0  0  0  0  0  0  0  0  0  0  0  0
   -1.3744   -0.1963    1.0561 O   0  0  0  0  0  0  0  0  0  0  0  0
   -0.2114    1.0158    3.1693 H   0  0  0  0  0  0  0  0  0  0  0  0
    0.2636   -0.4778    3.9977 H   0  0  0  0  0  0  0  0  0  0  0  0
    0.9973   -0.0581    2.4486 H   0  0  0  0  0  0  0  0  0  0  0  0
   -0.7609   -1.8313    2.1749 H   0  0  0  0  0  0  0  0  0  0  0  0
   -1.9565   -0.7536    2.8909 H   0  0  0  0  0  0  0  0  0  0  0  0
    0.6114   -0.4423   -3.4682 C   0  0  0  0  0  0  0  0  0  0  0  0
    0.6114   -0.4423   -1.9455 C   0  0  0  0  0  0  0  0  0  0  0  0
    0.6114    0.9601   -1.3482 C   0  0  0  0  0  0  0  0  0  0  0  0
    0.6114    0.9601    0.1745 C   0  0  0  0  0  3  0  0  0  0  0  0
    1.4929    0.0710   -3.8596 H   0  0  0  0  0  0  0  0  0  0  0  0
   -0.2702    0.0710   -3.8596 H   0  0  0  0  0  0  0  0  0  0  0  0
    0.6114   -1.4574   -3.8686 H   0  0  0  0  0  0  0  0  0  0  0  0
   -0.2637   -0.9882   -1.5782 H   0  0  0  0  0  0  0  0  0  0  0  0
    1.4864   -0.9882   -1.5782 H   0  0  0  0  0  0  0  0  0  0  0  0
   -0.2637    1.5059   -1.7155 H   0  0  0  0  0  0  0  0  0  0  0  0
    1.4864    1.5059   -1.7155 H   0  0  0  0  0  0  0  0  0  0  0  0
    1.4929    0.4467    0.5659 H   0  0  0  0  0  0  0  0  0  0  0  0
   -0.4465    0.3440    0.6442 H   0  0  0  0  0  0  0  0  0  0  0  0
    0.6114    1.9752    0.5749 H   0  0  0  0  0  0  0  0  0  0  0  0
  1  2  1  0
  1  4  1  0
  1  5  1  0
  1  6  1  0
  2  3  1  0
  2  7  1  0
  2  8  1  0
  3 21  1  0
  9 10  1  0
  9 13  1  0
  9 14  1  0
  9 15  1  0
 10 11  1  0
 10 16  1  0
 10 17  1  0
 11 12  1  0
 11 18  1  0
 11 19  1  0
 12 20  1  0
 12 22  1  0
M  RAD  1  12   2
M  END
>  <reaction>  (5) 
rmg_rxn_371

>  <mol_properties>  (5) 
{"1": {"label": "*0", "atom_type": "Cs"}, "2": {"label": "*1", "atom_type": "O2s"}, "10": {"label": "*4", "atom_type": "Cs"}, "11": {"label": "*3", "atom_type": "Cs"}, "20": {"label": "*2", "atom_type": "H0"}}

>  <type>  (5) 
unop_1

>  <geom_source>  (5) 
Heuristics

$$$$

     RDKit          3D

 22 20  0  0  0  0  0  0  0  0999 V2000
    0.0862   -1.6215    0.8973 C   0  0  0  0  0  0  0  0  0  0  0  0
   -1.3089   -1.1328    1.2404 C   0  0  0  0  0  0  0  0  0  0  0  0
   -1.3241    0.2025    1.7060 O   0  0  0  0  0  0  0  0  0  0  0  0
    0.7471   -1.5279    1.7600 H   0  0  0  0  0  0  0  0  0  0  0  0
    0.0625   -2.6686    0.5883 H   0  0  0  0  0  0  0  0  0  0  0  0
    0.5125   -1.0415    0.0742 H   0  0  0  0  0  0  0  0  0  0  0  0
   -1.9730   -1.2490    0.3744 H   0  0  0  0  0  0  0  0  0  0  0  0
   -1.7283   -1.7296    2.0515 H   0  0  0  0  0  0  0  0  0  0  0  0
    0.6616   -0.0435   -2.8184 C   0  0  0  0  0  0  0  0  0  0  0  0
    0.6616   -0.0435   -1.2957 C   0  0  0  0  0  0  0  0  0  0  0  0
    0.6616    1.3589   -0.6983 C   0  0  0  0  0  0  0  0  0  0  0  0
    0.6616    1.3589    0.8244 C   0  0  0  0  0  3  0  0  0  0  0  0
    1.5432    0.4699   -3.2098 H   0  0  0  0  0  0  0  0  0  0  0  0
   -0.2199    0.4699   -3.2098 H   0  0  0  0  0  0  0  0  0  0  0  0
    0.6616   -1.0586   -3.2188 H   0  0  0  0  0  0  0  0  0  0  0  0
   -0.2134   -0.5894   -0.9284 H   0  0  0  0  0  0  0  0  0  0  0  0
    1.5367   -0.5894   -0.9284 H   0  0  0  0  0  0  0  0  0  0  0  0
   -0.2134    1.9048   -1.0656 H   0  0  0  0  0  0  0  0  0  0  0  0
    1.5367    1.9048   -1.0656 H   0  0  0  0  0  0  0  0  0  0  0  0
    1.5431    0.8455    1.2157 H   0  0  0  0  0  0  0  0  0  0  0  0
   -0.3962    0.7429    1.2940 H   0  0  0  0  0  0  0  0  0  0  0  0
    0.6616    2.3740    1.2247 H   0  0  0  0  0  0  0  0  0  0  0  0
  1  2  1  0
  1  4  1  0
  1  5  1  0
  1  6  1  0
  2  3  1  0
  2  7  1  0
  2  8  1  0
  3 21  1  0
  9 10  1  0
  9 13  1  0
  9 14  1  0
  9 15  1  0
 10 11  1  0
 10 16  1  0
 10 17  1  0
 11 12  1  0
 11 18  1  0
 11 19  1  0
 12 20  1  0
 12 22  1  0
M  RAD  1  12   2
M  END
>  <reaction>  (6) 
rmg_rxn_371

>  <mol_properties>  (6) 
{"1": {"label": "*0", "atom_type": "Cs"}, "2": {"label": "*1", "atom_type": "O2s"}, "10": {"label": "*4", "atom_type": "Cs"}, "11": {"label": "*3", "atom_type": "Cs"}, "20": {"label": "*2", "atom_type": "H0"}}

>  <type>  (6) 
unop_2

>  <geom_source>  (6) 
Heuristics

$$$$

     RDKit          3D

 22 20  0  0  0  0  0  0  0  0999 V2000
   -1.0505    0.9725    3.0020 C   0  0  0  0  0  0  0  0  0  0  0  0
   -1.0830   -0.4385    2.4443 C   0  0  0  0  0  0  0  0  0  0  0  0
   -1.1365   -0.4696    1.0315 O   0  0  0  0  0  0  0  0  0  0  0  0
   -1.9156    1.5401    2.6566 H   0  0  0  0  0  0  0  0  0  0  0  0
   -1.0580    0.9555    4.0938 H   0  0  0  0  0  0  0  0  0  0  0  0
   -0.1461    1.4981    2.6838 H   0  0  0  0  0  0  0  0  0  0  0  0
   -0.2210   -1.0095    2.8123 H   0  0  0  0  0  0  0  0  0  0  0  0
   -1.9817   -0.9566    2.7820 H   0  0  0  0  0  0  0  0  0  0  0  0
    0.8492   -0.7156   -3.4929 C   0  0  0  0  0  0  0  0  0  0  0  0
    0.8492   -0.7156   -1.9702 C   0  0  0  0  0  0  0  0  0  0  0  0
    0.8492    0.6868   -1.3728 C   0  0  0  0  0  0  0  0  0  0  0  0
    0.8492    0.6868    0.1499 C   0  0  0  0  0  3  0  0  0  0  0  0
    1.7308   -0.2022   -3.8843 H   0  0  0  0  0  0  0  0  0  0  0  0
   -0.0323   -0.2022   -3.8843 H   0  0  0  0  0  0  0  0  0  0  0  0
    0.8492   -1.7307   -3.8933 H   0  0  0  0  0  0  0  0  0  0  0  0
   -0.0258   -1.2615   -1.6029 H   0  0  0  0  0  0  0  0  0  0  0  0
    1.7243   -1.2615   -1.6029 H   0  0  0  0  0  0  0  0  0  0  0  0
   -0.0258    1.2327   -1.7402 H   0  0  0  0  0  0  0  0  0  0  0  0
    1.7243    1.2327   -1.7402 H   0  0  0  0  0  0  0  0  0  0  0  0
    1.7308    0.1734    0.5412 H   0  0  0  0  0  0  0  0  0  0  0  0
   -0.2086    0.0708    0.6195 H   0  0  0  0  0  0  0  0  0  0  0  0
    0.8492    1.7019    0.5502 H   0  0  0  0  0  0  0  0  0  0  0  0
  1  2  1  0
  1  4  1  0
  1  5  1  0
  1  6  1  0
  2  3  1  0
  2  7  1  0
  2  8  1  0
  3 21  1  0
  9 10  1  0
  9 13  1  0
  9 14  1  0
  9 15  1  0
 10 11  1  0
 10 16  1  0
 10 17  1  0
 11 12  1  0
 11 18  1  0
 11 19  1  0
 12 20  1  0
 12 22  1  0
M  RAD  1  12   2
M  END
>  <reaction>  (7) 
rmg_rxn_371

>  <mol_properties>  (7) 
{"1": {"label": "*0", "atom_type": "Cs"}, "2": {"label": "*1", "atom_type": "O2s"}, "10": {"label": "*4", "atom_type": "Cs"}, "11": {"label": "*3", "atom_type": "Cs"}, "20": {"label": "*2", "atom_type": "H0"}}

>  <type>  (7) 
unop_3

>  <geom_source>  (7) 
Heuristics

$$$$

     RDKit          3D

 22 20  0  0  0  0  0  0  0  0999 V2000
   -1.7843   -0.9535   -0.1428 C   0  0  0  0  0  0  0  0  0  0  0  0
   -1.8830   -0.0036    1.0366 C   0  0  0  0  0  0  0  0  0  0  0  0
   -0.8243   -0.1631    1.9605 O   0  0  0  0  0  0  0  0  0  0  0  0
   -1.7525   -1.9881    0.2013 H   0  0  0  0  0  0  0  0  0  0  0  0
   -2.6425   -0.8332   -0.8071 H   0  0  0  0  0  0  0  0  0  0  0  0
   -0.8812   -0.7586   -0.7275 H   0  0  0  0  0  0  0  0  0  0  0  0
   -1.9352    1.0338    0.6821 H   0  0  0  0  0  0  0  0  0  0  0  0
   -2.7956   -0.1982    1.6018 H   0  0  0  0  0  0  0  0  0  0  0  0
    1.1615   -0.4091   -2.5638 C   0  0  0  0  0  0  0  0  0  0  0  0
    1.1615   -0.4091   -1.0412 C   0  0  0  0  0  0  0  0  0  0  0  0
    1.1615    0.9933   -0.4438 C   0  0  0  0  0  0  0  0  0  0  0  0
    1.1615    0.9933    1.0789 C   0  0  0  0  0  3  0  0  0  0  0  0
    2.0430    0.1042   -2.9552 H   0  0  0  0  0  0  0  0  0  0  0  0
    0.2799    0.1042   -2.9552 H   0  0  0  0  0  0  0  0  0  0  0  0
    1.1615   -1.4242   -2.9642 H   0  0  0  0  0  0  0  0  0  0  0  0
    0.2864   -0.9550   -0.6738 H   0  0  0  0  0  0  0  0  0  0  0  0
    2.0365   -0.9550   -0.6738 H   0  0  0  0  0  0  0  0  0  0  0  0
    0.2864    1.5392   -0.8111 H   0  0  0  0  0  0  0  0  0  0  0  0
    2.0365    1.5392   -0.8111 H   0  0  0  0  0  0  0  0  0  0  0  0
    2.0430    0.4799    1.4703 H   0  0  0  0  0  0  0  0  0  0  0  0
    0.1036    0.3772    1.5486 H   0  0  0  0  0  0  0  0  0  0  0  0
    1.1615    2.0084    1.4793 H   0  0  0  0  0  0  0  0  0  0  0  0
  1  2  1  0
  1  4  1  0
  1  5  1  0
  1  6  1  0
  2  3  1  0
  2  7  1  0
  2  8  1  0
  3 21  1  0
  9 10  1  0
  9 13  1  0
  9 14  1  0
  9 15  1  0
 10 11  1  0
 10 16  1  0
 10 17  1  0
 11 12  1  0
 11 18  1  0
 11 19  1  0
 12 20  1  0
 12 22  1  0
M  RAD  1  12   2
M  END
>  <reaction>  (8) 
rmg_rxn_371

>  <mol_properties>  (8) 
{"1": {"label": "*0", "atom_type": "Cs"}, "2": {"label": "*1", "atom_type": "O2s"}, "10": {"label": "*4", "atom_type": "Cs"}, "11": {"label": "*3", "atom_type": "Cs"}, "20": {"label": "*2", "atom_type": "H0"}}

>  <type>  (8) 
unop_4

>  <geom_source>  (8) 
Heuristics

$$$$

     RDKit          3D

 22 20  0  0  0  0  0  0  0  0999 V2000
   -2.1977    1.1372    2.2934 C   0  0  0  0  0  0  0  0  0  0  0  0
   -1.2147   -0.0113    2.4254 C   0  0  0  0  0  0  0  0  0  0  0  0
   -0.8751   -0.5896    1.1803 O   0  0  0  0  0  0  0  0  0  0  0  0
   -3.1044    0.8078    1.7841 H   0  0  0  0  0  0  0  0  0  0  0  0
   -2.4715    1.5250    3.2767 H   0  0  0  0  0  0  0  0  0  0  0  0
   -1.7626    1.9607    1.7206 H   0  0  0  0  0  0  0  0  0  0  0  0
   -0.3140    0.3222    2.9566 H   0  0  0  0  0  0  0  0  0  0  0  0
   -1.6552   -0.8188    3.0119 H   0  0  0  0  0  0  0  0  0  0  0  0
    1.1107   -0.8356   -3.3440 C   0  0  0  0  0  0  0  0  0  0  0  0
    1.1107   -0.8356   -1.8213 C   0  0  0  0  0  0  0  0  0  0  0  0
    1.1107    0.5668   -1.2240 C   0  0  0  0  0  0  0  0  0  0  0  0
    1.1107    0.5668    0.2987 C   0  0  0  0  0  3  0  0  0  0  0  0
    1.9922   -0.3222   -3.7354 H   0  0  0  0  0  0  0  0  0  0  0  0
    0.2291   -0.3222   -3.7354 H   0  0  0  0  0  0  0  0  0  0  0  0
    1.1107   -1.8507   -3.7444 H   0  0  0  0  0  0  0  0  0  0  0  0
    0.2356   -1.3814   -1.4540 H   0  0  0  0  0  0  0  0  0  0  0  0
    1.9857   -1.3814   -1.4540 H   0  0  0  0  0  0  0  0  0  0  0  0
    0.2356    1.1127   -1.5913 H   0  0  0  0  0  0  0  0  0  0  0  0
    1.9857    1.1127   -1.5913 H   0  0  0  0  0  0  0  0  0  0  0  0
    1.9922    0.0535    0.6901 H   0  0  0  0  0  0  0  0  0  0  0  0
    0.0528   -0.0492    0.7684 H   0  0  0  0  0  0  0  0  0  0  0  0
    1.1107    1.5819    0.6991 H   0  0  0  0  0  0  0  0  0  0  0  0
  1  2  1  0
  1  4  1  0
  1  5  1  0
  1  6  1  0
  2  3  1  0
  2  7  1  0
  2  8  1  0
  3 21  1  0
  9 10  1  0
  9 13  1  0
  9 14  1  0
  9 15  1  0
 10 11  1  0
 10 16  1  0
 10 17  1  0
 11 12  1  0
 11 18  1  0
 11 19  1  0
 12 20  1  0
 12 22  1  0
M  RAD  1  12   2
M  END
>  <reaction>  (9) 
rmg_rxn_371

>  <mol_properties>  (9) 
{"1": {"label": "*0", "atom_type": "Cs"}, "2": {"label": "*1", "atom_type": "O2s"}, "10": {"label": "*4", "atom_type": "Cs"}, "11": {"label": "*3", "atom_type": "Cs"}, "20": {"label": "*2", "atom_type": "H0"}}

>  <type>  (9) 
unop_5

>  <geom_source>  (9) 
Heuristics

$$$$

     RDKit          3D

 22 20  0  0  0  0  0  0  0  0999 V2000
   -2.4159   -0.2947    0.1025 C   0  0  0  0  0  0  0  0  0  0  0  0
   -1.8546    0.3105    1.3759 C   0  0  0  0  0  0  0  0  0  0  0  0
   -0.7007   -0.3617    1.8414 O   0  0  0  0  0  0  0  0  0  0  0  0
   -2.6431   -1.3515    0.2493 H   0  0  0  0  0  0  0  0  0  0  0  0
   -3.3307    0.2201   -0.1980 H   0  0  0  0  0  0  0  0  0  0  0  0
   -1.7005   -0.2087   -0.7199 H   0  0  0  0  0  0  0  0  0  0  0  0
   -1.6477    1.3780    1.2269 H   0  0  0  0  0  0  0  0  0  0  0  0
   -2.5838    0.2325    2.1835 H   0  0  0  0  0  0  0  0  0  0  0  0
    1.2850   -0.6077   -2.6829 C   0  0  0  0  0  0  0  0  0  0  0  0
    1.2850   -0.6077   -1.1602 C   0  0  0  0  0  0  0  0  0  0  0  0
    1.2850    0.7946   -0.5629 C   0  0  0  0  0  0  0  0  0  0  0  0
    1.2850    0.7946    0.9598 C   0  0  0  0  0  3  0  0  0  0  0  0
    2.1665   -0.0944   -3.0743 H   0  0  0  0  0  0  0  0  0  0  0  0
    0.4035   -0.0944   -3.0743 H   0  0  0  0  0  0  0  0  0  0  0  0
    1.2850   -1.6228   -3.0833 H   0  0  0  0  0  0  0  0  0  0  0  0
    0.4100   -1.1536   -0.7929 H   0  0  0  0  0  0  0  0  0  0  0  0
    2.1600   -1.1536   -0.7929 H   0  0  0  0  0  0  0  0  0  0  0  0
    0.4100    1.3405   -0.9302 H   0  0  0  0  0  0  0  0  0  0  0  0
    2.1600    1.3405   -0.9302 H   0  0  0  0  0  0  0  0  0  0  0  0
    2.1665    0.2813    1.3512 H   0  0  0  0  0  0  0  0  0  0  0  0
    0.2272    0.1786    1.4295 H   0  0  0  0  0  0  0  0  0  0  0  0
    1.2850    1.8097    1.3602 H   0  0  0  0  0  0  0  0  0  0  0  0
  1  2  1  0
  1  4  1  0
  1  5  1  0
  1  6  1  0
  2  3  1  0
  2  7  1  0
  2  8  1  0
  3 21  1  0
  9 10  1  0
  9 13  1  0
  9 14  1  0
  9 15  1  0
 10 11  1  0
 10 16  1  0
 10 17  1  0
 11 12  1  0
 11 18  1  0
 11 19  1  0
 12 20  1  0
 12 22  1  0
M  RAD  1  12   2
M  END
>  <reaction>  (10) 
rmg_rxn_371

>  <mol_properties>  (10) 
{"1": {"label": "*0", "atom_type": "Cs"}, "2": {"label": "*1", "atom_type": "O2s"}, "10": {"label": "*4", "atom_type": "Cs"}, "11": {"label": "*3", "atom_type": "Cs"}, "20": {"label": "*2", "atom_type": "H0"}}

>  <type>  (10) 
unop_6

>  <geom_source>  (10) 
Heuristics

$$$$

     RDKit          3D

 22 20  0  0  0  0  0  0  0  0999 V2000
   -2.7330    0.3690    0.6843 C   0  0  0  0  0  0  0  0  0  0  0  0
   -1.7033    0.4272    1.7974 C   0  0  0  0  0  0  0  0  0  0  0  0
   -0.6666   -0.5213    1.6368 O   0  0  0  0  0  0  0  0  0  0  0  0
   -3.1613   -0.6315    0.6115 H   0  0  0  0  0  0  0  0  0  0  0  0
   -3.5400    1.0812    0.8684 H   0  0  0  0  0  0  0  0  0  0  0  0
   -2.2817    0.6198   -0.2796 H   0  0  0  0  0  0  0  0  0  0  0  0
   -1.2917    1.4414    1.8781 H   0  0  0  0  0  0  0  0  0  0  0  0
   -2.1696    0.1907    2.7549 H   0  0  0  0  0  0  0  0  0  0  0  0
    1.3192   -0.7672   -2.8875 C   0  0  0  0  0  0  0  0  0  0  0  0
    1.3192   -0.7672   -1.3648 C   0  0  0  0  0  0  0  0  0  0  0  0
    1.3192    0.6351   -0.7675 C   0  0  0  0  0  0  0  0  0  0  0  0
    1.3192    0.6351    0.7552 C   0  0  0  0  0  3  0  0  0  0  0  0
    2.2007   -0.2539   -3.2789 H   0  0  0  0  0  0  0  0  0  0  0  0
    0.4377   -0.2539   -3.2789 H   0  0  0  0  0  0  0  0  0  0  0  0
    1.3192   -1.7823   -3.2879 H   0  0  0  0  0  0  0  0  0  0  0  0
    0.4441   -1.3131   -0.9975 H   0  0  0  0  0  0  0  0  0  0  0  0
    2.1942   -1.3131   -0.9975 H   0  0  0  0  0  0  0  0  0  0  0  0
    0.4441    1.1810   -1.1348 H   0  0  0  0  0  0  0  0  0  0  0  0
    2.1942    1.1810   -1.1348 H   0  0  0  0  0  0  0  0  0  0  0  0
    2.2007    0.1218    1.1466 H   0  0  0  0  0  0  0  0  0  0  0  0
    0.2614    0.0191    1.2249 H   0  0  0  0  0  0  0  0  0  0  0  0
    1.3192    1.6502    1.1556 H   0  0  0  0  0  0  0  0  0  0  0  0
  1  2  1  0
  1  4  1  0
  1  5  1  0
  1  6  1  0
  2  3  1  0
  2  7  1  0
  2  8  1  0
  3 21  1  0
  9 10  1  0
  9 13  1  0
  9 14  1  0
  9 15  1  0
 10 11  1  0
 10 16  1  0
 10 17  1  0
 11 12  1  0
 11 18  1  0
 11 19  1  0
 12 20  1  0
 12 22  1  0
M  RAD  1  12   2
M  END
>  <reaction>  (11) 
rmg_rxn_371

>  <mol_properties>  (11) 
{"1": {"label": "*0", "atom_type": "Cs"}, "2": {"label": "*1", "atom_type": "O2s"}, "10": {"label": "*4", "atom_type": "Cs"}, "11": {"label": "*3", "atom_type": "Cs"}, "20": {"label": "*2", "atom_type": "H0"}}

>  <type>  (11) 
unop_7

>  <geom_source>  (11) 
Heuristics

$$$$

     RDKit          3D

 22 20  0  0  0  0  0  0  0  0999 V2000
    0.4396   -0.9514    2.4144 C   0  0  0  0  0  0  0  0  0  0  0  0
   -1.0236   -1.0463    2.0234 C   0  0  0  0  0  0  0  0  0  0  0  0
   -1.4541    0.0472    1.2366 O   0  0  0  0  0  0  0  0  0  0  0  0
    0.6332   -0.0194    2.9472 H   0  0  0  0  0  0  0  0  0  0  0  0
    0.7210   -1.7865    3.0591 H   0  0  0  0  0  0  0  0  0  0  0  0
    1.0833   -0.9816    1.5311 H   0  0  0  0  0  0  0  0  0  0  0  0
   -1.2151   -1.9952    1.5061 H   0  0  0  0  0  0  0  0  0  0  0  0
   -1.6534   -1.0311    2.9140 H   0  0  0  0  0  0  0  0  0  0  0  0
    0.5317   -0.1988   -3.2877 C   0  0  0  0  0  0  0  0  0  0  0  0
    0.5317   -0.1988   -1.7650 C   0  0  0  0  0  0  0  0  0  0  0  0
    0.5317    1.2036   -1.1677 C   0  0  0  0  0  0  0  0  0  0  0  0
    0.5317    1.2036    0.3550 C   0  0  0  0  0  3  0  0  0  0  0  0
    1.4132    0.3146   -3.6791 H   0  0  0  0  0  0  0  0  0  0  0  0
   -0.3499    0.3146   -3.6791 H   0  0  0  0  0  0  0  0  0  0  0  0
    0.5317   -1.2139   -3.6881 H   0  0  0  0  0  0  0  0  0  0  0  0
   -0.3434   -0.7447   -1.3977 H   0  0  0  0  0  0  0  0  0  0  0  0
    1.4067   -0.7447   -1.3977 H   0  0  0  0  0  0  0  0  0  0  0  0
   -0.3434    1.7495   -1.5350 H   0  0  0  0  0  0  0  0  0  0  0  0
    1.4067    1.7495   -1.5350 H   0  0  0  0  0  0  0  0  0  0  0  0
    1.4132    0.6903    0.7464 H   0  0  0  0  0  0  0  0  0  0  0  0
   -0.5262    0.5876    0.8247 H   0  0  0  0  0  0  0  0  0  0  0  0
    0.5317    2.2187    0.7554 H   0  0  0  0  0  0  0  0  0  0  0  0
  1  2  1  0
  1  4  1  0
  1  5  1  0
  1  6  1  0
  2  3  1  0
  2  7  1  0
  2  8  1  0
  3 21  1  0
  9 10  1  0
  9 13  1  0
  9 14  1  0
  9 15  1  0
 10 11  1  0
 10 16  1  0
 10 17  1  0
 11 12  1  0
 11 18  1  0
 11 19  1  0
 12 20  1  0
 12 22  1  0
M  RAD  1  12   2
M  END
>  <reaction>  (12) 
rmg_rxn_371

>  <mol_properties>  (12) 
{"1": {"label": "*0", "atom_type": "Cs"}, "2": {"label": "*1", "atom_type": "O2s"}, "10": {"label": "*4", "atom_type": "Cs"}, "11": {"label": "*3", "atom_type": "Cs"}, "20": {"label": "*2", "atom_type": "H0"}}

>  <type>  (12) 
unop_8

>  <geom_source>  (12) 
Heuristics

$$$$

     RDKit          3D

 22 20  0  0  0  0  0  0  0  0999 V2000
    0.3822   -1.4577    1.6270 C   0  0  0  0  0  0  0  0  0  0  0  0
   -1.1114   -1.1895    1.6367 C   0  0  0  0  0  0  0  0  0  0  0  0
   -1.4247    0.1802    1.4762 O   0  0  0  0  0  0  0  0  0  0  0  0
    0.8802   -0.8756    2.4035 H   0  0  0  0  0  0  0  0  0  0  0  0
    0.5847   -2.5165    1.8011 H   0  0  0  0  0  0  0  0  0  0  0  0
    0.8215   -1.1894    0.6623 H   0  0  0  0  0  0  0  0  0  0  0  0
   -1.6082   -1.7937    0.8668 H   0  0  0  0  0  0  0  0  0  0  0  0
   -1.5395   -1.4762    2.5983 H   0  0  0  0  0  0  0  0  0  0  0  0
    0.5610   -0.0658   -3.0482 C   0  0  0  0  0  0  0  0  0  0  0  0
    0.5610   -0.0658   -1.5255 C   0  0  0  0  0  0  0  0  0  0  0  0
    0.5610    1.3366   -0.9281 C   0  0  0  0  0  0  0  0  0  0  0  0
    0.5610    1.3366    0.5946 C   0  0  0  0  0  3  0  0  0  0  0  0
    1.4426    0.4475   -3.4396 H   0  0  0  0  0  0  0  0  0  0  0  0
   -0.3205    0.4475   -3.4396 H   0  0  0  0  0  0  0  0  0  0  0  0
    0.5610   -1.0809   -3.4486 H   0  0  0  0  0  0  0  0  0  0  0  0
   -0.3140   -0.6117   -1.1582 H   0  0  0  0  0  0  0  0  0  0  0  0
    1.4361   -0.6117   -1.1582 H   0  0  0  0  0  0  0  0  0  0  0  0
   -0.3140    1.8824   -1.2955 H   0  0  0  0  0  0  0  0  0  0  0  0
    1.4361    1.8824   -1.2955 H   0  0  0  0  0  0  0  0  0  0  0  0
    1.4426    0.8232    0.9859 H   0  0  0  0  0  0  0  0  0  0  0  0
   -0.4968    0.7205    1.0642 H   0  0  0  0  0  0  0  0  0  0  0  0
    0.5610    2.3517    0.9949 H   0  0  0  0  0  0  0  0  0  0  0  0
  1  2  1  0
  1  4  1  0
  1  5  1  0
  1  6  1  0
  2  3  1  0
  2  7  1  0
  2  8  1  0
  3 21  1  0
  9 10  1  0
  9 13  1  0
  9 14  1  0
  9 15  1  0
 10 11  1  0
 10 16  1  0
 10 17  1  0
 11 12  1  0
 11 18  1  0
 11 19  1  0
 12 20  1  0
 12 22  1  0
M  RAD  1  12   2
M  END
>  <reaction>  (13) 
rmg_rxn_371

>  <mol_properties>  (13) 
{"1": {"label": "*0", "atom_type": "Cs"}, "2": {"label": "*1", "atom_type": "O2s"}, "10": {"label": "*4", "atom_type": "Cs"}, "11": {"label": "*3", "atom_type": "Cs"}, "20": {"label": "*2", "atom_type": "H0"}}

>  <type>  (13) 
unop_9

>  <geom_source>  (13) 
Heuristics

$$$$

     RDKit          3D

 22 20  0  0  0  0  0  0  0  0999 V2000
   -2.6825    0.8620    1.4649 C   0  0  0  0  0  0  0  0  0  0  0  0
   -1.4641    0.3147    2.1852 C   0  0  0  0  0  0  0  0  0  0  0  0
   -0.7254   -0.5993    1.3985 O   0  0  0  0  0  0  0  0  0  0  0  0
   -3.3335    0.0483    1.1424 H   0  0  0  0  0  0  0  0  0  0  0  0
   -3.2516    1.5251    2.1198 H   0  0  0  0  0  0  0  0  0  0  0  0
   -2.3896    1.4373    0.5824 H   0  0  0  0  0  0  0  0  0  0  0  0
   -0.8243    1.1395    2.5245 H   0  0  0  0  0  0  0  0  0  0  0  0
   -1.7693   -0.2431    3.0716 H   0  0  0  0  0  0  0  0  0  0  0  0
    1.2603   -0.8453   -3.1259 C   0  0  0  0  0  0  0  0  0  0  0  0
    1.2603   -0.8453   -1.6032 C   0  0  0  0  0  0  0  0  0  0  0  0
    1.2603    0.5571   -1.0058 C   0  0  0  0  0  0  0  0  0  0  0  0
    1.2603    0.5571    0.5169 C   0  0  0  0  0  3  0  0  0  0  0  0
    2.1419   -0.3319   -3.5173 H   0  0  0  0  0  0  0  0  0  0  0  0
    0.3788   -0.3319   -3.5173 H   0  0  0  0  0  0  0  0  0  0  0  0
    1.2603   -1.8604   -3.5263 H   0  0  0  0  0  0  0  0  0  0  0  0
    0.3853   -1.3912   -1.2359 H   0  0  0  0  0  0  0  0  0  0  0  0
    2.1354   -1.3912   -1.2359 H   0  0  0  0  0  0  0  0  0  0  0  0
    0.3853    1.1030   -1.3731 H   0  0  0  0  0  0  0  0  0  0  0  0
    2.1354    1.1030   -1.3731 H   0  0  0  0  0  0  0  0  0  0  0  0
    2.1419    0.0437    0.9082 H   0  0  0  0  0  0  0  0  0  0  0  0
    0.2025   -0.0589    0.9865 H   0  0  0  0  0  0  0  0  0  0  0  0
    1.2603    1.5722    0.9172 H   0  0  0  0  0  0  0  0  0  0  0  0
  1  2  1  0
  1  4  1  0
  1  5  1  0
  1  6  1  0
  2  3  1  0
  2  7  1  0
  2  8  1  0
  3 21  1  0
  9 10  1  0
  9 13  1  0
  9 14  1  0
  9 15  1  0
 10 11  1  0
 10 16  1  0
 10 17  1  0
 11 12  1  0
 11 18  1  0
 11 19  1  0
 12 20  1  0
 12 22  1  0
M  RAD  1  12   2
M  END
>  <reaction>  (14) 
rmg_rxn_371

>  <mol_properties>  (14) 
{"1": {"label": "*0", "atom_type": "Cs"}, "2": {"label": "*1", "atom_type": "O2s"}, "10": {"label": "*4", "atom_type": "Cs"}, "11": {"label": "*3", "atom_type": "Cs"}, "20": {"label": "*2", "atom_type": "H0"}}

>  <type>  (14) 
unop_10

>  <geom_source>  (14) 
Heuristics

$$$$

     RDKit          3D

 22 19  0  0  0  0  0  0  0  0999 V2000
   -0.3763   -1.5788    0.3370 C   0  0  0  0  0  3  0  0  0  0  0  0
   -1.5618   -0.8608    0.9548 C   0  0  0  0  0  3  0  0  0  0  0  0
   -1.1780    0.1388    1.8787 O   0  0  0  0  0  0  0  0  0  0  0  0
    0.2504   -2.0201    1.1132 H   0  0  0  0  0  0  0  0  0  0  0  0
   -0.7130   -2.3730   -0.3325 H   0  0  0  0  0  0  0  0  0  0  0  0
    0.2375   -0.8886   -0.2482 H   0  0  0  0  0  0  0  0  0  0  0  0
   -2.1984   -0.4371    0.1675 H   0  0  0  0  0  0  0  0  0  0  0  0
   -2.1739   -1.5632    1.5221 H   0  0  0  0  0  0  0  0  0  0  0  0
    0.8077   -0.1072   -2.6456 C   0  0  0  0  0  0  0  0  0  0  0  0
    0.8077   -0.1072   -1.1229 C   0  0  0  0  0  0  0  0  0  0  0  0
    0.8077    1.2952   -0.5256 C   0  0  0  0  0  0  0  0  0  0  0  0
    0.8077    1.2952    0.9971 C   0  0  0  0  0  3  0  0  0  0  0  0
    1.6892    0.4062   -3.0370 H   0  0  0  0  0  0  0  0  0  0  0  0
   -0.0738    0.4062   -3.0370 H   0  0  0  0  0  0  0  0  0  0  0  0
    0.8077   -1.1223   -3.0460 H   0  0  0  0  0  0  0  0  0  0  0  0
   -0.0673   -0.6531   -0.7556 H   0  0  0  0  0  0  0  0  0  0  0  0
    1.6827   -0.6531   -0.7556 H   0  0  0  0  0  0  0  0  0  0  0  0
   -0.0673    1.8411   -0.8929 H   0  0  0  0  0  0  0  0  0  0  0  0
    1.6827    1.8411   -0.8929 H   0  0  0  0  0  0  0  0  0  0  0  0
    1.6892    0.7818    1.3885 H   0  0  0  0  0  0  0  0  0  0  0  0
   -0.2501    0.6792    1.4668 H   0  0  0  0  0  0  0  0  0  0  0  0
    0.8077    2.3103    1.3975 H   0  0  0  0  0  0  0  0  0  0  0  0
  1  4  1  0
  1  5  1  0
  1  6  1  0
  2  3  1  0
  2  7  1  0
  2  8  1  0
  3 21  1  0
  9 10  1  0
  9 13  1  0
  9 14  1  0
  9 15  1  0
 10 11  1  0
 10 16  1  0
 10 17  1  0
 11 12  1  0
 11 18  1  0
 11 19  1  0
 12 20  1  0
 12 22  1  0
M  RAD  3   1   2   2   2  12   2
M  END
>  <reaction>  (15) 
rmg_rxn_371

>  <mol_properties>  (15) 
{"1": {"label": "*0", "atom_type": "Cs"}, "2": {"label": "*1", "atom_type": "O2s"}, "10": {"label": "*4", "atom_type": "Cs"}, "11": {"label": "*3", "atom_type": "Cs"}, "20": {"label": "*2", "atom_type": "H0"}}

>  <type>  (15) 
unop_11

>  <geom_source>  (15) 
Heuristics

$$$$

     RDKit          3D

 22 20  0  0  0  0  0  0  0  0999 V2000
    1.9192   -1.4839    0.0759 O   0  0  0  0  0  0  0  0  0  0  0  0
   -2.2363    0.2300   -0.4403 C   0  0  0  0  0  0  0  0  0  0  0  0
   -0.9916   -0.4050    0.1890 C   0  0  0  0  0  0  0  0  0  0  0  0
    2.5248   -0.4122    0.7406 C   0  0  0  0  0  0  0  0  0  0  0  0
   -2.9095    1.1981    0.5280 C   0  0  0  0  0  0  0  0  0  0  0  0
    3.0763    0.5869   -0.2671 C   0  0  0  0  0  0  0  0  0  0  0  0
   -0.3185   -1.3720   -0.7771 C   0  0  0  0  0  3  0  0  0  0  0  0
   -2.9629   -0.5646   -0.7179 H   0  0  0  0  0  0  0  0  0  0  0  0
   -1.9500    0.7832   -1.3614 H   0  0  0  0  0  0  0  0  0  0  0  0
   -0.2623    0.3867    0.4658 H   0  0  0  0  0  0  0  0  0  0  0  0
   -1.2748   -0.9606    1.1089 H   0  0  0  0  0  0  0  0  0  0  0  0
    3.3567   -0.8000    1.3654 H   0  0  0  0  0  0  0  0  0  0  0  0
    1.7891    0.0882    1.4076 H   0  0  0  0  0  0  0  0  0  0  0  0
    3.5753    1.4217    0.2687 H   0  0  0  0  0  0  0  0  0  0  0  0
    3.8169    0.0899   -0.9290 H   0  0  0  0  0  0  0  0  0  0  0  0
    2.2519    0.9997   -0.8864 H   0  0  0  0  0  0  0  0  0  0  0  0
   -3.2283    0.6640    1.4484 H   0  0  0  0  0  0  0  0  0  0  0  0
   -3.8061    1.6421    0.0465 H   0  0  0  0  0  0  0  0  0  0  0  0
   -2.2112    2.0175    0.8023 H   0  0  0  0  0  0  0  0  0  0  0  0
    0.0161   -0.8432   -1.6949 H   0  0  0  0  0  0  0  0  0  0  0  0
   -1.0055   -2.2026   -1.0459 H   0  0  0  0  0  0  0  0  0  0  0  0
    0.8308   -1.0639   -0.3270 H   0  0  0  0  0  0  0  0  0  0  0  0
  1  4  1  0
  1 22  1  0
  2  5  1  0
  2  3  1  0
  2  8  1  0
  2  9  1  0
  3  7  1  0
  3 10  1  0
  3 11  1  0
  4  6  1  0
  4 12  1  0
  4 13  1  0
  5 17  1  0
  5 18  1  0
  5 19  1  0
  6 14  1  0
  6 15  1  0
  6 16  1  0
  7 20  1  0
  7 21  1  0
M  RAD  1   7   2
M  END
>  <reaction>  (16) 
rmg_rxn_371

>  <mol_properties>  (16) 
{"1": {"label": "*0", "atom_type": "Cs"}, "2": {"label": "*1", "atom_type": "O2s"}, "10": {"label": "*4", "atom_type": "Cs"}, "11": {"label": "*3", "atom_type": "Cs"}, "20": {"label": "*2", "atom_type": "H0"}}

>  <type>  (16) 
unop_12

>  <geom_source>  (16) 
AutoTST

$$$$

     RDKit          3D

 22 20  0  0  0  0  0  0  0  0999 V2000
    0.0862   -1.6215    0.8973 C   0  0  0  0  0  0  0  0  0  0  0  0
   -1.3089   -1.1328    1.2404 C   0  0  0  0  0  0  0  0  0  0  0  0
   -1.3241    0.2025    1.7060 O   0  0  0  0  0  0  0  0  0  0  0  0
    0.7471   -1.5279    1.7600 H   0  0  0  0  0  0  0  0  0  0  0  0
    0.0625   -2.6686    0.5883 H   0  0  0  0  0  0  0  0  0  0  0  0
    0.5125   -1.0415    0.0742 H   0  0  0  0  0  0  0  0  0  0  0  0
   -1.9730   -1.2490    0.3744 H   0  0  0  0  0  0  0  0  0  0  0  0
   -1.7283   -1.7296    2.0515 H   0  0  0  0  0  0  0  0  0  0  0  0
    0.6616   -0.0435   -2.8184 C   0  0  0  0  0  0  0  0  0  0  0  0
    0.6616   -0.0435   -1.2957 C   0  0  0  0  0  0  0  0  0  0  0  0
    0.6616    1.3589   -0.6983 C   0  0  0  0  0  0  0  0  0  0  0  0
    0.6616    1.3589    0.8244 C   0  0  0  0  0  3  0  0  0  0  0  0
    1.5432    0.4699   -3.2098 H   0  0  0  0  0  0  0  0  0  0  0  0
   -0.2199    0.4699   -3.2098 H   0  0  0  0  0  0  0  0  0  0  0  0
    0.6616   -1.0586   -3.2188 H   0  0  0  0  0  0  0  0  0  0  0  0
   -0.2134   -0.5894   -0.9284 H   0  0  0  0  0  0  0  0  0  0  0  0
    1.5367   -0.5894   -0.9284 H   0  0  0  0  0  0  0  0  0  0  0  0
   -0.2134    1.9048   -1.0656 H   0  0  0  0  0  0  0  0  0  0  0  0
    1.5367    1.9048   -1.0656 H   0  0  0  0  0  0  0  0  0  0  0  0
    1.5432    0.8455    1.2157 H   0  0  0  0  0  0  0  0  0  0  0  0
   -0.3962    0.7429    1.2940 H   0  0  0  0  0  0  0  0  0  0  0  0
    0.6616    2.3740    1.2247 H   0  0  0  0  0  0  0  0  0  0  0  0
  1  2  1  0
  1  4  1  0
  1  5  1  0
  1  6  1  0
  2  3  1  0
  2  7  1  0
  2  8  1  0
  3 21  1  0
  9 10  1  0
  9 13  1  0
  9 14  1  0
  9 15  1  0
 10 11  1  0
 10 16  1  0
 10 17  1  0
 11 12  1  0
 11 18  1  0
 11 19  1  0
 12 20  1  0
 12 22  1  0
M  RAD  1  12   2
M  END
>  <reaction>  (17) 
rmg_rxn_371

>  <mol_properties>  (17) 
{"1": {"label": "*0", "atom_type": "Cs"}, "2": {"label": "*1", "atom_type": "O2s"}, "10": {"label": "*4", "atom_type": "Cs"}, "11": {"label": "*3", "atom_type": "Cs"}, "20": {"label": "*2", "atom_type": "H0"}}

>  <type>  (17) 
unop_13

>  <geom_source>  (17) 
gaussian_log

$$$$
