
     RDKit          3D

 15 14  0  0  0  0  0  0  0  0999 V2000
   -1.2811   -0.4129    1.0228 C   0  0  0  0  0  0  0  0  0  0  0  0
   -1.0023   -0.5809   -0.4650 C   0  0  0  0  0  0  0  0  0  0  0  0
   -2.0576    0.0568   -1.3449 C   0  0  0  0  0  0  0  0  0  0  0  0
   -2.0663    1.4464   -1.1307 O   0  0  0  0  0  0  0  0  0  0  0  0
   -3.0424    2.1072   -1.8849 C   0  0  0  0  0  0  0  0  0  0  0  0
   -2.2382   -0.8657    1.2935 H   0  0  0  0  0  0  0  0  0  0  0  0
   -1.3219    0.6426    1.2914 H   0  0  0  0  0  0  0  0  0  0  0  0
   -0.5042   -0.8881    1.6236 H   0  0  0  0  0  0  0  0  0  0  0  0
   -0.0316   -0.1460   -0.7167 H   0  0  0  0  0  0  0  0  0  0  0  0
   -0.9494   -1.6429   -0.7203 H   0  0  0  0  0  0  0  0  0  0  0  0
   -1.8518   -0.1570   -2.4041 H   0  0  0  0  0  0  0  0  0  0  0  0
   -3.0491   -0.3636   -1.1124 H   0  0  0  0  0  0  0  0  0  0  0  0
   -4.0521    1.7545   -1.6343 H   0  0  0  0  0  0  0  0  0  0  0  0
   -2.8850    1.9634   -2.9626 H   0  0  0  0  0  0  0  0  0  0  0  0
   -2.9730    3.1700   -1.6570 H   0  0  0  0  0  0  0  0  0  0  0  0
  1  2  1  0
  1  6  1  0
  1  7  1  0
  1  8  1  0
  2  3  1  0
  2  9  1  0
  2 10  1  0
  3  4  1  0
  3 11  1  0
  3 12  1  0
  4  5  1  0
  5 13  1  0
  5 14  1  0
  5 15  1  0
M  END
>  <reaction>  (1) 
rmg_rxn_662

>  <mol_properties>  (1) 
{"4": {"label": "donator", "atom_type": "Cs"}, "12": {"label": "d_hydrogen", "atom_type": "H0"}}

>  <type>  (1) 
r1h

$$$$

     RDKit          3D

 17 16  0  0  0  0  0  0  0  0999 V2000
    2.3128   -0.1525    1.1777 C   0  0  0  0  0  3  0  0  0  0  0  0
    1.7469    0.7266    0.1254 C   0  0  0  0  0  0  0  0  0  0  0  0
    1.6374    2.1830    0.5408 C   0  0  0  0  0  0  0  0  0  0  0  0
    2.9245    2.6874    0.7877 O   0  0  0  0  0  0  0  0  0  0  0  0
    2.9227    4.0197    1.2361 C   0  0  0  0  0  0  0  0  0  0  0  0
    4.3491    4.4603    1.4693 C   0  0  0  0  0  0  0  0  0  0  0  0
    2.1393   -1.2196    1.1557 H   0  0  0  0  0  0  0  0  0  0  0  0
    3.0313    0.2400    1.8838 H   0  0  0  0  0  0  0  0  0  0  0  0
    0.7555    0.3746   -0.1764 H   0  0  0  0  0  0  0  0  0  0  0  0
    2.3678    0.6841   -0.7826 H   0  0  0  0  0  0  0  0  0  0  0  0
    1.0170    2.2718    1.4449 H   0  0  0  0  0  0  0  0  0  0  0  0
    1.1499    2.7653   -0.2546 H   0  0  0  0  0  0  0  0  0  0  0  0
    2.4379    4.6655    0.4891 H   0  0  0  0  0  0  0  0  0  0  0  0
    2.3377    4.1015    2.1638 H   0  0  0  0  0  0  0  0  0  0  0  0
    4.9261    4.3920    0.5465 H   0  0  0  0  0  0  0  0  0  0  0  0
    4.3728    5.4939    1.8180 H   0  0  0  0  0  0  0  0  0  0  0  0
    4.8260    3.8299    2.2206 H   0  0  0  0  0  0  0  0  0  0  0  0
  1  2  1  0
  1  7  1  0
  1  8  1  0
  2  3  1  0
  2  9  1  0
  2 10  1  0
  3  4  1  0
  3 11  1  0
  3 12  1  0
  4  5  1  0
  5  6  1  0
  5 13  1  0
  5 14  1  0
  6 15  1  0
  6 16  1  0
  6 17  1  0
M  RAD  1   1   2
M  END
>  <reaction>  (2) 
rmg_rxn_662

>  <mol_properties>  (2) 
{"0": {"label": "acceptor", "atom_type": "Cs"}}

>  <type>  (2) 
r2

$$$$

     RDKit          3D

 18 17  0  0  0  0  0  0  0  0999 V2000
    2.2026   -0.7213   -0.2612 C   0  0  0  0  0  0  0  0  0  0  0  0
    1.5384    0.2638    0.6915 C   0  0  0  0  0  0  0  0  0  0  0  0
    2.2584    1.5946    0.7694 C   0  0  0  0  0  0  0  0  0  0  0  0
    2.2212    2.2185   -0.4893 O   0  0  0  0  0  0  0  0  0  0  0  0
    2.8988    3.4488   -0.5204 C   0  0  0  0  0  0  0  0  0  0  0  0
    2.7981    4.0296   -1.9118 C   0  0  0  0  0  0  0  0  0  0  0  0
    3.2294   -0.9309    0.0486 H   0  0  0  0  0  0  0  0  0  0  0  0
    2.2338   -0.3181   -1.2734 H   0  0  0  0  0  0  0  0  0  0  0  0
    1.6610   -1.6680   -0.2875 H   0  0  0  0  0  0  0  0  0  0  0  0
    1.4990   -0.1566    1.7002 H   0  0  0  0  0  0  0  0  0  0  0  0
    0.5055    0.4455    0.3835 H   0  0  0  0  0  0  0  0  0  0  0  0
    3.3038    1.4410    1.0808 H   0  0  0  0  0  0  0  0  0  0  0  0
    1.7844    2.2410    1.5226 H   0  0  0  0  0  0  0  0  0  0  0  0
    2.4596    4.1376    0.2164 H   0  0  0  0  0  0  0  0  0  0  0  0
    3.9524    3.3035   -0.2397 H   0  0  0  0  0  0  0  0  0  0  0  0
    1.7543    4.1869   -2.1856 H   0  0  0  0  0  0  0  0  0  0  0  0
    3.2472    3.3545   -2.6411 H   0  0  0  0  0  0  0  0  0  0  0  0
    3.3178    4.9878   -1.9600 H   0  0  0  0  0  0  0  0  0  0  0  0
  1  2  1  0
  1  7  1  0
  1  8  1  0
  1  9  1  0
  2  3  1  0
  2 10  1  0
  2 11  1  0
  3  4  1  0
  3 12  1  0
  3 13  1  0
  4  5  1  0
  5  6  1  0
  5 14  1  0
  5 15  1  0
  6 16  1  0
  6 17  1  0
  6 18  1  0
M  END
>  <reaction>  (3) 
rmg_rxn_662

>  <mol_properties>  (3) 
{"0": {"label": "a_hydrogen", "atom_type": "H0"}, "1": {"label": "acceptor", "atom_type": "Cs"}}

>  <type>  (3) 
r2h

$$$$

     RDKit          3D

 32 30  0  0  0  0  0  0  0  0999 V2000
   -0.4594   -3.5295   -2.6180 C   0  0  0  0  0  0  0  0  0  0  0  0
   -0.4589   -4.1442   -1.2246 C   0  0  0  0  0  0  0  0  0  0  0  0
   -0.6652   -3.1220   -0.1273 C   0  0  0  0  0  0  0  0  0  0  0  0
   -1.9476   -2.5491   -0.2595 O   0  0  0  0  0  0  0  0  0  0  0  0
   -2.1988   -1.5423    0.6462 C   0  0  0  0  0  0  0  0  0  0  0  0
    0.3364   -2.7867   -2.7159 H   0  0  0  0  0  0  0  0  0  0  0  0
   -1.4080   -3.0324   -2.8210 H   0  0  0  0  0  0  0  0  0  0  0  0
   -0.3026   -4.2908   -3.3833 H   0  0  0  0  0  0  0  0  0  0  0  0
   -1.2420   -4.9027   -1.1467 H   0  0  0  0  0  0  0  0  0  0  0  0
    0.4920   -4.6502   -1.0365 H   0  0  0  0  0  0  0  0  0  0  0  0
   -0.5732   -3.5900    0.8628 H   0  0  0  0  0  0  0  0  0  0  0  0
    0.0979   -2.3338   -0.1945 H   0  0  0  0  0  0  0  0  0  0  0  0
   -1.4389   -0.5085    0.3543 H   0  0  0  0  0  0  0  0  0  0  0  0
   -1.9462   -1.8060    1.6806 H   0  0  0  0  0  0  0  0  0  0  0  0
   -3.2262   -1.2013    0.5395 H   0  0  0  0  0  0  0  0  0  0  0  0
   -0.5612    0.5099   -0.0147 C   0  0  0  0  0  3  0  0  0  0  0  0
    0.5236    0.5458    1.0280 C   0  0  0  0  0  0  0  0  0  0  0  0
    1.5795    1.6098    0.7745 C   0  0  0  0  0  0  0  0  0  0  0  0
    0.9835    2.8791    0.8466 O   0  0  0  0  0  0  0  0  0  0  0  0
    1.8797    3.9294    0.5861 C   0  0  0  0  0  0  0  0  0  0  0  0
    1.1397    5.2427    0.6909 C   0  0  0  0  0  0  0  0  0  0  0  0
   -1.1895    1.3963   -0.0495 H   0  0  0  0  0  0  0  0  0  0  0  0
   -0.2344    0.2012   -1.0076 H   0  0  0  0  0  0  0  0  0  0  0  0
    1.0330   -0.4220    1.0762 H   0  0  0  0  0  0  0  0  0  0  0  0
    0.0905    0.7245    2.0163 H   0  0  0  0  0  0  0  0  0  0  0  0
    2.0339    1.4613   -0.2171 H   0  0  0  0  0  0  0  0  0  0  0  0
    2.3841    1.5291    1.5212 H   0  0  0  0  0  0  0  0  0  0  0  0
    2.7126    3.8990    1.3043 H   0  0  0  0  0  0  0  0  0  0  0  0
    2.3134    3.8114   -0.4178 H   0  0  0  0  0  0  0  0  0  0  0  0
    0.7215    5.3671    1.6904 H   0  0  0  0  0  0  0  0  0  0  0  0
    1.8166    6.0750    0.4918 H   0  0  0  0  0  0  0  0  0  0  0  0
    0.3231    5.2794   -0.0309 H   0  0  0  0  0  0  0  0  0  0  0  0
  1  2  1  0
  1  6  1  0
  1  7  1  0
  1  8  1  0
  2  3  1  0
  2  9  1  0
  2 10  1  0
  3  4  1  0
  3 11  1  0
  3 12  1  0
  4  5  1  0
  5 13  1  0
  5 14  1  0
  5 15  1  0
 16 17  1  0
 16 22  1  0
 16 23  1  0
 17 18  1  0
 17 24  1  0
 17 25  1  0
 18 19  1  0
 18 26  1  0
 18 27  1  0
 19 20  1  0
 20 21  1  0
 20 28  1  0
 20 29  1  0
 21 30  1  0
 21 31  1  0
 21 32  1  0
M  RAD  1  16   2
M  END
>  <reaction>  (4) 
rmg_rxn_662

>  <mol_properties>  (4) 
{"3": {"label": "*0", "atom_type": "O2s"}, "4": {"label": "*1", "atom_type": "Cs"}, "12": {"label": "*2", "atom_type": "H0"}, "15": {"label": "*3", "atom_type": "Cs"}, "16": {"label": "*4", "atom_type": "Cs"}}

>  <type>  (4) 
ts

$$$$

     RDKit          3D

 32 30  0  0  0  0  0  0  0  0999 V2000
   -0.8583   -4.3991   -1.0155 C   0  0  0  0  0  0  0  0  0  0  0  0
   -0.8583   -4.3991    0.5074 C   0  0  0  0  0  0  0  0  0  0  0  0
   -0.8583   -3.0066    1.1034 C   0  0  0  0  0  0  0  0  0  0  0  0
   -2.0434   -2.3431    0.7393 O   0  0  0  0  0  0  0  0  0  0  0  0
   -2.1042   -1.0320    1.2244 C   0  0  0  0  0  3  0  0  0  0  0  0
    0.0240   -3.8855   -1.4053 H   0  0  0  0  0  0  0  0  0  0  0  0
   -1.7408   -3.8892   -1.4020 H   0  0  0  0  0  0  0  0  0  0  0  0
   -0.8534   -5.4171   -1.4078 H   0  0  0  0  0  0  0  0  0  0  0  0
   -1.7324   -4.9373    0.8830 H   0  0  0  0  0  0  0  0  0  0  0  0
    0.0234   -4.9253    0.8836 H   0  0  0  0  0  0  0  0  0  0  0  0
   -0.7815   -3.0603    2.1995 H   0  0  0  0  0  0  0  0  0  0  0  0
    0.0140   -2.4395    0.7412 H   0  0  0  0  0  0  0  0  0  0  0  0
   -1.1155   -0.2969    0.7557 H   0  0  0  0  0  0  0  0  0  0  0  0
   -2.0622   -1.0059    2.3219 H   0  0  0  0  0  0  0  0  0  0  0  0
   -3.0498   -0.6019    0.8973 H   0  0  0  0  0  0  0  0  0  0  0  0
   -0.1335    0.4331    0.2901 C   0  0  0  0  0  0  0  0  0  0  0  0
   -0.6620    1.6216   -0.5020 C   0  0  0  0  0  0  0  0  0  0  0  0
    0.1193    2.8961   -0.2559 C   0  0  0  0  0  0  0  0  0  0  0  0
    1.4435    2.7224   -0.6933 O   0  0  0  0  0  0  0  0  0  0  0  0
    2.2548    3.8475   -0.4709 C   0  0  0  0  0  0  0  0  0  0  0  0
    3.6492    3.5544   -0.9741 C   0  0  0  0  0  0  0  0  0  0  0  0
    0.9036    0.2247    0.0277 H   0  0  0  0  0  0  0  0  0  0  0  0
   -0.1749    0.6313    1.3641 H   0  0  0  0  0  0  0  0  0  0  0  0
   -1.7069    1.8124   -0.2421 H   0  0  0  0  0  0  0  0  0  0  0  0
   -0.6371    1.4004   -1.5722 H   0  0  0  0  0  0  0  0  0  0  0  0
    0.1086    3.1447    0.8172 H   0  0  0  0  0  0  0  0  0  0  0  0
   -0.3451    3.7374   -0.7910 H   0  0  0  0  0  0  0  0  0  0  0  0
    1.8346    4.7216   -0.9901 H   0  0  0  0  0  0  0  0  0  0  0  0
    2.2760    4.0879    0.6023 H   0  0  0  0  0  0  0  0  0  0  0  0
    3.6310    3.3294   -2.0411 H   0  0  0  0  0  0  0  0  0  0  0  0
    4.2986    4.4162   -0.8122 H   0  0  0  0  0  0  0  0  0  0  0  0
    4.0728    2.6975   -0.4490 H   0  0  0  0  0  0  0  0  0  0  0  0
  1  2  1  0
  1  6  1  0
  1  7  1  0
  1  8  1  0
  2  3  1  0
  2  9  1  0
  2 10  1  0
  3  4  1  0
  3 11  1  0
  3 12  1  0
  4  5  1  0
  5 14  1  0
  5 15  1  0
 13 16  1  0
 16 17  1  0
 16 22  1  0
 16 23  1  0
 17 18  1  0
 17 24  1  0
 17 25  1  0
 18 19  1  0
 18 26  1  0
 18 27  1  0
 19 20  1  0
 20 21  1  0
 20 28  1  0
 20 29  1  0
 21 30  1  0
 21 31  1  0
 21 32  1  0
M  RAD  1   5   2
M  END
>  <reaction>  (5) 
rmg_rxn_662

>  <mol_properties>  (5) 
{"3": {"label": "*0", "atom_type": "O2s"}, "4": {"label": "*1", "atom_type": "Cs"}, "12": {"label": "*2", "atom_type": "H0"}, "15": {"label": "*3", "atom_type": "Cs"}, "16": {"label": "*4", "atom_type": "Cs"}}

>  <type>  (5) 
unop_1

>  <geom_source>  (5) 
Heuristics

$$$$

     RDKit          3D

 32 30  0  0  0  0  0  0  0  0999 V2000
   -1.2468   -3.6973   -0.6479 C   0  0  0  0  0  0  0  0  0  0  0  0
   -1.2468   -3.6973    0.8750 C   0  0  0  0  0  0  0  0  0  0  0  0
   -1.2468   -2.3047    1.4710 C   0  0  0  0  0  0  0  0  0  0  0  0
   -2.4318   -1.6413    1.1069 O   0  0  0  0  0  0  0  0  0  0  0  0
   -2.4926   -0.3302    1.5920 C   0  0  0  0  0  3  0  0  0  0  0  0
   -0.3644   -3.1836   -1.0376 H   0  0  0  0  0  0  0  0  0  0  0  0
   -2.1292   -3.1874   -1.0343 H   0  0  0  0  0  0  0  0  0  0  0  0
   -1.2419   -4.7153   -1.0402 H   0  0  0  0  0  0  0  0  0  0  0  0
   -2.1209   -4.2354    1.2506 H   0  0  0  0  0  0  0  0  0  0  0  0
   -0.3650   -4.2234    1.2512 H   0  0  0  0  0  0  0  0  0  0  0  0
   -1.1699   -2.3584    2.5671 H   0  0  0  0  0  0  0  0  0  0  0  0
   -0.3744   -1.7377    1.1088 H   0  0  0  0  0  0  0  0  0  0  0  0
   -1.5039    0.4049    1.1233 H   0  0  0  0  0  0  0  0  0  0  0  0
   -2.4506   -0.3040    2.6895 H   0  0  0  0  0  0  0  0  0  0  0  0
   -3.4383    0.1000    1.2649 H   0  0  0  0  0  0  0  0  0  0  0  0
   -0.5220    1.1350    0.6577 C   0  0  0  0  0  0  0  0  0  0  0  0
   -0.0918    0.6586   -0.7233 C   0  0  0  0  0  0  0  0  0  0  0  0
    0.7048    1.6949   -1.4893 C   0  0  0  0  0  0  0  0  0  0  0  0
    1.9019    1.9625   -0.8034 O   0  0  0  0  0  0  0  0  0  0  0  0
    2.6922    2.9431   -1.4258 C   0  0  0  0  0  0  0  0  0  0  0  0
    3.9469    3.1528   -0.6102 C   0  0  0  0  0  0  0  0  0  0  0  0
    0.3462    1.3824    1.2685 H   0  0  0  0  0  0  0  0  0  0  0  0
   -1.1468    2.0287    0.5845 H   0  0  0  0  0  0  0  0  0  0  0  0
   -0.9693    0.3991   -1.3221 H   0  0  0  0  0  0  0  0  0  0  0  0
    0.5117   -0.2485   -0.6363 H   0  0  0  0  0  0  0  0  0  0  0  0
    0.1179    2.6211   -1.5942 H   0  0  0  0  0  0  0  0  0  0  0  0
    0.9268    1.3319   -2.5036 H   0  0  0  0  0  0  0  0  0  0  0  0
    2.9467    2.6265   -2.4482 H   0  0  0  0  0  0  0  0  0  0  0  0
    2.1264    3.8827   -1.5095 H   0  0  0  0  0  0  0  0  0  0  0  0
    4.5155    2.2250   -0.5383 H   0  0  0  0  0  0  0  0  0  0  0  0
    4.5780    3.9115   -1.0756 H   0  0  0  0  0  0  0  0  0  0  0  0
    3.6962    3.4817    0.3989 H   0  0  0  0  0  0  0  0  0  0  0  0
  1  2  1  0
  1  6  1  0
  1  7  1  0
  1  8  1  0
  2  3  1  0
  2  9  1  0
  2 10  1  0
  3  4  1  0
  3 11  1  0
  3 12  1  0
  4  5  1  0
  5 14  1  0
  5 15  1  0
 13 16  1  0
 16 17  1  0
 16 22  1  0
 16 23  1  0
 17 18  1  0
 17 24  1  0
 17 25  1  0
 18 19  1  0
 18 26  1  0
 18 27  1  0
 19 20  1  0
 20 21  1  0
 20 28  1  0
 20 29  1  0
 21 30  1  0
 21 31  1  0
 21 32  1  0
M  RAD  1   5   2
M  END
>  <reaction>  (6) 
rmg_rxn_662

>  <mol_properties>  (6) 
{"3": {"label": "*0", "atom_type": "O2s"}, "4": {"label": "*1", "atom_type": "Cs"}, "12": {"label": "*2", "atom_type": "H0"}, "15": {"label": "*3", "atom_type": "Cs"}, "16": {"label": "*4", "atom_type": "Cs"}}

>  <type>  (6) 
unop_2

>  <geom_source>  (6) 
Heuristics

$$$$

     RDKit          3D

 32 30  0  0  0  0  0  0  0  0999 V2000
   -0.9566   -4.3409   -1.0364 C   0  0  0  0  0  0  0  0  0  0  0  0
   -0.9566   -4.3409    0.4865 C   0  0  0  0  0  0  0  0  0  0  0  0
   -0.9566   -2.9483    1.0825 C   0  0  0  0  0  0  0  0  0  0  0  0
   -2.1416   -2.2849    0.7184 O   0  0  0  0  0  0  0  0  0  0  0  0
   -2.2024   -0.9738    1.2035 C   0  0  0  0  0  3  0  0  0  0  0  0
   -0.0742   -3.8272   -1.4261 H   0  0  0  0  0  0  0  0  0  0  0  0
   -1.8390   -3.8310   -1.4228 H   0  0  0  0  0  0  0  0  0  0  0  0
   -0.9517   -5.3589   -1.4287 H   0  0  0  0  0  0  0  0  0  0  0  0
   -1.8307   -4.8790    0.8621 H   0  0  0  0  0  0  0  0  0  0  0  0
   -0.0749   -4.8670    0.8627 H   0  0  0  0  0  0  0  0  0  0  0  0
   -0.8798   -3.0020    2.1786 H   0  0  0  0  0  0  0  0  0  0  0  0
   -0.0842   -2.3813    0.7203 H   0  0  0  0  0  0  0  0  0  0  0  0
   -1.2137   -0.2387    0.7348 H   0  0  0  0  0  0  0  0  0  0  0  0
   -2.1604   -0.9476    2.3010 H   0  0  0  0  0  0  0  0  0  0  0  0
   -3.1481   -0.5436    0.8764 H   0  0  0  0  0  0  0  0  0  0  0  0
   -0.2318    0.4914    0.2692 C   0  0  0  0  0  0  0  0  0  0  0  0
   -0.6439    1.9526    0.1502 C   0  0  0  0  0  0  0  0  0  0  0  0
    0.5167    2.9135    0.3085 C   0  0  0  0  0  0  0  0  0  0  0  0
    1.4386    2.7056   -0.7316 O   0  0  0  0  0  0  0  0  0  0  0  0
    2.5706    3.5331   -0.6450 C   0  0  0  0  0  0  0  0  0  0  0  0
    3.4912    3.2284   -1.8039 C   0  0  0  0  0  0  0  0  0  0  0  0
    0.5002    0.2331   -0.4960 H   0  0  0  0  0  0  0  0  0  0  0  0
    0.2178    0.2916    1.2451 H   0  0  0  0  0  0  0  0  0  0  0  0
   -1.3889    2.1968    0.9125 H   0  0  0  0  0  0  0  0  0  0  0  0
   -1.1133    2.1323   -0.8205 H   0  0  0  0  0  0  0  0  0  0  0  0
    1.0079    2.7557    1.2818 H   0  0  0  0  0  0  0  0  0  0  0  0
    0.1568    3.9526    0.2887 H   0  0  0  0  0  0  0  0  0  0  0  0
    2.2652    4.5898   -0.6641 H   0  0  0  0  0  0  0  0  0  0  0  0
    3.0870    3.3628    0.3113 H   0  0  0  0  0  0  0  0  0  0  0  0
    2.9846    3.4102   -2.7524 H   0  0  0  0  0  0  0  0  0  0  0  0
    4.3791    3.8609   -1.7579 H   0  0  0  0  0  0  0  0  0  0  0  0
    3.8070    2.1849   -1.7770 H   0  0  0  0  0  0  0  0  0  0  0  0
  1  2  1  0
  1  6  1  0
  1  7  1  0
  1  8  1  0
  2  3  1  0
  2  9  1  0
  2 10  1  0
  3  4  1  0
  3 11  1  0
  3 12  1  0
  4  5  1  0
  5 14  1  0
  5 15  1  0
 13 16  1  0
 16 17  1  0
 16 22  1  0
 16 23  1  0
 17 18  1  0
 17 24  1  0
 17 25  1  0
 18 19  1  0
 18 26  1  0
 18 27  1  0
 19 20  1  0
 20 21  1  0
 20 28  1  0
 20 29  1  0
 21 30  1  0
 21 31  1  0
 21 32  1  0
M  RAD  1   5   2
M  END
>  <reaction>  (7) 
rmg_rxn_662

>  <mol_properties>  (7) 
{"3": {"label": "*0", "atom_type": "O2s"}, "4": {"label": "*1", "atom_type": "Cs"}, "12": {"label": "*2", "atom_type": "H0"}, "15": {"label": "*3", "atom_type": "Cs"}, "16": {"label": "*4", "atom_type": "Cs"}}

>  <type>  (7) 
unop_3

>  <geom_source>  (7) 
Heuristics

$$$$

     RDKit          3D

 32 30  0  0  0  0  0  0  0  0999 V2000
   -1.1964   -3.8892   -2.1011 C   0  0  0  0  0  0  0  0  0  0  0  0
   -1.1964   -3.8892   -0.5782 C   0  0  0  0  0  0  0  0  0  0  0  0
   -1.1964   -2.4967    0.0178 C   0  0  0  0  0  0  0  0  0  0  0  0
   -2.3815   -1.8332   -0.3463 O   0  0  0  0  0  0  0  0  0  0  0  0
   -2.4423   -0.5221    0.1389 C   0  0  0  0  0  3  0  0  0  0  0  0
   -0.3140   -3.3756   -2.4908 H   0  0  0  0  0  0  0  0  0  0  0  0
   -2.0789   -3.3793   -2.4875 H   0  0  0  0  0  0  0  0  0  0  0  0
   -1.1915   -4.9072   -2.4934 H   0  0  0  0  0  0  0  0  0  0  0  0
   -2.0705   -4.4274   -0.2026 H   0  0  0  0  0  0  0  0  0  0  0  0
   -0.3147   -4.4154   -0.2020 H   0  0  0  0  0  0  0  0  0  0  0  0
   -1.1196   -2.5504    1.1139 H   0  0  0  0  0  0  0  0  0  0  0  0
   -0.3240   -1.9296   -0.3444 H   0  0  0  0  0  0  0  0  0  0  0  0
   -1.4536    0.2130   -0.3299 H   0  0  0  0  0  0  0  0  0  0  0  0
   -2.4003   -0.4960    1.2363 H   0  0  0  0  0  0  0  0  0  0  0  0
   -3.3879   -0.0920   -0.1883 H   0  0  0  0  0  0  0  0  0  0  0  0
   -0.4716    0.9430   -0.7955 C   0  0  0  0  0  0  0  0  0  0  0  0
    0.8790    0.3658   -0.3932 C   0  0  0  0  0  0  0  0  0  0  0  0
    1.9465    1.4242   -0.2043 C   0  0  0  0  0  0  0  0  0  0  0  0
    1.5792    2.2723    0.8544 O   0  0  0  0  0  0  0  0  0  0  0  0
    2.4981    3.3108    1.0795 C   0  0  0  0  0  0  0  0  0  0  0  0
    2.0089    4.1581    2.2312 C   0  0  0  0  0  0  0  0  0  0  0  0
   -0.8392    1.6316   -0.0348 H   0  0  0  0  0  0  0  0  0  0  0  0
   -0.3957    1.4924   -1.7372 H   0  0  0  0  0  0  0  0  0  0  0  0
    1.2311   -0.3344   -1.1558 H   0  0  0  0  0  0  0  0  0  0  0  0
    0.7832   -0.2005    0.5367 H   0  0  0  0  0  0  0  0  0  0  0  0
    2.0660    2.0099   -1.1296 H   0  0  0  0  0  0  0  0  0  0  0  0
    2.9165    0.9529    0.0119 H   0  0  0  0  0  0  0  0  0  0  0  0
    3.4900    2.8917    1.3048 H   0  0  0  0  0  0  0  0  0  0  0  0
    2.6036    3.9213    0.1706 H   0  0  0  0  0  0  0  0  0  0  0  0
    1.9172    3.5565    3.1362 H   0  0  0  0  0  0  0  0  0  0  0  0
    2.7085    4.9726    2.4252 H   0  0  0  0  0  0  0  0  0  0  0  0
    1.0325    4.5867    2.0025 H   0  0  0  0  0  0  0  0  0  0  0  0
  1  2  1  0
  1  6  1  0
  1  7  1  0
  1  8  1  0
  2  3  1  0
  2  9  1  0
  2 10  1  0
  3  4  1  0
  3 11  1  0
  3 12  1  0
  4  5  1  0
  5 14  1  0
  5 15  1  0
 13 16  1  0
 16 17  1  0
 16 22  1  0
 16 23  1  0
 17 18  1  0
 17 24  1  0
 17 25  1  0
 18 19  1  0
 18 26  1  0
 18 27  1  0
 19 20  1  0
 20 21  1  0
 20 28  1  0
 20 29  1  0
 21 30  1  0
 21 31  1  0
 21 32  1  0
M  RAD  1   5   2
M  END
>  <reaction>  (8) 
rmg_rxn_662

>  <mol_properties>  (8) 
{"3": {"label": "*0", "atom_type": "O2s"}, "4": {"label": "*1", "atom_type": "Cs"}, "12": {"label": "*2", "atom_type": "H0"}, "15": {"label": "*3", "atom_type": "Cs"}, "16": {"label": "*4", "atom_type": "Cs"}}

>  <type>  (8) 
unop_4

>  <geom_source>  (8) 
Heuristics

$$$$

     RDKit          3D

 32 30  0  0  0  0  0  0  0  0999 V2000
   -0.6906   -4.4131   -0.8370 C   0  0  0  0  0  0  0  0  0  0  0  0
   -0.6906   -4.4131    0.6859 C   0  0  0  0  0  0  0  0  0  0  0  0
   -0.6906   -3.0205    1.2819 C   0  0  0  0  0  0  0  0  0  0  0  0
   -1.8757   -2.3571    0.9178 O   0  0  0  0  0  0  0  0  0  0  0  0
   -1.9365   -1.0460    1.4030 C   0  0  0  0  0  3  0  0  0  0  0  0
    0.1917   -3.8995   -1.2267 H   0  0  0  0  0  0  0  0  0  0  0  0
   -1.5731   -3.9032   -1.2234 H   0  0  0  0  0  0  0  0  0  0  0  0
   -0.6857   -5.4311   -1.2293 H   0  0  0  0  0  0  0  0  0  0  0  0
   -1.5648   -4.9513    1.0615 H   0  0  0  0  0  0  0  0  0  0  0  0
    0.1911   -4.9393    1.0621 H   0  0  0  0  0  0  0  0  0  0  0  0
   -0.6138   -3.0742    2.3780 H   0  0  0  0  0  0  0  0  0  0  0  0
    0.1817   -2.4535    0.9197 H   0  0  0  0  0  0  0  0  0  0  0  0
   -0.9478   -0.3109    0.9342 H   0  0  0  0  0  0  0  0  0  0  0  0
   -1.8945   -1.0199    2.5004 H   0  0  0  0  0  0  0  0  0  0  0  0
   -2.8822   -0.6158    1.0758 H   0  0  0  0  0  0  0  0  0  0  0  0
    0.0341    0.4191    0.4686 C   0  0  0  0  0  0  0  0  0  0  0  0
   -0.0410    1.8435    1.0023 C   0  0  0  0  0  0  0  0  0  0  0  0
    1.0802    2.7285    0.4975 C   0  0  0  0  0  0  0  0  0  0  0  0
    0.9822    2.8535   -0.8988 O   0  0  0  0  0  0  0  0  0  0  0  0
    2.0075    3.6323   -1.4608 C   0  0  0  0  0  0  0  0  0  0  0  0
    1.8082    3.7005   -2.9572 C   0  0  0  0  0  0  0  0  0  0  0  0
   -0.0215    0.4113   -0.6199 H   0  0  0  0  0  0  0  0  0  0  0  0
    0.9735   -0.0572    0.7603 H   0  0  0  0  0  0  0  0  0  0  0  0
    0.0006    1.8386    2.0950 H   0  0  0  0  0  0  0  0  0  0  0  0
   -0.9949    2.2988    0.7237 H   0  0  0  0  0  0  0  0  0  0  0  0
    2.0557    2.2936    0.7673 H   0  0  0  0  0  0  0  0  0  0  0  0
    1.0236    3.7212    0.9679 H   0  0  0  0  0  0  0  0  0  0  0  0
    1.9934    4.6423   -1.0247 H   0  0  0  0  0  0  0  0  0  0  0  0
    2.9866    3.1909   -1.2230 H   0  0  0  0  0  0  0  0  0  0  0  0
    0.8436    4.1507   -3.1941 H   0  0  0  0  0  0  0  0  0  0  0  0
    2.5941    4.3021   -3.4163 H   0  0  0  0  0  0  0  0  0  0  0  0
    1.8375    2.7010   -3.3925 H   0  0  0  0  0  0  0  0  0  0  0  0
  1  2  1  0
  1  6  1  0
  1  7  1  0
  1  8  1  0
  2  3  1  0
  2  9  1  0
  2 10  1  0
  3  4  1  0
  3 11  1  0
  3 12  1  0
  4  5  1  0
  5 14  1  0
  5 15  1  0
 13 16  1  0
 16 17  1  0
 16 22  1  0
 16 23  1  0
 17 18  1  0
 17 24  1  0
 17 25  1  0
 18 19  1  0
 18 26  1  0
 18 27  1  0
 19 20  1  0
 20 21  1  0
 20 28  1  0
 20 29  1  0
 21 30  1  0
 21 31  1  0
 21 32  1  0
M  RAD  1   5   2
M  END
>  <reaction>  (9) 
rmg_rxn_662

>  <mol_properties>  (9) 
{"3": {"label": "*0", "atom_type": "O2s"}, "4": {"label": "*1", "atom_type": "Cs"}, "12": {"label": "*2", "atom_type": "H0"}, "15": {"label": "*3", "atom_type": "Cs"}, "16": {"label": "*4", "atom_type": "Cs"}}

>  <type>  (9) 
unop_5

>  <geom_source>  (9) 
Heuristics

$$$$

     RDKit          3D

 32 30  0  0  0  0  0  0  0  0999 V2000
   -0.7533   -4.2932   -2.1308 C   0  0  0  0  0  0  0  0  0  0  0  0
   -0.7533   -4.2932   -0.6079 C   0  0  0  0  0  0  0  0  0  0  0  0
   -0.7533   -2.9006   -0.0119 C   0  0  0  0  0  0  0  0  0  0  0  0
   -1.9384   -2.2372   -0.3760 O   0  0  0  0  0  0  0  0  0  0  0  0
   -1.9992   -0.9261    0.1092 C   0  0  0  0  0  3  0  0  0  0  0  0
    0.1290   -3.7796   -2.5205 H   0  0  0  0  0  0  0  0  0  0  0  0
   -1.6358   -3.7833   -2.5172 H   0  0  0  0  0  0  0  0  0  0  0  0
   -0.7484   -5.3112   -2.5231 H   0  0  0  0  0  0  0  0  0  0  0  0
   -1.6275   -4.8314   -0.2323 H   0  0  0  0  0  0  0  0  0  0  0  0
    0.1284   -4.8193   -0.2317 H   0  0  0  0  0  0  0  0  0  0  0  0
   -0.6765   -2.9543    1.0842 H   0  0  0  0  0  0  0  0  0  0  0  0
    0.1190   -2.3336   -0.3741 H   0  0  0  0  0  0  0  0  0  0  0  0
   -1.0105   -0.1910   -0.3596 H   0  0  0  0  0  0  0  0  0  0  0  0
   -1.9572   -0.9000    1.2066 H   0  0  0  0  0  0  0  0  0  0  0  0
   -2.9449   -0.4959   -0.2180 H   0  0  0  0  0  0  0  0  0  0  0  0
   -0.0286    0.5391   -0.8252 C   0  0  0  0  0  0  0  0  0  0  0  0
    1.1867    0.4712    0.0901 C   0  0  0  0  0  0  0  0  0  0  0  0
    1.8989    1.8006    0.2339 C   0  0  0  0  0  0  0  0  0  0  0  0
    1.0346    2.7289    0.8388 O   0  0  0  0  0  0  0  0  0  0  0  0
    1.6017    4.0064    0.9807 C   0  0  0  0  0  0  0  0  0  0  0  0
    0.5935    4.9209    1.6370 C   0  0  0  0  0  0  0  0  0  0  0  0
   -0.7603    1.2509   -0.4433 H   0  0  0  0  0  0  0  0  0  0  0  0
    0.2580    0.8587   -1.8302 H   0  0  0  0  0  0  0  0  0  0  0  0
    1.9070   -0.2563   -0.2942 H   0  0  0  0  0  0  0  0  0  0  0  0
    0.8891    0.1275    1.0841 H   0  0  0  0  0  0  0  0  0  0  0  0
    2.2129    2.1700   -0.7552 H   0  0  0  0  0  0  0  0  0  0  0  0
    2.8076    1.6824    0.8423 H   0  0  0  0  0  0  0  0  0  0  0  0
    2.5173    3.9451    1.5875 H   0  0  0  0  0  0  0  0  0  0  0  0
    1.8924    4.3988   -0.0050 H   0  0  0  0  0  0  0  0  0  0  0  0
    0.3151    4.5399    2.6201 H   0  0  0  0  0  0  0  0  0  0  0  0
    1.0129    5.9209    1.7583 H   0  0  0  0  0  0  0  0  0  0  0  0
   -0.3085    4.9947    1.0284 H   0  0  0  0  0  0  0  0  0  0  0  0
  1  2  1  0
  1  6  1  0
  1  7  1  0
  1  8  1  0
  2  3  1  0
  2  9  1  0
  2 10  1  0
  3  4  1  0
  3 11  1  0
  3 12  1  0
  4  5  1  0
  5 14  1  0
  5 15  1  0
 13 16  1  0
 16 17  1  0
 16 22  1  0
 16 23  1  0
 17 18  1  0
 17 24  1  0
 17 25  1  0
 18 19  1  0
 18 26  1  0
 18 27  1  0
 19 20  1  0
 20 21  1  0
 20 28  1  0
 20 29  1  0
 21 30  1  0
 21 31  1  0
 21 32  1  0
M  RAD  1   5   2
M  END
>  <reaction>  (10) 
rmg_rxn_662

>  <mol_properties>  (10) 
{"3": {"label": "*0", "atom_type": "O2s"}, "4": {"label": "*1", "atom_type": "Cs"}, "12": {"label": "*2", "atom_type": "H0"}, "15": {"label": "*3", "atom_type": "Cs"}, "16": {"label": "*4", "atom_type": "Cs"}}

>  <type>  (10) 
unop_6

>  <geom_source>  (10) 
Heuristics

$$$$

     RDKit          3D

 32 30  0  0  0  0  0  0  0  0999 V2000
   -0.3587   -4.5860   -1.7775 C   0  0  0  0  0  0  0  0  0  0  0  0
   -0.3587   -4.5860   -0.2546 C   0  0  0  0  0  0  0  0  0  0  0  0
   -0.3587   -3.1935    0.3414 C   0  0  0  0  0  0  0  0  0  0  0  0
   -1.5438   -2.5300   -0.0227 O   0  0  0  0  0  0  0  0  0  0  0  0
   -1.6046   -1.2189    0.4624 C   0  0  0  0  0  3  0  0  0  0  0  0
    0.5237   -4.0724   -2.1672 H   0  0  0  0  0  0  0  0  0  0  0  0
   -1.2412   -4.0761   -2.1639 H   0  0  0  0  0  0  0  0  0  0  0  0
   -0.3538   -5.6040   -2.1698 H   0  0  0  0  0  0  0  0  0  0  0  0
   -1.2328   -5.1242    0.1210 H   0  0  0  0  0  0  0  0  0  0  0  0
    0.5230   -5.1122    0.1216 H   0  0  0  0  0  0  0  0  0  0  0  0
   -0.2819   -3.2472    1.4375 H   0  0  0  0  0  0  0  0  0  0  0  0
    0.5136   -2.6264   -0.0208 H   0  0  0  0  0  0  0  0  0  0  0  0
   -0.6159   -0.4838   -0.0063 H   0  0  0  0  0  0  0  0  0  0  0  0
   -1.5626   -1.1928    1.5599 H   0  0  0  0  0  0  0  0  0  0  0  0
   -2.5502   -0.7888    0.1353 H   0  0  0  0  0  0  0  0  0  0  0  0
    0.3661    0.2462   -0.4719 C   0  0  0  0  0  0  0  0  0  0  0  0
    1.2304    0.7877    0.6590 C   0  0  0  0  0  0  0  0  0  0  0  0
    1.6851    2.2147    0.4301 C   0  0  0  0  0  0  0  0  0  0  0  0
    0.5631    3.0598    0.3880 O   0  0  0  0  0  0  0  0  0  0  0  0
    0.8886    4.4043    0.1431 C   0  0  0  0  0  0  0  0  0  0  0  0
   -0.3831    5.2204    0.1172 C   0  0  0  0  0  0  0  0  0  0  0  0
   -0.5334    0.8498   -0.5933 H   0  0  0  0  0  0  0  0  0  0  0  0
    0.9104    0.2603   -1.4195 H   0  0  0  0  0  0  0  0  0  0  0  0
    2.1219    0.1664    0.7818 H   0  0  0  0  0  0  0  0  0  0  0  0
    0.6822    0.7453    1.6037 H   0  0  0  0  0  0  0  0  0  0  0  0
    2.2439    2.2861   -0.5165 H   0  0  0  0  0  0  0  0  0  0  0  0
    2.3640    2.5323    1.2352 H   0  0  0  0  0  0  0  0  0  0  0  0
    1.5671    4.7747    0.9258 H   0  0  0  0  0  0  0  0  0  0  0  0
    1.4214    4.4923   -0.8152 H   0  0  0  0  0  0  0  0  0  0  0  0
   -0.9050    5.1448    1.0717 H   0  0  0  0  0  0  0  0  0  0  0  0
   -0.1546    6.2705   -0.0713 H   0  0  0  0  0  0  0  0  0  0  0  0
   -1.0499    4.8639   -0.6687 H   0  0  0  0  0  0  0  0  0  0  0  0
  1  2  1  0
  1  6  1  0
  1  7  1  0
  1  8  1  0
  2  3  1  0
  2  9  1  0
  2 10  1  0
  3  4  1  0
  3 11  1  0
  3 12  1  0
  4  5  1  0
  5 14  1  0
  5 15  1  0
 13 16  1  0
 16 17  1  0
 16 22  1  0
 16 23  1  0
 17 18  1  0
 17 24  1  0
 17 25  1  0
 18 19  1  0
 18 26  1  0
 18 27  1  0
 19 20  1  0
 20 21  1  0
 20 28  1  0
 20 29  1  0
 21 30  1  0
 21 31  1  0
 21 32  1  0
M  RAD  1   5   2
M  END
>  <reaction>  (11) 
rmg_rxn_662

>  <mol_properties>  (11) 
{"3": {"label": "*0", "atom_type": "O2s"}, "4": {"label": "*1", "atom_type": "Cs"}, "12": {"label": "*2", "atom_type": "H0"}, "15": {"label": "*3", "atom_type": "Cs"}, "16": {"label": "*4", "atom_type": "Cs"}}

>  <type>  (11) 
unop_7

>  <geom_source>  (11) 
Heuristics

$$$$

     RDKit          3D

 32 30  0  0  0  0  0  0  0  0999 V2000
   -0.8068   -4.3131   -0.7663 C   0  0  0  0  0  0  0  0  0  0  0  0
   -0.8068   -4.3131    0.7566 C   0  0  0  0  0  0  0  0  0  0  0  0
   -0.8068   -2.9206    1.3527 C   0  0  0  0  0  0  0  0  0  0  0  0
   -1.9918   -2.2571    0.9886 O   0  0  0  0  0  0  0  0  0  0  0  0
   -2.0526   -0.9460    1.4737 C   0  0  0  0  0  3  0  0  0  0  0  0
    0.0756   -3.7995   -1.1560 H   0  0  0  0  0  0  0  0  0  0  0  0
   -1.6892   -3.8032   -1.1527 H   0  0  0  0  0  0  0  0  0  0  0  0
   -0.8019   -5.3311   -1.1586 H   0  0  0  0  0  0  0  0  0  0  0  0
   -1.6809   -4.8513    1.1323 H   0  0  0  0  0  0  0  0  0  0  0  0
    0.0749   -4.8393    1.1329 H   0  0  0  0  0  0  0  0  0  0  0  0
   -0.7300   -2.9743    2.4488 H   0  0  0  0  0  0  0  0  0  0  0  0
    0.0656   -2.3535    0.9905 H   0  0  0  0  0  0  0  0  0  0  0  0
   -1.0640   -0.2109    1.0050 H   0  0  0  0  0  0  0  0  0  0  0  0
   -2.0106   -0.9199    2.5712 H   0  0  0  0  0  0  0  0  0  0  0  0
   -2.9983   -0.5159    1.1466 H   0  0  0  0  0  0  0  0  0  0  0  0
   -0.0820    0.5191    0.5394 C   0  0  0  0  0  0  0  0  0  0  0  0
   -0.4751    1.1984   -0.7658 C   0  0  0  0  0  0  0  0  0  0  0  0
    0.0368    2.6201   -0.8749 C   0  0  0  0  0  0  0  0  0  0  0  0
    1.4421    2.6105   -0.8742 O   0  0  0  0  0  0  0  0  0  0  0  0
    2.0071    3.8951   -0.9369 C   0  0  0  0  0  0  0  0  0  0  0  0
    3.5130    3.7700   -0.9294 C   0  0  0  0  0  0  0  0  0  0  0  0
    1.0024    0.4741    0.6399 H   0  0  0  0  0  0  0  0  0  0  0  0
   -0.4764    1.0678    1.3983 H   0  0  0  0  0  0  0  0  0  0  0  0
   -1.5639    1.2247   -0.8632 H   0  0  0  0  0  0  0  0  0  0  0  0
   -0.0947    0.6262   -1.6159 H   0  0  0  0  0  0  0  0  0  0  0  0
   -0.3343    3.2213   -0.0297 H   0  0  0  0  0  0  0  0  0  0  0  0
   -0.3346    3.0893   -1.7978 H   0  0  0  0  0  0  0  0  0  0  0  0
    1.6686    4.4098   -1.8484 H   0  0  0  0  0  0  0  0  0  0  0  0
    1.6670    4.4962   -0.0807 H   0  0  0  0  0  0  0  0  0  0  0  0
    3.8522    3.1858   -1.7856 H   0  0  0  0  0  0  0  0  0  0  0  0
    3.9747    4.7575   -0.9782 H   0  0  0  0  0  0  0  0  0  0  0  0
    3.8508    3.2739   -0.0189 H   0  0  0  0  0  0  0  0  0  0  0  0
  1  2  1  0
  1  6  1  0
  1  7  1  0
  1  8  1  0
  2  3  1  0
  2  9  1  0
  2 10  1  0
  3  4  1  0
  3 11  1  0
  3 12  1  0
  4  5  1  0
  5 14  1  0
  5 15  1  0
 13 16  1  0
 16 17  1  0
 16 22  1  0
 16 23  1  0
 17 18  1  0
 17 24  1  0
 17 25  1  0
 18 19  1  0
 18 26  1  0
 18 27  1  0
 19 20  1  0
 20 21  1  0
 20 28  1  0
 20 29  1  0
 21 30  1  0
 21 31  1  0
 21 32  1  0
M  RAD  1   5   2
M  END
>  <reaction>  (12) 
rmg_rxn_662

>  <mol_properties>  (12) 
{"3": {"label": "*0", "atom_type": "O2s"}, "4": {"label": "*1", "atom_type": "Cs"}, "12": {"label": "*2", "atom_type": "H0"}, "15": {"label": "*3", "atom_type": "Cs"}, "16": {"label": "*4", "atom_type": "Cs"}}

>  <type>  (12) 
unop_8

>  <geom_source>  (12) 
Heuristics

$$$$

     RDKit          3D

 32 30  0  0  0  0  0  0  0  0999 V2000
   -1.4955   -3.5598   -1.6954 C   0  0  0  0  0  0  0  0  0  0  0  0
   -1.4955   -3.5598   -0.1725 C   0  0  0  0  0  0  0  0  0  0  0  0
   -1.4955   -2.1672    0.4236 C   0  0  0  0  0  0  0  0  0  0  0  0
   -2.6805   -1.5038    0.0594 O   0  0  0  0  0  0  0  0  0  0  0  0
   -2.7413   -0.1927    0.5446 C   0  0  0  0  0  3  0  0  0  0  0  0
   -0.6131   -3.0462   -2.0851 H   0  0  0  0  0  0  0  0  0  0  0  0
   -2.3780   -3.0499   -2.0818 H   0  0  0  0  0  0  0  0  0  0  0  0
   -1.4906   -4.5778   -2.0877 H   0  0  0  0  0  0  0  0  0  0  0  0
   -2.3696   -4.0980    0.2031 H   0  0  0  0  0  0  0  0  0  0  0  0
   -0.6138   -4.0860    0.2038 H   0  0  0  0  0  0  0  0  0  0  0  0
   -1.4187   -2.2209    1.5196 H   0  0  0  0  0  0  0  0  0  0  0  0
   -0.6231   -1.6002    0.0614 H   0  0  0  0  0  0  0  0  0  0  0  0
   -1.7527    0.5424    0.0758 H   0  0  0  0  0  0  0  0  0  0  0  0
   -2.6993   -0.1666    1.6421 H   0  0  0  0  0  0  0  0  0  0  0  0
   -3.6870    0.2374    0.2175 H   0  0  0  0  0  0  0  0  0  0  0  0
   -0.7707    1.2724   -0.3897 C   0  0  0  0  0  0  0  0  0  0  0  0
    0.4636    0.4225   -0.6606 C   0  0  0  0  0  0  0  0  0  0  0  0
    1.7335    1.2393   -0.7848 C   0  0  0  0  0  0  0  0  0  0  0  0
    1.9928    1.8856    0.4359 O   0  0  0  0  0  0  0  0  0  0  0  0
    3.1383    2.6981    0.4026 C   0  0  0  0  0  0  0  0  0  0  0  0
    3.3228    3.3422    1.7571 C   0  0  0  0  0  0  0  0  0  0  0  0
   -0.6596    1.8291    0.5408 H   0  0  0  0  0  0  0  0  0  0  0  0
   -0.9317    1.9934   -1.1952 H   0  0  0  0  0  0  0  0  0  0  0  0
    0.3353   -0.1426   -1.5879 H   0  0  0  0  0  0  0  0  0  0  0  0
    0.5984   -0.3092    0.1402 H   0  0  0  0  0  0  0  0  0  0  0  0
    1.6261    1.9851   -1.5883 H   0  0  0  0  0  0  0  0  0  0  0  0
    2.5799    0.5898   -1.0526 H   0  0  0  0  0  0  0  0  0  0  0  0
    4.0196    2.0937    0.1412 H   0  0  0  0  0  0  0  0  0  0  0  0
    3.0301    3.4665   -0.3770 H   0  0  0  0  0  0  0  0  0  0  0  0
    3.4440    2.5812    2.5288 H   0  0  0  0  0  0  0  0  0  0  0  0
    4.2088    3.9790    1.7554 H   0  0  0  0  0  0  0  0  0  0  0  0
    2.4564    3.9542    2.0104 H   0  0  0  0  0  0  0  0  0  0  0  0
  1  2  1  0
  1  6  1  0
  1  7  1  0
  1  8  1  0
  2  3  1  0
  2  9  1  0
  2 10  1  0
  3  4  1  0
  3 11  1  0
  3 12  1  0
  4  5  1  0
  5 14  1  0
  5 15  1  0
 13 16  1  0
 16 17  1  0
 16 22  1  0
 16 23  1  0
 17 18  1  0
 17 24  1  0
 17 25  1  0
 18 19  1  0
 18 26  1  0
 18 27  1  0
 19 20  1  0
 20 21  1  0
 20 28  1  0
 20 29  1  0
 21 30  1  0
 21 31  1  0
 21 32  1  0
M  RAD  1   5   2
M  END
>  <reaction>  (13) 
rmg_rxn_662

>  <mol_properties>  (13) 
{"3": {"label": "*0", "atom_type": "O2s"}, "4": {"label": "*1", "atom_type": "Cs"}, "12": {"label": "*2", "atom_type": "H0"}, "15": {"label": "*3", "atom_type": "Cs"}, "16": {"label": "*4", "atom_type": "Cs"}}

>  <type>  (13) 
unop_9

>  <geom_source>  (13) 
Heuristics

$$$$

     RDKit          3D

 32 30  0  0  0  0  0  0  0  0999 V2000
   -0.9483   -4.0417   -0.5649 C   0  0  0  0  0  0  0  0  0  0  0  0
   -0.9483   -4.0417    0.9580 C   0  0  0  0  0  0  0  0  0  0  0  0
   -0.9483   -2.6491    1.5541 C   0  0  0  0  0  0  0  0  0  0  0  0
   -2.1333   -1.9856    1.1899 O   0  0  0  0  0  0  0  0  0  0  0  0
   -2.1941   -0.6745    1.6751 C   0  0  0  0  0  3  0  0  0  0  0  0
   -0.0659   -3.5280   -0.9546 H   0  0  0  0  0  0  0  0  0  0  0  0
   -1.8307   -3.5318   -0.9513 H   0  0  0  0  0  0  0  0  0  0  0  0
   -0.9434   -5.0597   -0.9572 H   0  0  0  0  0  0  0  0  0  0  0  0
   -1.8224   -4.5798    1.3336 H   0  0  0  0  0  0  0  0  0  0  0  0
   -0.0666   -4.5678    1.3343 H   0  0  0  0  0  0  0  0  0  0  0  0
   -0.8715   -2.7028    2.6501 H   0  0  0  0  0  0  0  0  0  0  0  0
   -0.0759   -2.0820    1.1919 H   0  0  0  0  0  0  0  0  0  0  0  0
   -1.2054    0.0605    1.2063 H   0  0  0  0  0  0  0  0  0  0  0  0
   -2.1521   -0.6484    2.7726 H   0  0  0  0  0  0  0  0  0  0  0  0
   -3.1398   -0.2444    1.3480 H   0  0  0  0  0  0  0  0  0  0  0  0
   -0.2235    0.7906    0.7407 C   0  0  0  0  0  0  0  0  0  0  0  0
   -0.2657    0.8604   -0.7800 C   0  0  0  0  0  0  0  0  0  0  0  0
    0.2520    2.1736   -1.3304 C   0  0  0  0  0  0  0  0  0  0  0  0
    1.6087    2.3173   -0.9933 O   0  0  0  0  0  0  0  0  0  0  0  0
    2.1660    3.5290   -1.4347 C   0  0  0  0  0  0  0  0  0  0  0  0
    3.6186    3.5807   -1.0211 C   0  0  0  0  0  0  0  0  0  0  0  0
    0.7975    0.9062    1.1044 H   0  0  0  0  0  0  0  0  0  0  0  0
   -0.8298    1.5844    1.1842 H   0  0  0  0  0  0  0  0  0  0  0  0
   -1.2917    0.7285   -1.1344 H   0  0  0  0  0  0  0  0  0  0  0  0
    0.3249    0.0471   -1.2095 H   0  0  0  0  0  0  0  0  0  0  0  0
   -0.3284    3.0126   -0.9149 H   0  0  0  0  0  0  0  0  0  0  0  0
    0.1319    2.2026   -2.4234 H   0  0  0  0  0  0  0  0  0  0  0  0
    2.0747    3.6077   -2.5282 H   0  0  0  0  0  0  0  0  0  0  0  0
    1.6127    4.3756   -1.0020 H   0  0  0  0  0  0  0  0  0  0  0  0
    4.1709    2.7495   -1.4608 H   0  0  0  0  0  0  0  0  0  0  0  0
    4.0736    4.5147   -1.3544 H   0  0  0  0  0  0  0  0  0  0  0  0
    3.7094    3.5185    0.0639 H   0  0  0  0  0  0  0  0  0  0  0  0
  1  2  1  0
  1  6  1  0
  1  7  1  0
  1  8  1  0
  2  3  1  0
  2  9  1  0
  2 10  1  0
  3  4  1  0
  3 11  1  0
  3 12  1  0
  4  5  1  0
  5 14  1  0
  5 15  1  0
 13 16  1  0
 16 17  1  0
 16 22  1  0
 16 23  1  0
 17 18  1  0
 17 24  1  0
 17 25  1  0
 18 19  1  0
 18 26  1  0
 18 27  1  0
 19 20  1  0
 20 21  1  0
 20 28  1  0
 20 29  1  0
 21 30  1  0
 21 31  1  0
 21 32  1  0
M  RAD  1   5   2
M  END
>  <reaction>  (14) 
rmg_rxn_662

>  <mol_properties>  (14) 
{"3": {"label": "*0", "atom_type": "O2s"}, "4": {"label": "*1", "atom_type": "Cs"}, "12": {"label": "*2", "atom_type": "H0"}, "15": {"label": "*3", "atom_type": "Cs"}, "16": {"label": "*4", "atom_type": "Cs"}}

>  <type>  (14) 
unop_10

>  <geom_source>  (14) 
Heuristics

$$$$

     RDKit          3D

 32 30  0  0  0  0  0  0  0  0999 V2000
   -0.2680   -4.6267   -1.1794 C   0  0  0  0  0  0  0  0  0  0  0  0
   -0.2680   -4.6267    0.3435 C   0  0  0  0  0  0  0  0  0  0  0  0
   -0.2680   -3.2341    0.9395 C   0  0  0  0  0  0  0  0  0  0  0  0
   -1.4530   -2.5707    0.5754 O   0  0  0  0  0  0  0  0  0  0  0  0
   -1.5138   -1.2596    1.0606 C   0  0  0  0  0  3  0  0  0  0  0  0
    0.6144   -4.1131   -1.5691 H   0  0  0  0  0  0  0  0  0  0  0  0
   -1.1504   -4.1168   -1.5658 H   0  0  0  0  0  0  0  0  0  0  0  0
   -0.2631   -5.6447   -1.5717 H   0  0  0  0  0  0  0  0  0  0  0  0
   -1.1421   -5.1649    0.7191 H   0  0  0  0  0  0  0  0  0  0  0  0
    0.6137   -5.1529    0.7197 H   0  0  0  0  0  0  0  0  0  0  0  0
   -0.1912   -3.2878    2.0356 H   0  0  0  0  0  0  0  0  0  0  0  0
    0.6044   -2.6671    0.5773 H   0  0  0  0  0  0  0  0  0  0  0  0
   -0.5251   -0.5245    0.5918 H   0  0  0  0  0  0  0  0  0  0  0  0
   -1.4718   -1.2335    2.1580 H   0  0  0  0  0  0  0  0  0  0  0  0
   -2.4595   -0.8295    0.7334 H   0  0  0  0  0  0  0  0  0  0  0  0
    0.4568    0.2055    0.1262 C   0  0  0  0  0  0  0  0  0  0  0  0
    0.8489    1.2932    1.1174 C   0  0  0  0  0  0  0  0  0  0  0  0
    1.4256    2.5259    0.4516 C   0  0  0  0  0  0  0  0  0  0  0  0
    0.4475    3.1122   -0.3697 O   0  0  0  0  0  0  0  0  0  0  0  0
    0.9070    4.2473   -1.0582 C   0  0  0  0  0  0  0  0  0  0  0  0
   -0.2167    4.7948   -1.9072 C   0  0  0  0  0  0  0  0  0  0  0  0
   -0.2974    0.5716   -0.5704 H   0  0  0  0  0  0  0  0  0  0  0  0
    1.3219   -0.1209   -0.4564 H   0  0  0  0  0  0  0  0  0  0  0  0
    1.5943    0.9109    1.8202 H   0  0  0  0  0  0  0  0  0  0  0  0
   -0.0201    1.5927    1.7091 H   0  0  0  0  0  0  0  0  0  0  0  0
    2.3064    2.2529   -0.1509 H   0  0  0  0  0  0  0  0  0  0  0  0
    1.7599    3.2481    1.2108 H   0  0  0  0  0  0  0  0  0  0  0  0
    1.2523    5.0068   -0.3411 H   0  0  0  0  0  0  0  0  0  0  0  0
    1.7692    3.9805   -1.6871 H   0  0  0  0  0  0  0  0  0  0  0  0
   -1.0668    5.0725   -1.2831 H   0  0  0  0  0  0  0  0  0  0  0  0
    0.1174    5.6792   -2.4521 H   0  0  0  0  0  0  0  0  0  0  0  0
   -0.5492    4.0479   -2.6290 H   0  0  0  0  0  0  0  0  0  0  0  0
  1  2  1  0
  1  6  1  0
  1  7  1  0
  1  8  1  0
  2  3  1  0
  2  9  1  0
  2 10  1  0
  3  4  1  0
  3 11  1  0
  3 12  1  0
  4  5  1  0
  5 14  1  0
  5 15  1  0
 13 16  1  0
 16 17  1  0
 16 22  1  0
 16 23  1  0
 17 18  1  0
 17 24  1  0
 17 25  1  0
 18 19  1  0
 18 26  1  0
 18 27  1  0
 19 20  1  0
 20 21  1  0
 20 28  1  0
 20 29  1  0
 21 30  1  0
 21 31  1  0
 21 32  1  0
M  RAD  1   5   2
M  END
>  <reaction>  (15) 
rmg_rxn_662

>  <mol_properties>  (15) 
{"3": {"label": "*0", "atom_type": "O2s"}, "4": {"label": "*1", "atom_type": "Cs"}, "12": {"label": "*2", "atom_type": "H0"}, "15": {"label": "*3", "atom_type": "Cs"}, "16": {"label": "*4", "atom_type": "Cs"}}

>  <type>  (15) 
unop_11

>  <geom_source>  (15) 
Heuristics

$$$$

     RDKit          3D

 32 30  0  0  0  0  0  0  0  0999 V2000
   -1.5048   -3.4833   -1.0961 C   0  0  0  0  0  0  0  0  0  0  0  0
   -1.5048   -3.4833    0.4268 C   0  0  0  0  0  0  0  0  0  0  0  0
   -1.5048   -2.0907    1.0228 C   0  0  0  0  0  0  0  0  0  0  0  0
   -2.6899   -1.4272    0.6587 O   0  0  0  0  0  0  0  0  0  0  0  0
   -2.7507   -0.1161    1.1439 C   0  0  0  0  0  3  0  0  0  0  0  0
   -0.6225   -2.9696   -1.4858 H   0  0  0  0  0  0  0  0  0  0  0  0
   -2.3873   -2.9734   -1.4825 H   0  0  0  0  0  0  0  0  0  0  0  0
   -1.4999   -4.5013   -1.4884 H   0  0  0  0  0  0  0  0  0  0  0  0
   -2.3790   -4.0214    0.8024 H   0  0  0  0  0  0  0  0  0  0  0  0
   -0.6231   -4.0094    0.8030 H   0  0  0  0  0  0  0  0  0  0  0  0
   -1.4280   -2.1444    2.1189 H   0  0  0  0  0  0  0  0  0  0  0  0
   -0.6325   -1.5236    0.6606 H   0  0  0  0  0  0  0  0  0  0  0  0
   -1.7620    0.6189    0.6751 H   0  0  0  0  0  0  0  0  0  0  0  0
   -2.7087   -0.0900    2.2413 H   0  0  0  0  0  0  0  0  0  0  0  0
   -3.6964    0.3140    0.8167 H   0  0  0  0  0  0  0  0  0  0  0  0
   -0.7801    1.3490    0.2095 C   0  0  0  0  0  0  0  0  0  0  0  0
    0.1173    0.5360   -0.7140 C   0  0  0  0  0  0  0  0  0  0  0  0
    1.2672    1.3396   -1.2861 C   0  0  0  0  0  0  0  0  0  0  0  0
    2.1044    1.7641   -0.2403 O   0  0  0  0  0  0  0  0  0  0  0  0
    3.1840    2.5502   -0.6763 C   0  0  0  0  0  0  0  0  0  0  0  0
    4.0143    2.9513    0.5209 C   0  0  0  0  0  0  0  0  0  0  0  0
   -0.2129    1.7372    1.0555 H   0  0  0  0  0  0  0  0  0  0  0  0
   -1.2166    2.1992   -0.3206 H   0  0  0  0  0  0  0  0  0  0  0  0
   -0.4645    0.1392   -1.5506 H   0  0  0  0  0  0  0  0  0  0  0  0
    0.5275   -0.3236   -0.1776 H   0  0  0  0  0  0  0  0  0  0  0  0
    0.8815    2.2129   -1.8355 H   0  0  0  0  0  0  0  0  0  0  0  0
    1.8396    0.7304   -2.0010 H   0  0  0  0  0  0  0  0  0  0  0  0
    3.7944    1.9837   -1.3951 H   0  0  0  0  0  0  0  0  0  0  0  0
    2.8103    3.4419   -1.2011 H   0  0  0  0  0  0  0  0  0  0  0  0
    4.3966    2.0681    1.0339 H   0  0  0  0  0  0  0  0  0  0  0  0
    4.8609    3.5634    0.2060 H   0  0  0  0  0  0  0  0  0  0  0  0
    3.4141    3.5264    1.2269 H   0  0  0  0  0  0  0  0  0  0  0  0
  1  2  1  0
  1  6  1  0
  1  7  1  0
  1  8  1  0
  2  3  1  0
  2  9  1  0
  2 10  1  0
  3  4  1  0
  3 11  1  0
  3 12  1  0
  4  5  1  0
  5 14  1  0
  5 15  1  0
 13 16  1  0
 16 17  1  0
 16 22  1  0
 16 23  1  0
 17 18  1  0
 17 24  1  0
 17 25  1  0
 18 19  1  0
 18 26  1  0
 18 27  1  0
 19 20  1  0
 20 21  1  0
 20 28  1  0
 20 29  1  0
 21 30  1  0
 21 31  1  0
 21 32  1  0
M  RAD  1   5   2
M  END
>  <reaction>  (16) 
rmg_rxn_662

>  <mol_properties>  (16) 
{"3": {"label": "*0", "atom_type": "O2s"}, "4": {"label": "*1", "atom_type": "Cs"}, "12": {"label": "*2", "atom_type": "H0"}, "15": {"label": "*3", "atom_type": "Cs"}, "16": {"label": "*4", "atom_type": "Cs"}}

>  <type>  (16) 
unop_12

>  <geom_source>  (16) 
Heuristics

$$$$

     RDKit          3D

 32 30  0  0  0  0  0  0  0  0999 V2000
   -2.9687   -0.7954   -0.6207 O   0  0  0  0  0  0  0  0  0  0  0  0
    2.1929   -0.0484   -0.5617 O   0  0  0  0  0  0  0  0  0  0  0  0
   -1.9584    1.4066   -0.4285 C   0  0  0  0  0  0  0  0  0  0  0  0
    4.3388    0.6578    0.2997 C   0  0  0  0  0  0  0  0  0  0  0  0
   -2.3096    0.2285   -1.3441 C   0  0  0  0  0  0  0  0  0  0  0  0
    3.4628   -0.5164   -0.1485 C   0  0  0  0  0  0  0  0  0  0  0  0
   -4.3698   -0.6684   -0.7452 C   0  0  0  0  0  0  0  0  0  0  0  0
   -1.0315    0.9853    0.7084 C   0  0  0  0  0  0  0  0  0  0  0  0
    5.7450    0.1923    0.6667 C   0  0  0  0  0  0  0  0  0  0  0  0
   -5.0454   -1.6843    0.1625 C   0  0  0  0  0  0  0  0  0  0  0  0
    1.2653   -0.1585    0.4944 C   0  0  0  0  0  3  0  0  0  0  0  0
   -1.4507    2.1906   -1.0306 H   0  0  0  0  0  0  0  0  0  0  0  0
   -2.8850    1.8480   -0.0040 H   0  0  0  0  0  0  0  0  0  0  0  0
    3.8818    1.1521    1.1834 H   0  0  0  0  0  0  0  0  0  0  0  0
    4.4061    1.4033   -0.5221 H   0  0  0  0  0  0  0  0  0  0  0  0
   -1.3693   -0.1928   -1.7596 H   0  0  0  0  0  0  0  0  0  0  0  0
   -2.8922    0.5973   -2.2219 H   0  0  0  0  0  0  0  0  0  0  0  0
   -4.6841   -0.8713   -1.7938 H   0  0  0  0  0  0  0  0  0  0  0  0
   -4.7122    0.3479   -0.4452 H   0  0  0  0  0  0  0  0  0  0  0  0
    3.9435   -1.0014   -1.0250 H   0  0  0  0  0  0  0  0  0  0  0  0
    3.4134   -1.2935    0.6524 H   0  0  0  0  0  0  0  0  0  0  0  0
   -0.7674    1.8732    1.3207 H   0  0  0  0  0  0  0  0  0  0  0  0
   -1.5324    0.2411    1.3633 H   0  0  0  0  0  0  0  0  0  0  0  0
    0.0570    0.4727    0.2296 H   0  0  0  0  0  0  0  0  0  0  0  0
   -6.1485   -1.5971    0.0688 H   0  0  0  0  0  0  0  0  0  0  0  0
   -4.7396   -2.7130   -0.1240 H   0  0  0  0  0  0  0  0  0  0  0  0
   -4.7577   -1.4993    1.2193 H   0  0  0  0  0  0  0  0  0  0  0  0
    6.3534    1.0644    0.9865 H   0  0  0  0  0  0  0  0  0  0  0  0
    6.2364   -0.2810   -0.2100 H   0  0  0  0  0  0  0  0  0  0  0  0
    5.7036   -0.5378    1.5030 H   0  0  0  0  0  0  0  0  0  0  0  0
    1.0443   -1.2217    0.7345 H   0  0  0  0  0  0  0  0  0  0  0  0
    1.5782    0.4192    1.3917 H   0  0  0  0  0  0  0  0  0  0  0  0
  1  7  1  0
  1  5  1  0
  2 11  1  0
  2  6  1  0
  3  8  1  0
  3  5  1  0
  3 12  1  0
  3 13  1  0
  4  9  1  0
  4  6  1  0
  4 14  1  0
  4 15  1  0
  5 16  1  0
  5 17  1  0
  6 20  1  0
  6 21  1  0
  7 10  1  0
  7 18  1  0
  7 19  1  0
  8 22  1  0
  8 23  1  0
  8 24  1  0
  9 28  1  0
  9 29  1  0
  9 30  1  0
 10 25  1  0
 10 26  1  0
 10 27  1  0
 11 31  1  0
 11 32  1  0
M  RAD  1  11   2
M  END
>  <reaction>  (17) 
rmg_rxn_662

>  <mol_properties>  (17) 
{"3": {"label": "*0", "atom_type": "O2s"}, "4": {"label": "*1", "atom_type": "Cs"}, "12": {"label": "*2", "atom_type": "H0"}, "15": {"label": "*3", "atom_type": "Cs"}, "16": {"label": "*4", "atom_type": "Cs"}}

>  <type>  (17) 
unop_13

>  <geom_source>  (17) 
AutoTST

$$$$

     RDKit          3D

 32 30  0  0  0  0  0  0  0  0999 V2000
   -1.2468   -3.6973   -0.6479 C   0  0  0  0  0  0  0  0  0  0  0  0
   -1.2468   -3.6973    0.8750 C   0  0  0  0  0  0  0  0  0  0  0  0
   -1.2468   -2.3047    1.4710 C   0  0  0  0  0  0  0  0  0  0  0  0
   -2.4318   -1.6413    1.1069 O   0  0  0  0  0  0  0  0  0  0  0  0
   -2.4926   -0.3302    1.5920 C   0  0  0  0  0  3  0  0  0  0  0  0
   -0.3644   -3.1836   -1.0376 H   0  0  0  0  0  0  0  0  0  0  0  0
   -2.1292   -3.1874   -1.0344 H   0  0  0  0  0  0  0  0  0  0  0  0
   -1.2419   -4.7153   -1.0402 H   0  0  0  0  0  0  0  0  0  0  0  0
   -2.1209   -4.2354    1.2506 H   0  0  0  0  0  0  0  0  0  0  0  0
   -0.3650   -4.2234    1.2512 H   0  0  0  0  0  0  0  0  0  0  0  0
   -1.1700   -2.3584    2.5671 H   0  0  0  0  0  0  0  0  0  0  0  0
   -0.3744   -1.7377    1.1088 H   0  0  0  0  0  0  0  0  0  0  0  0
   -1.5039    0.4049    1.1233 H   0  0  0  0  0  0  0  0  0  0  0  0
   -2.4506   -0.3040    2.6895 H   0  0  0  0  0  0  0  0  0  0  0  0
   -3.4383    0.1000    1.2649 H   0  0  0  0  0  0  0  0  0  0  0  0
   -0.5220    1.1350    0.6577 C   0  0  0  0  0  0  0  0  0  0  0  0
   -0.0918    0.6586   -0.7233 C   0  0  0  0  0  0  0  0  0  0  0  0
    0.7048    1.6949   -1.4893 C   0  0  0  0  0  0  0  0  0  0  0  0
    1.9019    1.9625   -0.8034 O   0  0  0  0  0  0  0  0  0  0  0  0
    2.6922    2.9431   -1.4258 C   0  0  0  0  0  0  0  0  0  0  0  0
    3.9469    3.1528   -0.6102 C   0  0  0  0  0  0  0  0  0  0  0  0
    0.3462    1.3824    1.2685 H   0  0  0  0  0  0  0  0  0  0  0  0
   -1.1468    2.0287    0.5845 H   0  0  0  0  0  0  0  0  0  0  0  0
   -0.9693    0.3991   -1.3221 H   0  0  0  0  0  0  0  0  0  0  0  0
    0.5117   -0.2485   -0.6363 H   0  0  0  0  0  0  0  0  0  0  0  0
    0.1179    2.6211   -1.5942 H   0  0  0  0  0  0  0  0  0  0  0  0
    0.9268    1.3319   -2.5036 H   0  0  0  0  0  0  0  0  0  0  0  0
    2.9467    2.6265   -2.4482 H   0  0  0  0  0  0  0  0  0  0  0  0
    2.1264    3.8827   -1.5094 H   0  0  0  0  0  0  0  0  0  0  0  0
    4.5155    2.2250   -0.5383 H   0  0  0  0  0  0  0  0  0  0  0  0
    4.5780    3.9115   -1.0756 H   0  0  0  0  0  0  0  0  0  0  0  0
    3.6962    3.4817    0.3989 H   0  0  0  0  0  0  0  0  0  0  0  0
  1  2  1  0
  1  6  1  0
  1  7  1  0
  1  8  1  0
  2  3  1  0
  2  9  1  0
  2 10  1  0
  3  4  1  0
  3 11  1  0
  3 12  1  0
  4  5  1  0
  5 14  1  0
  5 15  1  0
 13 16  1  0
 16 17  1  0
 16 22  1  0
 16 23  1  0
 17 18  1  0
 17 24  1  0
 17 25  1  0
 18 19  1  0
 18 26  1  0
 18 27  1  0
 19 20  1  0
 20 21  1  0
 20 28  1  0
 20 29  1  0
 21 30  1  0
 21 31  1  0
 21 32  1  0
M  RAD  1   5   2
M  END
>  <reaction>  (18) 
rmg_rxn_662

>  <mol_properties>  (18) 
{"3": {"label": "*0", "atom_type": "O2s"}, "4": {"label": "*1", "atom_type": "Cs"}, "12": {"label": "*2", "atom_type": "H0"}, "15": {"label": "*3", "atom_type": "Cs"}, "16": {"label": "*4", "atom_type": "Cs"}}

>  <type>  (18) 
unop_14

>  <geom_source>  (18) 
gaussian_log

$$$$
