
     RDKit          3D

  6  5  0  0  0  0  0  0  0  0999 V2000
   -0.4547   -0.0097   -0.0070 C   0  0  0  0  0  0  0  0  0  0  0  0
    0.8695   -0.1987   -0.6218 N   0  0  0  0  0  0  0  0  0  0  0  0
    1.0322   -1.2809   -1.0969 O   0  0  0  0  0  0  0  0  0  0  0  0
   -0.2820    0.2687    1.0347 H   0  0  0  0  0  0  0  0  0  0  0  0
   -1.0716   -0.9051   -0.0916 H   0  0  0  0  0  0  0  0  0  0  0  0
   -0.9130    0.8487   -0.5026 H   0  0  0  0  0  0  0  0  0  0  0  0
  1  2  1  0
  1  4  1  0
  1  5  1  0
  1  6  1  0
  2  3  2  0
M  END
>  <reaction>  (1) 
rmg_rxn_15579

>  <mol_properties>  (1) 
{"0": {"label": "donator", "atom_type": "Cs"}, "3": {"label": "d_hydrogen", "atom_type": "H0"}}

>  <type>  (1) 
r1h

$$$$

     RDKit          3D

  8  7  0  0  0  0  0  0  0  0999 V2000
    1.7077   -0.1964   -0.0607 C   0  0  0  0  0  3  0  0  0  0  0  0
    0.4209   -0.4565    0.2808 O   0  0  0  0  0  0  0  0  0  0  0  0
   -0.4607    0.4385   -0.2968 N   0  0  0  0  0  0  0  0  0  0  0  0
   -1.6584    0.1416   -0.0244 C   0  0  0  0  0  0  0  0  0  0  0  0
    2.4163   -0.7685    0.5170 H   0  0  0  0  0  0  0  0  0  0  0  0
    1.9214    0.7645   -0.5045 H   0  0  0  0  0  0  0  0  0  0  0  0
   -2.4185    0.7953   -0.4307 H   0  0  0  0  0  0  0  0  0  0  0  0
   -1.9286   -0.7185    0.5831 H   0  0  0  0  0  0  0  0  0  0  0  0
  1  2  1  0
  1  5  1  0
  1  6  1  0
  2  3  1  0
  3  4  2  3
  4  7  1  0
  4  8  1  0
M  RAD  1   1   2
M  END
>  <reaction>  (2) 
rmg_rxn_15579

>  <mol_properties>  (2) 
{"0": {"label": "acceptor", "atom_type": "Cs"}}

>  <type>  (2) 
r2

$$$$

     RDKit          3D

  9  8  0  0  0  0  0  0  0  0999 V2000
   -1.5470   -0.0755   -0.1976 C   0  0  0  0  0  0  0  0  0  0  0  0
   -0.2885    0.4507    0.1749 O   0  0  0  0  0  0  0  0  0  0  0  0
   -0.1502    1.7216   -0.3294 N   0  0  0  0  0  0  0  0  0  0  0  0
    0.9626    2.2353   -0.0219 C   0  0  0  0  0  0  0  0  0  0  0  0
   -1.6392   -0.1356   -1.2844 H   0  0  0  0  0  0  0  0  0  0  0  0
   -2.3597    0.5337    0.2044 H   0  0  0  0  0  0  0  0  0  0  0  0
   -1.5879   -1.0750    0.2318 H   0  0  0  0  0  0  0  0  0  0  0  0
    1.1497    3.2381   -0.3820 H   0  0  0  0  0  0  0  0  0  0  0  0
    1.7060    1.7101    0.5739 H   0  0  0  0  0  0  0  0  0  0  0  0
  1  2  1  0
  1  5  1  0
  1  6  1  0
  1  7  1  0
  2  3  1  0
  3  4  2  3
  4  8  1  0
  4  9  1  0
M  END
>  <reaction>  (3) 
rmg_rxn_15579

>  <mol_properties>  (3) 
{"0": {"label": "a_hydrogen", "atom_type": "H0"}, "1": {"label": "acceptor", "atom_type": "Cs"}}

>  <type>  (3) 
r2h

$$$$

     RDKit          3D

 14 12  0  0  0  0  0  0  0  0999 V2000
    1.6258    0.6143   -0.4771 C   0  0  0  0  0  0  0  0  0  0  0  0
    1.4894   -0.7548   -0.7684 N   0  0  0  0  0  0  0  0  0  0  0  0
    0.4836   -1.0478   -1.3911 O   0  0  0  0  0  0  0  0  0  0  0  0
    0.9931    0.7847    0.6340 H   0  0  0  0  0  0  0  0  0  0  0  0
    1.1065    1.2865   -1.1622 H   0  0  0  0  0  0  0  0  0  0  0  0
    2.6503    0.8800   -0.2305 H   0  0  0  0  0  0  0  0  0  0  0  0
    0.0958    0.9163    1.7273 C   0  0  0  0  0  3  0  0  0  0  0  0
   -0.8939    0.0240    1.4714 O   0  0  0  0  0  0  0  0  0  0  0  0
   -1.8105    0.5547    0.5587 N   0  0  0  0  0  0  0  0  0  0  0  0
   -2.4040   -0.3701   -0.0612 C   0  0  0  0  0  0  0  0  0  0  0  0
   -0.2057    1.9607    1.6877 H   0  0  0  0  0  0  0  0  0  0  0  0
    0.6829    0.5960    2.5821 H   0  0  0  0  0  0  0  0  0  0  0  0
   -3.1550   -0.0603   -0.7761 H   0  0  0  0  0  0  0  0  0  0  0  0
   -2.1810   -1.4217    0.0936 H   0  0  0  0  0  0  0  0  0  0  0  0
  1  2  1  0
  1  4  1  0
  1  5  1  0
  1  6  1  0
  2  3  2  0
  7  8  1  0
  7 11  1  0
  7 12  1  0
  8  9  1  0
  9 10  2  3
 10 13  1  0
 10 14  1  0
M  RAD  1   7   2
M  END
>  <reaction>  (4) 
rmg_rxn_15579

>  <mol_properties>  (4) 
{"0": {"label": "*1", "atom_type": "Cs"}, "1": {"label": "*0", "atom_type": "N3d"}, "3": {"label": "*2", "atom_type": "H0"}, "6": {"label": "*3", "atom_type": "Cs"}, "7": {"label": "*4", "atom_type": "O2s"}}

>  <type>  (4) 
ts

$$$$

     RDKit          3D

 14 12  0  0  0  0  0  0  0  0999 V2000
    1.3328    1.2909   -0.2759 C   0  0  0  0  0  0  0  0  0  0  0  0
    1.9142    0.1931    0.0957 N   0  0  0  0  0  0  0  0  0  0  0  0
    1.6229   -0.9941   -0.0409 O   0  0  0  0  0  1  0  0  0  0  0  0
    0.0641    1.4051    0.3091 H   0  0  0  0  0  0  0  0  0  0  0  0
    0.9454    1.3429   -1.2996 H   0  0  0  0  0  0  0  0  0  0  0  0
    1.8253    2.1910    0.0731 H   0  0  0  0  0  0  0  0  0  0  0  0
   -1.1594    1.2868    0.5814 C   0  0  0  0  0  0  0  0  0  0  0  0
   -1.6949    0.4453   -0.3836 O   0  0  0  0  0  0  0  0  0  0  0  0
   -1.3512   -0.8679   -0.4509 N   0  0  0  0  0  0  0  0  0  0  0  0
   -0.6617   -1.4446    0.4387 C   0  0  0  0  0  0  0  0  0  0  0  0
   -1.6502    2.2474    0.4594 H   0  0  0  0  0  0  0  0  0  0  0  0
   -1.2370    0.9188    1.6053 H   0  0  0  0  0  0  0  0  0  0  0  0
   -0.4781   -2.4907    0.2733 H   0  0  0  0  0  0  0  0  0  0  0  0
   -0.3306   -1.0266    1.3858 H   0  0  0  0  0  0  0  0  0  0  0  0
  1  2  2  3
  1  5  1  0
  1  6  1  0
  2  3  1  0
  4  7  1  0
  7  8  1  0
  7 11  1  0
  7 12  1  0
  8  9  1  0
  9 10  2  3
 10 13  1  0
 10 14  1  0
M  RAD  1   3   2
M  END
>  <reaction>  (5) 
rmg_rxn_15579

>  <mol_properties>  (5) 
{"0": {"label": "*1", "atom_type": "Cs"}, "1": {"label": "*0", "atom_type": "N3d"}, "3": {"label": "*2", "atom_type": "H0"}, "6": {"label": "*3", "atom_type": "Cs"}, "7": {"label": "*4", "atom_type": "O2s"}}

>  <type>  (5) 
unop_1

>  <geom_source>  (5) 
crest_best.xyz

$$$$

     RDKit          3D

 14 12  0  0  0  0  0  0  0  0999 V2000
    1.1609   -0.0855   -1.4124 C   0  0  0  0  0  0  0  0  0  0  0  0
    1.1609   -1.4313   -2.0092 N   0  0  0  0  0  0  0  0  0  0  0  0
    1.1609   -1.4313   -3.2023 O   0  0  0  0  0  1  0  0  0  0  0  0
    0.1049   -0.0141   -0.6398 H   0  0  0  0  0  0  0  0  0  0  0  0
    1.1609    0.6949   -2.1741 H   0  0  0  0  0  0  0  0  0  0  0  0
    2.0409   -0.0260   -0.7685 H   0  0  0  0  0  0  0  0  0  0  0  0
   -0.9478    0.0570    0.1304 C   0  0  0  0  0  0  0  0  0  0  0  0
   -0.4550    0.3143    1.4306 O   0  0  0  0  0  0  0  0  0  0  0  0
   -1.2986    1.1815    2.0825 N   0  0  0  0  0  0  0  0  0  0  0  0
   -0.8987    1.4425    3.2524 C   0  0  0  0  0  0  0  0  0  0  0  0
   -1.9362   -0.4063    0.1719 H   0  0  0  0  0  0  0  0  0  0  0  0
   -1.0002    0.9767   -0.4566 H   0  0  0  0  0  0  0  0  0  0  0  0
   -1.5096    2.1202    3.8337 H   0  0  0  0  0  0  0  0  0  0  0  0
    0.0112    1.0164    3.6696 H   0  0  0  0  0  0  0  0  0  0  0  0
  1  2  2  3
  1  5  1  0
  1  6  1  0
  2  3  1  0
  4  7  1  0
  7  8  1  0
  7 11  1  0
  7 12  1  0
  8  9  1  0
  9 10  2  3
 10 13  1  0
 10 14  1  0
M  RAD  1   3   2
M  END
>  <reaction>  (6) 
rmg_rxn_15579

>  <mol_properties>  (6) 
{"0": {"label": "*1", "atom_type": "Cs"}, "1": {"label": "*0", "atom_type": "N3d"}, "3": {"label": "*2", "atom_type": "H0"}, "6": {"label": "*3", "atom_type": "Cs"}, "7": {"label": "*4", "atom_type": "O2s"}}

>  <type>  (6) 
unop_2

>  <geom_source>  (6) 
Heuristics

$$$$

     RDKit          3D

 14 13  0  0  0  0  0  0  0  0999 V2000
    0.5003    1.4544   -0.5794 C   0  0  0  0  0  0  0  0  0  0  0  0
    1.3081    0.9378    0.2778 N   0  0  0  0  0  0  0  0  0  0  0  0
    1.4278   -0.3618    0.5139 O   0  0  0  0  0  0  0  0  0  0  0  0
   -0.8408    1.4173   -0.0813 H   0  0  0  0  0  0  0  0  0  0  0  0
    0.1834    0.8825   -1.4623 H   0  0  0  0  0  0  0  0  0  0  0  0
    0.5977    2.5277   -0.6821 H   0  0  0  0  0  0  0  0  0  0  0  0
   -1.8731    0.7647    0.2096 C   0  0  0  0  0  0  0  0  0  0  0  0
   -1.3273   -0.4898    0.4429 O   0  0  0  0  0  0  0  0  0  0  0  0
   -0.5970   -0.9130   -0.6595 N   0  0  0  0  0  2  0  0  0  0  0  0
    0.6673   -1.3576   -0.2522 C   0  0  0  0  0  0  0  0  0  0  0  0
   -2.5304    0.8019   -0.6601 H   0  0  0  0  0  0  0  0  0  0  0  0
   -2.3529    1.0984    1.1235 H   0  0  0  0  0  0  0  0  0  0  0  0
    1.2197   -1.6207   -1.1608 H   0  0  0  0  0  0  0  0  0  0  0  0
    0.6542   -2.1995    0.4537 H   0  0  0  0  0  0  0  0  0  0  0  0
  1  2  2  3
  1  5  1  0
  1  6  1  0
  2  3  1  0
  3 10  1  0
  4  7  1  0
  7  8  1  0
  7 11  1  0
  7 12  1  0
  8  9  1  0
  9 10  1  0
 10 13  1  0
 10 14  1  0
M  RAD  1   9   2
M  END
>  <reaction>  (7) 
rmg_rxn_15579

>  <mol_properties>  (7) 
{"0": {"label": "*1", "atom_type": "Cs"}, "1": {"label": "*0", "atom_type": "N3d"}, "3": {"label": "*2", "atom_type": "H0"}, "6": {"label": "*3", "atom_type": "Cs"}, "7": {"label": "*4", "atom_type": "O2s"}}

>  <type>  (7) 
unop_3

>  <geom_source>  (7) 
Heuristics

$$$$

     RDKit          3D

 14 12  0  0  0  0  0  0  0  0999 V2000
    1.5433    1.0130   -1.0857 C   0  0  0  0  0  0  0  0  0  0  0  0
    1.5433   -0.3327   -1.6825 N   0  0  0  0  0  0  0  0  0  0  0  0
    1.5433   -0.3327   -2.8756 O   0  0  0  0  0  1  0  0  0  0  0  0
    0.4873    1.0844   -0.3131 H   0  0  0  0  0  0  0  0  0  0  0  0
    1.5433    1.7935   -1.8474 H   0  0  0  0  0  0  0  0  0  0  0  0
    2.4233    1.0725   -0.4419 H   0  0  0  0  0  0  0  0  0  0  0  0
   -0.5655    1.1556    0.4571 C   0  0  0  0  0  0  0  0  0  0  0  0
   -0.7936   -0.1619    0.9173 O   0  0  0  0  0  0  0  0  0  0  0  0
   -1.5976   -0.1306    2.0315 N   0  0  0  0  0  0  0  0  0  0  0  0
   -1.8304   -1.2884    2.4809 C   0  0  0  0  0  0  0  0  0  0  0  0
   -1.5039    1.6400    0.1783 H   0  0  0  0  0  0  0  0  0  0  0  0
   -0.0584    1.7530    1.2182 H   0  0  0  0  0  0  0  0  0  0  0  0
   -2.4579   -1.3501    3.3600 H   0  0  0  0  0  0  0  0  0  0  0  0
   -1.4283   -2.1879    2.0198 H   0  0  0  0  0  0  0  0  0  0  0  0
  1  2  2  3
  1  5  1  0
  1  6  1  0
  2  3  1  0
  4  7  1  0
  7  8  1  0
  7 11  1  0
  7 12  1  0
  8  9  1  0
  9 10  2  3
 10 13  1  0
 10 14  1  0
M  RAD  1   3   2
M  END
>  <reaction>  (8) 
rmg_rxn_15579

>  <mol_properties>  (8) 
{"0": {"label": "*1", "atom_type": "Cs"}, "1": {"label": "*0", "atom_type": "N3d"}, "3": {"label": "*2", "atom_type": "H0"}, "6": {"label": "*3", "atom_type": "Cs"}, "7": {"label": "*4", "atom_type": "O2s"}}

>  <type>  (8) 
unop_4

>  <geom_source>  (8) 
Heuristics

$$$$

     RDKit          3D

 14 12  0  0  0  0  0  0  0  0999 V2000
    1.3254   -0.3535   -1.2273 C   0  0  0  0  0  0  0  0  0  0  0  0
    1.3254   -1.6992   -1.8241 N   0  0  0  0  0  0  0  0  0  0  0  0
    1.3254   -1.6992   -3.0172 O   0  0  0  0  0  1  0  0  0  0  0  0
    0.2693   -0.2821   -0.4547 H   0  0  0  0  0  0  0  0  0  0  0  0
    1.3254    0.4270   -1.9890 H   0  0  0  0  0  0  0  0  0  0  0  0
    2.2054   -0.2940   -0.5834 H   0  0  0  0  0  0  0  0  0  0  0  0
   -0.7834   -0.2109    0.3155 C   0  0  0  0  0  0  0  0  0  0  0  0
   -0.4384    0.6839    1.3547 O   0  0  0  0  0  0  0  0  0  0  0  0
   -1.5751    1.2702    1.8575 N   0  0  0  0  0  0  0  0  0  0  0  0
   -1.3170    2.0809    2.7918 C   0  0  0  0  0  0  0  0  0  0  0  0
   -1.4342   -1.0066    0.6851 H   0  0  0  0  0  0  0  0  0  0  0  0
   -1.2787    0.3145   -0.5041 H   0  0  0  0  0  0  0  0  0  0  0  0
   -2.1609    2.5858    3.2425 H   0  0  0  0  0  0  0  0  0  0  0  0
   -0.3037    2.2731    3.1378 H   0  0  0  0  0  0  0  0  0  0  0  0
  1  2  2  3
  1  5  1  0
  1  6  1  0
  2  3  1  0
  4  7  1  0
  7  8  1  0
  7 11  1  0
  7 12  1  0
  8  9  1  0
  9 10  2  3
 10 13  1  0
 10 14  1  0
M  RAD  1   3   2
M  END
>  <reaction>  (9) 
rmg_rxn_15579

>  <mol_properties>  (9) 
{"0": {"label": "*1", "atom_type": "Cs"}, "1": {"label": "*0", "atom_type": "N3d"}, "3": {"label": "*2", "atom_type": "H0"}, "6": {"label": "*3", "atom_type": "Cs"}, "7": {"label": "*4", "atom_type": "O2s"}}

>  <type>  (9) 
unop_5

>  <geom_source>  (9) 
Heuristics

$$$$

     RDKit          3D

 14 12  0  0  0  0  0  0  0  0999 V2000
    2.1045    0.2173   -0.1854 C   0  0  0  0  0  0  0  0  0  0  0  0
    2.1045   -1.1284   -0.7822 N   0  0  0  0  0  0  0  0  0  0  0  0
    2.1045   -1.1284   -1.9754 O   0  0  0  0  0  1  0  0  0  0  0  0
    1.0485    0.2887    0.5871 H   0  0  0  0  0  0  0  0  0  0  0  0
    2.1045    0.9978   -0.9472 H   0  0  0  0  0  0  0  0  0  0  0  0
    2.9845    0.2768    0.4584 H   0  0  0  0  0  0  0  0  0  0  0  0
   -0.0043    0.3599    1.3574 C   0  0  0  0  0  0  0  0  0  0  0  0
   -1.1151    0.1444    0.5092 O   0  0  0  0  0  0  0  0  0  0  0  0
   -2.1963    0.8550    0.9726 N   0  0  0  0  0  0  0  0  0  0  0  0
   -3.2168    0.6938    0.2450 C   0  0  0  0  0  0  0  0  0  0  0  0
    0.2735    1.4162    1.3765 H   0  0  0  0  0  0  0  0  0  0  0  0
   -0.2168    0.0199    2.3734 H   0  0  0  0  0  0  0  0  0  0  0  0
   -4.1130    1.2214    0.5431 H   0  0  0  0  0  0  0  0  0  0  0  0
   -3.2119    0.0605   -0.6395 H   0  0  0  0  0  0  0  0  0  0  0  0
  1  2  2  3
  1  5  1  0
  1  6  1  0
  2  3  1  0
  4  7  1  0
  7  8  1  0
  7 11  1  0
  7 12  1  0
  8  9  1  0
  9 10  2  3
 10 13  1  0
 10 14  1  0
M  RAD  1   3   2
M  END
>  <reaction>  (10) 
rmg_rxn_15579

>  <mol_properties>  (10) 
{"0": {"label": "*1", "atom_type": "Cs"}, "1": {"label": "*0", "atom_type": "N3d"}, "3": {"label": "*2", "atom_type": "H0"}, "6": {"label": "*3", "atom_type": "Cs"}, "7": {"label": "*4", "atom_type": "O2s"}}

>  <type>  (10) 
unop_6

>  <geom_source>  (10) 
Heuristics

$$$$

     RDKit          3D

 14 12  0  0  0  0  0  0  0  0999 V2000
    1.5420    1.3522   -0.2952 C   0  0  0  0  0  0  0  0  0  0  0  0
    2.3092    0.4235    0.0375 N   0  0  0  0  0  0  0  0  0  0  0  0
    2.2353   -0.7614    0.3336 O   0  0  0  0  0  1  0  0  0  0  0  0
    0.3479   -1.4818    0.0612 H   0  0  0  0  0  0  0  0  0  0  0  0
    0.4583    1.2151   -0.3828 H   0  0  0  0  0  0  0  0  0  0  0  0
    1.9724    2.3185   -0.4922 H   0  0  0  0  0  0  0  0  0  0  0  0
   -0.6543   -1.6716   -0.3558 C   0  0  0  0  0  0  0  0  0  0  0  0
   -1.6574   -0.8389    0.1680 O   0  0  0  0  0  0  0  0  0  0  0  0
   -1.4394    0.4868   -0.1352 N   0  0  0  0  0  0  0  0  0  0  0  0
   -2.3332    1.3001    0.2183 C   0  0  0  0  0  0  0  0  0  0  0  0
   -0.7571   -2.6411    0.0859 H   0  0  0  0  0  0  0  0  0  0  0  0
   -0.6457   -1.6962   -1.4427 H   0  0  0  0  0  0  0  0  0  0  0  0
   -2.1618    2.3388   -0.0044 H   0  0  0  0  0  0  0  0  0  0  0  0
   -3.2489    1.0139    0.7255 H   0  0  0  0  0  0  0  0  0  0  0  0
  1  2  2  3
  1  5  1  0
  1  6  1  0
  2  3  1  0
  4  7  1  0
  7  8  1  0
  7 11  1  0
  7 12  1  0
  8  9  1  0
  9 10  2  3
 10 13  1  0
 10 14  1  0
M  RAD  1   3   2
M  END
>  <reaction>  (11) 
rmg_rxn_15579

>  <mol_properties>  (11) 
{"0": {"label": "*1", "atom_type": "Cs"}, "1": {"label": "*0", "atom_type": "N3d"}, "3": {"label": "*2", "atom_type": "H0"}, "6": {"label": "*3", "atom_type": "Cs"}, "7": {"label": "*4", "atom_type": "O2s"}}

>  <type>  (11) 
unop_7

>  <geom_source>  (11) 
Heuristics

$$$$

     RDKit          3D

 14 12  0  0  0  0  0  0  0  0999 V2000
    1.4861   -0.4531   -1.0597 C   0  0  0  0  0  0  0  0  0  0  0  0
    1.4861   -1.7989   -1.6565 N   0  0  0  0  0  0  0  0  0  0  0  0
    1.4861   -1.7989   -2.8496 O   0  0  0  0  0  1  0  0  0  0  0  0
    0.4301   -0.3817   -0.2871 H   0  0  0  0  0  0  0  0  0  0  0  0
    1.4861    0.3274   -1.8214 H   0  0  0  0  0  0  0  0  0  0  0  0
    2.3661   -0.3936   -0.4158 H   0  0  0  0  0  0  0  0  0  0  0  0
   -0.6227   -0.3105    0.4831 C   0  0  0  0  0  0  0  0  0  0  0  0
   -0.6007    0.9876    1.0434 O   0  0  0  0  0  0  0  0  0  0  0  0
   -1.6825    1.1515    1.8751 N   0  0  0  0  0  0  0  0  0  0  0  0
   -1.7065    2.3001    2.4013 C   0  0  0  0  0  0  0  0  0  0  0  0
   -0.5634   -1.0735    1.2625 H   0  0  0  0  0  0  0  0  0  0  0  0
   -1.5267   -0.4646   -0.1104 H   0  0  0  0  0  0  0  0  0  0  0  0
   -2.5295    2.5093    3.0715 H   0  0  0  0  0  0  0  0  0  0  0  0
   -0.9463    3.0523    2.2015 H   0  0  0  0  0  0  0  0  0  0  0  0
  1  2  2  3
  1  5  1  0
  1  6  1  0
  2  3  1  0
  4  7  1  0
  7  8  1  0
  7 11  1  0
  7 12  1  0
  8  9  1  0
  9 10  2  3
 10 13  1  0
 10 14  1  0
M  RAD  1   3   2
M  END
>  <reaction>  (12) 
rmg_rxn_15579

>  <mol_properties>  (12) 
{"0": {"label": "*1", "atom_type": "Cs"}, "1": {"label": "*0", "atom_type": "N3d"}, "3": {"label": "*2", "atom_type": "H0"}, "6": {"label": "*3", "atom_type": "Cs"}, "7": {"label": "*4", "atom_type": "O2s"}}

>  <type>  (12) 
unop_8

>  <geom_source>  (12) 
Heuristics

$$$$

     RDKit          3D

 14 12  0  0  0  0  0  0  0  0999 V2000
   -1.2391    0.4279   -0.6678 C   0  0  0  0  0  0  0  0  0  0  0  0
   -2.4671    0.2103   -0.3735 N   0  0  0  0  0  0  0  0  0  0  0  0
   -3.1550    0.1960    0.6393 O   0  0  0  0  0  1  0  0  0  0  0  0
   -0.4014   -0.6307   -0.2322 H   0  0  0  0  0  0  0  0  0  0  0  0
   -0.6739    1.1838   -0.1115 H   0  0  0  0  0  0  0  0  0  0  0  0
   -1.0094    0.3595   -1.7246 H   0  0  0  0  0  0  0  0  0  0  0  0
    0.4906   -1.3963    0.1488 C   0  0  0  0  0  0  0  0  0  0  0  0
    1.7313   -0.8287   -0.1872 O   0  0  0  0  0  0  0  0  0  0  0  0
    1.8220    0.4728    0.2757 N   0  0  0  0  0  0  0  0  0  0  0  0
    2.9330    1.0421    0.1224 C   0  0  0  0  0  0  0  0  0  0  0  0
    0.4280   -2.3397   -0.3849 H   0  0  0  0  0  0  0  0  0  0  0  0
    0.3797   -1.5342    1.2254 H   0  0  0  0  0  0  0  0  0  0  0  0
    3.0044    2.0587    0.4681 H   0  0  0  0  0  0  0  0  0  0  0  0
    3.8035    0.5762   -0.3297 H   0  0  0  0  0  0  0  0  0  0  0  0
  1  2  2  3
  1  5  1  0
  1  6  1  0
  2  3  1  0
  4  7  1  0
  7  8  1  0
  7 11  1  0
  7 12  1  0
  8  9  1  0
  9 10  2  3
 10 13  1  0
 10 14  1  0
M  RAD  1   3   2
M  END
>  <reaction>  (13) 
rmg_rxn_15579

>  <mol_properties>  (13) 
{"0": {"label": "*1", "atom_type": "Cs"}, "1": {"label": "*0", "atom_type": "N3d"}, "3": {"label": "*2", "atom_type": "H0"}, "6": {"label": "*3", "atom_type": "Cs"}, "7": {"label": "*4", "atom_type": "O2s"}}

>  <type>  (13) 
unop_9

>  <geom_source>  (13) 
Heuristics

$$$$

     RDKit          3D

 14 12  0  0  0  0  0  0  0  0999 V2000
    1.9828   -0.2121   -0.2718 C   0  0  0  0  0  0  0  0  0  0  0  0
    1.9828   -1.5578   -0.8687 N   0  0  0  0  0  0  0  0  0  0  0  0
    1.9828   -1.5578   -2.0618 O   0  0  0  0  0  1  0  0  0  0  0  0
    0.9268   -0.1407    0.5007 H   0  0  0  0  0  0  0  0  0  0  0  0
    1.9828    0.5684   -1.0336 H   0  0  0  0  0  0  0  0  0  0  0  0
    2.8628   -0.1526    0.3720 H   0  0  0  0  0  0  0  0  0  0  0  0
   -0.1259   -0.0695    1.2709 C   0  0  0  0  0  0  0  0  0  0  0  0
   -1.1697    0.4159    0.4496 O   0  0  0  0  0  0  0  0  0  0  0  0
   -1.9531    1.2900    1.1644 N   0  0  0  0  0  0  0  0  0  0  0  0
   -2.9027    1.7520    0.4704 C   0  0  0  0  0  0  0  0  0  0  0  0
    0.5129    0.7473    1.6144 H   0  0  0  0  0  0  0  0  0  0  0  0
   -0.5255   -0.6077    2.1334 H   0  0  0  0  0  0  0  0  0  0  0  0
   -3.5675    2.4497    0.9618 H   0  0  0  0  0  0  0  0  0  0  0  0
   -3.0584    1.4730   -0.5695 H   0  0  0  0  0  0  0  0  0  0  0  0
  1  2  2  3
  1  5  1  0
  1  6  1  0
  2  3  1  0
  4  7  1  0
  7  8  1  0
  7 11  1  0
  7 12  1  0
  8  9  1  0
  9 10  2  3
 10 13  1  0
 10 14  1  0
M  RAD  1   3   2
M  END
>  <reaction>  (14) 
rmg_rxn_15579

>  <mol_properties>  (14) 
{"0": {"label": "*1", "atom_type": "Cs"}, "1": {"label": "*0", "atom_type": "N3d"}, "3": {"label": "*2", "atom_type": "H0"}, "6": {"label": "*3", "atom_type": "Cs"}, "7": {"label": "*4", "atom_type": "O2s"}}

>  <type>  (14) 
unop_10

>  <geom_source>  (14) 
Heuristics

$$$$

     RDKit          3D

 14 12  0  0  0  0  0  0  0  0999 V2000
   -1.5410   -1.3524    0.2954 C   0  0  0  0  0  0  0  0  0  0  0  0
   -2.3079   -0.4239   -0.0386 N   0  0  0  0  0  0  0  0  0  0  0  0
   -2.2335    0.7614   -0.3330 O   0  0  0  0  0  1  0  0  0  0  0  0
   -0.3488    1.4832   -0.0579 H   0  0  0  0  0  0  0  0  0  0  0  0
   -0.4576   -1.2146    0.3858 H   0  0  0  0  0  0  0  0  0  0  0  0
   -1.9712   -2.3192    0.4900 H   0  0  0  0  0  0  0  0  0  0  0  0
    0.6540    1.6718    0.3563 C   0  0  0  0  0  0  0  0  0  0  0  0
    1.6559    0.8389   -0.1690 O   0  0  0  0  0  0  0  0  0  0  0  0
    1.4391   -0.4865    0.1365 N   0  0  0  0  0  0  0  0  0  0  0  0
    2.3318   -1.3002   -0.2186 C   0  0  0  0  0  0  0  0  0  0  0  0
    0.6494    1.7011    1.4429 H   0  0  0  0  0  0  0  0  0  0  0  0
    0.7483    2.6386   -0.0916 H   0  0  0  0  0  0  0  0  0  0  0  0
    2.1610   -2.3386    0.0061 H   0  0  0  0  0  0  0  0  0  0  0  0
    3.2460   -1.0148   -0.7288 H   0  0  0  0  0  0  0  0  0  0  0  0
  1  2  2  3
  1  5  1  0
  1  6  1  0
  2  3  1  0
  4  7  1  0
  7  8  1  0
  7 11  1  0
  7 12  1  0
  8  9  1  0
  9 10  2  3
 10 13  1  0
 10 14  1  0
M  RAD  1   3   2
M  END
>  <reaction>  (15) 
rmg_rxn_15579

>  <mol_properties>  (15) 
{"0": {"label": "*1", "atom_type": "Cs"}, "1": {"label": "*0", "atom_type": "N3d"}, "3": {"label": "*2", "atom_type": "H0"}, "6": {"label": "*3", "atom_type": "Cs"}, "7": {"label": "*4", "atom_type": "O2s"}}

>  <type>  (15) 
unop_11

>  <geom_source>  (15) 
Heuristics

$$$$

     RDKit          3D

 14 12  0  0  0  0  0  0  0  0999 V2000
    1.7789   -0.4762   -0.5315 C   0  0  0  0  0  0  0  0  0  0  0  0
    1.7789   -1.8219   -1.1283 N   0  0  0  0  0  0  0  0  0  0  0  0
    1.7789   -1.8219   -2.3214 O   0  0  0  0  0  1  0  0  0  0  0  0
    0.7229   -0.4048    0.2411 H   0  0  0  0  0  0  0  0  0  0  0  0
    1.7789    0.3043   -1.2933 H   0  0  0  0  0  0  0  0  0  0  0  0
    2.6589   -0.4167    0.1123 H   0  0  0  0  0  0  0  0  0  0  0  0
   -0.3298   -0.3336    1.0113 C   0  0  0  0  0  0  0  0  0  0  0  0
   -1.1097    0.7282    0.4974 O   0  0  0  0  0  0  0  0  0  0  0  0
   -1.6836    1.4249    1.5337 N   0  0  0  0  0  0  0  0  0  0  0  0
   -2.3927    2.3869    1.1230 C   0  0  0  0  0  0  0  0  0  0  0  0
    0.4749    0.0443    1.6459 H   0  0  0  0  0  0  0  0  0  0  0  0
   -0.9472   -1.0314    1.5815 H   0  0  0  0  0  0  0  0  0  0  0  0
   -2.8808    2.9869    1.8794 H   0  0  0  0  0  0  0  0  0  0  0  0
   -2.5169    2.6143    0.0664 H   0  0  0  0  0  0  0  0  0  0  0  0
  1  2  2  3
  1  5  1  0
  1  6  1  0
  2  3  1  0
  4  7  1  0
  7  8  1  0
  7 11  1  0
  7 12  1  0
  8  9  1  0
  9 10  2  3
 10 13  1  0
 10 14  1  0
M  RAD  1   3   2
M  END
>  <reaction>  (16) 
rmg_rxn_15579

>  <mol_properties>  (16) 
{"0": {"label": "*1", "atom_type": "Cs"}, "1": {"label": "*0", "atom_type": "N3d"}, "3": {"label": "*2", "atom_type": "H0"}, "6": {"label": "*3", "atom_type": "Cs"}, "7": {"label": "*4", "atom_type": "O2s"}}

>  <type>  (16) 
unop_12

>  <geom_source>  (16) 
Heuristics

$$$$

     RDKit          3D

 14 12  0  0  0  0  0  0  0  0999 V2000
    1.1275    0.3285   -1.4909 C   0  0  0  0  0  0  0  0  0  0  0  0
    1.1275   -1.0172   -2.0877 N   0  0  0  0  0  0  0  0  0  0  0  0
    1.1275   -1.0172   -3.2808 O   0  0  0  0  0  1  0  0  0  0  0  0
    0.0715    0.3999   -0.7183 H   0  0  0  0  0  0  0  0  0  0  0  0
    1.1275    1.1090   -2.2527 H   0  0  0  0  0  0  0  0  0  0  0  0
    2.0075    0.3880   -0.8471 H   0  0  0  0  0  0  0  0  0  0  0  0
   -0.9812    0.4711    0.0519 C   0  0  0  0  0  0  0  0  0  0  0  0
   -0.5554    0.0275    1.3252 O   0  0  0  0  0  0  0  0  0  0  0  0
   -1.1539    0.7848    2.3035 N   0  0  0  0  0  0  0  0  0  0  0  0
   -0.8031    0.4249    3.4629 C   0  0  0  0  0  0  0  0  0  0  0  0
   -2.0628    0.3639   -0.0576 H   0  0  0  0  0  0  0  0  0  0  0  0
   -0.6992    1.5134   -0.1132 H   0  0  0  0  0  0  0  0  0  0  0  0
   -1.2316    0.9732    4.2912 H   0  0  0  0  0  0  0  0  0  0  0  0
   -0.1068   -0.3926    3.6373 H   0  0  0  0  0  0  0  0  0  0  0  0
  1  2  2  3
  1  5  1  0
  1  6  1  0
  2  3  1  0
  4  7  1  0
  7  8  1  0
  7 11  1  0
  7 12  1  0
  8  9  1  0
  9 10  2  3
 10 13  1  0
 10 14  1  0
M  RAD  1   3   2
M  END
>  <reaction>  (17) 
rmg_rxn_15579

>  <mol_properties>  (17) 
{"0": {"label": "*1", "atom_type": "Cs"}, "1": {"label": "*0", "atom_type": "N3d"}, "3": {"label": "*2", "atom_type": "H0"}, "6": {"label": "*3", "atom_type": "Cs"}, "7": {"label": "*4", "atom_type": "O2s"}}

>  <type>  (17) 
unop_13

>  <geom_source>  (17) 
Heuristics

$$$$

     RDKit          3D

 14 12  0  0  0  0  0  0  0  0999 V2000
    1.3328    1.2909   -0.2759 C   0  0  0  0  0  0  0  0  0  0  0  0
    1.9142    0.1931    0.0957 N   0  0  0  0  0  0  0  0  0  0  0  0
    1.6229   -0.9941   -0.0409 O   0  0  0  0  0  1  0  0  0  0  0  0
    0.0641    1.4051    0.3091 H   0  0  0  0  0  0  0  0  0  0  0  0
    0.9454    1.3429   -1.2996 H   0  0  0  0  0  0  0  0  0  0  0  0
    1.8253    2.1910    0.0731 H   0  0  0  0  0  0  0  0  0  0  0  0
   -1.1594    1.2868    0.5814 C   0  0  0  0  0  0  0  0  0  0  0  0
   -1.6949    0.4453   -0.3836 O   0  0  0  0  0  0  0  0  0  0  0  0
   -1.3512   -0.8679   -0.4509 N   0  0  0  0  0  0  0  0  0  0  0  0
   -0.6617   -1.4446    0.4387 C   0  0  0  0  0  0  0  0  0  0  0  0
   -1.6502    2.2474    0.4594 H   0  0  0  0  0  0  0  0  0  0  0  0
   -1.2370    0.9188    1.6053 H   0  0  0  0  0  0  0  0  0  0  0  0
   -0.4781   -2.4907    0.2733 H   0  0  0  0  0  0  0  0  0  0  0  0
   -0.3306   -1.0266    1.3858 H   0  0  0  0  0  0  0  0  0  0  0  0
  1  2  2  3
  1  5  1  0
  1  6  1  0
  2  3  1  0
  4  7  1  0
  7  8  1  0
  7 11  1  0
  7 12  1  0
  8  9  1  0
  9 10  2  3
 10 13  1  0
 10 14  1  0
M  RAD  1   3   2
M  END
>  <reaction>  (18) 
rmg_rxn_15579

>  <mol_properties>  (18) 
{"0": {"label": "*1", "atom_type": "Cs"}, "1": {"label": "*0", "atom_type": "N3d"}, "3": {"label": "*2", "atom_type": "H0"}, "6": {"label": "*3", "atom_type": "Cs"}, "7": {"label": "*4", "atom_type": "O2s"}}

>  <type>  (18) 
unop_14

>  <geom_source>  (18) 
Heuristics

$$$$

     RDKit          3D

 14 12  0  0  0  0  0  0  0  0999 V2000
    2.0718    0.6790   -0.3325 C   0  0  0  0  0  0  0  0  0  0  0  0
    2.0718   -0.6668   -0.9293 N   0  0  0  0  0  0  0  0  0  0  0  0
    2.0718   -0.6668   -2.1224 O   0  0  0  0  0  1  0  0  0  0  0  0
    1.0158    0.7504    0.4401 H   0  0  0  0  0  0  0  0  0  0  0  0
    2.0718    1.4595   -1.0942 H   0  0  0  0  0  0  0  0  0  0  0  0
    2.9518    0.7385    0.3113 H   0  0  0  0  0  0  0  0  0  0  0  0
   -0.0370    0.8216    1.2103 C   0  0  0  0  0  0  0  0  0  0  0  0
   -0.9999   -0.0314    0.6232 O   0  0  0  0  0  0  0  0  0  0  0  0
   -2.2494    0.2815    1.1024 N   0  0  0  0  0  0  0  0  0  0  0  0
   -3.1465   -0.4565    0.6051 C   0  0  0  0  0  0  0  0  0  0  0  0
   -0.2377    1.8663    0.9626 H   0  0  0  0  0  0  0  0  0  0  0  0
   -0.0183    0.7010    2.2958 H   0  0  0  0  0  0  0  0  0  0  0  0
   -4.1613   -0.2734    0.9321 H   0  0  0  0  0  0  0  0  0  0  0  0
   -2.9272   -1.2406   -0.1164 H   0  0  0  0  0  0  0  0  0  0  0  0
  1  2  2  3
  1  5  1  0
  1  6  1  0
  2  3  1  0
  4  7  1  0
  7  8  1  0
  7 11  1  0
  7 12  1  0
  8  9  1  0
  9 10  2  3
 10 13  1  0
 10 14  1  0
M  RAD  1   3   2
M  END
>  <reaction>  (19) 
rmg_rxn_15579

>  <mol_properties>  (19) 
{"0": {"label": "*1", "atom_type": "Cs"}, "1": {"label": "*0", "atom_type": "N3d"}, "3": {"label": "*2", "atom_type": "H0"}, "6": {"label": "*3", "atom_type": "Cs"}, "7": {"label": "*4", "atom_type": "O2s"}}

>  <type>  (19) 
unop_15

>  <geom_source>  (19) 
Heuristics

$$$$

     RDKit          3D

 14 12  0  0  0  0  0  0  0  0999 V2000
    1.2647    0.7482   -1.3824 C   0  0  0  0  0  0  0  0  0  0  0  0
    1.2647   -0.5976   -1.9792 N   0  0  0  0  0  0  0  0  0  0  0  0
    1.2647   -0.5976   -3.1723 O   0  0  0  0  0  1  0  0  0  0  0  0
    0.2087    0.8196   -0.6098 H   0  0  0  0  0  0  0  0  0  0  0  0
    1.2647    1.5286   -2.1441 H   0  0  0  0  0  0  0  0  0  0  0  0
    2.1447    0.8077   -0.7385 H   0  0  0  0  0  0  0  0  0  0  0  0
   -0.8441    0.8907    0.1604 C   0  0  0  0  0  0  0  0  0  0  0  0
   -0.6821   -0.1292    1.1263 O   0  0  0  0  0  0  0  0  0  0  0  0
   -1.2563    0.2608    2.3125 N   0  0  0  0  0  0  0  0  0  0  0  0
   -1.1367   -0.6209    3.2097 C   0  0  0  0  0  0  0  0  0  0  0  0
   -1.9022    1.0852   -0.0287 H   0  0  0  0  0  0  0  0  0  0  0  0
   -0.3550    1.8134    0.4808 H   0  0  0  0  0  0  0  0  0  0  0  0
   -1.5638   -0.3900    4.1764 H   0  0  0  0  0  0  0  0  0  0  0  0
   -0.6331   -1.5695    3.0360 H   0  0  0  0  0  0  0  0  0  0  0  0
  1  2  2  3
  1  5  1  0
  1  6  1  0
  2  3  1  0
  4  7  1  0
  7  8  1  0
  7 11  1  0
  7 12  1  0
  8  9  1  0
  9 10  2  3
 10 13  1  0
 10 14  1  0
M  RAD  1   3   2
M  END
>  <reaction>  (20) 
rmg_rxn_15579

>  <mol_properties>  (20) 
{"0": {"label": "*1", "atom_type": "Cs"}, "1": {"label": "*0", "atom_type": "N3d"}, "3": {"label": "*2", "atom_type": "H0"}, "6": {"label": "*3", "atom_type": "Cs"}, "7": {"label": "*4", "atom_type": "O2s"}}

>  <type>  (20) 
unop_16

>  <geom_source>  (20) 
Heuristics

$$$$

     RDKit          3D

 14 12  0  0  0  0  0  0  0  0999 V2000
    1.5950   -0.5239   -0.8429 C   0  0  0  0  0  0  0  0  0  0  0  0
    1.5950   -1.8697   -1.4397 N   0  0  0  0  0  0  0  0  0  0  0  0
    1.5950   -1.8697   -2.6328 O   0  0  0  0  0  1  0  0  0  0  0  0
    0.5390   -0.4525   -0.0703 H   0  0  0  0  0  0  0  0  0  0  0  0
    1.5950    0.2566   -1.6047 H   0  0  0  0  0  0  0  0  0  0  0  0
    2.4750   -0.4644   -0.1991 H   0  0  0  0  0  0  0  0  0  0  0  0
   -0.5138   -0.3813    0.6999 C   0  0  0  0  0  0  0  0  0  0  0  0
   -0.9036    0.9779    0.6917 O   0  0  0  0  0  0  0  0  0  0  0  0
   -1.5794    1.2729    1.8515 N   0  0  0  0  0  0  0  0  0  0  0  0
   -1.9493    2.4805    1.8907 C   0  0  0  0  0  0  0  0  0  0  0  0
    0.1542   -0.5912    1.5383 H   0  0  0  0  0  0  0  0  0  0  0  0
   -1.3854   -1.0374    0.7546 H   0  0  0  0  0  0  0  0  0  0  0  0
   -2.4897    2.7936    2.7740 H   0  0  0  0  0  0  0  0  0  0  0  0
   -1.7434    3.1831    1.0860 H   0  0  0  0  0  0  0  0  0  0  0  0
  1  2  2  3
  1  5  1  0
  1  6  1  0
  2  3  1  0
  4  7  1  0
  7  8  1  0
  7 11  1  0
  7 12  1  0
  8  9  1  0
  9 10  2  3
 10 13  1  0
 10 14  1  0
M  RAD  1   3   2
M  END
>  <reaction>  (21) 
rmg_rxn_15579

>  <mol_properties>  (21) 
{"0": {"label": "*1", "atom_type": "Cs"}, "1": {"label": "*0", "atom_type": "N3d"}, "3": {"label": "*2", "atom_type": "H0"}, "6": {"label": "*3", "atom_type": "Cs"}, "7": {"label": "*4", "atom_type": "O2s"}}

>  <type>  (21) 
unop_17

>  <geom_source>  (21) 
Heuristics

$$$$

     RDKit          3D

 14 12  0  0  0  0  0  0  0  0999 V2000
    1.8607    0.9927   -0.6813 C   0  0  0  0  0  0  0  0  0  0  0  0
    1.8607   -0.3530   -1.2781 N   0  0  0  0  0  0  0  0  0  0  0  0
    1.8607   -0.3530   -2.4712 O   0  0  0  0  0  1  0  0  0  0  0  0
    0.8046    1.0641    0.0913 H   0  0  0  0  0  0  0  0  0  0  0  0
    1.8607    1.7732   -1.4431 H   0  0  0  0  0  0  0  0  0  0  0  0
    2.7407    1.0522   -0.0375 H   0  0  0  0  0  0  0  0  0  0  0  0
   -0.2481    1.1353    0.8615 C   0  0  0  0  0  0  0  0  0  0  0  0
   -0.8880   -0.1211    0.7533 O   0  0  0  0  0  0  0  0  0  0  0  0
   -2.0159   -0.1355    1.5383 N   0  0  0  0  0  0  0  0  0  0  0  0
   -2.6240   -1.2414    1.4744 C   0  0  0  0  0  0  0  0  0  0  0  0
   -0.9040    1.9386    0.5185 H   0  0  0  0  0  0  0  0  0  0  0  0
    0.0593    1.3298    1.8915 H   0  0  0  0  0  0  0  0  0  0  0  0
   -3.5252   -1.3340    2.0657 H   0  0  0  0  0  0  0  0  0  0  0  0
   -2.2730   -2.0687    0.8614 H   0  0  0  0  0  0  0  0  0  0  0  0
  1  2  2  3
  1  5  1  0
  1  6  1  0
  2  3  1  0
  4  7  1  0
  7  8  1  0
  7 11  1  0
  7 12  1  0
  8  9  1  0
  9 10  2  3
 10 13  1  0
 10 14  1  0
M  RAD  1   3   2
M  END
>  <reaction>  (22) 
rmg_rxn_15579

>  <mol_properties>  (22) 
{"0": {"label": "*1", "atom_type": "Cs"}, "1": {"label": "*0", "atom_type": "N3d"}, "3": {"label": "*2", "atom_type": "H0"}, "6": {"label": "*3", "atom_type": "Cs"}, "7": {"label": "*4", "atom_type": "O2s"}}

>  <type>  (22) 
unop_18

>  <geom_source>  (22) 
Heuristics

$$$$

     RDKit          3D

 14 12  0  0  0  0  0  0  0  0999 V2000
    0.7798   -0.1768    0.1685 O   0  0  0  0  0  0  0  0  0  0  0  0
   -1.4646    2.2299   -0.2590 O   0  0  0  0  0  0  0  0  0  0  0  0
    2.1520   -0.2469    0.0900 N   0  0  0  0  0  0  0  0  0  0  0  0
   -2.2329    1.4719    0.2491 N   0  0  0  0  0  0  0  0  0  0  0  0
   -0.0186   -1.2734   -0.2438 C   0  0  0  0  0  3  0  0  0  0  0  0
    2.8824    0.7506    0.4649 C   0  0  0  0  0  0  0  0  0  0  0  0
   -2.1887    0.0725   -0.0758 C   0  0  0  0  0  0  0  0  0  0  0  0
    0.2280   -2.1682    0.3653 H   0  0  0  0  0  0  0  0  0  0  0  0
    0.1663   -1.4909   -1.3167 H   0  0  0  0  0  0  0  0  0  0  0  0
   -1.3311   -0.9639   -0.0711 H   0  0  0  0  0  0  0  0  0  0  0  0
    3.9596    0.6834    0.3983 H   0  0  0  0  0  0  0  0  0  0  0  0
    2.4261    1.6556    0.8460 H   0  0  0  0  0  0  0  0  0  0  0  0
   -2.4214   -0.0717   -1.1520 H   0  0  0  0  0  0  0  0  0  0  0  0
   -2.9369   -0.4720    0.5362 H   0  0  0  0  0  0  0  0  0  0  0  0
  1  5  1  0
  1  3  1  0
  2  4  2  0
  3  6  2  3
  4  7  1  0
  5  8  1  0
  5  9  1  0
  6 11  1  0
  6 12  1  0
  7 10  1  0
  7 13  1  0
  7 14  1  0
M  RAD  1   5   2
M  END
>  <reaction>  (23) 
rmg_rxn_15579

>  <mol_properties>  (23) 
{"0": {"label": "*1", "atom_type": "Cs"}, "1": {"label": "*0", "atom_type": "N3d"}, "3": {"label": "*2", "atom_type": "H0"}, "6": {"label": "*3", "atom_type": "Cs"}, "7": {"label": "*4", "atom_type": "O2s"}}

>  <type>  (23) 
unop_19

>  <geom_source>  (23) 
AutoTST

$$$$

     RDKit          3D

 14 12  0  0  0  0  0  0  0  0999 V2000
    1.5433    1.0130   -1.0857 C   0  0  0  0  0  0  0  0  0  0  0  0
    1.5433   -0.3327   -1.6825 N   0  0  0  0  0  0  0  0  0  0  0  0
    1.5433   -0.3327   -2.8756 O   0  0  0  0  0  1  0  0  0  0  0  0
    0.4873    1.0844   -0.3131 H   0  0  0  0  0  0  0  0  0  0  0  0
    1.5433    1.7935   -1.8475 H   0  0  0  0  0  0  0  0  0  0  0  0
    2.4233    1.0725   -0.4419 H   0  0  0  0  0  0  0  0  0  0  0  0
   -0.5655    1.1556    0.4571 C   0  0  0  0  0  0  0  0  0  0  0  0
   -0.7936   -0.1619    0.9173 O   0  0  0  0  0  0  0  0  0  0  0  0
   -1.5976   -0.1306    2.0315 N   0  0  0  0  0  0  0  0  0  0  0  0
   -1.8304   -1.2884    2.4809 C   0  0  0  0  0  0  0  0  0  0  0  0
   -1.5039    1.6400    0.1783 H   0  0  0  0  0  0  0  0  0  0  0  0
   -0.0584    1.7530    1.2182 H   0  0  0  0  0  0  0  0  0  0  0  0
   -2.4579   -1.3501    3.3599 H   0  0  0  0  0  0  0  0  0  0  0  0
   -1.4283   -2.1879    2.0198 H   0  0  0  0  0  0  0  0  0  0  0  0
  1  2  2  3
  1  5  1  0
  1  6  1  0
  2  3  1  0
  4  7  1  0
  7  8  1  0
  7 11  1  0
  7 12  1  0
  8  9  1  0
  9 10  2  3
 10 13  1  0
 10 14  1  0
M  RAD  1   3   2
M  END
>  <reaction>  (24) 
rmg_rxn_15579

>  <mol_properties>  (24) 
{"0": {"label": "*1", "atom_type": "Cs"}, "1": {"label": "*0", "atom_type": "N3d"}, "3": {"label": "*2", "atom_type": "H0"}, "6": {"label": "*3", "atom_type": "Cs"}, "7": {"label": "*4", "atom_type": "O2s"}}

>  <type>  (24) 
unop_20

>  <geom_source>  (24) 
gaussian_log

$$$$
