
     RDKit          3D

  5  4  0  0  0  0  0  0  0  0999 V2000
   -0.4583    0.0384    0.1517 N   0  0  0  0  0  0  0  0  0  0  0  0
    0.7454   -0.3487    0.5322 N   0  0  0  0  0  0  0  0  0  0  0  0
    0.7566   -1.0388    1.5193 O   0  0  0  0  0  0  0  0  0  0  0  0
   -1.2688   -0.2521    0.6850 H   0  0  0  0  0  0  0  0  0  0  0  0
   -0.5137    0.6154   -0.6670 H   0  0  0  0  0  0  0  0  0  0  0  0
  1  2  1  0
  1  4  1  0
  1  5  1  0
  2  3  2  0
M  END
>  <reaction>  (1) 
rmg_rxn_1487

>  <mol_properties>  (1) 
{"0": {"label": "donator", "atom_type": "N3s"}, "3": {"label": "d_hydrogen", "atom_type": "H0"}}

>  <type>  (1) 
r1h

$$$$

     RDKit          3D

  8  7  0  0  0  0  0  0  0  0999 V2000
   -1.0336    0.3440   -0.0356 C   0  0  0  0  0  3  0  0  0  0  0  0
    0.1991   -0.4326   -0.0698 C   0  0  0  0  0  0  0  0  0  0  0  0
    0.9631   -0.0368    1.2269 N   0  0  0  0  0  0  0  0  0  0  0  0
    0.8138   -0.8074    2.1160 O   0  0  0  0  0  0  0  0  0  0  0  0
   -1.0668    1.3490   -0.4321 H   0  0  0  0  0  0  0  0  0  0  0  0
   -1.8598    0.0102    0.5774 H   0  0  0  0  0  0  0  0  0  0  0  0
    0.0447   -1.5108   -0.0264 H   0  0  0  0  0  0  0  0  0  0  0  0
    0.8639   -0.1518   -0.8851 H   0  0  0  0  0  0  0  0  0  0  0  0
  1  2  1  0
  1  5  1  0
  1  6  1  0
  2  3  1  0
  2  7  1  0
  2  8  1  0
  3  4  2  0
M  RAD  1   1   2
M  END
>  <reaction>  (2) 
rmg_rxn_1487

>  <mol_properties>  (2) 
{"0": {"label": "acceptor", "atom_type": "Cs"}}

>  <type>  (2) 
r2

$$$$

     RDKit          3D

  9  8  0  0  0  0  0  0  0  0999 V2000
   -1.0314    0.2323   -0.1227 C   0  0  0  0  0  0  0  0  0  0  0  0
    0.3094   -0.4511    0.0063 C   0  0  0  0  0  0  0  0  0  0  0  0
    0.3197   -1.7698    0.6841 N   0  0  0  0  0  0  0  0  0  0  0  0
   -0.7498   -2.1455    1.0557 O   0  0  0  0  0  0  0  0  0  0  0  0
   -1.4744    0.4198    0.8552 H   0  0  0  0  0  0  0  0  0  0  0  0
   -0.9073    1.1865   -0.6350 H   0  0  0  0  0  0  0  0  0  0  0  0
   -1.7319   -0.3778   -0.6927 H   0  0  0  0  0  0  0  0  0  0  0  0
    1.0375    0.1401    0.5713 H   0  0  0  0  0  0  0  0  0  0  0  0
    0.7826   -0.6494   -0.9609 H   0  0  0  0  0  0  0  0  0  0  0  0
  1  2  1  0
  1  5  1  0
  1  6  1  0
  1  7  1  0
  2  3  1  0
  2  8  1  0
  2  9  1  0
  3  4  2  0
M  END
>  <reaction>  (3) 
rmg_rxn_1487

>  <mol_properties>  (3) 
{"0": {"label": "a_hydrogen", "atom_type": "H0"}, "1": {"label": "acceptor", "atom_type": "Cs"}}

>  <type>  (3) 
r2h

$$$$

     RDKit          3D

 13 11  0  0  0  0  0  0  0  0999 V2000
   -0.2953   -2.0033    0.4717 N   0  0  0  0  0  0  0  0  0  0  0  0
    0.6877   -2.2518    1.2615 N   0  0  0  0  0  0  0  0  0  0  0  0
    1.3850   -1.3425    1.6312 O   0  0  0  0  0  0  0  0  0  0  0  0
   -0.2644   -0.8975   -0.0823 H   0  0  0  0  0  0  0  0  0  0  0  0
   -0.7101   -2.8317    0.0635 H   0  0  0  0  0  0  0  0  0  0  0  0
   -0.0952    0.3363   -0.6835 C   0  0  0  0  0  3  0  0  0  0  0  0
   -0.3173    1.3393    0.3955 C   0  0  0  0  0  0  0  0  0  0  0  0
   -0.3262    2.7803   -0.0217 N   0  0  0  0  0  0  0  0  0  0  0  0
   -0.1449    2.9754   -1.1807 O   0  0  0  0  0  0  0  0  0  0  0  0
   -0.8524    0.3084   -1.4645 H   0  0  0  0  0  0  0  0  0  0  0  0
    0.9153    0.2869   -1.0790 H   0  0  0  0  0  0  0  0  0  0  0  0
   -1.2780    1.2178    0.9053 H   0  0  0  0  0  0  0  0  0  0  0  0
    0.4472    1.2912    1.1752 H   0  0  0  0  0  0  0  0  0  0  0  0
  1  2  1  0
  1  4  1  0
  1  5  1  0
  2  3  2  0
  6  7  1  0
  6 10  1  0
  6 11  1  0
  7  8  1  0
  7 12  1  0
  7 13  1  0
  8  9  2  0
M  RAD  1   6   2
M  END
>  <reaction>  (4) 
rmg_rxn_1487

>  <mol_properties>  (4) 
{"0": {"label": "*1", "atom_type": "N3s"}, "1": {"label": "*0", "atom_type": "N3d"}, "3": {"label": "*2", "atom_type": "H0"}, "5": {"label": "*3", "atom_type": "Cs"}, "6": {"label": "*4", "atom_type": "Cs"}}

>  <type>  (4) 
ts

$$$$

     RDKit          3D

 13 11  0  0  0  0  0  0  0  0999 V2000
    1.8703   -0.1819   -0.4618 N   0  0  0  0  0  0  0  0  0  0  0  0
    1.5722    0.8627    0.1640 N   0  0  0  0  0  0  0  0  0  0  0  0
    0.4139    1.1353    0.4648 O   0  0  0  0  0  0  0  0  0  0  0  0
    1.1019   -1.1386   -0.2989 H   0  0  0  0  0  0  0  0  0  0  0  0
    2.8773   -0.3124   -0.5470 H   0  0  0  0  0  0  0  0  0  0  0  0
    0.1475   -1.9572    0.0376 C   0  0  0  0  0  3  0  0  0  0  0  0
   -1.0411   -1.0995    0.3587 C   0  0  0  0  0  0  0  0  0  0  0  0
   -0.9957    0.2220   -0.3086 N   0  0  0  0  0  0  0  0  0  0  0  0
   -1.9721    0.9381   -0.2728 O   0  0  0  0  0  0  0  0  0  0  0  0
    0.5124   -2.5171    0.8897 H   0  0  0  0  0  0  0  0  0  0  0  0
   -0.0068   -2.6023   -0.8190 H   0  0  0  0  0  0  0  0  0  0  0  0
   -1.9737   -1.5419   -0.0031 H   0  0  0  0  0  0  0  0  0  0  0  0
   -1.1310   -0.9221    1.4363 H   0  0  0  0  0  0  0  0  0  0  0  0
  1  2  1  0
  1  4  1  0
  1  5  1  0
  2  3  2  0
  6  7  1  0
  6 10  1  0
  6 11  1  0
  7  8  1  0
  7 12  1  0
  7 13  1  0
  8  9  2  0
M  RAD  1   6   2
M  END
>  <reaction>  (5) 
rmg_rxn_1487

>  <mol_properties>  (5) 
{"0": {"label": "*1", "atom_type": "N3s"}, "1": {"label": "*0", "atom_type": "N3d"}, "3": {"label": "*2", "atom_type": "H0"}, "5": {"label": "*3", "atom_type": "Cs"}, "6": {"label": "*4", "atom_type": "Cs"}}

>  <type>  (5) 
unop_1

>  <geom_source>  (5) 
crest_best.xyz

$$$$

     RDKit          3D

 13 11  0  0  0  0  0  0  0  0999 V2000
    0.3003   -1.6327    1.0853 N   0  0  0  0  0  0  0  0  0  0  0  0
    0.3003   -2.8355    0.5406 N   0  0  0  0  0  0  0  0  0  0  0  0
    0.3003   -2.8355   -0.6639 O   0  0  0  0  0  0  0  0  0  0  0  0
    0.3003   -0.6500    0.3701 H   0  0  0  0  0  0  0  0  0  0  0  0
    0.3003   -1.5863    2.0874 H   0  0  0  0  0  0  0  0  0  0  0  0
    0.3003    0.4077   -0.3998 C   0  0  0  0  0  3  0  0  0  0  0  0
   -0.9322    1.2356   -0.1223 C   0  0  0  0  0  0  0  0  0  0  0  0
   -0.7569    2.7079   -0.1244 N   0  0  0  0  0  0  0  0  0  0  0  0
    0.3557    3.0753   -0.3487 O   0  0  0  0  0  0  0  0  0  0  0  0
    0.7161    0.6358   -1.3809 H   0  0  0  0  0  0  0  0  0  0  0  0
    1.0768    0.5954    0.3415 H   0  0  0  0  0  0  0  0  0  0  0  0
   -1.7335    1.0656   -0.8488 H   0  0  0  0  0  0  0  0  0  0  0  0
   -1.3765    1.0256    0.8561 H   0  0  0  0  0  0  0  0  0  0  0  0
  1  2  1  0
  1  4  1  0
  1  5  1  0
  2  3  2  0
  6  7  1  0
  6 10  1  0
  6 11  1  0
  7  8  1  0
  7 12  1  0
  7 13  1  0
  8  9  2  0
M  RAD  1   6   2
M  END
>  <reaction>  (6) 
rmg_rxn_1487

>  <mol_properties>  (6) 
{"0": {"label": "*1", "atom_type": "N3s"}, "1": {"label": "*0", "atom_type": "N3d"}, "3": {"label": "*2", "atom_type": "H0"}, "5": {"label": "*3", "atom_type": "Cs"}, "6": {"label": "*4", "atom_type": "Cs"}}

>  <type>  (6) 
unop_2

>  <geom_source>  (6) 
Heuristics

$$$$

     RDKit          3D

 13 11  0  0  0  0  0  0  0  0999 V2000
    0.3956   -1.1648    1.8746 N   0  0  0  0  0  0  0  0  0  0  0  0
    0.3956   -2.3676    1.3298 N   0  0  0  0  0  0  0  0  0  0  0  0
    0.3956   -2.3676    0.1253 O   0  0  0  0  0  0  0  0  0  0  0  0
    0.3956   -0.1822    1.1594 H   0  0  0  0  0  0  0  0  0  0  0  0
    0.3956   -1.1185    2.8767 H   0  0  0  0  0  0  0  0  0  0  0  0
    0.3956    0.8755    0.3895 C   0  0  0  0  0  3  0  0  0  0  0  0
   -0.3160    0.5594   -0.9048 C   0  0  0  0  0  0  0  0  0  0  0  0
   -0.7758    1.7170   -1.7091 N   0  0  0  0  0  0  0  0  0  0  0  0
   -0.5267    2.7824   -1.2337 O   0  0  0  0  0  0  0  0  0  0  0  0
    1.2953    1.4642    0.2115 H   0  0  0  0  0  0  0  0  0  0  0  0
   -0.2451    1.4442    1.0632 H   0  0  0  0  0  0  0  0  0  0  0  0
    0.3014   -0.0161   -1.6022 H   0  0  0  0  0  0  0  0  0  0  0  0
   -1.2233   -0.0359   -0.7591 H   0  0  0  0  0  0  0  0  0  0  0  0
  1  2  1  0
  1  4  1  0
  1  5  1  0
  2  3  2  0
  6  7  1  0
  6 10  1  0
  6 11  1  0
  7  8  1  0
  7 12  1  0
  7 13  1  0
  8  9  2  0
M  RAD  1   6   2
M  END
>  <reaction>  (7) 
rmg_rxn_1487

>  <mol_properties>  (7) 
{"0": {"label": "*1", "atom_type": "N3s"}, "1": {"label": "*0", "atom_type": "N3d"}, "3": {"label": "*2", "atom_type": "H0"}, "5": {"label": "*3", "atom_type": "Cs"}, "6": {"label": "*4", "atom_type": "Cs"}}

>  <type>  (7) 
unop_3

>  <geom_source>  (7) 
Heuristics

$$$$

     RDKit          3D

 13 11  0  0  0  0  0  0  0  0999 V2000
    0.0464   -1.6855    1.1031 N   0  0  0  0  0  0  0  0  0  0  0  0
    0.0464   -2.8883    0.5584 N   0  0  0  0  0  0  0  0  0  0  0  0
    0.0464   -2.8883   -0.6461 O   0  0  0  0  0  0  0  0  0  0  0  0
    0.0464   -0.7029    0.3879 H   0  0  0  0  0  0  0  0  0  0  0  0
    0.0464   -1.6392    2.1052 H   0  0  0  0  0  0  0  0  0  0  0  0
    0.0464    0.3548   -0.3819 C   0  0  0  0  0  3  0  0  0  0  0  0
   -0.6652    1.4893    0.3167 C   0  0  0  0  0  0  0  0  0  0  0  0
   -0.2434    2.8628   -0.0494 N   0  0  0  0  0  0  0  0  0  0  0  0
    0.6237    2.9148   -0.8670 O   0  0  0  0  0  0  0  0  0  0  0  0
   -0.0909    0.4084   -1.4617 H   0  0  0  0  0  0  0  0  0  0  0  0
    1.1175    0.3784   -0.1822 H   0  0  0  0  0  0  0  0  0  0  0  0
   -1.7455    1.4902    0.1385 H   0  0  0  0  0  0  0  0  0  0  0  0
   -0.5493    1.4605    1.4051 H   0  0  0  0  0  0  0  0  0  0  0  0
  1  2  1  0
  1  4  1  0
  1  5  1  0
  2  3  2  0
  6  7  1  0
  6 10  1  0
  6 11  1  0
  7  8  1  0
  7 12  1  0
  7 13  1  0
  8  9  2  0
M  RAD  1   6   2
M  END
>  <reaction>  (8) 
rmg_rxn_1487

>  <mol_properties>  (8) 
{"0": {"label": "*1", "atom_type": "N3s"}, "1": {"label": "*0", "atom_type": "N3d"}, "3": {"label": "*2", "atom_type": "H0"}, "5": {"label": "*3", "atom_type": "Cs"}, "6": {"label": "*4", "atom_type": "Cs"}}

>  <type>  (8) 
unop_4

>  <geom_source>  (8) 
Heuristics

$$$$

     RDKit          3D

 13 11  0  0  0  0  0  0  0  0999 V2000
   -0.5927   -1.3217    1.5753 N   0  0  0  0  0  0  0  0  0  0  0  0
   -0.5927   -2.5245    1.0306 N   0  0  0  0  0  0  0  0  0  0  0  0
   -0.5927   -2.5245   -0.1740 O   0  0  0  0  0  0  0  0  0  0  0  0
   -0.5927   -0.3390    0.8601 H   0  0  0  0  0  0  0  0  0  0  0  0
   -0.5927   -1.2753    2.5774 H   0  0  0  0  0  0  0  0  0  0  0  0
   -0.5927    0.7187    0.0902 C   0  0  0  0  0  3  0  0  0  0  0  0
    0.6398    0.7091   -0.7829 C   0  0  0  0  0  0  0  0  0  0  0  0
    1.2028    2.0306   -1.1506 N   0  0  0  0  0  0  0  0  0  0  0  0
    0.6078    2.9647   -0.7073 O   0  0  0  0  0  0  0  0  0  0  0  0
   -0.3978    1.2115    1.0425 H   0  0  0  0  0  0  0  0  0  0  0  0
   -1.4150    1.2453   -0.3937 H   0  0  0  0  0  0  0  0  0  0  0  0
    1.4835    0.1825   -0.3251 H   0  0  0  0  0  0  0  0  0  0  0  0
    0.4766    0.2159   -1.7467 H   0  0  0  0  0  0  0  0  0  0  0  0
  1  2  1  0
  1  4  1  0
  1  5  1  0
  2  3  2  0
  6  7  1  0
  6 10  1  0
  6 11  1  0
  7  8  1  0
  7 12  1  0
  7 13  1  0
  8  9  2  0
M  RAD  1   6   2
M  END
>  <reaction>  (9) 
rmg_rxn_1487

>  <mol_properties>  (9) 
{"0": {"label": "*1", "atom_type": "N3s"}, "1": {"label": "*0", "atom_type": "N3d"}, "3": {"label": "*2", "atom_type": "H0"}, "5": {"label": "*3", "atom_type": "Cs"}, "6": {"label": "*4", "atom_type": "Cs"}}

>  <type>  (9) 
unop_5

>  <geom_source>  (9) 
Heuristics

$$$$

     RDKit          3D

 13 11  0  0  0  0  0  0  0  0999 V2000
    0.0000   -1.6886    1.1969 N   0  0  0  0  0  0  0  0  0  0  0  0
    0.0000   -2.8914    0.6522 N   0  0  0  0  0  0  0  0  0  0  0  0
    0.0000   -2.8914   -0.5523 O   0  0  0  0  0  0  0  0  0  0  0  0
    0.0000   -0.7060    0.4817 H   0  0  0  0  0  0  0  0  0  0  0  0
    0.0000   -1.6422    2.1990 H   0  0  0  0  0  0  0  0  0  0  0  0
   -0.0000    0.3517   -0.2881 C   0  0  0  0  0  3  0  0  0  0  0  0
   -0.0000    1.5984    0.5647 C   0  0  0  0  0  0  0  0  0  0  0  0
   -0.0000    2.8948   -0.1550 N   0  0  0  0  0  0  0  0  0  0  0  0
   -0.0000    2.8025   -1.3444 O   0  0  0  0  0  0  0  0  0  0  0  0
   -0.8801    0.3126   -0.9296 H   0  0  0  0  0  0  0  0  0  0  0  0
    0.8801    0.3126   -0.9296 H   0  0  0  0  0  0  0  0  0  0  0  0
   -0.8712    1.6646    1.2246 H   0  0  0  0  0  0  0  0  0  0  0  0
    0.8712    1.6646    1.2246 H   0  0  0  0  0  0  0  0  0  0  0  0
  1  2  1  0
  1  4  1  0
  1  5  1  0
  2  3  2  0
  6  7  1  0
  6 10  1  0
  6 11  1  0
  7  8  1  0
  7 12  1  0
  7 13  1  0
  8  9  2  0
M  RAD  1   6   2
M  END
>  <reaction>  (10) 
rmg_rxn_1487

>  <mol_properties>  (10) 
{"0": {"label": "*1", "atom_type": "N3s"}, "1": {"label": "*0", "atom_type": "N3d"}, "3": {"label": "*2", "atom_type": "H0"}, "5": {"label": "*3", "atom_type": "Cs"}, "6": {"label": "*4", "atom_type": "Cs"}}

>  <type>  (10) 
unop_6

>  <geom_source>  (10) 
Heuristics

$$$$

     RDKit          3D

 13 11  0  0  0  0  0  0  0  0999 V2000
   -0.5379   -1.5005    1.2675 N   0  0  0  0  0  0  0  0  0  0  0  0
   -0.5379   -2.7033    0.7227 N   0  0  0  0  0  0  0  0  0  0  0  0
   -0.5379   -2.7033   -0.4818 O   0  0  0  0  0  0  0  0  0  0  0  0
   -0.5379   -0.5179    0.5523 H   0  0  0  0  0  0  0  0  0  0  0  0
   -0.5379   -1.4542    2.2696 H   0  0  0  0  0  0  0  0  0  0  0  0
   -0.5379    0.5398   -0.2176 C   0  0  0  0  0  3  0  0  0  0  0  0
    0.8852    0.9490   -0.5154 C   0  0  0  0  0  0  0  0  0  0  0  0
    1.1654    2.4048   -0.5418 N   0  0  0  0  0  0  0  0  0  0  0  0
    0.2191    3.0968   -0.3211 O   0  0  0  0  0  0  0  0  0  0  0  0
   -0.8558    0.9010    0.7603 H   0  0  0  0  0  0  0  0  0  0  0  0
   -1.2274    0.9414   -0.9599 H   0  0  0  0  0  0  0  0  0  0  0  0
    1.6036    0.5565    0.2117 H   0  0  0  0  0  0  0  0  0  0  0  0
    1.2358    0.5965   -1.4909 H   0  0  0  0  0  0  0  0  0  0  0  0
  1  2  1  0
  1  4  1  0
  1  5  1  0
  2  3  2  0
  6  7  1  0
  6 10  1  0
  6 11  1  0
  7  8  1  0
  7 12  1  0
  7 13  1  0
  8  9  2  0
M  RAD  1   6   2
M  END
>  <reaction>  (11) 
rmg_rxn_1487

>  <mol_properties>  (11) 
{"0": {"label": "*1", "atom_type": "N3s"}, "1": {"label": "*0", "atom_type": "N3d"}, "3": {"label": "*2", "atom_type": "H0"}, "5": {"label": "*3", "atom_type": "Cs"}, "6": {"label": "*4", "atom_type": "Cs"}}

>  <type>  (11) 
unop_7

>  <geom_source>  (11) 
Heuristics

$$$$

     RDKit          3D

 13 11  0  0  0  0  0  0  0  0999 V2000
    1.8702   -0.1819    0.4618 N   0  0  0  0  0  0  0  0  0  0  0  0
    1.5721    0.8627   -0.1640 N   0  0  0  0  0  0  0  0  0  0  0  0
    0.4139    1.1353   -0.4647 O   0  0  0  0  0  0  0  0  0  0  0  0
    1.1019   -1.1386    0.2990 H   0  0  0  0  0  0  0  0  0  0  0  0
    2.8772   -0.3123    0.5471 H   0  0  0  0  0  0  0  0  0  0  0  0
    0.1476   -1.9571   -0.0376 C   0  0  0  0  0  3  0  0  0  0  0  0
   -1.0410   -1.0995   -0.3587 C   0  0  0  0  0  0  0  0  0  0  0  0
   -0.9957    0.2220    0.3086 N   0  0  0  0  0  0  0  0  0  0  0  0
   -1.9721    0.9381    0.2728 O   0  0  0  0  0  0  0  0  0  0  0  0
   -0.0067   -2.6022    0.8190 H   0  0  0  0  0  0  0  0  0  0  0  0
    0.5124   -2.5172   -0.8897 H   0  0  0  0  0  0  0  0  0  0  0  0
   -1.1309   -0.9221   -1.4363 H   0  0  0  0  0  0  0  0  0  0  0  0
   -1.9736   -1.5419    0.0030 H   0  0  0  0  0  0  0  0  0  0  0  0
  1  2  1  0
  1  4  1  0
  1  5  1  0
  2  3  2  0
  6  7  1  0
  6 10  1  0
  6 11  1  0
  7  8  1  0
  7 12  1  0
  7 13  1  0
  8  9  2  0
M  RAD  1   6   2
M  END
>  <reaction>  (12) 
rmg_rxn_1487

>  <mol_properties>  (12) 
{"0": {"label": "*1", "atom_type": "N3s"}, "1": {"label": "*0", "atom_type": "N3d"}, "3": {"label": "*2", "atom_type": "H0"}, "5": {"label": "*3", "atom_type": "Cs"}, "6": {"label": "*4", "atom_type": "Cs"}}

>  <type>  (12) 
unop_8

>  <geom_source>  (12) 
Heuristics

$$$$

     RDKit          3D

 13 11  0  0  0  0  0  0  0  0999 V2000
   -0.3003   -1.6327    1.0853 N   0  0  0  0  0  0  0  0  0  0  0  0
   -0.3003   -2.8355    0.5406 N   0  0  0  0  0  0  0  0  0  0  0  0
   -0.3003   -2.8355   -0.6639 O   0  0  0  0  0  0  0  0  0  0  0  0
   -0.3003   -0.6500    0.3701 H   0  0  0  0  0  0  0  0  0  0  0  0
   -0.3003   -1.5863    2.0874 H   0  0  0  0  0  0  0  0  0  0  0  0
   -0.3003    0.4077   -0.3998 C   0  0  0  0  0  3  0  0  0  0  0  0
    0.9322    1.2356   -0.1223 C   0  0  0  0  0  0  0  0  0  0  0  0
    0.7569    2.7079   -0.1244 N   0  0  0  0  0  0  0  0  0  0  0  0
   -0.3557    3.0753   -0.3487 O   0  0  0  0  0  0  0  0  0  0  0  0
   -1.0768    0.5954    0.3415 H   0  0  0  0  0  0  0  0  0  0  0  0
   -0.7162    0.6358   -1.3809 H   0  0  0  0  0  0  0  0  0  0  0  0
    1.3765    1.0256    0.8561 H   0  0  0  0  0  0  0  0  0  0  0  0
    1.7335    1.0656   -0.8488 H   0  0  0  0  0  0  0  0  0  0  0  0
  1  2  1  0
  1  4  1  0
  1  5  1  0
  2  3  2  0
  6  7  1  0
  6 10  1  0
  6 11  1  0
  7  8  1  0
  7 12  1  0
  7 13  1  0
  8  9  2  0
M  RAD  1   6   2
M  END
>  <reaction>  (13) 
rmg_rxn_1487

>  <mol_properties>  (13) 
{"0": {"label": "*1", "atom_type": "N3s"}, "1": {"label": "*0", "atom_type": "N3d"}, "3": {"label": "*2", "atom_type": "H0"}, "5": {"label": "*3", "atom_type": "Cs"}, "6": {"label": "*4", "atom_type": "Cs"}}

>  <type>  (13) 
unop_9

>  <geom_source>  (13) 
Heuristics

$$$$

     RDKit          3D

 13 11  0  0  0  0  0  0  0  0999 V2000
    0.5379   -1.5005    1.2675 N   0  0  0  0  0  0  0  0  0  0  0  0
    0.5379   -2.7033    0.7227 N   0  0  0  0  0  0  0  0  0  0  0  0
    0.5379   -2.7033   -0.4818 O   0  0  0  0  0  0  0  0  0  0  0  0
    0.5379   -0.5179    0.5523 H   0  0  0  0  0  0  0  0  0  0  0  0
    0.5379   -1.4542    2.2696 H   0  0  0  0  0  0  0  0  0  0  0  0
    0.5379    0.5398   -0.2176 C   0  0  0  0  0  3  0  0  0  0  0  0
   -0.8852    0.9490   -0.5154 C   0  0  0  0  0  0  0  0  0  0  0  0
   -1.1655    2.4048   -0.5417 N   0  0  0  0  0  0  0  0  0  0  0  0
   -0.2191    3.0968   -0.3211 O   0  0  0  0  0  0  0  0  0  0  0  0
    1.2274    0.9414   -0.9599 H   0  0  0  0  0  0  0  0  0  0  0  0
    0.8558    0.9010    0.7603 H   0  0  0  0  0  0  0  0  0  0  0  0
   -1.2358    0.5965   -1.4909 H   0  0  0  0  0  0  0  0  0  0  0  0
   -1.6036    0.5565    0.2117 H   0  0  0  0  0  0  0  0  0  0  0  0
  1  2  1  0
  1  4  1  0
  1  5  1  0
  2  3  2  0
  6  7  1  0
  6 10  1  0
  6 11  1  0
  7  8  1  0
  7 12  1  0
  7 13  1  0
  8  9  2  0
M  RAD  1   6   2
M  END
>  <reaction>  (14) 
rmg_rxn_1487

>  <mol_properties>  (14) 
{"0": {"label": "*1", "atom_type": "N3s"}, "1": {"label": "*0", "atom_type": "N3d"}, "3": {"label": "*2", "atom_type": "H0"}, "5": {"label": "*3", "atom_type": "Cs"}, "6": {"label": "*4", "atom_type": "Cs"}}

>  <type>  (14) 
unop_10

>  <geom_source>  (14) 
Heuristics

$$$$

     RDKit          3D

 13 11  0  0  0  0  0  0  0  0999 V2000
    1.8703   -0.1819   -0.4618 N   0  0  0  0  0  0  0  0  0  0  0  0
    1.5722    0.8627    0.1640 N   0  0  0  0  0  0  0  0  0  0  0  0
    0.4139    1.1353    0.4648 O   0  0  0  0  0  0  0  0  0  0  0  0
    1.1019   -1.1386   -0.2989 H   0  0  0  0  0  0  0  0  0  0  0  0
    2.8773   -0.3124   -0.5470 H   0  0  0  0  0  0  0  0  0  0  0  0
    0.1475   -1.9572    0.0376 C   0  0  0  0  0  3  0  0  0  0  0  0
   -1.0411   -1.0995    0.3587 C   0  0  0  0  0  0  0  0  0  0  0  0
   -0.9957    0.2220   -0.3086 N   0  0  0  0  0  0  0  0  0  0  0  0
   -1.9721    0.9381   -0.2728 O   0  0  0  0  0  0  0  0  0  0  0  0
    0.5124   -2.5171    0.8897 H   0  0  0  0  0  0  0  0  0  0  0  0
   -0.0068   -2.6023   -0.8190 H   0  0  0  0  0  0  0  0  0  0  0  0
   -1.9737   -1.5419   -0.0031 H   0  0  0  0  0  0  0  0  0  0  0  0
   -1.1310   -0.9221    1.4363 H   0  0  0  0  0  0  0  0  0  0  0  0
  1  2  1  0
  1  4  1  0
  1  5  1  0
  2  3  2  0
  6  7  1  0
  6 10  1  0
  6 11  1  0
  7  8  1  0
  7 12  1  0
  7 13  1  0
  8  9  2  0
M  RAD  1   6   2
M  END
>  <reaction>  (15) 
rmg_rxn_1487

>  <mol_properties>  (15) 
{"0": {"label": "*1", "atom_type": "N3s"}, "1": {"label": "*0", "atom_type": "N3d"}, "3": {"label": "*2", "atom_type": "H0"}, "5": {"label": "*3", "atom_type": "Cs"}, "6": {"label": "*4", "atom_type": "Cs"}}

>  <type>  (15) 
unop_11

>  <geom_source>  (15) 
Heuristics

$$$$

     RDKit          3D

 13 11  0  0  0  0  0  0  0  0999 V2000
   -0.3956   -1.1648    1.8746 N   0  0  0  0  0  0  0  0  0  0  0  0
   -0.3956   -2.3676    1.3298 N   0  0  0  0  0  0  0  0  0  0  0  0
   -0.3956   -2.3676    0.1253 O   0  0  0  0  0  0  0  0  0  0  0  0
   -0.3956   -0.1822    1.1594 H   0  0  0  0  0  0  0  0  0  0  0  0
   -0.3956   -1.1185    2.8767 H   0  0  0  0  0  0  0  0  0  0  0  0
   -0.3956    0.8755    0.3895 C   0  0  0  0  0  3  0  0  0  0  0  0
    0.3160    0.5594   -0.9048 C   0  0  0  0  0  0  0  0  0  0  0  0
    0.7758    1.7170   -1.7091 N   0  0  0  0  0  0  0  0  0  0  0  0
    0.5267    2.7824   -1.2337 O   0  0  0  0  0  0  0  0  0  0  0  0
    0.2451    1.4442    1.0632 H   0  0  0  0  0  0  0  0  0  0  0  0
   -1.2953    1.4642    0.2115 H   0  0  0  0  0  0  0  0  0  0  0  0
    1.2233   -0.0359   -0.7591 H   0  0  0  0  0  0  0  0  0  0  0  0
   -0.3014   -0.0161   -1.6022 H   0  0  0  0  0  0  0  0  0  0  0  0
  1  2  1  0
  1  4  1  0
  1  5  1  0
  2  3  2  0
  6  7  1  0
  6 10  1  0
  6 11  1  0
  7  8  1  0
  7 12  1  0
  7 13  1  0
  8  9  2  0
M  RAD  1   6   2
M  END
>  <reaction>  (16) 
rmg_rxn_1487

>  <mol_properties>  (16) 
{"0": {"label": "*1", "atom_type": "N3s"}, "1": {"label": "*0", "atom_type": "N3d"}, "3": {"label": "*2", "atom_type": "H0"}, "5": {"label": "*3", "atom_type": "Cs"}, "6": {"label": "*4", "atom_type": "Cs"}}

>  <type>  (16) 
unop_12

>  <geom_source>  (16) 
Heuristics

$$$$

     RDKit          3D

 13 11  0  0  0  0  0  0  0  0999 V2000
    0.5927   -1.3217    1.5753 N   0  0  0  0  0  0  0  0  0  0  0  0
    0.5927   -2.5245    1.0305 N   0  0  0  0  0  0  0  0  0  0  0  0
    0.5927   -2.5245   -0.1740 O   0  0  0  0  0  0  0  0  0  0  0  0
    0.5927   -0.3390    0.8601 H   0  0  0  0  0  0  0  0  0  0  0  0
    0.5927   -1.2753    2.5774 H   0  0  0  0  0  0  0  0  0  0  0  0
    0.5927    0.7187    0.0902 C   0  0  0  0  0  3  0  0  0  0  0  0
   -0.6398    0.7091   -0.7829 C   0  0  0  0  0  0  0  0  0  0  0  0
   -1.2028    2.0306   -1.1506 N   0  0  0  0  0  0  0  0  0  0  0  0
   -0.6078    2.9647   -0.7073 O   0  0  0  0  0  0  0  0  0  0  0  0
    1.4150    1.2453   -0.3937 H   0  0  0  0  0  0  0  0  0  0  0  0
    0.3978    1.2115    1.0425 H   0  0  0  0  0  0  0  0  0  0  0  0
   -0.4766    0.2159   -1.7467 H   0  0  0  0  0  0  0  0  0  0  0  0
   -1.4835    0.1825   -0.3251 H   0  0  0  0  0  0  0  0  0  0  0  0
  1  2  1  0
  1  4  1  0
  1  5  1  0
  2  3  2  0
  6  7  1  0
  6 10  1  0
  6 11  1  0
  7  8  1  0
  7 12  1  0
  7 13  1  0
  8  9  2  0
M  RAD  1   6   2
M  END
>  <reaction>  (17) 
rmg_rxn_1487

>  <mol_properties>  (17) 
{"0": {"label": "*1", "atom_type": "N3s"}, "1": {"label": "*0", "atom_type": "N3d"}, "3": {"label": "*2", "atom_type": "H0"}, "5": {"label": "*3", "atom_type": "Cs"}, "6": {"label": "*4", "atom_type": "Cs"}}

>  <type>  (17) 
unop_13

>  <geom_source>  (17) 
Heuristics

$$$$

     RDKit          3D

 13 11  0  0  0  0  0  0  0  0999 V2000
   -0.0464   -1.6855    1.1031 N   0  0  0  0  0  0  0  0  0  0  0  0
   -0.0464   -2.8883    0.5584 N   0  0  0  0  0  0  0  0  0  0  0  0
   -0.0464   -2.8883   -0.6461 O   0  0  0  0  0  0  0  0  0  0  0  0
   -0.0464   -0.7029    0.3879 H   0  0  0  0  0  0  0  0  0  0  0  0
   -0.0464   -1.6392    2.1052 H   0  0  0  0  0  0  0  0  0  0  0  0
   -0.0464    0.3548   -0.3819 C   0  0  0  0  0  3  0  0  0  0  0  0
    0.6652    1.4893    0.3167 C   0  0  0  0  0  0  0  0  0  0  0  0
    0.2434    2.8628   -0.0494 N   0  0  0  0  0  0  0  0  0  0  0  0
   -0.6237    2.9148   -0.8670 O   0  0  0  0  0  0  0  0  0  0  0  0
   -1.1175    0.3784   -0.1822 H   0  0  0  0  0  0  0  0  0  0  0  0
    0.0909    0.4084   -1.4617 H   0  0  0  0  0  0  0  0  0  0  0  0
    0.5493    1.4605    1.4051 H   0  0  0  0  0  0  0  0  0  0  0  0
    1.7455    1.4902    0.1385 H   0  0  0  0  0  0  0  0  0  0  0  0
  1  2  1  0
  1  4  1  0
  1  5  1  0
  2  3  2  0
  6  7  1  0
  6 10  1  0
  6 11  1  0
  7  8  1  0
  7 12  1  0
  7 13  1  0
  8  9  2  0
M  RAD  1   6   2
M  END
>  <reaction>  (18) 
rmg_rxn_1487

>  <mol_properties>  (18) 
{"0": {"label": "*1", "atom_type": "N3s"}, "1": {"label": "*0", "atom_type": "N3d"}, "3": {"label": "*2", "atom_type": "H0"}, "5": {"label": "*3", "atom_type": "Cs"}, "6": {"label": "*4", "atom_type": "Cs"}}

>  <type>  (18) 
unop_14

>  <geom_source>  (18) 
Heuristics

$$$$

     RDKit          3D

 13 11  0  0  0  0  0  0  0  0999 V2000
    0.0000   -1.1017    2.0032 N   0  0  0  0  0  0  0  0  0  0  0  0
    0.0000   -2.3046    1.4585 N   0  0  0  0  0  0  0  0  0  0  0  0
    0.0000   -2.3046    0.2540 O   0  0  0  0  0  0  0  0  0  0  0  0
    0.0000   -0.1191    1.2880 H   0  0  0  0  0  0  0  0  0  0  0  0
    0.0000   -1.0554    3.0053 H   0  0  0  0  0  0  0  0  0  0  0  0
    0.0000    0.9386    0.5182 C   0  0  0  0  0  3  0  0  0  0  0  0
   -0.0000    0.5103   -0.9303 C   0  0  0  0  0  0  0  0  0  0  0  0
   -0.0000    1.5936   -1.9427 N   0  0  0  0  0  0  0  0  0  0  0  0
   -0.0000    2.6971   -1.4892 O   0  0  0  0  0  0  0  0  0  0  0  0
    0.8801    1.5370    0.7526 H   0  0  0  0  0  0  0  0  0  0  0  0
   -0.8801    1.5370    0.7526 H   0  0  0  0  0  0  0  0  0  0  0  0
    0.8712   -0.0973   -1.1961 H   0  0  0  0  0  0  0  0  0  0  0  0
   -0.8712   -0.0973   -1.1961 H   0  0  0  0  0  0  0  0  0  0  0  0
  1  2  1  0
  1  4  1  0
  1  5  1  0
  2  3  2  0
  6  7  1  0
  6 10  1  0
  6 11  1  0
  7  8  1  0
  7 12  1  0
  7 13  1  0
  8  9  2  0
M  RAD  1   6   2
M  END
>  <reaction>  (19) 
rmg_rxn_1487

>  <mol_properties>  (19) 
{"0": {"label": "*1", "atom_type": "N3s"}, "1": {"label": "*0", "atom_type": "N3d"}, "3": {"label": "*2", "atom_type": "H0"}, "5": {"label": "*3", "atom_type": "Cs"}, "6": {"label": "*4", "atom_type": "Cs"}}

>  <type>  (19) 
unop_15

>  <geom_source>  (19) 
Heuristics

$$$$

     RDKit          3D

 13 11  0  0  0  0  0  0  0  0999 V2000
    0.3956   -1.1648    1.8746 N   0  0  0  0  0  0  0  0  0  0  0  0
    0.3956   -2.3676    1.3298 N   0  0  0  0  0  0  0  0  0  0  0  0
    0.3956   -2.3676    0.1253 O   0  0  0  0  0  0  0  0  0  0  0  0
    0.3956   -0.1822    1.1594 H   0  0  0  0  0  0  0  0  0  0  0  0
    0.3956   -1.1185    2.8767 H   0  0  0  0  0  0  0  0  0  0  0  0
    0.3956    0.8755    0.3895 C   0  0  0  0  0  3  0  0  0  0  0  0
   -0.3160    0.5594   -0.9048 C   0  0  0  0  0  0  0  0  0  0  0  0
   -0.7758    1.7170   -1.7091 N   0  0  0  0  0  0  0  0  0  0  0  0
   -0.5267    2.7824   -1.2337 O   0  0  0  0  0  0  0  0  0  0  0  0
    1.2953    1.4642    0.2115 H   0  0  0  0  0  0  0  0  0  0  0  0
   -0.2451    1.4442    1.0632 H   0  0  0  0  0  0  0  0  0  0  0  0
    0.3014   -0.0161   -1.6022 H   0  0  0  0  0  0  0  0  0  0  0  0
   -1.2233   -0.0359   -0.7591 H   0  0  0  0  0  0  0  0  0  0  0  0
  1  2  1  0
  1  4  1  0
  1  5  1  0
  2  3  2  0
  6  7  1  0
  6 10  1  0
  6 11  1  0
  7  8  1  0
  7 12  1  0
  7 13  1  0
  8  9  2  0
M  RAD  1   6   2
M  END
>  <reaction>  (20) 
rmg_rxn_1487

>  <mol_properties>  (20) 
{"0": {"label": "*1", "atom_type": "N3s"}, "1": {"label": "*0", "atom_type": "N3d"}, "3": {"label": "*2", "atom_type": "H0"}, "5": {"label": "*3", "atom_type": "Cs"}, "6": {"label": "*4", "atom_type": "Cs"}}

>  <type>  (20) 
unop_16

>  <geom_source>  (20) 
gaussian_log

$$$$
