
     RDKit          3D

  6  5  0  0  0  0  0  0  0  0999 V2000
   -0.4547   -0.0097   -0.0070 C   0  0  0  0  0  0  0  0  0  0  0  0
    0.8695   -0.1987   -0.6218 N   0  0  0  0  0  0  0  0  0  0  0  0
    1.0322   -1.2809   -1.0969 O   0  0  0  0  0  0  0  0  0  0  0  0
   -0.2820    0.2687    1.0347 H   0  0  0  0  0  0  0  0  0  0  0  0
   -1.0716   -0.9051   -0.0916 H   0  0  0  0  0  0  0  0  0  0  0  0
   -0.9130    0.8487   -0.5026 H   0  0  0  0  0  0  0  0  0  0  0  0
  1  2  1  0
  1  4  1  0
  1  5  1  0
  1  6  1  0
  2  3  2  0
M  END
>  <reaction>  (1) 
rmg_rxn_586

>  <mol_properties>  (1) 
{"0": {"label": "donator", "atom_type": "Cs"}, "3": {"label": "d_hydrogen", "atom_type": "H0"}}

>  <type>  (1) 
r1h

$$$$

     RDKit          3D

 13 12  0  0  0  0  0  0  0  0999 V2000
    1.9060    0.2628    0.3980 C   0  0  0  0  0  0  0  0  0  0  0  0
    0.6330   -0.4250    0.0685 C   0  0  0  0  0  3  0  0  0  0  0  0
   -0.2610   -0.9325    1.1416 C   0  0  0  0  0  0  0  0  0  0  0  0
   -1.4364   -1.7546    0.6268 C   0  0  0  0  0  0  0  0  0  0  0  0
    2.4899   -0.3070    1.1292 H   0  0  0  0  0  0  0  0  0  0  0  0
    1.7297    1.2496    0.8515 H   0  0  0  0  0  0  0  0  0  0  0  0
    2.5269    0.4197   -0.4845 H   0  0  0  0  0  0  0  0  0  0  0  0
    0.2597   -0.3936   -0.9489 H   0  0  0  0  0  0  0  0  0  0  0  0
   -0.6439   -0.0868    1.7356 H   0  0  0  0  0  0  0  0  0  0  0  0
    0.3260   -1.5277    1.8536 H   0  0  0  0  0  0  0  0  0  0  0  0
   -1.0872   -2.6320    0.0792 H   0  0  0  0  0  0  0  0  0  0  0  0
   -2.0701   -2.0976    1.4459 H   0  0  0  0  0  0  0  0  0  0  0  0
   -2.0561   -1.1637   -0.0512 H   0  0  0  0  0  0  0  0  0  0  0  0
  1  2  1  0
  1  5  1  0
  1  6  1  0
  1  7  1  0
  2  3  1  0
  2  8  1  0
  3  4  1  0
  3  9  1  0
  3 10  1  0
  4 11  1  0
  4 12  1  0
  4 13  1  0
M  RAD  1   2   2
M  END
>  <reaction>  (2) 
rmg_rxn_586

>  <mol_properties>  (2) 
{"1": {"label": "acceptor", "atom_type": "Cs"}}

>  <type>  (2) 
r2

$$$$

     RDKit          3D

 14 13  0  0  0  0  0  0  0  0999 V2000
    1.8106   -0.5953    0.5577 C   0  0  0  0  0  0  0  0  0  0  0  0
    0.5197    0.2064    0.6554 C   0  0  0  0  0  0  0  0  0  0  0  0
   -0.5206   -0.2080   -0.3788 C   0  0  0  0  0  0  0  0  0  0  0  0
   -1.8114    0.5937   -0.2812 C   0  0  0  0  0  0  0  0  0  0  0  0
    2.2725   -0.4752   -0.4251 H   0  0  0  0  0  0  0  0  0  0  0  0
    1.6214   -1.6612    0.7052 H   0  0  0  0  0  0  0  0  0  0  0  0
    2.5364   -0.2784    1.3084 H   0  0  0  0  0  0  0  0  0  0  0  0
    0.0930    0.0950    1.6574 H   0  0  0  0  0  0  0  0  0  0  0  0
    0.7393    1.2723    0.5354 H   0  0  0  0  0  0  0  0  0  0  0  0
   -0.7402   -1.2739   -0.2588 H   0  0  0  0  0  0  0  0  0  0  0  0
   -0.0938   -0.0965   -1.3808 H   0  0  0  0  0  0  0  0  0  0  0  0
   -1.6222    1.6596   -0.4287 H   0  0  0  0  0  0  0  0  0  0  0  0
   -2.2734    0.4736    0.7017 H   0  0  0  0  0  0  0  0  0  0  0  0
   -2.5373    0.2768   -1.0318 H   0  0  0  0  0  0  0  0  0  0  0  0
  1  2  1  0
  1  5  1  0
  1  6  1  0
  1  7  1  0
  2  3  1  0
  2  8  1  0
  2  9  1  0
  3  4  1  0
  3 10  1  0
  3 11  1  0
  4 12  1  0
  4 13  1  0
  4 14  1  0
M  END
>  <reaction>  (3) 
rmg_rxn_586

>  <mol_properties>  (3) 
{"0": {"label": "a_hydrogen", "atom_type": "H0"}, "2": {"label": "acceptor", "atom_type": "Cs"}}

>  <type>  (3) 
r2h

$$$$

     RDKit          3D

 19 17  0  0  0  0  0  0  0  0999 V2000
    1.4466    0.6258   -0.4248 C   0  0  0  0  0  0  0  0  0  0  0  0
    1.1319   -0.3881   -1.3534 N   0  0  0  0  0  0  0  0  0  0  0  0
    0.4200   -0.0251   -2.2714 O   0  0  0  0  0  0  0  0  0  0  0  0
    0.4528    0.6641    0.3561 H   0  0  0  0  0  0  0  0  0  0  0  0
    1.4654    1.6345   -0.8412 H   0  0  0  0  0  0  0  0  0  0  0  0
    2.2907    0.3578    0.2046 H   0  0  0  0  0  0  0  0  0  0  0  0
   -1.4658    1.9499    0.4592 C   0  0  0  0  0  0  0  0  0  0  0  0
   -0.7671    0.7930    1.1059 C   0  0  0  0  0  3  0  0  0  0  0  0
   -1.3690   -0.5722    0.9494 C   0  0  0  0  0  0  0  0  0  0  0  0
   -0.5268   -1.6890    1.5519 C   0  0  0  0  0  0  0  0  0  0  0  0
   -2.4329    2.1295    0.9427 H   0  0  0  0  0  0  0  0  0  0  0  0
   -1.6555    1.7515   -0.5972 H   0  0  0  0  0  0  0  0  0  0  0  0
   -0.8839    2.8689    0.5384 H   0  0  0  0  0  0  0  0  0  0  0  0
   -0.3543    0.9954    2.0946 H   0  0  0  0  0  0  0  0  0  0  0  0
   -1.5479   -0.7678   -0.1120 H   0  0  0  0  0  0  0  0  0  0  0  0
   -2.3610   -0.5604    1.4220 H   0  0  0  0  0  0  0  0  0  0  0  0
   -0.3312   -1.5058    2.6108 H   0  0  0  0  0  0  0  0  0  0  0  0
   -1.0344   -2.6499    1.4655 H   0  0  0  0  0  0  0  0  0  0  0  0
    0.4318   -1.7749    1.0370 H   0  0  0  0  0  0  0  0  0  0  0  0
  1  2  1  0
  1  4  1  0
  1  5  1  0
  1  6  1  0
  2  3  2  0
  7  8  1  0
  7 11  1  0
  7 12  1  0
  7 13  1  0
  8  9  1  0
  8 14  1  0
  9 10  1  0
  9 15  1  0
  9 16  1  0
 10 17  1  0
 10 18  1  0
 10 19  1  0
M  RAD  1   8   2
M  END
>  <reaction>  (4) 
rmg_rxn_586

>  <mol_properties>  (4) 
{"0": {"label": "*1", "atom_type": "Cs"}, "1": {"label": "*0", "atom_type": "N3d"}, "3": {"label": "*2", "atom_type": "H0"}, "7": {"label": "*3", "atom_type": "Cs"}, "8": {"label": "*4", "atom_type": "Cs"}}

>  <type>  (4) 
ts

$$$$

     RDKit          3D

 19 17  0  0  0  0  0  0  0  0999 V2000
    1.0638    0.2207   -0.9206 C   0  0  0  0  0  0  0  0  0  0  0  0
    1.0638   -1.1250   -1.5174 N   0  0  0  0  0  0  0  0  0  0  0  0
    1.0638   -1.1250   -2.7105 O   0  0  0  0  0  0  0  0  0  0  0  0
    0.0078    0.2921   -0.1480 H   0  0  0  0  0  0  0  0  0  0  0  0
    1.0638    1.0012   -1.6824 H   0  0  0  0  0  0  0  0  0  0  0  0
    1.9438    0.2802   -0.2768 H   0  0  0  0  0  0  0  0  0  0  0  0
   -2.4628   -0.1999    0.5407 C   0  0  0  0  0  0  0  0  0  0  0  0
   -1.0509    0.3637    0.6265 C   0  0  0  0  0  3  0  0  0  0  0  0
   -0.6044    0.6410    2.0573 C   0  0  0  0  0  0  0  0  0  0  0  0
    0.8076    1.2047    2.1432 C   0  0  0  0  0  0  0  0  0  0  0  0
   -3.1881    0.4939    0.9723 H   0  0  0  0  0  0  0  0  0  0  0  0
   -2.5419   -1.1424    1.0878 H   0  0  0  0  0  0  0  0  0  0  0  0
   -2.7564   -0.3888   -0.4932 H   0  0  0  0  0  0  0  0  0  0  0  0
   -0.9893    1.2899    0.0461 H   0  0  0  0  0  0  0  0  0  0  0  0
   -0.6660   -0.2852    2.6378 H   0  0  0  0  0  0  0  0  0  0  0  0
   -1.3075    1.3391    2.5231 H   0  0  0  0  0  0  0  0  0  0  0  0
    0.8867    2.1471    1.5960 H   0  0  0  0  0  0  0  0  0  0  0  0
    1.1011    1.3936    3.1770 H   0  0  0  0  0  0  0  0  0  0  0  0
    1.5329    0.5109    1.7115 H   0  0  0  0  0  0  0  0  0  0  0  0
  1  2  1  0
  1  4  1  0
  1  5  1  0
  1  6  1  0
  2  3  2  0
  7  8  1  0
  7 11  1  0
  7 12  1  0
  7 13  1  0
  8  9  1  0
  8 14  1  0
  9 10  1  0
  9 15  1  0
  9 16  1  0
 10 17  1  0
 10 18  1  0
 10 19  1  0
M  RAD  1   8   2
M  END
>  <reaction>  (5) 
rmg_rxn_586

>  <mol_properties>  (5) 
{"0": {"label": "*1", "atom_type": "Cs"}, "1": {"label": "*0", "atom_type": "N3d"}, "3": {"label": "*2", "atom_type": "H0"}, "7": {"label": "*3", "atom_type": "Cs"}, "8": {"label": "*4", "atom_type": "Cs"}}

>  <type>  (5) 
unop_1

>  <geom_source>  (5) 
Heuristics

$$$$

     RDKit          3D

 19 17  0  0  0  0  0  0  0  0999 V2000
    1.2803    0.7007   -0.6718 C   0  0  0  0  0  0  0  0  0  0  0  0
    1.2803   -0.6451   -1.2686 N   0  0  0  0  0  0  0  0  0  0  0  0
    1.2803   -0.6451   -2.4617 O   0  0  0  0  0  0  0  0  0  0  0  0
    0.2243    0.7721    0.1008 H   0  0  0  0  0  0  0  0  0  0  0  0
    1.2803    1.4812   -1.4336 H   0  0  0  0  0  0  0  0  0  0  0  0
    2.1604    0.7602   -0.0280 H   0  0  0  0  0  0  0  0  0  0  0  0
   -2.0795    1.6352    0.4989 C   0  0  0  0  0  0  0  0  0  0  0  0
   -0.8344    0.8437    0.8753 C   0  0  0  0  0  3  0  0  0  0  0  0
   -1.1508   -0.5455    1.4173 C   0  0  0  0  0  0  0  0  0  0  0  0
    0.0943   -1.3371    1.7937 C   0  0  0  0  0  0  0  0  0  0  0  0
   -2.7330    1.7716    1.3639 H   0  0  0  0  0  0  0  0  0  0  0  0
   -2.6554    1.1161   -0.2710 H   0  0  0  0  0  0  0  0  0  0  0  0
   -1.8243    2.6241    0.1145 H   0  0  0  0  0  0  0  0  0  0  0  0
   -0.2592    1.3979    1.6241 H   0  0  0  0  0  0  0  0  0  0  0  0
   -1.7260   -1.0997    0.6685 H   0  0  0  0  0  0  0  0  0  0  0  0
   -1.8030   -0.4491    2.2913 H   0  0  0  0  0  0  0  0  0  0  0  0
    0.6702   -0.8180    2.5636 H   0  0  0  0  0  0  0  0  0  0  0  0
   -0.1610   -2.3259    2.1780 H   0  0  0  0  0  0  0  0  0  0  0  0
    0.7477   -1.4734    0.9287 H   0  0  0  0  0  0  0  0  0  0  0  0
  1  2  1  0
  1  4  1  0
  1  5  1  0
  1  6  1  0
  2  3  2  0
  7  8  1  0
  7 11  1  0
  7 12  1  0
  7 13  1  0
  8  9  1  0
  8 14  1  0
  9 10  1  0
  9 15  1  0
  9 16  1  0
 10 17  1  0
 10 18  1  0
 10 19  1  0
M  RAD  1   8   2
M  END
>  <reaction>  (6) 
rmg_rxn_586

>  <mol_properties>  (6) 
{"0": {"label": "*1", "atom_type": "Cs"}, "1": {"label": "*0", "atom_type": "N3d"}, "3": {"label": "*2", "atom_type": "H0"}, "7": {"label": "*3", "atom_type": "Cs"}, "8": {"label": "*4", "atom_type": "Cs"}}

>  <type>  (6) 
unop_2

>  <geom_source>  (6) 
Heuristics

$$$$

     RDKit          3D

 19 17  0  0  0  0  0  0  0  0999 V2000
    1.1107    0.0313   -0.8408 C   0  0  0  0  0  0  0  0  0  0  0  0
    1.1107   -1.3144   -1.4377 N   0  0  0  0  0  0  0  0  0  0  0  0
    1.1107   -1.3144   -2.6308 O   0  0  0  0  0  0  0  0  0  0  0  0
    0.0547    0.1027   -0.0683 H   0  0  0  0  0  0  0  0  0  0  0  0
    1.1107    0.8118   -1.6026 H   0  0  0  0  0  0  0  0  0  0  0  0
    1.9907    0.0908   -0.1970 H   0  0  0  0  0  0  0  0  0  0  0  0
   -1.9862   -0.9293    1.0752 C   0  0  0  0  0  0  0  0  0  0  0  0
   -1.0041    0.1743    0.7063 C   0  0  0  0  0  3  0  0  0  0  0  0
   -0.7140    1.1263    1.8609 C   0  0  0  0  0  0  0  0  0  0  0  0
    0.2681    2.2299    1.4920 C   0  0  0  0  0  0  0  0  0  0  0  0
   -2.9444   -0.5107    1.3918 H   0  0  0  0  0  0  0  0  0  0  0  0
   -1.6024   -1.5353    1.8994 H   0  0  0  0  0  0  0  0  0  0  0  0
   -2.1755   -1.5952    0.2317 H   0  0  0  0  0  0  0  0  0  0  0  0
   -1.3962    0.7470   -0.1404 H   0  0  0  0  0  0  0  0  0  0  0  0
   -0.3219    0.5536    2.7076 H   0  0  0  0  0  0  0  0  0  0  0  0
   -1.6540    1.5706    2.2037 H   0  0  0  0  0  0  0  0  0  0  0  0
   -0.1156    2.8359    0.6678 H   0  0  0  0  0  0  0  0  0  0  0  0
    0.4574    2.8958    2.3355 H   0  0  0  0  0  0  0  0  0  0  0  0
    1.2264    1.8113    1.1754 H   0  0  0  0  0  0  0  0  0  0  0  0
  1  2  1  0
  1  4  1  0
  1  5  1  0
  1  6  1  0
  2  3  2  0
  7  8  1  0
  7 11  1  0
  7 12  1  0
  7 13  1  0
  8  9  1  0
  8 14  1  0
  9 10  1  0
  9 15  1  0
  9 16  1  0
 10 17  1  0
 10 18  1  0
 10 19  1  0
M  RAD  1   8   2
M  END
>  <reaction>  (7) 
rmg_rxn_586

>  <mol_properties>  (7) 
{"0": {"label": "*1", "atom_type": "Cs"}, "1": {"label": "*0", "atom_type": "N3d"}, "3": {"label": "*2", "atom_type": "H0"}, "7": {"label": "*3", "atom_type": "Cs"}, "8": {"label": "*4", "atom_type": "Cs"}}

>  <type>  (7) 
unop_3

>  <geom_source>  (7) 
Heuristics

$$$$

     RDKit          3D

 19 17  0  0  0  0  0  0  0  0999 V2000
    1.5478    0.3642   -0.2736 C   0  0  0  0  0  0  0  0  0  0  0  0
    1.5478   -0.9815   -0.8704 N   0  0  0  0  0  0  0  0  0  0  0  0
    1.5478   -0.9815   -2.0635 O   0  0  0  0  0  0  0  0  0  0  0  0
    0.4918    0.4356    0.4990 H   0  0  0  0  0  0  0  0  0  0  0  0
    1.5478    1.1447   -1.0354 H   0  0  0  0  0  0  0  0  0  0  0  0
    2.4278    0.4237    0.3702 H   0  0  0  0  0  0  0  0  0  0  0  0
   -0.1688    1.9735    1.3742 C   0  0  0  0  0  0  0  0  0  0  0  0
   -0.5670    0.5072    1.2736 C   0  0  0  0  0  3  0  0  0  0  0  0
   -1.8175    0.2842    0.4310 C   0  0  0  0  0  0  0  0  0  0  0  0
   -2.2156   -1.1820    0.3303 C   0  0  0  0  0  0  0  0  0  0  0  0
   -0.9679    2.5659    1.8263 H   0  0  0  0  0  0  0  0  0  0  0  0
    0.0337    2.3928    0.3857 H   0  0  0  0  0  0  0  0  0  0  0  0
    0.7280    2.1040    1.9820 H   0  0  0  0  0  0  0  0  0  0  0  0
   -0.7341    0.1023    2.2769 H   0  0  0  0  0  0  0  0  0  0  0  0
   -1.6503    0.6891   -0.5724 H   0  0  0  0  0  0  0  0  0  0  0  0
   -2.6445    0.8610    0.8576 H   0  0  0  0  0  0  0  0  0  0  0  0
   -2.4182   -1.6013    1.3188 H   0  0  0  0  0  0  0  0  0  0  0  0
   -3.1125   -1.3126   -0.2775 H   0  0  0  0  0  0  0  0  0  0  0  0
   -1.4166   -1.7744   -0.1218 H   0  0  0  0  0  0  0  0  0  0  0  0
  1  2  1  0
  1  4  1  0
  1  5  1  0
  1  6  1  0
  2  3  2  0
  7  8  1  0
  7 11  1  0
  7 12  1  0
  7 13  1  0
  8  9  1  0
  8 14  1  0
  9 10  1  0
  9 15  1  0
  9 16  1  0
 10 17  1  0
 10 18  1  0
 10 19  1  0
M  RAD  1   8   2
M  END
>  <reaction>  (8) 
rmg_rxn_586

>  <mol_properties>  (8) 
{"0": {"label": "*1", "atom_type": "Cs"}, "1": {"label": "*0", "atom_type": "N3d"}, "3": {"label": "*2", "atom_type": "H0"}, "7": {"label": "*3", "atom_type": "Cs"}, "8": {"label": "*4", "atom_type": "Cs"}}

>  <type>  (8) 
unop_4

>  <geom_source>  (8) 
Heuristics

$$$$

     RDKit          3D

 19 17  0  0  0  0  0  0  0  0999 V2000
    1.2073   -0.0863   -0.6997 C   0  0  0  0  0  0  0  0  0  0  0  0
    1.2073   -1.4320   -1.2965 N   0  0  0  0  0  0  0  0  0  0  0  0
    1.2073   -1.4320   -2.4896 O   0  0  0  0  0  0  0  0  0  0  0  0
    0.1513   -0.0149    0.0729 H   0  0  0  0  0  0  0  0  0  0  0  0
    1.2073    0.6942   -1.4615 H   0  0  0  0  0  0  0  0  0  0  0  0
    2.0874   -0.0268   -0.0559 H   0  0  0  0  0  0  0  0  0  0  0  0
   -0.8759   -1.0784    1.8619 C   0  0  0  0  0  0  0  0  0  0  0  0
   -0.9074    0.0567    0.8475 C   0  0  0  0  0  3  0  0  0  0  0  0
   -0.9592    1.4355    1.4953 C   0  0  0  0  0  0  0  0  0  0  0  0
   -0.9907    2.5707    0.4809 C   0  0  0  0  0  0  0  0  0  0  0  0
   -1.7633   -1.0586    2.4991 H   0  0  0  0  0  0  0  0  0  0  0  0
   -0.0013   -0.9984    2.5118 H   0  0  0  0  0  0  0  0  0  0  0  0
   -0.8391   -2.0526    1.3716 H   0  0  0  0  0  0  0  0  0  0  0  0
   -1.7741   -0.0627    0.1894 H   0  0  0  0  0  0  0  0  0  0  0  0
   -0.0925    1.5550    2.1534 H   0  0  0  0  0  0  0  0  0  0  0  0
   -1.8415    1.4952    2.1408 H   0  0  0  0  0  0  0  0  0  0  0  0
   -1.8653    2.4906   -0.1691 H   0  0  0  0  0  0  0  0  0  0  0  0
   -1.0275    3.5448    0.9711 H   0  0  0  0  0  0  0  0  0  0  0  0
   -0.1033    2.5508   -0.1563 H   0  0  0  0  0  0  0  0  0  0  0  0
  1  2  1  0
  1  4  1  0
  1  5  1  0
  1  6  1  0
  2  3  2  0
  7  8  1  0
  7 11  1  0
  7 12  1  0
  7 13  1  0
  8  9  1  0
  8 14  1  0
  9 10  1  0
  9 15  1  0
  9 16  1  0
 10 17  1  0
 10 18  1  0
 10 19  1  0
M  RAD  1   8   2
M  END
>  <reaction>  (9) 
rmg_rxn_586

>  <mol_properties>  (9) 
{"0": {"label": "*1", "atom_type": "Cs"}, "1": {"label": "*0", "atom_type": "N3d"}, "3": {"label": "*2", "atom_type": "H0"}, "7": {"label": "*3", "atom_type": "Cs"}, "8": {"label": "*4", "atom_type": "Cs"}}

>  <type>  (9) 
unop_5

>  <geom_source>  (9) 
Heuristics

$$$$

     RDKit          3D

 19 17  0  0  0  0  0  0  0  0999 V2000
    1.5253    0.1522   -0.2836 C   0  0  0  0  0  0  0  0  0  0  0  0
    1.5253   -1.1935   -0.8804 N   0  0  0  0  0  0  0  0  0  0  0  0
    1.5253   -1.1935   -2.0735 O   0  0  0  0  0  0  0  0  0  0  0  0
    0.4692    0.2236    0.4890 H   0  0  0  0  0  0  0  0  0  0  0  0
    1.5253    0.9327   -1.0453 H   0  0  0  0  0  0  0  0  0  0  0  0
    2.4053    0.2117    0.3603 H   0  0  0  0  0  0  0  0  0  0  0  0
    0.3050    1.4077    1.7936 C   0  0  0  0  0  0  0  0  0  0  0  0
   -0.5895    0.2952    1.2636 C   0  0  0  0  0  3  0  0  0  0  0  0
   -1.7691    0.8139    0.4494 C   0  0  0  0  0  0  0  0  0  0  0  0
   -2.6636   -0.2986   -0.0806 C   0  0  0  0  0  0  0  0  0  0  0  0
   -0.2559    2.0859    2.4411 H   0  0  0  0  0  0  0  0  0  0  0  0
    0.7190    2.0007    0.9746 H   0  0  0  0  0  0  0  0  0  0  0  0
    1.1400    1.0088    2.3718 H   0  0  0  0  0  0  0  0  0  0  0  0
   -0.9665   -0.3027    2.0996 H   0  0  0  0  0  0  0  0  0  0  0  0
   -1.3921    1.4118   -0.3867 H   0  0  0  0  0  0  0  0  0  0  0  0
   -2.3597    1.4963    1.0691 H   0  0  0  0  0  0  0  0  0  0  0  0
   -3.0775   -0.8916    0.7384 H   0  0  0  0  0  0  0  0  0  0  0  0
   -3.4986    0.1003   -0.6589 H   0  0  0  0  0  0  0  0  0  0  0  0
   -2.1027   -0.9767   -0.7282 H   0  0  0  0  0  0  0  0  0  0  0  0
  1  2  1  0
  1  4  1  0
  1  5  1  0
  1  6  1  0
  2  3  2  0
  7  8  1  0
  7 11  1  0
  7 12  1  0
  7 13  1  0
  8  9  1  0
  8 14  1  0
  9 10  1  0
  9 15  1  0
  9 16  1  0
 10 17  1  0
 10 18  1  0
 10 19  1  0
M  RAD  1   8   2
M  END
>  <reaction>  (10) 
rmg_rxn_586

>  <mol_properties>  (10) 
{"0": {"label": "*1", "atom_type": "Cs"}, "1": {"label": "*0", "atom_type": "N3d"}, "3": {"label": "*2", "atom_type": "H0"}, "7": {"label": "*3", "atom_type": "Cs"}, "8": {"label": "*4", "atom_type": "Cs"}}

>  <type>  (10) 
unop_6

>  <geom_source>  (10) 
Heuristics

$$$$

     RDKit          3D

 19 17  0  0  0  0  0  0  0  0999 V2000
    1.4442   -0.0197   -0.3785 C   0  0  0  0  0  0  0  0  0  0  0  0
    1.4442   -1.3654   -0.9753 N   0  0  0  0  0  0  0  0  0  0  0  0
    1.4442   -1.3654   -2.1684 O   0  0  0  0  0  0  0  0  0  0  0  0
    0.3882    0.0517    0.3941 H   0  0  0  0  0  0  0  0  0  0  0  0
    1.4442    0.7608   -1.1403 H   0  0  0  0  0  0  0  0  0  0  0  0
    2.3242    0.0398    0.2653 H   0  0  0  0  0  0  0  0  0  0  0  0
    0.4541    0.6068    2.0741 C   0  0  0  0  0  0  0  0  0  0  0  0
   -0.6706    0.1233    1.1686 C   0  0  0  0  0  3  0  0  0  0  0  0
   -1.5709    1.2520    0.6797 C   0  0  0  0  0  0  0  0  0  0  0  0
   -2.6956    0.7685   -0.2258 C   0  0  0  0  0  0  0  0  0  0  0  0
    0.0556    1.1041    2.9617 H   0  0  0  0  0  0  0  0  0  0  0  0
    1.0946    1.3232    1.5542 H   0  0  0  0  0  0  0  0  0  0  0  0
    1.0822   -0.2204    2.4090 H   0  0  0  0  0  0  0  0  0  0  0  0
   -1.2788   -0.6153    1.7008 H   0  0  0  0  0  0  0  0  0  0  0  0
   -0.9627    1.9905    0.1476 H   0  0  0  0  0  0  0  0  0  0  0  0
   -1.9940    1.7730    1.5447 H   0  0  0  0  0  0  0  0  0  0  0  0
   -3.3361    0.0521    0.2941 H   0  0  0  0  0  0  0  0  0  0  0  0
   -3.3236    1.5957   -0.5606 H   0  0  0  0  0  0  0  0  0  0  0  0
   -2.2971    0.2712   -1.1133 H   0  0  0  0  0  0  0  0  0  0  0  0
  1  2  1  0
  1  4  1  0
  1  5  1  0
  1  6  1  0
  2  3  2  0
  7  8  1  0
  7 11  1  0
  7 12  1  0
  7 13  1  0
  8  9  1  0
  8 14  1  0
  9 10  1  0
  9 15  1  0
  9 16  1  0
 10 17  1  0
 10 18  1  0
 10 19  1  0
M  RAD  1   8   2
M  END
>  <reaction>  (11) 
rmg_rxn_586

>  <mol_properties>  (11) 
{"0": {"label": "*1", "atom_type": "Cs"}, "1": {"label": "*0", "atom_type": "N3d"}, "3": {"label": "*2", "atom_type": "H0"}, "7": {"label": "*3", "atom_type": "Cs"}, "8": {"label": "*4", "atom_type": "Cs"}}

>  <type>  (11) 
unop_7

>  <geom_source>  (11) 
Heuristics

$$$$

     RDKit          3D

 19 17  0  0  0  0  0  0  0  0999 V2000
    1.0821    0.4323   -0.9152 C   0  0  0  0  0  0  0  0  0  0  0  0
    1.0821   -0.9134   -1.5120 N   0  0  0  0  0  0  0  0  0  0  0  0
    1.0821   -0.9134   -2.7051 O   0  0  0  0  0  0  0  0  0  0  0  0
    0.0261    0.5037   -0.1426 H   0  0  0  0  0  0  0  0  0  0  0  0
    1.0821    1.2128   -1.6770 H   0  0  0  0  0  0  0  0  0  0  0  0
    1.9621    0.4918   -0.2714 H   0  0  0  0  0  0  0  0  0  0  0  0
   -2.5334    0.5473    0.3760 C   0  0  0  0  0  0  0  0  0  0  0  0
   -1.0327    0.5753    0.6319 C   0  0  0  0  0  3  0  0  0  0  0  0
   -0.6570    0.1110    2.0344 C   0  0  0  0  0  0  0  0  0  0  0  0
    0.8438    0.1390    2.2903 C   0  0  0  0  0  0  0  0  0  0  0  0
   -3.0625    1.1953    1.0789 H   0  0  0  0  0  0  0  0  0  0  0  0
   -2.9319   -0.4631    0.4949 H   0  0  0  0  0  0  0  0  0  0  0  0
   -2.7738    0.8840   -0.6337 H   0  0  0  0  0  0  0  0  0  0  0  0
   -0.6525    1.5902    0.4767 H   0  0  0  0  0  0  0  0  0  0  0  0
   -1.0372   -0.9039    2.1896 H   0  0  0  0  0  0  0  0  0  0  0  0
   -1.1668    0.7423    2.7693 H   0  0  0  0  0  0  0  0  0  0  0  0
    1.2423    1.1494    2.1714 H   0  0  0  0  0  0  0  0  0  0  0  0
    1.0841   -0.1977    3.3000 H   0  0  0  0  0  0  0  0  0  0  0  0
    1.3728   -0.5090    1.5874 H   0  0  0  0  0  0  0  0  0  0  0  0
  1  2  1  0
  1  4  1  0
  1  5  1  0
  1  6  1  0
  2  3  2  0
  7  8  1  0
  7 11  1  0
  7 12  1  0
  7 13  1  0
  8  9  1  0
  8 14  1  0
  9 10  1  0
  9 15  1  0
  9 16  1  0
 10 17  1  0
 10 18  1  0
 10 19  1  0
M  RAD  1   8   2
M  END
>  <reaction>  (12) 
rmg_rxn_586

>  <mol_properties>  (12) 
{"0": {"label": "*1", "atom_type": "Cs"}, "1": {"label": "*0", "atom_type": "N3d"}, "3": {"label": "*2", "atom_type": "H0"}, "7": {"label": "*3", "atom_type": "Cs"}, "8": {"label": "*4", "atom_type": "Cs"}}

>  <type>  (12) 
unop_8

>  <geom_source>  (12) 
Heuristics

$$$$

     RDKit          3D

 19 17  0  0  0  0  0  0  0  0999 V2000
    1.5046    0.5589   -0.3522 C   0  0  0  0  0  0  0  0  0  0  0  0
    1.5046   -0.7868   -0.9490 N   0  0  0  0  0  0  0  0  0  0  0  0
    1.5046   -0.7868   -2.1421 O   0  0  0  0  0  0  0  0  0  0  0  0
    0.4486    0.6303    0.4204 H   0  0  0  0  0  0  0  0  0  0  0  0
    1.5046    1.3394   -1.1140 H   0  0  0  0  0  0  0  0  0  0  0  0
    2.3846    0.6184    0.2916 H   0  0  0  0  0  0  0  0  0  0  0  0
   -0.8579    2.1816    0.9346 C   0  0  0  0  0  0  0  0  0  0  0  0
   -0.6101    0.7019    1.1950 C   0  0  0  0  0  3  0  0  0  0  0  0
   -1.7042   -0.1957    0.6285 C   0  0  0  0  0  0  0  0  0  0  0  0
   -1.4564   -1.6754    0.8889 C   0  0  0  0  0  0  0  0  0  0  0  0
   -1.8002    2.5054    1.3831 H   0  0  0  0  0  0  0  0  0  0  0  0
   -0.9153    2.3862   -0.1371 H   0  0  0  0  0  0  0  0  0  0  0  0
   -0.0608    2.8002    1.3501 H   0  0  0  0  0  0  0  0  0  0  0  0
   -0.5258    0.5276    2.2725 H   0  0  0  0  0  0  0  0  0  0  0  0
   -1.7885   -0.0214   -0.4490 H   0  0  0  0  0  0  0  0  0  0  0  0
   -2.6669    0.0970    1.0600 H   0  0  0  0  0  0  0  0  0  0  0  0
   -1.3991   -1.8800    1.9606 H   0  0  0  0  0  0  0  0  0  0  0  0
   -2.2535   -2.2940    0.4734 H   0  0  0  0  0  0  0  0  0  0  0  0
   -0.5142   -1.9992    0.4404 H   0  0  0  0  0  0  0  0  0  0  0  0
  1  2  1  0
  1  4  1  0
  1  5  1  0
  1  6  1  0
  2  3  2  0
  7  8  1  0
  7 11  1  0
  7 12  1  0
  7 13  1  0
  8  9  1  0
  8 14  1  0
  9 10  1  0
  9 15  1  0
  9 16  1  0
 10 17  1  0
 10 18  1  0
 10 19  1  0
M  RAD  1   8   2
M  END
>  <reaction>  (13) 
rmg_rxn_586

>  <mol_properties>  (13) 
{"0": {"label": "*1", "atom_type": "Cs"}, "1": {"label": "*0", "atom_type": "N3d"}, "3": {"label": "*2", "atom_type": "H0"}, "7": {"label": "*3", "atom_type": "Cs"}, "8": {"label": "*4", "atom_type": "Cs"}}

>  <type>  (13) 
unop_9

>  <geom_source>  (13) 
Heuristics

$$$$

     RDKit          3D

 19 17  0  0  0  0  0  0  0  0999 V2000
    1.1613    0.6085   -0.8244 C   0  0  0  0  0  0  0  0  0  0  0  0
    1.1613   -0.7373   -1.4212 N   0  0  0  0  0  0  0  0  0  0  0  0
    1.1613   -0.7373   -2.6143 O   0  0  0  0  0  0  0  0  0  0  0  0
    0.1053    0.6799   -0.0518 H   0  0  0  0  0  0  0  0  0  0  0  0
    1.1613    1.3890   -1.5862 H   0  0  0  0  0  0  0  0  0  0  0  0
    2.0413    0.6680   -0.1806 H   0  0  0  0  0  0  0  0  0  0  0  0
   -2.3877    1.1557    0.4097 C   0  0  0  0  0  0  0  0  0  0  0  0
   -0.9534    0.7515    0.7227 C   0  0  0  0  0  3  0  0  0  0  0  0
   -0.8571   -0.3228    1.7998 C   0  0  0  0  0  0  0  0  0  0  0  0
    0.5772   -0.7271    2.1128 C   0  0  0  0  0  0  0  0  0  0  0  0
   -2.8862    1.5497    1.2986 H   0  0  0  0  0  0  0  0  0  0  0  0
   -2.9680    0.2991    0.0586 H   0  0  0  0  0  0  0  0  0  0  0  0
   -2.4273    1.9249   -0.3633 H   0  0  0  0  0  0  0  0  0  0  0  0
   -0.3853    1.6311    1.0422 H   0  0  0  0  0  0  0  0  0  0  0  0
   -1.4252   -1.2024    1.4803 H   0  0  0  0  0  0  0  0  0  0  0  0
   -1.3440    0.0389    2.7112 H   0  0  0  0  0  0  0  0  0  0  0  0
    1.1575    0.1295    2.4640 H   0  0  0  0  0  0  0  0  0  0  0  0
    0.6168   -1.4962    2.8859 H   0  0  0  0  0  0  0  0  0  0  0  0
    1.0757   -1.1210    1.2239 H   0  0  0  0  0  0  0  0  0  0  0  0
  1  2  1  0
  1  4  1  0
  1  5  1  0
  1  6  1  0
  2  3  2  0
  7  8  1  0
  7 11  1  0
  7 12  1  0
  7 13  1  0
  8  9  1  0
  8 14  1  0
  9 10  1  0
  9 15  1  0
  9 16  1  0
 10 17  1  0
 10 18  1  0
 10 19  1  0
M  RAD  1   8   2
M  END
>  <reaction>  (14) 
rmg_rxn_586

>  <mol_properties>  (14) 
{"0": {"label": "*1", "atom_type": "Cs"}, "1": {"label": "*0", "atom_type": "N3d"}, "3": {"label": "*2", "atom_type": "H0"}, "7": {"label": "*3", "atom_type": "Cs"}, "8": {"label": "*4", "atom_type": "Cs"}}

>  <type>  (14) 
unop_10

>  <geom_source>  (14) 
Heuristics

$$$$

     RDKit          3D

 19 17  0  0  0  0  0  0  0  0999 V2000
    1.3276   -0.1058   -0.5316 C   0  0  0  0  0  0  0  0  0  0  0  0
    1.3276   -1.4516   -1.1284 N   0  0  0  0  0  0  0  0  0  0  0  0
    1.3276   -1.4516   -2.3215 O   0  0  0  0  0  0  0  0  0  0  0  0
    0.2716   -0.0344    0.2410 H   0  0  0  0  0  0  0  0  0  0  0  0
    1.3276    0.6747   -1.2934 H   0  0  0  0  0  0  0  0  0  0  0  0
    2.2076   -0.0463    0.1122 H   0  0  0  0  0  0  0  0  0  0  0  0
    0.1415   -0.3163    2.1694 C   0  0  0  0  0  0  0  0  0  0  0  0
   -0.7871    0.0372    1.0156 C   0  0  0  0  0  3  0  0  0  0  0  0
   -1.2746    1.4807    1.0618 C   0  0  0  0  0  0  0  0  0  0  0  0
   -2.2032    1.8342   -0.0920 C   0  0  0  0  0  0  0  0  0  0  0  0
   -0.3593   -0.1795    3.1308 H   0  0  0  0  0  0  0  0  0  0  0  0
    1.0294    0.3204    2.1664 H   0  0  0  0  0  0  0  0  0  0  0  0
    0.4749   -1.3537    2.1116 H   0  0  0  0  0  0  0  0  0  0  0  0
   -1.6523   -0.6336    1.0217 H   0  0  0  0  0  0  0  0  0  0  0  0
   -0.4094    2.1514    1.0557 H   0  0  0  0  0  0  0  0  0  0  0  0
   -1.7878    1.6552    2.0130 H   0  0  0  0  0  0  0  0  0  0  0  0
   -3.0911    1.1974   -0.0890 H   0  0  0  0  0  0  0  0  0  0  0  0
   -2.5366    2.8716   -0.0343 H   0  0  0  0  0  0  0  0  0  0  0  0
   -1.7025    1.6973   -1.0534 H   0  0  0  0  0  0  0  0  0  0  0  0
  1  2  1  0
  1  4  1  0
  1  5  1  0
  1  6  1  0
  2  3  2  0
  7  8  1  0
  7 11  1  0
  7 12  1  0
  7 13  1  0
  8  9  1  0
  8 14  1  0
  9 10  1  0
  9 15  1  0
  9 16  1  0
 10 17  1  0
 10 18  1  0
 10 19  1  0
M  RAD  1   8   2
M  END
>  <reaction>  (15) 
rmg_rxn_586

>  <mol_properties>  (15) 
{"0": {"label": "*1", "atom_type": "Cs"}, "1": {"label": "*0", "atom_type": "N3d"}, "3": {"label": "*2", "atom_type": "H0"}, "7": {"label": "*3", "atom_type": "Cs"}, "8": {"label": "*4", "atom_type": "Cs"}}

>  <type>  (15) 
unop_11

>  <geom_source>  (15) 
Heuristics

$$$$

     RDKit          3D

 19 17  0  0  0  0  0  0  0  0999 V2000
    1.4066    0.6826   -0.4985 C   0  0  0  0  0  0  0  0  0  0  0  0
    1.4066   -0.6631   -1.0953 N   0  0  0  0  0  0  0  0  0  0  0  0
    1.4066   -0.6631   -2.2884 O   0  0  0  0  0  0  0  0  0  0  0  0
    0.3505    0.7540    0.2741 H   0  0  0  0  0  0  0  0  0  0  0  0
    1.4066    1.4631   -1.2602 H   0  0  0  0  0  0  0  0  0  0  0  0
    2.2866    0.7421    0.1454 H   0  0  0  0  0  0  0  0  0  0  0  0
   -1.5631    2.0164    0.6367 C   0  0  0  0  0  0  0  0  0  0  0  0
   -0.7082    0.8256    1.0487 C   0  0  0  0  0  3  0  0  0  0  0  0
   -1.4603   -0.4988    0.9891 C   0  0  0  0  0  0  0  0  0  0  0  0
   -0.6055   -1.6896    1.4011 C   0  0  0  0  0  0  0  0  0  0  0  0
   -2.4355    2.1156    1.2869 H   0  0  0  0  0  0  0  0  0  0  0  0
   -1.9263    1.9018   -0.3874 H   0  0  0  0  0  0  0  0  0  0  0  0
   -1.0006    2.9501    0.6885 H   0  0  0  0  0  0  0  0  0  0  0  0
   -0.3314    0.9782    2.0652 H   0  0  0  0  0  0  0  0  0  0  0  0
   -1.8372   -0.6514   -0.0275 H   0  0  0  0  0  0  0  0  0  0  0  0
   -2.3426   -0.4392    1.6345 H   0  0  0  0  0  0  0  0  0  0  0  0
   -0.2423   -1.5750    2.4252 H   0  0  0  0  0  0  0  0  0  0  0  0
   -1.1679   -2.6233    1.3493 H   0  0  0  0  0  0  0  0  0  0  0  0
    0.2669   -1.7888    0.7508 H   0  0  0  0  0  0  0  0  0  0  0  0
  1  2  1  0
  1  4  1  0
  1  5  1  0
  1  6  1  0
  2  3  2  0
  7  8  1  0
  7 11  1  0
  7 12  1  0
  7 13  1  0
  8  9  1  0
  8 14  1  0
  9 10  1  0
  9 15  1  0
  9 16  1  0
 10 17  1  0
 10 18  1  0
 10 19  1  0
M  RAD  1   8   2
M  END
>  <reaction>  (16) 
rmg_rxn_586

>  <mol_properties>  (16) 
{"0": {"label": "*1", "atom_type": "Cs"}, "1": {"label": "*0", "atom_type": "N3d"}, "3": {"label": "*2", "atom_type": "H0"}, "7": {"label": "*3", "atom_type": "Cs"}, "8": {"label": "*4", "atom_type": "Cs"}}

>  <type>  (16) 
unop_12

>  <geom_source>  (16) 
Heuristics

$$$$

     RDKit          3D

 19 17  0  0  0  0  0  0  0  0999 V2000
    3.1592   -0.7564    0.5398 O   0  0  0  0  0  1  0  0  0  0  0  0
    2.8434   -0.3506   -0.5367 N   0  0  0  0  0  0  0  0  0  0  0  0
   -0.4363   -0.4758   -0.3706 C   0  0  0  0  0  0  0  0  0  0  0  0
   -1.2850    0.1657    0.7309 C   0  0  0  0  0  0  0  0  0  0  0  0
   -0.4818   -1.9977   -0.2867 C   0  0  0  0  0  0  0  0  0  0  0  0
   -1.2252    1.6876    0.6505 C   0  0  0  0  0  0  0  0  0  0  0  0
    1.8630    0.6935   -0.6562 C   0  0  0  0  0  0  0  0  0  0  0  0
   -0.8112   -0.1578   -1.3680 H   0  0  0  0  0  0  0  0  0  0  0  0
    0.8293   -0.0782   -0.2457 H   0  0  0  0  0  0  0  0  0  0  0  0
   -2.3431   -0.1603    0.6283 H   0  0  0  0  0  0  0  0  0  0  0  0
   -0.9101   -0.1565    1.7266 H   0  0  0  0  0  0  0  0  0  0  0  0
    0.1442   -2.4306   -1.0948 H   0  0  0  0  0  0  0  0  0  0  0  0
   -1.5244   -2.3609   -0.4091 H   0  0  0  0  0  0  0  0  0  0  0  0
   -0.0843   -2.3402    0.6921 H   0  0  0  0  0  0  0  0  0  0  0  0
   -1.6163    2.0382   -0.3284 H   0  0  0  0  0  0  0  0  0  0  0  0
   -1.8468    2.1270    1.4589 H   0  0  0  0  0  0  0  0  0  0  0  0
   -0.1792    2.0402    0.7756 H   0  0  0  0  0  0  0  0  0  0  0  0
    1.6638    0.8914   -1.7294 H   0  0  0  0  0  0  0  0  0  0  0  0
    2.2407    1.6213   -0.1770 H   0  0  0  0  0  0  0  0  0  0  0  0
  1  2  1  0
  2  7  2  3
  3  5  1  0
  3  4  1  0
  3  8  1  0
  3  9  1  0
  4  6  1  0
  4 10  1  0
  4 11  1  0
  5 12  1  0
  5 13  1  0
  5 14  1  0
  6 15  1  0
  6 16  1  0
  6 17  1  0
  7 18  1  0
  7 19  1  0
M  RAD  1   1   2
M  END
>  <reaction>  (17) 
rmg_rxn_586

>  <mol_properties>  (17) 
{"0": {"label": "*1", "atom_type": "Cs"}, "1": {"label": "*0", "atom_type": "N3d"}, "3": {"label": "*2", "atom_type": "H0"}, "7": {"label": "*3", "atom_type": "Cs"}, "8": {"label": "*4", "atom_type": "Cs"}}

>  <type>  (17) 
unop_13

>  <geom_source>  (17) 
AutoTST

$$$$

     RDKit          3D

 19 17  0  0  0  0  0  0  0  0999 V2000
    1.2803    0.7007   -0.6718 C   0  0  0  0  0  0  0  0  0  0  0  0
    1.2803   -0.6451   -1.2686 N   0  0  0  0  0  0  0  0  0  0  0  0
    1.2803   -0.6451   -2.4617 O   0  0  0  0  0  0  0  0  0  0  0  0
    0.2243    0.7721    0.1008 H   0  0  0  0  0  0  0  0  0  0  0  0
    1.2803    1.4811   -1.4336 H   0  0  0  0  0  0  0  0  0  0  0  0
    2.1604    0.7602   -0.0280 H   0  0  0  0  0  0  0  0  0  0  0  0
   -2.0795    1.6352    0.4989 C   0  0  0  0  0  0  0  0  0  0  0  0
   -0.8344    0.8437    0.8753 C   0  0  0  0  0  3  0  0  0  0  0  0
   -1.1508   -0.5455    1.4173 C   0  0  0  0  0  0  0  0  0  0  0  0
    0.0943   -1.3371    1.7937 C   0  0  0  0  0  0  0  0  0  0  0  0
   -2.7330    1.7716    1.3639 H   0  0  0  0  0  0  0  0  0  0  0  0
   -2.6554    1.1161   -0.2710 H   0  0  0  0  0  0  0  0  0  0  0  0
   -1.8243    2.6241    0.1145 H   0  0  0  0  0  0  0  0  0  0  0  0
   -0.2592    1.3979    1.6241 H   0  0  0  0  0  0  0  0  0  0  0  0
   -1.7260   -1.0997    0.6685 H   0  0  0  0  0  0  0  0  0  0  0  0
   -1.8030   -0.4491    2.2913 H   0  0  0  0  0  0  0  0  0  0  0  0
    0.6702   -0.8180    2.5636 H   0  0  0  0  0  0  0  0  0  0  0  0
   -0.1610   -2.3259    2.1780 H   0  0  0  0  0  0  0  0  0  0  0  0
    0.7477   -1.4734    0.9287 H   0  0  0  0  0  0  0  0  0  0  0  0
  1  2  1  0
  1  4  1  0
  1  5  1  0
  1  6  1  0
  2  3  2  0
  7  8  1  0
  7 11  1  0
  7 12  1  0
  7 13  1  0
  8  9  1  0
  8 14  1  0
  9 10  1  0
  9 15  1  0
  9 16  1  0
 10 17  1  0
 10 18  1  0
 10 19  1  0
M  RAD  1   8   2
M  END
>  <reaction>  (18) 
rmg_rxn_586

>  <mol_properties>  (18) 
{"0": {"label": "*1", "atom_type": "Cs"}, "1": {"label": "*0", "atom_type": "N3d"}, "3": {"label": "*2", "atom_type": "H0"}, "7": {"label": "*3", "atom_type": "Cs"}, "8": {"label": "*4", "atom_type": "Cs"}}

>  <type>  (18) 
unop_14

>  <geom_source>  (18) 
gaussian_log

$$$$
