
     RDKit          3D

  9  8  0  0  0  0  0  0  0  0999 V2000
   -1.0434   -0.0834    0.0221 C   0  0  0  0  0  0  0  0  0  0  0  0
    0.4680   -0.2131    0.0785 C   0  0  0  0  0  0  0  0  0  0  0  0
    0.9450   -1.3136   -0.7058 N   0  0  0  0  0  2  0  0  0  0  0  0
   -1.5170   -0.9919    0.3960 H   0  0  0  0  0  0  0  0  0  0  0  0
   -1.3864    0.7592    0.6249 H   0  0  0  0  0  0  0  0  0  0  0  0
   -1.3736    0.0696   -1.0061 H   0  0  0  0  0  0  0  0  0  0  0  0
    0.8045   -0.3309    1.1214 H   0  0  0  0  0  0  0  0  0  0  0  0
    0.9463    0.7186   -0.2648 H   0  0  0  0  0  0  0  0  0  0  0  0
    1.9638   -1.3321   -0.6157 H   0  0  0  0  0  0  0  0  0  0  0  0
  1  2  1  0
  1  4  1  0
  1  5  1  0
  1  6  1  0
  2  3  1  0
  2  7  1  0
  2  8  1  0
  3  9  1  0
M  RAD  1   3   2
M  END
>  <reaction>  (1) 
rmg_rxn_23

>  <mol_properties>  (1) 
{"2": {"label": "donator", "atom_type": "N3s"}, "8": {"label": "d_hydrogen", "atom_type": "H0"}}

>  <type>  (1) 
r1h

$$$$

     RDKit          3D

 13 12  0  0  0  0  0  0  0  0999 V2000
    1.9060    0.2628    0.3980 C   0  0  0  0  0  0  0  0  0  0  0  0
    0.6330   -0.4250    0.0685 C   0  0  0  0  0  3  0  0  0  0  0  0
   -0.2610   -0.9325    1.1416 C   0  0  0  0  0  0  0  0  0  0  0  0
   -1.4364   -1.7546    0.6268 C   0  0  0  0  0  0  0  0  0  0  0  0
    2.4899   -0.3070    1.1292 H   0  0  0  0  0  0  0  0  0  0  0  0
    1.7297    1.2496    0.8515 H   0  0  0  0  0  0  0  0  0  0  0  0
    2.5269    0.4197   -0.4845 H   0  0  0  0  0  0  0  0  0  0  0  0
    0.2597   -0.3936   -0.9489 H   0  0  0  0  0  0  0  0  0  0  0  0
   -0.6439   -0.0868    1.7356 H   0  0  0  0  0  0  0  0  0  0  0  0
    0.3260   -1.5277    1.8536 H   0  0  0  0  0  0  0  0  0  0  0  0
   -1.0872   -2.6320    0.0792 H   0  0  0  0  0  0  0  0  0  0  0  0
   -2.0701   -2.0976    1.4459 H   0  0  0  0  0  0  0  0  0  0  0  0
   -2.0561   -1.1637   -0.0512 H   0  0  0  0  0  0  0  0  0  0  0  0
  1  2  1  0
  1  5  1  0
  1  6  1  0
  1  7  1  0
  2  3  1  0
  2  8  1  0
  3  4  1  0
  3  9  1  0
  3 10  1  0
  4 11  1  0
  4 12  1  0
  4 13  1  0
M  RAD  1   2   2
M  END
>  <reaction>  (2) 
rmg_rxn_23

>  <mol_properties>  (2) 
{"1": {"label": "acceptor", "atom_type": "Cs"}}

>  <type>  (2) 
r2

$$$$

     RDKit          3D

 14 13  0  0  0  0  0  0  0  0999 V2000
    1.8106   -0.5953    0.5577 C   0  0  0  0  0  0  0  0  0  0  0  0
    0.5197    0.2064    0.6554 C   0  0  0  0  0  0  0  0  0  0  0  0
   -0.5206   -0.2080   -0.3788 C   0  0  0  0  0  0  0  0  0  0  0  0
   -1.8114    0.5937   -0.2812 C   0  0  0  0  0  0  0  0  0  0  0  0
    2.2725   -0.4752   -0.4251 H   0  0  0  0  0  0  0  0  0  0  0  0
    1.6214   -1.6612    0.7052 H   0  0  0  0  0  0  0  0  0  0  0  0
    2.5364   -0.2784    1.3084 H   0  0  0  0  0  0  0  0  0  0  0  0
    0.0930    0.0950    1.6574 H   0  0  0  0  0  0  0  0  0  0  0  0
    0.7393    1.2723    0.5354 H   0  0  0  0  0  0  0  0  0  0  0  0
   -0.7402   -1.2739   -0.2588 H   0  0  0  0  0  0  0  0  0  0  0  0
   -0.0938   -0.0965   -1.3808 H   0  0  0  0  0  0  0  0  0  0  0  0
   -1.6222    1.6596   -0.4287 H   0  0  0  0  0  0  0  0  0  0  0  0
   -2.2734    0.4736    0.7017 H   0  0  0  0  0  0  0  0  0  0  0  0
   -2.5373    0.2768   -1.0318 H   0  0  0  0  0  0  0  0  0  0  0  0
  1  2  1  0
  1  5  1  0
  1  6  1  0
  1  7  1  0
  2  3  1  0
  2  8  1  0
  2  9  1  0
  3  4  1  0
  3 10  1  0
  3 11  1  0
  4 12  1  0
  4 13  1  0
  4 14  1  0
M  END
>  <reaction>  (3) 
rmg_rxn_23

>  <mol_properties>  (3) 
{"0": {"label": "a_hydrogen", "atom_type": "H0"}, "2": {"label": "acceptor", "atom_type": "Cs"}}

>  <type>  (3) 
r2h

$$$$

     RDKit          3D

 22 20  0  0  0  0  0  0  0  0999 V2000
   -0.3519   -1.1731   -3.1532 C   0  0  0  0  0  0  0  0  0  0  0  0
   -0.5311   -0.8387   -1.6791 C   0  0  0  0  0  0  0  0  0  0  0  0
    0.1789    0.3430   -1.3051 N   0  0  0  0  0  2  0  0  0  0  0  0
    0.7021   -1.3335   -3.3827 H   0  0  0  0  0  0  0  0  0  0  0  0
   -0.9042   -2.0776   -3.4147 H   0  0  0  0  0  0  0  0  0  0  0  0
   -0.7130   -0.3549   -3.7772 H   0  0  0  0  0  0  0  0  0  0  0  0
   -0.1980   -1.6799   -1.0501 H   0  0  0  0  0  0  0  0  0  0  0  0
   -1.5997   -0.7120   -1.4414 H   0  0  0  0  0  0  0  0  0  0  0  0
   -0.0481    0.4728   -0.1172 H   0  0  0  0  0  0  0  0  0  0  0  0
   -1.0383    1.8622    1.4004 C   0  0  0  0  0  0  0  0  0  0  0  0
   -0.3536    0.5347    1.2365 C   0  0  0  0  0  3  0  0  0  0  0  0
    0.9795    0.3630    1.9137 C   0  0  0  0  0  0  0  0  0  0  0  0
    1.6472   -0.9707    1.6023 C   0  0  0  0  0  0  0  0  0  0  0  0
   -0.3843    2.6805    1.0906 H   0  0  0  0  0  0  0  0  0  0  0  0
   -1.3098    2.0382    2.4480 H   0  0  0  0  0  0  0  0  0  0  0  0
   -1.9534    1.9189    0.8092 H   0  0  0  0  0  0  0  0  0  0  0  0
   -1.0160   -0.3248    1.3598 H   0  0  0  0  0  0  0  0  0  0  0  0
    0.8432    0.4612    2.9995 H   0  0  0  0  0  0  0  0  0  0  0  0
    1.6394    1.1853    1.6195 H   0  0  0  0  0  0  0  0  0  0  0  0
    1.8572   -1.0584    0.5345 H   0  0  0  0  0  0  0  0  0  0  0  0
    2.5911   -1.0768    2.1385 H   0  0  0  0  0  0  0  0  0  0  0  0
    1.0037   -1.8062    1.8886 H   0  0  0  0  0  0  0  0  0  0  0  0
  1  2  1  0
  1  4  1  0
  1  5  1  0
  1  6  1  0
  2  3  1  0
  2  7  1  0
  2  8  1  0
  3  9  1  0
 10 11  1  0
 10 14  1  0
 10 15  1  0
 10 16  1  0
 11 12  1  0
 11 17  1  0
 12 13  1  0
 12 18  1  0
 12 19  1  0
 13 20  1  0
 13 21  1  0
 13 22  1  0
M  RAD  2   3   2  11   2
M  END
>  <reaction>  (4) 
rmg_rxn_23

>  <mol_properties>  (4) 
{"1": {"label": "*0", "atom_type": "Cs"}, "2": {"label": "*1", "atom_type": "N3s"}, "8": {"label": "*2", "atom_type": "H0"}, "10": {"label": "*3", "atom_type": "Cs"}, "11": {"label": "*4", "atom_type": "Cs"}}

>  <type>  (4) 
ts

$$$$

     RDKit          3D

 22 20  0  0  0  0  0  0  0  0999 V2000
   -0.3556   -1.0126   -3.2842 C   0  0  0  0  0  0  0  0  0  0  0  0
   -0.3556   -1.0126   -1.7662 C   0  0  0  0  0  0  0  0  0  0  0  0
   -0.3556    0.3149   -1.2264 N   0  0  0  0  0  2  0  0  0  0  0  0
    0.5266   -0.4962   -3.6642 H   0  0  0  0  0  0  0  0  0  0  0  0
   -0.3556   -2.0315   -3.6753 H   0  0  0  0  0  0  0  0  0  0  0  0
   -1.2379   -0.4962   -3.6642 H   0  0  0  0  0  0  0  0  0  0  0  0
    0.5166   -1.5663   -1.3823 H   0  0  0  0  0  0  0  0  0  0  0  0
   -1.2279   -1.5663   -1.3823 H   0  0  0  0  0  0  0  0  0  0  0  0
   -0.3556    0.2114   -0.0032 H   0  0  0  0  0  0  0  0  0  0  0  0
   -1.4946    1.0759    1.0410 C   0  0  0  0  0  0  0  0  0  0  0  0
   -0.3556    0.1006    1.3059 C   0  0  0  0  0  3  0  0  0  0  0  0
    0.8918    0.7761    1.8636 C   0  0  0  0  0  0  0  0  0  0  0  0
    2.0307   -0.1992    2.1285 C   0  0  0  0  0  0  0  0  0  0  0  0
   -1.1959    1.8398    0.3193 H   0  0  0  0  0  0  0  0  0  0  0  0
   -1.7927    1.5880    1.9590 H   0  0  0  0  0  0  0  0  0  0  0  0
   -2.3736    0.5664    0.6429 H   0  0  0  0  0  0  0  0  0  0  0  0
   -0.6887   -0.6715    2.0069 H   0  0  0  0  0  0  0  0  0  0  0  0
    0.6324    1.2983    2.7903 H   0  0  0  0  0  0  0  0  0  0  0  0
    1.2249    1.5483    1.1626 H   0  0  0  0  0  0  0  0  0  0  0  0
    2.3289   -0.7113    1.2105 H   0  0  0  0  0  0  0  0  0  0  0  0
    2.9097    0.3104    2.5267 H   0  0  0  0  0  0  0  0  0  0  0  0
    1.7320   -0.9631    2.8503 H   0  0  0  0  0  0  0  0  0  0  0  0
  1  2  1  0
  1  4  1  0
  1  5  1  0
  1  6  1  0
  2  3  1  0
  2  7  1  0
  2  8  1  0
  3  9  1  0
 10 11  1  0
 10 14  1  0
 10 15  1  0
 10 16  1  0
 11 12  1  0
 11 17  1  0
 12 13  1  0
 12 18  1  0
 12 19  1  0
 13 20  1  0
 13 21  1  0
 13 22  1  0
M  RAD  2   3   2  11   2
M  END
>  <reaction>  (5) 
rmg_rxn_23

>  <mol_properties>  (5) 
{"1": {"label": "*0", "atom_type": "Cs"}, "2": {"label": "*1", "atom_type": "N3s"}, "8": {"label": "*2", "atom_type": "H0"}, "10": {"label": "*3", "atom_type": "Cs"}, "11": {"label": "*4", "atom_type": "Cs"}}

>  <type>  (5) 
unop_1

>  <geom_source>  (5) 
Heuristics

$$$$

     RDKit          3D

 22 20  0  0  0  0  0  0  0  0999 V2000
   -0.2097   -0.4450   -3.2378 C   0  0  0  0  0  0  0  0  0  0  0  0
   -0.2097   -0.4450   -1.7198 C   0  0  0  0  0  0  0  0  0  0  0  0
   -0.2097    0.8826   -1.1801 N   0  0  0  0  0  2  0  0  0  0  0  0
    0.6725    0.0715   -3.6179 H   0  0  0  0  0  0  0  0  0  0  0  0
   -0.2097   -1.4639   -3.6289 H   0  0  0  0  0  0  0  0  0  0  0  0
   -1.0919    0.0715   -3.6179 H   0  0  0  0  0  0  0  0  0  0  0  0
    0.6625   -0.9987   -1.3359 H   0  0  0  0  0  0  0  0  0  0  0  0
   -1.0819   -0.9987   -1.3359 H   0  0  0  0  0  0  0  0  0  0  0  0
   -0.2097    0.7791    0.0432 H   0  0  0  0  0  0  0  0  0  0  0  0
    0.6293    1.9174    1.5853 C   0  0  0  0  0  0  0  0  0  0  0  0
   -0.2097    0.6683    1.3522 C   0  0  0  0  0  3  0  0  0  0  0  0
    0.5105   -0.6168    1.7441 C   0  0  0  0  0  0  0  0  0  0  0  0
   -0.3285   -1.8659    1.5111 C   0  0  0  0  0  0  0  0  0  0  0  0
    1.5548    1.8810    1.0056 H   0  0  0  0  0  0  0  0  0  0  0  0
    0.9034    2.0139    2.6385 H   0  0  0  0  0  0  0  0  0  0  0  0
    0.0904    2.8213    1.2967 H   0  0  0  0  0  0  0  0  0  0  0  0
   -1.1438    0.7423    1.9184 H   0  0  0  0  0  0  0  0  0  0  0  0
    0.7981   -0.5590    2.7989 H   0  0  0  0  0  0  0  0  0  0  0  0
    1.4446   -0.6909    1.1780 H   0  0  0  0  0  0  0  0  0  0  0  0
   -0.6026   -1.9624    0.4578 H   0  0  0  0  0  0  0  0  0  0  0  0
    0.2104   -2.7698    1.7996 H   0  0  0  0  0  0  0  0  0  0  0  0
   -1.2540   -1.8295    2.0907 H   0  0  0  0  0  0  0  0  0  0  0  0
  1  2  1  0
  1  4  1  0
  1  5  1  0
  1  6  1  0
  2  3  1  0
  2  7  1  0
  2  8  1  0
  3  9  1  0
 10 11  1  0
 10 14  1  0
 10 15  1  0
 10 16  1  0
 11 12  1  0
 11 17  1  0
 12 13  1  0
 12 18  1  0
 12 19  1  0
 13 20  1  0
 13 21  1  0
 13 22  1  0
M  RAD  2   3   2  11   2
M  END
>  <reaction>  (6) 
rmg_rxn_23

>  <mol_properties>  (6) 
{"1": {"label": "*0", "atom_type": "Cs"}, "2": {"label": "*1", "atom_type": "N3s"}, "8": {"label": "*2", "atom_type": "H0"}, "10": {"label": "*3", "atom_type": "Cs"}, "11": {"label": "*4", "atom_type": "Cs"}}

>  <type>  (6) 
unop_2

>  <geom_source>  (6) 
Heuristics

$$$$

     RDKit          3D

 22 20  0  0  0  0  0  0  0  0999 V2000
   -0.2029   -1.1602   -3.2977 C   0  0  0  0  0  0  0  0  0  0  0  0
   -0.2029   -1.1602   -1.7797 C   0  0  0  0  0  0  0  0  0  0  0  0
   -0.2029    0.1674   -1.2400 N   0  0  0  0  0  2  0  0  0  0  0  0
    0.6793   -0.6437   -3.6778 H   0  0  0  0  0  0  0  0  0  0  0  0
   -0.2029   -2.1791   -3.6888 H   0  0  0  0  0  0  0  0  0  0  0  0
   -1.0851   -0.6437   -3.6778 H   0  0  0  0  0  0  0  0  0  0  0  0
    0.6694   -1.7139   -1.3958 H   0  0  0  0  0  0  0  0  0  0  0  0
   -1.0751   -1.7139   -1.3958 H   0  0  0  0  0  0  0  0  0  0  0  0
   -0.2029    0.0639   -0.0168 H   0  0  0  0  0  0  0  0  0  0  0  0
   -1.7127    0.1372    1.2203 C   0  0  0  0  0  0  0  0  0  0  0  0
   -0.2029   -0.0469    1.2923 C   0  0  0  0  0  3  0  0  0  0  0  0
    0.5173    1.1539    1.8946 C   0  0  0  0  0  0  0  0  0  0  0  0
    2.0271    0.9698    1.9666 C   0  0  0  0  0  0  0  0  0  0  0  0
   -1.9724    1.0045    0.6087 H   0  0  0  0  0  0  0  0  0  0  0  0
   -2.1354    0.2966    2.2151 H   0  0  0  0  0  0  0  0  0  0  0  0
   -2.2022   -0.7359    0.7859 H   0  0  0  0  0  0  0  0  0  0  0  0
    0.0307   -0.9383    1.8836 H   0  0  0  0  0  0  0  0  0  0  0  0
    0.1220    1.3426    2.8979 H   0  0  0  0  0  0  0  0  0  0  0  0
    0.2838    2.0453    1.3033 H   0  0  0  0  0  0  0  0  0  0  0  0
    2.4499    0.8104    0.9718 H   0  0  0  0  0  0  0  0  0  0  0  0
    2.5167    1.8429    2.4010 H   0  0  0  0  0  0  0  0  0  0  0  0
    2.2869    0.1025    2.5782 H   0  0  0  0  0  0  0  0  0  0  0  0
  1  2  1  0
  1  4  1  0
  1  5  1  0
  1  6  1  0
  2  3  1  0
  2  7  1  0
  2  8  1  0
  3  9  1  0
 10 11  1  0
 10 14  1  0
 10 15  1  0
 10 16  1  0
 11 12  1  0
 11 17  1  0
 12 13  1  0
 12 18  1  0
 12 19  1  0
 13 20  1  0
 13 21  1  0
 13 22  1  0
M  RAD  2   3   2  11   2
M  END
>  <reaction>  (7) 
rmg_rxn_23

>  <mol_properties>  (7) 
{"1": {"label": "*0", "atom_type": "Cs"}, "2": {"label": "*1", "atom_type": "N3s"}, "8": {"label": "*2", "atom_type": "H0"}, "10": {"label": "*3", "atom_type": "Cs"}, "11": {"label": "*4", "atom_type": "Cs"}}

>  <type>  (7) 
unop_3

>  <geom_source>  (7) 
Heuristics

$$$$

     RDKit          3D

 22 20  0  0  0  0  0  0  0  0999 V2000
    0.3614   -0.5989   -3.2499 C   0  0  0  0  0  0  0  0  0  0  0  0
    0.3614   -0.5989   -1.7319 C   0  0  0  0  0  0  0  0  0  0  0  0
    0.3614    0.7287   -1.1921 N   0  0  0  0  0  2  0  0  0  0  0  0
    1.2436   -0.0824   -3.6299 H   0  0  0  0  0  0  0  0  0  0  0  0
    0.3614   -1.6178   -3.6409 H   0  0  0  0  0  0  0  0  0  0  0  0
   -0.5209   -0.0824   -3.6299 H   0  0  0  0  0  0  0  0  0  0  0  0
    1.2336   -1.1526   -1.3480 H   0  0  0  0  0  0  0  0  0  0  0  0
   -0.5109   -1.1526   -1.3480 H   0  0  0  0  0  0  0  0  0  0  0  0
    0.3614    0.6251    0.0311 H   0  0  0  0  0  0  0  0  0  0  0  0
    1.5145    0.3845    2.3261 C   0  0  0  0  0  0  0  0  0  0  0  0
    0.3614    0.5143    1.3402 C   0  0  0  0  0  3  0  0  0  0  0  0
   -0.8860   -0.2454    1.7765 C   0  0  0  0  0  0  0  0  0  0  0  0
   -2.0392   -0.1155    0.7906 C   0  0  0  0  0  0  0  0  0  0  0  0
    1.8057   -0.6610    2.4523 H   0  0  0  0  0  0  0  0  0  0  0  0
    1.2340    0.7698    3.3093 H   0  0  0  0  0  0  0  0  0  0  0  0
    2.3932    0.9371    1.9895 H   0  0  0  0  0  0  0  0  0  0  0  0
    0.1090    1.5713    1.2073 H   0  0  0  0  0  0  0  0  0  0  0  0
   -1.2011    0.1179    2.7601 H   0  0  0  0  0  0  0  0  0  0  0  0
   -0.6336   -1.3023    1.9094 H   0  0  0  0  0  0  0  0  0  0  0  0
   -1.7587   -0.5008   -0.1926 H   0  0  0  0  0  0  0  0  0  0  0  0
   -2.9178   -0.6681    1.1271 H   0  0  0  0  0  0  0  0  0  0  0  0
   -2.3303    0.9300    0.6644 H   0  0  0  0  0  0  0  0  0  0  0  0
  1  2  1  0
  1  4  1  0
  1  5  1  0
  1  6  1  0
  2  3  1  0
  2  7  1  0
  2  8  1  0
  3  9  1  0
 10 11  1  0
 10 14  1  0
 10 15  1  0
 10 16  1  0
 11 12  1  0
 11 17  1  0
 12 13  1  0
 12 18  1  0
 12 19  1  0
 13 20  1  0
 13 21  1  0
 13 22  1  0
M  RAD  2   3   2  11   2
M  END
>  <reaction>  (8) 
rmg_rxn_23

>  <mol_properties>  (8) 
{"1": {"label": "*0", "atom_type": "Cs"}, "2": {"label": "*1", "atom_type": "N3s"}, "8": {"label": "*2", "atom_type": "H0"}, "10": {"label": "*3", "atom_type": "Cs"}, "11": {"label": "*4", "atom_type": "Cs"}}

>  <type>  (8) 
unop_4

>  <geom_source>  (8) 
Heuristics

$$$$

     RDKit          3D

 22 20  0  0  0  0  0  0  0  0999 V2000
   -0.0000   -1.2126   -3.3033 C   0  0  0  0  0  0  0  0  0  0  0  0
   -0.0000   -1.2126   -1.7853 C   0  0  0  0  0  0  0  0  0  0  0  0
   -0.0000    0.1150   -1.2455 N   0  0  0  0  0  2  0  0  0  0  0  0
    0.8822   -0.6961   -3.6833 H   0  0  0  0  0  0  0  0  0  0  0  0
   -0.0000   -2.2315   -3.6943 H   0  0  0  0  0  0  0  0  0  0  0  0
   -0.8822   -0.6961   -3.6833 H   0  0  0  0  0  0  0  0  0  0  0  0
    0.8722   -1.7663   -1.4014 H   0  0  0  0  0  0  0  0  0  0  0  0
   -0.8722   -1.7663   -1.4014 H   0  0  0  0  0  0  0  0  0  0  0  0
   -0.0000    0.0114   -0.0223 H   0  0  0  0  0  0  0  0  0  0  0  0
   -1.1849   -0.9480    1.7276 C   0  0  0  0  0  0  0  0  0  0  0  0
    0.0000   -0.0994    1.2868 C   0  0  0  0  0  3  0  0  0  0  0  0
    0.0000    1.2938    1.9053 C   0  0  0  0  0  0  0  0  0  0  0  0
    1.1849    2.1425    1.4644 C   0  0  0  0  0  0  0  0  0  0  0  0
   -2.1299   -0.4755    1.4492 H   0  0  0  0  0  0  0  0  0  0  0  0
   -1.1894   -1.0806    2.8122 H   0  0  0  0  0  0  0  0  0  0  0  0
   -1.1600   -1.9386    1.2707 H   0  0  0  0  0  0  0  0  0  0  0  0
    0.9336   -0.6077    1.5488 H   0  0  0  0  0  0  0  0  0  0  0  0
   -0.0000    1.2015    2.9962 H   0  0  0  0  0  0  0  0  0  0  0  0
   -0.9336    1.8021    1.6433 H   0  0  0  0  0  0  0  0  0  0  0  0
    1.1894    2.2750    0.3799 H   0  0  0  0  0  0  0  0  0  0  0  0
    1.1600    3.1330    1.9214 H   0  0  0  0  0  0  0  0  0  0  0  0
    2.1299    1.6699    1.7429 H   0  0  0  0  0  0  0  0  0  0  0  0
  1  2  1  0
  1  4  1  0
  1  5  1  0
  1  6  1  0
  2  3  1  0
  2  7  1  0
  2  8  1  0
  3  9  1  0
 10 11  1  0
 10 14  1  0
 10 15  1  0
 10 16  1  0
 11 12  1  0
 11 17  1  0
 12 13  1  0
 12 18  1  0
 12 19  1  0
 13 20  1  0
 13 21  1  0
 13 22  1  0
M  RAD  2   3   2  11   2
M  END
>  <reaction>  (9) 
rmg_rxn_23

>  <mol_properties>  (9) 
{"1": {"label": "*0", "atom_type": "Cs"}, "2": {"label": "*1", "atom_type": "N3s"}, "8": {"label": "*2", "atom_type": "H0"}, "10": {"label": "*3", "atom_type": "Cs"}, "11": {"label": "*4", "atom_type": "Cs"}}

>  <type>  (9) 
unop_5

>  <geom_source>  (9) 
Heuristics

$$$$

     RDKit          3D

 22 20  0  0  0  0  0  0  0  0999 V2000
    0.4144   -0.8070   -3.2668 C   0  0  0  0  0  0  0  0  0  0  0  0
    0.4144   -0.8070   -1.7488 C   0  0  0  0  0  0  0  0  0  0  0  0
    0.4144    0.5205   -1.2090 N   0  0  0  0  0  2  0  0  0  0  0  0
    1.2966   -0.2906   -3.6468 H   0  0  0  0  0  0  0  0  0  0  0  0
    0.4144   -1.8259   -3.6578 H   0  0  0  0  0  0  0  0  0  0  0  0
   -0.4678   -0.2906   -3.6468 H   0  0  0  0  0  0  0  0  0  0  0  0
    1.2866   -1.3607   -1.3649 H   0  0  0  0  0  0  0  0  0  0  0  0
   -0.4578   -1.3607   -1.3649 H   0  0  0  0  0  0  0  0  0  0  0  0
    0.4144    0.4170    0.0142 H   0  0  0  0  0  0  0  0  0  0  0  0
    1.4120   -0.2353    2.3383 C   0  0  0  0  0  0  0  0  0  0  0  0
    0.4144    0.3062    1.3233 C   0  0  0  0  0  3  0  0  0  0  0  0
   -1.0260    0.2641    1.8203 C   0  0  0  0  0  0  0  0  0  0  0  0
   -2.0236    0.8056    0.8053 C   0  0  0  0  0  0  0  0  0  0  0  0
    1.1909   -1.2759    2.5875 H   0  0  0  0  0  0  0  0  0  0  0  0
    1.3778    0.3405    3.2662 H   0  0  0  0  0  0  0  0  0  0  0  0
    2.4336   -0.1935    1.9571 H   0  0  0  0  0  0  0  0  0  0  0  0
    0.6749    1.3381    1.0668 H   0  0  0  0  0  0  0  0  0  0  0  0
   -1.1009    0.8367    2.7505 H   0  0  0  0  0  0  0  0  0  0  0  0
   -1.2865   -0.7679    2.0768 H   0  0  0  0  0  0  0  0  0  0  0  0
   -1.9895    0.2298   -0.1226 H   0  0  0  0  0  0  0  0  0  0  0  0
   -3.0452    0.7638    1.1865 H   0  0  0  0  0  0  0  0  0  0  0  0
   -1.8025    1.8462    0.5561 H   0  0  0  0  0  0  0  0  0  0  0  0
  1  2  1  0
  1  4  1  0
  1  5  1  0
  1  6  1  0
  2  3  1  0
  2  7  1  0
  2  8  1  0
  3  9  1  0
 10 11  1  0
 10 14  1  0
 10 15  1  0
 10 16  1  0
 11 12  1  0
 11 17  1  0
 12 13  1  0
 12 18  1  0
 12 19  1  0
 13 20  1  0
 13 21  1  0
 13 22  1  0
M  RAD  2   3   2  11   2
M  END
>  <reaction>  (10) 
rmg_rxn_23

>  <mol_properties>  (10) 
{"1": {"label": "*0", "atom_type": "Cs"}, "2": {"label": "*1", "atom_type": "N3s"}, "8": {"label": "*2", "atom_type": "H0"}, "10": {"label": "*3", "atom_type": "Cs"}, "11": {"label": "*4", "atom_type": "Cs"}}

>  <type>  (10) 
unop_6

>  <geom_source>  (10) 
Heuristics

$$$$

     RDKit          3D

 22 20  0  0  0  0  0  0  0  0999 V2000
    0.3556   -1.0126   -3.2842 C   0  0  0  0  0  0  0  0  0  0  0  0
    0.3556   -1.0126   -1.7662 C   0  0  0  0  0  0  0  0  0  0  0  0
    0.3556    0.3149   -1.2264 N   0  0  0  0  0  2  0  0  0  0  0  0
    1.2379   -0.4962   -3.6642 H   0  0  0  0  0  0  0  0  0  0  0  0
    0.3556   -2.0315   -3.6753 H   0  0  0  0  0  0  0  0  0  0  0  0
   -0.5266   -0.4962   -3.6642 H   0  0  0  0  0  0  0  0  0  0  0  0
    1.2279   -1.5663   -1.3823 H   0  0  0  0  0  0  0  0  0  0  0  0
   -0.5166   -1.5663   -1.3823 H   0  0  0  0  0  0  0  0  0  0  0  0
    0.3556    0.2114   -0.0032 H   0  0  0  0  0  0  0  0  0  0  0  0
    0.9916   -0.8786    2.2833 C   0  0  0  0  0  0  0  0  0  0  0  0
    0.3556    0.1006    1.3059 C   0  0  0  0  0  3  0  0  0  0  0  0
   -0.8918    0.7761    1.8636 C   0  0  0  0  0  0  0  0  0  0  0  0
   -1.5277    1.7553    0.8862 C   0  0  0  0  0  0  0  0  0  0  0  0
    0.2917   -1.6734    2.5522 H   0  0  0  0  0  0  0  0  0  0  0  0
    1.2878   -0.3738    3.2059 H   0  0  0  0  0  0  0  0  0  0  0  0
    1.8811   -1.3470    1.8590 H   0  0  0  0  0  0  0  0  0  0  0  0
    1.0851    0.8683    1.0282 H   0  0  0  0  0  0  0  0  0  0  0  0
   -0.6324    1.2983    2.7903 H   0  0  0  0  0  0  0  0  0  0  0  0
   -1.6212    0.0084    2.1413 H   0  0  0  0  0  0  0  0  0  0  0  0
   -1.8239    1.2506   -0.0364 H   0  0  0  0  0  0  0  0  0  0  0  0
   -2.4173    2.2237    1.3105 H   0  0  0  0  0  0  0  0  0  0  0  0
   -0.8278    2.5501    0.6173 H   0  0  0  0  0  0  0  0  0  0  0  0
  1  2  1  0
  1  4  1  0
  1  5  1  0
  1  6  1  0
  2  3  1  0
  2  7  1  0
  2  8  1  0
  3  9  1  0
 10 11  1  0
 10 14  1  0
 10 15  1  0
 10 16  1  0
 11 12  1  0
 11 17  1  0
 12 13  1  0
 12 18  1  0
 12 19  1  0
 13 20  1  0
 13 21  1  0
 13 22  1  0
M  RAD  2   3   2  11   2
M  END
>  <reaction>  (11) 
rmg_rxn_23

>  <mol_properties>  (11) 
{"1": {"label": "*0", "atom_type": "Cs"}, "2": {"label": "*1", "atom_type": "N3s"}, "8": {"label": "*2", "atom_type": "H0"}, "10": {"label": "*3", "atom_type": "Cs"}, "11": {"label": "*4", "atom_type": "Cs"}}

>  <type>  (11) 
unop_7

>  <geom_source>  (11) 
Heuristics

$$$$

     RDKit          3D

 22 20  0  0  0  0  0  0  0  0999 V2000
   -0.4144   -0.8070   -3.2668 C   0  0  0  0  0  0  0  0  0  0  0  0
   -0.4144   -0.8070   -1.7488 C   0  0  0  0  0  0  0  0  0  0  0  0
   -0.4144    0.5205   -1.2090 N   0  0  0  0  0  2  0  0  0  0  0  0
    0.4678   -0.2906   -3.6468 H   0  0  0  0  0  0  0  0  0  0  0  0
   -0.4144   -1.8259   -3.6578 H   0  0  0  0  0  0  0  0  0  0  0  0
   -1.2966   -0.2906   -3.6468 H   0  0  0  0  0  0  0  0  0  0  0  0
    0.4578   -1.3607   -1.3649 H   0  0  0  0  0  0  0  0  0  0  0  0
   -1.2866   -1.3607   -1.3649 H   0  0  0  0  0  0  0  0  0  0  0  0
   -0.4144    0.4170    0.0142 H   0  0  0  0  0  0  0  0  0  0  0  0
   -0.9255    1.7221    1.0941 C   0  0  0  0  0  0  0  0  0  0  0  0
   -0.4144    0.3062    1.3233 C   0  0  0  0  0  3  0  0  0  0  0  0
    1.0260    0.2641    1.8203 C   0  0  0  0  0  0  0  0  0  0  0  0
    1.5371   -1.1518    2.0495 C   0  0  0  0  0  0  0  0  0  0  0  0
   -0.3164    2.2426    0.3512 H   0  0  0  0  0  0  0  0  0  0  0  0
   -0.8895    2.3054    2.0173 H   0  0  0  0  0  0  0  0  0  0  0  0
   -1.9573    1.7228    0.7392 H   0  0  0  0  0  0  0  0  0  0  0  0
   -1.0582   -0.2041    2.0470 H   0  0  0  0  0  0  0  0  0  0  0  0
    1.1009    0.8367    2.7505 H   0  0  0  0  0  0  0  0  0  0  0  0
    1.6698    0.7744    1.0966 H   0  0  0  0  0  0  0  0  0  0  0  0
    1.5011   -1.7351    1.1263 H   0  0  0  0  0  0  0  0  0  0  0  0
    2.5689   -1.1525    2.4044 H   0  0  0  0  0  0  0  0  0  0  0  0
    0.9280   -1.6723    2.7924 H   0  0  0  0  0  0  0  0  0  0  0  0
  1  2  1  0
  1  4  1  0
  1  5  1  0
  1  6  1  0
  2  3  1  0
  2  7  1  0
  2  8  1  0
  3  9  1  0
 10 11  1  0
 10 14  1  0
 10 15  1  0
 10 16  1  0
 11 12  1  0
 11 17  1  0
 12 13  1  0
 12 18  1  0
 12 19  1  0
 13 20  1  0
 13 21  1  0
 13 22  1  0
M  RAD  2   3   2  11   2
M  END
>  <reaction>  (12) 
rmg_rxn_23

>  <mol_properties>  (12) 
{"1": {"label": "*0", "atom_type": "Cs"}, "2": {"label": "*1", "atom_type": "N3s"}, "8": {"label": "*2", "atom_type": "H0"}, "10": {"label": "*3", "atom_type": "Cs"}, "11": {"label": "*4", "atom_type": "Cs"}}

>  <type>  (12) 
unop_8

>  <geom_source>  (12) 
Heuristics

$$$$

     RDKit          3D

 22 20  0  0  0  0  0  0  0  0999 V2000
    0.2097   -0.4450   -3.2378 C   0  0  0  0  0  0  0  0  0  0  0  0
    0.2097   -0.4450   -1.7198 C   0  0  0  0  0  0  0  0  0  0  0  0
    0.2097    0.8826   -1.1801 N   0  0  0  0  0  2  0  0  0  0  0  0
    1.0919    0.0715   -3.6179 H   0  0  0  0  0  0  0  0  0  0  0  0
    0.2097   -1.4639   -3.6289 H   0  0  0  0  0  0  0  0  0  0  0  0
   -0.6725    0.0715   -3.6179 H   0  0  0  0  0  0  0  0  0  0  0  0
    1.0819   -0.9987   -1.3359 H   0  0  0  0  0  0  0  0  0  0  0  0
   -0.6625   -0.9987   -1.3359 H   0  0  0  0  0  0  0  0  0  0  0  0
    0.2097    0.7791    0.0432 H   0  0  0  0  0  0  0  0  0  0  0  0
    1.4417    0.9451    2.2032 C   0  0  0  0  0  0  0  0  0  0  0  0
    0.2097    0.6683    1.3522 C   0  0  0  0  0  3  0  0  0  0  0  0
   -0.5105   -0.6168    1.7441 C   0  0  0  0  0  0  0  0  0  0  0  0
   -1.7425   -0.8937    0.8931 C   0  0  0  0  0  0  0  0  0  0  0  0
    2.1678    0.1334    2.1164 H   0  0  0  0  0  0  0  0  0  0  0  0
    1.1754    1.0379    3.2588 H   0  0  0  0  0  0  0  0  0  0  0  0
    1.9371    1.8695    1.9017 H   0  0  0  0  0  0  0  0  0  0  0  0
   -0.4879    1.5083    1.4315 H   0  0  0  0  0  0  0  0  0  0  0  0
   -0.7981   -0.5590    2.7989 H   0  0  0  0  0  0  0  0  0  0  0  0
    0.1870   -1.4569    1.6648 H   0  0  0  0  0  0  0  0  0  0  0  0
   -1.4762   -0.9865   -0.1625 H   0  0  0  0  0  0  0  0  0  0  0  0
   -2.2379   -1.8180    1.1946 H   0  0  0  0  0  0  0  0  0  0  0  0
   -2.4686   -0.0819    0.9800 H   0  0  0  0  0  0  0  0  0  0  0  0
  1  2  1  0
  1  4  1  0
  1  5  1  0
  1  6  1  0
  2  3  1  0
  2  7  1  0
  2  8  1  0
  3  9  1  0
 10 11  1  0
 10 14  1  0
 10 15  1  0
 10 16  1  0
 11 12  1  0
 11 17  1  0
 12 13  1  0
 12 18  1  0
 12 19  1  0
 13 20  1  0
 13 21  1  0
 13 22  1  0
M  RAD  2   3   2  11   2
M  END
>  <reaction>  (13) 
rmg_rxn_23

>  <mol_properties>  (13) 
{"1": {"label": "*0", "atom_type": "Cs"}, "2": {"label": "*1", "atom_type": "N3s"}, "8": {"label": "*2", "atom_type": "H0"}, "10": {"label": "*3", "atom_type": "Cs"}, "11": {"label": "*4", "atom_type": "Cs"}}

>  <type>  (13) 
unop_9

>  <geom_source>  (13) 
Heuristics

$$$$

     RDKit          3D

 22 20  0  0  0  0  0  0  0  0999 V2000
   -0.3614   -0.5989   -3.2499 C   0  0  0  0  0  0  0  0  0  0  0  0
   -0.3614   -0.5989   -1.7319 C   0  0  0  0  0  0  0  0  0  0  0  0
   -0.3614    0.7287   -1.1921 N   0  0  0  0  0  2  0  0  0  0  0  0
    0.5209   -0.0824   -3.6299 H   0  0  0  0  0  0  0  0  0  0  0  0
   -0.3614   -1.6178   -3.6409 H   0  0  0  0  0  0  0  0  0  0  0  0
   -1.2436   -0.0824   -3.6299 H   0  0  0  0  0  0  0  0  0  0  0  0
    0.5109   -1.1526   -1.3480 H   0  0  0  0  0  0  0  0  0  0  0  0
   -1.2336   -1.1526   -1.3480 H   0  0  0  0  0  0  0  0  0  0  0  0
   -0.3614    0.6251    0.0311 H   0  0  0  0  0  0  0  0  0  0  0  0
   -0.1534    2.0218    1.2855 C   0  0  0  0  0  0  0  0  0  0  0  0
   -0.3614    0.5143    1.3402 C   0  0  0  0  0  3  0  0  0  0  0  0
    0.8860   -0.2453    1.7765 C   0  0  0  0  0  0  0  0  0  0  0  0
    0.6781   -1.7528    1.8312 C   0  0  0  0  0  0  0  0  0  0  0  0
    0.6409    2.2820    0.5818 H   0  0  0  0  0  0  0  0  0  0  0  0
    0.1322    2.4132    2.2647 H   0  0  0  0  0  0  0  0  0  0  0  0
   -1.0607    2.5400    0.9708 H   0  0  0  0  0  0  0  0  0  0  0  0
   -1.1813    0.2814    2.0272 H   0  0  0  0  0  0  0  0  0  0  0  0
    1.2011    0.1179    2.7601 H   0  0  0  0  0  0  0  0  0  0  0  0
    1.7060   -0.0124    1.0895 H   0  0  0  0  0  0  0  0  0  0  0  0
    0.3925   -2.1442    0.8519 H   0  0  0  0  0  0  0  0  0  0  0  0
    1.5854   -2.2710    2.1459 H   0  0  0  0  0  0  0  0  0  0  0  0
   -0.1162   -2.0130    2.5349 H   0  0  0  0  0  0  0  0  0  0  0  0
  1  2  1  0
  1  4  1  0
  1  5  1  0
  1  6  1  0
  2  3  1  0
  2  7  1  0
  2  8  1  0
  3  9  1  0
 10 11  1  0
 10 14  1  0
 10 15  1  0
 10 16  1  0
 11 12  1  0
 11 17  1  0
 12 13  1  0
 12 18  1  0
 12 19  1  0
 13 20  1  0
 13 21  1  0
 13 22  1  0
M  RAD  2   3   2  11   2
M  END
>  <reaction>  (14) 
rmg_rxn_23

>  <mol_properties>  (14) 
{"1": {"label": "*0", "atom_type": "Cs"}, "2": {"label": "*1", "atom_type": "N3s"}, "8": {"label": "*2", "atom_type": "H0"}, "10": {"label": "*3", "atom_type": "Cs"}, "11": {"label": "*4", "atom_type": "Cs"}}

>  <type>  (14) 
unop_10

>  <geom_source>  (14) 
Heuristics

$$$$

     RDKit          3D

 22 20  0  0  0  0  0  0  0  0999 V2000
    0.2029   -1.1602   -3.2977 C   0  0  0  0  0  0  0  0  0  0  0  0
    0.2029   -1.1602   -1.7797 C   0  0  0  0  0  0  0  0  0  0  0  0
    0.2029    0.1674   -1.2400 N   0  0  0  0  0  2  0  0  0  0  0  0
    1.0851   -0.6437   -3.6778 H   0  0  0  0  0  0  0  0  0  0  0  0
    0.2029   -2.1791   -3.6888 H   0  0  0  0  0  0  0  0  0  0  0  0
   -0.6793   -0.6437   -3.6778 H   0  0  0  0  0  0  0  0  0  0  0  0
    1.0751   -1.7139   -1.3958 H   0  0  0  0  0  0  0  0  0  0  0  0
   -0.6694   -1.7139   -1.3958 H   0  0  0  0  0  0  0  0  0  0  0  0
    0.2029    0.0639   -0.0168 H   0  0  0  0  0  0  0  0  0  0  0  0
    0.0726   -1.3066    2.1379 C   0  0  0  0  0  0  0  0  0  0  0  0
    0.2029   -0.0469    1.2923 C   0  0  0  0  0  3  0  0  0  0  0  0
   -0.5173    1.1539    1.8946 C   0  0  0  0  0  0  0  0  0  0  0  0
   -0.3871    2.4136    1.0490 C   0  0  0  0  0  0  0  0  0  0  0  0
   -0.9755   -1.5906    2.2581 H   0  0  0  0  0  0  0  0  0  0  0  0
    0.4892   -1.1526    3.1362 H   0  0  0  0  0  0  0  0  0  0  0  0
    0.5967   -2.1493    1.6842 H   0  0  0  0  0  0  0  0  0  0  0  0
    1.2615    0.1992    1.1606 H   0  0  0  0  0  0  0  0  0  0  0  0
   -0.1220    1.3426    2.8979 H   0  0  0  0  0  0  0  0  0  0  0  0
   -1.5759    0.9078    2.0263 H   0  0  0  0  0  0  0  0  0  0  0  0
   -0.8036    2.2596    0.0507 H   0  0  0  0  0  0  0  0  0  0  0  0
   -0.9111    3.2563    1.5027 H   0  0  0  0  0  0  0  0  0  0  0  0
    0.6611    2.6976    0.9288 H   0  0  0  0  0  0  0  0  0  0  0  0
  1  2  1  0
  1  4  1  0
  1  5  1  0
  1  6  1  0
  2  3  1  0
  2  7  1  0
  2  8  1  0
  3  9  1  0
 10 11  1  0
 10 14  1  0
 10 15  1  0
 10 16  1  0
 11 12  1  0
 11 17  1  0
 12 13  1  0
 12 18  1  0
 12 19  1  0
 13 20  1  0
 13 21  1  0
 13 22  1  0
M  RAD  2   3   2  11   2
M  END
>  <reaction>  (15) 
rmg_rxn_23

>  <mol_properties>  (15) 
{"1": {"label": "*0", "atom_type": "Cs"}, "2": {"label": "*1", "atom_type": "N3s"}, "8": {"label": "*2", "atom_type": "H0"}, "10": {"label": "*3", "atom_type": "Cs"}, "11": {"label": "*4", "atom_type": "Cs"}}

>  <type>  (15) 
unop_11

>  <geom_source>  (15) 
Heuristics

$$$$

     RDKit          3D

 22 20  0  0  0  0  0  0  0  0999 V2000
   -0.0000   -0.3883   -3.2335 C   0  0  0  0  0  0  0  0  0  0  0  0
   -0.0000   -0.3883   -1.7155 C   0  0  0  0  0  0  0  0  0  0  0  0
   -0.0000    0.9393   -1.1757 N   0  0  0  0  0  2  0  0  0  0  0  0
    0.8822    0.1282   -3.6136 H   0  0  0  0  0  0  0  0  0  0  0  0
   -0.0000   -1.4071   -3.6246 H   0  0  0  0  0  0  0  0  0  0  0  0
   -0.8822    0.1282   -3.6136 H   0  0  0  0  0  0  0  0  0  0  0  0
    0.8722   -0.9420   -1.3316 H   0  0  0  0  0  0  0  0  0  0  0  0
   -0.8722   -0.9420   -1.3316 H   0  0  0  0  0  0  0  0  0  0  0  0
   -0.0000    0.8358    0.0475 H   0  0  0  0  0  0  0  0  0  0  0  0
    1.1849    1.4874    1.9338 C   0  0  0  0  0  0  0  0  0  0  0  0
    0.0000    0.7250    1.3566 C   0  0  0  0  0  3  0  0  0  0  0  0
    0.0000   -0.7523    1.7321 C   0  0  0  0  0  0  0  0  0  0  0  0
   -1.1849   -1.5148    1.1549 C   0  0  0  0  0  0  0  0  0  0  0  0
    2.1299    1.0684    1.5799 H   0  0  0  0  0  0  0  0  0  0  0  0
    1.1894    1.4358    3.0252 H   0  0  0  0  0  0  0  0  0  0  0  0
    1.1600    2.5407    1.6498 H   0  0  0  0  0  0  0  0  0  0  0  0
   -0.9336    1.1820    1.7003 H   0  0  0  0  0  0  0  0  0  0  0  0
    0.0000   -0.8447    2.8230 H   0  0  0  0  0  0  0  0  0  0  0  0
    0.9336   -1.2094    1.3884 H   0  0  0  0  0  0  0  0  0  0  0  0
   -1.1894   -1.4632    0.0635 H   0  0  0  0  0  0  0  0  0  0  0  0
   -1.1600   -2.5681    1.4389 H   0  0  0  0  0  0  0  0  0  0  0  0
   -2.1299   -1.0958    1.5088 H   0  0  0  0  0  0  0  0  0  0  0  0
  1  2  1  0
  1  4  1  0
  1  5  1  0
  1  6  1  0
  2  3  1  0
  2  7  1  0
  2  8  1  0
  3  9  1  0
 10 11  1  0
 10 14  1  0
 10 15  1  0
 10 16  1  0
 11 12  1  0
 11 17  1  0
 12 13  1  0
 12 18  1  0
 12 19  1  0
 13 20  1  0
 13 21  1  0
 13 22  1  0
M  RAD  2   3   2  11   2
M  END
>  <reaction>  (16) 
rmg_rxn_23

>  <mol_properties>  (16) 
{"1": {"label": "*0", "atom_type": "Cs"}, "2": {"label": "*1", "atom_type": "N3s"}, "8": {"label": "*2", "atom_type": "H0"}, "10": {"label": "*3", "atom_type": "Cs"}, "11": {"label": "*4", "atom_type": "Cs"}}

>  <type>  (16) 
unop_12

>  <geom_source>  (16) 
Heuristics

$$$$

     RDKit          3D

 22 20  0  0  0  0  0  0  0  0999 V2000
   -0.2097   -0.4450   -3.2378 C   0  0  0  0  0  0  0  0  0  0  0  0
   -0.2097   -0.4450   -1.7198 C   0  0  0  0  0  0  0  0  0  0  0  0
   -0.2097    0.8826   -1.1801 N   0  0  0  0  0  2  0  0  0  0  0  0
    0.6725    0.0715   -3.6179 H   0  0  0  0  0  0  0  0  0  0  0  0
   -0.2097   -1.4639   -3.6289 H   0  0  0  0  0  0  0  0  0  0  0  0
   -1.0919    0.0715   -3.6179 H   0  0  0  0  0  0  0  0  0  0  0  0
    0.6625   -0.9987   -1.3359 H   0  0  0  0  0  0  0  0  0  0  0  0
   -1.0819   -0.9987   -1.3359 H   0  0  0  0  0  0  0  0  0  0  0  0
   -0.2097    0.7791    0.0432 H   0  0  0  0  0  0  0  0  0  0  0  0
    0.6293    1.9174    1.5853 C   0  0  0  0  0  0  0  0  0  0  0  0
   -0.2097    0.6683    1.3522 C   0  0  0  0  0  3  0  0  0  0  0  0
    0.5105   -0.6168    1.7441 C   0  0  0  0  0  0  0  0  0  0  0  0
   -0.3285   -1.8659    1.5111 C   0  0  0  0  0  0  0  0  0  0  0  0
    1.5548    1.8810    1.0056 H   0  0  0  0  0  0  0  0  0  0  0  0
    0.9034    2.0139    2.6385 H   0  0  0  0  0  0  0  0  0  0  0  0
    0.0904    2.8213    1.2967 H   0  0  0  0  0  0  0  0  0  0  0  0
   -1.1438    0.7423    1.9184 H   0  0  0  0  0  0  0  0  0  0  0  0
    0.7981   -0.5590    2.7989 H   0  0  0  0  0  0  0  0  0  0  0  0
    1.4446   -0.6909    1.1780 H   0  0  0  0  0  0  0  0  0  0  0  0
   -0.6026   -1.9624    0.4578 H   0  0  0  0  0  0  0  0  0  0  0  0
    0.2104   -2.7698    1.7996 H   0  0  0  0  0  0  0  0  0  0  0  0
   -1.2540   -1.8295    2.0907 H   0  0  0  0  0  0  0  0  0  0  0  0
  1  2  1  0
  1  4  1  0
  1  5  1  0
  1  6  1  0
  2  3  1  0
  2  7  1  0
  2  8  1  0
  3  9  1  0
 10 11  1  0
 10 14  1  0
 10 15  1  0
 10 16  1  0
 11 12  1  0
 11 17  1  0
 12 13  1  0
 12 18  1  0
 12 19  1  0
 13 20  1  0
 13 21  1  0
 13 22  1  0
M  RAD  2   3   2  11   2
M  END
>  <reaction>  (17) 
rmg_rxn_23

>  <mol_properties>  (17) 
{"1": {"label": "*0", "atom_type": "Cs"}, "2": {"label": "*1", "atom_type": "N3s"}, "8": {"label": "*2", "atom_type": "H0"}, "10": {"label": "*3", "atom_type": "Cs"}, "11": {"label": "*4", "atom_type": "Cs"}}

>  <type>  (17) 
unop_13

>  <geom_source>  (17) 
gaussian_log

$$$$
