
     RDKit          3D

 14 14  0  0  0  0  0  0  0  0999 V2000
   -1.1778    0.2241    0.1818 C   0  0  0  0  0  0  0  0  0  0  0  0
   -0.5633   -1.1636    0.0678 C   0  0  0  0  0  0  0  0  0  0  0  0
    0.6943   -1.1996    0.7146 O   0  0  0  0  0  0  0  0  0  0  0  0
    1.5547   -0.2288    0.2011 C   0  0  0  0  0  0  0  0  0  0  0  0
    1.0729    1.0696    0.3698 O   0  0  0  0  0  0  0  0  0  0  0  0
   -0.1607    1.2493   -0.2989 C   0  0  0  0  0  0  0  0  0  0  0  0
   -2.0927    0.2866   -0.4117 H   0  0  0  0  0  0  0  0  0  0  0  0
   -1.4303    0.4248    1.2248 H   0  0  0  0  0  0  0  0  0  0  0  0
   -1.1822   -1.9235    0.5431 H   0  0  0  0  0  0  0  0  0  0  0  0
   -0.4389   -1.4347   -0.9919 H   0  0  0  0  0  0  0  0  0  0  0  0
    1.7250   -0.4207   -0.8742 H   0  0  0  0  0  0  0  0  0  0  0  0
    2.4896   -0.3010    0.7524 H   0  0  0  0  0  0  0  0  0  0  0  0
   -0.0080    1.1481   -1.3844 H   0  0  0  0  0  0  0  0  0  0  0  0
   -0.4826    2.2695   -0.0942 H   0  0  0  0  0  0  0  0  0  0  0  0
  1  2  1  0
  1  6  1  0
  1  7  1  0
  1  8  1  0
  2  3  1  0
  2  9  1  0
  2 10  1  0
  3  4  1  0
  4  5  1  0
  4 11  1  0
  4 12  1  0
  5  6  1  0
  6 13  1  0
  6 14  1  0
M  END
>  <reaction>  (1) 
rmg_rxn_256

>  <mol_properties>  (1) 
{"1": {"label": "donator", "atom_type": "Cs"}, "8": {"label": "d_hydrogen", "atom_type": "H0"}}

>  <type>  (1) 
r1h

$$$$

     RDKit          3D

 13 12  0  0  0  0  0  0  0  0999 V2000
    1.9060    0.2628    0.3980 C   0  0  0  0  0  0  0  0  0  0  0  0
    0.6330   -0.4250    0.0685 C   0  0  0  0  0  3  0  0  0  0  0  0
   -0.2610   -0.9325    1.1416 C   0  0  0  0  0  0  0  0  0  0  0  0
   -1.4364   -1.7546    0.6268 C   0  0  0  0  0  0  0  0  0  0  0  0
    2.4899   -0.3070    1.1292 H   0  0  0  0  0  0  0  0  0  0  0  0
    1.7297    1.2496    0.8515 H   0  0  0  0  0  0  0  0  0  0  0  0
    2.5269    0.4197   -0.4845 H   0  0  0  0  0  0  0  0  0  0  0  0
    0.2597   -0.3936   -0.9489 H   0  0  0  0  0  0  0  0  0  0  0  0
   -0.6439   -0.0868    1.7356 H   0  0  0  0  0  0  0  0  0  0  0  0
    0.3260   -1.5277    1.8536 H   0  0  0  0  0  0  0  0  0  0  0  0
   -1.0872   -2.6320    0.0792 H   0  0  0  0  0  0  0  0  0  0  0  0
   -2.0701   -2.0976    1.4459 H   0  0  0  0  0  0  0  0  0  0  0  0
   -2.0561   -1.1637   -0.0512 H   0  0  0  0  0  0  0  0  0  0  0  0
  1  2  1  0
  1  5  1  0
  1  6  1  0
  1  7  1  0
  2  3  1  0
  2  8  1  0
  3  4  1  0
  3  9  1  0
  3 10  1  0
  4 11  1  0
  4 12  1  0
  4 13  1  0
M  RAD  1   2   2
M  END
>  <reaction>  (2) 
rmg_rxn_256

>  <mol_properties>  (2) 
{"1": {"label": "acceptor", "atom_type": "Cs"}}

>  <type>  (2) 
r2

$$$$

     RDKit          3D

 14 13  0  0  0  0  0  0  0  0999 V2000
    1.8106   -0.5953    0.5577 C   0  0  0  0  0  0  0  0  0  0  0  0
    0.5197    0.2064    0.6554 C   0  0  0  0  0  0  0  0  0  0  0  0
   -0.5206   -0.2080   -0.3788 C   0  0  0  0  0  0  0  0  0  0  0  0
   -1.8114    0.5937   -0.2812 C   0  0  0  0  0  0  0  0  0  0  0  0
    2.2725   -0.4752   -0.4251 H   0  0  0  0  0  0  0  0  0  0  0  0
    1.6214   -1.6612    0.7052 H   0  0  0  0  0  0  0  0  0  0  0  0
    2.5364   -0.2784    1.3084 H   0  0  0  0  0  0  0  0  0  0  0  0
    0.0930    0.0950    1.6574 H   0  0  0  0  0  0  0  0  0  0  0  0
    0.7393    1.2723    0.5354 H   0  0  0  0  0  0  0  0  0  0  0  0
   -0.7402   -1.2739   -0.2588 H   0  0  0  0  0  0  0  0  0  0  0  0
   -0.0938   -0.0965   -1.3808 H   0  0  0  0  0  0  0  0  0  0  0  0
   -1.6222    1.6596   -0.4287 H   0  0  0  0  0  0  0  0  0  0  0  0
   -2.2734    0.4736    0.7017 H   0  0  0  0  0  0  0  0  0  0  0  0
   -2.5373    0.2768   -1.0318 H   0  0  0  0  0  0  0  0  0  0  0  0
  1  2  1  0
  1  5  1  0
  1  6  1  0
  1  7  1  0
  2  3  1  0
  2  8  1  0
  2  9  1  0
  3  4  1  0
  3 10  1  0
  3 11  1  0
  4 12  1  0
  4 13  1  0
  4 14  1  0
M  END
>  <reaction>  (3) 
rmg_rxn_256

>  <mol_properties>  (3) 
{"0": {"label": "a_hydrogen", "atom_type": "H0"}, "2": {"label": "acceptor", "atom_type": "Cs"}}

>  <type>  (3) 
r2h

$$$$

     RDKit          3D

 27 26  0  0  0  0  0  0  0  0999 V2000
    1.4308    0.8135   -0.6451 C   0  0  0  0  0  0  0  0  0  0  0  0
    0.3152    0.5646    0.3368 C   0  0  0  0  0  3  0  0  0  0  0  0
   -0.9407    0.5607   -0.2753 O   0  0  0  0  0  0  0  0  0  0  0  0
   -1.1625    1.7254   -1.0262 C   0  0  0  0  0  0  0  0  0  0  0  0
   -0.2144    1.9056   -2.0286 O   0  0  0  0  0  0  0  0  0  0  0  0
    1.0872    2.0387   -1.4889 C   0  0  0  0  0  0  0  0  0  0  0  0
    2.3759    0.9622   -0.1193 H   0  0  0  0  0  0  0  0  0  0  0  0
    1.5389   -0.0522   -1.3037 H   0  0  0  0  0  0  0  0  0  0  0  0
    0.4419   -0.7047    0.8178 H   0  0  0  0  0  0  0  0  0  0  0  0
    0.3346    1.2102    1.2235 H   0  0  0  0  0  0  0  0  0  0  0  0
   -1.1606    2.5978   -0.3495 H   0  0  0  0  0  0  0  0  0  0  0  0
   -2.1315    1.6162   -1.5083 H   0  0  0  0  0  0  0  0  0  0  0  0
    1.1394    2.9493   -0.8742 H   0  0  0  0  0  0  0  0  0  0  0  0
    1.7654    2.1539   -2.3337 H   0  0  0  0  0  0  0  0  0  0  0  0
    0.1137   -1.8367    2.7313 C   0  0  0  0  0  0  0  0  0  0  0  0
    0.4499   -1.9515    1.2670 C   0  0  0  0  0  0  0  0  0  0  0  0
   -0.5408   -2.7085    0.4179 C   0  0  0  0  0  0  0  0  0  0  0  0
   -0.1704   -2.7483   -1.0591 C   0  0  0  0  0  0  0  0  0  0  0  0
    0.0912   -2.8203    3.2128 H   0  0  0  0  0  0  0  0  0  0  0  0
   -0.8714   -1.3837    2.8689 H   0  0  0  0  0  0  0  0  0  0  0  0
    0.8437   -1.2254    3.2653 H   0  0  0  0  0  0  0  0  0  0  0  0
    1.4825   -2.2605    1.0861 H   0  0  0  0  0  0  0  0  0  0  0  0
   -1.5294   -2.2540    0.5344 H   0  0  0  0  0  0  0  0  0  0  0  0
   -0.6290   -3.7333    0.8030 H   0  0  0  0  0  0  0  0  0  0  0  0
    0.8281   -3.1692   -1.2019 H   0  0  0  0  0  0  0  0  0  0  0  0
   -0.8740   -3.3595   -1.6264 H   0  0  0  0  0  0  0  0  0  0  0  0
   -0.1832   -1.7443   -1.4861 H   0  0  0  0  0  0  0  0  0  0  0  0
  1  2  1  0
  1  6  1  0
  1  7  1  0
  1  8  1  0
  2  3  1  0
  2 10  1  0
  3  4  1  0
  4  5  1  0
  4 11  1  0
  4 12  1  0
  5  6  1  0
  6 13  1  0
  6 14  1  0
  9 16  1  0
 15 16  1  0
 15 19  1  0
 15 20  1  0
 15 21  1  0
 16 17  1  0
 16 22  1  0
 17 18  1  0
 17 23  1  0
 17 24  1  0
 18 25  1  0
 18 26  1  0
 18 27  1  0
M  RAD  1   2   2
M  END
>  <reaction>  (4) 
rmg_rxn_256

>  <mol_properties>  (4) 
{"1": {"label": "*3", "atom_type": "Cs"}, "2": {"label": "*4", "atom_type": "O2s"}, "8": {"label": "*2", "atom_type": "H0"}, "15": {"label": "*1", "atom_type": "Cs"}, "16": {"label": "*0", "atom_type": "Cs"}}

>  <type>  (4) 
ts

$$$$

     RDKit          3D

 27 26  0  0  0  0  0  0  0  0999 V2000
    0.2244    0.3555   -1.6429 C   0  0  0  0  0  0  0  0  0  0  0  0
    0.2244    0.3555   -0.1209 C   0  0  0  0  0  0  0  0  0  0  0  0
   -0.8239    1.1681    0.3712 O   0  0  0  0  0  0  0  0  0  0  0  0
   -0.7330    2.4677   -0.1281 C   0  0  0  0  0  0  0  0  0  0  0  0
   -0.8239    2.5239   -1.5192 O   0  0  0  0  0  0  0  0  0  0  0  0
    0.2244    1.7971   -2.1311 C   0  0  0  0  0  0  0  0  0  0  0  0
    1.0984   -0.1770   -2.0248 H   0  0  0  0  0  0  0  0  0  0  0  0
   -0.6722   -0.1507   -2.0060 H   0  0  0  0  0  0  0  0  0  0  0  0
    0.0336   -0.8415    0.3679 H   0  0  0  0  0  0  0  0  0  0  0  0
    1.1880    0.7315    0.2558 H   0  0  0  0  0  0  0  0  0  0  0  0
    0.2223    2.9197    0.1961 H   0  0  0  0  0  0  0  0  0  0  0  0
   -1.5741    3.0282    0.2739 H   0  0  0  0  0  0  0  0  0  0  0  0
    1.1880    2.2745   -1.8958 H   0  0  0  0  0  0  0  0  0  0  0  0
    0.0654    1.8631   -3.2065 H   0  0  0  0  0  0  0  0  0  0  0  0
   -0.9929   -3.2423    0.4259 C   0  0  0  0  0  0  0  0  0  0  0  0
   -0.1581   -2.0448    0.8592 C   0  0  0  0  0  3  0  0  0  0  0  0
    1.0434   -2.4319    1.7137 C   0  0  0  0  0  0  0  0  0  0  0  0
    1.8782   -1.2344    2.1470 C   0  0  0  0  0  0  0  0  0  0  0  0
   -1.3792   -3.7842    1.2925 H   0  0  0  0  0  0  0  0  0  0  0  0
   -0.3959   -3.9433   -0.1622 H   0  0  0  0  0  0  0  0  0  0  0  0
   -1.8450   -2.9368   -0.1835 H   0  0  0  0  0  0  0  0  0  0  0  0
   -0.7850   -1.3434    1.4193 H   0  0  0  0  0  0  0  0  0  0  0  0
    1.6702   -3.1333    1.1536 H   0  0  0  0  0  0  0  0  0  0  0  0
    0.6941   -2.9754    2.5976 H   0  0  0  0  0  0  0  0  0  0  0  0
    1.2811   -0.5334    2.7352 H   0  0  0  0  0  0  0  0  0  0  0  0
    2.7303   -1.5399    2.7564 H   0  0  0  0  0  0  0  0  0  0  0  0
    2.2645   -0.6925    1.2805 H   0  0  0  0  0  0  0  0  0  0  0  0
  1  2  1  0
  1  6  1  0
  1  7  1  0
  1  8  1  0
  2  3  1  0
  2  9  1  0
  2 10  1  0
  3  4  1  0
  4  5  1  0
  4 11  1  0
  4 12  1  0
  5  6  1  0
  6 13  1  0
  6 14  1  0
 15 16  1  0
 15 19  1  0
 15 20  1  0
 15 21  1  0
 16 17  1  0
 16 22  1  0
 17 18  1  0
 17 23  1  0
 17 24  1  0
 18 25  1  0
 18 26  1  0
 18 27  1  0
M  RAD  1  16   2
M  END
>  <reaction>  (5) 
rmg_rxn_256

>  <mol_properties>  (5) 
{"1": {"label": "*3", "atom_type": "Cs"}, "2": {"label": "*4", "atom_type": "O2s"}, "8": {"label": "*2", "atom_type": "H0"}, "15": {"label": "*1", "atom_type": "Cs"}, "16": {"label": "*0", "atom_type": "Cs"}}

>  <type>  (5) 
unop_1

>  <geom_source>  (5) 
Heuristics

$$$$

     RDKit          3D

 27 26  0  0  0  0  0  0  0  0999 V2000
    0.3483    0.4871   -1.2753 C   0  0  0  0  0  0  0  0  0  0  0  0
    0.3483    0.4871    0.2467 C   0  0  0  0  0  0  0  0  0  0  0  0
   -0.7000    1.2997    0.7388 O   0  0  0  0  0  0  0  0  0  0  0  0
   -0.6091    2.5993    0.2395 C   0  0  0  0  0  0  0  0  0  0  0  0
   -0.7000    2.6555   -1.1516 O   0  0  0  0  0  0  0  0  0  0  0  0
    0.3483    1.9288   -1.7634 C   0  0  0  0  0  0  0  0  0  0  0  0
    1.2223   -0.0453   -1.6572 H   0  0  0  0  0  0  0  0  0  0  0  0
   -0.5483   -0.0190   -1.6383 H   0  0  0  0  0  0  0  0  0  0  0  0
    0.1576   -0.7099    0.7355 H   0  0  0  0  0  0  0  0  0  0  0  0
    1.3119    0.8631    0.6234 H   0  0  0  0  0  0  0  0  0  0  0  0
    0.3463    3.0514    0.5637 H   0  0  0  0  0  0  0  0  0  0  0  0
   -1.4501    3.1598    0.6415 H   0  0  0  0  0  0  0  0  0  0  0  0
    1.3119    2.4062   -1.5281 H   0  0  0  0  0  0  0  0  0  0  0  0
    0.1894    1.9947   -2.8389 H   0  0  0  0  0  0  0  0  0  0  0  0
   -1.3507   -2.3461    1.8577 C   0  0  0  0  0  0  0  0  0  0  0  0
   -0.0341   -1.9131    1.2269 C   0  0  0  0  0  3  0  0  0  0  0  0
    0.5309   -2.9440    0.2565 C   0  0  0  0  0  0  0  0  0  0  0  0
    1.8474   -2.5111   -0.3743 C   0  0  0  0  0  0  0  0  0  0  0  0
   -1.2294   -3.2771    2.4165 H   0  0  0  0  0  0  0  0  0  0  0  0
   -2.1131   -2.5167    1.0940 H   0  0  0  0  0  0  0  0  0  0  0  0
   -1.7319   -1.5908    2.5468 H   0  0  0  0  0  0  0  0  0  0  0  0
    0.7032   -1.7187    2.0124 H   0  0  0  0  0  0  0  0  0  0  0  0
   -0.2065   -3.1385   -0.5291 H   0  0  0  0  0  0  0  0  0  0  0  0
    0.6708   -3.8933    0.7837 H   0  0  0  0  0  0  0  0  0  0  0  0
    2.6099   -2.3405    0.3894 H   0  0  0  0  0  0  0  0  0  0  0  0
    2.2287   -3.2664   -1.0634 H   0  0  0  0  0  0  0  0  0  0  0  0
    1.7261   -1.5800   -0.9331 H   0  0  0  0  0  0  0  0  0  0  0  0
  1  2  1  0
  1  6  1  0
  1  7  1  0
  1  8  1  0
  2  3  1  0
  2  9  1  0
  2 10  1  0
  3  4  1  0
  4  5  1  0
  4 11  1  0
  4 12  1  0
  5  6  1  0
  6 13  1  0
  6 14  1  0
 15 16  1  0
 15 19  1  0
 15 20  1  0
 15 21  1  0
 16 17  1  0
 16 22  1  0
 17 18  1  0
 17 23  1  0
 17 24  1  0
 18 25  1  0
 18 26  1  0
 18 27  1  0
M  RAD  1  16   2
M  END
>  <reaction>  (6) 
rmg_rxn_256

>  <mol_properties>  (6) 
{"1": {"label": "*3", "atom_type": "Cs"}, "2": {"label": "*4", "atom_type": "O2s"}, "8": {"label": "*2", "atom_type": "H0"}, "15": {"label": "*1", "atom_type": "Cs"}, "16": {"label": "*0", "atom_type": "Cs"}}

>  <type>  (6) 
unop_2

>  <geom_source>  (6) 
Heuristics

$$$$

     RDKit          3D

 27 26  0  0  0  0  0  0  0  0999 V2000
    0.3235    0.3013   -1.7390 C   0  0  0  0  0  0  0  0  0  0  0  0
    0.3235    0.3013   -0.2169 C   0  0  0  0  0  0  0  0  0  0  0  0
   -0.7248    1.1139    0.2752 O   0  0  0  0  0  0  0  0  0  0  0  0
   -0.6339    2.4135   -0.2241 C   0  0  0  0  0  0  0  0  0  0  0  0
   -0.7248    2.4696   -1.6152 O   0  0  0  0  0  0  0  0  0  0  0  0
    0.3235    1.7429   -2.2271 C   0  0  0  0  0  0  0  0  0  0  0  0
    1.1975   -0.2312   -2.1208 H   0  0  0  0  0  0  0  0  0  0  0  0
   -0.5731   -0.2049   -2.1020 H   0  0  0  0  0  0  0  0  0  0  0  0
    0.1328   -0.8957    0.2719 H   0  0  0  0  0  0  0  0  0  0  0  0
    1.2871    0.6773    0.1598 H   0  0  0  0  0  0  0  0  0  0  0  0
    0.3215    2.8655    0.1001 H   0  0  0  0  0  0  0  0  0  0  0  0
   -1.4749    2.9740    0.1778 H   0  0  0  0  0  0  0  0  0  0  0  0
    1.2871    2.2203   -1.9918 H   0  0  0  0  0  0  0  0  0  0  0  0
    0.1646    1.8089   -3.3025 H   0  0  0  0  0  0  0  0  0  0  0  0
   -0.1385   -3.4257    0.0202 C   0  0  0  0  0  0  0  0  0  0  0  0
   -0.0589   -2.0990    0.7632 C   0  0  0  0  0  3  0  0  0  0  0  0
    0.6529   -2.2085    2.1067 C   0  0  0  0  0  0  0  0  0  0  0  0
    0.7324   -0.8817    2.8497 C   0  0  0  0  0  0  0  0  0  0  0  0
   -0.6791   -4.1715    0.6077 H   0  0  0  0  0  0  0  0  0  0  0  0
    0.8596   -3.8230   -0.1792 H   0  0  0  0  0  0  0  0  0  0  0  0
   -0.6520   -3.3185   -0.9366 H   0  0  0  0  0  0  0  0  0  0  0  0
   -1.0684   -1.7067    0.9236 H   0  0  0  0  0  0  0  0  0  0  0  0
    1.6623   -2.6007    1.9463 H   0  0  0  0  0  0  0  0  0  0  0  0
    0.1349   -2.9467    2.7274 H   0  0  0  0  0  0  0  0  0  0  0  0
   -0.2657   -0.4844    3.0491 H   0  0  0  0  0  0  0  0  0  0  0  0
    1.2460   -0.9889    3.8065 H   0  0  0  0  0  0  0  0  0  0  0  0
    1.2730   -0.1359    2.2622 H   0  0  0  0  0  0  0  0  0  0  0  0
  1  2  1  0
  1  6  1  0
  1  7  1  0
  1  8  1  0
  2  3  1  0
  2  9  1  0
  2 10  1  0
  3  4  1  0
  4  5  1  0
  4 11  1  0
  4 12  1  0
  5  6  1  0
  6 13  1  0
  6 14  1  0
 15 16  1  0
 15 19  1  0
 15 20  1  0
 15 21  1  0
 16 17  1  0
 16 22  1  0
 17 18  1  0
 17 23  1  0
 17 24  1  0
 18 25  1  0
 18 26  1  0
 18 27  1  0
M  RAD  1  16   2
M  END
>  <reaction>  (7) 
rmg_rxn_256

>  <mol_properties>  (7) 
{"1": {"label": "*3", "atom_type": "Cs"}, "2": {"label": "*4", "atom_type": "O2s"}, "8": {"label": "*2", "atom_type": "H0"}, "15": {"label": "*1", "atom_type": "Cs"}, "16": {"label": "*0", "atom_type": "Cs"}}

>  <type>  (7) 
unop_3

>  <geom_source>  (7) 
Heuristics

$$$$

     RDKit          3D

 27 26  0  0  0  0  0  0  0  0999 V2000
    0.7348    0.3842   -1.3748 C   0  0  0  0  0  0  0  0  0  0  0  0
    0.7348    0.3842    0.1472 C   0  0  0  0  0  0  0  0  0  0  0  0
   -0.3135    1.1968    0.6393 O   0  0  0  0  0  0  0  0  0  0  0  0
   -0.2225    2.4963    0.1400 C   0  0  0  0  0  0  0  0  0  0  0  0
   -0.3135    2.5525   -1.2511 O   0  0  0  0  0  0  0  0  0  0  0  0
    0.7348    1.8258   -1.8629 C   0  0  0  0  0  0  0  0  0  0  0  0
    1.6088   -0.1483   -1.7567 H   0  0  0  0  0  0  0  0  0  0  0  0
   -0.1617   -0.1220   -1.7379 H   0  0  0  0  0  0  0  0  0  0  0  0
    0.5441   -0.8128    0.6360 H   0  0  0  0  0  0  0  0  0  0  0  0
    1.6985    0.7601    0.5239 H   0  0  0  0  0  0  0  0  0  0  0  0
    0.7328    2.9484    0.4642 H   0  0  0  0  0  0  0  0  0  0  0  0
   -1.0636    3.0569    0.5420 H   0  0  0  0  0  0  0  0  0  0  0  0
    1.6985    2.3032   -1.6276 H   0  0  0  0  0  0  0  0  0  0  0  0
    0.5759    1.8917   -2.9384 H   0  0  0  0  0  0  0  0  0  0  0  0
    0.2616   -1.2639    2.4482 C   0  0  0  0  0  0  0  0  0  0  0  0
    0.3524   -2.0161    1.1273 C   0  0  0  0  0  3  0  0  0  0  0  0
   -0.9947   -2.5427    0.6460 C   0  0  0  0  0  0  0  0  0  0  0  0
   -0.9039   -3.2948   -0.6749 C   0  0  0  0  0  0  0  0  0  0  0  0
   -0.1302   -1.9079    3.2391 H   0  0  0  0  0  0  0  0  0  0  0  0
   -0.4055   -0.4028    2.3632 H   0  0  0  0  0  0  0  0  0  0  0  0
    1.2386   -0.8986    2.7688 H   0  0  0  0  0  0  0  0  0  0  0  0
    1.0491   -2.8544    1.2292 H   0  0  0  0  0  0  0  0  0  0  0  0
   -1.6914   -1.7043    0.5442 H   0  0  0  0  0  0  0  0  0  0  0  0
   -1.4181   -3.1983    1.4137 H   0  0  0  0  0  0  0  0  0  0  0  0
   -0.2368   -4.1559   -0.5898 H   0  0  0  0  0  0  0  0  0  0  0  0
   -1.8809   -3.6602   -0.9955 H   0  0  0  0  0  0  0  0  0  0  0  0
   -0.5121   -2.6509   -1.4658 H   0  0  0  0  0  0  0  0  0  0  0  0
  1  2  1  0
  1  6  1  0
  1  7  1  0
  1  8  1  0
  2  3  1  0
  2  9  1  0
  2 10  1  0
  3  4  1  0
  4  5  1  0
  4 11  1  0
  4 12  1  0
  5  6  1  0
  6 13  1  0
  6 14  1  0
 15 16  1  0
 15 19  1  0
 15 20  1  0
 15 21  1  0
 16 17  1  0
 16 22  1  0
 17 18  1  0
 17 23  1  0
 17 24  1  0
 18 25  1  0
 18 26  1  0
 18 27  1  0
M  RAD  1  16   2
M  END
>  <reaction>  (8) 
rmg_rxn_256

>  <mol_properties>  (8) 
{"1": {"label": "*3", "atom_type": "Cs"}, "2": {"label": "*4", "atom_type": "O2s"}, "8": {"label": "*2", "atom_type": "H0"}, "15": {"label": "*1", "atom_type": "Cs"}, "16": {"label": "*0", "atom_type": "Cs"}}

>  <type>  (8) 
unop_4

>  <geom_source>  (8) 
Heuristics

$$$$

     RDKit          3D

 27 26  0  0  0  0  0  0  0  0999 V2000
    0.4611    0.2662   -1.7733 C   0  0  0  0  0  0  0  0  0  0  0  0
    0.4611    0.2662   -0.2513 C   0  0  0  0  0  0  0  0  0  0  0  0
   -0.5872    1.0788    0.2408 O   0  0  0  0  0  0  0  0  0  0  0  0
   -0.4963    2.3784   -0.2585 C   0  0  0  0  0  0  0  0  0  0  0  0
   -0.5872    2.4345   -1.6495 O   0  0  0  0  0  0  0  0  0  0  0  0
    0.4611    1.7078   -2.2614 C   0  0  0  0  0  0  0  0  0  0  0  0
    1.3351   -0.2663   -2.1552 H   0  0  0  0  0  0  0  0  0  0  0  0
   -0.4355   -0.2400   -2.1363 H   0  0  0  0  0  0  0  0  0  0  0  0
    0.2703   -0.9308    0.2375 H   0  0  0  0  0  0  0  0  0  0  0  0
    1.4247    0.6422    0.1255 H   0  0  0  0  0  0  0  0  0  0  0  0
    0.4590    2.8304    0.0657 H   0  0  0  0  0  0  0  0  0  0  0  0
   -1.3374    2.9389    0.1435 H   0  0  0  0  0  0  0  0  0  0  0  0
    1.4247    2.1852   -2.0261 H   0  0  0  0  0  0  0  0  0  0  0  0
    0.3021    1.7738   -3.3369 H   0  0  0  0  0  0  0  0  0  0  0  0
    1.1266   -3.0870    0.1702 C   0  0  0  0  0  0  0  0  0  0  0  0
    0.0786   -2.1341    0.7289 C   0  0  0  0  0  3  0  0  0  0  0  0
    0.0906   -2.0590    2.2513 C   0  0  0  0  0  0  0  0  0  0  0  0
   -0.9575   -1.1060    2.8100 C   0  0  0  0  0  0  0  0  0  0  0  0
    0.9693   -4.1027    0.5408 H   0  0  0  0  0  0  0  0  0  0  0  0
    2.1325   -2.7799    0.4664 H   0  0  0  0  0  0  0  0  0  0  0  0
    1.0959   -3.1213   -0.9201 H   0  0  0  0  0  0  0  0  0  0  0  0
   -0.9162   -2.4445    0.3933 H   0  0  0  0  0  0  0  0  0  0  0  0
    1.0854   -1.7485    2.5869 H   0  0  0  0  0  0  0  0  0  0  0  0
   -0.0692   -3.0617    2.6607 H   0  0  0  0  0  0  0  0  0  0  0  0
   -1.9633   -1.4132    2.5137 H   0  0  0  0  0  0  0  0  0  0  0  0
   -0.9267   -1.0717    3.9002 H   0  0  0  0  0  0  0  0  0  0  0  0
   -0.8002   -0.0903    2.4393 H   0  0  0  0  0  0  0  0  0  0  0  0
  1  2  1  0
  1  6  1  0
  1  7  1  0
  1  8  1  0
  2  3  1  0
  2  9  1  0
  2 10  1  0
  3  4  1  0
  4  5  1  0
  4 11  1  0
  4 12  1  0
  5  6  1  0
  6 13  1  0
  6 14  1  0
 15 16  1  0
 15 19  1  0
 15 20  1  0
 15 21  1  0
 16 17  1  0
 16 22  1  0
 17 18  1  0
 17 23  1  0
 17 24  1  0
 18 25  1  0
 18 26  1  0
 18 27  1  0
M  RAD  1  16   2
M  END
>  <reaction>  (9) 
rmg_rxn_256

>  <mol_properties>  (9) 
{"1": {"label": "*3", "atom_type": "Cs"}, "2": {"label": "*4", "atom_type": "O2s"}, "8": {"label": "*2", "atom_type": "H0"}, "15": {"label": "*1", "atom_type": "Cs"}, "16": {"label": "*0", "atom_type": "Cs"}}

>  <type>  (9) 
unop_5

>  <geom_source>  (9) 
Heuristics

$$$$

     RDKit          3D

 27 26  0  0  0  0  0  0  0  0999 V2000
    0.7627    0.3242   -1.5096 C   0  0  0  0  0  0  0  0  0  0  0  0
    0.7627    0.3242    0.0124 C   0  0  0  0  0  0  0  0  0  0  0  0
   -0.2856    1.1368    0.5045 O   0  0  0  0  0  0  0  0  0  0  0  0
   -0.1947    2.4363    0.0052 C   0  0  0  0  0  0  0  0  0  0  0  0
   -0.2856    2.4925   -1.3859 O   0  0  0  0  0  0  0  0  0  0  0  0
    0.7627    1.7658   -1.9977 C   0  0  0  0  0  0  0  0  0  0  0  0
    1.6367   -0.2083   -1.8915 H   0  0  0  0  0  0  0  0  0  0  0  0
   -0.1339   -0.1820   -1.8726 H   0  0  0  0  0  0  0  0  0  0  0  0
    0.5720   -0.8729    0.5012 H   0  0  0  0  0  0  0  0  0  0  0  0
    1.7263    0.7001    0.3891 H   0  0  0  0  0  0  0  0  0  0  0  0
    0.7606    2.8884    0.3294 H   0  0  0  0  0  0  0  0  0  0  0  0
   -1.0357    2.9968    0.4072 H   0  0  0  0  0  0  0  0  0  0  0  0
    1.7263    2.2432   -1.7624 H   0  0  0  0  0  0  0  0  0  0  0  0
    0.6037    1.8317   -3.0732 H   0  0  0  0  0  0  0  0  0  0  0  0
    1.0176   -1.3241    2.1531 C   0  0  0  0  0  0  0  0  0  0  0  0
    0.3802   -2.0761    0.9926 C   0  0  0  0  0  3  0  0  0  0  0  0
   -1.1150   -2.3063    1.1791 C   0  0  0  0  0  0  0  0  0  0  0  0
   -1.7524   -3.0584    0.0186 C   0  0  0  0  0  0  0  0  0  0  0  0
    0.8938   -1.8725    3.0900 H   0  0  0  0  0  0  0  0  0  0  0  0
    0.5574   -0.3416    2.2827 H   0  0  0  0  0  0  0  0  0  0  0  0
    2.0865   -1.1733    1.9936 H   0  0  0  0  0  0  0  0  0  0  0  0
    0.8782   -3.0425    0.8634 H   0  0  0  0  0  0  0  0  0  0  0  0
   -1.6129   -1.3399    1.3083 H   0  0  0  0  0  0  0  0  0  0  0  0
   -1.2790   -2.8595    2.1096 H   0  0  0  0  0  0  0  0  0  0  0  0
   -1.2922   -4.0408   -0.1110 H   0  0  0  0  0  0  0  0  0  0  0  0
   -2.8213   -3.2092    0.1780 H   0  0  0  0  0  0  0  0  0  0  0  0
   -1.6286   -2.5099   -0.9183 H   0  0  0  0  0  0  0  0  0  0  0  0
  1  2  1  0
  1  6  1  0
  1  7  1  0
  1  8  1  0
  2  3  1  0
  2  9  1  0
  2 10  1  0
  3  4  1  0
  4  5  1  0
  4 11  1  0
  4 12  1  0
  5  6  1  0
  6 13  1  0
  6 14  1  0
 15 16  1  0
 15 19  1  0
 15 20  1  0
 15 21  1  0
 16 17  1  0
 16 22  1  0
 17 18  1  0
 17 23  1  0
 17 24  1  0
 18 25  1  0
 18 26  1  0
 18 27  1  0
M  RAD  1  16   2
M  END
>  <reaction>  (10) 
rmg_rxn_256

>  <mol_properties>  (10) 
{"1": {"label": "*3", "atom_type": "Cs"}, "2": {"label": "*4", "atom_type": "O2s"}, "8": {"label": "*2", "atom_type": "H0"}, "15": {"label": "*1", "atom_type": "Cs"}, "16": {"label": "*0", "atom_type": "Cs"}}

>  <type>  (10) 
unop_6

>  <geom_source>  (10) 
Heuristics

$$$$

     RDKit          3D

 27 26  0  0  0  0  0  0  0  0999 V2000
    0.7138    0.2775   -1.6429 C   0  0  0  0  0  0  0  0  0  0  0  0
    0.7138    0.2775   -0.1209 C   0  0  0  0  0  0  0  0  0  0  0  0
   -0.3345    1.0901    0.3712 O   0  0  0  0  0  0  0  0  0  0  0  0
   -0.2436    2.3897   -0.1281 C   0  0  0  0  0  0  0  0  0  0  0  0
   -0.3345    2.4459   -1.5192 O   0  0  0  0  0  0  0  0  0  0  0  0
    0.7138    1.7192   -2.1311 C   0  0  0  0  0  0  0  0  0  0  0  0
    1.5878   -0.2549   -2.0248 H   0  0  0  0  0  0  0  0  0  0  0  0
   -0.1828   -0.2286   -2.0060 H   0  0  0  0  0  0  0  0  0  0  0  0
    0.5231   -0.9195    0.3679 H   0  0  0  0  0  0  0  0  0  0  0  0
    1.6774    0.6535    0.2558 H   0  0  0  0  0  0  0  0  0  0  0  0
    0.7118    2.8417    0.1961 H   0  0  0  0  0  0  0  0  0  0  0  0
   -1.0846    2.9502    0.2739 H   0  0  0  0  0  0  0  0  0  0  0  0
    1.6774    2.1966   -1.8958 H   0  0  0  0  0  0  0  0  0  0  0  0
    0.5549    1.7851   -3.2065 H   0  0  0  0  0  0  0  0  0  0  0  0
    1.5625   -1.6343    1.6104 C   0  0  0  0  0  0  0  0  0  0  0  0
    0.3313   -2.1228    0.8592 C   0  0  0  0  0  3  0  0  0  0  0  0
   -0.9309   -2.1173    1.7137 C   0  0  0  0  0  0  0  0  0  0  0  0
   -2.1621   -2.6058    0.9626 C   0  0  0  0  0  0  0  0  0  0  0  0
    1.7643   -2.2623    2.4814 H   0  0  0  0  0  0  0  0  0  0  0  0
    1.4231   -0.6109    1.9668 H   0  0  0  0  0  0  0  0  0  0  0  0
    2.4503   -1.6485    0.9760 H   0  0  0  0  0  0  0  0  0  0  0  0
    0.5071   -3.1369    0.4861 H   0  0  0  0  0  0  0  0  0  0  0  0
   -1.1067   -1.1032    2.0868 H   0  0  0  0  0  0  0  0  0  0  0  0
   -0.7679   -2.7424    2.5976 H   0  0  0  0  0  0  0  0  0  0  0  0
   -2.0227   -3.6292    0.6062 H   0  0  0  0  0  0  0  0  0  0  0  0
   -3.0499   -2.5916    1.5969 H   0  0  0  0  0  0  0  0  0  0  0  0
   -2.3639   -1.9778    0.0916 H   0  0  0  0  0  0  0  0  0  0  0  0
  1  2  1  0
  1  6  1  0
  1  7  1  0
  1  8  1  0
  2  3  1  0
  2  9  1  0
  2 10  1  0
  3  4  1  0
  4  5  1  0
  4 11  1  0
  4 12  1  0
  5  6  1  0
  6 13  1  0
  6 14  1  0
 15 16  1  0
 15 19  1  0
 15 20  1  0
 15 21  1  0
 16 17  1  0
 16 22  1  0
 17 18  1  0
 17 23  1  0
 17 24  1  0
 18 25  1  0
 18 26  1  0
 18 27  1  0
M  RAD  1  16   2
M  END
>  <reaction>  (11) 
rmg_rxn_256

>  <mol_properties>  (11) 
{"1": {"label": "*3", "atom_type": "Cs"}, "2": {"label": "*4", "atom_type": "O2s"}, "8": {"label": "*2", "atom_type": "H0"}, "15": {"label": "*1", "atom_type": "Cs"}, "16": {"label": "*0", "atom_type": "Cs"}}

>  <type>  (11) 
unop_7

>  <geom_source>  (11) 
Heuristics

$$$$

     RDKit          3D

 27 26  0  0  0  0  0  0  0  0999 V2000
    0.1924    0.4150   -1.5096 C   0  0  0  0  0  0  0  0  0  0  0  0
    0.1924    0.4150    0.0124 C   0  0  0  0  0  0  0  0  0  0  0  0
   -0.8559    1.2276    0.5045 O   0  0  0  0  0  0  0  0  0  0  0  0
   -0.7650    2.5272    0.0052 C   0  0  0  0  0  0  0  0  0  0  0  0
   -0.8559    2.5834   -1.3859 O   0  0  0  0  0  0  0  0  0  0  0  0
    0.1924    1.8567   -1.9977 C   0  0  0  0  0  0  0  0  0  0  0  0
    1.0664   -0.1174   -1.8915 H   0  0  0  0  0  0  0  0  0  0  0  0
   -0.7042   -0.0911   -1.8726 H   0  0  0  0  0  0  0  0  0  0  0  0
    0.0017   -0.7820    0.5012 H   0  0  0  0  0  0  0  0  0  0  0  0
    1.1560    0.7910    0.3891 H   0  0  0  0  0  0  0  0  0  0  0  0
    0.1904    2.9793    0.3294 H   0  0  0  0  0  0  0  0  0  0  0  0
   -1.6060    3.0877    0.4072 H   0  0  0  0  0  0  0  0  0  0  0  0
    1.1560    2.3341   -1.7624 H   0  0  0  0  0  0  0  0  0  0  0  0
    0.0335    1.9226   -3.0732 H   0  0  0  0  0  0  0  0  0  0  0  0
   -1.3562   -2.9641    0.9668 C   0  0  0  0  0  0  0  0  0  0  0  0
   -0.1901   -1.9852    0.9926 C   0  0  0  0  0  3  0  0  0  0  0  0
    1.1596   -2.6687    1.1791 C   0  0  0  0  0  0  0  0  0  0  0  0
    2.3257   -1.6899    1.2048 C   0  0  0  0  0  0  0  0  0  0  0  0
   -1.4120   -3.5309    1.8992 H   0  0  0  0  0  0  0  0  0  0  0  0
   -1.2467   -3.6819    0.1504 H   0  0  0  0  0  0  0  0  0  0  0  0
   -2.3086   -2.4487    0.8323 H   0  0  0  0  0  0  0  0  0  0  0  0
   -0.3381   -1.2587    1.7980 H   0  0  0  0  0  0  0  0  0  0  0  0
    1.3076   -3.3953    0.3737 H   0  0  0  0  0  0  0  0  0  0  0  0
    1.1435   -3.2455    2.1096 H   0  0  0  0  0  0  0  0  0  0  0  0
    2.2162   -0.9721    2.0212 H   0  0  0  0  0  0  0  0  0  0  0  0
    3.2781   -2.2053    1.3393 H   0  0  0  0  0  0  0  0  0  0  0  0
    2.3815   -1.1231    0.2725 H   0  0  0  0  0  0  0  0  0  0  0  0
  1  2  1  0
  1  6  1  0
  1  7  1  0
  1  8  1  0
  2  3  1  0
  2  9  1  0
  2 10  1  0
  3  4  1  0
  4  5  1  0
  4 11  1  0
  4 12  1  0
  5  6  1  0
  6 13  1  0
  6 14  1  0
 15 16  1  0
 15 19  1  0
 15 20  1  0
 15 21  1  0
 16 17  1  0
 16 22  1  0
 17 18  1  0
 17 23  1  0
 17 24  1  0
 18 25  1  0
 18 26  1  0
 18 27  1  0
M  RAD  1  16   2
M  END
>  <reaction>  (12) 
rmg_rxn_256

>  <mol_properties>  (12) 
{"1": {"label": "*3", "atom_type": "Cs"}, "2": {"label": "*4", "atom_type": "O2s"}, "8": {"label": "*2", "atom_type": "H0"}, "15": {"label": "*1", "atom_type": "Cs"}, "16": {"label": "*0", "atom_type": "Cs"}}

>  <type>  (12) 
unop_8

>  <geom_source>  (12) 
Heuristics

$$$$

     RDKit          3D

 27 26  0  0  0  0  0  0  0  0999 V2000
    0.6369    0.4412   -1.2753 C   0  0  0  0  0  0  0  0  0  0  0  0
    0.6369    0.4412    0.2467 C   0  0  0  0  0  0  0  0  0  0  0  0
   -0.4114    1.2538    0.7388 O   0  0  0  0  0  0  0  0  0  0  0  0
   -0.3205    2.5533    0.2395 C   0  0  0  0  0  0  0  0  0  0  0  0
   -0.4114    2.6095   -1.1516 O   0  0  0  0  0  0  0  0  0  0  0  0
    0.6369    1.8828   -1.7634 C   0  0  0  0  0  0  0  0  0  0  0  0
    1.5109   -0.0913   -1.6572 H   0  0  0  0  0  0  0  0  0  0  0  0
   -0.2597   -0.0650   -1.6383 H   0  0  0  0  0  0  0  0  0  0  0  0
    0.4462   -0.7559    0.7355 H   0  0  0  0  0  0  0  0  0  0  0  0
    1.6005    0.8171    0.6234 H   0  0  0  0  0  0  0  0  0  0  0  0
    0.6349    3.0054    0.5637 H   0  0  0  0  0  0  0  0  0  0  0  0
   -1.1615    3.1138    0.6415 H   0  0  0  0  0  0  0  0  0  0  0  0
    1.6005    2.3602   -1.5281 H   0  0  0  0  0  0  0  0  0  0  0  0
    0.4780    1.9487   -2.8389 H   0  0  0  0  0  0  0  0  0  0  0  0
   -0.5182   -1.4763    2.4469 C   0  0  0  0  0  0  0  0  0  0  0  0
    0.2544   -1.9591    1.2269 C   0  0  0  0  0  3  0  0  0  0  0  0
   -0.6030   -2.7634    0.2565 C   0  0  0  0  0  0  0  0  0  0  0  0
    0.1697   -3.2462   -0.9635 C   0  0  0  0  0  0  0  0  0  0  0  0
   -0.9300   -2.3186    3.0079 H   0  0  0  0  0  0  0  0  0  0  0  0
   -1.3533   -0.8359    2.1530 H   0  0  0  0  0  0  0  0  0  0  0  0
    0.1187   -0.9043    3.1236 H   0  0  0  0  0  0  0  0  0  0  0  0
    1.1027   -2.5721    1.5482 H   0  0  0  0  0  0  0  0  0  0  0  0
   -1.4512   -2.1503   -0.0648 H   0  0  0  0  0  0  0  0  0  0  0  0
   -1.0310   -3.6221    0.7837 H   0  0  0  0  0  0  0  0  0  0  0  0
    1.0048   -3.8866   -0.6696 H   0  0  0  0  0  0  0  0  0  0  0  0
   -0.4672   -3.8182   -1.6402 H   0  0  0  0  0  0  0  0  0  0  0  0
    0.5815   -2.4039   -1.5245 H   0  0  0  0  0  0  0  0  0  0  0  0
  1  2  1  0
  1  6  1  0
  1  7  1  0
  1  8  1  0
  2  3  1  0
  2  9  1  0
  2 10  1  0
  3  4  1  0
  4  5  1  0
  4 11  1  0
  4 12  1  0
  5  6  1  0
  6 13  1  0
  6 14  1  0
 15 16  1  0
 15 19  1  0
 15 20  1  0
 15 21  1  0
 16 17  1  0
 16 22  1  0
 17 18  1  0
 17 23  1  0
 17 24  1  0
 18 25  1  0
 18 26  1  0
 18 27  1  0
M  RAD  1  16   2
M  END
>  <reaction>  (13) 
rmg_rxn_256

>  <mol_properties>  (13) 
{"1": {"label": "*3", "atom_type": "Cs"}, "2": {"label": "*4", "atom_type": "O2s"}, "8": {"label": "*2", "atom_type": "H0"}, "15": {"label": "*1", "atom_type": "Cs"}, "16": {"label": "*0", "atom_type": "Cs"}}

>  <type>  (13) 
unop_9

>  <geom_source>  (13) 
Heuristics

$$$$

     RDKit          3D

 27 26  0  0  0  0  0  0  0  0999 V2000
    0.2375    0.4634   -1.3748 C   0  0  0  0  0  0  0  0  0  0  0  0
    0.2375    0.4634    0.1472 C   0  0  0  0  0  0  0  0  0  0  0  0
   -0.8108    1.2760    0.6393 O   0  0  0  0  0  0  0  0  0  0  0  0
   -0.7199    2.5756    0.1400 C   0  0  0  0  0  0  0  0  0  0  0  0
   -0.8108    2.6318   -1.2511 O   0  0  0  0  0  0  0  0  0  0  0  0
    0.2375    1.9051   -1.8629 C   0  0  0  0  0  0  0  0  0  0  0  0
    1.1115   -0.0690   -1.7567 H   0  0  0  0  0  0  0  0  0  0  0  0
   -0.6591   -0.0427   -1.7379 H   0  0  0  0  0  0  0  0  0  0  0  0
    0.0468   -0.7336    0.6360 H   0  0  0  0  0  0  0  0  0  0  0  0
    1.2011    0.8394    0.5239 H   0  0  0  0  0  0  0  0  0  0  0  0
    0.2355    3.0277    0.4642 H   0  0  0  0  0  0  0  0  0  0  0  0
   -1.5609    3.1361    0.5420 H   0  0  0  0  0  0  0  0  0  0  0  0
    1.2011    2.3825   -1.6276 H   0  0  0  0  0  0  0  0  0  0  0  0
    0.0786    1.9710   -2.9384 H   0  0  0  0  0  0  0  0  0  0  0  0
   -1.4314   -2.6823    1.4560 C   0  0  0  0  0  0  0  0  0  0  0  0
   -0.1449   -1.9368    1.1273 C   0  0  0  0  0  3  0  0  0  0  0  0
    0.9717   -2.8560    0.6460 C   0  0  0  0  0  0  0  0  0  0  0  0
    2.2582   -2.1106    0.3173 C   0  0  0  0  0  0  0  0  0  0  0  0
   -1.2652   -3.4215    2.2432 H   0  0  0  0  0  0  0  0  0  0  0  0
   -1.8108   -3.2132    0.5797 H   0  0  0  0  0  0  0  0  0  0  0  0
   -2.2126   -2.0013    1.7975 H   0  0  0  0  0  0  0  0  0  0  0  0
    0.1980   -1.3888    2.0109 H   0  0  0  0  0  0  0  0  0  0  0  0
    0.6288   -3.4040   -0.2376 H   0  0  0  0  0  0  0  0  0  0  0  0
    1.1705   -3.6108    1.4137 H   0  0  0  0  0  0  0  0  0  0  0  0
    2.6376   -1.5796    1.1936 H   0  0  0  0  0  0  0  0  0  0  0  0
    3.0394   -2.7916   -0.0242 H   0  0  0  0  0  0  0  0  0  0  0  0
    2.0920   -1.3713   -0.4699 H   0  0  0  0  0  0  0  0  0  0  0  0
  1  2  1  0
  1  6  1  0
  1  7  1  0
  1  8  1  0
  2  3  1  0
  2  9  1  0
  2 10  1  0
  3  4  1  0
  4  5  1  0
  4 11  1  0
  4 12  1  0
  5  6  1  0
  6 13  1  0
  6 14  1  0
 15 16  1  0
 15 19  1  0
 15 20  1  0
 15 21  1  0
 16 17  1  0
 16 22  1  0
 17 18  1  0
 17 23  1  0
 17 24  1  0
 18 25  1  0
 18 26  1  0
 18 27  1  0
M  RAD  1  16   2
M  END
>  <reaction>  (14) 
rmg_rxn_256

>  <mol_properties>  (14) 
{"1": {"label": "*3", "atom_type": "Cs"}, "2": {"label": "*4", "atom_type": "O2s"}, "8": {"label": "*2", "atom_type": "H0"}, "15": {"label": "*1", "atom_type": "Cs"}, "16": {"label": "*0", "atom_type": "Cs"}}

>  <type>  (14) 
unop_10

>  <geom_source>  (14) 
Heuristics

$$$$

     RDKit          3D

 27 26  0  0  0  0  0  0  0  0999 V2000
    0.6027    0.2568   -1.7390 C   0  0  0  0  0  0  0  0  0  0  0  0
    0.6027    0.2568   -0.2169 C   0  0  0  0  0  0  0  0  0  0  0  0
   -0.4456    1.0694    0.2752 O   0  0  0  0  0  0  0  0  0  0  0  0
   -0.3547    2.3690   -0.2241 C   0  0  0  0  0  0  0  0  0  0  0  0
   -0.4456    2.4252   -1.6152 O   0  0  0  0  0  0  0  0  0  0  0  0
    0.6027    1.6984   -2.2271 C   0  0  0  0  0  0  0  0  0  0  0  0
    1.4767   -0.2757   -2.1208 H   0  0  0  0  0  0  0  0  0  0  0  0
   -0.2939   -0.2494   -2.1020 H   0  0  0  0  0  0  0  0  0  0  0  0
    0.4120   -0.9402    0.2719 H   0  0  0  0  0  0  0  0  0  0  0  0
    1.5663    0.6328    0.1598 H   0  0  0  0  0  0  0  0  0  0  0  0
    0.6007    2.8210    0.1001 H   0  0  0  0  0  0  0  0  0  0  0  0
   -1.1957    2.9295    0.1778 H   0  0  0  0  0  0  0  0  0  0  0  0
    1.5663    2.1758   -1.9918 H   0  0  0  0  0  0  0  0  0  0  0  0
    0.4438    1.7644   -3.3025 H   0  0  0  0  0  0  0  0  0  0  0  0
    1.7344   -2.2355    0.8951 C   0  0  0  0  0  0  0  0  0  0  0  0
    0.2203   -2.1435    0.7632 C   0  0  0  0  0  3  0  0  0  0  0  0
   -0.4903   -2.0263    2.1067 C   0  0  0  0  0  0  0  0  0  0  0  0
   -2.0045   -1.9342    1.9748 C   0  0  0  0  0  0  0  0  0  0  0  0
    2.0235   -3.1080    1.4859 H   0  0  0  0  0  0  0  0  0  0  0  0
    2.1384   -1.3511    1.3935 H   0  0  0  0  0  0  0  0  0  0  0  0
    2.2170   -2.3184   -0.0801 H   0  0  0  0  0  0  0  0  0  0  0  0
   -0.1566   -3.0248    0.2342 H   0  0  0  0  0  0  0  0  0  0  0  0
   -0.1134   -1.1450    2.6357 H   0  0  0  0  0  0  0  0  0  0  0  0
   -0.2275   -2.8889    2.7274 H   0  0  0  0  0  0  0  0  0  0  0  0
   -2.4085   -2.8186    1.4764 H   0  0  0  0  0  0  0  0  0  0  0  0
   -2.4870   -1.8513    2.9500 H   0  0  0  0  0  0  0  0  0  0  0  0
   -2.2936   -1.0618    1.3839 H   0  0  0  0  0  0  0  0  0  0  0  0
  1  2  1  0
  1  6  1  0
  1  7  1  0
  1  8  1  0
  2  3  1  0
  2  9  1  0
  2 10  1  0
  3  4  1  0
  4  5  1  0
  4 11  1  0
  4 12  1  0
  5  6  1  0
  6 13  1  0
  6 14  1  0
 15 16  1  0
 15 19  1  0
 15 20  1  0
 15 21  1  0
 16 17  1  0
 16 22  1  0
 17 18  1  0
 17 23  1  0
 17 24  1  0
 18 25  1  0
 18 26  1  0
 18 27  1  0
M  RAD  1  16   2
M  END
>  <reaction>  (15) 
rmg_rxn_256

>  <mol_properties>  (15) 
{"1": {"label": "*3", "atom_type": "Cs"}, "2": {"label": "*4", "atom_type": "O2s"}, "8": {"label": "*2", "atom_type": "H0"}, "15": {"label": "*1", "atom_type": "Cs"}, "16": {"label": "*0", "atom_type": "Cs"}}

>  <type>  (15) 
unop_11

>  <geom_source>  (15) 
Heuristics

$$$$

     RDKit          3D

 27 26  0  0  0  0  0  0  0  0999 V2000
    0.4950    0.4791   -1.2387 C   0  0  0  0  0  0  0  0  0  0  0  0
    0.4950    0.4791    0.2833 C   0  0  0  0  0  0  0  0  0  0  0  0
   -0.5533    1.2917    0.7754 O   0  0  0  0  0  0  0  0  0  0  0  0
   -0.4624    2.5913    0.2761 C   0  0  0  0  0  0  0  0  0  0  0  0
   -0.5533    2.6474   -1.1149 O   0  0  0  0  0  0  0  0  0  0  0  0
    0.4950    1.9207   -1.7268 C   0  0  0  0  0  0  0  0  0  0  0  0
    1.3690   -0.0534   -1.6206 H   0  0  0  0  0  0  0  0  0  0  0  0
   -0.4016   -0.0271   -1.6017 H   0  0  0  0  0  0  0  0  0  0  0  0
    0.3043   -0.7179    0.7721 H   0  0  0  0  0  0  0  0  0  0  0  0
    1.4586    0.8551    0.6601 H   0  0  0  0  0  0  0  0  0  0  0  0
    0.4929    3.0433    0.6003 H   0  0  0  0  0  0  0  0  0  0  0  0
   -1.3034    3.1518    0.6781 H   0  0  0  0  0  0  0  0  0  0  0  0
    1.4586    2.3981   -1.4915 H   0  0  0  0  0  0  0  0  0  0  0  0
    0.3360    1.9867   -2.8023 H   0  0  0  0  0  0  0  0  0  0  0  0
   -1.0846   -1.9040    2.2043 C   0  0  0  0  0  0  0  0  0  0  0  0
    0.1125   -1.9212    1.2635 C   0  0  0  0  0  3  0  0  0  0  0  0
   -0.0450   -2.9100    0.1142 C   0  0  0  0  0  0  0  0  0  0  0  0
    1.1521   -2.9272   -0.8266 C   0  0  0  0  0  0  0  0  0  0  0  0
   -1.2460   -2.8883    2.6503 H   0  0  0  0  0  0  0  0  0  0  0  0
   -1.9978   -1.6300    1.6707 H   0  0  0  0  0  0  0  0  0  0  0  0
   -0.9454   -1.1886    3.0164 H   0  0  0  0  0  0  0  0  0  0  0  0
    1.0186   -2.1676    1.8264 H   0  0  0  0  0  0  0  0  0  0  0  0
   -0.9511   -2.6636   -0.4488 H   0  0  0  0  0  0  0  0  0  0  0  0
   -0.2048   -3.9127    0.5236 H   0  0  0  0  0  0  0  0  0  0  0  0
    2.0653   -3.2012   -0.2931 H   0  0  0  0  0  0  0  0  0  0  0  0
    1.0129   -3.6426   -1.6388 H   0  0  0  0  0  0  0  0  0  0  0  0
    1.3135   -1.9429   -1.2727 H   0  0  0  0  0  0  0  0  0  0  0  0
  1  2  1  0
  1  6  1  0
  1  7  1  0
  1  8  1  0
  2  3  1  0
  2  9  1  0
  2 10  1  0
  3  4  1  0
  4  5  1  0
  4 11  1  0
  4 12  1  0
  5  6  1  0
  6 13  1  0
  6 14  1  0
 15 16  1  0
 15 19  1  0
 15 20  1  0
 15 21  1  0
 16 17  1  0
 16 22  1  0
 17 18  1  0
 17 23  1  0
 17 24  1  0
 18 25  1  0
 18 26  1  0
 18 27  1  0
M  RAD  1  16   2
M  END
>  <reaction>  (16) 
rmg_rxn_256

>  <mol_properties>  (16) 
{"1": {"label": "*3", "atom_type": "Cs"}, "2": {"label": "*4", "atom_type": "O2s"}, "8": {"label": "*2", "atom_type": "H0"}, "15": {"label": "*1", "atom_type": "Cs"}, "16": {"label": "*0", "atom_type": "Cs"}}

>  <type>  (16) 
unop_12

>  <geom_source>  (16) 
Heuristics

$$$$

     RDKit          3D

 27 26  0  0  0  0  0  0  0  0999 V2000
    2.9346   -0.7147    0.7473 O   0  0  0  0  0  0  0  0  0  0  0  0
    1.7580    1.2801    1.3667 O   0  0  0  0  0  0  0  0  0  0  0  0
   -1.3553    0.1365   -0.2943 C   0  0  0  0  0  0  0  0  0  0  0  0
   -1.7427   -1.3228   -0.0187 C   0  0  0  0  0  0  0  0  0  0  0  0
    2.0037    0.7251   -0.9498 C   0  0  0  0  0  0  0  0  0  0  0  0
    3.2652    0.0734   -0.3774 C   0  0  0  0  0  0  0  0  0  0  0  0
   -2.3766    1.1317    0.2527 C   0  0  0  0  0  0  0  0  0  0  0  0
   -2.9391   -1.7827   -0.8510 C   0  0  0  0  0  0  0  0  0  0  0  0
    2.4186    0.0983    1.8006 C   0  0  0  0  0  0  0  0  0  0  0  0
    1.0349    0.9870    0.1984 C   0  0  0  0  0  3  0  0  0  0  0  0
   -1.2222    0.2990   -1.3860 H   0  0  0  0  0  0  0  0  0  0  0  0
   -0.2016    0.3727    0.2887 H   0  0  0  0  0  0  0  0  0  0  0  0
   -1.9632   -1.4621    1.0618 H   0  0  0  0  0  0  0  0  0  0  0  0
   -0.8729   -1.9669   -0.2701 H   0  0  0  0  0  0  0  0  0  0  0  0
    1.5158    0.0458   -1.6806 H   0  0  0  0  0  0  0  0  0  0  0  0
    2.2702    1.6768   -1.4586 H   0  0  0  0  0  0  0  0  0  0  0  0
    3.7294   -0.5741   -1.1510 H   0  0  0  0  0  0  0  0  0  0  0  0
    4.0148    0.8500   -0.0997 H   0  0  0  0  0  0  0  0  0  0  0  0
   -3.3382    1.0502   -0.2951 H   0  0  0  0  0  0  0  0  0  0  0  0
   -1.9880    2.1632    0.1219 H   0  0  0  0  0  0  0  0  0  0  0  0
   -2.5488    0.9543    1.3354 H   0  0  0  0  0  0  0  0  0  0  0  0
   -2.7493   -1.6118   -1.9320 H   0  0  0  0  0  0  0  0  0  0  0  0
   -3.1053   -2.8686   -0.6892 H   0  0  0  0  0  0  0  0  0  0  0  0
   -3.8598   -1.2429   -0.5470 H   0  0  0  0  0  0  0  0  0  0  0  0
    3.2563    0.3882    2.4694 H   0  0  0  0  0  0  0  0  0  0  0  0
    1.7129   -0.5096    2.4063 H   0  0  0  0  0  0  0  0  0  0  0  0
    0.3485    1.8239   -0.0488 H   0  0  0  0  0  0  0  0  0  0  0  0
  1  6  1  0
  1  9  1  0
  2 10  1  0
  2  9  1  0
  3  7  1  0
  3  4  1  0
  3 11  1  0
  3 12  1  0
  4  8  1  0
  4 13  1  0
  4 14  1  0
  5 10  1  0
  5  6  1  0
  5 15  1  0
  5 16  1  0
  6 17  1  0
  6 18  1  0
  7 19  1  0
  7 20  1  0
  7 21  1  0
  8 22  1  0
  8 23  1  0
  8 24  1  0
  9 25  1  0
  9 26  1  0
 10 27  1  0
M  RAD  1  10   2
M  END
>  <reaction>  (17) 
rmg_rxn_256

>  <mol_properties>  (17) 
{"1": {"label": "*3", "atom_type": "Cs"}, "2": {"label": "*4", "atom_type": "O2s"}, "8": {"label": "*2", "atom_type": "H0"}, "15": {"label": "*1", "atom_type": "Cs"}, "16": {"label": "*0", "atom_type": "Cs"}}

>  <type>  (17) 
unop_13

>  <geom_source>  (17) 
AutoTST

$$$$

     RDKit          3D

 27 26  0  0  0  0  0  0  0  0999 V2000
    0.3483    0.4871   -1.2753 C   0  0  0  0  0  0  0  0  0  0  0  0
    0.3483    0.4871    0.2467 C   0  0  0  0  0  0  0  0  0  0  0  0
   -0.7000    1.2997    0.7388 O   0  0  0  0  0  0  0  0  0  0  0  0
   -0.6091    2.5993    0.2395 C   0  0  0  0  0  0  0  0  0  0  0  0
   -0.7000    2.6555   -1.1516 O   0  0  0  0  0  0  0  0  0  0  0  0
    0.3483    1.9288   -1.7634 C   0  0  0  0  0  0  0  0  0  0  0  0
    1.2223   -0.0453   -1.6572 H   0  0  0  0  0  0  0  0  0  0  0  0
   -0.5483   -0.0190   -1.6383 H   0  0  0  0  0  0  0  0  0  0  0  0
    0.1576   -0.7099    0.7355 H   0  0  0  0  0  0  0  0  0  0  0  0
    1.3119    0.8631    0.6234 H   0  0  0  0  0  0  0  0  0  0  0  0
    0.3463    3.0514    0.5637 H   0  0  0  0  0  0  0  0  0  0  0  0
   -1.4501    3.1598    0.6415 H   0  0  0  0  0  0  0  0  0  0  0  0
    1.3119    2.4062   -1.5281 H   0  0  0  0  0  0  0  0  0  0  0  0
    0.1894    1.9947   -2.8389 H   0  0  0  0  0  0  0  0  0  0  0  0
   -1.3506   -2.3461    1.8577 C   0  0  0  0  0  0  0  0  0  0  0  0
   -0.0341   -1.9131    1.2268 C   0  0  0  0  0  3  0  0  0  0  0  0
    0.5309   -2.9440    0.2565 C   0  0  0  0  0  0  0  0  0  0  0  0
    1.8474   -2.5111   -0.3743 C   0  0  0  0  0  0  0  0  0  0  0  0
   -1.2294   -3.2771    2.4165 H   0  0  0  0  0  0  0  0  0  0  0  0
   -2.1132   -2.5167    1.0940 H   0  0  0  0  0  0  0  0  0  0  0  0
   -1.7319   -1.5908    2.5468 H   0  0  0  0  0  0  0  0  0  0  0  0
    0.7032   -1.7187    2.0124 H   0  0  0  0  0  0  0  0  0  0  0  0
   -0.2064   -3.1385   -0.5291 H   0  0  0  0  0  0  0  0  0  0  0  0
    0.6708   -3.8933    0.7837 H   0  0  0  0  0  0  0  0  0  0  0  0
    2.6099   -2.3405    0.3894 H   0  0  0  0  0  0  0  0  0  0  0  0
    2.2287   -3.2664   -1.0634 H   0  0  0  0  0  0  0  0  0  0  0  0
    1.7261   -1.5800   -0.9331 H   0  0  0  0  0  0  0  0  0  0  0  0
  1  2  1  0
  1  6  1  0
  1  7  1  0
  1  8  1  0
  2  3  1  0
  2  9  1  0
  2 10  1  0
  3  4  1  0
  4  5  1  0
  4 11  1  0
  4 12  1  0
  5  6  1  0
  6 13  1  0
  6 14  1  0
 15 16  1  0
 15 19  1  0
 15 20  1  0
 15 21  1  0
 16 17  1  0
 16 22  1  0
 17 18  1  0
 17 23  1  0
 17 24  1  0
 18 25  1  0
 18 26  1  0
 18 27  1  0
M  RAD  1  16   2
M  END
>  <reaction>  (18) 
rmg_rxn_256

>  <mol_properties>  (18) 
{"1": {"label": "*3", "atom_type": "Cs"}, "2": {"label": "*4", "atom_type": "O2s"}, "8": {"label": "*2", "atom_type": "H0"}, "15": {"label": "*1", "atom_type": "Cs"}, "16": {"label": "*0", "atom_type": "Cs"}}

>  <type>  (18) 
unop_14

>  <geom_source>  (18) 
gaussian_log

$$$$
