
     RDKit          3D

  6  5  0  0  0  0  0  0  0  0999 V2000
   -0.4547   -0.0097   -0.0070 C   0  0  0  0  0  0  0  0  0  0  0  0
    0.8695   -0.1987   -0.6218 N   0  0  0  0  0  0  0  0  0  0  0  0
    1.0322   -1.2809   -1.0969 O   0  0  0  0  0  0  0  0  0  0  0  0
   -0.2820    0.2687    1.0347 H   0  0  0  0  0  0  0  0  0  0  0  0
   -1.0716   -0.9051   -0.0916 H   0  0  0  0  0  0  0  0  0  0  0  0
   -0.9130    0.8487   -0.5026 H   0  0  0  0  0  0  0  0  0  0  0  0
  1  2  1  0
  1  4  1  0
  1  5  1  0
  1  6  1  0
  2  3  2  0
M  END
>  <reaction>  (1) 
rmg_rxn_16609

>  <mol_properties>  (1) 
{"0": {"label": "donator", "atom_type": "Cs"}, "3": {"label": "d_hydrogen", "atom_type": "H0"}}

>  <type>  (1) 
r1h

$$$$

     RDKit          3D

  7  6  0  0  0  0  0  0  0  0999 V2000
   -0.8792   -0.0521   -0.1112 C   0  0  0  0  0  0  0  0  0  0  0  0
    0.2563    0.5069    0.6632 C   0  0  0  0  0  3  0  0  0  0  0  0
    1.4642    0.2942    0.5559 N   0  0  0  0  0  0  0  0  0  0  0  0
   -0.5276   -0.7504   -0.8762 H   0  0  0  0  0  0  0  0  0  0  0  0
   -1.5656   -0.5647    0.5641 H   0  0  0  0  0  0  0  0  0  0  0  0
   -1.4344    0.7590   -0.5839 H   0  0  0  0  0  0  0  0  0  0  0  0
    2.0853    0.7859    1.1937 H   0  0  0  0  0  0  0  0  0  0  0  0
  1  2  1  0
  1  4  1  0
  1  5  1  0
  1  6  1  0
  2  3  2  3
  3  7  1  0
M  RAD  1   2   2
M  END
>  <reaction>  (2) 
rmg_rxn_16609

>  <mol_properties>  (2) 
{"1": {"label": "acceptor", "atom_type": "Cd"}}

>  <type>  (2) 
r2

$$$$

     RDKit          3D

  8  7  0  0  0  0  0  0  0  0999 V2000
    0.9548    0.1194   -0.0790 C   0  0  0  0  0  0  0  0  0  0  0  0
   -0.4838   -0.2649    0.0193 C   0  0  0  0  0  0  0  0  0  0  0  0
   -0.8933   -1.1081    0.8664 N   0  0  0  0  0  0  0  0  0  0  0  0
    1.3360   -0.0983   -1.0800 H   0  0  0  0  0  0  0  0  0  0  0  0
    1.0698    1.1948    0.0786 H   0  0  0  0  0  0  0  0  0  0  0  0
    1.5426   -0.4219    0.6602 H   0  0  0  0  0  0  0  0  0  0  0  0
   -1.1575    0.2324   -0.6905 H   0  0  0  0  0  0  0  0  0  0  0  0
   -1.8989   -1.2455    0.7886 H   0  0  0  0  0  0  0  0  0  0  0  0
  1  2  1  0
  1  4  1  0
  1  5  1  0
  1  6  1  0
  2  3  2  3
  2  7  1  0
  3  8  1  0
M  END
>  <reaction>  (3) 
rmg_rxn_16609

>  <mol_properties>  (3) 
{"0": {"label": "a_hydrogen", "atom_type": "H0"}, "2": {"label": "acceptor", "atom_type": "Cd"}}

>  <type>  (3) 
r2h

$$$$

     RDKit          3D

 13 11  0  0  0  0  0  0  0  0999 V2000
    1.3372   -0.1535   -0.3621 C   0  0  0  0  0  0  0  0  0  0  0  0
    0.6925   -0.4761   -1.5665 N   0  0  0  0  0  0  0  0  0  0  0  0
    0.4118    0.4907   -2.2588 O   0  0  0  0  0  0  0  0  0  0  0  0
    0.3424    0.1052    0.4218 H   0  0  0  0  0  0  0  0  0  0  0  0
    1.8975    0.7829   -0.3698 H   0  0  0  0  0  0  0  0  0  0  0  0
    1.8300   -1.0089    0.0917 H   0  0  0  0  0  0  0  0  0  0  0  0
   -0.7331    1.0385    2.3956 C   0  0  0  0  0  0  0  0  0  0  0  0
   -0.8837    0.3847    1.0735 C   0  0  0  0  0  3  0  0  0  0  0  0
   -1.8950    0.0516    0.4568 N   0  0  0  0  0  0  0  0  0  0  0  0
   -1.7105    1.2156    2.8461 H   0  0  0  0  0  0  0  0  0  0  0  0
   -0.1320    0.4085    3.0529 H   0  0  0  0  0  0  0  0  0  0  0  0
   -0.2063    1.9864    2.2750 H   0  0  0  0  0  0  0  0  0  0  0  0
   -1.7505   -0.3785   -0.4568 H   0  0  0  0  0  0  0  0  0  0  0  0
  1  2  1  0
  1  4  1  0
  1  5  1  0
  1  6  1  0
  2  3  2  0
  7  8  1  0
  7 10  1  0
  7 11  1  0
  7 12  1  0
  8  9  2  3
  9 13  1  0
M  RAD  1   8   2
M  END
>  <reaction>  (4) 
rmg_rxn_16609

>  <mol_properties>  (4) 
{"0": {"label": "*1", "atom_type": "Cs"}, "1": {"label": "*0", "atom_type": "N3d"}, "3": {"label": "*2", "atom_type": "H0"}, "7": {"label": "*3", "atom_type": "Cd"}, "8": {"label": "*4", "atom_type": "N3d"}}

>  <type>  (4) 
ts

$$$$

     RDKit          3D

 13 11  0  0  0  0  0  0  0  0999 V2000
   -0.9560    1.1610   -0.1316 C   0  0  0  0  0  0  0  0  0  0  0  0
   -1.8771    0.2575   -0.3204 N   0  0  0  0  0  0  0  0  0  0  0  0
   -2.2448   -0.6837    0.3940 O   0  0  0  0  0  1  0  0  0  0  0  0
    0.3233    0.6172   -0.0883 H   0  0  0  0  0  0  0  0  0  0  0  0
   -0.9050    1.6349    0.8555 H   0  0  0  0  0  0  0  0  0  0  0  0
   -0.8518    1.8474   -0.9647 H   0  0  0  0  0  0  0  0  0  0  0  0
    1.3385   -1.4019   -0.2234 C   0  0  0  0  0  0  0  0  0  0  0  0
    1.4512    0.0551   -0.0093 C   0  0  0  0  0  0  0  0  0  0  0  0
    2.5131    0.6498    0.2310 N   0  0  0  0  0  0  0  0  0  0  0  0
    0.9235   -1.5901   -1.2127 H   0  0  0  0  0  0  0  0  0  0  0  0
    2.3079   -1.8858   -0.1318 H   0  0  0  0  0  0  0  0  0  0  0  0
    0.6429   -1.8197    0.5031 H   0  0  0  0  0  0  0  0  0  0  0  0
    2.5042    1.6539    0.3682 H   0  0  0  0  0  0  0  0  0  0  0  0
  1  2  2  3
  1  5  1  0
  1  6  1  0
  2  3  1  0
  4  8  1  0
  7  8  1  0
  7 10  1  0
  7 11  1  0
  7 12  1  0
  8  9  2  3
  9 13  1  0
M  RAD  1   3   2
M  END
>  <reaction>  (5) 
rmg_rxn_16609

>  <mol_properties>  (5) 
{"0": {"label": "*1", "atom_type": "Cs"}, "1": {"label": "*0", "atom_type": "N3d"}, "3": {"label": "*2", "atom_type": "H0"}, "7": {"label": "*3", "atom_type": "Cd"}, "8": {"label": "*4", "atom_type": "N3d"}}

>  <type>  (5) 
unop_1

>  <geom_source>  (5) 
crest_best.xyz

$$$$

     RDKit          3D

 13 11  0  0  0  0  0  0  0  0999 V2000
    1.1389    0.2424   -0.4749 C   0  0  0  0  0  0  0  0  0  0  0  0
    1.1389   -1.1034   -1.0717 N   0  0  0  0  0  0  0  0  0  0  0  0
    1.1389   -1.1034   -2.2648 O   0  0  0  0  0  0  0  0  0  0  0  0
    0.0829    0.3138    0.2977 H   0  0  0  0  0  0  0  0  0  0  0  0
    1.1389    1.0229   -1.2366 H   0  0  0  0  0  0  0  0  0  0  0  0
    2.0189    0.3019    0.1689 H   0  0  0  0  0  0  0  0  0  0  0  0
   -0.7060    0.6544    2.5166 C   0  0  0  0  0  0  0  0  0  0  0  0
   -0.9786    0.3855    1.0743 C   0  0  0  0  0  3  0  0  0  0  0  0
   -1.9287    0.9463    0.4585 N   0  0  0  0  0  0  0  0  0  0  0  0
   -1.4248    1.3707    2.9107 H   0  0  0  0  0  0  0  0  0  0  0  0
   -0.7624   -0.2739    3.0908 H   0  0  0  0  0  0  0  0  0  0  0  0
    0.3068    1.0457    2.6428 H   0  0  0  0  0  0  0  0  0  0  0  0
   -1.9632    0.6444   -0.5130 H   0  0  0  0  0  0  0  0  0  0  0  0
  1  2  1  0
  1  4  1  0
  1  5  1  0
  1  6  1  0
  2  3  2  0
  7  8  1  0
  7 10  1  0
  7 11  1  0
  7 12  1  0
  8  9  2  3
  9 13  1  0
M  RAD  1   8   2
M  END
>  <reaction>  (6) 
rmg_rxn_16609

>  <mol_properties>  (6) 
{"0": {"label": "*1", "atom_type": "Cs"}, "1": {"label": "*0", "atom_type": "N3d"}, "3": {"label": "*2", "atom_type": "H0"}, "7": {"label": "*3", "atom_type": "Cd"}, "8": {"label": "*4", "atom_type": "N3d"}}

>  <type>  (6) 
unop_2

>  <geom_source>  (6) 
Heuristics

$$$$

     RDKit          3D

 13 11  0  0  0  0  0  0  0  0999 V2000
    1.1648    0.4163   -0.5130 C   0  0  0  0  0  0  0  0  0  0  0  0
    1.1648   -0.9295   -1.1098 N   0  0  0  0  0  0  0  0  0  0  0  0
    1.1648   -0.9295   -2.3029 O   0  0  0  0  0  0  0  0  0  0  0  0
    0.1088    0.4877    0.2596 H   0  0  0  0  0  0  0  0  0  0  0  0
    1.1648    1.1968   -1.2747 H   0  0  0  0  0  0  0  0  0  0  0  0
    2.0448    0.4758    0.1308 H   0  0  0  0  0  0  0  0  0  0  0  0
   -1.3928   -0.7285    1.6482 C   0  0  0  0  0  0  0  0  0  0  0  0
   -0.9527    0.5595    1.0362 C   0  0  0  0  0  3  0  0  0  0  0  0
   -1.3317    1.6771    1.4875 N   0  0  0  0  0  0  0  0  0  0  0  0
   -2.0525   -0.5401    2.4934 H   0  0  0  0  0  0  0  0  0  0  0  0
   -1.9138   -1.3400    0.9070 H   0  0  0  0  0  0  0  0  0  0  0  0
   -0.5254   -1.3034    1.9824 H   0  0  0  0  0  0  0  0  0  0  0  0
   -0.9339    2.4430    0.9479 H   0  0  0  0  0  0  0  0  0  0  0  0
  1  2  1  0
  1  4  1  0
  1  5  1  0
  1  6  1  0
  2  3  2  0
  7  8  1  0
  7 10  1  0
  7 11  1  0
  7 12  1  0
  8  9  2  3
  9 13  1  0
M  RAD  1   8   2
M  END
>  <reaction>  (7) 
rmg_rxn_16609

>  <mol_properties>  (7) 
{"0": {"label": "*1", "atom_type": "Cs"}, "1": {"label": "*0", "atom_type": "N3d"}, "3": {"label": "*2", "atom_type": "H0"}, "7": {"label": "*3", "atom_type": "Cd"}, "8": {"label": "*4", "atom_type": "N3d"}}

>  <type>  (7) 
unop_3

>  <geom_source>  (7) 
Heuristics

$$$$

     RDKit          3D

 13 11  0  0  0  0  0  0  0  0999 V2000
    1.1904    0.2598   -0.4355 C   0  0  0  0  0  0  0  0  0  0  0  0
    1.1904   -1.0860   -1.0323 N   0  0  0  0  0  0  0  0  0  0  0  0
    1.1904   -1.0860   -2.2254 O   0  0  0  0  0  0  0  0  0  0  0  0
    0.1344    0.3312    0.3371 H   0  0  0  0  0  0  0  0  0  0  0  0
    1.1904    1.0403   -1.1973 H   0  0  0  0  0  0  0  0  0  0  0  0
    2.0704    0.3193    0.2083 H   0  0  0  0  0  0  0  0  0  0  0  0
   -0.8006    1.3021    2.2980 C   0  0  0  0  0  0  0  0  0  0  0  0
   -0.9271    0.4030    1.1137 C   0  0  0  0  0  3  0  0  0  0  0  0
   -2.0319    0.2215    0.5280 N   0  0  0  0  0  0  0  0  0  0  0  0
   -1.7659    1.7403    2.5454 H   0  0  0  0  0  0  0  0  0  0  0  0
   -0.4218    0.7431    3.1575 H   0  0  0  0  0  0  0  0  0  0  0  0
   -0.0797    2.0976    2.0927 H   0  0  0  0  0  0  0  0  0  0  0  0
   -1.9291   -0.4202   -0.2554 H   0  0  0  0  0  0  0  0  0  0  0  0
  1  2  1  0
  1  4  1  0
  1  5  1  0
  1  6  1  0
  2  3  2  0
  7  8  1  0
  7 10  1  0
  7 11  1  0
  7 12  1  0
  8  9  2  3
  9 13  1  0
M  RAD  1   8   2
M  END
>  <reaction>  (8) 
rmg_rxn_16609

>  <mol_properties>  (8) 
{"0": {"label": "*1", "atom_type": "Cs"}, "1": {"label": "*0", "atom_type": "N3d"}, "3": {"label": "*2", "atom_type": "H0"}, "7": {"label": "*3", "atom_type": "Cd"}, "8": {"label": "*4", "atom_type": "N3d"}}

>  <type>  (8) 
unop_4

>  <geom_source>  (8) 
Heuristics

$$$$

     RDKit          3D

 13 11  0  0  0  0  0  0  0  0999 V2000
    1.2300    0.2898   -0.3839 C   0  0  0  0  0  0  0  0  0  0  0  0
    1.2300   -1.0559   -0.9807 N   0  0  0  0  0  0  0  0  0  0  0  0
    1.2300   -1.0559   -2.1738 O   0  0  0  0  0  0  0  0  0  0  0  0
    0.1740    0.3612    0.3887 H   0  0  0  0  0  0  0  0  0  0  0  0
    1.2300    1.0703   -1.1457 H   0  0  0  0  0  0  0  0  0  0  0  0
    2.1100    0.3493    0.2599 H   0  0  0  0  0  0  0  0  0  0  0  0
   -2.2003    0.2345    0.4838 C   0  0  0  0  0  0  0  0  0  0  0  0
   -0.8875    0.4330    1.1652 C   0  0  0  0  0  3  0  0  0  0  0  0
   -0.7644    1.1890    2.1700 N   0  0  0  0  0  0  0  0  0  0  0  0
   -2.9750    0.8189    0.9769 H   0  0  0  0  0  0  0  0  0  0  0  0
   -2.1297    0.5323   -0.5655 H   0  0  0  0  0  0  0  0  0  0  0  0
   -2.4761   -0.8231    0.4967 H   0  0  0  0  0  0  0  0  0  0  0  0
    0.1980    1.2027    2.5013 H   0  0  0  0  0  0  0  0  0  0  0  0
  1  2  1  0
  1  4  1  0
  1  5  1  0
  1  6  1  0
  2  3  2  0
  7  8  1  0
  7 10  1  0
  7 11  1  0
  7 12  1  0
  8  9  2  3
  9 13  1  0
M  RAD  1   8   2
M  END
>  <reaction>  (9) 
rmg_rxn_16609

>  <mol_properties>  (9) 
{"0": {"label": "*1", "atom_type": "Cs"}, "1": {"label": "*0", "atom_type": "N3d"}, "3": {"label": "*2", "atom_type": "H0"}, "7": {"label": "*3", "atom_type": "Cd"}, "8": {"label": "*4", "atom_type": "N3d"}}

>  <type>  (9) 
unop_5

>  <geom_source>  (9) 
Heuristics

$$$$

     RDKit          3D

 13 11  0  0  0  0  0  0  0  0999 V2000
    1.1947    0.3239   -0.4768 C   0  0  0  0  0  0  0  0  0  0  0  0
    1.1947   -1.0219   -1.0736 N   0  0  0  0  0  0  0  0  0  0  0  0
    1.1947   -1.0219   -2.2668 O   0  0  0  0  0  0  0  0  0  0  0  0
    0.1387    0.3953    0.2957 H   0  0  0  0  0  0  0  0  0  0  0  0
    1.1947    1.1043   -1.2386 H   0  0  0  0  0  0  0  0  0  0  0  0
    2.0747    0.3834    0.1670 H   0  0  0  0  0  0  0  0  0  0  0  0
   -1.1157    1.7649    1.7832 C   0  0  0  0  0  0  0  0  0  0  0  0
   -0.9228    0.4670    1.0723 C   0  0  0  0  0  3  0  0  0  0  0  0
   -1.7287   -0.4962    1.2105 N   0  0  0  0  0  0  0  0  0  0  0  0
   -2.0136    1.7301    2.3978 H   0  0  0  0  0  0  0  0  0  0  0  0
   -0.2495    1.9824    2.4134 H   0  0  0  0  0  0  0  0  0  0  0  0
   -1.1978    2.5818    1.0618 H   0  0  0  0  0  0  0  0  0  0  0  0
   -1.4399   -1.2972    0.6527 H   0  0  0  0  0  0  0  0  0  0  0  0
  1  2  1  0
  1  4  1  0
  1  5  1  0
  1  6  1  0
  2  3  2  0
  7  8  1  0
  7 10  1  0
  7 11  1  0
  7 12  1  0
  8  9  2  3
  9 13  1  0
M  RAD  1   8   2
M  END
>  <reaction>  (10) 
rmg_rxn_16609

>  <mol_properties>  (10) 
{"0": {"label": "*1", "atom_type": "Cs"}, "1": {"label": "*0", "atom_type": "N3d"}, "3": {"label": "*2", "atom_type": "H0"}, "7": {"label": "*3", "atom_type": "Cd"}, "8": {"label": "*4", "atom_type": "N3d"}}

>  <type>  (10) 
unop_6

>  <geom_source>  (10) 
Heuristics

$$$$

     RDKit          3D

 13 11  0  0  0  0  0  0  0  0999 V2000
    1.1849    0.2399   -0.4169 C   0  0  0  0  0  0  0  0  0  0  0  0
    1.1849   -1.1058   -1.0137 N   0  0  0  0  0  0  0  0  0  0  0  0
    1.1849   -1.1058   -2.2068 O   0  0  0  0  0  0  0  0  0  0  0  0
    0.1289    0.3113    0.3557 H   0  0  0  0  0  0  0  0  0  0  0  0
    1.1849    1.0204   -1.1787 H   0  0  0  0  0  0  0  0  0  0  0  0
    2.0649    0.2994    0.2269 H   0  0  0  0  0  0  0  0  0  0  0  0
   -2.1791    0.8774    0.4773 C   0  0  0  0  0  0  0  0  0  0  0  0
   -0.9326    0.3831    1.1323 C   0  0  0  0  0  3  0  0  0  0  0  0
   -0.6115    0.7295    2.3041 N   0  0  0  0  0  0  0  0  0  0  0  0
   -2.7205    1.5429    1.1475 H   0  0  0  0  0  0  0  0  0  0  0  0
   -1.9351    1.4081   -0.4465 H   0  0  0  0  0  0  0  0  0  0  0  0
   -2.8197    0.0359    0.2014 H   0  0  0  0  0  0  0  0  0  0  0  0
    0.2658    0.2968    2.5857 H   0  0  0  0  0  0  0  0  0  0  0  0
  1  2  1  0
  1  4  1  0
  1  5  1  0
  1  6  1  0
  2  3  2  0
  7  8  1  0
  7 10  1  0
  7 11  1  0
  7 12  1  0
  8  9  2  3
  9 13  1  0
M  RAD  1   8   2
M  END
>  <reaction>  (11) 
rmg_rxn_16609

>  <mol_properties>  (11) 
{"0": {"label": "*1", "atom_type": "Cs"}, "1": {"label": "*0", "atom_type": "N3d"}, "3": {"label": "*2", "atom_type": "H0"}, "7": {"label": "*3", "atom_type": "Cd"}, "8": {"label": "*4", "atom_type": "N3d"}}

>  <type>  (11) 
unop_7

>  <geom_source>  (11) 
Heuristics

$$$$

     RDKit          3D

 13 11  0  0  0  0  0  0  0  0999 V2000
    1.1397    0.2418   -0.4736 C   0  0  0  0  0  0  0  0  0  0  0  0
    1.1397   -1.1039   -1.0704 N   0  0  0  0  0  0  0  0  0  0  0  0
    1.1397   -1.1039   -2.2636 O   0  0  0  0  0  0  0  0  0  0  0  0
    0.0837    0.3132    0.2990 H   0  0  0  0  0  0  0  0  0  0  0  0
    1.1397    1.0223   -1.2354 H   0  0  0  0  0  0  0  0  0  0  0  0
    2.0198    0.3013    0.1702 H   0  0  0  0  0  0  0  0  0  0  0  0
   -1.9633    1.4492    0.7245 C   0  0  0  0  0  0  0  0  0  0  0  0
   -0.9777    0.3850    1.0755 C   0  0  0  0  0  3  0  0  0  0  0  0
   -0.6558    0.1417    2.2728 N   0  0  0  0  0  0  0  0  0  0  0  0
   -2.3266    1.9407    1.6253 H   0  0  0  0  0  0  0  0  0  0  0  0
   -1.5016    2.1887    0.0653 H   0  0  0  0  0  0  0  0  0  0  0  0
   -2.8060    1.0178    0.1782 H   0  0  0  0  0  0  0  0  0  0  0  0
    0.0257   -0.6127    2.3219 H   0  0  0  0  0  0  0  0  0  0  0  0
  1  2  1  0
  1  4  1  0
  1  5  1  0
  1  6  1  0
  2  3  2  0
  7  8  1  0
  7 10  1  0
  7 11  1  0
  7 12  1  0
  8  9  2  3
  9 13  1  0
M  RAD  1   8   2
M  END
>  <reaction>  (12) 
rmg_rxn_16609

>  <mol_properties>  (12) 
{"0": {"label": "*1", "atom_type": "Cs"}, "1": {"label": "*0", "atom_type": "N3d"}, "3": {"label": "*2", "atom_type": "H0"}, "7": {"label": "*3", "atom_type": "Cd"}, "8": {"label": "*4", "atom_type": "N3d"}}

>  <type>  (12) 
unop_8

>  <geom_source>  (12) 
Heuristics

$$$$

     RDKit          3D

 13 11  0  0  0  0  0  0  0  0999 V2000
    1.1099    0.2874   -0.5238 C   0  0  0  0  0  0  0  0  0  0  0  0
    1.1099   -1.0584   -1.1207 N   0  0  0  0  0  0  0  0  0  0  0  0
    1.1099   -1.0584   -2.3138 O   0  0  0  0  0  0  0  0  0  0  0  0
    0.0538    0.3588    0.2487 H   0  0  0  0  0  0  0  0  0  0  0  0
    1.1099    1.0678   -1.2856 H   0  0  0  0  0  0  0  0  0  0  0  0
    1.9899    0.3469    0.1200 H   0  0  0  0  0  0  0  0  0  0  0  0
   -0.8012    0.0065    2.4412 C   0  0  0  0  0  0  0  0  0  0  0  0
   -1.0076    0.4305    1.0253 C   0  0  0  0  0  3  0  0  0  0  0  0
   -1.7197    1.4299    0.7246 N   0  0  0  0  0  0  0  0  0  0  0  0
   -1.3386    0.6694    3.1170 H   0  0  0  0  0  0  0  0  0  0  0  0
   -1.1492   -1.0200    2.5823 H   0  0  0  0  0  0  0  0  0  0  0  0
    0.2637    0.0184    2.6873 H   0  0  0  0  0  0  0  0  0  0  0  0
   -1.7472    1.5692   -0.2833 H   0  0  0  0  0  0  0  0  0  0  0  0
  1  2  1  0
  1  4  1  0
  1  5  1  0
  1  6  1  0
  2  3  2  0
  7  8  1  0
  7 10  1  0
  7 11  1  0
  7 12  1  0
  8  9  2  3
  9 13  1  0
M  RAD  1   8   2
M  END
>  <reaction>  (13) 
rmg_rxn_16609

>  <mol_properties>  (13) 
{"0": {"label": "*1", "atom_type": "Cs"}, "1": {"label": "*0", "atom_type": "N3d"}, "3": {"label": "*2", "atom_type": "H0"}, "7": {"label": "*3", "atom_type": "Cd"}, "8": {"label": "*4", "atom_type": "N3d"}}

>  <type>  (13) 
unop_9

>  <geom_source>  (13) 
Heuristics

$$$$

     RDKit          3D

 13 11  0  0  0  0  0  0  0  0999 V2000
   -0.9560    1.1610   -0.1316 C   0  0  0  0  0  0  0  0  0  0  0  0
   -1.8771    0.2575   -0.3204 N   0  0  0  0  0  0  0  0  0  0  0  0
   -2.2448   -0.6837    0.3940 O   0  0  0  0  0  1  0  0  0  0  0  0
    0.3233    0.6172   -0.0883 H   0  0  0  0  0  0  0  0  0  0  0  0
   -0.9050    1.6349    0.8555 H   0  0  0  0  0  0  0  0  0  0  0  0
   -0.8518    1.8474   -0.9647 H   0  0  0  0  0  0  0  0  0  0  0  0
    1.3385   -1.4019   -0.2234 C   0  0  0  0  0  0  0  0  0  0  0  0
    1.4512    0.0551   -0.0093 C   0  0  0  0  0  0  0  0  0  0  0  0
    2.5131    0.6498    0.2310 N   0  0  0  0  0  0  0  0  0  0  0  0
    0.9235   -1.5901   -1.2127 H   0  0  0  0  0  0  0  0  0  0  0  0
    2.3079   -1.8858   -0.1318 H   0  0  0  0  0  0  0  0  0  0  0  0
    0.6429   -1.8197    0.5031 H   0  0  0  0  0  0  0  0  0  0  0  0
    2.5042    1.6539    0.3682 H   0  0  0  0  0  0  0  0  0  0  0  0
  1  2  2  3
  1  5  1  0
  1  6  1  0
  2  3  1  0
  4  8  1  0
  7  8  1  0
  7 10  1  0
  7 11  1  0
  7 12  1  0
  8  9  2  3
  9 13  1  0
M  RAD  1   3   2
M  END
>  <reaction>  (14) 
rmg_rxn_16609

>  <mol_properties>  (14) 
{"0": {"label": "*1", "atom_type": "Cs"}, "1": {"label": "*0", "atom_type": "N3d"}, "3": {"label": "*2", "atom_type": "H0"}, "7": {"label": "*3", "atom_type": "Cd"}, "8": {"label": "*4", "atom_type": "N3d"}}

>  <type>  (14) 
unop_10

>  <geom_source>  (14) 
Heuristics

$$$$

     RDKit          3D

 13 11  0  0  0  0  0  0  0  0999 V2000
    1.2463    0.3648   -0.3968 C   0  0  0  0  0  0  0  0  0  0  0  0
    1.2463   -0.9810   -0.9936 N   0  0  0  0  0  0  0  0  0  0  0  0
    1.2463   -0.9810   -2.1867 O   0  0  0  0  0  0  0  0  0  0  0  0
    0.1903    0.4362    0.3758 H   0  0  0  0  0  0  0  0  0  0  0  0
    1.2463    1.1452   -1.1586 H   0  0  0  0  0  0  0  0  0  0  0  0
    2.1263    0.4243    0.2470 H   0  0  0  0  0  0  0  0  0  0  0  0
   -2.0378   -0.3208    0.7290 C   0  0  0  0  0  0  0  0  0  0  0  0
   -0.8712    0.5079    1.1523 C   0  0  0  0  0  3  0  0  0  0  0  0
   -0.9924    1.4626    1.9710 N   0  0  0  0  0  0  0  0  0  0  0  0
   -2.9457    0.0245    1.2203 H   0  0  0  0  0  0  0  0  0  0  0  0
   -2.1655   -0.2668   -0.3552 H   0  0  0  0  0  0  0  0  0  0  0  0
   -1.8645   -1.3711    0.9771 H   0  0  0  0  0  0  0  0  0  0  0  0
   -0.0960    1.9134    2.1421 H   0  0  0  0  0  0  0  0  0  0  0  0
  1  2  1  0
  1  4  1  0
  1  5  1  0
  1  6  1  0
  2  3  2  0
  7  8  1  0
  7 10  1  0
  7 11  1  0
  7 12  1  0
  8  9  2  3
  9 13  1  0
M  RAD  1   8   2
M  END
>  <reaction>  (15) 
rmg_rxn_16609

>  <mol_properties>  (15) 
{"0": {"label": "*1", "atom_type": "Cs"}, "1": {"label": "*0", "atom_type": "N3d"}, "3": {"label": "*2", "atom_type": "H0"}, "7": {"label": "*3", "atom_type": "Cd"}, "8": {"label": "*4", "atom_type": "N3d"}}

>  <type>  (15) 
unop_11

>  <geom_source>  (15) 
Heuristics

$$$$

     RDKit          3D

 13 11  0  0  0  0  0  0  0  0999 V2000
    1.1197    0.3595   -0.5411 C   0  0  0  0  0  0  0  0  0  0  0  0
    1.1197   -0.9862   -1.1380 N   0  0  0  0  0  0  0  0  0  0  0  0
    1.1197   -0.9862   -2.3311 O   0  0  0  0  0  0  0  0  0  0  0  0
    0.0636    0.4309    0.2314 H   0  0  0  0  0  0  0  0  0  0  0  0
    1.1197    1.1400   -1.3029 H   0  0  0  0  0  0  0  0  0  0  0  0
    1.9997    0.4191    0.1027 H   0  0  0  0  0  0  0  0  0  0  0  0
   -1.0523   -0.4911    2.1199 C   0  0  0  0  0  0  0  0  0  0  0  0
   -0.9978    0.5027    1.0080 C   0  0  0  0  0  3  0  0  0  0  0  0
   -1.5028    1.6557    1.1177 N   0  0  0  0  0  0  0  0  0  0  0  0
   -1.5698   -0.0693    2.9797 H   0  0  0  0  0  0  0  0  0  0  0  0
   -1.5677   -1.3972    1.7913 H   0  0  0  0  0  0  0  0  0  0  0  0
   -0.0414   -0.7877    2.4110 H   0  0  0  0  0  0  0  0  0  0  0  0
   -1.3716    2.1948    0.2642 H   0  0  0  0  0  0  0  0  0  0  0  0
  1  2  1  0
  1  4  1  0
  1  5  1  0
  1  6  1  0
  2  3  2  0
  7  8  1  0
  7 10  1  0
  7 11  1  0
  7 12  1  0
  8  9  2  3
  9 13  1  0
M  RAD  1   8   2
M  END
>  <reaction>  (16) 
rmg_rxn_16609

>  <mol_properties>  (16) 
{"0": {"label": "*1", "atom_type": "Cs"}, "1": {"label": "*0", "atom_type": "N3d"}, "3": {"label": "*2", "atom_type": "H0"}, "7": {"label": "*3", "atom_type": "Cd"}, "8": {"label": "*4", "atom_type": "N3d"}}

>  <type>  (16) 
unop_12

>  <geom_source>  (16) 
Heuristics

$$$$

     RDKit          3D

 13 11  0  0  0  0  0  0  0  0999 V2000
    1.1349    0.2948   -0.5145 C   0  0  0  0  0  0  0  0  0  0  0  0
    1.1349   -1.0509   -1.1113 N   0  0  0  0  0  0  0  0  0  0  0  0
    1.1349   -1.0509   -2.3044 O   0  0  0  0  0  0  0  0  0  0  0  0
    0.0789    0.3662    0.2581 H   0  0  0  0  0  0  0  0  0  0  0  0
    1.1349    1.0753   -1.2763 H   0  0  0  0  0  0  0  0  0  0  0  0
    2.0149    0.3543    0.1293 H   0  0  0  0  0  0  0  0  0  0  0  0
   -1.5825    1.7963    1.1836 C   0  0  0  0  0  0  0  0  0  0  0  0
   -0.9826    0.4380    1.0346 C   0  0  0  0  0  3  0  0  0  0  0  0
   -1.0236   -0.4157    1.9651 N   0  0  0  0  0  0  0  0  0  0  0  0
   -2.0292    1.9067    2.1701 H   0  0  0  0  0  0  0  0  0  0  0  0
   -0.8182    2.5643    1.0402 H   0  0  0  0  0  0  0  0  0  0  0  0
   -2.3445    1.9584    0.4169 H   0  0  0  0  0  0  0  0  0  0  0  0
   -0.5663   -1.2816    1.6870 H   0  0  0  0  0  0  0  0  0  0  0  0
  1  2  1  0
  1  4  1  0
  1  5  1  0
  1  6  1  0
  2  3  2  0
  7  8  1  0
  7 10  1  0
  7 11  1  0
  7 12  1  0
  8  9  2  3
  9 13  1  0
M  RAD  1   8   2
M  END
>  <reaction>  (17) 
rmg_rxn_16609

>  <mol_properties>  (17) 
{"0": {"label": "*1", "atom_type": "Cs"}, "1": {"label": "*0", "atom_type": "N3d"}, "3": {"label": "*2", "atom_type": "H0"}, "7": {"label": "*3", "atom_type": "Cd"}, "8": {"label": "*4", "atom_type": "N3d"}}

>  <type>  (17) 
unop_13

>  <geom_source>  (17) 
Heuristics

$$$$

     RDKit          3D

 13 11  0  0  0  0  0  0  0  0999 V2000
    1.2194    0.4195   -0.4518 C   0  0  0  0  0  0  0  0  0  0  0  0
    1.2194   -0.9262   -1.0486 N   0  0  0  0  0  0  0  0  0  0  0  0
    1.2194   -0.9262   -2.2417 O   0  0  0  0  0  0  0  0  0  0  0  0
    0.1634    0.4909    0.3208 H   0  0  0  0  0  0  0  0  0  0  0  0
    1.2194    1.2000   -1.2136 H   0  0  0  0  0  0  0  0  0  0  0  0
    2.0995    0.4790    0.1920 H   0  0  0  0  0  0  0  0  0  0  0  0
   -1.7452   -0.6648    1.1474 C   0  0  0  0  0  0  0  0  0  0  0  0
   -0.8980    0.5627    1.0974 C   0  0  0  0  0  3  0  0  0  0  0  0
   -1.1856    1.5999    1.7591 N   0  0  0  0  0  0  0  0  0  0  0  0
   -2.5944   -0.5119    1.8110 H   0  0  0  0  0  0  0  0  0  0  0  0
   -2.1042   -0.9167    0.1462 H   0  0  0  0  0  0  0  0  0  0  0  0
   -1.1559   -1.5161    1.4978 H   0  0  0  0  0  0  0  0  0  0  0  0
   -0.4989    2.3349    1.6032 H   0  0  0  0  0  0  0  0  0  0  0  0
  1  2  1  0
  1  4  1  0
  1  5  1  0
  1  6  1  0
  2  3  2  0
  7  8  1  0
  7 10  1  0
  7 11  1  0
  7 12  1  0
  8  9  2  3
  9 13  1  0
M  RAD  1   8   2
M  END
>  <reaction>  (18) 
rmg_rxn_16609

>  <mol_properties>  (18) 
{"0": {"label": "*1", "atom_type": "Cs"}, "1": {"label": "*0", "atom_type": "N3d"}, "3": {"label": "*2", "atom_type": "H0"}, "7": {"label": "*3", "atom_type": "Cd"}, "8": {"label": "*4", "atom_type": "N3d"}}

>  <type>  (18) 
unop_14

>  <geom_source>  (18) 
Heuristics

$$$$

     RDKit          3D

 13 11  0  0  0  0  0  0  0  0999 V2000
    2.0756   -1.3428   -1.3375 O   0  0  0  0  0  1  0  0  0  0  0  0
   -1.5578    0.9806    1.2294 N   0  0  0  0  0  0  0  0  0  0  0  0
    2.4630   -0.7384   -0.3847 N   0  0  0  0  0  0  0  0  0  0  0  0
   -1.5652   -0.5709   -0.6120 C   0  0  0  0  0  0  0  0  0  0  0  0
   -0.8832    0.1969    0.4715 C   0  0  0  0  0  0  0  0  0  0  0  0
    1.6687    0.3239    0.1689 C   0  0  0  0  0  0  0  0  0  0  0  0
   -2.3375   -1.2369   -0.1730 H   0  0  0  0  0  0  0  0  0  0  0  0
   -2.0446    0.1307   -1.3265 H   0  0  0  0  0  0  0  0  0  0  0  0
   -0.8203   -1.1886   -1.1551 H   0  0  0  0  0  0  0  0  0  0  0  0
    0.3640    0.0725    0.6407 H   0  0  0  0  0  0  0  0  0  0  0  0
    1.5598    1.1401   -0.5762 H   0  0  0  0  0  0  0  0  0  0  0  0
    2.1665    0.7219    1.0770 H   0  0  0  0  0  0  0  0  0  0  0  0
   -1.0891    1.5110    1.9773 H   0  0  0  0  0  0  0  0  0  0  0  0
  1  3  1  0
  2  5  2  3
  2 13  1  0
  3  6  2  3
  4  5  1  0
  4  7  1  0
  4  8  1  0
  4  9  1  0
  5 10  1  0
  6 11  1  0
  6 12  1  0
M  RAD  1   1   2
M  END
>  <reaction>  (19) 
rmg_rxn_16609

>  <mol_properties>  (19) 
{"0": {"label": "*1", "atom_type": "Cs"}, "1": {"label": "*0", "atom_type": "N3d"}, "3": {"label": "*2", "atom_type": "H0"}, "7": {"label": "*3", "atom_type": "Cd"}, "8": {"label": "*4", "atom_type": "N3d"}}

>  <type>  (19) 
unop_15

>  <geom_source>  (19) 
AutoTST

$$$$

     RDKit          3D

 13 11  0  0  0  0  0  0  0  0999 V2000
    1.1648    0.4163   -0.5130 C   0  0  0  0  0  0  0  0  0  0  0  0
    1.1648   -0.9295   -1.1098 N   0  0  0  0  0  0  0  0  0  0  0  0
    1.1648   -0.9295   -2.3029 O   0  0  0  0  0  0  0  0  0  0  0  0
    0.1088    0.4877    0.2596 H   0  0  0  0  0  0  0  0  0  0  0  0
    1.1648    1.1968   -1.2747 H   0  0  0  0  0  0  0  0  0  0  0  0
    2.0448    0.4758    0.1308 H   0  0  0  0  0  0  0  0  0  0  0  0
   -1.3928   -0.7285    1.6482 C   0  0  0  0  0  0  0  0  0  0  0  0
   -0.9527    0.5595    1.0362 C   0  0  0  0  0  3  0  0  0  0  0  0
   -1.3317    1.6771    1.4875 N   0  0  0  0  0  0  0  0  0  0  0  0
   -2.0525   -0.5401    2.4934 H   0  0  0  0  0  0  0  0  0  0  0  0
   -1.9138   -1.3400    0.9070 H   0  0  0  0  0  0  0  0  0  0  0  0
   -0.5254   -1.3034    1.9824 H   0  0  0  0  0  0  0  0  0  0  0  0
   -0.9339    2.4430    0.9478 H   0  0  0  0  0  0  0  0  0  0  0  0
  1  2  1  0
  1  4  1  0
  1  5  1  0
  1  6  1  0
  2  3  2  0
  7  8  1  0
  7 10  1  0
  7 11  1  0
  7 12  1  0
  8  9  2  3
  9 13  1  0
M  RAD  1   8   2
M  END
>  <reaction>  (20) 
rmg_rxn_16609

>  <mol_properties>  (20) 
{"0": {"label": "*1", "atom_type": "Cs"}, "1": {"label": "*0", "atom_type": "N3d"}, "3": {"label": "*2", "atom_type": "H0"}, "7": {"label": "*3", "atom_type": "Cd"}, "8": {"label": "*4", "atom_type": "N3d"}}

>  <type>  (20) 
unop_16

>  <geom_source>  (20) 
gaussian_log

$$$$
