
     RDKit          3D

 14 13  0  0  0  0  0  0  0  0999 V2000
   -2.6591   -0.0450    0.7000 C   0  0  0  0  0  0  0  0  0  0  0  0
   -1.3737    0.0499    0.9953 C   0  0  0  0  0  0  0  0  0  0  0  0
   -0.2409   -0.3751    0.1081 C   0  0  0  0  0  0  0  0  0  0  0  0
   -0.6541   -1.0253   -1.0741 O   0  0  0  0  0  0  0  0  0  0  0  0
   -0.8556   -2.4003   -0.9287 C   0  0  0  0  0  0  0  0  0  0  0  0
    0.3393   -3.1125   -0.7901 O   0  0  0  0  0  0  0  0  0  0  0  0
   -2.9891   -0.4550   -0.2467 H   0  0  0  0  0  0  0  0  0  0  0  0
   -3.4198    0.2910    1.3925 H   0  0  0  0  0  0  0  0  0  0  0  0
   -1.0669    0.4739    1.9478 H   0  0  0  0  0  0  0  0  0  0  0  0
    0.4535   -1.0117    0.6689 H   0  0  0  0  0  0  0  0  0  0  0  0
    0.3247    0.5078   -0.2023 H   0  0  0  0  0  0  0  0  0  0  0  0
   -1.4079   -2.7062   -1.8216 H   0  0  0  0  0  0  0  0  0  0  0  0
   -1.4388   -2.6266   -0.0318 H   0  0  0  0  0  0  0  0  0  0  0  0
    0.8543   -2.9921   -1.5911 H   0  0  0  0  0  0  0  0  0  0  0  0
  1  2  2  3
  1  7  1  0
  1  8  1  0
  2  3  1  0
  2  9  1  0
  3  4  1  0
  3 10  1  0
  3 11  1  0
  4  5  1  0
  5  6  1  0
  5 12  1  0
  5 13  1  0
  6 14  1  0
M  END
>  <reaction>  (1) 
rmg_rxn_15450

>  <mol_properties>  (1) 
{"5": {"label": "donator", "atom_type": "O2s"}, "13": {"label": "d_hydrogen", "atom_type": "H0"}}

>  <type>  (1) 
r1h

$$$$

     RDKit          3D

  5  4  0  0  0  0  0  0  0  0999 V2000
    0.8934    0.3742    0.4948 O   0  0  0  0  0  0  0  0  0  0  0  0
    0.1582   -0.1610   -0.5904 N   0  0  0  0  0  0  0  0  0  0  0  0
   -1.0297   -0.3739   -0.4689 C   0  0  0  0  0  3  0  0  0  0  0  0
    1.7804    0.4382    0.1306 H   0  0  0  0  0  0  0  0  0  0  0  0
   -1.8023   -0.2775    0.2859 H   0  0  0  0  0  0  0  0  0  0  0  0
  1  2  1  0
  1  4  1  0
  2  3  2  3
  3  5  1  0
M  RAD  1   3   2
M  END
>  <reaction>  (2) 
rmg_rxn_15450

>  <mol_properties>  (2) 
{"2": {"label": "acceptor", "atom_type": "Cd"}}

>  <type>  (2) 
r2

$$$$

     RDKit          3D

  6  5  0  0  0  0  0  0  0  0999 V2000
    1.2314    0.0428    0.5088 O   0  0  0  0  0  0  0  0  0  0  0  0
    0.2987    0.2341   -0.4915 N   0  0  0  0  0  0  0  0  0  0  0  0
   -0.8599   -0.1122   -0.1290 C   0  0  0  0  0  0  0  0  0  0  0  0
    2.0507    0.3401    0.1082 H   0  0  0  0  0  0  0  0  0  0  0  0
   -1.0700   -0.5112    0.8610 H   0  0  0  0  0  0  0  0  0  0  0  0
   -1.6509    0.0064   -0.8574 H   0  0  0  0  0  0  0  0  0  0  0  0
  1  2  1  0
  1  4  1  0
  2  3  2  3
  3  5  1  0
  3  6  1  0
M  END
>  <reaction>  (3) 
rmg_rxn_15450

>  <mol_properties>  (3) 
{"2": {"label": "acceptor", "atom_type": "Cd"}, "5": {"label": "a_hydrogen", "atom_type": "H0"}}

>  <type>  (3) 
r2h

$$$$

     RDKit          3D

 19 17  0  0  0  0  0  0  0  0999 V2000
    3.2208   -0.6008   -0.7653 O   0  0  0  0  0  0  0  0  0  0  0  0
    3.3074    0.1576    0.3806 N   0  0  0  0  0  0  0  0  0  0  0  0
    2.3305    0.8856    0.6310 C   0  0  0  0  0  3  0  0  0  0  0  0
    4.0565   -1.0734   -0.7829 H   0  0  0  0  0  0  0  0  0  0  0  0
    2.3137    1.4969    1.5264 H   0  0  0  0  0  0  0  0  0  0  0  0
   -3.8605    0.3970   -0.5157 C   0  0  0  0  0  0  0  0  0  0  0  0
   -3.1210   -0.3904    0.2490 C   0  0  0  0  0  0  0  0  0  0  0  0
   -1.9032    0.0647    0.9948 C   0  0  0  0  0  0  0  0  0  0  0  0
   -0.7542   -0.6956    0.6549 O   0  0  0  0  0  0  0  0  0  0  0  0
   -0.2322   -0.4188   -0.6132 C   0  0  0  0  0  0  0  0  0  0  0  0
    0.2572    0.8585   -0.7570 O   0  0  0  0  0  0  0  0  0  0  0  0
   -3.6112    1.4441   -0.6520 H   0  0  0  0  0  0  0  0  0  0  0  0
   -4.7416    0.0301   -1.0274 H   0  0  0  0  0  0  0  0  0  0  0  0
   -3.3782   -1.4398    0.3622 H   0  0  0  0  0  0  0  0  0  0  0  0
   -2.0403   -0.0878    2.0670 H   0  0  0  0  0  0  0  0  0  0  0  0
   -1.7233    1.1304    0.8221 H   0  0  0  0  0  0  0  0  0  0  0  0
   -1.0098   -0.5055   -1.3892 H   0  0  0  0  0  0  0  0  0  0  0  0
    0.5348   -1.1782   -0.7855 H   0  0  0  0  0  0  0  0  0  0  0  0
    1.2980    0.9383   -0.1218 H   0  0  0  0  0  0  0  0  0  0  0  0
  1  2  1  0
  1  4  1  0
  2  3  2  3
  3  5  1  0
  6  7  2  3
  6 12  1  0
  6 13  1  0
  7  8  1  0
  7 14  1  0
  8  9  1  0
  8 15  1  0
  8 16  1  0
  9 10  1  0
 10 11  1  0
 10 17  1  0
 10 18  1  0
 11 19  1  0
M  RAD  1   3   2
M  END
>  <reaction>  (4) 
rmg_rxn_15450

>  <mol_properties>  (4) 
{"1": {"label": "*4", "atom_type": "N3d"}, "2": {"label": "*3", "atom_type": "Cd"}, "9": {"label": "*0", "atom_type": "Cs"}, "10": {"label": "*1", "atom_type": "O2s"}, "18": {"label": "*2", "atom_type": "H0"}}

>  <type>  (4) 
ts

$$$$

     RDKit          3D

 19 17  0  0  0  0  0  0  0  0999 V2000
    3.1859   -0.3154   -0.2067 O   0  0  0  0  0  0  0  0  0  0  0  0
    2.6138    0.8814   -0.3895 N   0  0  0  0  0  0  0  0  0  0  0  0
    1.5038    1.2279    0.0212 C   0  0  0  0  0  3  0  0  0  0  0  0
    2.6154   -0.9196    0.3073 H   0  0  0  0  0  0  0  0  0  0  0  0
    1.1318    2.2167   -0.1677 H   0  0  0  0  0  0  0  0  0  0  0  0
   -2.8044    1.4195    0.4012 C   0  0  0  0  0  0  0  0  0  0  0  0
   -2.0124    0.8285   -0.4721 C   0  0  0  0  0  0  0  0  0  0  0  0
   -2.0295   -0.6406   -0.7713 C   0  0  0  0  0  0  0  0  0  0  0  0
   -0.7476   -1.2452   -0.6824 O   0  0  0  0  0  0  0  0  0  0  0  0
   -0.2701   -1.4285    0.6197 C   0  0  0  0  0  0  0  0  0  0  0  0
    0.0289   -0.2957    1.3080 O   0  0  0  0  0  0  0  0  0  0  0  0
   -3.5292    0.8653    0.9743 H   0  0  0  0  0  0  0  0  0  0  0  0
   -2.7648    2.4802    0.5799 H   0  0  0  0  0  0  0  0  0  0  0  0
   -1.2839    1.3921   -1.0394 H   0  0  0  0  0  0  0  0  0  0  0  0
   -2.3331   -0.8029   -1.8112 H   0  0  0  0  0  0  0  0  0  0  0  0
   -2.7329   -1.1587   -0.1050 H   0  0  0  0  0  0  0  0  0  0  0  0
    0.6020   -2.0991    0.4916 H   0  0  0  0  0  0  0  0  0  0  0  0
   -1.0242   -1.9592    1.2340 H   0  0  0  0  0  0  0  0  0  0  0  0
    0.7164    0.4380    0.6990 H   0  0  0  0  0  0  0  0  0  0  0  0
  1  2  1  0
  1  4  1  0
  2  3  2  3
  3  5  1  0
  6  7  2  3
  6 12  1  0
  6 13  1  0
  7  8  1  0
  7 14  1  0
  8  9  1  0
  8 15  1  0
  8 16  1  0
  9 10  1  0
 10 11  1  0
 10 17  1  0
 10 18  1  0
 11 19  1  0
M  RAD  1   3   2
M  END
>  <reaction>  (5) 
rmg_rxn_15450

>  <mol_properties>  (5) 
{"1": {"label": "*4", "atom_type": "N3d"}, "2": {"label": "*3", "atom_type": "Cd"}, "9": {"label": "*0", "atom_type": "Cs"}, "10": {"label": "*1", "atom_type": "O2s"}, "18": {"label": "*2", "atom_type": "H0"}}

>  <type>  (5) 
unop_1

>  <geom_source>  (5) 
crest_best.xyz

$$$$

     RDKit          3D

 19 17  0  0  0  0  0  0  0  0999 V2000
    0.0725    3.3045    2.6806 O   0  0  0  0  0  0  0  0  0  0  0  0
   -0.1737    2.1512    1.9620 N   0  0  0  0  0  0  0  0  0  0  0  0
    0.2890    2.2179    0.7894 C   0  0  0  0  0  3  0  0  0  0  0  0
   -0.3237    3.1225    3.5350 H   0  0  0  0  0  0  0  0  0  0  0  0
    0.8155    3.0934    0.4154 H   0  0  0  0  0  0  0  0  0  0  0  0
   -0.6915   -3.0242   -2.4158 C   0  0  0  0  0  0  0  0  0  0  0  0
   -0.6915   -3.0242   -1.0935 C   0  0  0  0  0  0  0  0  0  0  0  0
   -0.6915   -1.8036   -0.2209 C   0  0  0  0  0  0  0  0  0  0  0  0
   -0.5655   -0.5921   -0.9332 O   0  0  0  0  0  0  0  0  0  0  0  0
    0.7552   -0.2187   -1.1953 C   0  0  0  0  0  0  0  0  0  0  0  0
    1.4316    0.2216   -0.0539 O   0  0  0  0  0  0  0  0  0  0  0  0
   -0.6917   -2.0979   -2.9774 H   0  0  0  0  0  0  0  0  0  0  0  0
   -0.6985   -3.9497   -2.9765 H   0  0  0  0  0  0  0  0  0  0  0  0
   -0.7009   -3.9665   -0.5521 H   0  0  0  0  0  0  0  0  0  0  0  0
    0.0997   -1.8846    0.5336 H   0  0  0  0  0  0  0  0  0  0  0  0
   -1.6386   -1.7493    0.3229 H   0  0  0  0  0  0  0  0  0  0  0  0
    0.6872    0.5663   -1.9535 H   0  0  0  0  0  0  0  0  0  0  0  0
    1.3402   -1.0594   -1.5782 H   0  0  0  0  0  0  0  0  0  0  0  0
    0.8945    1.1601    0.3425 H   0  0  0  0  0  0  0  0  0  0  0  0
  1  2  1  0
  1  4  1  0
  2  3  2  3
  3  5  1  0
  6  7  2  3
  6 12  1  0
  6 13  1  0
  7  8  1  0
  7 14  1  0
  8  9  1  0
  8 15  1  0
  8 16  1  0
  9 10  1  0
 10 11  1  0
 10 17  1  0
 10 18  1  0
 11 19  1  0
M  RAD  1   3   2
M  END
>  <reaction>  (6) 
rmg_rxn_15450

>  <mol_properties>  (6) 
{"1": {"label": "*4", "atom_type": "N3d"}, "2": {"label": "*3", "atom_type": "Cd"}, "9": {"label": "*0", "atom_type": "Cs"}, "10": {"label": "*1", "atom_type": "O2s"}, "18": {"label": "*2", "atom_type": "H0"}}

>  <type>  (6) 
unop_2

>  <geom_source>  (6) 
Heuristics

$$$$

     RDKit          3D

 19 17  0  0  0  0  0  0  0  0999 V2000
   -3.9506    0.7256   -0.0576 O   0  0  0  0  0  0  0  0  0  0  0  0
   -2.7320    0.0776    0.0674 N   0  0  0  0  0  0  0  0  0  0  0  0
   -2.2617   -0.7619   -0.6865 C   0  0  0  0  0  3  0  0  0  0  0  0
   -3.9909    1.3389    0.6915 H   0  0  0  0  0  0  0  0  0  0  0  0
   -2.5880   -1.2302   -1.6028 H   0  0  0  0  0  0  0  0  0  0  0  0
    3.9631   -0.3165   -0.3061 C   0  0  0  0  0  0  0  0  0  0  0  0
    3.0697    0.5977    0.0203 C   0  0  0  0  0  0  0  0  0  0  0  0
    1.7150    0.7182   -0.6152 C   0  0  0  0  0  0  0  0  0  0  0  0
    0.6752    0.7969    0.3506 O   0  0  0  0  0  0  0  0  0  0  0  0
    0.3913   -0.4287    0.9763 C   0  0  0  0  0  0  0  0  0  0  0  0
   -0.0266   -1.4094    0.1414 O   0  0  0  0  0  0  0  0  0  0  0  0
    3.7678   -1.0484   -1.0729 H   0  0  0  0  0  0  0  0  0  0  0  0
    4.9279   -0.3676    0.1696 H   0  0  0  0  0  0  0  0  0  0  0  0
    3.2675    1.3225    0.7990 H   0  0  0  0  0  0  0  0  0  0  0  0
    1.5320   -0.1235   -1.2945 H   0  0  0  0  0  0  0  0  0  0  0  0
    1.6476    1.6561   -1.1760 H   0  0  0  0  0  0  0  0  0  0  0  0
   -0.3586   -0.1756    1.7450 H   0  0  0  0  0  0  0  0  0  0  0  0
    1.2978   -0.8176    1.4807 H   0  0  0  0  0  0  0  0  0  0  0  0
   -1.0769   -1.1498   -0.2863 H   0  0  0  0  0  0  0  0  0  0  0  0
  1  2  1  0
  1  4  1  0
  2  3  2  3
  3  5  1  0
  6  7  2  3
  6 12  1  0
  6 13  1  0
  7  8  1  0
  7 14  1  0
  8  9  1  0
  8 15  1  0
  8 16  1  0
  9 10  1  0
 10 11  1  0
 10 17  1  0
 10 18  1  0
 11 19  1  0
M  RAD  1   3   2
M  END
>  <reaction>  (7) 
rmg_rxn_15450

>  <mol_properties>  (7) 
{"1": {"label": "*4", "atom_type": "N3d"}, "2": {"label": "*3", "atom_type": "Cd"}, "9": {"label": "*0", "atom_type": "Cs"}, "10": {"label": "*1", "atom_type": "O2s"}, "18": {"label": "*2", "atom_type": "H0"}}

>  <type>  (7) 
unop_3

>  <geom_source>  (7) 
Heuristics

$$$$

     RDKit          3D

 19 17  0  0  0  0  0  0  0  0999 V2000
   -1.2681    3.2103    1.7134 O   0  0  0  0  0  0  0  0  0  0  0  0
   -0.6553    2.2888    0.8873 N   0  0  0  0  0  0  0  0  0  0  0  0
    0.5867    2.2160    1.1009 C   0  0  0  0  0  3  0  0  0  0  0  0
   -2.1896    3.1654    1.4509 H   0  0  0  0  0  0  0  0  0  0  0  0
    1.0889    2.8200    1.8536 H   0  0  0  0  0  0  0  0  0  0  0  0
   -0.3937   -3.0261   -2.1043 C   0  0  0  0  0  0  0  0  0  0  0  0
   -0.3937   -3.0261   -0.7820 C   0  0  0  0  0  0  0  0  0  0  0  0
   -0.3937   -1.8055    0.0906 C   0  0  0  0  0  0  0  0  0  0  0  0
   -0.2677   -0.5940   -0.6217 O   0  0  0  0  0  0  0  0  0  0  0  0
    1.0529   -0.2206   -0.8838 C   0  0  0  0  0  0  0  0  0  0  0  0
    1.7294    0.2197    0.2576 O   0  0  0  0  0  0  0  0  0  0  0  0
   -0.3940   -2.0998   -2.6659 H   0  0  0  0  0  0  0  0  0  0  0  0
   -0.4007   -3.9516   -2.6650 H   0  0  0  0  0  0  0  0  0  0  0  0
   -0.4032   -3.9684   -0.2406 H   0  0  0  0  0  0  0  0  0  0  0  0
    0.3975   -1.8865    0.8452 H   0  0  0  0  0  0  0  0  0  0  0  0
   -1.3408   -1.7512    0.6345 H   0  0  0  0  0  0  0  0  0  0  0  0
    0.9849    0.5645   -1.6420 H   0  0  0  0  0  0  0  0  0  0  0  0
    1.6380   -1.0613   -1.2667 H   0  0  0  0  0  0  0  0  0  0  0  0
    1.1922    1.1582    0.6541 H   0  0  0  0  0  0  0  0  0  0  0  0
  1  2  1  0
  1  4  1  0
  2  3  2  3
  3  5  1  0
  6  7  2  3
  6 12  1  0
  6 13  1  0
  7  8  1  0
  7 14  1  0
  8  9  1  0
  8 15  1  0
  8 16  1  0
  9 10  1  0
 10 11  1  0
 10 17  1  0
 10 18  1  0
 11 19  1  0
M  RAD  1   3   2
M  END
>  <reaction>  (8) 
rmg_rxn_15450

>  <mol_properties>  (8) 
{"1": {"label": "*4", "atom_type": "N3d"}, "2": {"label": "*3", "atom_type": "Cd"}, "9": {"label": "*0", "atom_type": "Cs"}, "10": {"label": "*1", "atom_type": "O2s"}, "18": {"label": "*2", "atom_type": "H0"}}

>  <type>  (8) 
unop_4

>  <geom_source>  (8) 
Heuristics

$$$$

     RDKit          3D

 19 17  0  0  0  0  0  0  0  0999 V2000
    3.2804   -0.7822   -0.3948 O   0  0  0  0  0  0  0  0  0  0  0  0
    3.1776    0.2284    0.5269 N   0  0  0  0  0  0  0  0  0  0  0  0
    2.2264    1.0163    0.5514 C   0  0  0  0  0  3  0  0  0  0  0  0
    4.1068   -1.2414   -0.1822 H   0  0  0  0  0  0  0  0  0  0  0  0
    2.1948    1.7880    1.2973 H   0  0  0  0  0  0  0  0  0  0  0  0
   -3.8952    0.4824   -0.2966 C   0  0  0  0  0  0  0  0  0  0  0  0
   -3.0705   -0.4021    0.2308 C   0  0  0  0  0  0  0  0  0  0  0  0
   -1.7813   -0.0511    0.9147 C   0  0  0  0  0  0  0  0  0  0  0  0
   -0.6884   -0.8122    0.4213 O   0  0  0  0  0  0  0  0  0  0  0  0
   -0.2503   -0.4065   -0.8532 C   0  0  0  0  0  0  0  0  0  0  0  0
    0.2312    0.8592   -0.9037 O   0  0  0  0  0  0  0  0  0  0  0  0
   -3.6869    1.5395   -0.2620 H   0  0  0  0  0  0  0  0  0  0  0  0
   -4.8149    0.1916   -0.7755 H   0  0  0  0  0  0  0  0  0  0  0  0
   -3.2791   -1.4627    0.1819 H   0  0  0  0  0  0  0  0  0  0  0  0
   -1.8421   -0.3041    1.9785 H   0  0  0  0  0  0  0  0  0  0  0  0
   -1.5696    1.0205    0.8091 H   0  0  0  0  0  0  0  0  0  0  0  0
   -1.0903   -0.4446   -1.5739 H   0  0  0  0  0  0  0  0  0  0  0  0
    0.4970   -1.1638   -1.1418 H   0  0  0  0  0  0  0  0  0  0  0  0
    1.1981    0.9573   -0.2503 H   0  0  0  0  0  0  0  0  0  0  0  0
  1  2  1  0
  1  4  1  0
  2  3  2  3
  3  5  1  0
  6  7  2  3
  6 12  1  0
  6 13  1  0
  7  8  1  0
  7 14  1  0
  8  9  1  0
  8 15  1  0
  8 16  1  0
  9 10  1  0
 10 11  1  0
 10 17  1  0
 10 18  1  0
 11 19  1  0
M  RAD  1   3   2
M  END
>  <reaction>  (9) 
rmg_rxn_15450

>  <mol_properties>  (9) 
{"1": {"label": "*4", "atom_type": "N3d"}, "2": {"label": "*3", "atom_type": "Cd"}, "9": {"label": "*0", "atom_type": "Cs"}, "10": {"label": "*1", "atom_type": "O2s"}, "18": {"label": "*2", "atom_type": "H0"}}

>  <type>  (9) 
unop_5

>  <geom_source>  (9) 
Heuristics

$$$$

     RDKit          3D

 19 17  0  0  0  0  0  0  0  0999 V2000
    0.2724    3.6736    2.3812 O   0  0  0  0  0  0  0  0  0  0  0  0
    0.2509    2.3278    2.0725 N   0  0  0  0  0  0  0  0  0  0  0  0
    0.1977    2.1301    0.8269 C   0  0  0  0  0  3  0  0  0  0  0  0
    0.3124    3.6810    3.3395 H   0  0  0  0  0  0  0  0  0  0  0  0
    0.1728    2.9430    0.1044 H   0  0  0  0  0  0  0  0  0  0  0  0
   -0.7828   -3.1120   -2.3783 C   0  0  0  0  0  0  0  0  0  0  0  0
   -0.7828   -3.1120   -1.0560 C   0  0  0  0  0  0  0  0  0  0  0  0
   -0.7828   -1.8915   -0.1834 C   0  0  0  0  0  0  0  0  0  0  0  0
   -0.6568   -0.6800   -0.8957 O   0  0  0  0  0  0  0  0  0  0  0  0
    0.6638   -0.3065   -1.1578 C   0  0  0  0  0  0  0  0  0  0  0  0
    1.3403    0.1337   -0.0164 O   0  0  0  0  0  0  0  0  0  0  0  0
   -0.7831   -2.1857   -2.9399 H   0  0  0  0  0  0  0  0  0  0  0  0
   -0.7898   -4.0375   -2.9390 H   0  0  0  0  0  0  0  0  0  0  0  0
   -0.7922   -4.0543   -0.5147 H   0  0  0  0  0  0  0  0  0  0  0  0
    0.0084   -1.9725    0.5711 H   0  0  0  0  0  0  0  0  0  0  0  0
   -1.7299   -1.8372    0.3604 H   0  0  0  0  0  0  0  0  0  0  0  0
    0.5959    0.4785   -1.9160 H   0  0  0  0  0  0  0  0  0  0  0  0
    1.2489   -1.1473   -1.5407 H   0  0  0  0  0  0  0  0  0  0  0  0
    0.8031    1.0722    0.3800 H   0  0  0  0  0  0  0  0  0  0  0  0
  1  2  1  0
  1  4  1  0
  2  3  2  3
  3  5  1  0
  6  7  2  3
  6 12  1  0
  6 13  1  0
  7  8  1  0
  7 14  1  0
  8  9  1  0
  8 15  1  0
  8 16  1  0
  9 10  1  0
 10 11  1  0
 10 17  1  0
 10 18  1  0
 11 19  1  0
M  RAD  1   3   2
M  END
>  <reaction>  (10) 
rmg_rxn_15450

>  <mol_properties>  (10) 
{"1": {"label": "*4", "atom_type": "N3d"}, "2": {"label": "*3", "atom_type": "Cd"}, "9": {"label": "*0", "atom_type": "Cs"}, "10": {"label": "*1", "atom_type": "O2s"}, "18": {"label": "*2", "atom_type": "H0"}}

>  <type>  (10) 
unop_6

>  <geom_source>  (10) 
Heuristics

$$$$

     RDKit          3D

 19 17  0  0  0  0  0  0  0  0999 V2000
    0.1843    4.1527    1.1512 O   0  0  0  0  0  0  0  0  0  0  0  0
    0.1606    2.9512    0.4708 N   0  0  0  0  0  0  0  0  0  0  0  0
    0.2250    1.9636    1.2543 C   0  0  0  0  0  3  0  0  0  0  0  0
    0.1303    4.8057    0.4507 H   0  0  0  0  0  0  0  0  0  0  0  0
    0.2908    2.0751    2.3345 H   0  0  0  0  0  0  0  0  0  0  0  0
   -0.7554   -3.2784   -1.9509 C   0  0  0  0  0  0  0  0  0  0  0  0
   -0.7554   -3.2784   -0.6286 C   0  0  0  0  0  0  0  0  0  0  0  0
   -0.7554   -2.0579    0.2440 C   0  0  0  0  0  0  0  0  0  0  0  0
   -0.6295   -0.8464   -0.4683 O   0  0  0  0  0  0  0  0  0  0  0  0
    0.6912   -0.4729   -0.7304 C   0  0  0  0  0  0  0  0  0  0  0  0
    1.3677   -0.0327    0.4110 O   0  0  0  0  0  0  0  0  0  0  0  0
   -0.7557   -2.3521   -2.5125 H   0  0  0  0  0  0  0  0  0  0  0  0
   -0.7624   -4.2039   -2.5116 H   0  0  0  0  0  0  0  0  0  0  0  0
   -0.7649   -4.2208   -0.0872 H   0  0  0  0  0  0  0  0  0  0  0  0
    0.0358   -2.1389    0.9986 H   0  0  0  0  0  0  0  0  0  0  0  0
   -1.7026   -2.0036    0.7879 H   0  0  0  0  0  0  0  0  0  0  0  0
    0.6232    0.3121   -1.4886 H   0  0  0  0  0  0  0  0  0  0  0  0
    1.2763   -1.3137   -1.1133 H   0  0  0  0  0  0  0  0  0  0  0  0
    0.8305    0.9058    0.8075 H   0  0  0  0  0  0  0  0  0  0  0  0
  1  2  1  0
  1  4  1  0
  2  3  2  3
  3  5  1  0
  6  7  2  3
  6 12  1  0
  6 13  1  0
  7  8  1  0
  7 14  1  0
  8  9  1  0
  8 15  1  0
  8 16  1  0
  9 10  1  0
 10 11  1  0
 10 17  1  0
 10 18  1  0
 11 19  1  0
M  RAD  1   3   2
M  END
>  <reaction>  (11) 
rmg_rxn_15450

>  <mol_properties>  (11) 
{"1": {"label": "*4", "atom_type": "N3d"}, "2": {"label": "*3", "atom_type": "Cd"}, "9": {"label": "*0", "atom_type": "Cs"}, "10": {"label": "*1", "atom_type": "O2s"}, "18": {"label": "*2", "atom_type": "H0"}}

>  <type>  (11) 
unop_7

>  <geom_source>  (11) 
Heuristics

$$$$

     RDKit          3D

 19 17  0  0  0  0  0  0  0  0999 V2000
   -3.9506   -0.7217   -0.0551 O   0  0  0  0  0  0  0  0  0  0  0  0
   -2.7317   -0.0744    0.0690 N   0  0  0  0  0  0  0  0  0  0  0  0
   -2.2592    0.7613   -0.6877 C   0  0  0  0  0  3  0  0  0  0  0  0
   -3.9927   -1.3316    0.6968 H   0  0  0  0  0  0  0  0  0  0  0  0
   -2.5832    1.2262   -1.6065 H   0  0  0  0  0  0  0  0  0  0  0  0
    3.9573    0.3245   -0.2988 C   0  0  0  0  0  0  0  0  0  0  0  0
    3.0693   -0.5982    0.0183 C   0  0  0  0  0  0  0  0  0  0  0  0
    1.7155   -0.7203   -0.6188 C   0  0  0  0  0  0  0  0  0  0  0  0
    0.6749   -0.8008    0.3461 O   0  0  0  0  0  0  0  0  0  0  0  0
    0.3917    0.4234    0.9749 C   0  0  0  0  0  0  0  0  0  0  0  0
   -0.0243    1.4068    0.1423 O   0  0  0  0  0  0  0  0  0  0  0  0
    3.7582    1.0620   -1.0592 H   0  0  0  0  0  0  0  0  0  0  0  0
    4.9214    0.3772    0.1781 H   0  0  0  0  0  0  0  0  0  0  0  0
    3.2709   -1.3285    0.7909 H   0  0  0  0  0  0  0  0  0  0  0  0
    1.6497   -1.6579   -1.1802 H   0  0  0  0  0  0  0  0  0  0  0  0
    1.5322    0.1217   -1.2975 H   0  0  0  0  0  0  0  0  0  0  0  0
    1.2981    0.8098    1.4814 H   0  0  0  0  0  0  0  0  0  0  0  0
   -0.3594    0.1689    1.7421 H   0  0  0  0  0  0  0  0  0  0  0  0
   -1.0745    1.1491   -0.2869 H   0  0  0  0  0  0  0  0  0  0  0  0
  1  2  1  0
  1  4  1  0
  2  3  2  3
  3  5  1  0
  6  7  2  3
  6 12  1  0
  6 13  1  0
  7  8  1  0
  7 14  1  0
  8  9  1  0
  8 15  1  0
  8 16  1  0
  9 10  1  0
 10 11  1  0
 10 17  1  0
 10 18  1  0
 11 19  1  0
M  RAD  1   3   2
M  END
>  <reaction>  (12) 
rmg_rxn_15450

>  <mol_properties>  (12) 
{"1": {"label": "*4", "atom_type": "N3d"}, "2": {"label": "*3", "atom_type": "Cd"}, "9": {"label": "*0", "atom_type": "Cs"}, "10": {"label": "*1", "atom_type": "O2s"}, "18": {"label": "*2", "atom_type": "H0"}}

>  <type>  (12) 
unop_8

>  <geom_source>  (12) 
Heuristics

$$$$

     RDKit          3D

 19 17  0  0  0  0  0  0  0  0999 V2000
   -0.0370    3.7292    2.2925 O   0  0  0  0  0  0  0  0  0  0  0  0
    0.6789    2.6148    1.9020 N   0  0  0  0  0  0  0  0  0  0  0  0
    0.1947    2.0822    0.8650 C   0  0  0  0  0  3  0  0  0  0  0  0
    0.4289    4.0293    3.0754 H   0  0  0  0  0  0  0  0  0  0  0  0
   -0.6842    2.4761    0.3590 H   0  0  0  0  0  0  0  0  0  0  0  0
   -0.7858   -3.1599   -2.3402 C   0  0  0  0  0  0  0  0  0  0  0  0
   -0.7858   -3.1599   -1.0179 C   0  0  0  0  0  0  0  0  0  0  0  0
   -0.7858   -1.9394   -0.1453 C   0  0  0  0  0  0  0  0  0  0  0  0
   -0.6598   -0.7278   -0.8576 O   0  0  0  0  0  0  0  0  0  0  0  0
    0.6609   -0.3544   -1.1197 C   0  0  0  0  0  0  0  0  0  0  0  0
    1.3373    0.0859    0.0217 O   0  0  0  0  0  0  0  0  0  0  0  0
   -0.7860   -2.2336   -2.9018 H   0  0  0  0  0  0  0  0  0  0  0  0
   -0.7928   -4.0854   -2.9009 H   0  0  0  0  0  0  0  0  0  0  0  0
   -0.7952   -4.1022   -0.4765 H   0  0  0  0  0  0  0  0  0  0  0  0
    0.0054   -2.0203    0.6093 H   0  0  0  0  0  0  0  0  0  0  0  0
   -1.7329   -1.8850    0.3986 H   0  0  0  0  0  0  0  0  0  0  0  0
    0.5929    0.4306   -1.8779 H   0  0  0  0  0  0  0  0  0  0  0  0
    1.2459   -1.1952   -1.5026 H   0  0  0  0  0  0  0  0  0  0  0  0
    0.8002    1.0244    0.4182 H   0  0  0  0  0  0  0  0  0  0  0  0
  1  2  1  0
  1  4  1  0
  2  3  2  3
  3  5  1  0
  6  7  2  3
  6 12  1  0
  6 13  1  0
  7  8  1  0
  7 14  1  0
  8  9  1  0
  8 15  1  0
  8 16  1  0
  9 10  1  0
 10 11  1  0
 10 17  1  0
 10 18  1  0
 11 19  1  0
M  RAD  1   3   2
M  END
>  <reaction>  (13) 
rmg_rxn_15450

>  <mol_properties>  (13) 
{"1": {"label": "*4", "atom_type": "N3d"}, "2": {"label": "*3", "atom_type": "Cd"}, "9": {"label": "*0", "atom_type": "Cs"}, "10": {"label": "*1", "atom_type": "O2s"}, "18": {"label": "*2", "atom_type": "H0"}}

>  <type>  (13) 
unop_9

>  <geom_source>  (13) 
Heuristics

$$$$

     RDKit          3D

 19 17  0  0  0  0  0  0  0  0999 V2000
   -3.9502    0.7237   -0.0567 O   0  0  0  0  0  0  0  0  0  0  0  0
   -2.7312    0.0766    0.0680 N   0  0  0  0  0  0  0  0  0  0  0  0
   -2.2596   -0.7610   -0.6871 C   0  0  0  0  0  3  0  0  0  0  0  0
   -3.9915    1.3356    0.6935 H   0  0  0  0  0  0  0  0  0  0  0  0
   -2.5846   -1.2280   -1.6045 H   0  0  0  0  0  0  0  0  0  0  0  0
    3.9556   -0.3221   -0.3038 C   0  0  0  0  0  0  0  0  0  0  0  0
    3.0692    0.6012    0.0158 C   0  0  0  0  0  0  0  0  0  0  0  0
    1.7128    0.7227   -0.6157 C   0  0  0  0  0  0  0  0  0  0  0  0
    0.6757    0.7977    0.3536 O   0  0  0  0  0  0  0  0  0  0  0  0
    0.3943   -0.4299    0.9763 C   0  0  0  0  0  0  0  0  0  0  0  0
   -0.0239   -1.4087    0.1396 O   0  0  0  0  0  0  0  0  0  0  0  0
    3.7532   -1.0605   -1.0625 H   0  0  0  0  0  0  0  0  0  0  0  0
    4.9217   -0.3746    0.1693 H   0  0  0  0  0  0  0  0  0  0  0  0
    3.2741    1.3324    0.7868 H   0  0  0  0  0  0  0  0  0  0  0  0
    1.5285   -0.1176   -1.2963 H   0  0  0  0  0  0  0  0  0  0  0  0
    1.6427    1.6619   -1.1737 H   0  0  0  0  0  0  0  0  0  0  0  0
   -0.3544   -0.1797    1.7472 H   0  0  0  0  0  0  0  0  0  0  0  0
    1.3022   -0.8193    1.4780 H   0  0  0  0  0  0  0  0  0  0  0  0
   -1.0746   -1.1487   -0.2871 H   0  0  0  0  0  0  0  0  0  0  0  0
  1  2  1  0
  1  4  1  0
  2  3  2  3
  3  5  1  0
  6  7  2  3
  6 12  1  0
  6 13  1  0
  7  8  1  0
  7 14  1  0
  8  9  1  0
  8 15  1  0
  8 16  1  0
  9 10  1  0
 10 11  1  0
 10 17  1  0
 10 18  1  0
 11 19  1  0
M  RAD  1   3   2
M  END
>  <reaction>  (14) 
rmg_rxn_15450

>  <mol_properties>  (14) 
{"1": {"label": "*4", "atom_type": "N3d"}, "2": {"label": "*3", "atom_type": "Cd"}, "9": {"label": "*0", "atom_type": "Cs"}, "10": {"label": "*1", "atom_type": "O2s"}, "18": {"label": "*2", "atom_type": "H0"}}

>  <type>  (14) 
unop_10

>  <geom_source>  (14) 
Heuristics

$$$$

     RDKit          3D

 19 17  0  0  0  0  0  0  0  0999 V2000
    0.5672    4.0416    1.6728 O   0  0  0  0  0  0  0  0  0  0  0  0
    0.5099    3.0771    0.6863 N   0  0  0  0  0  0  0  0  0  0  0  0
    0.1118    1.9663    1.1347 C   0  0  0  0  0  3  0  0  0  0  0  0
    0.8781    4.8193    1.2053 H   0  0  0  0  0  0  0  0  0  0  0  0
   -0.1487    1.8150    2.1801 H   0  0  0  0  0  0  0  0  0  0  0  0
   -0.8686   -3.2758   -2.0705 C   0  0  0  0  0  0  0  0  0  0  0  0
   -0.8686   -3.2758   -0.7482 C   0  0  0  0  0  0  0  0  0  0  0  0
   -0.8686   -2.0553    0.1244 C   0  0  0  0  0  0  0  0  0  0  0  0
   -0.7427   -0.8438   -0.5879 O   0  0  0  0  0  0  0  0  0  0  0  0
    0.5780   -0.4703   -0.8500 C   0  0  0  0  0  0  0  0  0  0  0  0
    1.2545   -0.0300    0.2914 O   0  0  0  0  0  0  0  0  0  0  0  0
   -0.8689   -2.3495   -2.6321 H   0  0  0  0  0  0  0  0  0  0  0  0
   -0.8757   -4.2013   -2.6312 H   0  0  0  0  0  0  0  0  0  0  0  0
   -0.8781   -4.2181   -0.2068 H   0  0  0  0  0  0  0  0  0  0  0  0
   -0.0774   -2.1363    0.8790 H   0  0  0  0  0  0  0  0  0  0  0  0
   -1.8158   -2.0010    0.6683 H   0  0  0  0  0  0  0  0  0  0  0  0
    0.5100    0.3147   -1.6082 H   0  0  0  0  0  0  0  0  0  0  0  0
    1.1630   -1.3111   -1.2329 H   0  0  0  0  0  0  0  0  0  0  0  0
    0.7173    0.9084    0.6879 H   0  0  0  0  0  0  0  0  0  0  0  0
  1  2  1  0
  1  4  1  0
  2  3  2  3
  3  5  1  0
  6  7  2  3
  6 12  1  0
  6 13  1  0
  7  8  1  0
  7 14  1  0
  8  9  1  0
  8 15  1  0
  8 16  1  0
  9 10  1  0
 10 11  1  0
 10 17  1  0
 10 18  1  0
 11 19  1  0
M  RAD  1   3   2
M  END
>  <reaction>  (15) 
rmg_rxn_15450

>  <mol_properties>  (15) 
{"1": {"label": "*4", "atom_type": "N3d"}, "2": {"label": "*3", "atom_type": "Cd"}, "9": {"label": "*0", "atom_type": "Cs"}, "10": {"label": "*1", "atom_type": "O2s"}, "18": {"label": "*2", "atom_type": "H0"}}

>  <type>  (15) 
unop_11

>  <geom_source>  (15) 
Heuristics

$$$$

     RDKit          3D

 19 17  0  0  0  0  0  0  0  0999 V2000
    3.2787   -0.7788    0.4029 O   0  0  0  0  0  0  0  0  0  0  0  0
    3.1764    0.2212   -0.5305 N   0  0  0  0  0  0  0  0  0  0  0  0
    2.2266    1.0104   -0.5634 C   0  0  0  0  0  3  0  0  0  0  0  0
    4.1034   -1.2425    0.1938 H   0  0  0  0  0  0  0  0  0  0  0  0
    2.1966    1.7732   -1.3186 H   0  0  0  0  0  0  0  0  0  0  0  0
   -3.8936    0.4892    0.2843 C   0  0  0  0  0  0  0  0  0  0  0  0
   -3.0688   -0.4064   -0.2236 C   0  0  0  0  0  0  0  0  0  0  0  0
   -1.7797   -0.0702   -0.9151 C   0  0  0  0  0  0  0  0  0  0  0  0
   -0.6866   -0.8204   -0.4056 O   0  0  0  0  0  0  0  0  0  0  0  0
   -0.2515   -0.3911    0.8620 C   0  0  0  0  0  0  0  0  0  0  0  0
    0.2291    0.8757    0.8908 O   0  0  0  0  0  0  0  0  0  0  0  0
   -3.6857    1.5454    0.2269 H   0  0  0  0  0  0  0  0  0  0  0  0
   -4.8132    0.2086    0.7694 H   0  0  0  0  0  0  0  0  0  0  0  0
   -3.2775   -1.4658   -0.1515 H   0  0  0  0  0  0  0  0  0  0  0  0
   -1.5684    1.0035   -0.8330 H   0  0  0  0  0  0  0  0  0  0  0  0
   -1.8404   -0.3464   -1.9731 H   0  0  0  0  0  0  0  0  0  0  0  0
    0.4958   -1.1425    1.1658 H   0  0  0  0  0  0  0  0  0  0  0  0
   -1.0929   -0.4168    1.5817 H   0  0  0  0  0  0  0  0  0  0  0  0
    1.1974    0.9632    0.2378 H   0  0  0  0  0  0  0  0  0  0  0  0
  1  2  1  0
  1  4  1  0
  2  3  2  3
  3  5  1  0
  6  7  2  3
  6 12  1  0
  6 13  1  0
  7  8  1  0
  7 14  1  0
  8  9  1  0
  8 15  1  0
  8 16  1  0
  9 10  1  0
 10 11  1  0
 10 17  1  0
 10 18  1  0
 11 19  1  0
M  RAD  1   3   2
M  END
>  <reaction>  (16) 
rmg_rxn_15450

>  <mol_properties>  (16) 
{"1": {"label": "*4", "atom_type": "N3d"}, "2": {"label": "*3", "atom_type": "Cd"}, "9": {"label": "*0", "atom_type": "Cs"}, "10": {"label": "*1", "atom_type": "O2s"}, "18": {"label": "*2", "atom_type": "H0"}}

>  <type>  (16) 
unop_12

>  <geom_source>  (16) 
Heuristics

$$$$

     RDKit          3D

 19 17  0  0  0  0  0  0  0  0999 V2000
    0.5433    3.7672    2.2231 O   0  0  0  0  0  0  0  0  0  0  0  0
    0.7654    3.0742    1.0494 N   0  0  0  0  0  0  0  0  0  0  0  0
    0.0820    2.0145    0.9905 C   0  0  0  0  0  3  0  0  0  0  0  0
    1.1128    4.5345    2.1390 H   0  0  0  0  0  0  0  0  0  0  0  0
   -0.5944    1.7076    1.7855 H   0  0  0  0  0  0  0  0  0  0  0  0
   -0.8984   -3.2276   -2.2147 C   0  0  0  0  0  0  0  0  0  0  0  0
   -0.8984   -3.2276   -0.8924 C   0  0  0  0  0  0  0  0  0  0  0  0
   -0.8984   -2.0071   -0.0198 C   0  0  0  0  0  0  0  0  0  0  0  0
   -0.7725   -0.7956   -0.7321 O   0  0  0  0  0  0  0  0  0  0  0  0
    0.5482   -0.4221   -0.9942 C   0  0  0  0  0  0  0  0  0  0  0  0
    1.2246    0.0182    0.1472 O   0  0  0  0  0  0  0  0  0  0  0  0
   -0.8987   -2.3013   -2.7763 H   0  0  0  0  0  0  0  0  0  0  0  0
   -0.9055   -4.1531   -2.7754 H   0  0  0  0  0  0  0  0  0  0  0  0
   -0.9079   -4.1699   -0.3510 H   0  0  0  0  0  0  0  0  0  0  0  0
   -0.1072   -2.0881    0.7348 H   0  0  0  0  0  0  0  0  0  0  0  0
   -1.8456   -1.9527    0.5241 H   0  0  0  0  0  0  0  0  0  0  0  0
    0.4802    0.3629   -1.7524 H   0  0  0  0  0  0  0  0  0  0  0  0
    1.1332   -1.2629   -1.3771 H   0  0  0  0  0  0  0  0  0  0  0  0
    0.6875    0.9566    0.5437 H   0  0  0  0  0  0  0  0  0  0  0  0
  1  2  1  0
  1  4  1  0
  2  3  2  3
  3  5  1  0
  6  7  2  3
  6 12  1  0
  6 13  1  0
  7  8  1  0
  7 14  1  0
  8  9  1  0
  8 15  1  0
  8 16  1  0
  9 10  1  0
 10 11  1  0
 10 17  1  0
 10 18  1  0
 11 19  1  0
M  RAD  1   3   2
M  END
>  <reaction>  (17) 
rmg_rxn_15450

>  <mol_properties>  (17) 
{"1": {"label": "*4", "atom_type": "N3d"}, "2": {"label": "*3", "atom_type": "Cd"}, "9": {"label": "*0", "atom_type": "Cs"}, "10": {"label": "*1", "atom_type": "O2s"}, "18": {"label": "*2", "atom_type": "H0"}}

>  <type>  (17) 
unop_13

>  <geom_source>  (17) 
Heuristics

$$$$

     RDKit          3D

 19 17  0  0  0  0  0  0  0  0999 V2000
   -0.4728    3.0194    2.6835 O   0  0  0  0  0  0  0  0  0  0  0  0
   -0.4981    2.0863    1.6658 N   0  0  0  0  0  0  0  0  0  0  0  0
    0.4272    2.2762    0.8283 C   0  0  0  0  0  3  0  0  0  0  0  0
   -1.2131    2.7639    3.2374 H   0  0  0  0  0  0  0  0  0  0  0  0
    1.1459    3.0875    0.9221 H   0  0  0  0  0  0  0  0  0  0  0  0
   -0.5533   -2.9659   -2.3769 C   0  0  0  0  0  0  0  0  0  0  0  0
   -0.5533   -2.9659   -1.0546 C   0  0  0  0  0  0  0  0  0  0  0  0
   -0.5533   -1.7453   -0.1820 C   0  0  0  0  0  0  0  0  0  0  0  0
   -0.4273   -0.5338   -0.8943 O   0  0  0  0  0  0  0  0  0  0  0  0
    0.8934   -0.1604   -1.1565 C   0  0  0  0  0  0  0  0  0  0  0  0
    1.5698    0.2799   -0.0150 O   0  0  0  0  0  0  0  0  0  0  0  0
   -0.5535   -2.0396   -2.9385 H   0  0  0  0  0  0  0  0  0  0  0  0
   -0.5603   -3.8914   -2.9376 H   0  0  0  0  0  0  0  0  0  0  0  0
   -0.5627   -3.9082   -0.5133 H   0  0  0  0  0  0  0  0  0  0  0  0
    0.2379   -1.8263    0.5725 H   0  0  0  0  0  0  0  0  0  0  0  0
   -1.5004   -1.6910    0.3618 H   0  0  0  0  0  0  0  0  0  0  0  0
    0.8254    0.6247   -1.9146 H   0  0  0  0  0  0  0  0  0  0  0  0
    1.4784   -1.0011   -1.5393 H   0  0  0  0  0  0  0  0  0  0  0  0
    1.0327    1.2184    0.3814 H   0  0  0  0  0  0  0  0  0  0  0  0
  1  2  1  0
  1  4  1  0
  2  3  2  3
  3  5  1  0
  6  7  2  3
  6 12  1  0
  6 13  1  0
  7  8  1  0
  7 14  1  0
  8  9  1  0
  8 15  1  0
  8 16  1  0
  9 10  1  0
 10 11  1  0
 10 17  1  0
 10 18  1  0
 11 19  1  0
M  RAD  1   3   2
M  END
>  <reaction>  (18) 
rmg_rxn_15450

>  <mol_properties>  (18) 
{"1": {"label": "*4", "atom_type": "N3d"}, "2": {"label": "*3", "atom_type": "Cd"}, "9": {"label": "*0", "atom_type": "Cs"}, "10": {"label": "*1", "atom_type": "O2s"}, "18": {"label": "*2", "atom_type": "H0"}}

>  <type>  (18) 
unop_14

>  <geom_source>  (18) 
Heuristics

$$$$

     RDKit          3D

 19 17  0  0  0  0  0  0  0  0999 V2000
    3.1859   -0.3154   -0.2067 O   0  0  0  0  0  0  0  0  0  0  0  0
    2.6138    0.8814   -0.3895 N   0  0  0  0  0  0  0  0  0  0  0  0
    1.5038    1.2279    0.0212 C   0  0  0  0  0  3  0  0  0  0  0  0
    2.6154   -0.9196    0.3073 H   0  0  0  0  0  0  0  0  0  0  0  0
    1.1318    2.2167   -0.1677 H   0  0  0  0  0  0  0  0  0  0  0  0
   -2.8044    1.4195    0.4012 C   0  0  0  0  0  0  0  0  0  0  0  0
   -2.0124    0.8285   -0.4721 C   0  0  0  0  0  0  0  0  0  0  0  0
   -2.0295   -0.6406   -0.7713 C   0  0  0  0  0  0  0  0  0  0  0  0
   -0.7476   -1.2452   -0.6824 O   0  0  0  0  0  0  0  0  0  0  0  0
   -0.2701   -1.4285    0.6197 C   0  0  0  0  0  0  0  0  0  0  0  0
    0.0289   -0.2957    1.3080 O   0  0  0  0  0  0  0  0  0  0  0  0
   -3.5292    0.8653    0.9743 H   0  0  0  0  0  0  0  0  0  0  0  0
   -2.7648    2.4802    0.5799 H   0  0  0  0  0  0  0  0  0  0  0  0
   -1.2839    1.3921   -1.0394 H   0  0  0  0  0  0  0  0  0  0  0  0
   -2.3331   -0.8029   -1.8112 H   0  0  0  0  0  0  0  0  0  0  0  0
   -2.7329   -1.1587   -0.1050 H   0  0  0  0  0  0  0  0  0  0  0  0
    0.6020   -2.0991    0.4916 H   0  0  0  0  0  0  0  0  0  0  0  0
   -1.0242   -1.9592    1.2340 H   0  0  0  0  0  0  0  0  0  0  0  0
    0.7164    0.4380    0.6990 H   0  0  0  0  0  0  0  0  0  0  0  0
  1  2  1  0
  1  4  1  0
  2  3  2  3
  3  5  1  0
  6  7  2  3
  6 12  1  0
  6 13  1  0
  7  8  1  0
  7 14  1  0
  8  9  1  0
  8 15  1  0
  8 16  1  0
  9 10  1  0
 10 11  1  0
 10 17  1  0
 10 18  1  0
 11 19  1  0
M  RAD  1   3   2
M  END
>  <reaction>  (19) 
rmg_rxn_15450

>  <mol_properties>  (19) 
{"1": {"label": "*4", "atom_type": "N3d"}, "2": {"label": "*3", "atom_type": "Cd"}, "9": {"label": "*0", "atom_type": "Cs"}, "10": {"label": "*1", "atom_type": "O2s"}, "18": {"label": "*2", "atom_type": "H0"}}

>  <type>  (19) 
unop_15

>  <geom_source>  (19) 
Heuristics

$$$$

     RDKit          3D

 19 17  0  0  0  0  0  0  0  0999 V2000
   -0.4583    4.0062    0.9264 O   0  0  0  0  0  0  0  0  0  0  0  0
   -0.1959    2.7404    0.4409 N   0  0  0  0  0  0  0  0  0  0  0  0
    0.3845    2.0172    1.2975 C   0  0  0  0  0  3  0  0  0  0  0  0
   -0.8915    4.4413    0.1895 H   0  0  0  0  0  0  0  0  0  0  0  0
    0.6362    2.3751    2.2936 H   0  0  0  0  0  0  0  0  0  0  0  0
   -0.5960   -3.2249   -1.9077 C   0  0  0  0  0  0  0  0  0  0  0  0
   -0.5960   -3.2249   -0.5854 C   0  0  0  0  0  0  0  0  0  0  0  0
   -0.5960   -2.0043    0.2872 C   0  0  0  0  0  0  0  0  0  0  0  0
   -0.4700   -0.7928   -0.4251 O   0  0  0  0  0  0  0  0  0  0  0  0
    0.8506   -0.4194   -0.6872 C   0  0  0  0  0  0  0  0  0  0  0  0
    1.5271    0.0209    0.4542 O   0  0  0  0  0  0  0  0  0  0  0  0
   -0.5963   -2.2986   -2.4693 H   0  0  0  0  0  0  0  0  0  0  0  0
   -0.6030   -4.1504   -2.4684 H   0  0  0  0  0  0  0  0  0  0  0  0
   -0.6054   -4.1672   -0.0441 H   0  0  0  0  0  0  0  0  0  0  0  0
    0.1952   -2.0853    1.0417 H   0  0  0  0  0  0  0  0  0  0  0  0
   -1.5431   -1.9500    0.8310 H   0  0  0  0  0  0  0  0  0  0  0  0
    0.7827    0.3656   -1.4454 H   0  0  0  0  0  0  0  0  0  0  0  0
    1.4357   -1.2601   -1.0701 H   0  0  0  0  0  0  0  0  0  0  0  0
    0.9899    0.9594    0.8506 H   0  0  0  0  0  0  0  0  0  0  0  0
  1  2  1  0
  1  4  1  0
  2  3  2  3
  3  5  1  0
  6  7  2  3
  6 12  1  0
  6 13  1  0
  7  8  1  0
  7 14  1  0
  8  9  1  0
  8 15  1  0
  8 16  1  0
  9 10  1  0
 10 11  1  0
 10 17  1  0
 10 18  1  0
 11 19  1  0
M  RAD  1   3   2
M  END
>  <reaction>  (20) 
rmg_rxn_15450

>  <mol_properties>  (20) 
{"1": {"label": "*4", "atom_type": "N3d"}, "2": {"label": "*3", "atom_type": "Cd"}, "9": {"label": "*0", "atom_type": "Cs"}, "10": {"label": "*1", "atom_type": "O2s"}, "18": {"label": "*2", "atom_type": "H0"}}

>  <type>  (20) 
unop_16

>  <geom_source>  (20) 
Heuristics

$$$$

     RDKit          3D

 19 17  0  0  0  0  0  0  0  0999 V2000
   -1.0159    2.9730    2.3175 O   0  0  0  0  0  0  0  0  0  0  0  0
   -0.6663    2.1385    1.2742 N   0  0  0  0  0  0  0  0  0  0  0  0
    0.5442    2.2774    0.9442 C   0  0  0  0  0  3  0  0  0  0  0  0
   -1.9417    2.7692    2.4642 H   0  0  0  0  0  0  0  0  0  0  0  0
    1.2108    2.9794    1.4405 H   0  0  0  0  0  0  0  0  0  0  0  0
   -0.4362   -2.9647   -2.2611 C   0  0  0  0  0  0  0  0  0  0  0  0
   -0.4362   -2.9647   -0.9387 C   0  0  0  0  0  0  0  0  0  0  0  0
   -0.4362   -1.7442   -0.0662 C   0  0  0  0  0  0  0  0  0  0  0  0
   -0.3102   -0.5327   -0.7785 O   0  0  0  0  0  0  0  0  0  0  0  0
    1.0104   -0.1592   -1.0406 C   0  0  0  0  0  0  0  0  0  0  0  0
    1.6869    0.2811    0.1009 O   0  0  0  0  0  0  0  0  0  0  0  0
   -0.4365   -2.0384   -2.8227 H   0  0  0  0  0  0  0  0  0  0  0  0
   -0.4432   -3.8902   -2.8218 H   0  0  0  0  0  0  0  0  0  0  0  0
   -0.4457   -3.9070   -0.3974 H   0  0  0  0  0  0  0  0  0  0  0  0
    0.3550   -1.8252    0.6884 H   0  0  0  0  0  0  0  0  0  0  0  0
   -1.3834   -1.6898    0.4777 H   0  0  0  0  0  0  0  0  0  0  0  0
    0.9424    0.6258   -1.7988 H   0  0  0  0  0  0  0  0  0  0  0  0
    1.5955   -1.0000   -1.4234 H   0  0  0  0  0  0  0  0  0  0  0  0
    1.1497    1.2195    0.4973 H   0  0  0  0  0  0  0  0  0  0  0  0
  1  2  1  0
  1  4  1  0
  2  3  2  3
  3  5  1  0
  6  7  2  3
  6 12  1  0
  6 13  1  0
  7  8  1  0
  7 14  1  0
  8  9  1  0
  8 15  1  0
  8 16  1  0
  9 10  1  0
 10 11  1  0
 10 17  1  0
 10 18  1  0
 11 19  1  0
M  RAD  1   3   2
M  END
>  <reaction>  (21) 
rmg_rxn_15450

>  <mol_properties>  (21) 
{"1": {"label": "*4", "atom_type": "N3d"}, "2": {"label": "*3", "atom_type": "Cd"}, "9": {"label": "*0", "atom_type": "Cs"}, "10": {"label": "*1", "atom_type": "O2s"}, "18": {"label": "*2", "atom_type": "H0"}}

>  <type>  (21) 
unop_17

>  <geom_source>  (21) 
Heuristics

$$$$

     RDKit          3D

 19 17  0  0  0  0  0  0  0  0999 V2000
    0.1566    3.5598    2.4938 O   0  0  0  0  0  0  0  0  0  0  0  0
    0.8527    2.9193    1.4877 N   0  0  0  0  0  0  0  0  0  0  0  0
    0.1378    2.0712    0.8850 C   0  0  0  0  0  3  0  0  0  0  0  0
    0.8041    4.1642    2.8618 H   0  0  0  0  0  0  0  0  0  0  0  0
   -0.9016    1.8871    1.1484 H   0  0  0  0  0  0  0  0  0  0  0  0
   -0.8426   -3.1708   -2.3202 C   0  0  0  0  0  0  0  0  0  0  0  0
   -0.8426   -3.1708   -0.9979 C   0  0  0  0  0  0  0  0  0  0  0  0
   -0.8426   -1.9503   -0.1253 C   0  0  0  0  0  0  0  0  0  0  0  0
   -0.7167   -0.7388   -0.8376 O   0  0  0  0  0  0  0  0  0  0  0  0
    0.6040   -0.3653   -1.0997 C   0  0  0  0  0  0  0  0  0  0  0  0
    1.2805    0.0749    0.0417 O   0  0  0  0  0  0  0  0  0  0  0  0
   -0.8429   -2.2445   -2.8818 H   0  0  0  0  0  0  0  0  0  0  0  0
   -0.8497   -4.0963   -2.8809 H   0  0  0  0  0  0  0  0  0  0  0  0
   -0.8521   -4.1132   -0.4565 H   0  0  0  0  0  0  0  0  0  0  0  0
   -0.0514   -2.0313    0.6293 H   0  0  0  0  0  0  0  0  0  0  0  0
   -1.7898   -1.8960    0.4186 H   0  0  0  0  0  0  0  0  0  0  0  0
    0.5360    0.4197   -1.8579 H   0  0  0  0  0  0  0  0  0  0  0  0
    1.1891   -1.2061   -1.4825 H   0  0  0  0  0  0  0  0  0  0  0  0
    0.7433    1.0134    0.4382 H   0  0  0  0  0  0  0  0  0  0  0  0
  1  2  1  0
  1  4  1  0
  2  3  2  3
  3  5  1  0
  6  7  2  3
  6 12  1  0
  6 13  1  0
  7  8  1  0
  7 14  1  0
  8  9  1  0
  8 15  1  0
  8 16  1  0
  9 10  1  0
 10 11  1  0
 10 17  1  0
 10 18  1  0
 11 19  1  0
M  RAD  1   3   2
M  END
>  <reaction>  (22) 
rmg_rxn_15450

>  <mol_properties>  (22) 
{"1": {"label": "*4", "atom_type": "N3d"}, "2": {"label": "*3", "atom_type": "Cd"}, "9": {"label": "*0", "atom_type": "Cs"}, "10": {"label": "*1", "atom_type": "O2s"}, "18": {"label": "*2", "atom_type": "H0"}}

>  <type>  (22) 
unop_18

>  <geom_source>  (22) 
Heuristics

$$$$

     RDKit          3D

 19 17  0  0  0  0  0  0  0  0999 V2000
   -1.0528    3.6313    1.1480 O   0  0  0  0  0  0  0  0  0  0  0  0
   -0.4848    2.5025    0.5909 N   0  0  0  0  0  0  0  0  0  0  0  0
    0.5265    2.1142    1.2389 C   0  0  0  0  0  3  0  0  0  0  0  0
   -1.7955    3.8147    0.5694 H   0  0  0  0  0  0  0  0  0  0  0  0
    0.8861    2.6276    2.1282 H   0  0  0  0  0  0  0  0  0  0  0  0
   -0.4539   -3.1279   -1.9663 C   0  0  0  0  0  0  0  0  0  0  0  0
   -0.4539   -3.1279   -0.6440 C   0  0  0  0  0  0  0  0  0  0  0  0
   -0.4539   -1.9073    0.2286 C   0  0  0  0  0  0  0  0  0  0  0  0
   -0.3279   -0.6958   -0.4837 O   0  0  0  0  0  0  0  0  0  0  0  0
    0.9927   -0.3224   -0.7458 C   0  0  0  0  0  0  0  0  0  0  0  0
    1.6692    0.1179    0.3956 O   0  0  0  0  0  0  0  0  0  0  0  0
   -0.4542   -2.2016   -2.5279 H   0  0  0  0  0  0  0  0  0  0  0  0
   -0.4609   -4.0534   -2.5270 H   0  0  0  0  0  0  0  0  0  0  0  0
   -0.4634   -4.0702   -0.1026 H   0  0  0  0  0  0  0  0  0  0  0  0
    0.3373   -1.9883    0.9832 H   0  0  0  0  0  0  0  0  0  0  0  0
   -1.4010   -1.8530    0.7725 H   0  0  0  0  0  0  0  0  0  0  0  0
    0.9247    0.4626   -1.5040 H   0  0  0  0  0  0  0  0  0  0  0  0
    1.5778   -1.1631   -1.1287 H   0  0  0  0  0  0  0  0  0  0  0  0
    1.1320    1.0564    0.7921 H   0  0  0  0  0  0  0  0  0  0  0  0
  1  2  1  0
  1  4  1  0
  2  3  2  3
  3  5  1  0
  6  7  2  3
  6 12  1  0
  6 13  1  0
  7  8  1  0
  7 14  1  0
  8  9  1  0
  8 15  1  0
  8 16  1  0
  9 10  1  0
 10 11  1  0
 10 17  1  0
 10 18  1  0
 11 19  1  0
M  RAD  1   3   2
M  END
>  <reaction>  (23) 
rmg_rxn_15450

>  <mol_properties>  (23) 
{"1": {"label": "*4", "atom_type": "N3d"}, "2": {"label": "*3", "atom_type": "Cd"}, "9": {"label": "*0", "atom_type": "Cs"}, "10": {"label": "*1", "atom_type": "O2s"}, "18": {"label": "*2", "atom_type": "H0"}}

>  <type>  (23) 
unop_19

>  <geom_source>  (23) 
Heuristics

$$$$

     RDKit          3D

 19 17  0  0  0  0  0  0  0  0999 V2000
   -0.9007   -1.2487   -0.1000 O   0  0  0  0  0  0  0  0  0  0  0  0
    2.7527    1.2398    1.3674 O   0  0  0  0  0  0  0  0  0  0  0  0
    1.1375   -1.4266    0.9130 O   0  0  0  0  0  1  0  0  0  0  0  0
    3.2345    0.7685    0.1691 N   0  0  0  0  0  0  0  0  0  0  0  0
   -2.1711   -0.6261   -0.0597 C   0  0  0  0  0  0  0  0  0  0  0  0
   -0.1439   -0.8923    1.0370 C   0  0  0  0  0  0  0  0  0  0  0  0
   -2.1096    0.7513   -0.6598 C   0  0  0  0  0  0  0  0  0  0  0  0
   -1.7541    0.9418   -1.9331 C   0  0  0  0  0  0  0  0  0  0  0  0
    2.9998   -0.4478   -0.1965 C   0  0  0  0  0  0  0  0  0  0  0  0
   -2.5964   -0.5759    0.9700 H   0  0  0  0  0  0  0  0  0  0  0  0
   -2.8786   -1.2390   -0.6576 H   0  0  0  0  0  0  0  0  0  0  0  0
   -0.6065   -1.3082    1.9592 H   0  0  0  0  0  0  0  0  0  0  0  0
   -0.0522    0.2129    1.1308 H   0  0  0  0  0  0  0  0  0  0  0  0
   -2.3688    1.6083   -0.0454 H   0  0  0  0  0  0  0  0  0  0  0  0
   -1.7213    1.9458   -2.3434 H   0  0  0  0  0  0  0  0  0  0  0  0
   -1.4949    0.1026   -2.5716 H   0  0  0  0  0  0  0  0  0  0  0  0
    2.3507   -1.1908    0.5132 H   0  0  0  0  0  0  0  0  0  0  0  0
    3.3830   -0.8096   -1.1408 H   0  0  0  0  0  0  0  0  0  0  0  0
    2.9400    2.1939    1.6482 H   0  0  0  0  0  0  0  0  0  0  0  0
  1  5  1  0
  1  6  1  0
  2  4  1  0
  2 19  1  0
  3  6  1  0
  4  9  2  3
  5  7  1  0
  5 10  1  0
  5 11  1  0
  6 12  1  0
  6 13  1  0
  7  8  2  3
  7 14  1  0
  8 15  1  0
  8 16  1  0
  9 17  1  0
  9 18  1  0
M  RAD  1   3   2
M  END
>  <reaction>  (24) 
rmg_rxn_15450

>  <mol_properties>  (24) 
{"1": {"label": "*4", "atom_type": "N3d"}, "2": {"label": "*3", "atom_type": "Cd"}, "9": {"label": "*0", "atom_type": "Cs"}, "10": {"label": "*1", "atom_type": "O2s"}, "18": {"label": "*2", "atom_type": "H0"}}

>  <type>  (24) 
unop_20

>  <geom_source>  (24) 
AutoTST

$$$$

     RDKit          3D

 19 17  0  0  0  0  0  0  0  0999 V2000
   -1.2681    3.2103    1.7134 O   0  0  0  0  0  0  0  0  0  0  0  0
   -0.6553    2.2888    0.8873 N   0  0  0  0  0  0  0  0  0  0  0  0
    0.5867    2.2160    1.1009 C   0  0  0  0  0  3  0  0  0  0  0  0
   -2.1896    3.1654    1.4509 H   0  0  0  0  0  0  0  0  0  0  0  0
    1.0889    2.8200    1.8536 H   0  0  0  0  0  0  0  0  0  0  0  0
   -0.3937   -3.0261   -2.1043 C   0  0  0  0  0  0  0  0  0  0  0  0
   -0.3937   -3.0261   -0.7820 C   0  0  0  0  0  0  0  0  0  0  0  0
   -0.3937   -1.8055    0.0906 C   0  0  0  0  0  0  0  0  0  0  0  0
   -0.2677   -0.5940   -0.6217 O   0  0  0  0  0  0  0  0  0  0  0  0
    1.0529   -0.2206   -0.8838 C   0  0  0  0  0  0  0  0  0  0  0  0
    1.7294    0.2197    0.2576 O   0  0  0  0  0  0  0  0  0  0  0  0
   -0.3940   -2.0998   -2.6659 H   0  0  0  0  0  0  0  0  0  0  0  0
   -0.4007   -3.9516   -2.6650 H   0  0  0  0  0  0  0  0  0  0  0  0
   -0.4032   -3.9684   -0.2406 H   0  0  0  0  0  0  0  0  0  0  0  0
    0.3975   -1.8865    0.8452 H   0  0  0  0  0  0  0  0  0  0  0  0
   -1.3409   -1.7512    0.6345 H   0  0  0  0  0  0  0  0  0  0  0  0
    0.9849    0.5645   -1.6420 H   0  0  0  0  0  0  0  0  0  0  0  0
    1.6380   -1.0613   -1.2667 H   0  0  0  0  0  0  0  0  0  0  0  0
    1.1922    1.1582    0.6541 H   0  0  0  0  0  0  0  0  0  0  0  0
  1  2  1  0
  1  4  1  0
  2  3  2  3
  3  5  1  0
  6  7  2  3
  6 12  1  0
  6 13  1  0
  7  8  1  0
  7 14  1  0
  8  9  1  0
  8 15  1  0
  8 16  1  0
  9 10  1  0
 10 11  1  0
 10 17  1  0
 10 18  1  0
 11 19  1  0
M  RAD  1   3   2
M  END
>  <reaction>  (25) 
rmg_rxn_15450

>  <mol_properties>  (25) 
{"1": {"label": "*4", "atom_type": "N3d"}, "2": {"label": "*3", "atom_type": "Cd"}, "9": {"label": "*0", "atom_type": "Cs"}, "10": {"label": "*1", "atom_type": "O2s"}, "18": {"label": "*2", "atom_type": "H0"}}

>  <type>  (25) 
unop_21

>  <geom_source>  (25) 
gaussian_log

$$$$
