
     RDKit          3D

 12 11  0  0  0  0  0  0  0  0999 V2000
   -1.5274   -0.4919    0.1369 C   0  0  0  0  0  0  0  0  0  0  0  0
   -0.6072    0.6290   -0.3246 C   0  0  0  0  0  0  0  0  0  0  0  0
    0.7721    0.5469    0.3173 C   0  0  0  0  0  0  0  0  0  0  0  0
    1.4326   -0.6552   -0.0529 O   0  0  0  0  0  0  0  0  0  0  0  0
   -1.6561   -0.4701    1.2237 H   0  0  0  0  0  0  0  0  0  0  0  0
   -1.1312   -1.4730   -0.1432 H   0  0  0  0  0  0  0  0  0  0  0  0
   -2.5143   -0.3835   -0.3239 H   0  0  0  0  0  0  0  0  0  0  0  0
   -0.5104    0.5715   -1.4150 H   0  0  0  0  0  0  0  0  0  0  0  0
   -1.0636    1.5948   -0.0816 H   0  0  0  0  0  0  0  0  0  0  0  0
    0.6973    0.5734    1.4089 H   0  0  0  0  0  0  0  0  0  0  0  0
    1.3928    1.3909    0.0000 H   0  0  0  0  0  0  0  0  0  0  0  0
    1.4986   -0.6662   -1.0230 H   0  0  0  0  0  0  0  0  0  0  0  0
  1  2  1  0
  1  5  1  0
  1  6  1  0
  1  7  1  0
  2  3  1  0
  2  8  1  0
  2  9  1  0
  3  4  1  0
  3 10  1  0
  3 11  1  0
  4 12  1  0
M  END
>  <reaction>  (1) 
rmg_rxn_1161

>  <mol_properties>  (1) 
{"3": {"label": "donator", "atom_type": "O2s"}, "11": {"label": "d_hydrogen", "atom_type": "H0"}}

>  <type>  (1) 
r1h

$$$$

     RDKit          3D

  1  0  0  0  0  0  0  0  0  0999 V2000
    0.0000    0.0000    0.0000 O   0  0  0  0  0 15  0  0  0  0  0  0
M  END
>  <reaction>  (2) 
rmg_rxn_1161

>  <mol_properties>  (2) 
{"0": {"label": "acceptor", "atom_type": "O2s"}}

>  <type>  (2) 
r2

$$$$

     RDKit          3D

  2  1  0  0  0  0  0  0  0  0999 V2000
    0.0000    0.0000    0.1079 O   0  0  0  0  0  1  0  0  0  0  0  0
    0.0000    0.0000   -0.8631 H   0  0  0  0  0  0  0  0  0  0  0  0
  1  2  1  0
M  RAD  1   1   2
M  END
>  <reaction>  (3) 
rmg_rxn_1161

>  <mol_properties>  (3) 
{"0": {"label": "acceptor", "atom_type": "O2s"}, "1": {"label": "a_hydrogen", "atom_type": "H0"}}

>  <type>  (3) 
r2h

$$$$

     RDKit          3D

 13 11  0  0  0  0  0  0  0  0999 V2000
   -2.1892   -0.9137    0.1649 O   0  0  0  0  0  1  0  0  0  0  0  0
    1.7688   -0.7081   -0.4540 C   0  0  0  0  0  0  0  0  0  0  0  0
    0.9552   -0.1408    0.7003 C   0  0  0  0  0  0  0  0  0  0  0  0
    0.1452    1.0830    0.2911 C   0  0  0  0  0  0  0  0  0  0  0  0
   -0.8072    0.7491   -0.7089 O   0  0  0  0  0  1  0  0  0  0  0  0
    2.4614    0.0413   -0.8501 H   0  0  0  0  0  0  0  0  0  0  0  0
    1.1214   -1.0441   -1.2700 H   0  0  0  0  0  0  0  0  0  0  0  0
    2.3562   -1.5673   -0.1150 H   0  0  0  0  0  0  0  0  0  0  0  0
    0.2810   -0.9235    1.0670 H   0  0  0  0  0  0  0  0  0  0  0  0
    1.6299    0.1282    1.5204 H   0  0  0  0  0  0  0  0  0  0  0  0
    0.7966    1.8678   -0.1059 H   0  0  0  0  0  0  0  0  0  0  0  0
   -0.3916    1.4924    1.1528 H   0  0  0  0  0  0  0  0  0  0  0  0
   -1.4987   -0.0828   -0.2717 H   0  0  0  0  0  0  0  0  0  0  0  0
  1 13  1  0
  2  3  1  0
  2  6  1  0
  2  7  1  0
  2  8  1  0
  3  4  1  0
  3  9  1  0
  3 10  1  0
  4  5  1  0
  4 11  1  0
  4 12  1  0
M  RAD  2   1   2   5   2
M  END
>  <reaction>  (4) 
rmg_rxn_1161

>  <mol_properties>  (4) 
{"0": {"label": "*1", "atom_type": "O2s"}, "3": {"label": "*4", "atom_type": "Cs"}, "4": {"label": "*3", "atom_type": "O2s"}, "12": {"label": "*2", "atom_type": "H0"}}

>  <type>  (4) 
ts

$$$$

     RDKit          3D

 13 11  0  0  0  0  0  0  0  0999 V2000
   -2.1073   -0.0161    0.9186 O   0  0  0  0  0  1  0  0  0  0  0  0
    0.8947   -0.9024   -1.5902 C   0  0  0  0  0  0  0  0  0  0  0  0
    0.8947   -0.9024   -0.0683 C   0  0  0  0  0  0  0  0  0  0  0  0
    0.8947    0.5069    0.5105 C   0  0  0  0  0  0  0  0  0  0  0  0
   -0.2829    1.2083    0.1368 O   0  0  0  0  0  1  0  0  0  0  0  0
    1.7698   -0.3739   -1.9816 H   0  0  0  0  0  0  0  0  0  0  0  0
   -0.0043   -0.4216   -1.9883 H   0  0  0  0  0  0  0  0  0  0  0  0
    0.9220   -1.9296   -1.9674 H   0  0  0  0  0  0  0  0  0  0  0  0
    0.0067   -1.4434    0.2784 H   0  0  0  0  0  0  0  0  0  0  0  0
    1.7761   -1.4432    0.2933 H   0  0  0  0  0  0  0  0  0  0  0  0
    1.7590    1.0759    0.1538 H   0  0  0  0  0  0  0  0  0  0  0  0
    0.9405    0.4717    1.6037 H   0  0  0  0  0  0  0  0  0  0  0  0
   -1.1957    0.5957    0.5279 H   0  0  0  0  0  0  0  0  0  0  0  0
  1 13  1  0
  2  3  1  0
  2  6  1  0
  2  7  1  0
  2  8  1  0
  3  4  1  0
  3  9  1  0
  3 10  1  0
  4  5  1  0
  4 11  1  0
  4 12  1  0
M  RAD  2   1   2   5   2
M  END
>  <reaction>  (5) 
rmg_rxn_1161

>  <mol_properties>  (5) 
{"0": {"label": "*1", "atom_type": "O2s"}, "3": {"label": "*4", "atom_type": "Cs"}, "4": {"label": "*3", "atom_type": "O2s"}, "12": {"label": "*2", "atom_type": "H0"}}

>  <type>  (5) 
unop_1

>  <geom_source>  (5) 
Heuristics

$$$$

     RDKit          3D

 13 11  0  0  0  0  0  0  0  0999 V2000
    1.8024   -0.6382    0.0979 O   0  0  0  0  0  0  0  0  0  0  0  0
    3.5088    0.6696   -0.3326 O   0  0  0  0  0 15  0  0  0  0  0  0
   -0.3426    0.2572   -0.4624 C   0  0  0  0  0  0  0  0  0  0  0  0
    0.4576   -0.6507    0.4694 C   0  0  0  0  0  0  0  0  0  0  0  0
   -1.8214    0.2696   -0.0870 C   0  0  0  0  0  0  0  0  0  0  0  0
   -0.2360   -0.1009   -1.5095 H   0  0  0  0  0  0  0  0  0  0  0  0
    0.0567    1.2930   -0.4026 H   0  0  0  0  0  0  0  0  0  0  0  0
    0.3699   -0.2947    1.5180 H   0  0  0  0  0  0  0  0  0  0  0  0
    0.0764   -1.6924    0.4082 H   0  0  0  0  0  0  0  0  0  0  0  0
   -2.2473   -0.7537   -0.1624 H   0  0  0  0  0  0  0  0  0  0  0  0
   -2.3753    0.9367   -0.7806 H   0  0  0  0  0  0  0  0  0  0  0  0
   -1.9532    0.6467    0.9496 H   0  0  0  0  0  0  0  0  0  0  0  0
    2.7040    0.0578    0.2941 H   0  0  0  0  0  0  0  0  0  0  0  0
  1  4  1  0
  1 13  1  0
  3  5  1  0
  3  4  1  0
  3  6  1  0
  3  7  1  0
  4  8  1  0
  4  9  1  0
  5 10  1  0
  5 11  1  0
  5 12  1  0
M  END
>  <reaction>  (6) 
rmg_rxn_1161

>  <mol_properties>  (6) 
{"0": {"label": "*1", "atom_type": "O2s"}, "3": {"label": "*4", "atom_type": "Cs"}, "4": {"label": "*3", "atom_type": "O2s"}, "12": {"label": "*2", "atom_type": "H0"}}

>  <type>  (6) 
unop_2

>  <geom_source>  (6) 
AutoTST

$$$$

     RDKit          3D

 13 11  0  0  0  0  0  0  0  0999 V2000
    1.2893    0.0665   -0.9689 O   0  0  0  0  0  1  0  0  0  0  0  0
    2.7928   -1.5381   -0.7333 O   0  0  0  0  0  1  0  0  0  0  0  0
   -0.4477   -0.0007    0.7058 C   0  0  0  0  0  0  0  0  0  0  0  0
    0.7359    0.7664    0.1103 C   0  0  0  0  0  0  0  0  0  0  0  0
   -1.5950   -0.1410   -0.2922 C   0  0  0  0  0  0  0  0  0  0  0  0
   -0.1146   -1.0103    1.0301 H   0  0  0  0  0  0  0  0  0  0  0  0
   -0.8159    0.5441    1.6019 H   0  0  0  0  0  0  0  0  0  0  0  0
    1.5101    0.9226    0.8935 H   0  0  0  0  0  0  0  0  0  0  0  0
    0.4009    1.7662   -0.2392 H   0  0  0  0  0  0  0  0  0  0  0  0
   -1.9494    0.8606   -0.6166 H   0  0  0  0  0  0  0  0  0  0  0  0
   -1.2679   -0.7208   -1.1813 H   0  0  0  0  0  0  0  0  0  0  0  0
   -2.4402   -0.6778    0.1877 H   0  0  0  0  0  0  0  0  0  0  0  0
    1.9017   -0.8378   -0.4978 H   0  0  0  0  0  0  0  0  0  0  0  0
  1  4  1  0
  2 13  1  0
  3  5  1  0
  3  4  1  0
  3  6  1  0
  3  7  1  0
  4  8  1  0
  4  9  1  0
  5 10  1  0
  5 11  1  0
  5 12  1  0
M  RAD  2   1   2   2   2
M  END
>  <reaction>  (7) 
rmg_rxn_1161

>  <mol_properties>  (7) 
{"0": {"label": "*1", "atom_type": "O2s"}, "3": {"label": "*4", "atom_type": "Cs"}, "4": {"label": "*3", "atom_type": "O2s"}, "12": {"label": "*2", "atom_type": "H0"}}

>  <type>  (7) 
unop_3

>  <geom_source>  (7) 
gaussian_log

$$$$
