
     RDKit          3D

  9  8  0  0  0  0  0  0  0  0999 V2000
   -1.0314    0.2323   -0.1227 C   0  0  0  0  0  0  0  0  0  0  0  0
    0.3094   -0.4511    0.0063 C   0  0  0  0  0  0  0  0  0  0  0  0
    0.3197   -1.7698    0.6841 N   0  0  0  0  0  0  0  0  0  0  0  0
   -0.7498   -2.1455    1.0557 O   0  0  0  0  0  0  0  0  0  0  0  0
   -1.4744    0.4198    0.8552 H   0  0  0  0  0  0  0  0  0  0  0  0
   -0.9073    1.1865   -0.6350 H   0  0  0  0  0  0  0  0  0  0  0  0
   -1.7319   -0.3778   -0.6927 H   0  0  0  0  0  0  0  0  0  0  0  0
    1.0375    0.1401    0.5713 H   0  0  0  0  0  0  0  0  0  0  0  0
    0.7826   -0.6494   -0.9609 H   0  0  0  0  0  0  0  0  0  0  0  0
  1  2  1  0
  1  5  1  0
  1  6  1  0
  1  7  1  0
  2  3  1  0
  2  8  1  0
  2  9  1  0
  3  4  2  0
M  END
>  <reaction>  (1) 
rmg_rxn_169

>  <mol_properties>  (1) 
{"0": {"label": "donator", "atom_type": "Cs"}, "4": {"label": "d_hydrogen", "atom_type": "H0"}}

>  <type>  (1) 
r1h

$$$$

     RDKit          3D

  9  8  0  0  0  0  0  0  0  0999 V2000
    1.3246   -0.8124   -0.0809 C   0  0  0  0  0  2  0  0  0  0  0  0
    0.4082    0.3080    0.1518 C   0  0  0  0  0  0  0  0  0  0  0  0
   -1.0545   -0.0277   -0.1520 C   0  0  0  0  0  0  0  0  0  0  0  0
    2.3933   -0.9471    0.0203 H   0  0  0  0  0  0  0  0  0  0  0  0
    0.4898    0.6406    1.1970 H   0  0  0  0  0  0  0  0  0  0  0  0
    0.7134    1.1680   -0.4624 H   0  0  0  0  0  0  0  0  0  0  0  0
   -1.4014   -0.8515    0.4727 H   0  0  0  0  0  0  0  0  0  0  0  0
   -1.1767   -0.3214   -1.1952 H   0  0  0  0  0  0  0  0  0  0  0  0
   -1.6915    0.8372    0.0370 H   0  0  0  0  0  0  0  0  0  0  0  0
  1  2  1  0
  1  4  1  0
  2  3  1  0
  2  5  1  0
  2  6  1  0
  3  7  1  0
  3  8  1  0
  3  9  1  0
M  RAD  1   1   3
M  END
>  <reaction>  (2) 
rmg_rxn_169

>  <mol_properties>  (2) 
{"0": {"label": "acceptor", "atom_type": "Cs"}}

>  <type>  (2) 
r2

$$$$

     RDKit          3D

 10  9  0  0  0  0  0  0  0  0999 V2000
    1.4352    0.2660   -0.1351 C   0  0  0  0  0  3  0  0  0  0  0  0
    0.2236   -0.3243    0.4850 C   0  0  0  0  0  0  0  0  0  0  0  0
   -0.8893    0.6872    0.7364 C   0  0  0  0  0  0  0  0  0  0  0  0
    2.3577   -0.2958   -0.1940 H   0  0  0  0  0  0  0  0  0  0  0  0
    1.3935    1.2286   -0.6287 H   0  0  0  0  0  0  0  0  0  0  0  0
   -0.1633   -1.1318   -0.1556 H   0  0  0  0  0  0  0  0  0  0  0  0
    0.4945   -0.8215    1.4240 H   0  0  0  0  0  0  0  0  0  0  0  0
   -1.1991    1.1627   -0.1967 H   0  0  0  0  0  0  0  0  0  0  0  0
   -1.7660    0.2103    1.1768 H   0  0  0  0  0  0  0  0  0  0  0  0
   -0.5545    1.4732    1.4159 H   0  0  0  0  0  0  0  0  0  0  0  0
  1  2  1  0
  1  4  1  0
  1  5  1  0
  2  3  1  0
  2  6  1  0
  2  7  1  0
  3  8  1  0
  3  9  1  0
  3 10  1  0
M  RAD  1   1   2
M  END
>  <reaction>  (3) 
rmg_rxn_169

>  <mol_properties>  (3) 
{"0": {"label": "a_hydrogen", "atom_type": "H0"}, "1": {"label": "acceptor", "atom_type": "Cs"}}

>  <type>  (3) 
r2h

$$$$

     RDKit          3D

 18 16  0  0  0  0  0  0  0  0999 V2000
    1.4855    0.8755    0.4611 C   0  0  0  0  0  0  0  0  0  0  0  0
    0.8890    0.4778    1.7731 C   0  0  0  0  0  0  0  0  0  0  0  0
    0.1849   -0.8264    1.8245 N   0  0  0  0  0  0  0  0  0  0  0  0
    0.2678   -1.4792    0.8288 O   0  0  0  0  0  0  0  0  0  0  0  0
    0.4830    1.1227   -0.3557 H   0  0  0  0  0  0  0  0  0  0  0  0
    2.0242    1.8189    0.5070 H   0  0  0  0  0  0  0  0  0  0  0  0
    2.0559    0.0959   -0.0366 H   0  0  0  0  0  0  0  0  0  0  0  0
    0.1502    1.1977    2.1392 H   0  0  0  0  0  0  0  0  0  0  0  0
    1.6315    0.3906    2.5779 H   0  0  0  0  0  0  0  0  0  0  0  0
   -0.5918    1.3466   -1.1280 C   0  0  0  0  0  2  0  0  0  0  0  0
   -1.3393    0.1857   -1.6515 C   0  0  0  0  0  0  0  0  0  0  0  0
   -2.6671   -0.0557   -0.9178 C   0  0  0  0  0  0  0  0  0  0  0  0
   -0.8867    2.3850   -1.2401 H   0  0  0  0  0  0  0  0  0  0  0  0
   -1.5459    0.3309   -2.7197 H   0  0  0  0  0  0  0  0  0  0  0  0
   -0.7205   -0.7118   -1.5720 H   0  0  0  0  0  0  0  0  0  0  0  0
   -3.3179    0.8176   -0.9900 H   0  0  0  0  0  0  0  0  0  0  0  0
   -2.4931   -0.2625    0.1391 H   0  0  0  0  0  0  0  0  0  0  0  0
   -3.1931   -0.9098   -1.3480 H   0  0  0  0  0  0  0  0  0  0  0  0
  1  2  1  0
  1  5  1  0
  1  6  1  0
  1  7  1  0
  2  3  1  0
  2  8  1  0
  2  9  1  0
  3  4  2  0
 10 11  1  0
 10 13  1  0
 11 12  1  0
 11 14  1  0
 11 15  1  0
 12 16  1  0
 12 17  1  0
 12 18  1  0
M  RAD  1  10   3
M  END
>  <reaction>  (4) 
rmg_rxn_169

>  <mol_properties>  (4) 
{"0": {"label": "*1", "atom_type": "Cs"}, "1": {"label": "*0", "atom_type": "Cs"}, "4": {"label": "*2", "atom_type": "H0"}, "9": {"label": "*3", "atom_type": "Cs"}, "10": {"label": "*4", "atom_type": "Cs"}}

>  <type>  (4) 
ts

$$$$

     RDKit          3D

 18 16  0  0  0  0  0  0  0  0999 V2000
    1.1909    0.4912    0.8019 C   0  0  0  0  0  3  0  0  0  0  0  0
    1.1909   -0.6858    1.7486 C   0  0  0  0  0  0  0  0  0  0  0  0
    1.1909   -2.0339    1.1313 N   0  0  0  0  0  0  0  0  0  0  0  0
    1.1909   -2.0339   -0.0616 O   0  0  0  0  0  0  0  0  0  0  0  0
    0.1347    0.4785    0.0308 H   0  0  0  0  0  0  0  0  0  0  0  0
    1.1909    1.4196    1.3733 H   0  0  0  0  0  0  0  0  0  0  0  0
    2.0710    0.4806    0.1593 H   0  0  0  0  0  0  0  0  0  0  0  0
    0.3197   -0.7006    2.4117 H   0  0  0  0  0  0  0  0  0  0  0  0
    2.0621   -0.7006    2.4116 H   0  0  0  0  0  0  0  0  0  0  0  0
   -0.9136    0.4658   -0.7346 C   0  0  0  0  0  3  0  0  0  0  0  0
   -1.8789    1.5923   -0.7207 C   0  0  0  0  0  0  0  0  0  0  0  0
   -2.0882    2.2352   -2.0874 C   0  0  0  0  0  0  0  0  0  0  0  0
   -0.6459   -0.0246   -1.6619 H   0  0  0  0  0  0  0  0  0  0  0  0
   -2.8494    1.2426   -0.3361 H   0  0  0  0  0  0  0  0  0  0  0  0
   -1.5517    2.3498    0.0013 H   0  0  0  0  0  0  0  0  0  0  0  0
   -2.4537    1.5014   -2.8091 H   0  0  0  0  0  0  0  0  0  0  0  0
   -1.1523    2.6441   -2.4725 H   0  0  0  0  0  0  0  0  0  0  0  0
   -2.8159    3.0463   -2.0363 H   0  0  0  0  0  0  0  0  0  0  0  0
  1  2  1  0
  1  6  1  0
  1  7  1  0
  2  3  1  0
  2  8  1  0
  2  9  1  0
  3  4  2  0
  5 10  1  0
 10 11  1  0
 10 13  1  0
 11 12  1  0
 11 14  1  0
 11 15  1  0
 12 16  1  0
 12 17  1  0
 12 18  1  0
M  RAD  2   1   2  10   2
M  END
>  <reaction>  (5) 
rmg_rxn_169

>  <mol_properties>  (5) 
{"0": {"label": "*1", "atom_type": "Cs"}, "1": {"label": "*0", "atom_type": "Cs"}, "4": {"label": "*2", "atom_type": "H0"}, "9": {"label": "*3", "atom_type": "Cs"}, "10": {"label": "*4", "atom_type": "Cs"}}

>  <type>  (5) 
unop_1

>  <geom_source>  (5) 
Heuristics

$$$$

     RDKit          3D

 18 16  0  0  0  0  0  0  0  0999 V2000
    1.4375    0.9870    0.5565 C   0  0  0  0  0  3  0  0  0  0  0  0
    1.4375   -0.1899    1.5032 C   0  0  0  0  0  0  0  0  0  0  0  0
    1.4375   -1.5381    0.8859 N   0  0  0  0  0  0  0  0  0  0  0  0
    1.4375   -1.5381   -0.3070 O   0  0  0  0  0  0  0  0  0  0  0  0
    0.3814    0.9743   -0.2146 H   0  0  0  0  0  0  0  0  0  0  0  0
    1.4375    1.9155    1.1279 H   0  0  0  0  0  0  0  0  0  0  0  0
    2.3176    0.9764   -0.0861 H   0  0  0  0  0  0  0  0  0  0  0  0
    0.5663   -0.2048    2.1663 H   0  0  0  0  0  0  0  0  0  0  0  0
    2.3087   -0.2048    2.1663 H   0  0  0  0  0  0  0  0  0  0  0  0
   -0.6670    0.9617   -0.9800 C   0  0  0  0  0  3  0  0  0  0  0  0
   -1.9451    0.3738   -0.5092 C   0  0  0  0  0  0  0  0  0  0  0  0
   -3.1798    1.0162   -1.1322 C   0  0  0  0  0  0  0  0  0  0  0  0
   -0.6280    1.5525   -1.8863 H   0  0  0  0  0  0  0  0  0  0  0  0
   -1.9560   -0.7061   -0.7228 H   0  0  0  0  0  0  0  0  0  0  0  0
   -2.0016    0.4406    0.5837 H   0  0  0  0  0  0  0  0  0  0  0  0
   -3.1586    0.9220   -2.2200 H   0  0  0  0  0  0  0  0  0  0  0  0
   -3.2291    2.0795   -0.8904 H   0  0  0  0  0  0  0  0  0  0  0  0
   -4.0956    0.5449   -0.7727 H   0  0  0  0  0  0  0  0  0  0  0  0
  1  2  1  0
  1  6  1  0
  1  7  1  0
  2  3  1  0
  2  8  1  0
  2  9  1  0
  3  4  2  0
  5 10  1  0
 10 11  1  0
 10 13  1  0
 11 12  1  0
 11 14  1  0
 11 15  1  0
 12 16  1  0
 12 17  1  0
 12 18  1  0
M  RAD  2   1   2  10   2
M  END
>  <reaction>  (6) 
rmg_rxn_169

>  <mol_properties>  (6) 
{"0": {"label": "*1", "atom_type": "Cs"}, "1": {"label": "*0", "atom_type": "Cs"}, "4": {"label": "*2", "atom_type": "H0"}, "9": {"label": "*3", "atom_type": "Cs"}, "10": {"label": "*4", "atom_type": "Cs"}}

>  <type>  (6) 
unop_2

>  <geom_source>  (6) 
Heuristics

$$$$

     RDKit          3D

 18 16  0  0  0  0  0  0  0  0999 V2000
    1.0929    0.5520    0.9720 C   0  0  0  0  0  3  0  0  0  0  0  0
    1.0929   -0.6250    1.9187 C   0  0  0  0  0  0  0  0  0  0  0  0
    1.0929   -1.9731    1.3014 N   0  0  0  0  0  0  0  0  0  0  0  0
    1.0929   -1.9731    0.1085 O   0  0  0  0  0  0  0  0  0  0  0  0
    0.0367    0.5392    0.2009 H   0  0  0  0  0  0  0  0  0  0  0  0
    1.0929    1.4804    1.5434 H   0  0  0  0  0  0  0  0  0  0  0  0
    1.9730    0.5414    0.3294 H   0  0  0  0  0  0  0  0  0  0  0  0
    0.2217   -0.6399    2.5817 H   0  0  0  0  0  0  0  0  0  0  0  0
    1.9641   -0.6399    2.5817 H   0  0  0  0  0  0  0  0  0  0  0  0
   -1.0116    0.5266   -0.5645 C   0  0  0  0  0  3  0  0  0  0  0  0
   -1.5978    1.7914   -1.0721 C   0  0  0  0  0  0  0  0  0  0  0  0
   -1.8789    1.7770   -2.5707 C   0  0  0  0  0  0  0  0  0  0  0  0
   -1.0789   -0.3872   -1.1410 H   0  0  0  0  0  0  0  0  0  0  0  0
   -2.5334    2.0074   -0.5335 H   0  0  0  0  0  0  0  0  0  0  0  0
   -0.9362    2.6301   -0.8251 H   0  0  0  0  0  0  0  0  0  0  0  0
   -2.5697    0.9711   -2.8278 H   0  0  0  0  0  0  0  0  0  0  0  0
   -0.9592    1.6213   -3.1376 H   0  0  0  0  0  0  0  0  0  0  0  0
   -2.3237    2.7173   -2.8994 H   0  0  0  0  0  0  0  0  0  0  0  0
  1  2  1  0
  1  6  1  0
  1  7  1  0
  2  3  1  0
  2  8  1  0
  2  9  1  0
  3  4  2  0
  5 10  1  0
 10 11  1  0
 10 13  1  0
 11 12  1  0
 11 14  1  0
 11 15  1  0
 12 16  1  0
 12 17  1  0
 12 18  1  0
M  RAD  2   1   2  10   2
M  END
>  <reaction>  (7) 
rmg_rxn_169

>  <mol_properties>  (7) 
{"0": {"label": "*1", "atom_type": "Cs"}, "1": {"label": "*0", "atom_type": "Cs"}, "4": {"label": "*2", "atom_type": "H0"}, "9": {"label": "*3", "atom_type": "Cs"}, "10": {"label": "*4", "atom_type": "Cs"}}

>  <type>  (7) 
unop_3

>  <geom_source>  (7) 
Heuristics

$$$$

     RDKit          3D

 18 16  0  0  0  0  0  0  0  0999 V2000
    1.0965    1.1911    1.0368 C   0  0  0  0  0  3  0  0  0  0  0  0
    1.0965    0.0141    1.9835 C   0  0  0  0  0  0  0  0  0  0  0  0
    1.0965   -1.3340    1.3662 N   0  0  0  0  0  0  0  0  0  0  0  0
    1.0965   -1.3340    0.1733 O   0  0  0  0  0  0  0  0  0  0  0  0
    0.0404    1.1783    0.2657 H   0  0  0  0  0  0  0  0  0  0  0  0
    1.0965    2.1195    1.6082 H   0  0  0  0  0  0  0  0  0  0  0  0
    1.9767    1.1805    0.3942 H   0  0  0  0  0  0  0  0  0  0  0  0
    0.2254   -0.0008    2.6465 H   0  0  0  0  0  0  0  0  0  0  0  0
    1.9677   -0.0008    2.6465 H   0  0  0  0  0  0  0  0  0  0  0  0
   -1.0080    1.1657   -0.4998 C   0  0  0  0  0  3  0  0  0  0  0  0
   -1.2708    0.0244   -1.4104 C   0  0  0  0  0  0  0  0  0  0  0  0
   -2.2135    0.3639   -2.5598 C   0  0  0  0  0  0  0  0  0  0  0  0
   -1.2150    2.1822   -0.8093 H   0  0  0  0  0  0  0  0  0  0  0  0
   -0.3198   -0.3454   -1.8235 H   0  0  0  0  0  0  0  0  0  0  0  0
   -1.6710   -0.8204   -0.8374 H   0  0  0  0  0  0  0  0  0  0  0  0
   -1.8091    1.1779   -3.1654 H   0  0  0  0  0  0  0  0  0  0  0  0
   -3.1879    0.6807   -2.1834 H   0  0  0  0  0  0  0  0  0  0  0  0
   -2.3668   -0.4960   -3.2135 H   0  0  0  0  0  0  0  0  0  0  0  0
  1  2  1  0
  1  6  1  0
  1  7  1  0
  2  3  1  0
  2  8  1  0
  2  9  1  0
  3  4  2  0
  5 10  1  0
 10 11  1  0
 10 13  1  0
 11 12  1  0
 11 14  1  0
 11 15  1  0
 12 16  1  0
 12 17  1  0
 12 18  1  0
M  RAD  2   1   2  10   2
M  END
>  <reaction>  (8) 
rmg_rxn_169

>  <mol_properties>  (8) 
{"0": {"label": "*1", "atom_type": "Cs"}, "1": {"label": "*0", "atom_type": "Cs"}, "4": {"label": "*2", "atom_type": "H0"}, "9": {"label": "*3", "atom_type": "Cs"}, "10": {"label": "*4", "atom_type": "Cs"}}

>  <type>  (8) 
unop_4

>  <geom_source>  (8) 
Heuristics

$$$$

     RDKit          3D

 18 16  0  0  0  0  0  0  0  0999 V2000
    1.1138    0.6547    1.0382 C   0  0  0  0  0  3  0  0  0  0  0  0
    1.1138   -0.5223    1.9849 C   0  0  0  0  0  0  0  0  0  0  0  0
    1.1138   -1.8704    1.3676 N   0  0  0  0  0  0  0  0  0  0  0  0
    1.1138   -1.8704    0.1747 O   0  0  0  0  0  0  0  0  0  0  0  0
    0.0577    0.6419    0.2671 H   0  0  0  0  0  0  0  0  0  0  0  0
    1.1138    1.5831    1.6096 H   0  0  0  0  0  0  0  0  0  0  0  0
    1.9940    0.6441    0.3956 H   0  0  0  0  0  0  0  0  0  0  0  0
    0.2426   -0.5372    2.6479 H   0  0  0  0  0  0  0  0  0  0  0  0
    1.9850   -0.5372    2.6479 H   0  0  0  0  0  0  0  0  0  0  0  0
   -0.9907    0.6293   -0.4984 C   0  0  0  0  0  3  0  0  0  0  0  0
   -1.2053    1.6915   -1.5115 C   0  0  0  0  0  0  0  0  0  0  0  0
   -2.3217    1.3761   -2.5010 C   0  0  0  0  0  0  0  0  0  0  0  0
   -1.7498   -0.1189   -0.3089 H   0  0  0  0  0  0  0  0  0  0  0  0
   -1.4313    2.6434   -1.0068 H   0  0  0  0  0  0  0  0  0  0  0  0
   -0.2703    1.8800   -2.0524 H   0  0  0  0  0  0  0  0  0  0  0  0
   -3.2700    1.2256   -1.9805 H   0  0  0  0  0  0  0  0  0  0  0  0
   -2.1002    0.4654   -3.0604 H   0  0  0  0  0  0  0  0  0  0  0  0
   -2.4576    2.1880   -3.2169 H   0  0  0  0  0  0  0  0  0  0  0  0
  1  2  1  0
  1  6  1  0
  1  7  1  0
  2  3  1  0
  2  8  1  0
  2  9  1  0
  3  4  2  0
  5 10  1  0
 10 11  1  0
 10 13  1  0
 11 12  1  0
 11 14  1  0
 11 15  1  0
 12 16  1  0
 12 17  1  0
 12 18  1  0
M  RAD  2   1   2  10   2
M  END
>  <reaction>  (9) 
rmg_rxn_169

>  <mol_properties>  (9) 
{"0": {"label": "*1", "atom_type": "Cs"}, "1": {"label": "*0", "atom_type": "Cs"}, "4": {"label": "*2", "atom_type": "H0"}, "9": {"label": "*3", "atom_type": "Cs"}, "10": {"label": "*4", "atom_type": "Cs"}}

>  <type>  (9) 
unop_5

>  <geom_source>  (9) 
Heuristics

$$$$

     RDKit          3D

 18 16  0  0  0  0  0  0  0  0999 V2000
    1.0101    1.0175    1.1348 C   0  0  0  0  0  3  0  0  0  0  0  0
    1.0101   -0.1594    2.0815 C   0  0  0  0  0  0  0  0  0  0  0  0
    1.0101   -1.5076    1.4642 N   0  0  0  0  0  0  0  0  0  0  0  0
    1.0101   -1.5076    0.2713 O   0  0  0  0  0  0  0  0  0  0  0  0
   -0.0461    1.0048    0.3637 H   0  0  0  0  0  0  0  0  0  0  0  0
    1.0101    1.9459    1.7062 H   0  0  0  0  0  0  0  0  0  0  0  0
    1.8902    1.0069    0.4922 H   0  0  0  0  0  0  0  0  0  0  0  0
    0.1389   -0.1743    2.7445 H   0  0  0  0  0  0  0  0  0  0  0  0
    1.8813   -0.1743    2.7445 H   0  0  0  0  0  0  0  0  0  0  0  0
   -1.0945    0.9922   -0.4017 C   0  0  0  0  0  3  0  0  0  0  0  0
   -1.0723    0.2930   -1.7100 C   0  0  0  0  0  0  0  0  0  0  0  0
   -1.9879    0.9217   -2.7548 C   0  0  0  0  0  0  0  0  0  0  0  0
   -1.4747    2.0023   -0.3183 H   0  0  0  0  0  0  0  0  0  0  0  0
   -0.0433    0.2722   -2.1006 H   0  0  0  0  0  0  0  0  0  0  0  0
   -1.3366   -0.7618   -1.5693 H   0  0  0  0  0  0  0  0  0  0  0  0
   -1.7115    1.9625   -2.9365 H   0  0  0  0  0  0  0  0  0  0  0  0
   -3.0272    0.9061   -2.4214 H   0  0  0  0  0  0  0  0  0  0  0  0
   -1.9295    0.3886   -3.7048 H   0  0  0  0  0  0  0  0  0  0  0  0
  1  2  1  0
  1  6  1  0
  1  7  1  0
  2  3  1  0
  2  8  1  0
  2  9  1  0
  3  4  2  0
  5 10  1  0
 10 11  1  0
 10 13  1  0
 11 12  1  0
 11 14  1  0
 11 15  1  0
 12 16  1  0
 12 17  1  0
 12 18  1  0
M  RAD  2   1   2  10   2
M  END
>  <reaction>  (10) 
rmg_rxn_169

>  <mol_properties>  (10) 
{"0": {"label": "*1", "atom_type": "Cs"}, "1": {"label": "*0", "atom_type": "Cs"}, "4": {"label": "*2", "atom_type": "H0"}, "9": {"label": "*3", "atom_type": "Cs"}, "10": {"label": "*4", "atom_type": "Cs"}}

>  <type>  (10) 
unop_6

>  <geom_source>  (10) 
Heuristics

$$$$

     RDKit          3D

 18 16  0  0  0  0  0  0  0  0999 V2000
    1.0036    0.8146    1.1370 C   0  0  0  0  0  3  0  0  0  0  0  0
    1.0036   -0.3624    2.0837 C   0  0  0  0  0  0  0  0  0  0  0  0
    1.0036   -1.7105    1.4664 N   0  0  0  0  0  0  0  0  0  0  0  0
    1.0036   -1.7105    0.2734 O   0  0  0  0  0  0  0  0  0  0  0  0
   -0.0525    0.8019    0.3658 H   0  0  0  0  0  0  0  0  0  0  0  0
    1.0036    1.7430    1.7084 H   0  0  0  0  0  0  0  0  0  0  0  0
    1.8838    0.8040    0.4944 H   0  0  0  0  0  0  0  0  0  0  0  0
    0.1324   -0.3773    2.7467 H   0  0  0  0  0  0  0  0  0  0  0  0
    1.8748   -0.3773    2.7467 H   0  0  0  0  0  0  0  0  0  0  0  0
   -1.1009    0.7892   -0.3996 C   0  0  0  0  0  3  0  0  0  0  0  0
   -0.9642    0.7176   -1.8751 C   0  0  0  0  0  0  0  0  0  0  0  0
   -2.0489    1.4808   -2.6274 C   0  0  0  0  0  0  0  0  0  0  0  0
   -1.7122    1.5523    0.0651 H   0  0  0  0  0  0  0  0  0  0  0  0
    0.0213    1.1063   -2.1743 H   0  0  0  0  0  0  0  0  0  0  0  0
   -0.9569   -0.3313   -2.1945 H   0  0  0  0  0  0  0  0  0  0  0  0
   -2.0428    2.5372   -2.3502 H   0  0  0  0  0  0  0  0  0  0  0  0
   -3.0379    1.0810   -2.3957 H   0  0  0  0  0  0  0  0  0  0  0  0
   -1.9025    1.4166   -3.7065 H   0  0  0  0  0  0  0  0  0  0  0  0
  1  2  1  0
  1  6  1  0
  1  7  1  0
  2  3  1  0
  2  8  1  0
  2  9  1  0
  3  4  2  0
  5 10  1  0
 10 11  1  0
 10 13  1  0
 11 12  1  0
 11 14  1  0
 11 15  1  0
 12 16  1  0
 12 17  1  0
 12 18  1  0
M  RAD  2   1   2  10   2
M  END
>  <reaction>  (11) 
rmg_rxn_169

>  <mol_properties>  (11) 
{"0": {"label": "*1", "atom_type": "Cs"}, "1": {"label": "*0", "atom_type": "Cs"}, "4": {"label": "*2", "atom_type": "H0"}, "9": {"label": "*3", "atom_type": "Cs"}, "10": {"label": "*4", "atom_type": "Cs"}}

>  <type>  (11) 
unop_7

>  <geom_source>  (11) 
Heuristics

$$$$

     RDKit          3D

 18 16  0  0  0  0  0  0  0  0999 V2000
    1.3217    0.5661    0.6365 C   0  0  0  0  0  3  0  0  0  0  0  0
    1.3217   -0.6109    1.5832 C   0  0  0  0  0  0  0  0  0  0  0  0
    1.3217   -1.9590    0.9660 N   0  0  0  0  0  0  0  0  0  0  0  0
    1.3217   -1.9590   -0.2270 O   0  0  0  0  0  0  0  0  0  0  0  0
    0.2655    0.5533   -0.1346 H   0  0  0  0  0  0  0  0  0  0  0  0
    1.3217    1.4945    1.2079 H   0  0  0  0  0  0  0  0  0  0  0  0
    2.2018    0.5555   -0.0061 H   0  0  0  0  0  0  0  0  0  0  0  0
    0.4505   -0.6258    2.2463 H   0  0  0  0  0  0  0  0  0  0  0  0
    2.1929   -0.6258    2.2463 H   0  0  0  0  0  0  0  0  0  0  0  0
   -0.7829    0.5407   -0.9000 C   0  0  0  0  0  3  0  0  0  0  0  0
   -2.0331    1.2250   -0.4884 C   0  0  0  0  0  0  0  0  0  0  0  0
   -2.5594    2.2122   -1.5245 C   0  0  0  0  0  0  0  0  0  0  0  0
   -0.4752    0.5231   -1.9378 H   0  0  0  0  0  0  0  0  0  0  0  0
   -2.8122    0.4762   -0.2779 H   0  0  0  0  0  0  0  0  0  0  0  0
   -1.8757    1.7373    0.4682 H   0  0  0  0  0  0  0  0  0  0  0  0
   -2.7601    1.7088   -2.4727 H   0  0  0  0  0  0  0  0  0  0  0  0
   -1.8308    3.0025   -1.7143 H   0  0  0  0  0  0  0  0  0  0  0  0
   -3.4866    2.6802   -1.1906 H   0  0  0  0  0  0  0  0  0  0  0  0
  1  2  1  0
  1  6  1  0
  1  7  1  0
  2  3  1  0
  2  8  1  0
  2  9  1  0
  3  4  2  0
  5 10  1  0
 10 11  1  0
 10 13  1  0
 11 12  1  0
 11 14  1  0
 11 15  1  0
 12 16  1  0
 12 17  1  0
 12 18  1  0
M  RAD  2   1   2  10   2
M  END
>  <reaction>  (12) 
rmg_rxn_169

>  <mol_properties>  (12) 
{"0": {"label": "*1", "atom_type": "Cs"}, "1": {"label": "*0", "atom_type": "Cs"}, "4": {"label": "*2", "atom_type": "H0"}, "9": {"label": "*3", "atom_type": "Cs"}, "10": {"label": "*4", "atom_type": "Cs"}}

>  <type>  (12) 
unop_8

>  <geom_source>  (12) 
Heuristics

$$$$

     RDKit          3D

 18 16  0  0  0  0  0  0  0  0999 V2000
    1.2345    1.2593    0.8661 C   0  0  0  0  0  3  0  0  0  0  0  0
    1.2345    0.0823    1.8129 C   0  0  0  0  0  0  0  0  0  0  0  0
    1.2345   -1.2658    1.1956 N   0  0  0  0  0  0  0  0  0  0  0  0
    1.2345   -1.2658    0.0026 O   0  0  0  0  0  0  0  0  0  0  0  0
    0.1784    1.2465    0.0950 H   0  0  0  0  0  0  0  0  0  0  0  0
    1.2345    2.1877    1.4376 H   0  0  0  0  0  0  0  0  0  0  0  0
    2.1147    1.2487    0.2235 H   0  0  0  0  0  0  0  0  0  0  0  0
    0.3633    0.0674    2.4759 H   0  0  0  0  0  0  0  0  0  0  0  0
    2.1057    0.0674    2.4759 H   0  0  0  0  0  0  0  0  0  0  0  0
   -0.8700    1.2339   -0.6704 C   0  0  0  0  0  3  0  0  0  0  0  0
   -1.5119   -0.0457   -1.0596 C   0  0  0  0  0  0  0  0  0  0  0  0
   -2.6357    0.1186   -2.0769 C   0  0  0  0  0  0  0  0  0  0  0  0
   -0.9859    2.1212   -1.2797 H   0  0  0  0  0  0  0  0  0  0  0  0
   -0.7534   -0.7299   -1.4700 H   0  0  0  0  0  0  0  0  0  0  0  0
   -1.8901   -0.5557   -0.1656 H   0  0  0  0  0  0  0  0  0  0  0  0
   -2.2659    0.5890   -2.9906 H   0  0  0  0  0  0  0  0  0  0  0  0
   -3.4334    0.7476   -1.6775 H   0  0  0  0  0  0  0  0  0  0  0  0
   -3.0688   -0.8453   -2.3479 H   0  0  0  0  0  0  0  0  0  0  0  0
  1  2  1  0
  1  6  1  0
  1  7  1  0
  2  3  1  0
  2  8  1  0
  2  9  1  0
  3  4  2  0
  5 10  1  0
 10 11  1  0
 10 13  1  0
 11 12  1  0
 11 14  1  0
 11 15  1  0
 12 16  1  0
 12 17  1  0
 12 18  1  0
M  RAD  2   1   2  10   2
M  END
>  <reaction>  (13) 
rmg_rxn_169

>  <mol_properties>  (13) 
{"0": {"label": "*1", "atom_type": "Cs"}, "1": {"label": "*0", "atom_type": "Cs"}, "4": {"label": "*2", "atom_type": "H0"}, "9": {"label": "*3", "atom_type": "Cs"}, "10": {"label": "*4", "atom_type": "Cs"}}

>  <type>  (13) 
unop_9

>  <geom_source>  (13) 
Heuristics

$$$$

     RDKit          3D

 18 16  0  0  0  0  0  0  0  0999 V2000
    1.4172    0.7523    0.5417 C   0  0  0  0  0  3  0  0  0  0  0  0
    1.4172   -0.4247    1.4884 C   0  0  0  0  0  0  0  0  0  0  0  0
    1.4172   -1.7728    0.8711 N   0  0  0  0  0  0  0  0  0  0  0  0
    1.4172   -1.7728   -0.3218 O   0  0  0  0  0  0  0  0  0  0  0  0
    0.3611    0.7396   -0.2294 H   0  0  0  0  0  0  0  0  0  0  0  0
    1.4172    1.6807    1.1131 H   0  0  0  0  0  0  0  0  0  0  0  0
    2.2974    0.7417   -0.1009 H   0  0  0  0  0  0  0  0  0  0  0  0
    0.5460   -0.4396    2.1514 H   0  0  0  0  0  0  0  0  0  0  0  0
    2.2884   -0.4395    2.1514 H   0  0  0  0  0  0  0  0  0  0  0  0
   -0.6873    0.7269   -0.9949 C   0  0  0  0  0  3  0  0  0  0  0  0
   -2.0521    0.7837   -0.4160 C   0  0  0  0  0  0  0  0  0  0  0  0
   -2.9873    1.7402   -1.1478 C   0  0  0  0  0  0  0  0  0  0  0  0
   -0.4943    1.0847   -1.9982 H   0  0  0  0  0  0  0  0  0  0  0  0
   -2.4962   -0.2236   -0.4172 H   0  0  0  0  0  0  0  0  0  0  0  0
   -1.9924    1.0588    0.6437 H   0  0  0  0  0  0  0  0  0  0  0  0
   -3.0896    1.4553   -2.1972 H   0  0  0  0  0  0  0  0  0  0  0  0
   -2.6026    2.7613   -1.1156 H   0  0  0  0  0  0  0  0  0  0  0  0
   -3.9828    1.7397   -0.7017 H   0  0  0  0  0  0  0  0  0  0  0  0
  1  2  1  0
  1  6  1  0
  1  7  1  0
  2  3  1  0
  2  8  1  0
  2  9  1  0
  3  4  2  0
  5 10  1  0
 10 11  1  0
 10 13  1  0
 11 12  1  0
 11 14  1  0
 11 15  1  0
 12 16  1  0
 12 17  1  0
 12 18  1  0
M  RAD  2   1   2  10   2
M  END
>  <reaction>  (14) 
rmg_rxn_169

>  <mol_properties>  (14) 
{"0": {"label": "*1", "atom_type": "Cs"}, "1": {"label": "*0", "atom_type": "Cs"}, "4": {"label": "*2", "atom_type": "H0"}, "9": {"label": "*3", "atom_type": "Cs"}, "10": {"label": "*4", "atom_type": "Cs"}}

>  <type>  (14) 
unop_10

>  <geom_source>  (14) 
Heuristics

$$$$

     RDKit          3D

 18 16  0  0  0  0  0  0  0  0999 V2000
    1.0722    0.6753    1.0689 C   0  0  0  0  0  3  0  0  0  0  0  0
    1.0722   -0.5017    2.0156 C   0  0  0  0  0  0  0  0  0  0  0  0
    1.0722   -1.8498    1.3983 N   0  0  0  0  0  0  0  0  0  0  0  0
    1.0722   -1.8498    0.2054 O   0  0  0  0  0  0  0  0  0  0  0  0
    0.0160    0.6626    0.2978 H   0  0  0  0  0  0  0  0  0  0  0  0
    1.0722    1.6037    1.6403 H   0  0  0  0  0  0  0  0  0  0  0  0
    1.9523    0.6647    0.4263 H   0  0  0  0  0  0  0  0  0  0  0  0
    0.2010   -0.5166    2.6787 H   0  0  0  0  0  0  0  0  0  0  0  0
    1.9434   -0.5166    2.6787 H   0  0  0  0  0  0  0  0  0  0  0  0
   -1.0323    0.6499   -0.4676 C   0  0  0  0  0  3  0  0  0  0  0  0
   -0.9823    1.2230   -1.8351 C   0  0  0  0  0  0  0  0  0  0  0  0
   -2.3404    1.6799   -2.3566 C   0  0  0  0  0  0  0  0  0  0  0  0
   -1.8792    0.8342    0.1811 H   0  0  0  0  0  0  0  0  0  0  0  0
   -0.2856    2.0751   -1.8535 H   0  0  0  0  0  0  0  0  0  0  0  0
   -0.5445    0.4924   -2.5256 H   0  0  0  0  0  0  0  0  0  0  0  0
   -2.7722    2.4387   -1.7006 H   0  0  0  0  0  0  0  0  0  0  0  0
   -3.0402    0.8435   -2.4049 H   0  0  0  0  0  0  0  0  0  0  0  0
   -2.2569    2.1090   -3.3561 H   0  0  0  0  0  0  0  0  0  0  0  0
  1  2  1  0
  1  6  1  0
  1  7  1  0
  2  3  1  0
  2  8  1  0
  2  9  1  0
  3  4  2  0
  5 10  1  0
 10 11  1  0
 10 13  1  0
 11 12  1  0
 11 14  1  0
 11 15  1  0
 12 16  1  0
 12 17  1  0
 12 18  1  0
M  RAD  2   1   2  10   2
M  END
>  <reaction>  (15) 
rmg_rxn_169

>  <mol_properties>  (15) 
{"0": {"label": "*1", "atom_type": "Cs"}, "1": {"label": "*0", "atom_type": "Cs"}, "4": {"label": "*2", "atom_type": "H0"}, "9": {"label": "*3", "atom_type": "Cs"}, "10": {"label": "*4", "atom_type": "Cs"}}

>  <type>  (15) 
unop_11

>  <geom_source>  (15) 
Heuristics

$$$$

     RDKit          3D

 18 16  0  0  0  0  0  0  0  0999 V2000
    1.3681    1.1829    0.6812 C   0  0  0  0  0  3  0  0  0  0  0  0
    1.3681    0.0059    1.6279 C   0  0  0  0  0  0  0  0  0  0  0  0
    1.3681   -1.3422    1.0106 N   0  0  0  0  0  0  0  0  0  0  0  0
    1.3681   -1.3422   -0.1823 O   0  0  0  0  0  0  0  0  0  0  0  0
    0.3119    1.1701   -0.0899 H   0  0  0  0  0  0  0  0  0  0  0  0
    1.3681    2.1113    1.2526 H   0  0  0  0  0  0  0  0  0  0  0  0
    2.2482    1.1723    0.0386 H   0  0  0  0  0  0  0  0  0  0  0  0
    0.4969   -0.0090    2.2909 H   0  0  0  0  0  0  0  0  0  0  0  0
    2.2393   -0.0090    2.2909 H   0  0  0  0  0  0  0  0  0  0  0  0
   -0.7364    1.1575   -0.8554 C   0  0  0  0  0  3  0  0  0  0  0  0
   -1.7500    0.0804   -0.7389 C   0  0  0  0  0  0  0  0  0  0  0  0
   -3.0372    0.3668   -1.5044 C   0  0  0  0  0  0  0  0  0  0  0  0
   -0.7988    1.8957   -1.6447 H   0  0  0  0  0  0  0  0  0  0  0  0
   -1.3231   -0.8690   -1.0969 H   0  0  0  0  0  0  0  0  0  0  0  0
   -1.9774   -0.0995    0.3185 H   0  0  0  0  0  0  0  0  0  0  0  0
   -2.8326    0.5084   -2.5678 H   0  0  0  0  0  0  0  0  0  0  0  0
   -3.5169    1.2745   -1.1334 H   0  0  0  0  0  0  0  0  0  0  0  0
   -3.7476   -0.4553   -1.4063 H   0  0  0  0  0  0  0  0  0  0  0  0
  1  2  1  0
  1  6  1  0
  1  7  1  0
  2  3  1  0
  2  8  1  0
  2  9  1  0
  3  4  2  0
  5 10  1  0
 10 11  1  0
 10 13  1  0
 11 12  1  0
 11 14  1  0
 11 15  1  0
 12 16  1  0
 12 17  1  0
 12 18  1  0
M  RAD  2   1   2  10   2
M  END
>  <reaction>  (16) 
rmg_rxn_169

>  <mol_properties>  (16) 
{"0": {"label": "*1", "atom_type": "Cs"}, "1": {"label": "*0", "atom_type": "Cs"}, "4": {"label": "*2", "atom_type": "H0"}, "9": {"label": "*3", "atom_type": "Cs"}, "10": {"label": "*4", "atom_type": "Cs"}}

>  <type>  (16) 
unop_12

>  <geom_source>  (16) 
Heuristics

$$$$

     RDKit          3D

 18 16  0  0  0  0  0  0  0  0999 V2000
    3.0382    0.9918   -1.3934 O   0  0  0  0  0  0  0  0  0  0  0  0
    2.7310   -0.0787   -0.9628 N   0  0  0  0  0  0  0  0  0  0  0  0
   -1.7827   -0.8531   -0.5198 C   0  0  0  0  0  0  0  0  0  0  0  0
   -2.6522    0.2385    0.0945 C   0  0  0  0  0  0  0  0  0  0  0  0
    2.5089   -0.2690    0.4487 C   0  0  0  0  0  0  0  0  0  0  0  0
   -0.4256   -0.3051   -0.9379 C   0  0  0  0  0  2  0  0  0  0  0  0
    1.2486    0.4614    0.8893 C   0  0  0  0  0  0  0  0  0  0  0  0
   -1.6302   -1.6651    0.2221 H   0  0  0  0  0  0  0  0  0  0  0  0
   -2.2940   -1.2787   -1.4094 H   0  0  0  0  0  0  0  0  0  0  0  0
   -3.6327   -0.1905    0.3904 H   0  0  0  0  0  0  0  0  0  0  0  0
   -2.8281    1.0519   -0.6416 H   0  0  0  0  0  0  0  0  0  0  0  0
   -2.1619    0.6603    0.9977 H   0  0  0  0  0  0  0  0  0  0  0  0
    2.3845   -1.3537    0.6487 H   0  0  0  0  0  0  0  0  0  0  0  0
    3.3856    0.1005    1.0238 H   0  0  0  0  0  0  0  0  0  0  0  0
   -0.5406    0.4823   -1.7131 H   0  0  0  0  0  0  0  0  0  0  0  0
    0.2414    0.2017    0.1501 H   0  0  0  0  0  0  0  0  0  0  0  0
    1.0418    0.2482    1.9592 H   0  0  0  0  0  0  0  0  0  0  0  0
    1.3680    1.5573    0.7536 H   0  0  0  0  0  0  0  0  0  0  0  0
  1  2  2  0
  2  5  1  0
  3  6  1  0
  3  4  1  0
  3  8  1  0
  3  9  1  0
  4 10  1  0
  4 11  1  0
  4 12  1  0
  5  7  1  0
  5 13  1  0
  5 14  1  0
  6 15  1  0
  7 16  1  0
  7 17  1  0
  7 18  1  0
M  RAD  1   6   3
M  END
>  <reaction>  (17) 
rmg_rxn_169

>  <mol_properties>  (17) 
{"0": {"label": "*1", "atom_type": "Cs"}, "1": {"label": "*0", "atom_type": "Cs"}, "4": {"label": "*2", "atom_type": "H0"}, "9": {"label": "*3", "atom_type": "Cs"}, "10": {"label": "*4", "atom_type": "Cs"}}

>  <type>  (17) 
unop_13

>  <geom_source>  (17) 
AutoTST

$$$$

     RDKit          3D

 18 16  0  0  0  0  0  0  0  0999 V2000
    1.4375    0.9870    0.5565 C   0  0  0  0  0  3  0  0  0  0  0  0
    1.4375   -0.1899    1.5032 C   0  0  0  0  0  0  0  0  0  0  0  0
    1.4375   -1.5381    0.8859 N   0  0  0  0  0  0  0  0  0  0  0  0
    1.4375   -1.5381   -0.3070 O   0  0  0  0  0  0  0  0  0  0  0  0
    0.3814    0.9743   -0.2146 H   0  0  0  0  0  0  0  0  0  0  0  0
    1.4375    1.9155    1.1279 H   0  0  0  0  0  0  0  0  0  0  0  0
    2.3176    0.9764   -0.0861 H   0  0  0  0  0  0  0  0  0  0  0  0
    0.5663   -0.2048    2.1663 H   0  0  0  0  0  0  0  0  0  0  0  0
    2.3087   -0.2048    2.1663 H   0  0  0  0  0  0  0  0  0  0  0  0
   -0.6670    0.9617   -0.9800 C   0  0  0  0  0  3  0  0  0  0  0  0
   -1.9451    0.3738   -0.5092 C   0  0  0  0  0  0  0  0  0  0  0  0
   -3.1798    1.0162   -1.1322 C   0  0  0  0  0  0  0  0  0  0  0  0
   -0.6280    1.5525   -1.8863 H   0  0  0  0  0  0  0  0  0  0  0  0
   -1.9560   -0.7061   -0.7228 H   0  0  0  0  0  0  0  0  0  0  0  0
   -2.0016    0.4405    0.5837 H   0  0  0  0  0  0  0  0  0  0  0  0
   -3.1586    0.9220   -2.2200 H   0  0  0  0  0  0  0  0  0  0  0  0
   -3.2291    2.0795   -0.8904 H   0  0  0  0  0  0  0  0  0  0  0  0
   -4.0956    0.5449   -0.7727 H   0  0  0  0  0  0  0  0  0  0  0  0
  1  2  1  0
  1  6  1  0
  1  7  1  0
  2  3  1  0
  2  8  1  0
  2  9  1  0
  3  4  2  0
  5 10  1  0
 10 11  1  0
 10 13  1  0
 11 12  1  0
 11 14  1  0
 11 15  1  0
 12 16  1  0
 12 17  1  0
 12 18  1  0
M  RAD  2   1   2  10   2
M  END
>  <reaction>  (18) 
rmg_rxn_169

>  <mol_properties>  (18) 
{"0": {"label": "*1", "atom_type": "Cs"}, "1": {"label": "*0", "atom_type": "Cs"}, "4": {"label": "*2", "atom_type": "H0"}, "9": {"label": "*3", "atom_type": "Cs"}, "10": {"label": "*4", "atom_type": "Cs"}}

>  <type>  (18) 
unop_14

>  <geom_source>  (18) 
gaussian_log

$$$$
