
     RDKit          3D

  5  4  0  0  0  0  0  0  0  0999 V2000
   -0.4583    0.0384    0.1517 N   0  0  0  0  0  0  0  0  0  0  0  0
    0.7454   -0.3487    0.5322 N   0  0  0  0  0  0  0  0  0  0  0  0
    0.7566   -1.0388    1.5193 O   0  0  0  0  0  0  0  0  0  0  0  0
   -1.2688   -0.2521    0.6850 H   0  0  0  0  0  0  0  0  0  0  0  0
   -0.5137    0.6154   -0.6670 H   0  0  0  0  0  0  0  0  0  0  0  0
  1  2  1  0
  1  4  1  0
  1  5  1  0
  2  3  2  0
M  END
>  <reaction>  (1) 
rmg_rxn_1492

>  <mol_properties>  (1) 
{"0": {"label": "donator", "atom_type": "N3s"}, "3": {"label": "d_hydrogen", "atom_type": "H0"}}

>  <type>  (1) 
r1h

$$$$

     RDKit          3D

  1  0  0  0  0  0  0  0  0  0999 V2000
    0.0000    0.0000    0.0000 O   0  0  0  0  0 15  0  0  0  0  0  0
M  END
>  <reaction>  (2) 
rmg_rxn_1492

>  <mol_properties>  (2) 
{"0": {"label": "acceptor", "atom_type": "O2s"}}

>  <type>  (2) 
r2

$$$$

     RDKit          3D

  2  1  0  0  0  0  0  0  0  0999 V2000
    0.0000    0.0000    0.4855 O   0  0  0  0  0  1  0  0  0  0  0  0
    0.0000    0.0000   -0.4855 H   0  0  0  0  0  0  0  0  0  0  0  0
  1  2  1  0
M  RAD  1   1   2
M  END
>  <reaction>  (3) 
rmg_rxn_1492

>  <mol_properties>  (3) 
{"0": {"label": "acceptor", "atom_type": "O2s"}, "1": {"label": "a_hydrogen", "atom_type": "H0"}}

>  <type>  (3) 
r2h

$$$$

     RDKit          3D

  6  4  0  0  0  0  0  0  0  0999 V2000
   -0.0000    1.6153   -0.8238 O   0  0  0  0  0 15  0  0  0  0  0  0
    0.0000    0.0964    1.0711 N   0  0  0  0  0  0  0  0  0  0  0  0
    0.0000   -0.9412    0.3452 N   0  0  0  0  0  0  0  0  0  0  0  0
    0.0000   -0.7751   -0.8539 O   0  0  0  0  0  0  0  0  0  0  0  0
   -0.0000    1.0513    0.3748 H   0  0  0  0  0  0  0  0  0  0  0  0
    0.0000   -0.0865    2.0638 H   0  0  0  0  0  0  0  0  0  0  0  0
  2  3  1  0
  2  5  1  0
  2  6  1  0
  3  4  2  0
M  END
>  <reaction>  (4) 
rmg_rxn_1492

>  <mol_properties>  (4) 
{"0": {"label": "*3", "atom_type": "O2s"}, "1": {"label": "*1", "atom_type": "N3s"}, "2": {"label": "*0", "atom_type": "N3d"}, "4": {"label": "*2", "atom_type": "H0"}}

>  <type>  (4) 
ts

$$$$

     RDKit          3D

  6  4  0  0  0  0  0  0  0  0999 V2000
   -2.2205   -0.3907   -0.0048 O   0  0  0  0  0  1  0  0  0  0  0  0
   -0.1504    0.7226    0.0012 N   0  0  0  0  0  0  0  0  0  0  0  0
    1.0045    0.3645   -0.0039 N   0  0  0  0  0  0  0  0  0  0  0  0
    1.5704   -0.6682    0.0006 O   0  0  0  0  0  1  0  0  0  0  0  0
   -1.1428   -0.0003    0.1140 H   0  0  0  0  0  0  0  0  0  0  0  0
   -0.4071    1.7016   -0.0092 H   0  0  0  0  0  0  0  0  0  0  0  0
  1  5  1  0
  2  3  2  3
  2  6  1  0
  3  4  1  0
M  RAD  2   1   2   4   2
M  END
>  <reaction>  (5) 
rmg_rxn_1492

>  <mol_properties>  (5) 
{"0": {"label": "*3", "atom_type": "O2s"}, "1": {"label": "*1", "atom_type": "N3s"}, "2": {"label": "*0", "atom_type": "N3d"}, "4": {"label": "*2", "atom_type": "H0"}}

>  <type>  (5) 
unop_1

>  <geom_source>  (5) 
crest_best.xyz

$$$$

     RDKit          3D

  6  4  0  0  0  0  0  0  0  0999 V2000
   -2.2205   -0.3907   -0.0048 O   0  0  0  0  0  1  0  0  0  0  0  0
   -0.1504    0.7226    0.0012 N   0  0  0  0  0  0  0  0  0  0  0  0
    1.0045    0.3645   -0.0039 N   0  0  0  0  0  0  0  0  0  0  0  0
    1.5704   -0.6682    0.0006 O   0  0  0  0  0  1  0  0  0  0  0  0
   -1.1428   -0.0003    0.1140 H   0  0  0  0  0  0  0  0  0  0  0  0
   -0.4071    1.7016   -0.0092 H   0  0  0  0  0  0  0  0  0  0  0  0
  1  5  1  0
  2  3  2  3
  2  6  1  0
  3  4  1  0
M  RAD  2   1   2   4   2
M  END
>  <reaction>  (6) 
rmg_rxn_1492

>  <mol_properties>  (6) 
{"0": {"label": "*3", "atom_type": "O2s"}, "1": {"label": "*1", "atom_type": "N3s"}, "2": {"label": "*0", "atom_type": "N3d"}, "4": {"label": "*2", "atom_type": "H0"}}

>  <type>  (6) 
unop_2

>  <geom_source>  (6) 
Heuristics

$$$$

     RDKit          3D

  6  4  0  0  0  0  0  0  0  0999 V2000
   -0.0000    1.9934   -0.4700 O   0  0  0  0  0  1  0  0  0  0  0  0
    0.0000    0.0687    0.9309 N   0  0  0  0  0  0  0  0  0  0  0  0
    0.0000   -1.1341    0.3861 N   0  0  0  0  0  0  0  0  0  0  0  0
    0.0000   -1.1341   -0.8184 O   0  0  0  0  0  1  0  0  0  0  0  0
   -0.0000    1.0513    0.2157 H   0  0  0  0  0  0  0  0  0  0  0  0
   -0.0000    0.1150    1.9330 H   0  0  0  0  0  0  0  0  0  0  0  0
  1  5  1  0
  2  3  2  3
  2  6  1  0
  3  4  1  0
M  RAD  2   1   2   4   2
M  END
>  <reaction>  (7) 
rmg_rxn_1492

>  <mol_properties>  (7) 
{"0": {"label": "*3", "atom_type": "O2s"}, "1": {"label": "*1", "atom_type": "N3s"}, "2": {"label": "*0", "atom_type": "N3d"}, "4": {"label": "*2", "atom_type": "H0"}}

>  <type>  (7) 
unop_3

>  <geom_source>  (7) 
Heuristics

$$$$

     RDKit          3D

  6  4  0  0  0  0  0  0  0  0999 V2000
   -2.2205   -0.3907   -0.0048 O   0  0  0  0  0  1  0  0  0  0  0  0
   -0.1504    0.7226    0.0011 N   0  0  0  0  0  0  0  0  0  0  0  0
    1.0045    0.3645   -0.0039 N   0  0  0  0  0  0  0  0  0  0  0  0
    1.5704   -0.6682    0.0006 O   0  0  0  0  0  1  0  0  0  0  0  0
   -1.1428   -0.0003    0.1140 H   0  0  0  0  0  0  0  0  0  0  0  0
   -0.4071    1.7016   -0.0092 H   0  0  0  0  0  0  0  0  0  0  0  0
  1  5  1  0
  2  3  2  3
  2  6  1  0
  3  4  1  0
M  RAD  2   1   2   4   2
M  END
>  <reaction>  (8) 
rmg_rxn_1492

>  <mol_properties>  (8) 
{"0": {"label": "*3", "atom_type": "O2s"}, "1": {"label": "*1", "atom_type": "N3s"}, "2": {"label": "*0", "atom_type": "N3d"}, "4": {"label": "*2", "atom_type": "H0"}}

>  <type>  (8) 
unop_4

>  <geom_source>  (8) 
gaussian_log

$$$$
