
     RDKit          3D

 18 17  0  0  0  0  0  0  0  0999 V2000
    2.2026   -0.7213   -0.2612 C   0  0  0  0  0  0  0  0  0  0  0  0
    1.5384    0.2638    0.6915 C   0  0  0  0  0  0  0  0  0  0  0  0
    2.2584    1.5946    0.7694 C   0  0  0  0  0  0  0  0  0  0  0  0
    2.2212    2.2185   -0.4893 O   0  0  0  0  0  0  0  0  0  0  0  0
    2.8988    3.4488   -0.5204 C   0  0  0  0  0  0  0  0  0  0  0  0
    2.7981    4.0296   -1.9118 C   0  0  0  0  0  0  0  0  0  0  0  0
    3.2294   -0.9309    0.0486 H   0  0  0  0  0  0  0  0  0  0  0  0
    2.2338   -0.3181   -1.2734 H   0  0  0  0  0  0  0  0  0  0  0  0
    1.6610   -1.6680   -0.2875 H   0  0  0  0  0  0  0  0  0  0  0  0
    1.4990   -0.1566    1.7002 H   0  0  0  0  0  0  0  0  0  0  0  0
    0.5055    0.4455    0.3835 H   0  0  0  0  0  0  0  0  0  0  0  0
    3.3038    1.4410    1.0808 H   0  0  0  0  0  0  0  0  0  0  0  0
    1.7844    2.2410    1.5226 H   0  0  0  0  0  0  0  0  0  0  0  0
    2.4596    4.1376    0.2164 H   0  0  0  0  0  0  0  0  0  0  0  0
    3.9524    3.3035   -0.2397 H   0  0  0  0  0  0  0  0  0  0  0  0
    1.7543    4.1869   -2.1856 H   0  0  0  0  0  0  0  0  0  0  0  0
    3.2472    3.3545   -2.6411 H   0  0  0  0  0  0  0  0  0  0  0  0
    3.3178    4.9878   -1.9600 H   0  0  0  0  0  0  0  0  0  0  0  0
  1  2  1  0
  1  7  1  0
  1  8  1  0
  1  9  1  0
  2  3  1  0
  2 10  1  0
  2 11  1  0
  3  4  1  0
  3 12  1  0
  3 13  1  0
  4  5  1  0
  5  6  1  0
  5 14  1  0
  5 15  1  0
  6 16  1  0
  6 17  1  0
  6 18  1  0
M  END
>  <reaction>  (1) 
rmg_rxn_374

>  <mol_properties>  (1) 
{"4": {"label": "donator", "atom_type": "Cs"}, "13": {"label": "d_hydrogen", "atom_type": "H0"}}

>  <type>  (1) 
r1h

$$$$

     RDKit          3D

  8  7  0  0  0  0  0  0  0  0999 V2000
   -0.7873    0.0891   -0.0873 C   0  0  0  0  0  0  0  0  0  0  0  0
    0.7223   -0.0637   -0.0109 C   0  0  0  0  0  0  0  0  0  0  0  0
    1.2867   -0.8404   -0.9706 O   0  0  0  0  0  1  0  0  0  0  0  0
   -1.2724   -0.8840   -0.0044 H   0  0  0  0  0  0  0  0  0  0  0  0
   -1.1517    0.7274    0.7201 H   0  0  0  0  0  0  0  0  0  0  0  0
   -1.0763    0.5365   -1.0389 H   0  0  0  0  0  0  0  0  0  0  0  0
    1.2329    0.9169   -0.0453 H   0  0  0  0  0  0  0  0  0  0  0  0
    1.0411   -0.4722    0.9662 H   0  0  0  0  0  0  0  0  0  0  0  0
  1  2  1  0
  1  4  1  0
  1  5  1  0
  1  6  1  0
  2  3  1  0
  2  7  1  0
  2  8  1  0
M  RAD  1   3   2
M  END
>  <reaction>  (2) 
rmg_rxn_374

>  <mol_properties>  (2) 
{"2": {"label": "acceptor", "atom_type": "O2s"}}

>  <type>  (2) 
r2

$$$$

     RDKit          3D

  9  8  0  0  0  0  0  0  0  0999 V2000
   -0.9895    0.3048    0.1041 C   0  0  0  0  0  0  0  0  0  0  0  0
    0.3761   -0.3562    0.0721 C   0  0  0  0  0  0  0  0  0  0  0  0
    0.3441   -1.6564   -0.4834 O   0  0  0  0  0  0  0  0  0  0  0  0
   -1.6997   -0.3114    0.6572 H   0  0  0  0  0  0  0  0  0  0  0  0
   -0.9320    1.2848    0.5822 H   0  0  0  0  0  0  0  0  0  0  0  0
   -1.3774    0.4507   -0.9077 H   0  0  0  0  0  0  0  0  0  0  0  0
    0.7581   -0.4813    1.0862 H   0  0  0  0  0  0  0  0  0  0  0  0
    1.0900    0.2787   -0.4681 H   0  0  0  0  0  0  0  0  0  0  0  0
    0.0089   -1.5959   -1.3792 H   0  0  0  0  0  0  0  0  0  0  0  0
  1  2  1  0
  1  4  1  0
  1  5  1  0
  1  6  1  0
  2  3  1  0
  2  7  1  0
  2  8  1  0
  3  9  1  0
M  END
>  <reaction>  (3) 
rmg_rxn_374

>  <mol_properties>  (3) 
{"2": {"label": "acceptor", "atom_type": "O2s"}, "8": {"label": "a_hydrogen", "atom_type": "H0"}}

>  <type>  (3) 
r2h

$$$$

     RDKit          3D

 26 24  0  0  0  0  0  0  0  0999 V2000
    1.7381    0.5538    2.2911 C   0  0  0  0  0  0  0  0  0  0  0  0
    0.3630    1.0753    1.8993 C   0  0  0  0  0  0  0  0  0  0  0  0
    0.4413    2.1558    1.0288 O   0  0  0  0  0  1  0  0  0  0  0  0
    2.3274    1.3435    2.7586 H   0  0  0  0  0  0  0  0  0  0  0  0
    1.6452   -0.2722    3.0000 H   0  0  0  0  0  0  0  0  0  0  0  0
    2.2816    0.1971    1.4144 H   0  0  0  0  0  0  0  0  0  0  0  0
   -0.2046    0.2612    1.4207 H   0  0  0  0  0  0  0  0  0  0  0  0
   -0.2085    1.3618    2.7936 H   0  0  0  0  0  0  0  0  0  0  0  0
    0.3409   -2.8105   -1.6565 C   0  0  0  0  0  0  0  0  0  0  0  0
    1.1908   -1.7753   -0.9321 C   0  0  0  0  0  0  0  0  0  0  0  0
    0.8529   -0.3498   -1.3088 C   0  0  0  0  0  0  0  0  0  0  0  0
   -0.4916   -0.0779   -0.9475 O   0  0  0  0  0  0  0  0  0  0  0  0
   -0.8258    1.2574   -0.9930 C   0  0  0  0  0  0  0  0  0  0  0  0
   -2.2932    1.4581   -0.7458 C   0  0  0  0  0  0  0  0  0  0  0  0
    0.4653   -2.7290   -2.7390 H   0  0  0  0  0  0  0  0  0  0  0  0
   -0.7164   -2.6731   -1.4293 H   0  0  0  0  0  0  0  0  0  0  0  0
    0.6226   -3.8224   -1.3625 H   0  0  0  0  0  0  0  0  0  0  0  0
    2.2495   -1.9341   -1.1549 H   0  0  0  0  0  0  0  0  0  0  0  0
    1.0776   -1.8832    0.1501 H   0  0  0  0  0  0  0  0  0  0  0  0
    0.9722   -0.1922   -2.3892 H   0  0  0  0  0  0  0  0  0  0  0  0
    1.5116    0.3552   -0.7897 H   0  0  0  0  0  0  0  0  0  0  0  0
   -0.2189    1.8155   -0.0993 H   0  0  0  0  0  0  0  0  0  0  0  0
   -0.4511    1.7489   -1.9007 H   0  0  0  0  0  0  0  0  0  0  0  0
   -2.5793    1.0162    0.2097 H   0  0  0  0  0  0  0  0  0  0  0  0
   -2.8878    0.9899   -1.5336 H   0  0  0  0  0  0  0  0  0  0  0  0
   -2.5237    2.5228   -0.7172 H   0  0  0  0  0  0  0  0  0  0  0  0
  1  2  1  0
  1  4  1  0
  1  5  1  0
  1  6  1  0
  2  3  1  0
  2  7  1  0
  2  8  1  0
  9 10  1  0
  9 15  1  0
  9 16  1  0
  9 17  1  0
 10 11  1  0
 10 18  1  0
 10 19  1  0
 11 12  1  0
 11 20  1  0
 11 21  1  0
 12 13  1  0
 13 14  1  0
 13 22  1  0
 13 23  1  0
 14 24  1  0
 14 25  1  0
 14 26  1  0
M  RAD  1   3   2
M  END
>  <reaction>  (4) 
rmg_rxn_374

>  <mol_properties>  (4) 
{"1": {"label": "*4", "atom_type": "Cs"}, "2": {"label": "*3", "atom_type": "O2s"}, "11": {"label": "*0", "atom_type": "O2s"}, "12": {"label": "*1", "atom_type": "Cs"}, "21": {"label": "*2", "atom_type": "H0"}}

>  <type>  (4) 
ts

$$$$

     RDKit          3D

 26 24  0  0  0  0  0  0  0  0999 V2000
    0.0867    2.9819    1.5226 C   0  0  0  0  0  0  0  0  0  0  0  0
    0.3240    1.8444    2.4986 C   0  0  0  0  0  0  0  0  0  0  0  0
   -0.2830    0.6342    2.0897 O   0  0  0  0  0  0  0  0  0  0  0  0
   -0.9821    3.1413    1.3737 H   0  0  0  0  0  0  0  0  0  0  0  0
    0.5287    3.9081    1.8956 H   0  0  0  0  0  0  0  0  0  0  0  0
    0.5396    2.7649    0.5513 H   0  0  0  0  0  0  0  0  0  0  0  0
    1.4005    1.7033    2.6590 H   0  0  0  0  0  0  0  0  0  0  0  0
   -0.1188    2.0804    3.4672 H   0  0  0  0  0  0  0  0  0  0  0  0
    0.8198   -2.7470   -2.6076 C   0  0  0  0  0  0  0  0  0  0  0  0
    0.8198   -2.7470   -1.0847 C   0  0  0  0  0  0  0  0  0  0  0  0
    0.8198   -1.3539   -0.4892 C   0  0  0  0  0  0  0  0  0  0  0  0
   -0.3632   -0.6903   -0.8568 O   0  0  0  0  0  0  0  0  0  0  0  0
   -0.4340    0.6278   -0.3759 C   0  0  0  0  0  3  0  0  0  0  0  0
   -1.7373    1.2455   -0.8267 C   0  0  0  0  0  0  0  0  0  0  0  0
    1.7018   -2.2326   -2.9973 H   0  0  0  0  0  0  0  0  0  0  0  0
   -0.0630   -2.2373   -2.9937 H   0  0  0  0  0  0  0  0  0  0  0  0
    0.8252   -3.7648   -3.0003 H   0  0  0  0  0  0  0  0  0  0  0  0
    1.7013   -3.2734   -0.7084 H   0  0  0  0  0  0  0  0  0  0  0  0
   -0.0546   -3.2849   -0.7095 H   0  0  0  0  0  0  0  0  0  0  0  0
    1.6940   -0.7888   -0.8496 H   0  0  0  0  0  0  0  0  0  0  0  0
    0.8945   -1.4078    0.6068 H   0  0  0  0  0  0  0  0  0  0  0  0
   -0.3533    0.6312    0.9418 H   0  0  0  0  0  0  0  0  0  0  0  0
    0.4189    1.2107   -0.7538 H   0  0  0  0  0  0  0  0  0  0  0  0
   -2.5836    0.6761   -0.4411 H   0  0  0  0  0  0  0  0  0  0  0  0
   -1.7981    1.2574   -1.9156 H   0  0  0  0  0  0  0  0  0  0  0  0
   -1.8149    2.2716   -0.4637 H   0  0  0  0  0  0  0  0  0  0  0  0
  1  2  1  0
  1  4  1  0
  1  5  1  0
  1  6  1  0
  2  3  1  0
  2  7  1  0
  2  8  1  0
  3 22  1  0
  9 10  1  0
  9 15  1  0
  9 16  1  0
  9 17  1  0
 10 11  1  0
 10 18  1  0
 10 19  1  0
 11 12  1  0
 11 20  1  0
 11 21  1  0
 12 13  1  0
 13 14  1  0
 13 23  1  0
 14 24  1  0
 14 25  1  0
 14 26  1  0
M  RAD  1  13   2
M  END
>  <reaction>  (5) 
rmg_rxn_374

>  <mol_properties>  (5) 
{"1": {"label": "*4", "atom_type": "Cs"}, "2": {"label": "*3", "atom_type": "O2s"}, "11": {"label": "*0", "atom_type": "O2s"}, "12": {"label": "*1", "atom_type": "Cs"}, "21": {"label": "*2", "atom_type": "H0"}}

>  <type>  (5) 
unop_1

>  <geom_source>  (5) 
Heuristics

$$$$

     RDKit          3D

 26 24  0  0  0  0  0  0  0  0999 V2000
    1.7196    0.6778    1.3991 C   0  0  0  0  0  0  0  0  0  0  0  0
    0.6646    0.5720    2.4848 C   0  0  0  0  0  0  0  0  0  0  0  0
   -0.5696    1.1516    2.1097 O   0  0  0  0  0  0  0  0  0  0  0  0
    1.8759    1.7201    1.1181 H   0  0  0  0  0  0  0  0  0  0  0  0
    2.6694    0.2632    1.7432 H   0  0  0  0  0  0  0  0  0  0  0  0
    1.4188    0.1233    0.5060 H   0  0  0  0  0  0  0  0  0  0  0  0
    0.5275   -0.4771    2.7766 H   0  0  0  0  0  0  0  0  0  0  0  0
    0.9841    1.1158    3.3749 H   0  0  0  0  0  0  0  0  0  0  0  0
    0.5331   -2.2295   -2.5877 C   0  0  0  0  0  0  0  0  0  0  0  0
    0.5331   -2.2295   -1.0648 C   0  0  0  0  0  0  0  0  0  0  0  0
    0.5331   -0.8365   -0.4692 C   0  0  0  0  0  0  0  0  0  0  0  0
   -0.6499   -0.1729   -0.8368 O   0  0  0  0  0  0  0  0  0  0  0  0
   -0.7206    1.1452   -0.3559 C   0  0  0  0  0  3  0  0  0  0  0  0
   -2.0240    1.7630   -0.8068 C   0  0  0  0  0  0  0  0  0  0  0  0
    1.4152   -1.7152   -2.9773 H   0  0  0  0  0  0  0  0  0  0  0  0
   -0.3496   -1.7198   -2.9737 H   0  0  0  0  0  0  0  0  0  0  0  0
    0.5386   -3.2474   -2.9803 H   0  0  0  0  0  0  0  0  0  0  0  0
    1.4146   -2.7560   -0.6885 H   0  0  0  0  0  0  0  0  0  0  0  0
   -0.3413   -2.7675   -0.6895 H   0  0  0  0  0  0  0  0  0  0  0  0
    1.4073   -0.2714   -0.8296 H   0  0  0  0  0  0  0  0  0  0  0  0
    0.6079   -0.8904    0.6268 H   0  0  0  0  0  0  0  0  0  0  0  0
   -0.6399    1.1486    0.9618 H   0  0  0  0  0  0  0  0  0  0  0  0
    0.1322    1.7282   -0.7338 H   0  0  0  0  0  0  0  0  0  0  0  0
   -2.8703    1.1936   -0.4211 H   0  0  0  0  0  0  0  0  0  0  0  0
   -2.0848    1.7748   -1.8956 H   0  0  0  0  0  0  0  0  0  0  0  0
   -2.1016    2.7890   -0.4437 H   0  0  0  0  0  0  0  0  0  0  0  0
  1  2  1  0
  1  4  1  0
  1  5  1  0
  1  6  1  0
  2  3  1  0
  2  7  1  0
  2  8  1  0
  3 22  1  0
  9 10  1  0
  9 15  1  0
  9 16  1  0
  9 17  1  0
 10 11  1  0
 10 18  1  0
 10 19  1  0
 11 12  1  0
 11 20  1  0
 11 21  1  0
 12 13  1  0
 13 14  1  0
 13 23  1  0
 14 24  1  0
 14 25  1  0
 14 26  1  0
M  RAD  1  13   2
M  END
>  <reaction>  (6) 
rmg_rxn_374

>  <mol_properties>  (6) 
{"1": {"label": "*4", "atom_type": "Cs"}, "2": {"label": "*3", "atom_type": "O2s"}, "11": {"label": "*0", "atom_type": "O2s"}, "12": {"label": "*1", "atom_type": "Cs"}, "21": {"label": "*2", "atom_type": "H0"}}

>  <type>  (6) 
unop_2

>  <geom_source>  (6) 
Heuristics

$$$$

     RDKit          3D

 26 24  0  0  0  0  0  0  0  0999 V2000
   -1.3729    2.6850    2.0539 C   0  0  0  0  0  0  0  0  0  0  0  0
   -0.0863    1.9945    2.4672 C   0  0  0  0  0  0  0  0  0  0  0  0
   -0.0121    0.6559    2.0169 O   0  0  0  0  0  0  0  0  0  0  0  0
   -2.2386    2.1292    2.4164 H   0  0  0  0  0  0  0  0  0  0  0  0
   -1.4140    3.6979    2.4596 H   0  0  0  0  0  0  0  0  0  0  0  0
   -1.4446    2.7597    0.9654 H   0  0  0  0  0  0  0  0  0  0  0  0
    0.7801    2.5700    2.1167 H   0  0  0  0  0  0  0  0  0  0  0  0
   -0.0200    1.9409    3.5547 H   0  0  0  0  0  0  0  0  0  0  0  0
    1.0906   -2.7252   -2.6804 C   0  0  0  0  0  0  0  0  0  0  0  0
    1.0906   -2.7252   -1.1575 C   0  0  0  0  0  0  0  0  0  0  0  0
    1.0906   -1.3321   -0.5620 C   0  0  0  0  0  0  0  0  0  0  0  0
   -0.0924   -0.6685   -0.9296 O   0  0  0  0  0  0  0  0  0  0  0  0
   -0.1631    0.6495   -0.4487 C   0  0  0  0  0  3  0  0  0  0  0  0
   -1.4665    1.2673   -0.8995 C   0  0  0  0  0  0  0  0  0  0  0  0
    1.9726   -2.2109   -3.0700 H   0  0  0  0  0  0  0  0  0  0  0  0
    0.2079   -2.2155   -3.0665 H   0  0  0  0  0  0  0  0  0  0  0  0
    1.0961   -3.7431   -3.0731 H   0  0  0  0  0  0  0  0  0  0  0  0
    1.9721   -3.2517   -0.7812 H   0  0  0  0  0  0  0  0  0  0  0  0
    0.2162   -3.2632   -0.7822 H   0  0  0  0  0  0  0  0  0  0  0  0
    1.9648   -0.7670   -0.9224 H   0  0  0  0  0  0  0  0  0  0  0  0
    1.1654   -1.3860    0.5340 H   0  0  0  0  0  0  0  0  0  0  0  0
   -0.0824    0.6530    0.8690 H   0  0  0  0  0  0  0  0  0  0  0  0
    0.6897    1.2325   -0.8266 H   0  0  0  0  0  0  0  0  0  0  0  0
   -2.3128    0.6979   -0.5139 H   0  0  0  0  0  0  0  0  0  0  0  0
   -1.5273    1.2792   -1.9884 H   0  0  0  0  0  0  0  0  0  0  0  0
   -1.5441    2.2933   -0.5365 H   0  0  0  0  0  0  0  0  0  0  0  0
  1  2  1  0
  1  4  1  0
  1  5  1  0
  1  6  1  0
  2  3  1  0
  2  7  1  0
  2  8  1  0
  3 22  1  0
  9 10  1  0
  9 15  1  0
  9 16  1  0
  9 17  1  0
 10 11  1  0
 10 18  1  0
 10 19  1  0
 11 12  1  0
 11 20  1  0
 11 21  1  0
 12 13  1  0
 13 14  1  0
 13 23  1  0
 14 24  1  0
 14 25  1  0
 14 26  1  0
M  RAD  1  13   2
M  END
>  <reaction>  (7) 
rmg_rxn_374

>  <mol_properties>  (7) 
{"1": {"label": "*4", "atom_type": "Cs"}, "2": {"label": "*3", "atom_type": "O2s"}, "11": {"label": "*0", "atom_type": "O2s"}, "12": {"label": "*1", "atom_type": "Cs"}, "21": {"label": "*2", "atom_type": "H0"}}

>  <type>  (7) 
unop_3

>  <geom_source>  (7) 
Heuristics

$$$$

     RDKit          3D

 26 24  0  0  0  0  0  0  0  0999 V2000
    0.2469   -0.9435    2.3495 C   0  0  0  0  0  0  0  0  0  0  0  0
   -0.7101    0.2289    2.4610 C   0  0  0  0  0  0  0  0  0  0  0  0
   -0.1580    1.4367    1.9749 O   0  0  0  0  0  0  0  0  0  0  0  0
    1.1775   -0.7290    2.8767 H   0  0  0  0  0  0  0  0  0  0  0  0
   -0.1965   -1.8449    2.7777 H   0  0  0  0  0  0  0  0  0  0  0  0
    0.4862   -1.1552    1.3038 H   0  0  0  0  0  0  0  0  0  0  0  0
   -1.6513   -0.0021    1.9459 H   0  0  0  0  0  0  0  0  0  0  0  0
   -0.9527    0.4191    3.5074 H   0  0  0  0  0  0  0  0  0  0  0  0
    0.9448   -1.9444   -2.7225 C   0  0  0  0  0  0  0  0  0  0  0  0
    0.9448   -1.9444   -1.1996 C   0  0  0  0  0  0  0  0  0  0  0  0
    0.9448   -0.5513   -0.6041 C   0  0  0  0  0  0  0  0  0  0  0  0
   -0.2382    0.1123   -0.9717 O   0  0  0  0  0  0  0  0  0  0  0  0
   -0.3090    1.4303   -0.4908 C   0  0  0  0  0  3  0  0  0  0  0  0
   -1.6123    2.0481   -0.9416 C   0  0  0  0  0  0  0  0  0  0  0  0
    1.8268   -1.4301   -3.1121 H   0  0  0  0  0  0  0  0  0  0  0  0
    0.0620   -1.4347   -3.1086 H   0  0  0  0  0  0  0  0  0  0  0  0
    0.9502   -2.9623   -3.1152 H   0  0  0  0  0  0  0  0  0  0  0  0
    1.8263   -2.4709   -0.8233 H   0  0  0  0  0  0  0  0  0  0  0  0
    0.0704   -2.4824   -0.8243 H   0  0  0  0  0  0  0  0  0  0  0  0
    1.8189    0.0138   -0.9645 H   0  0  0  0  0  0  0  0  0  0  0  0
    1.0195   -0.6052    0.4920 H   0  0  0  0  0  0  0  0  0  0  0  0
   -0.2283    1.4338    0.8269 H   0  0  0  0  0  0  0  0  0  0  0  0
    0.5439    2.0133   -0.8687 H   0  0  0  0  0  0  0  0  0  0  0  0
   -2.4586    1.4787   -0.5559 H   0  0  0  0  0  0  0  0  0  0  0  0
   -1.6731    2.0600   -2.0304 H   0  0  0  0  0  0  0  0  0  0  0  0
   -1.6899    3.0741   -0.5786 H   0  0  0  0  0  0  0  0  0  0  0  0
  1  2  1  0
  1  4  1  0
  1  5  1  0
  1  6  1  0
  2  3  1  0
  2  7  1  0
  2  8  1  0
  3 22  1  0
  9 10  1  0
  9 15  1  0
  9 16  1  0
  9 17  1  0
 10 11  1  0
 10 18  1  0
 10 19  1  0
 11 12  1  0
 11 20  1  0
 11 21  1  0
 12 13  1  0
 13 14  1  0
 13 23  1  0
 14 24  1  0
 14 25  1  0
 14 26  1  0
M  RAD  1  13   2
M  END
>  <reaction>  (8) 
rmg_rxn_374

>  <mol_properties>  (8) 
{"1": {"label": "*4", "atom_type": "Cs"}, "2": {"label": "*3", "atom_type": "O2s"}, "11": {"label": "*0", "atom_type": "O2s"}, "12": {"label": "*1", "atom_type": "Cs"}, "21": {"label": "*2", "atom_type": "H0"}}

>  <type>  (8) 
unop_4

>  <geom_source>  (8) 
Heuristics

$$$$

     RDKit          3D

 26 24  0  0  0  0  0  0  0  0999 V2000
   -2.0261    1.5993    2.7150 C   0  0  0  0  0  0  0  0  0  0  0  0
   -0.5752    1.9313    2.4187 C   0  0  0  0  0  0  0  0  0  0  0  0
    0.1528    0.8227    1.9279 O   0  0  0  0  0  0  0  0  0  0  0  0
   -2.0921    0.7750    3.4264 H   0  0  0  0  0  0  0  0  0  0  0  0
   -2.5412    2.4652    3.1359 H   0  0  0  0  0  0  0  0  0  0  0  0
   -2.5549    1.3087    1.8032 H   0  0  0  0  0  0  0  0  0  0  0  0
   -0.5165    2.7744    1.7185 H   0  0  0  0  0  0  0  0  0  0  0  0
   -0.0638    2.2347    3.3332 H   0  0  0  0  0  0  0  0  0  0  0  0
    1.2555   -2.5585   -2.7695 C   0  0  0  0  0  0  0  0  0  0  0  0
    1.2555   -2.5585   -1.2466 C   0  0  0  0  0  0  0  0  0  0  0  0
    1.2555   -1.1654   -0.6511 C   0  0  0  0  0  0  0  0  0  0  0  0
    0.0725   -0.5018   -1.0187 O   0  0  0  0  0  0  0  0  0  0  0  0
    0.0018    0.8163   -0.5378 C   0  0  0  0  0  3  0  0  0  0  0  0
   -1.3016    1.4340   -0.9886 C   0  0  0  0  0  0  0  0  0  0  0  0
    2.1376   -2.0441   -3.1591 H   0  0  0  0  0  0  0  0  0  0  0  0
    0.3728   -2.0488   -3.1556 H   0  0  0  0  0  0  0  0  0  0  0  0
    1.2610   -3.5763   -3.1622 H   0  0  0  0  0  0  0  0  0  0  0  0
    2.1370   -3.0849   -0.8703 H   0  0  0  0  0  0  0  0  0  0  0  0
    0.3811   -3.0964   -0.8713 H   0  0  0  0  0  0  0  0  0  0  0  0
    2.1297   -0.6003   -1.0115 H   0  0  0  0  0  0  0  0  0  0  0  0
    1.3303   -1.2193    0.4450 H   0  0  0  0  0  0  0  0  0  0  0  0
    0.0825    0.8197    0.7799 H   0  0  0  0  0  0  0  0  0  0  0  0
    0.8546    1.3992   -0.9157 H   0  0  0  0  0  0  0  0  0  0  0  0
   -2.1479    0.8646   -0.6029 H   0  0  0  0  0  0  0  0  0  0  0  0
   -1.3624    1.4459   -2.0774 H   0  0  0  0  0  0  0  0  0  0  0  0
   -1.3792    2.4601   -0.6256 H   0  0  0  0  0  0  0  0  0  0  0  0
  1  2  1  0
  1  4  1  0
  1  5  1  0
  1  6  1  0
  2  3  1  0
  2  7  1  0
  2  8  1  0
  3 22  1  0
  9 10  1  0
  9 15  1  0
  9 16  1  0
  9 17  1  0
 10 11  1  0
 10 18  1  0
 10 19  1  0
 11 12  1  0
 11 20  1  0
 11 21  1  0
 12 13  1  0
 13 14  1  0
 13 23  1  0
 14 24  1  0
 14 25  1  0
 14 26  1  0
M  RAD  1  13   2
M  END
>  <reaction>  (9) 
rmg_rxn_374

>  <mol_properties>  (9) 
{"1": {"label": "*4", "atom_type": "Cs"}, "2": {"label": "*3", "atom_type": "O2s"}, "11": {"label": "*0", "atom_type": "O2s"}, "12": {"label": "*1", "atom_type": "Cs"}, "21": {"label": "*2", "atom_type": "H0"}}

>  <type>  (9) 
unop_5

>  <geom_source>  (9) 
Heuristics

$$$$

     RDKit          3D

 26 24  0  0  0  0  0  0  0  0999 V2000
   -0.6835   -0.8377    2.7057 C   0  0  0  0  0  0  0  0  0  0  0  0
   -1.0515    0.6109    2.4429 C   0  0  0  0  0  0  0  0  0  0  0  0
    0.0263    1.3664    1.9257 O   0  0  0  0  0  0  0  0  0  0  0  0
    0.1657   -0.8987    3.3876 H   0  0  0  0  0  0  0  0  0  0  0  0
   -1.5251   -1.3748    3.1480 H   0  0  0  0  0  0  0  0  0  0  0  0
   -0.4147   -1.3478    1.7767 H   0  0  0  0  0  0  0  0  0  0  0  0
   -1.9190    0.6641    1.7726 H   0  0  0  0  0  0  0  0  0  0  0  0
   -1.3327    1.1033    3.3748 H   0  0  0  0  0  0  0  0  0  0  0  0
    1.1291   -2.0148   -2.7716 C   0  0  0  0  0  0  0  0  0  0  0  0
    1.1291   -2.0148   -1.2487 C   0  0  0  0  0  0  0  0  0  0  0  0
    1.1291   -0.6217   -0.6532 C   0  0  0  0  0  0  0  0  0  0  0  0
   -0.0539    0.0419   -1.0208 O   0  0  0  0  0  0  0  0  0  0  0  0
   -0.1247    1.3600   -0.5399 C   0  0  0  0  0  3  0  0  0  0  0  0
   -1.4280    1.9777   -0.9907 C   0  0  0  0  0  0  0  0  0  0  0  0
    2.0111   -1.5004   -3.1613 H   0  0  0  0  0  0  0  0  0  0  0  0
    0.2463   -1.5051   -3.1577 H   0  0  0  0  0  0  0  0  0  0  0  0
    1.1345   -3.0326   -3.1643 H   0  0  0  0  0  0  0  0  0  0  0  0
    2.0106   -2.5412   -0.8724 H   0  0  0  0  0  0  0  0  0  0  0  0
    0.2547   -2.5527   -0.8734 H   0  0  0  0  0  0  0  0  0  0  0  0
    2.0032   -0.0566   -1.0136 H   0  0  0  0  0  0  0  0  0  0  0  0
    1.2038   -0.6756    0.4428 H   0  0  0  0  0  0  0  0  0  0  0  0
   -0.0440    1.3634    0.7778 H   0  0  0  0  0  0  0  0  0  0  0  0
    0.7282    1.9429   -0.9178 H   0  0  0  0  0  0  0  0  0  0  0  0
   -2.2743    1.4083   -0.6051 H   0  0  0  0  0  0  0  0  0  0  0  0
   -1.4888    1.9896   -2.0796 H   0  0  0  0  0  0  0  0  0  0  0  0
   -1.5056    3.0038   -0.6277 H   0  0  0  0  0  0  0  0  0  0  0  0
  1  2  1  0
  1  4  1  0
  1  5  1  0
  1  6  1  0
  2  3  1  0
  2  7  1  0
  2  8  1  0
  3 22  1  0
  9 10  1  0
  9 15  1  0
  9 16  1  0
  9 17  1  0
 10 11  1  0
 10 18  1  0
 10 19  1  0
 11 12  1  0
 11 20  1  0
 11 21  1  0
 12 13  1  0
 13 14  1  0
 13 23  1  0
 14 24  1  0
 14 25  1  0
 14 26  1  0
M  RAD  1  13   2
M  END
>  <reaction>  (10) 
rmg_rxn_374

>  <mol_properties>  (10) 
{"1": {"label": "*4", "atom_type": "Cs"}, "2": {"label": "*3", "atom_type": "O2s"}, "11": {"label": "*0", "atom_type": "O2s"}, "12": {"label": "*1", "atom_type": "Cs"}, "21": {"label": "*2", "atom_type": "H0"}}

>  <type>  (10) 
unop_6

>  <geom_source>  (10) 
Heuristics

$$$$

     RDKit          3D

 26 24  0  0  0  0  0  0  0  0999 V2000
   -1.4846   -0.2854    2.9118 C   0  0  0  0  0  0  0  0  0  0  0  0
   -1.1506    1.1135    2.4275 C   0  0  0  0  0  0  0  0  0  0  0  0
    0.1569    1.2138    1.8980 O   0  0  0  0  0  0  0  0  0  0  0  0
   -0.7615   -0.6139    3.6595 H   0  0  0  0  0  0  0  0  0  0  0  0
   -2.4818   -0.3114    3.3562 H   0  0  0  0  0  0  0  0  0  0  0  0
   -1.4707   -0.9997    2.0841 H   0  0  0  0  0  0  0  0  0  0  0  0
   -1.8937    1.4451    1.6910 H   0  0  0  0  0  0  0  0  0  0  0  0
   -1.1836    1.8182    3.2595 H   0  0  0  0  0  0  0  0  0  0  0  0
    1.2596   -2.1673   -2.7993 C   0  0  0  0  0  0  0  0  0  0  0  0
    1.2596   -2.1673   -1.2764 C   0  0  0  0  0  0  0  0  0  0  0  0
    1.2596   -0.7742   -0.6809 C   0  0  0  0  0  0  0  0  0  0  0  0
    0.0766   -0.1106   -1.0485 O   0  0  0  0  0  0  0  0  0  0  0  0
    0.0059    1.2074   -0.5676 C   0  0  0  0  0  3  0  0  0  0  0  0
   -1.2974    1.8252   -1.0185 C   0  0  0  0  0  0  0  0  0  0  0  0
    2.1417   -1.6530   -3.1890 H   0  0  0  0  0  0  0  0  0  0  0  0
    0.3769   -1.6576   -3.1854 H   0  0  0  0  0  0  0  0  0  0  0  0
    1.2651   -3.1852   -3.1920 H   0  0  0  0  0  0  0  0  0  0  0  0
    2.1411   -2.6938   -0.9002 H   0  0  0  0  0  0  0  0  0  0  0  0
    0.3852   -2.7053   -0.9012 H   0  0  0  0  0  0  0  0  0  0  0  0
    2.1338   -0.2091   -1.0413 H   0  0  0  0  0  0  0  0  0  0  0  0
    1.3344   -0.8281    0.4151 H   0  0  0  0  0  0  0  0  0  0  0  0
    0.0866    1.2109    0.7501 H   0  0  0  0  0  0  0  0  0  0  0  0
    0.8588    1.7904   -0.9455 H   0  0  0  0  0  0  0  0  0  0  0  0
   -2.1438    1.2558   -0.6328 H   0  0  0  0  0  0  0  0  0  0  0  0
   -1.3582    1.8371   -2.1073 H   0  0  0  0  0  0  0  0  0  0  0  0
   -1.3750    2.8512   -0.6554 H   0  0  0  0  0  0  0  0  0  0  0  0
  1  2  1  0
  1  4  1  0
  1  5  1  0
  1  6  1  0
  2  3  1  0
  2  7  1  0
  2  8  1  0
  3 22  1  0
  9 10  1  0
  9 15  1  0
  9 16  1  0
  9 17  1  0
 10 11  1  0
 10 18  1  0
 10 19  1  0
 11 12  1  0
 11 20  1  0
 11 21  1  0
 12 13  1  0
 13 14  1  0
 13 23  1  0
 14 24  1  0
 14 25  1  0
 14 26  1  0
M  RAD  1  13   2
M  END
>  <reaction>  (11) 
rmg_rxn_374

>  <mol_properties>  (11) 
{"1": {"label": "*4", "atom_type": "Cs"}, "2": {"label": "*3", "atom_type": "O2s"}, "11": {"label": "*0", "atom_type": "O2s"}, "12": {"label": "*1", "atom_type": "Cs"}, "21": {"label": "*2", "atom_type": "H0"}}

>  <type>  (11) 
unop_7

>  <geom_source>  (11) 
Heuristics

$$$$

     RDKit          3D

 26 24  0  0  0  0  0  0  0  0999 V2000
    1.1679    2.4018    1.3696 C   0  0  0  0  0  0  0  0  0  0  0  0
    0.6462    1.5224    2.4909 C   0  0  0  0  0  0  0  0  0  0  0  0
   -0.4864    0.7645    2.1131 O   0  0  0  0  0  0  0  0  0  0  0  0
    0.3838    3.0704    1.0118 H   0  0  0  0  0  0  0  0  0  0  0  0
    2.0105    3.0051    1.7134 H   0  0  0  0  0  0  0  0  0  0  0  0
    1.5138    1.7971    0.5269 H   0  0  0  0  0  0  0  0  0  0  0  0
    1.4458    0.8670    2.8595 H   0  0  0  0  0  0  0  0  0  0  0  0
    0.3194    2.1369    3.3309 H   0  0  0  0  0  0  0  0  0  0  0  0
    0.6163   -2.6166   -2.5842 C   0  0  0  0  0  0  0  0  0  0  0  0
    0.6163   -2.6166   -1.0613 C   0  0  0  0  0  0  0  0  0  0  0  0
    0.6163   -1.2235   -0.4658 C   0  0  0  0  0  0  0  0  0  0  0  0
   -0.5667   -0.5599   -0.8334 O   0  0  0  0  0  0  0  0  0  0  0  0
   -0.6375    0.7581   -0.3525 C   0  0  0  0  0  3  0  0  0  0  0  0
   -1.9408    1.3759   -0.8033 C   0  0  0  0  0  0  0  0  0  0  0  0
    1.4983   -2.1023   -2.9739 H   0  0  0  0  0  0  0  0  0  0  0  0
   -0.2665   -2.1069   -2.9703 H   0  0  0  0  0  0  0  0  0  0  0  0
    0.6217   -3.6345   -2.9769 H   0  0  0  0  0  0  0  0  0  0  0  0
    1.4978   -3.1431   -0.6850 H   0  0  0  0  0  0  0  0  0  0  0  0
   -0.2581   -3.1546   -0.6861 H   0  0  0  0  0  0  0  0  0  0  0  0
    1.4905   -0.6584   -0.8262 H   0  0  0  0  0  0  0  0  0  0  0  0
    0.6910   -1.2774    0.6302 H   0  0  0  0  0  0  0  0  0  0  0  0
   -0.5568    0.7616    0.9652 H   0  0  0  0  0  0  0  0  0  0  0  0
    0.2154    1.3411   -0.7304 H   0  0  0  0  0  0  0  0  0  0  0  0
   -2.7871    0.8065   -0.4177 H   0  0  0  0  0  0  0  0  0  0  0  0
   -2.0016    1.3878   -1.8922 H   0  0  0  0  0  0  0  0  0  0  0  0
   -2.0184    2.4019   -0.4403 H   0  0  0  0  0  0  0  0  0  0  0  0
  1  2  1  0
  1  4  1  0
  1  5  1  0
  1  6  1  0
  2  3  1  0
  2  7  1  0
  2  8  1  0
  3 22  1  0
  9 10  1  0
  9 15  1  0
  9 16  1  0
  9 17  1  0
 10 11  1  0
 10 18  1  0
 10 19  1  0
 11 12  1  0
 11 20  1  0
 11 21  1  0
 12 13  1  0
 13 14  1  0
 13 23  1  0
 14 24  1  0
 14 25  1  0
 14 26  1  0
M  RAD  1  13   2
M  END
>  <reaction>  (12) 
rmg_rxn_374

>  <mol_properties>  (12) 
{"1": {"label": "*4", "atom_type": "Cs"}, "2": {"label": "*3", "atom_type": "O2s"}, "11": {"label": "*0", "atom_type": "O2s"}, "12": {"label": "*1", "atom_type": "Cs"}, "21": {"label": "*2", "atom_type": "H0"}}

>  <type>  (12) 
unop_8

>  <geom_source>  (12) 
Heuristics

$$$$

     RDKit          3D

 26 24  0  0  0  0  0  0  0  0999 V2000
    1.6655    1.5350    1.3436 C   0  0  0  0  0  0  0  0  0  0  0  0
    0.7836    1.0596    2.4835 C   0  0  0  0  0  0  0  0  0  0  0  0
   -0.5787    0.9569    2.1180 O   0  0  0  0  0  0  0  0  0  0  0  0
    1.3155    2.4961    0.9646 H   0  0  0  0  0  0  0  0  0  0  0  0
    2.6991    1.6472    1.6772 H   0  0  0  0  0  0  0  0  0  0  0  0
    1.6585    0.8178    0.5183 H   0  0  0  0  0  0  0  0  0  0  0  0
    1.1537    0.1026    2.8729 H   0  0  0  0  0  0  0  0  0  0  0  0
    0.8121    1.7758    3.3058 H   0  0  0  0  0  0  0  0  0  0  0  0
    0.5240   -2.4242   -2.5794 C   0  0  0  0  0  0  0  0  0  0  0  0
    0.5240   -2.4242   -1.0565 C   0  0  0  0  0  0  0  0  0  0  0  0
    0.5240   -1.0312   -0.4609 C   0  0  0  0  0  0  0  0  0  0  0  0
   -0.6590   -0.3676   -0.8285 O   0  0  0  0  0  0  0  0  0  0  0  0
   -0.7297    0.9505   -0.3477 C   0  0  0  0  0  3  0  0  0  0  0  0
   -2.0330    1.5683   -0.7985 C   0  0  0  0  0  0  0  0  0  0  0  0
    1.4061   -1.9099   -2.9690 H   0  0  0  0  0  0  0  0  0  0  0  0
   -0.3587   -1.9145   -2.9654 H   0  0  0  0  0  0  0  0  0  0  0  0
    0.5295   -3.4421   -2.9720 H   0  0  0  0  0  0  0  0  0  0  0  0
    1.4055   -2.9507   -0.6802 H   0  0  0  0  0  0  0  0  0  0  0  0
   -0.3504   -2.9622   -0.6812 H   0  0  0  0  0  0  0  0  0  0  0  0
    1.3982   -0.4661   -0.8213 H   0  0  0  0  0  0  0  0  0  0  0  0
    0.5988   -1.0851    0.6351 H   0  0  0  0  0  0  0  0  0  0  0  0
   -0.6490    0.9539    0.9700 H   0  0  0  0  0  0  0  0  0  0  0  0
    0.1232    1.5335   -0.7255 H   0  0  0  0  0  0  0  0  0  0  0  0
   -2.8794    0.9989   -0.4128 H   0  0  0  0  0  0  0  0  0  0  0  0
   -2.0938    1.5801   -1.8873 H   0  0  0  0  0  0  0  0  0  0  0  0
   -2.1106    2.5943   -0.4354 H   0  0  0  0  0  0  0  0  0  0  0  0
  1  2  1  0
  1  4  1  0
  1  5  1  0
  1  6  1  0
  2  3  1  0
  2  7  1  0
  2  8  1  0
  3 22  1  0
  9 10  1  0
  9 15  1  0
  9 16  1  0
  9 17  1  0
 10 11  1  0
 10 18  1  0
 10 19  1  0
 11 12  1  0
 11 20  1  0
 11 21  1  0
 12 13  1  0
 13 14  1  0
 13 23  1  0
 14 24  1  0
 14 25  1  0
 14 26  1  0
M  RAD  1  13   2
M  END
>  <reaction>  (13) 
rmg_rxn_374

>  <mol_properties>  (13) 
{"1": {"label": "*4", "atom_type": "Cs"}, "2": {"label": "*3", "atom_type": "O2s"}, "11": {"label": "*0", "atom_type": "O2s"}, "12": {"label": "*1", "atom_type": "Cs"}, "21": {"label": "*2", "atom_type": "H0"}}

>  <type>  (13) 
unop_9

>  <geom_source>  (13) 
Heuristics

$$$$

     RDKit          3D

 26 24  0  0  0  0  0  0  0  0999 V2000
   -1.9588    0.5719    2.9462 C   0  0  0  0  0  0  0  0  0  0  0  0
   -0.9785    1.6012    2.4147 C   0  0  0  0  0  0  0  0  0  0  0  0
    0.2010    1.0192    1.8949 O   0  0  0  0  0  0  0  0  0  0  0  0
   -1.4875   -0.0450    3.7124 H   0  0  0  0  0  0  0  0  0  0  0  0
   -2.8328    1.0610    3.3813 H   0  0  0  0  0  0  0  0  0  0  0  0
   -2.3095   -0.0845    2.1452 H   0  0  0  0  0  0  0  0  0  0  0  0
   -1.4655    2.2312    1.6594 H   0  0  0  0  0  0  0  0  0  0  0  0
   -0.6490    2.2589    3.2202 H   0  0  0  0  0  0  0  0  0  0  0  0
    1.3037   -2.3619   -2.8025 C   0  0  0  0  0  0  0  0  0  0  0  0
    1.3037   -2.3619   -1.2796 C   0  0  0  0  0  0  0  0  0  0  0  0
    1.3037   -0.9688   -0.6841 C   0  0  0  0  0  0  0  0  0  0  0  0
    0.1207   -0.3052   -1.0517 O   0  0  0  0  0  0  0  0  0  0  0  0
    0.0500    1.0128   -0.5708 C   0  0  0  0  0  3  0  0  0  0  0  0
   -1.2534    1.6306   -1.0216 C   0  0  0  0  0  0  0  0  0  0  0  0
    2.1857   -1.8476   -3.1921 H   0  0  0  0  0  0  0  0  0  0  0  0
    0.4209   -1.8522   -3.1886 H   0  0  0  0  0  0  0  0  0  0  0  0
    1.3091   -3.3798   -3.1952 H   0  0  0  0  0  0  0  0  0  0  0  0
    2.1852   -2.8884   -0.9033 H   0  0  0  0  0  0  0  0  0  0  0  0
    0.4293   -2.8999   -0.9043 H   0  0  0  0  0  0  0  0  0  0  0  0
    2.1779   -0.4038   -1.0445 H   0  0  0  0  0  0  0  0  0  0  0  0
    1.3785   -1.0228    0.4120 H   0  0  0  0  0  0  0  0  0  0  0  0
    0.1307    1.0163    0.7469 H   0  0  0  0  0  0  0  0  0  0  0  0
    0.9028    1.5958   -0.9487 H   0  0  0  0  0  0  0  0  0  0  0  0
   -2.0997    1.0612   -0.6359 H   0  0  0  0  0  0  0  0  0  0  0  0
   -1.3142    1.6425   -2.1104 H   0  0  0  0  0  0  0  0  0  0  0  0
   -1.3310    2.6566   -0.6586 H   0  0  0  0  0  0  0  0  0  0  0  0
  1  2  1  0
  1  4  1  0
  1  5  1  0
  1  6  1  0
  2  3  1  0
  2  7  1  0
  2  8  1  0
  3 22  1  0
  9 10  1  0
  9 15  1  0
  9 16  1  0
  9 17  1  0
 10 11  1  0
 10 18  1  0
 10 19  1  0
 11 12  1  0
 11 20  1  0
 11 21  1  0
 12 13  1  0
 13 14  1  0
 13 23  1  0
 14 24  1  0
 14 25  1  0
 14 26  1  0
M  RAD  1  13   2
M  END
>  <reaction>  (14) 
rmg_rxn_374

>  <mol_properties>  (14) 
{"1": {"label": "*4", "atom_type": "Cs"}, "2": {"label": "*3", "atom_type": "O2s"}, "11": {"label": "*0", "atom_type": "O2s"}, "12": {"label": "*1", "atom_type": "Cs"}, "21": {"label": "*2", "atom_type": "H0"}}

>  <type>  (14) 
unop_10

>  <geom_source>  (14) 
Heuristics

$$$$

     RDKit          3D

 26 23  0  0  0  0  0  0  0  0999 V2000
    1.4853   -0.0450    1.5739 C   0  0  0  0  0  3  0  0  0  0  0  0
    0.2996    0.2034    2.4879 C   0  0  0  0  0  3  0  0  0  0  0  0
   -0.4832    1.3097    2.0838 O   0  0  0  0  0  0  0  0  0  0  0  0
    2.1138    0.8444    1.5128 H   0  0  0  0  0  0  0  0  0  0  0  0
    2.0904   -0.8748    1.9448 H   0  0  0  0  0  0  0  0  0  0  0  0
    1.1537   -0.3007    0.5638 H   0  0  0  0  0  0  0  0  0  0  0  0
   -0.3168   -0.7018    2.5606 H   0  0  0  0  0  0  0  0  0  0  0  0
    0.6438    0.4417    3.4953 H   0  0  0  0  0  0  0  0  0  0  0  0
    0.6195   -2.0714   -2.6136 C   0  0  0  0  0  0  0  0  0  0  0  0
    0.6195   -2.0714   -1.0907 C   0  0  0  0  0  0  0  0  0  0  0  0
    0.6195   -0.6783   -0.4952 C   0  0  0  0  0  0  0  0  0  0  0  0
   -0.5635   -0.0147   -0.8627 O   0  0  0  0  0  0  0  0  0  0  0  0
   -0.6342    1.3033   -0.3819 C   0  0  0  0  0  3  0  0  0  0  0  0
   -1.9375    1.9211   -0.8327 C   0  0  0  0  0  0  0  0  0  0  0  0
    1.5016   -1.5571   -3.0032 H   0  0  0  0  0  0  0  0  0  0  0  0
   -0.2632   -1.5617   -2.9996 H   0  0  0  0  0  0  0  0  0  0  0  0
    0.6250   -3.0893   -3.0062 H   0  0  0  0  0  0  0  0  0  0  0  0
    1.5010   -2.5979   -0.7144 H   0  0  0  0  0  0  0  0  0  0  0  0
   -0.2549   -2.6094   -0.7154 H   0  0  0  0  0  0  0  0  0  0  0  0
    1.4937   -0.1133   -0.8555 H   0  0  0  0  0  0  0  0  0  0  0  0
    0.6943   -0.7323    0.6009 H   0  0  0  0  0  0  0  0  0  0  0  0
   -0.5535    1.3067    0.9358 H   0  0  0  0  0  0  0  0  0  0  0  0
    0.2187    1.8863   -0.7597 H   0  0  0  0  0  0  0  0  0  0  0  0
   -2.7839    1.3517   -0.4470 H   0  0  0  0  0  0  0  0  0  0  0  0
   -1.9983    1.9330   -1.9215 H   0  0  0  0  0  0  0  0  0  0  0  0
   -2.0151    2.9471   -0.4696 H   0  0  0  0  0  0  0  0  0  0  0  0
  1  4  1  0
  1  5  1  0
  1  6  1  0
  2  3  1  0
  2  7  1  0
  2  8  1  0
  3 22  1  0
  9 10  1  0
  9 15  1  0
  9 16  1  0
  9 17  1  0
 10 11  1  0
 10 18  1  0
 10 19  1  0
 11 12  1  0
 11 20  1  0
 11 21  1  0
 12 13  1  0
 13 14  1  0
 13 23  1  0
 14 24  1  0
 14 25  1  0
 14 26  1  0
M  RAD  3   1   2   2   2  13   2
M  END
>  <reaction>  (15) 
rmg_rxn_374

>  <mol_properties>  (15) 
{"1": {"label": "*4", "atom_type": "Cs"}, "2": {"label": "*3", "atom_type": "O2s"}, "11": {"label": "*0", "atom_type": "O2s"}, "12": {"label": "*1", "atom_type": "Cs"}, "21": {"label": "*2", "atom_type": "H0"}}

>  <type>  (15) 
unop_11

>  <geom_source>  (15) 
Heuristics

$$$$

     RDKit          3D

 26 24  0  0  0  0  0  0  0  0999 V2000
    1.3035   -0.8099   -0.1075 O   0  0  0  0  0  0  0  0  0  0  0  0
   -1.5383    0.4562    0.8702 O   0  0  0  0  0  0  0  0  0  0  0  0
    2.9473    0.9327   -0.2939 C   0  0  0  0  0  0  0  0  0  0  0  0
    1.4666    0.5607   -0.3855 C   0  0  0  0  0  0  0  0  0  0  0  0
   -2.9261    0.2820    0.9099 C   0  0  0  0  0  0  0  0  0  0  0  0
    3.4883    0.7712    1.1253 C   0  0  0  0  0  0  0  0  0  0  0  0
   -3.5716    0.9195   -0.3130 C   0  0  0  0  0  0  0  0  0  0  0  0
   -0.2847   -2.2879   -1.1194 C   0  0  0  0  0  0  0  0  0  0  0  0
   -0.0667   -1.0957   -0.2035 C   0  0  0  0  0  3  0  0  0  0  0  0
    3.5348    0.2929   -0.9878 H   0  0  0  0  0  0  0  0  0  0  0  0
    3.0750    1.9911   -0.6087 H   0  0  0  0  0  0  0  0  0  0  0  0
   -3.1755   -0.8012    0.9497 H   0  0  0  0  0  0  0  0  0  0  0  0
   -3.3230    0.7655    1.8273 H   0  0  0  0  0  0  0  0  0  0  0  0
    0.8912    1.1871    0.3364 H   0  0  0  0  0  0  0  0  0  0  0  0
    1.1200    0.7902   -1.4203 H   0  0  0  0  0  0  0  0  0  0  0  0
   -3.2005    0.4317   -1.2391 H   0  0  0  0  0  0  0  0  0  0  0  0
   -4.6740    0.7977   -0.2602 H   0  0  0  0  0  0  0  0  0  0  0  0
   -3.3302    2.0031   -0.3489 H   0  0  0  0  0  0  0  0  0  0  0  0
    3.4126   -0.2875    1.4524 H   0  0  0  0  0  0  0  0  0  0  0  0
    4.5565    1.0730    1.1512 H   0  0  0  0  0  0  0  0  0  0  0  0
    2.9208    1.4150    1.8306 H   0  0  0  0  0  0  0  0  0  0  0  0
   -1.3710   -2.5018   -1.1960 H   0  0  0  0  0  0  0  0  0  0  0  0
    0.1096   -2.0601   -2.1319 H   0  0  0  0  0  0  0  0  0  0  0  0
    0.2353   -3.1814   -0.7135 H   0  0  0  0  0  0  0  0  0  0  0  0
   -0.4714   -1.3161    0.8074 H   0  0  0  0  0  0  0  0  0  0  0  0
   -1.1285   -0.3280    0.0690 H   0  0  0  0  0  0  0  0  0  0  0  0
  1  9  1  0
  1  4  1  0
  2  5  1  0
  2 26  1  0
  3  6  1  0
  3  4  1  0
  3 10  1  0
  3 11  1  0
  4 14  1  0
  4 15  1  0
  5  7  1  0
  5 12  1  0
  5 13  1  0
  6 19  1  0
  6 20  1  0
  6 21  1  0
  7 16  1  0
  7 17  1  0
  7 18  1  0
  8  9  1  0
  8 22  1  0
  8 23  1  0
  8 24  1  0
  9 25  1  0
M  RAD  1   9   2
M  END
>  <reaction>  (16) 
rmg_rxn_374

>  <mol_properties>  (16) 
{"1": {"label": "*4", "atom_type": "Cs"}, "2": {"label": "*3", "atom_type": "O2s"}, "11": {"label": "*0", "atom_type": "O2s"}, "12": {"label": "*1", "atom_type": "Cs"}, "21": {"label": "*2", "atom_type": "H0"}}

>  <type>  (16) 
unop_12

>  <geom_source>  (16) 
AutoTST

$$$$

     RDKit          3D

 26 24  0  0  0  0  0  0  0  0999 V2000
    1.7196    0.6778    1.3991 C   0  0  0  0  0  0  0  0  0  0  0  0
    0.6646    0.5720    2.4848 C   0  0  0  0  0  0  0  0  0  0  0  0
   -0.5696    1.1516    2.1097 O   0  0  0  0  0  0  0  0  0  0  0  0
    1.8759    1.7201    1.1181 H   0  0  0  0  0  0  0  0  0  0  0  0
    2.6694    0.2632    1.7432 H   0  0  0  0  0  0  0  0  0  0  0  0
    1.4188    0.1233    0.5060 H   0  0  0  0  0  0  0  0  0  0  0  0
    0.5275   -0.4771    2.7766 H   0  0  0  0  0  0  0  0  0  0  0  0
    0.9841    1.1158    3.3749 H   0  0  0  0  0  0  0  0  0  0  0  0
    0.5331   -2.2295   -2.5877 C   0  0  0  0  0  0  0  0  0  0  0  0
    0.5331   -2.2295   -1.0648 C   0  0  0  0  0  0  0  0  0  0  0  0
    0.5331   -0.8365   -0.4692 C   0  0  0  0  0  0  0  0  0  0  0  0
   -0.6499   -0.1729   -0.8368 O   0  0  0  0  0  0  0  0  0  0  0  0
   -0.7206    1.1452   -0.3559 C   0  0  0  0  0  3  0  0  0  0  0  0
   -2.0240    1.7630   -0.8068 C   0  0  0  0  0  0  0  0  0  0  0  0
    1.4151   -1.7152   -2.9773 H   0  0  0  0  0  0  0  0  0  0  0  0
   -0.3496   -1.7198   -2.9737 H   0  0  0  0  0  0  0  0  0  0  0  0
    0.5386   -3.2474   -2.9803 H   0  0  0  0  0  0  0  0  0  0  0  0
    1.4146   -2.7560   -0.6885 H   0  0  0  0  0  0  0  0  0  0  0  0
   -0.3413   -2.7675   -0.6895 H   0  0  0  0  0  0  0  0  0  0  0  0
    1.4073   -0.2714   -0.8296 H   0  0  0  0  0  0  0  0  0  0  0  0
    0.6079   -0.8904    0.6268 H   0  0  0  0  0  0  0  0  0  0  0  0
   -0.6399    1.1486    0.9617 H   0  0  0  0  0  0  0  0  0  0  0  0
    0.1322    1.7282   -0.7338 H   0  0  0  0  0  0  0  0  0  0  0  0
   -2.8703    1.1936   -0.4211 H   0  0  0  0  0  0  0  0  0  0  0  0
   -2.0848    1.7748   -1.8956 H   0  0  0  0  0  0  0  0  0  0  0  0
   -2.1016    2.7890   -0.4437 H   0  0  0  0  0  0  0  0  0  0  0  0
  1  2  1  0
  1  4  1  0
  1  5  1  0
  1  6  1  0
  2  3  1  0
  2  7  1  0
  2  8  1  0
  3 22  1  0
  9 10  1  0
  9 15  1  0
  9 16  1  0
  9 17  1  0
 10 11  1  0
 10 18  1  0
 10 19  1  0
 11 12  1  0
 11 20  1  0
 11 21  1  0
 12 13  1  0
 13 14  1  0
 13 23  1  0
 14 24  1  0
 14 25  1  0
 14 26  1  0
M  RAD  1  13   2
M  END
>  <reaction>  (17) 
rmg_rxn_374

>  <mol_properties>  (17) 
{"1": {"label": "*4", "atom_type": "Cs"}, "2": {"label": "*3", "atom_type": "O2s"}, "11": {"label": "*0", "atom_type": "O2s"}, "12": {"label": "*1", "atom_type": "Cs"}, "21": {"label": "*2", "atom_type": "H0"}}

>  <type>  (17) 
unop_13

>  <geom_source>  (17) 
gaussian_log

$$$$
