
     RDKit          3D

  8  7  0  0  0  0  0  0  0  0999 V2000
    0.9548    0.1194   -0.0790 C   0  0  0  0  0  0  0  0  0  0  0  0
   -0.4838   -0.2649    0.0193 C   0  0  0  0  0  0  0  0  0  0  0  0
   -0.8933   -1.1081    0.8664 N   0  0  0  0  0  0  0  0  0  0  0  0
    1.3360   -0.0983   -1.0800 H   0  0  0  0  0  0  0  0  0  0  0  0
    1.0698    1.1948    0.0786 H   0  0  0  0  0  0  0  0  0  0  0  0
    1.5426   -0.4219    0.6602 H   0  0  0  0  0  0  0  0  0  0  0  0
   -1.1575    0.2324   -0.6905 H   0  0  0  0  0  0  0  0  0  0  0  0
   -1.8989   -1.2455    0.7886 H   0  0  0  0  0  0  0  0  0  0  0  0
  1  2  1  0
  1  4  1  0
  1  5  1  0
  1  6  1  0
  2  3  2  3
  2  7  1  0
  3  8  1  0
M  END
>  <reaction>  (1) 
rmg_rxn_16523

>  <mol_properties>  (1) 
{"2": {"label": "donator", "atom_type": "N3d"}, "7": {"label": "d_hydrogen", "atom_type": "H0"}}

>  <type>  (1) 
r1h

$$$$

     RDKit          3D

 11 10  0  0  0  0  0  0  0  0999 V2000
   -2.0988   -0.3145   -0.2868 C   0  0  0  0  0  0  0  0  0  0  0  0
   -0.7126   -0.0625   -1.4056 S   0  0  0  0  0  0  0  0  0  0  0  0
    0.5890    0.0878   -0.3019 C   0  0  0  0  0  3  0  0  0  0  0  0
    1.9588    0.3511   -0.8202 C   0  0  0  0  0  0  0  0  0  0  0  0
   -2.2228    0.5468    0.3682 H   0  0  0  0  0  0  0  0  0  0  0  0
   -1.9535   -1.2167    0.3068 H   0  0  0  0  0  0  0  0  0  0  0  0
   -2.9906   -0.4323   -0.8998 H   0  0  0  0  0  0  0  0  0  0  0  0
    0.4439   -0.2864    0.7037 H   0  0  0  0  0  0  0  0  0  0  0  0
    2.5745    0.8210   -0.0507 H   0  0  0  0  0  0  0  0  0  0  0  0
    1.9374    1.0182   -1.6853 H   0  0  0  0  0  0  0  0  0  0  0  0
    2.4745   -0.5669   -1.1316 H   0  0  0  0  0  0  0  0  0  0  0  0
  1  2  1  0
  1  5  1  0
  1  6  1  0
  1  7  1  0
  2  3  1  0
  3  4  1  0
  3  8  1  0
  4  9  1  0
  4 10  1  0
  4 11  1  0
M  RAD  1   3   2
M  END
>  <reaction>  (2) 
rmg_rxn_16523

>  <mol_properties>  (2) 
{"2": {"label": "acceptor", "atom_type": "Cs"}}

>  <type>  (2) 
r2

$$$$

     RDKit          3D

 12 11  0  0  0  0  0  0  0  0999 V2000
    1.8075    0.1979    0.4695 C   0  0  0  0  0  0  0  0  0  0  0  0
    1.0072   -0.8859   -0.7259 S   0  0  0  0  0  0  0  0  0  0  0  0
   -0.7258   -0.6904   -0.2447 C   0  0  0  0  0  0  0  0  0  0  0  0
   -1.0856   -1.2776    1.1108 C   0  0  0  0  0  0  0  0  0  0  0  0
    1.7126   -0.1777    1.4878 H   0  0  0  0  0  0  0  0  0  0  0  0
    1.4024    1.2089    0.4095 H   0  0  0  0  0  0  0  0  0  0  0  0
    2.8647    0.2298    0.2095 H   0  0  0  0  0  0  0  0  0  0  0  0
   -1.2866   -1.1892   -1.0369 H   0  0  0  0  0  0  0  0  0  0  0  0
   -0.9814    0.3707   -0.2917 H   0  0  0  0  0  0  0  0  0  0  0  0
   -0.5492   -0.7768    1.9180 H   0  0  0  0  0  0  0  0  0  0  0  0
   -0.8418   -2.3397    1.1503 H   0  0  0  0  0  0  0  0  0  0  0  0
   -2.1545   -1.1604    1.3035 H   0  0  0  0  0  0  0  0  0  0  0  0
  1  2  1  0
  1  5  1  0
  1  6  1  0
  1  7  1  0
  2  3  1  0
  3  4  1  0
  3  8  1  0
  3  9  1  0
  4 10  1  0
  4 11  1  0
  4 12  1  0
M  END
>  <reaction>  (3) 
rmg_rxn_16523

>  <mol_properties>  (3) 
{"0": {"label": "a_hydrogen", "atom_type": "H0"}, "3": {"label": "acceptor", "atom_type": "Cs"}}

>  <type>  (3) 
r2h

$$$$

     RDKit          3D

 19 17  0  0  0  0  0  0  0  0999 V2000
    0.3335   -0.1538   -3.1099 C   0  0  0  0  0  0  0  0  0  0  0  0
    0.1090    0.1241   -1.6527 C   0  0  0  0  0  0  0  0  0  0  0  0
    0.6210    1.1011   -1.0567 N   0  0  0  0  0  0  0  0  0  0  0  0
    0.7749   -1.1451   -3.2360 H   0  0  0  0  0  0  0  0  0  0  0  0
   -0.6229   -0.1560   -3.6380 H   0  0  0  0  0  0  0  0  0  0  0  0
    0.9893    0.5954   -3.5494 H   0  0  0  0  0  0  0  0  0  0  0  0
   -0.5400   -0.5892   -1.1165 H   0  0  0  0  0  0  0  0  0  0  0  0
    0.2183    1.0403    0.1444 H   0  0  0  0  0  0  0  0  0  0  0  0
    0.9545   -1.4566    1.6756 C   0  0  0  0  0  0  0  0  0  0  0  0
   -0.7172   -0.7917    1.6217 S   0  0  0  0  0  0  0  0  0  0  0  0
   -0.3587    0.9120    1.3464 C   0  0  0  0  0  3  0  0  0  0  0  0
   -1.5819    1.7921    1.3030 C   0  0  0  0  0  0  0  0  0  0  0  0
    1.5127   -1.0272    2.5073 H   0  0  0  0  0  0  0  0  0  0  0  0
    1.4752   -1.2527    0.7401 H   0  0  0  0  0  0  0  0  0  0  0  0
    0.8744   -2.5329    1.8181 H   0  0  0  0  0  0  0  0  0  0  0  0
    0.4307    1.2757    2.0063 H   0  0  0  0  0  0  0  0  0  0  0  0
   -1.2995    2.8000    0.9956 H   0  0  0  0  0  0  0  0  0  0  0  0
   -2.0730    1.8592    2.2776 H   0  0  0  0  0  0  0  0  0  0  0  0
   -2.3105    1.4151    0.5825 H   0  0  0  0  0  0  0  0  0  0  0  0
  1  2  1  0
  1  4  1  0
  1  5  1  0
  1  6  1  0
  2  3  2  3
  2  7  1  0
  3  8  1  0
  9 10  1  0
  9 13  1  0
  9 14  1  0
  9 15  1  0
 10 11  1  0
 11 12  1  0
 11 16  1  0
 12 17  1  0
 12 18  1  0
 12 19  1  0
M  RAD  1  11   2
M  END
>  <reaction>  (4) 
rmg_rxn_16523

>  <mol_properties>  (4) 
{"1": {"label": "*0", "atom_type": "Cd"}, "2": {"label": "*1", "atom_type": "N3d"}, "7": {"label": "*2", "atom_type": "H0"}, "9": {"label": "*4", "atom_type": "S2s"}, "10": {"label": "*3", "atom_type": "Cs"}}

>  <type>  (4) 
ts

$$$$

     RDKit          3D

 19 17  0  0  0  0  0  0  0  0999 V2000
   -3.4856   -0.3006    0.0651 C   0  0  0  0  0  0  0  0  0  0  0  0
   -2.0351   -0.0254   -0.1813 C   0  0  0  0  0  0  0  0  0  0  0  0
   -1.4599    0.9999    0.2158 N   0  0  0  0  0  0  0  0  0  0  0  0
   -3.5903   -1.2364    0.6123 H   0  0  0  0  0  0  0  0  0  0  0  0
   -3.9334    0.5100    0.6331 H   0  0  0  0  0  0  0  0  0  0  0  0
   -3.9981   -0.4069   -0.8897 H   0  0  0  0  0  0  0  0  0  0  0  0
   -1.5201   -0.8213   -0.7473 H   0  0  0  0  0  0  0  0  0  0  0  0
   -0.2686    1.0247   -0.1031 H   0  0  0  0  0  0  0  0  0  0  0  0
    1.1764   -1.3219    1.1557 C   0  0  0  0  0  0  0  0  0  0  0  0
    1.2899   -0.8479   -0.5968 S   0  0  0  0  0  0  0  0  0  0  0  0
    0.9823    0.8953   -0.5034 C   0  0  0  0  0  3  0  0  0  0  0  0
    1.8456    1.6988    0.4331 C   0  0  0  0  0  0  0  0  0  0  0  0
    1.0677   -2.4011    1.1809 H   0  0  0  0  0  0  0  0  0  0  0  0
    0.3052   -0.8436    1.5936 H   0  0  0  0  0  0  0  0  0  0  0  0
    2.0832   -1.0310    1.6768 H   0  0  0  0  0  0  0  0  0  0  0  0
    0.9976    1.2680   -1.5249 H   0  0  0  0  0  0  0  0  0  0  0  0
    2.9018    1.6108    0.1689 H   0  0  0  0  0  0  0  0  0  0  0  0
    1.7195    1.3764    1.4644 H   0  0  0  0  0  0  0  0  0  0  0  0
    1.5621    2.7471    0.3686 H   0  0  0  0  0  0  0  0  0  0  0  0
  1  2  1  0
  1  4  1  0
  1  5  1  0
  1  6  1  0
  2  3  2  3
  2  7  1  0
  3  8  1  0
  9 10  1  0
  9 13  1  0
  9 14  1  0
  9 15  1  0
 10 11  1  0
 11 12  1  0
 11 16  1  0
 12 17  1  0
 12 18  1  0
 12 19  1  0
M  RAD  1  11   2
M  END
>  <reaction>  (5) 
rmg_rxn_16523

>  <mol_properties>  (5) 
{"1": {"label": "*0", "atom_type": "Cd"}, "2": {"label": "*1", "atom_type": "N3d"}, "7": {"label": "*2", "atom_type": "H0"}, "9": {"label": "*4", "atom_type": "S2s"}, "10": {"label": "*3", "atom_type": "Cs"}}

>  <type>  (5) 
unop_1

>  <geom_source>  (5) 
crest_best.xyz

$$$$

     RDKit          3D

 19 17  0  0  0  0  0  0  0  0999 V2000
   -0.4398   -0.7869   -3.9479 C   0  0  0  0  0  0  0  0  0  0  0  0
   -0.4398   -0.7869   -2.4556 C   0  0  0  0  0  0  0  0  0  0  0  0
   -0.4398    0.2858   -1.7879 N   0  0  0  0  0  0  0  0  0  0  0  0
    0.4385   -1.3168   -4.3253 H   0  0  0  0  0  0  0  0  0  0  0  0
   -1.3181   -1.3168   -4.3253 H   0  0  0  0  0  0  0  0  0  0  0  0
   -0.4398    0.2338   -4.3265 H   0  0  0  0  0  0  0  0  0  0  0  0
   -0.4398   -1.7765   -1.9809 H   0  0  0  0  0  0  0  0  0  0  0  0
   -0.4398    0.0556   -0.5883 H   0  0  0  0  0  0  0  0  0  0  0  0
    0.4499    1.4455    2.7586 C   0  0  0  0  0  0  0  0  0  0  0  0
    1.0773    0.5839    1.3066 S   0  0  0  0  0  0  0  0  0  0  0  0
   -0.4398   -0.1912    0.6978 C   0  0  0  0  0  3  0  0  0  0  0  0
   -1.0005   -1.2898    1.5867 C   0  0  0  0  0  0  0  0  0  0  0  0
    0.1115    0.7532    3.5288 H   0  0  0  0  0  0  0  0  0  0  0  0
   -0.3615    2.1225    2.4882 H   0  0  0  0  0  0  0  0  0  0  0  0
    1.2751    2.0326    3.1592 H   0  0  0  0  0  0  0  0  0  0  0  0
   -1.1835    0.5902    0.5253 H   0  0  0  0  0  0  0  0  0  0  0  0
   -1.8849   -1.7362    1.1263 H   0  0  0  0  0  0  0  0  0  0  0  0
   -1.2980   -0.9016    2.5618 H   0  0  0  0  0  0  0  0  0  0  0  0
   -0.2606   -2.0748    1.7463 H   0  0  0  0  0  0  0  0  0  0  0  0
  1  2  1  0
  1  4  1  0
  1  5  1  0
  1  6  1  0
  2  3  2  3
  2  7  1  0
  3  8  1  0
  9 10  1  0
  9 13  1  0
  9 14  1  0
  9 15  1  0
 10 11  1  0
 11 12  1  0
 11 16  1  0
 12 17  1  0
 12 18  1  0
 12 19  1  0
M  RAD  1  11   2
M  END
>  <reaction>  (6) 
rmg_rxn_16523

>  <mol_properties>  (6) 
{"1": {"label": "*0", "atom_type": "Cd"}, "2": {"label": "*1", "atom_type": "N3d"}, "7": {"label": "*2", "atom_type": "H0"}, "9": {"label": "*4", "atom_type": "S2s"}, "10": {"label": "*3", "atom_type": "Cs"}}

>  <type>  (6) 
unop_2

>  <geom_source>  (6) 
Heuristics

$$$$

     RDKit          3D

 19 17  0  0  0  0  0  0  0  0999 V2000
   -0.2834    0.0738   -3.8005 C   0  0  0  0  0  0  0  0  0  0  0  0
   -0.2834    0.0738   -2.3082 C   0  0  0  0  0  0  0  0  0  0  0  0
   -0.2834    1.1464   -1.6405 N   0  0  0  0  0  0  0  0  0  0  0  0
    0.5948   -0.4562   -4.1779 H   0  0  0  0  0  0  0  0  0  0  0  0
   -1.1617   -0.4562   -4.1779 H   0  0  0  0  0  0  0  0  0  0  0  0
   -0.2834    1.0944   -4.1791 H   0  0  0  0  0  0  0  0  0  0  0  0
   -0.2834   -0.9159   -1.8335 H   0  0  0  0  0  0  0  0  0  0  0  0
   -0.2834    0.9163   -0.4409 H   0  0  0  0  0  0  0  0  0  0  0  0
    1.2759   -0.7402    2.6613 C   0  0  0  0  0  0  0  0  0  0  0  0
    0.5925   -0.9056    1.0030 S   0  0  0  0  0  0  0  0  0  0  0  0
   -0.2834    0.6695    0.8451 C   0  0  0  0  0  3  0  0  0  0  0  0
   -1.4961    0.8228    1.7493 C   0  0  0  0  0  0  0  0  0  0  0  0
    0.4976   -0.7277    3.4236 H   0  0  0  0  0  0  0  0  0  0  0  0
    1.8863    0.1602    2.7419 H   0  0  0  0  0  0  0  0  0  0  0  0
    1.9113   -1.6086    2.8296 H   0  0  0  0  0  0  0  0  0  0  0  0
    0.4300    1.4809    1.0065 H   0  0  0  0  0  0  0  0  0  0  0  0
   -1.9934    1.7766    1.5587 H   0  0  0  0  0  0  0  0  0  0  0  0
   -1.2136    0.8041    2.8029 H   0  0  0  0  0  0  0  0  0  0  0  0
   -2.2125    0.0191    1.5767 H   0  0  0  0  0  0  0  0  0  0  0  0
  1  2  1  0
  1  4  1  0
  1  5  1  0
  1  6  1  0
  2  3  2  3
  2  7  1  0
  3  8  1  0
  9 10  1  0
  9 13  1  0
  9 14  1  0
  9 15  1  0
 10 11  1  0
 11 12  1  0
 11 16  1  0
 12 17  1  0
 12 18  1  0
 12 19  1  0
M  RAD  1  11   2
M  END
>  <reaction>  (7) 
rmg_rxn_16523

>  <mol_properties>  (7) 
{"1": {"label": "*0", "atom_type": "Cd"}, "2": {"label": "*1", "atom_type": "N3d"}, "7": {"label": "*2", "atom_type": "H0"}, "9": {"label": "*4", "atom_type": "S2s"}, "10": {"label": "*3", "atom_type": "Cs"}}

>  <type>  (7) 
unop_3

>  <geom_source>  (7) 
Heuristics

$$$$

     RDKit          3D

 19 17  0  0  0  0  0  0  0  0999 V2000
   -0.2483   -0.9123   -3.9873 C   0  0  0  0  0  0  0  0  0  0  0  0
   -0.2483   -0.9123   -2.4950 C   0  0  0  0  0  0  0  0  0  0  0  0
   -0.2483    0.1603   -1.8273 N   0  0  0  0  0  0  0  0  0  0  0  0
    0.6300   -1.4423   -4.3647 H   0  0  0  0  0  0  0  0  0  0  0  0
   -1.1265   -1.4423   -4.3647 H   0  0  0  0  0  0  0  0  0  0  0  0
   -0.2483    0.1083   -4.3659 H   0  0  0  0  0  0  0  0  0  0  0  0
   -0.2483   -1.9020   -2.0203 H   0  0  0  0  0  0  0  0  0  0  0  0
   -0.2483   -0.0699   -0.6277 H   0  0  0  0  0  0  0  0  0  0  0  0
   -0.2673    1.2666    2.9409 C   0  0  0  0  0  0  0  0  0  0  0  0
    0.6277    1.0882    1.3880 S   0  0  0  0  0  0  0  0  0  0  0  0
   -0.2483   -0.3166    0.6583 C   0  0  0  0  0  3  0  0  0  0  0  0
   -0.0457   -1.6418    1.3755 C   0  0  0  0  0  0  0  0  0  0  0  0
   -0.1125    0.4137    3.6009 H   0  0  0  0  0  0  0  0  0  0  0  0
   -1.3341    1.4054    2.7608 H   0  0  0  0  0  0  0  0  0  0  0  0
    0.1228    2.1581    3.4301 H   0  0  0  0  0  0  0  0  0  0  0  0
   -1.3095   -0.0666    0.5907 H   0  0  0  0  0  0  0  0  0  0  0  0
   -0.5667   -2.4432    0.8465 H   0  0  0  0  0  0  0  0  0  0  0  0
   -0.4387   -1.6096    2.3927 H   0  0  0  0  0  0  0  0  0  0  0  0
    1.0135   -1.8954    1.4298 H   0  0  0  0  0  0  0  0  0  0  0  0
  1  2  1  0
  1  4  1  0
  1  5  1  0
  1  6  1  0
  2  3  2  3
  2  7  1  0
  3  8  1  0
  9 10  1  0
  9 13  1  0
  9 14  1  0
  9 15  1  0
 10 11  1  0
 11 12  1  0
 11 16  1  0
 12 17  1  0
 12 18  1  0
 12 19  1  0
M  RAD  1  11   2
M  END
>  <reaction>  (8) 
rmg_rxn_16523

>  <mol_properties>  (8) 
{"1": {"label": "*0", "atom_type": "Cd"}, "2": {"label": "*1", "atom_type": "N3d"}, "7": {"label": "*2", "atom_type": "H0"}, "9": {"label": "*4", "atom_type": "S2s"}, "10": {"label": "*3", "atom_type": "Cs"}}

>  <type>  (8) 
unop_4

>  <geom_source>  (8) 
Heuristics

$$$$

     RDKit          3D

 19 17  0  0  0  0  0  0  0  0999 V2000
    0.6533   -0.3667   -3.7598 C   0  0  0  0  0  0  0  0  0  0  0  0
    0.6533   -0.3667   -2.2675 C   0  0  0  0  0  0  0  0  0  0  0  0
    0.6533    0.7059   -1.5998 N   0  0  0  0  0  0  0  0  0  0  0  0
    1.5315   -0.8967   -4.1372 H   0  0  0  0  0  0  0  0  0  0  0  0
   -0.2250   -0.8967   -4.1372 H   0  0  0  0  0  0  0  0  0  0  0  0
    0.6533    0.6539   -4.1384 H   0  0  0  0  0  0  0  0  0  0  0  0
    0.6533   -1.3564   -1.7928 H   0  0  0  0  0  0  0  0  0  0  0  0
    0.6533    0.4757   -0.4002 H   0  0  0  0  0  0  0  0  0  0  0  0
   -1.1278   -0.4099    2.9198 C   0  0  0  0  0  0  0  0  0  0  0  0
   -0.8639   -0.7164    1.1645 S   0  0  0  0  0  0  0  0  0  0  0  0
    0.6533    0.2290    0.8859 C   0  0  0  0  0  3  0  0  0  0  0  0
    0.4987    1.7375    0.9957 C   0  0  0  0  0  0  0  0  0  0  0  0
   -1.3593    0.6356    3.1207 H   0  0  0  0  0  0  0  0  0  0  0  0
   -0.2573   -0.7140    3.5024 H   0  0  0  0  0  0  0  0  0  0  0  0
   -1.9796   -1.0174    3.2223 H   0  0  0  0  0  0  0  0  0  0  0  0
    1.4209   -0.1367    1.5718 H   0  0  0  0  0  0  0  0  0  0  0  0
    1.4449    2.2335    0.7675 H   0  0  0  0  0  0  0  0  0  0  0  0
    0.2053    2.0365    2.0030 H   0  0  0  0  0  0  0  0  0  0  0  0
   -0.2586    2.1013    0.3006 H   0  0  0  0  0  0  0  0  0  0  0  0
  1  2  1  0
  1  4  1  0
  1  5  1  0
  1  6  1  0
  2  3  2  3
  2  7  1  0
  3  8  1  0
  9 10  1  0
  9 13  1  0
  9 14  1  0
  9 15  1  0
 10 11  1  0
 11 12  1  0
 11 16  1  0
 12 17  1  0
 12 18  1  0
 12 19  1  0
M  RAD  1  11   2
M  END
>  <reaction>  (9) 
rmg_rxn_16523

>  <mol_properties>  (9) 
{"1": {"label": "*0", "atom_type": "Cd"}, "2": {"label": "*1", "atom_type": "N3d"}, "7": {"label": "*2", "atom_type": "H0"}, "9": {"label": "*4", "atom_type": "S2s"}, "10": {"label": "*3", "atom_type": "Cs"}}

>  <type>  (9) 
unop_5

>  <geom_source>  (9) 
Heuristics

$$$$

     RDKit          3D

 19 17  0  0  0  0  0  0  0  0999 V2000
   -0.1115   -0.9736   -3.9834 C   0  0  0  0  0  0  0  0  0  0  0  0
   -0.1115   -0.9736   -2.4911 C   0  0  0  0  0  0  0  0  0  0  0  0
   -0.1115    0.0990   -1.8234 N   0  0  0  0  0  0  0  0  0  0  0  0
    0.7667   -1.5036   -4.3608 H   0  0  0  0  0  0  0  0  0  0  0  0
   -0.9898   -1.5036   -4.3608 H   0  0  0  0  0  0  0  0  0  0  0  0
   -0.1115    0.0470   -4.3620 H   0  0  0  0  0  0  0  0  0  0  0  0
   -0.1115   -1.9633   -2.0165 H   0  0  0  0  0  0  0  0  0  0  0  0
   -0.1115   -0.1312   -0.6238 H   0  0  0  0  0  0  0  0  0  0  0  0
   -0.3981    0.8098    3.1571 C   0  0  0  0  0  0  0  0  0  0  0  0
   -0.1115    1.2574    1.4361 S   0  0  0  0  0  0  0  0  0  0  0  0
   -0.1115   -0.3779    0.6622 C   0  0  0  0  0  3  0  0  0  0  0  0
    1.0677   -1.2632    1.0328 C   0  0  0  0  0  0  0  0  0  0  0  0
    0.4392    0.2549    3.5789 H   0  0  0  0  0  0  0  0  0  0  0  0
   -1.3155    0.2287    3.2598 H   0  0  0  0  0  0  0  0  0  0  0  0
   -0.5109    1.7405    3.7114 H   0  0  0  0  0  0  0  0  0  0  0  0
   -1.0586   -0.8710    0.8930 H   0  0  0  0  0  0  0  0  0  0  0  0
    1.0176   -2.2093    0.4889 H   0  0  0  0  0  0  0  0  0  0  0  0
    1.0725   -1.4965    2.0985 H   0  0  0  0  0  0  0  0  0  0  0  0
    2.0113   -0.7741    0.7891 H   0  0  0  0  0  0  0  0  0  0  0  0
  1  2  1  0
  1  4  1  0
  1  5  1  0
  1  6  1  0
  2  3  2  3
  2  7  1  0
  3  8  1  0
  9 10  1  0
  9 13  1  0
  9 14  1  0
  9 15  1  0
 10 11  1  0
 11 12  1  0
 11 16  1  0
 12 17  1  0
 12 18  1  0
 12 19  1  0
M  RAD  1  11   2
M  END
>  <reaction>  (10) 
rmg_rxn_16523

>  <mol_properties>  (10) 
{"1": {"label": "*0", "atom_type": "Cd"}, "2": {"label": "*1", "atom_type": "N3d"}, "7": {"label": "*2", "atom_type": "H0"}, "9": {"label": "*4", "atom_type": "S2s"}, "10": {"label": "*3", "atom_type": "Cs"}}

>  <type>  (10) 
unop_6

>  <geom_source>  (10) 
Heuristics

$$$$

     RDKit          3D

 19 17  0  0  0  0  0  0  0  0999 V2000
    0.6068   -0.7246   -3.7976 C   0  0  0  0  0  0  0  0  0  0  0  0
    0.6068   -0.7246   -2.3053 C   0  0  0  0  0  0  0  0  0  0  0  0
    0.6068    0.3481   -1.6376 N   0  0  0  0  0  0  0  0  0  0  0  0
    1.4850   -1.2546   -4.1750 H   0  0  0  0  0  0  0  0  0  0  0  0
   -0.2715   -1.2546   -4.1750 H   0  0  0  0  0  0  0  0  0  0  0  0
    0.6068    0.2961   -4.1762 H   0  0  0  0  0  0  0  0  0  0  0  0
    0.6068   -1.7143   -1.8306 H   0  0  0  0  0  0  0  0  0  0  0  0
    0.6068    0.1179   -0.4380 H   0  0  0  0  0  0  0  0  0  0  0  0
   -1.0792    0.3292    3.0079 C   0  0  0  0  0  0  0  0  0  0  0  0
   -1.1451   -0.2140    1.2918 S   0  0  0  0  0  0  0  0  0  0  0  0
    0.6068   -0.1289    0.8481 C   0  0  0  0  0  3  0  0  0  0  0  0
    1.1857    1.2756    0.7869 C   0  0  0  0  0  0  0  0  0  0  0  0
   -0.7764    1.3722    3.0940 H   0  0  0  0  0  0  0  0  0  0  0  0
   -0.4043   -0.3005    3.5891 H   0  0  0  0  0  0  0  0  0  0  0  0
   -2.0858    0.2266    3.4110 H   0  0  0  0  0  0  0  0  0  0  0  0
    1.1715   -0.7549    1.5428 H   0  0  0  0  0  0  0  0  0  0  0  0
    2.2298    1.2421    0.4671 H   0  0  0  0  0  0  0  0  0  0  0  0
    1.1562    1.7626    1.7626 H   0  0  0  0  0  0  0  0  0  0  0  0
    0.6284    1.8944    0.0829 H   0  0  0  0  0  0  0  0  0  0  0  0
  1  2  1  0
  1  4  1  0
  1  5  1  0
  1  6  1  0
  2  3  2  3
  2  7  1  0
  3  8  1  0
  9 10  1  0
  9 13  1  0
  9 14  1  0
  9 15  1  0
 10 11  1  0
 11 12  1  0
 11 16  1  0
 12 17  1  0
 12 18  1  0
 12 19  1  0
M  RAD  1  11   2
M  END
>  <reaction>  (11) 
rmg_rxn_16523

>  <mol_properties>  (11) 
{"1": {"label": "*0", "atom_type": "Cd"}, "2": {"label": "*1", "atom_type": "N3d"}, "7": {"label": "*2", "atom_type": "H0"}, "9": {"label": "*4", "atom_type": "S2s"}, "10": {"label": "*3", "atom_type": "Cs"}}

>  <type>  (11) 
unop_7

>  <geom_source>  (11) 
Heuristics

$$$$

     RDKit          3D

 19 17  0  0  0  0  0  0  0  0999 V2000
    0.3800   -0.9791   -3.8520 C   0  0  0  0  0  0  0  0  0  0  0  0
    0.3800   -0.9791   -2.3597 C   0  0  0  0  0  0  0  0  0  0  0  0
    0.3800    0.0935   -1.6920 N   0  0  0  0  0  0  0  0  0  0  0  0
    1.2583   -1.5091   -4.2294 H   0  0  0  0  0  0  0  0  0  0  0  0
   -0.4982   -1.5091   -4.2294 H   0  0  0  0  0  0  0  0  0  0  0  0
    0.3800    0.0415   -4.2306 H   0  0  0  0  0  0  0  0  0  0  0  0
    0.3800   -1.9688   -1.8850 H   0  0  0  0  0  0  0  0  0  0  0  0
    0.3800   -0.1367   -0.4924 H   0  0  0  0  0  0  0  0  0  0  0  0
   -0.6632    0.7590    3.1010 C   0  0  0  0  0  0  0  0  0  0  0  0
   -1.1371    0.3916    1.4025 S   0  0  0  0  0  0  0  0  0  0  0  0
    0.3800   -0.3834    0.7937 C   0  0  0  0  0  3  0  0  0  0  0  0
    1.5726    0.5512    0.6685 C   0  0  0  0  0  0  0  0  0  0  0  0
    0.1239    1.5106    3.1511 H   0  0  0  0  0  0  0  0  0  0  0  0
   -0.3434   -0.1458    3.6194 H   0  0  0  0  0  0  0  0  0  0  0  0
   -1.5489    1.1516    3.5986 H   0  0  0  0  0  0  0  0  0  0  0  0
    0.6162   -1.2352    1.4356 H   0  0  0  0  0  0  0  0  0  0  0  0
    2.4302    0.0185    0.2512 H   0  0  0  0  0  0  0  0  0  0  0  0
    1.8727    0.9479    1.6395 H   0  0  0  0  0  0  0  0  0  0  0  0
    1.3384    1.3935    0.0167 H   0  0  0  0  0  0  0  0  0  0  0  0
  1  2  1  0
  1  4  1  0
  1  5  1  0
  1  6  1  0
  2  3  2  3
  2  7  1  0
  3  8  1  0
  9 10  1  0
  9 13  1  0
  9 14  1  0
  9 15  1  0
 10 11  1  0
 11 12  1  0
 11 16  1  0
 12 17  1  0
 12 18  1  0
 12 19  1  0
M  RAD  1  11   2
M  END
>  <reaction>  (12) 
rmg_rxn_16523

>  <mol_properties>  (12) 
{"1": {"label": "*0", "atom_type": "Cd"}, "2": {"label": "*1", "atom_type": "N3d"}, "7": {"label": "*2", "atom_type": "H0"}, "9": {"label": "*4", "atom_type": "S2s"}, "10": {"label": "*3", "atom_type": "Cs"}}

>  <type>  (12) 
unop_8

>  <geom_source>  (12) 
Heuristics

$$$$

     RDKit          3D

 19 17  0  0  0  0  0  0  0  0999 V2000
   -0.5723   -0.5274   -3.8959 C   0  0  0  0  0  0  0  0  0  0  0  0
   -0.5723   -0.5274   -2.4036 C   0  0  0  0  0  0  0  0  0  0  0  0
   -0.5723    0.5453   -1.7359 N   0  0  0  0  0  0  0  0  0  0  0  0
    0.3060   -1.0574   -4.2733 H   0  0  0  0  0  0  0  0  0  0  0  0
   -1.4505   -1.0574   -4.2733 H   0  0  0  0  0  0  0  0  0  0  0  0
   -0.5723    0.4932   -4.2745 H   0  0  0  0  0  0  0  0  0  0  0  0
   -0.5723   -1.5171   -1.9289 H   0  0  0  0  0  0  0  0  0  0  0  0
   -0.5723    0.3151   -0.5363 H   0  0  0  0  0  0  0  0  0  0  0  0
    1.2023    1.0332    2.6569 C   0  0  0  0  0  0  0  0  0  0  0  0
    1.1796   -0.0168    1.1935 S   0  0  0  0  0  0  0  0  0  0  0  0
   -0.5723    0.0683    0.7497 C   0  0  0  0  0  3  0  0  0  0  0  0
   -1.5160   -0.6123    1.7284 C   0  0  0  0  0  0  0  0  0  0  0  0
    0.6405    0.5955    3.4814 H   0  0  0  0  0  0  0  0  0  0  0  0
    0.8111    2.0256    2.4291 H   0  0  0  0  0  0  0  0  0  0  0  0
    2.2438    1.1300    2.9605 H   0  0  0  0  0  0  0  0  0  0  0  0
   -0.8440    1.1170    0.6092 H   0  0  0  0  0  0  0  0  0  0  0  0
   -2.5445   -0.5573    1.3644 H   0  0  0  0  0  0  0  0  0  0  0  0
   -1.4880   -0.1339    2.7085 H   0  0  0  0  0  0  0  0  0  0  0  0
   -1.2505   -1.6622    1.8565 H   0  0  0  0  0  0  0  0  0  0  0  0
  1  2  1  0
  1  4  1  0
  1  5  1  0
  1  6  1  0
  2  3  2  3
  2  7  1  0
  3  8  1  0
  9 10  1  0
  9 13  1  0
  9 14  1  0
  9 15  1  0
 10 11  1  0
 11 12  1  0
 11 16  1  0
 12 17  1  0
 12 18  1  0
 12 19  1  0
M  RAD  1  11   2
M  END
>  <reaction>  (13) 
rmg_rxn_16523

>  <mol_properties>  (13) 
{"1": {"label": "*0", "atom_type": "Cd"}, "2": {"label": "*1", "atom_type": "N3d"}, "7": {"label": "*2", "atom_type": "H0"}, "9": {"label": "*4", "atom_type": "S2s"}, "10": {"label": "*3", "atom_type": "Cs"}}

>  <type>  (13) 
unop_9

>  <geom_source>  (13) 
Heuristics

$$$$

     RDKit          3D

 19 17  0  0  0  0  0  0  0  0999 V2000
   -3.4856   -0.3006    0.0651 C   0  0  0  0  0  0  0  0  0  0  0  0
   -2.0351   -0.0254   -0.1813 C   0  0  0  0  0  0  0  0  0  0  0  0
   -1.4599    0.9999    0.2158 N   0  0  0  0  0  0  0  0  0  0  0  0
   -3.5903   -1.2364    0.6123 H   0  0  0  0  0  0  0  0  0  0  0  0
   -3.9334    0.5100    0.6331 H   0  0  0  0  0  0  0  0  0  0  0  0
   -3.9981   -0.4069   -0.8897 H   0  0  0  0  0  0  0  0  0  0  0  0
   -1.5201   -0.8213   -0.7473 H   0  0  0  0  0  0  0  0  0  0  0  0
   -0.2686    1.0247   -0.1031 H   0  0  0  0  0  0  0  0  0  0  0  0
    1.1764   -1.3219    1.1557 C   0  0  0  0  0  0  0  0  0  0  0  0
    1.2899   -0.8479   -0.5968 S   0  0  0  0  0  0  0  0  0  0  0  0
    0.9823    0.8953   -0.5034 C   0  0  0  0  0  3  0  0  0  0  0  0
    1.8456    1.6988    0.4331 C   0  0  0  0  0  0  0  0  0  0  0  0
    1.0677   -2.4011    1.1809 H   0  0  0  0  0  0  0  0  0  0  0  0
    0.3052   -0.8436    1.5936 H   0  0  0  0  0  0  0  0  0  0  0  0
    2.0832   -1.0310    1.6768 H   0  0  0  0  0  0  0  0  0  0  0  0
    0.9976    1.2680   -1.5249 H   0  0  0  0  0  0  0  0  0  0  0  0
    2.9018    1.6108    0.1689 H   0  0  0  0  0  0  0  0  0  0  0  0
    1.7195    1.3764    1.4644 H   0  0  0  0  0  0  0  0  0  0  0  0
    1.5621    2.7471    0.3686 H   0  0  0  0  0  0  0  0  0  0  0  0
  1  2  1  0
  1  4  1  0
  1  5  1  0
  1  6  1  0
  2  3  2  3
  2  7  1  0
  3  8  1  0
  9 10  1  0
  9 13  1  0
  9 14  1  0
  9 15  1  0
 10 11  1  0
 11 12  1  0
 11 16  1  0
 12 17  1  0
 12 18  1  0
 12 19  1  0
M  RAD  1  11   2
M  END
>  <reaction>  (14) 
rmg_rxn_16523

>  <mol_properties>  (14) 
{"1": {"label": "*0", "atom_type": "Cd"}, "2": {"label": "*1", "atom_type": "N3d"}, "7": {"label": "*2", "atom_type": "H0"}, "9": {"label": "*4", "atom_type": "S2s"}, "10": {"label": "*3", "atom_type": "Cs"}}

>  <type>  (14) 
unop_10

>  <geom_source>  (14) 
Heuristics

$$$$

     RDKit          3D

 19 17  0  0  0  0  0  0  0  0999 V2000
    0.4754   -0.0279   -3.7498 C   0  0  0  0  0  0  0  0  0  0  0  0
    0.4754   -0.0279   -2.2575 C   0  0  0  0  0  0  0  0  0  0  0  0
    0.4754    1.0448   -1.5898 N   0  0  0  0  0  0  0  0  0  0  0  0
    1.3536   -0.5579   -4.1272 H   0  0  0  0  0  0  0  0  0  0  0  0
   -0.4029   -0.5579   -4.1272 H   0  0  0  0  0  0  0  0  0  0  0  0
    0.4754    0.9928   -4.1284 H   0  0  0  0  0  0  0  0  0  0  0  0
    0.4754   -1.0176   -1.7828 H   0  0  0  0  0  0  0  0  0  0  0  0
    0.4754    0.8146   -0.3902 H   0  0  0  0  0  0  0  0  0  0  0  0
   -0.5907   -1.1031    2.8423 C   0  0  0  0  0  0  0  0  0  0  0  0
   -0.4006   -1.0073    1.0537 S   0  0  0  0  0  0  0  0  0  0  0  0
    0.4754    0.5678    0.8958 C   0  0  0  0  0  3  0  0  0  0  0  0
   -0.3416    1.7961    1.2639 C   0  0  0  0  0  0  0  0  0  0  0  0
   -1.2536   -0.3273    3.2239 H   0  0  0  0  0  0  0  0  0  0  0  0
    0.3778   -1.0389    3.3399 H   0  0  0  0  0  0  0  0  0  0  0  0
   -1.0320   -2.0743    3.0619 H   0  0  0  0  0  0  0  0  0  0  0  0
    1.3921    0.5159    1.4877 H   0  0  0  0  0  0  0  0  0  0  0  0
    0.2420    2.7043    1.0961 H   0  0  0  0  0  0  0  0  0  0  0  0
   -0.6325    1.7819    2.3153 H   0  0  0  0  0  0  0  0  0  0  0  0
   -1.2493    1.8526    0.6624 H   0  0  0  0  0  0  0  0  0  0  0  0
  1  2  1  0
  1  4  1  0
  1  5  1  0
  1  6  1  0
  2  3  2  3
  2  7  1  0
  3  8  1  0
  9 10  1  0
  9 13  1  0
  9 14  1  0
  9 15  1  0
 10 11  1  0
 11 12  1  0
 11 16  1  0
 12 17  1  0
 12 18  1  0
 12 19  1  0
M  RAD  1  11   2
M  END
>  <reaction>  (15) 
rmg_rxn_16523

>  <mol_properties>  (15) 
{"1": {"label": "*0", "atom_type": "Cd"}, "2": {"label": "*1", "atom_type": "N3d"}, "7": {"label": "*2", "atom_type": "H0"}, "9": {"label": "*4", "atom_type": "S2s"}, "10": {"label": "*3", "atom_type": "Cs"}}

>  <type>  (15) 
unop_11

>  <geom_source>  (15) 
Heuristics

$$$$

     RDKit          3D

 19 17  0  0  0  0  0  0  0  0999 V2000
   -0.5331   -0.1986   -3.8437 C   0  0  0  0  0  0  0  0  0  0  0  0
   -0.5331   -0.1986   -2.3513 C   0  0  0  0  0  0  0  0  0  0  0  0
   -0.5331    0.8740   -1.6837 N   0  0  0  0  0  0  0  0  0  0  0  0
    0.3452   -0.7286   -4.2211 H   0  0  0  0  0  0  0  0  0  0  0  0
   -1.4114   -0.7286   -4.2211 H   0  0  0  0  0  0  0  0  0  0  0  0
   -0.5331    0.8220   -4.2223 H   0  0  0  0  0  0  0  0  0  0  0  0
   -0.5331   -1.1883   -1.8767 H   0  0  0  0  0  0  0  0  0  0  0  0
   -0.5331    0.6439   -0.4841 H   0  0  0  0  0  0  0  0  0  0  0  0
    1.5568    0.1904    2.6204 C   0  0  0  0  0  0  0  0  0  0  0  0
    0.9840   -0.5483    1.0807 S   0  0  0  0  0  0  0  0  0  0  0  0
   -0.5331    0.3971    0.8020 C   0  0  0  0  0  3  0  0  0  0  0  0
   -1.6493    0.1277    1.7985 C   0  0  0  0  0  0  0  0  0  0  0  0
    0.8860   -0.0267    3.4510 H   0  0  0  0  0  0  0  0  0  0  0  0
    1.6749    1.2694    2.5133 H   0  0  0  0  0  0  0  0  0  0  0  0
    2.5302   -0.2471    2.8382 H   0  0  0  0  0  0  0  0  0  0  0  0
   -0.2800    1.4595    0.7758 H   0  0  0  0  0  0  0  0  0  0  0  0
   -2.5415    0.6992    1.5327 H   0  0  0  0  0  0  0  0  0  0  0  0
   -1.3611    0.4194    2.8095 H   0  0  0  0  0  0  0  0  0  0  0  0
   -1.9089   -0.9313    1.8129 H   0  0  0  0  0  0  0  0  0  0  0  0
  1  2  1  0
  1  4  1  0
  1  5  1  0
  1  6  1  0
  2  3  2  3
  2  7  1  0
  3  8  1  0
  9 10  1  0
  9 13  1  0
  9 14  1  0
  9 15  1  0
 10 11  1  0
 11 12  1  0
 11 16  1  0
 12 17  1  0
 12 18  1  0
 12 19  1  0
M  RAD  1  11   2
M  END
>  <reaction>  (16) 
rmg_rxn_16523

>  <mol_properties>  (16) 
{"1": {"label": "*0", "atom_type": "Cd"}, "2": {"label": "*1", "atom_type": "N3d"}, "7": {"label": "*2", "atom_type": "H0"}, "9": {"label": "*4", "atom_type": "S2s"}, "10": {"label": "*3", "atom_type": "Cs"}}

>  <type>  (16) 
unop_12

>  <geom_source>  (16) 
Heuristics

$$$$

     RDKit          3D

 19 17  0  0  0  0  0  0  0  0999 V2000
    0.0858   -1.0490   -3.9191 C   0  0  0  0  0  0  0  0  0  0  0  0
    0.0858   -1.0490   -2.4268 C   0  0  0  0  0  0  0  0  0  0  0  0
    0.0858    0.0236   -1.7591 N   0  0  0  0  0  0  0  0  0  0  0  0
    0.9640   -1.5790   -4.2965 H   0  0  0  0  0  0  0  0  0  0  0  0
   -0.7925   -1.5790   -4.2965 H   0  0  0  0  0  0  0  0  0  0  0  0
    0.0858   -0.0284   -4.2977 H   0  0  0  0  0  0  0  0  0  0  0  0
    0.0858   -2.0387   -1.9522 H   0  0  0  0  0  0  0  0  0  0  0  0
    0.0858   -0.2066   -0.5595 H   0  0  0  0  0  0  0  0  0  0  0  0
   -0.3128    0.7785    3.1843 C   0  0  0  0  0  0  0  0  0  0  0  0
   -0.7901    0.9515    1.4561 S   0  0  0  0  0  0  0  0  0  0  0  0
    0.0858   -0.4533    0.7265 C   0  0  0  0  0  3  0  0  0  0  0  0
    1.6014   -0.3328    0.7227 C   0  0  0  0  0  0  0  0  0  0  0  0
    0.7525    0.9522    3.3323 H   0  0  0  0  0  0  0  0  0  0  0  0
   -0.5826   -0.2074    3.5651 H   0  0  0  0  0  0  0  0  0  0  0  0
   -0.8672    1.5317    3.7425 H   0  0  0  0  0  0  0  0  0  0  0  0
   -0.2329   -1.3645    1.2380 H   0  0  0  0  0  0  0  0  0  0  0  0
    2.0494   -1.1955    0.2243 H   0  0  0  0  0  0  0  0  0  0  0  0
    2.0015   -0.2946    1.7369 H   0  0  0  0  0  0  0  0  0  0  0  0
    1.9171    0.5706    0.2001 H   0  0  0  0  0  0  0  0  0  0  0  0
  1  2  1  0
  1  4  1  0
  1  5  1  0
  1  6  1  0
  2  3  2  3
  2  7  1  0
  3  8  1  0
  9 10  1  0
  9 13  1  0
  9 14  1  0
  9 15  1  0
 10 11  1  0
 11 12  1  0
 11 16  1  0
 12 17  1  0
 12 18  1  0
 12 19  1  0
M  RAD  1  11   2
M  END
>  <reaction>  (17) 
rmg_rxn_16523

>  <mol_properties>  (17) 
{"1": {"label": "*0", "atom_type": "Cd"}, "2": {"label": "*1", "atom_type": "N3d"}, "7": {"label": "*2", "atom_type": "H0"}, "9": {"label": "*4", "atom_type": "S2s"}, "10": {"label": "*3", "atom_type": "Cs"}}

>  <type>  (17) 
unop_13

>  <geom_source>  (17) 
Heuristics

$$$$

     RDKit          3D

 19 17  0  0  0  0  0  0  0  0999 V2000
    0.1115    0.1495   -3.7679 C   0  0  0  0  0  0  0  0  0  0  0  0
    0.1115    0.1495   -2.2756 C   0  0  0  0  0  0  0  0  0  0  0  0
    0.1115    1.2221   -1.6079 N   0  0  0  0  0  0  0  0  0  0  0  0
    0.9898   -0.3805   -4.1454 H   0  0  0  0  0  0  0  0  0  0  0  0
   -0.7667   -0.3805   -4.1454 H   0  0  0  0  0  0  0  0  0  0  0  0
    0.1115    1.1701   -4.1465 H   0  0  0  0  0  0  0  0  0  0  0  0
    0.1115   -0.8402   -1.8010 H   0  0  0  0  0  0  0  0  0  0  0  0
    0.1115    0.9919   -0.4083 H   0  0  0  0  0  0  0  0  0  0  0  0
    0.3981   -1.2816    2.7558 C   0  0  0  0  0  0  0  0  0  0  0  0
    0.1115   -1.0604    0.9914 S   0  0  0  0  0  0  0  0  0  0  0  0
    0.1115    0.7452    0.8777 C   0  0  0  0  0  3  0  0  0  0  0  0
   -1.0677    1.4305    1.5496 C   0  0  0  0  0  0  0  0  0  0  0  0
   -0.4392   -0.9222    3.3530 H   0  0  0  0  0  0  0  0  0  0  0  0
    1.3155   -0.7797    3.0663 H   0  0  0  0  0  0  0  0  0  0  0  0
    0.5109   -2.3514    2.9263 H   0  0  0  0  0  0  0  0  0  0  0  0
    1.0586    1.1178    1.2746 H   0  0  0  0  0  0  0  0  0  0  0  0
   -1.0176    2.5107    1.3945 H   0  0  0  0  0  0  0  0  0  0  0  0
   -1.0725    1.2527    2.6260 H   0  0  0  0  0  0  0  0  0  0  0  0
   -2.0113    1.0663    1.1422 H   0  0  0  0  0  0  0  0  0  0  0  0
  1  2  1  0
  1  4  1  0
  1  5  1  0
  1  6  1  0
  2  3  2  3
  2  7  1  0
  3  8  1  0
  9 10  1  0
  9 13  1  0
  9 14  1  0
  9 15  1  0
 10 11  1  0
 11 12  1  0
 11 16  1  0
 12 17  1  0
 12 18  1  0
 12 19  1  0
M  RAD  1  11   2
M  END
>  <reaction>  (18) 
rmg_rxn_16523

>  <mol_properties>  (18) 
{"1": {"label": "*0", "atom_type": "Cd"}, "2": {"label": "*1", "atom_type": "N3d"}, "7": {"label": "*2", "atom_type": "H0"}, "9": {"label": "*4", "atom_type": "S2s"}, "10": {"label": "*3", "atom_type": "Cs"}}

>  <type>  (18) 
unop_14

>  <geom_source>  (18) 
Heuristics

$$$$

     RDKit          3D

 19 17  0  0  0  0  0  0  0  0999 V2000
   -0.2834    0.0738   -3.8005 C   0  0  0  0  0  0  0  0  0  0  0  0
   -0.2834    0.0738   -2.3082 C   0  0  0  0  0  0  0  0  0  0  0  0
   -0.2834    1.1464   -1.6405 N   0  0  0  0  0  0  0  0  0  0  0  0
    0.5948   -0.4562   -4.1779 H   0  0  0  0  0  0  0  0  0  0  0  0
   -1.1617   -0.4562   -4.1779 H   0  0  0  0  0  0  0  0  0  0  0  0
   -0.2834    1.0944   -4.1791 H   0  0  0  0  0  0  0  0  0  0  0  0
   -0.2834   -0.9159   -1.8335 H   0  0  0  0  0  0  0  0  0  0  0  0
   -0.2834    0.9163   -0.4409 H   0  0  0  0  0  0  0  0  0  0  0  0
    1.2759   -0.7402    2.6613 C   0  0  0  0  0  0  0  0  0  0  0  0
    0.5925   -0.9056    1.0030 S   0  0  0  0  0  0  0  0  0  0  0  0
   -0.2834    0.6695    0.8451 C   0  0  0  0  0  3  0  0  0  0  0  0
   -1.4961    0.8228    1.7493 C   0  0  0  0  0  0  0  0  0  0  0  0
    0.4976   -0.7277    3.4236 H   0  0  0  0  0  0  0  0  0  0  0  0
    1.8863    0.1602    2.7419 H   0  0  0  0  0  0  0  0  0  0  0  0
    1.9114   -1.6086    2.8296 H   0  0  0  0  0  0  0  0  0  0  0  0
    0.4300    1.4809    1.0065 H   0  0  0  0  0  0  0  0  0  0  0  0
   -1.9934    1.7767    1.5587 H   0  0  0  0  0  0  0  0  0  0  0  0
   -1.2136    0.8041    2.8029 H   0  0  0  0  0  0  0  0  0  0  0  0
   -2.2125    0.0191    1.5767 H   0  0  0  0  0  0  0  0  0  0  0  0
  1  2  1  0
  1  4  1  0
  1  5  1  0
  1  6  1  0
  2  3  2  3
  2  7  1  0
  3  8  1  0
  9 10  1  0
  9 13  1  0
  9 14  1  0
  9 15  1  0
 10 11  1  0
 11 12  1  0
 11 16  1  0
 12 17  1  0
 12 18  1  0
 12 19  1  0
M  RAD  1  11   2
M  END
>  <reaction>  (19) 
rmg_rxn_16523

>  <mol_properties>  (19) 
{"1": {"label": "*0", "atom_type": "Cd"}, "2": {"label": "*1", "atom_type": "N3d"}, "7": {"label": "*2", "atom_type": "H0"}, "9": {"label": "*4", "atom_type": "S2s"}, "10": {"label": "*3", "atom_type": "Cs"}}

>  <type>  (19) 
unop_15

>  <geom_source>  (19) 
gaussian_log

$$$$
