
     RDKit          3D

 15 14  0  0  0  0  0  0  0  0999 V2000
   -2.0554    0.0723   -0.4910 C   0  0  0  0  0  0  0  0  0  0  0  0
   -0.7461   -0.6266   -0.8178 C   0  0  0  0  0  0  0  0  0  0  0  0
    0.3249    0.2591   -1.9782 S   0  0  0  0  0  0  0  0  0  0  0  0
   -0.7172    0.3642   -3.4551 C   0  0  0  0  0  0  0  0  0  0  0  0
   -1.1375   -0.9737   -4.0409 C   0  0  0  0  0  0  0  0  0  0  0  0
   -2.7005    0.1427   -1.3684 H   0  0  0  0  0  0  0  0  0  0  0  0
   -2.6016   -0.4848    0.2733 H   0  0  0  0  0  0  0  0  0  0  0  0
   -1.8758    1.0825   -0.1213 H   0  0  0  0  0  0  0  0  0  0  0  0
   -0.1320   -0.7246    0.0789 H   0  0  0  0  0  0  0  0  0  0  0  0
   -0.9254   -1.6374   -1.1879 H   0  0  0  0  0  0  0  0  0  0  0  0
   -1.5873    0.9874   -3.2422 H   0  0  0  0  0  0  0  0  0  0  0  0
   -0.1021    0.9161   -4.1678 H   0  0  0  0  0  0  0  0  0  0  0  0
   -1.7876   -1.5224   -3.3574 H   0  0  0  0  0  0  0  0  0  0  0  0
   -0.2676   -1.5962   -4.2534 H   0  0  0  0  0  0  0  0  0  0  0  0
   -1.6916   -0.8229   -4.9700 H   0  0  0  0  0  0  0  0  0  0  0  0
  1  2  1  0
  1  6  1  0
  1  7  1  0
  1  8  1  0
  2  3  1  0
  2  9  1  0
  2 10  1  0
  3  4  1  0
  4  5  1  0
  4 11  1  0
  4 12  1  0
  5 13  1  0
  5 14  1  0
  5 15  1  0
M  END
>  <reaction>  (1) 
rmg_rxn_381

>  <mol_properties>  (1) 
{"1": {"label": "donator", "atom_type": "Cs"}, "8": {"label": "d_hydrogen", "atom_type": "H0"}}

>  <type>  (1) 
r1h

$$$$

     RDKit          3D

  8  7  0  0  0  0  0  0  0  0999 V2000
   -0.7791    0.1334   -0.0748 C   0  0  0  0  0  0  0  0  0  0  0  0
    0.7127   -0.1366   -0.1734 C   0  0  0  0  0  0  0  0  0  0  0  0
    1.3635    0.5025   -1.1789 O   0  0  0  0  0  1  0  0  0  0  0  0
   -1.2169   -0.4199    0.7585 H   0  0  0  0  0  0  0  0  0  0  0  0
   -0.9633    1.1968    0.0816 H   0  0  0  0  0  0  0  0  0  0  0  0
   -1.2818   -0.1704   -0.9936 H   0  0  0  0  0  0  0  0  0  0  0  0
    1.2358    0.1203    0.7666 H   0  0  0  0  0  0  0  0  0  0  0  0
    0.9244   -1.2165   -0.2847 H   0  0  0  0  0  0  0  0  0  0  0  0
  1  2  1  0
  1  4  1  0
  1  5  1  0
  1  6  1  0
  2  3  1  0
  2  7  1  0
  2  8  1  0
M  RAD  1   3   2
M  END
>  <reaction>  (2) 
rmg_rxn_381

>  <mol_properties>  (2) 
{"2": {"label": "acceptor", "atom_type": "O2s"}}

>  <type>  (2) 
r2

$$$$

     RDKit          3D

  9  8  0  0  0  0  0  0  0  0999 V2000
   -0.9895    0.3048    0.1041 C   0  0  0  0  0  0  0  0  0  0  0  0
    0.3761   -0.3562    0.0721 C   0  0  0  0  0  0  0  0  0  0  0  0
    0.3441   -1.6564   -0.4834 O   0  0  0  0  0  0  0  0  0  0  0  0
   -1.6997   -0.3114    0.6572 H   0  0  0  0  0  0  0  0  0  0  0  0
   -0.9320    1.2848    0.5822 H   0  0  0  0  0  0  0  0  0  0  0  0
   -1.3774    0.4507   -0.9077 H   0  0  0  0  0  0  0  0  0  0  0  0
    0.7581   -0.4813    1.0862 H   0  0  0  0  0  0  0  0  0  0  0  0
    1.0900    0.2787   -0.4681 H   0  0  0  0  0  0  0  0  0  0  0  0
    0.0089   -1.5959   -1.3792 H   0  0  0  0  0  0  0  0  0  0  0  0
  1  2  1  0
  1  4  1  0
  1  5  1  0
  1  6  1  0
  2  3  1  0
  2  7  1  0
  2  8  1  0
  3  9  1  0
M  END
>  <reaction>  (3) 
rmg_rxn_381

>  <mol_properties>  (3) 
{"2": {"label": "acceptor", "atom_type": "O2s"}, "8": {"label": "a_hydrogen", "atom_type": "H0"}}

>  <type>  (3) 
r2h

$$$$

     RDKit          3D

 23 21  0  0  0  0  0  0  0  0999 V2000
   -2.7416    0.9141    0.4517 C   0  0  0  0  0  0  0  0  0  0  0  0
   -2.1500   -0.4618    0.7272 C   0  0  0  0  0  0  0  0  0  0  0  0
   -1.7289   -1.0814   -0.4360 O   0  0  0  0  0  1  0  0  0  0  0  0
   -3.0799    1.3762    1.3818 H   0  0  0  0  0  0  0  0  0  0  0  0
   -2.0004    1.5673   -0.0117 H   0  0  0  0  0  0  0  0  0  0  0  0
   -3.5946    0.8344   -0.2233 H   0  0  0  0  0  0  0  0  0  0  0  0
   -1.2857   -0.3447    1.4084 H   0  0  0  0  0  0  0  0  0  0  0  0
   -2.8748   -1.0938    1.2607 H   0  0  0  0  0  0  0  0  0  0  0  0
    1.2898   -1.6875   -1.5178 C   0  0  0  0  0  0  0  0  0  0  0  0
    0.7316   -1.6725   -0.1111 C   0  0  0  0  0  0  0  0  0  0  0  0
    1.3333   -0.4844    1.0474 S   0  0  0  0  0  0  0  0  0  0  0  0
    1.1363    1.0760    0.1423 C   0  0  0  0  0  0  0  0  0  0  0  0
    2.3867    1.5439   -0.5859 C   0  0  0  0  0  0  0  0  0  0  0  0
    2.3678   -1.8632   -1.5166 H   0  0  0  0  0  0  0  0  0  0  0  0
    0.8086   -2.4821   -2.0896 H   0  0  0  0  0  0  0  0  0  0  0  0
    1.0912   -0.7485   -2.0348 H   0  0  0  0  0  0  0  0  0  0  0  0
   -0.4593   -1.4595   -0.2452 H   0  0  0  0  0  0  0  0  0  0  0  0
    0.8002   -2.6431    0.3813 H   0  0  0  0  0  0  0  0  0  0  0  0
    0.2924    0.9465   -0.5375 H   0  0  0  0  0  0  0  0  0  0  0  0
    0.8348    1.8085    0.8919 H   0  0  0  0  0  0  0  0  0  0  0  0
    2.7020    0.8244   -1.3409 H   0  0  0  0  0  0  0  0  0  0  0  0
    3.2140    1.6828    0.1108 H   0  0  0  0  0  0  0  0  0  0  0  0
    2.1956    2.4982   -1.0820 H   0  0  0  0  0  0  0  0  0  0  0  0
  1  2  1  0
  1  4  1  0
  1  5  1  0
  1  6  1  0
  2  3  1  0
  2  7  1  0
  2  8  1  0
  9 10  1  0
  9 14  1  0
  9 15  1  0
  9 16  1  0
 10 11  1  0
 10 17  1  0
 10 18  1  0
 11 12  1  0
 12 13  1  0
 12 19  1  0
 12 20  1  0
 13 21  1  0
 13 22  1  0
 13 23  1  0
M  RAD  1   3   2
M  END
>  <reaction>  (4) 
rmg_rxn_381

>  <mol_properties>  (4) 
{"1": {"label": "*4", "atom_type": "Cs"}, "2": {"label": "*3", "atom_type": "O2s"}, "9": {"label": "*1", "atom_type": "Cs"}, "10": {"label": "*0", "atom_type": "S2s"}, "16": {"label": "*2", "atom_type": "H0"}}

>  <type>  (4) 
ts

$$$$

     RDKit          3D

 23 21  0  0  0  0  0  0  0  0999 V2000
   -0.2634   -2.3656    1.4643 C   0  0  0  0  0  0  0  0  0  0  0  0
   -1.7263   -2.3761    1.0610 C   0  0  0  0  0  0  0  0  0  0  0  0
   -2.0877   -1.2566    0.2760 O   0  0  0  0  0  0  0  0  0  0  0  0
   -0.0349   -3.2180    2.1074 H   0  0  0  0  0  0  0  0  0  0  0  0
    0.3850   -2.4283    0.5862 H   0  0  0  0  0  0  0  0  0  0  0  0
   -0.0219   -1.4483    2.0031 H   0  0  0  0  0  0  0  0  0  0  0  0
   -1.9666   -3.3104    0.5377 H   0  0  0  0  0  0  0  0  0  0  0  0
   -2.3616   -2.3291    1.9465 H   0  0  0  0  0  0  0  0  0  0  0  0
   -0.0339   -0.2111   -2.1031 C   0  0  0  0  0  0  0  0  0  0  0  0
   -0.0339   -0.2111   -0.5834 C   0  0  0  0  0  3  0  0  0  0  0  0
   -0.0339    1.4299    0.1815 S   0  0  0  0  0  0  0  0  0  0  0  0
    1.5067    2.1439   -0.4471 C   0  0  0  0  0  0  0  0  0  0  0  0
    2.7676    1.3850   -0.0679 C   0  0  0  0  0  0  0  0  0  0  0  0
    0.8891    0.2124   -2.5026 H   0  0  0  0  0  0  0  0  0  0  0  0
   -0.1165   -1.2323   -2.4818 H   0  0  0  0  0  0  0  0  0  0  0  0
   -0.8696    0.3713   -2.4925 H   0  0  0  0  0  0  0  0  0  0  0  0
   -1.1274   -0.7678   -0.1259 H   0  0  0  0  0  0  0  0  0  0  0  0
    0.8023   -0.7938   -0.1934 H   0  0  0  0  0  0  0  0  0  0  0  0
    1.4355    2.2661   -1.5292 H   0  0  0  0  0  0  0  0  0  0  0  0
    1.5217    3.1470   -0.0178 H   0  0  0  0  0  0  0  0  0  0  0  0
    2.7888    0.3932   -0.5226 H   0  0  0  0  0  0  0  0  0  0  0  0
    2.8383    1.2630    1.0135 H   0  0  0  0  0  0  0  0  0  0  0  0
    3.6523    1.9234   -0.4148 H   0  0  0  0  0  0  0  0  0  0  0  0
  1  2  1  0
  1  4  1  0
  1  5  1  0
  1  6  1  0
  2  3  1  0
  2  7  1  0
  2  8  1  0
  3 17  1  0
  9 10  1  0
  9 14  1  0
  9 15  1  0
  9 16  1  0
 10 11  1  0
 10 18  1  0
 11 12  1  0
 12 13  1  0
 12 19  1  0
 12 20  1  0
 13 21  1  0
 13 22  1  0
 13 23  1  0
M  RAD  1  10   2
M  END
>  <reaction>  (5) 
rmg_rxn_381

>  <mol_properties>  (5) 
{"1": {"label": "*4", "atom_type": "Cs"}, "2": {"label": "*3", "atom_type": "O2s"}, "9": {"label": "*1", "atom_type": "Cs"}, "10": {"label": "*0", "atom_type": "S2s"}, "16": {"label": "*2", "atom_type": "H0"}}

>  <type>  (5) 
unop_1

>  <geom_source>  (5) 
Heuristics

$$$$

     RDKit          3D

 23 21  0  0  0  0  0  0  0  0999 V2000
   -1.1610   -2.9544   -0.7752 C   0  0  0  0  0  0  0  0  0  0  0  0
   -2.3093   -2.1732   -0.1636 C   0  0  0  0  0  0  0  0  0  0  0  0
   -1.8775   -1.2008    0.7681 O   0  0  0  0  0  0  0  0  0  0  0  0
   -1.5365   -3.7254   -1.4511 H   0  0  0  0  0  0  0  0  0  0  0  0
   -0.5044   -2.2975   -1.3521 H   0  0  0  0  0  0  0  0  0  0  0  0
   -0.5668   -3.4336    0.0040 H   0  0  0  0  0  0  0  0  0  0  0  0
   -2.9144   -1.7109   -0.9540 H   0  0  0  0  0  0  0  0  0  0  0  0
   -2.9648   -2.8424    0.3954 H   0  0  0  0  0  0  0  0  0  0  0  0
    0.1763   -0.1553   -1.6110 C   0  0  0  0  0  0  0  0  0  0  0  0
    0.1763   -0.1553   -0.0913 C   0  0  0  0  0  3  0  0  0  0  0  0
    0.1763    1.4857    0.6736 S   0  0  0  0  0  0  0  0  0  0  0  0
    1.7169    2.1997    0.0450 C   0  0  0  0  0  0  0  0  0  0  0  0
    2.9778    1.4408    0.4243 C   0  0  0  0  0  0  0  0  0  0  0  0
    1.0993    0.2682   -2.0104 H   0  0  0  0  0  0  0  0  0  0  0  0
    0.0937   -1.1765   -1.9897 H   0  0  0  0  0  0  0  0  0  0  0  0
   -0.6594    0.4271   -2.0004 H   0  0  0  0  0  0  0  0  0  0  0  0
   -0.9172   -0.7120    0.3663 H   0  0  0  0  0  0  0  0  0  0  0  0
    1.0125   -0.7380    0.2988 H   0  0  0  0  0  0  0  0  0  0  0  0
    1.6457    2.3219   -1.0370 H   0  0  0  0  0  0  0  0  0  0  0  0
    1.7319    3.2028    0.4743 H   0  0  0  0  0  0  0  0  0  0  0  0
    2.9990    0.4490   -0.0304 H   0  0  0  0  0  0  0  0  0  0  0  0
    3.0485    1.3188    1.5057 H   0  0  0  0  0  0  0  0  0  0  0  0
    3.8625    1.9792    0.0773 H   0  0  0  0  0  0  0  0  0  0  0  0
  1  2  1  0
  1  4  1  0
  1  5  1  0
  1  6  1  0
  2  3  1  0
  2  7  1  0
  2  8  1  0
  3 17  1  0
  9 10  1  0
  9 14  1  0
  9 15  1  0
  9 16  1  0
 10 11  1  0
 10 18  1  0
 11 12  1  0
 12 13  1  0
 12 19  1  0
 12 20  1  0
 13 21  1  0
 13 22  1  0
 13 23  1  0
M  RAD  1  10   2
M  END
>  <reaction>  (6) 
rmg_rxn_381

>  <mol_properties>  (6) 
{"1": {"label": "*4", "atom_type": "Cs"}, "2": {"label": "*3", "atom_type": "O2s"}, "9": {"label": "*1", "atom_type": "Cs"}, "10": {"label": "*0", "atom_type": "S2s"}, "16": {"label": "*2", "atom_type": "H0"}}

>  <type>  (6) 
unop_2

>  <geom_source>  (6) 
Heuristics

$$$$

     RDKit          3D

 23 21  0  0  0  0  0  0  0  0999 V2000
   -0.6044   -1.3674    2.1162 C   0  0  0  0  0  0  0  0  0  0  0  0
   -1.7447   -2.0492    1.3828 C   0  0  0  0  0  0  0  0  0  0  0  0
   -2.0363   -1.4451    0.1378 O   0  0  0  0  0  0  0  0  0  0  0  0
   -0.4415   -1.8312    3.0912 H   0  0  0  0  0  0  0  0  0  0  0  0
    0.3277   -1.4469    1.5502 H   0  0  0  0  0  0  0  0  0  0  0  0
   -0.8245   -0.3096    2.2660 H   0  0  0  0  0  0  0  0  0  0  0  0
   -1.5254   -3.1169    1.2538 H   0  0  0  0  0  0  0  0  0  0  0  0
   -2.6643   -1.9764    1.9652 H   0  0  0  0  0  0  0  0  0  0  0  0
    0.0175   -0.3996   -2.2413 C   0  0  0  0  0  0  0  0  0  0  0  0
    0.0175   -0.3996   -0.7216 C   0  0  0  0  0  3  0  0  0  0  0  0
    0.0175    1.2415    0.0433 S   0  0  0  0  0  0  0  0  0  0  0  0
    1.5581    1.9554   -0.5853 C   0  0  0  0  0  0  0  0  0  0  0  0
    2.8190    1.1966   -0.2061 C   0  0  0  0  0  0  0  0  0  0  0  0
    0.9405    0.0240   -2.6407 H   0  0  0  0  0  0  0  0  0  0  0  0
   -0.0651   -1.4208   -2.6200 H   0  0  0  0  0  0  0  0  0  0  0  0
   -0.8182    0.1829   -2.6307 H   0  0  0  0  0  0  0  0  0  0  0  0
   -1.0760   -0.9562   -0.2640 H   0  0  0  0  0  0  0  0  0  0  0  0
    0.8537   -0.9822   -0.3315 H   0  0  0  0  0  0  0  0  0  0  0  0
    1.4869    2.0776   -1.6673 H   0  0  0  0  0  0  0  0  0  0  0  0
    1.5731    2.9586   -0.1560 H   0  0  0  0  0  0  0  0  0  0  0  0
    2.8402    0.2047   -0.6608 H   0  0  0  0  0  0  0  0  0  0  0  0
    2.8897    1.0745    0.8753 H   0  0  0  0  0  0  0  0  0  0  0  0
    3.7037    1.7350   -0.5530 H   0  0  0  0  0  0  0  0  0  0  0  0
  1  2  1  0
  1  4  1  0
  1  5  1  0
  1  6  1  0
  2  3  1  0
  2  7  1  0
  2  8  1  0
  3 17  1  0
  9 10  1  0
  9 14  1  0
  9 15  1  0
  9 16  1  0
 10 11  1  0
 10 18  1  0
 11 12  1  0
 12 13  1  0
 12 19  1  0
 12 20  1  0
 13 21  1  0
 13 22  1  0
 13 23  1  0
M  RAD  1  10   2
M  END
>  <reaction>  (7) 
rmg_rxn_381

>  <mol_properties>  (7) 
{"1": {"label": "*4", "atom_type": "Cs"}, "2": {"label": "*3", "atom_type": "O2s"}, "9": {"label": "*1", "atom_type": "Cs"}, "10": {"label": "*0", "atom_type": "S2s"}, "16": {"label": "*2", "atom_type": "H0"}}

>  <type>  (7) 
unop_3

>  <geom_source>  (7) 
Heuristics

$$$$

     RDKit          3D

 23 21  0  0  0  0  0  0  0  0999 V2000
   -3.2291   -1.4316   -1.0117 C   0  0  0  0  0  0  0  0  0  0  0  0
   -2.6452   -0.8644    0.2691 C   0  0  0  0  0  0  0  0  0  0  0  0
   -1.5351   -1.6027    0.7408 O   0  0  0  0  0  0  0  0  0  0  0  0
   -4.1109   -0.8647   -1.3172 H   0  0  0  0  0  0  0  0  0  0  0  0
   -2.5031   -1.3826   -1.8278 H   0  0  0  0  0  0  0  0  0  0  0  0
   -3.5168   -2.4744   -0.8717 H   0  0  0  0  0  0  0  0  0  0  0  0
   -2.3772    0.1903    0.1268 H   0  0  0  0  0  0  0  0  0  0  0  0
   -3.3844   -0.9046    1.0704 H   0  0  0  0  0  0  0  0  0  0  0  0
    0.5187   -0.5572   -1.6383 C   0  0  0  0  0  0  0  0  0  0  0  0
    0.5187   -0.5572   -0.1186 C   0  0  0  0  0  3  0  0  0  0  0  0
    0.5187    1.0838    0.6463 S   0  0  0  0  0  0  0  0  0  0  0  0
    2.0593    1.7978    0.0177 C   0  0  0  0  0  0  0  0  0  0  0  0
    3.3202    1.0389    0.3969 C   0  0  0  0  0  0  0  0  0  0  0  0
    1.4417   -0.1337   -2.0377 H   0  0  0  0  0  0  0  0  0  0  0  0
    0.4361   -1.5784   -2.0170 H   0  0  0  0  0  0  0  0  0  0  0  0
   -0.3170    0.0252   -2.0277 H   0  0  0  0  0  0  0  0  0  0  0  0
   -0.5748   -1.1139    0.3390 H   0  0  0  0  0  0  0  0  0  0  0  0
    1.3549   -1.1399    0.2715 H   0  0  0  0  0  0  0  0  0  0  0  0
    1.9881    1.9200   -1.0643 H   0  0  0  0  0  0  0  0  0  0  0  0
    2.0744    2.8009    0.4470 H   0  0  0  0  0  0  0  0  0  0  0  0
    3.3414    0.0471   -0.0577 H   0  0  0  0  0  0  0  0  0  0  0  0
    3.3909    0.9169    1.4783 H   0  0  0  0  0  0  0  0  0  0  0  0
    4.2049    1.5773    0.0500 H   0  0  0  0  0  0  0  0  0  0  0  0
  1  2  1  0
  1  4  1  0
  1  5  1  0
  1  6  1  0
  2  3  1  0
  2  7  1  0
  2  8  1  0
  3 17  1  0
  9 10  1  0
  9 14  1  0
  9 15  1  0
  9 16  1  0
 10 11  1  0
 10 18  1  0
 11 12  1  0
 12 13  1  0
 12 19  1  0
 12 20  1  0
 13 21  1  0
 13 22  1  0
 13 23  1  0
M  RAD  1  10   2
M  END
>  <reaction>  (8) 
rmg_rxn_381

>  <mol_properties>  (8) 
{"1": {"label": "*4", "atom_type": "Cs"}, "2": {"label": "*3", "atom_type": "O2s"}, "9": {"label": "*1", "atom_type": "Cs"}, "10": {"label": "*0", "atom_type": "S2s"}, "16": {"label": "*2", "atom_type": "H0"}}

>  <type>  (8) 
unop_4

>  <geom_source>  (8) 
Heuristics

$$$$

     RDKit          3D

 23 21  0  0  0  0  0  0  0  0999 V2000
   -1.7160   -0.2370    2.0975 C   0  0  0  0  0  0  0  0  0  0  0  0
   -1.8233   -1.6415    1.5329 C   0  0  0  0  0  0  0  0  0  0  0  0
   -1.8666   -1.6635    0.1195 O   0  0  0  0  0  0  0  0  0  0  0  0
   -1.7336   -0.2582    3.1891 H   0  0  0  0  0  0  0  0  0  0  0  0
   -0.7807    0.2381    1.7892 H   0  0  0  0  0  0  0  0  0  0  0  0
   -2.5447    0.3800    1.7477 H   0  0  0  0  0  0  0  0  0  0  0  0
   -0.9980   -2.2619    1.9052 H   0  0  0  0  0  0  0  0  0  0  0  0
   -2.7526   -2.1094    1.8608 H   0  0  0  0  0  0  0  0  0  0  0  0
    0.1871   -0.6180   -2.2596 C   0  0  0  0  0  0  0  0  0  0  0  0
    0.1871   -0.6180   -0.7399 C   0  0  0  0  0  3  0  0  0  0  0  0
    0.1871    1.0231    0.0250 S   0  0  0  0  0  0  0  0  0  0  0  0
    1.7277    1.7370   -0.6036 C   0  0  0  0  0  0  0  0  0  0  0  0
    2.9887    0.9781   -0.2244 C   0  0  0  0  0  0  0  0  0  0  0  0
    1.1102   -0.1945   -2.6591 H   0  0  0  0  0  0  0  0  0  0  0  0
    0.1046   -1.6392   -2.6383 H   0  0  0  0  0  0  0  0  0  0  0  0
   -0.6486   -0.0356   -2.6491 H   0  0  0  0  0  0  0  0  0  0  0  0
   -0.9063   -1.1747   -0.2824 H   0  0  0  0  0  0  0  0  0  0  0  0
    1.0233   -1.2007   -0.3499 H   0  0  0  0  0  0  0  0  0  0  0  0
    1.6566    1.8592   -1.6857 H   0  0  0  0  0  0  0  0  0  0  0  0
    1.7428    2.7402   -0.1743 H   0  0  0  0  0  0  0  0  0  0  0  0
    3.0099   -0.0137   -0.6791 H   0  0  0  0  0  0  0  0  0  0  0  0
    3.0593    0.8561    0.8570 H   0  0  0  0  0  0  0  0  0  0  0  0
    3.8734    1.5165   -0.5713 H   0  0  0  0  0  0  0  0  0  0  0  0
  1  2  1  0
  1  4  1  0
  1  5  1  0
  1  6  1  0
  2  3  1  0
  2  7  1  0
  2  8  1  0
  3 17  1  0
  9 10  1  0
  9 14  1  0
  9 15  1  0
  9 16  1  0
 10 11  1  0
 10 18  1  0
 11 12  1  0
 12 13  1  0
 12 19  1  0
 12 20  1  0
 13 21  1  0
 13 22  1  0
 13 23  1  0
M  RAD  1  10   2
M  END
>  <reaction>  (9) 
rmg_rxn_381

>  <mol_properties>  (9) 
{"1": {"label": "*4", "atom_type": "Cs"}, "2": {"label": "*3", "atom_type": "O2s"}, "9": {"label": "*1", "atom_type": "Cs"}, "10": {"label": "*0", "atom_type": "S2s"}, "16": {"label": "*2", "atom_type": "H0"}}

>  <type>  (9) 
unop_5

>  <geom_source>  (9) 
Heuristics

$$$$

     RDKit          3D

 23 21  0  0  0  0  0  0  0  0999 V2000
   -3.5194   -0.7155   -0.3808 C   0  0  0  0  0  0  0  0  0  0  0  0
   -2.4975   -0.7204    0.7409 C   0  0  0  0  0  0  0  0  0  0  0  0
   -1.5146   -1.7251    0.5843 O   0  0  0  0  0  0  0  0  0  0  0  0
   -4.2865    0.0403   -0.1999 H   0  0  0  0  0  0  0  0  0  0  0  0
   -3.0467   -0.4866   -1.3397 H   0  0  0  0  0  0  0  0  0  0  0  0
   -4.0029   -1.6900   -0.4617 H   0  0  0  0  0  0  0  0  0  0  0  0
   -2.0300    0.2687    0.8297 H   0  0  0  0  0  0  0  0  0  0  0  0
   -2.9844   -0.9342    1.6934 H   0  0  0  0  0  0  0  0  0  0  0  0
    0.5392   -0.6796   -1.7948 C   0  0  0  0  0  0  0  0  0  0  0  0
    0.5392   -0.6796   -0.2751 C   0  0  0  0  0  3  0  0  0  0  0  0
    0.5392    0.9615    0.4898 S   0  0  0  0  0  0  0  0  0  0  0  0
    2.0798    1.6754   -0.1388 C   0  0  0  0  0  0  0  0  0  0  0  0
    3.3407    0.9165    0.2404 C   0  0  0  0  0  0  0  0  0  0  0  0
    1.4622   -0.2560   -2.1943 H   0  0  0  0  0  0  0  0  0  0  0  0
    0.4566   -1.7008   -2.1735 H   0  0  0  0  0  0  0  0  0  0  0  0
   -0.2965   -0.0971   -2.1842 H   0  0  0  0  0  0  0  0  0  0  0  0
   -0.5543   -1.2362    0.1824 H   0  0  0  0  0  0  0  0  0  0  0  0
    1.3754   -1.2623    0.1149 H   0  0  0  0  0  0  0  0  0  0  0  0
    2.0086    1.7976   -1.2209 H   0  0  0  0  0  0  0  0  0  0  0  0
    2.0948    2.6786    0.2905 H   0  0  0  0  0  0  0  0  0  0  0  0
    3.3619   -0.0753   -0.2143 H   0  0  0  0  0  0  0  0  0  0  0  0
    3.4114    0.7945    1.3218 H   0  0  0  0  0  0  0  0  0  0  0  0
    4.2254    1.4549   -0.1065 H   0  0  0  0  0  0  0  0  0  0  0  0
  1  2  1  0
  1  4  1  0
  1  5  1  0
  1  6  1  0
  2  3  1  0
  2  7  1  0
  2  8  1  0
  3 17  1  0
  9 10  1  0
  9 14  1  0
  9 15  1  0
  9 16  1  0
 10 11  1  0
 10 18  1  0
 11 12  1  0
 12 13  1  0
 12 19  1  0
 12 20  1  0
 13 21  1  0
 13 22  1  0
 13 23  1  0
M  RAD  1  10   2
M  END
>  <reaction>  (10) 
rmg_rxn_381

>  <mol_properties>  (10) 
{"1": {"label": "*4", "atom_type": "Cs"}, "2": {"label": "*3", "atom_type": "O2s"}, "9": {"label": "*1", "atom_type": "Cs"}, "10": {"label": "*0", "atom_type": "S2s"}, "16": {"label": "*2", "atom_type": "H0"}}

>  <type>  (10) 
unop_6

>  <geom_source>  (10) 
Heuristics

$$$$

     RDKit          3D

 23 21  0  0  0  0  0  0  0  0999 V2000
   -3.4333   -0.2121    0.4592 C   0  0  0  0  0  0  0  0  0  0  0  0
   -2.2538   -0.8304    1.1867 C   0  0  0  0  0  0  0  0  0  0  0  0
   -1.5613   -1.7813    0.4017 O   0  0  0  0  0  0  0  0  0  0  0  0
   -3.9695    0.4793    1.1125 H   0  0  0  0  0  0  0  0  0  0  0  0
   -3.1011    0.3495   -0.4182 H   0  0  0  0  0  0  0  0  0  0  0  0
   -4.1264   -0.9863    0.1275 H   0  0  0  0  0  0  0  0  0  0  0  0
   -1.5714   -0.0445    1.5351 H   0  0  0  0  0  0  0  0  0  0  0  0
   -2.5974   -1.3739    2.0680 H   0  0  0  0  0  0  0  0  0  0  0  0
    0.4925   -0.7358   -1.9774 C   0  0  0  0  0  0  0  0  0  0  0  0
    0.4925   -0.7358   -0.4577 C   0  0  0  0  0  3  0  0  0  0  0  0
    0.4925    0.9053    0.3072 S   0  0  0  0  0  0  0  0  0  0  0  0
    2.0331    1.6192   -0.3214 C   0  0  0  0  0  0  0  0  0  0  0  0
    3.2940    0.8604    0.0578 C   0  0  0  0  0  0  0  0  0  0  0  0
    1.4155   -0.3122   -2.3768 H   0  0  0  0  0  0  0  0  0  0  0  0
    0.4099   -1.7570   -2.3561 H   0  0  0  0  0  0  0  0  0  0  0  0
   -0.3432   -0.1533   -2.3668 H   0  0  0  0  0  0  0  0  0  0  0  0
   -0.6009   -1.2924   -0.0001 H   0  0  0  0  0  0  0  0  0  0  0  0
    1.3287   -1.3184   -0.0677 H   0  0  0  0  0  0  0  0  0  0  0  0
    1.9619    1.7414   -1.4034 H   0  0  0  0  0  0  0  0  0  0  0  0
    2.0482    2.6224    0.1079 H   0  0  0  0  0  0  0  0  0  0  0  0
    3.3152   -0.1315   -0.3969 H   0  0  0  0  0  0  0  0  0  0  0  0
    3.3647    0.7383    1.1392 H   0  0  0  0  0  0  0  0  0  0  0  0
    4.1788    1.3988   -0.2891 H   0  0  0  0  0  0  0  0  0  0  0  0
  1  2  1  0
  1  4  1  0
  1  5  1  0
  1  6  1  0
  2  3  1  0
  2  7  1  0
  2  8  1  0
  3 17  1  0
  9 10  1  0
  9 14  1  0
  9 15  1  0
  9 16  1  0
 10 11  1  0
 10 18  1  0
 11 12  1  0
 12 13  1  0
 12 19  1  0
 12 20  1  0
 13 21  1  0
 13 22  1  0
 13 23  1  0
M  RAD  1  10   2
M  END
>  <reaction>  (11) 
rmg_rxn_381

>  <mol_properties>  (11) 
{"1": {"label": "*4", "atom_type": "Cs"}, "2": {"label": "*3", "atom_type": "O2s"}, "9": {"label": "*1", "atom_type": "Cs"}, "10": {"label": "*0", "atom_type": "S2s"}, "16": {"label": "*2", "atom_type": "H0"}}

>  <type>  (11) 
unop_7

>  <geom_source>  (11) 
Heuristics

$$$$

     RDKit          3D

 23 21  0  0  0  0  0  0  0  0999 V2000
   -0.3509   -2.8952    0.6172 C   0  0  0  0  0  0  0  0  0  0  0  0
   -1.8270   -2.5433    0.6161 C   0  0  0  0  0  0  0  0  0  0  0  0
   -2.0611   -1.1574    0.4595 O   0  0  0  0  0  0  0  0  0  0  0  0
   -0.2099   -3.9645    0.7879 H   0  0  0  0  0  0  0  0  0  0  0  0
    0.1109   -2.6480   -0.3425 H   0  0  0  0  0  0  0  0  0  0  0  0
    0.1727   -2.3455    1.4005 H   0  0  0  0  0  0  0  0  0  0  0  0
   -2.3506   -3.1151   -0.1607 H   0  0  0  0  0  0  0  0  0  0  0  0
   -2.2786   -2.8094    1.5728 H   0  0  0  0  0  0  0  0  0  0  0  0
   -0.0073   -0.1119   -1.9197 C   0  0  0  0  0  0  0  0  0  0  0  0
   -0.0073   -0.1119   -0.3999 C   0  0  0  0  0  3  0  0  0  0  0  0
   -0.0073    1.5292    0.3650 S   0  0  0  0  0  0  0  0  0  0  0  0
    1.5332    2.2431   -0.2636 C   0  0  0  0  0  0  0  0  0  0  0  0
    2.7942    1.4843    0.1156 C   0  0  0  0  0  0  0  0  0  0  0  0
    0.9157    0.3117   -2.3191 H   0  0  0  0  0  0  0  0  0  0  0  0
   -0.0899   -1.1330   -2.2983 H   0  0  0  0  0  0  0  0  0  0  0  0
   -0.8431    0.4706   -2.3091 H   0  0  0  0  0  0  0  0  0  0  0  0
   -1.1008   -0.6685    0.0576 H   0  0  0  0  0  0  0  0  0  0  0  0
    0.8289   -0.6945   -0.0099 H   0  0  0  0  0  0  0  0  0  0  0  0
    1.4621    2.3654   -1.3457 H   0  0  0  0  0  0  0  0  0  0  0  0
    1.5483    3.2463    0.1656 H   0  0  0  0  0  0  0  0  0  0  0  0
    2.8154    0.4924   -0.3391 H   0  0  0  0  0  0  0  0  0  0  0  0
    2.8648    1.3623    1.1970 H   0  0  0  0  0  0  0  0  0  0  0  0
    3.6789    2.0227   -0.2313 H   0  0  0  0  0  0  0  0  0  0  0  0
  1  2  1  0
  1  4  1  0
  1  5  1  0
  1  6  1  0
  2  3  1  0
  2  7  1  0
  2  8  1  0
  3 17  1  0
  9 10  1  0
  9 14  1  0
  9 15  1  0
  9 16  1  0
 10 11  1  0
 10 18  1  0
 11 12  1  0
 12 13  1  0
 12 19  1  0
 12 20  1  0
 13 21  1  0
 13 22  1  0
 13 23  1  0
M  RAD  1  10   2
M  END
>  <reaction>  (12) 
rmg_rxn_381

>  <mol_properties>  (12) 
{"1": {"label": "*4", "atom_type": "Cs"}, "2": {"label": "*3", "atom_type": "O2s"}, "9": {"label": "*1", "atom_type": "Cs"}, "10": {"label": "*0", "atom_type": "S2s"}, "16": {"label": "*2", "atom_type": "H0"}}

>  <type>  (12) 
unop_8

>  <geom_source>  (12) 
Heuristics

$$$$

     RDKit          3D

 23 21  0  0  0  0  0  0  0  0999 V2000
   -2.6069   -2.1724   -1.2831 C   0  0  0  0  0  0  0  0  0  0  0  0
   -2.6617   -1.2235   -0.1001 C   0  0  0  0  0  0  0  0  0  0  0  0
   -1.6214   -1.4464    0.8317 O   0  0  0  0  0  0  0  0  0  0  0  0
   -3.4513   -2.0010   -1.9538 H   0  0  0  0  0  0  0  0  0  0  0  0
   -1.6894   -2.0262   -1.8595 H   0  0  0  0  0  0  0  0  0  0  0  0
   -2.6364   -3.2086   -0.9437 H   0  0  0  0  0  0  0  0  0  0  0  0
   -2.6523   -0.1833   -0.4500 H   0  0  0  0  0  0  0  0  0  0  0  0
   -3.5885   -1.3686    0.4568 H   0  0  0  0  0  0  0  0  0  0  0  0
    0.4323   -0.4009   -1.5475 C   0  0  0  0  0  0  0  0  0  0  0  0
    0.4323   -0.4009   -0.0277 C   0  0  0  0  0  3  0  0  0  0  0  0
    0.4323    1.2401    0.7372 S   0  0  0  0  0  0  0  0  0  0  0  0
    1.9729    1.9541    0.1086 C   0  0  0  0  0  0  0  0  0  0  0  0
    3.2338    1.1952    0.4878 C   0  0  0  0  0  0  0  0  0  0  0  0
    1.3554    0.0226   -1.9469 H   0  0  0  0  0  0  0  0  0  0  0  0
    0.3498   -1.4221   -1.9261 H   0  0  0  0  0  0  0  0  0  0  0  0
   -0.4034    0.1815   -1.9369 H   0  0  0  0  0  0  0  0  0  0  0  0
   -0.6611   -0.9576    0.4298 H   0  0  0  0  0  0  0  0  0  0  0  0
    1.2685   -0.9836    0.3623 H   0  0  0  0  0  0  0  0  0  0  0  0
    1.9018    2.0763   -0.9735 H   0  0  0  0  0  0  0  0  0  0  0  0
    1.9880    2.9572    0.5378 H   0  0  0  0  0  0  0  0  0  0  0  0
    3.2551    0.2034    0.0331 H   0  0  0  0  0  0  0  0  0  0  0  0
    3.3045    1.0732    1.5692 H   0  0  0  0  0  0  0  0  0  0  0  0
    4.1186    1.7336    0.1408 H   0  0  0  0  0  0  0  0  0  0  0  0
  1  2  1  0
  1  4  1  0
  1  5  1  0
  1  6  1  0
  2  3  1  0
  2  7  1  0
  2  8  1  0
  3 17  1  0
  9 10  1  0
  9 14  1  0
  9 15  1  0
  9 16  1  0
 10 11  1  0
 10 18  1  0
 11 12  1  0
 12 13  1  0
 12 19  1  0
 12 20  1  0
 13 21  1  0
 13 22  1  0
 13 23  1  0
M  RAD  1  10   2
M  END
>  <reaction>  (13) 
rmg_rxn_381

>  <mol_properties>  (13) 
{"1": {"label": "*4", "atom_type": "Cs"}, "2": {"label": "*3", "atom_type": "O2s"}, "9": {"label": "*1", "atom_type": "Cs"}, "10": {"label": "*0", "atom_type": "S2s"}, "16": {"label": "*2", "atom_type": "H0"}}

>  <type>  (13) 
unop_9

>  <geom_source>  (13) 
Heuristics

$$$$

     RDKit          3D

 23 21  0  0  0  0  0  0  0  0999 V2000
   -0.6731   -3.0427   -0.1702 C   0  0  0  0  0  0  0  0  0  0  0  0
   -2.0412   -2.4775    0.1639 C   0  0  0  0  0  0  0  0  0  0  0  0
   -1.9850   -1.1454    0.6356 O   0  0  0  0  0  0  0  0  0  0  0  0
   -0.7532   -4.0854   -0.4844 H   0  0  0  0  0  0  0  0  0  0  0  0
   -0.2079   -2.4842   -0.9871 H   0  0  0  0  0  0  0  0  0  0  0  0
   -0.0152   -2.9902    0.6983 H   0  0  0  0  0  0  0  0  0  0  0  0
   -2.7035   -2.5523   -0.7081 H   0  0  0  0  0  0  0  0  0  0  0  0
   -2.5004   -3.0531    0.9687 H   0  0  0  0  0  0  0  0  0  0  0  0
    0.0688   -0.0999   -1.7435 C   0  0  0  0  0  0  0  0  0  0  0  0
    0.0688   -0.0999   -0.2238 C   0  0  0  0  0  3  0  0  0  0  0  0
    0.0688    1.5411    0.5411 S   0  0  0  0  0  0  0  0  0  0  0  0
    1.6094    2.2551   -0.0875 C   0  0  0  0  0  0  0  0  0  0  0  0
    2.8703    1.4962    0.2917 C   0  0  0  0  0  0  0  0  0  0  0  0
    0.9918    0.3236   -2.1430 H   0  0  0  0  0  0  0  0  0  0  0  0
   -0.0138   -1.1211   -2.1222 H   0  0  0  0  0  0  0  0  0  0  0  0
   -0.7669    0.4825   -2.1329 H   0  0  0  0  0  0  0  0  0  0  0  0
   -1.0246   -0.6566    0.2337 H   0  0  0  0  0  0  0  0  0  0  0  0
    0.9050   -0.6826    0.1662 H   0  0  0  0  0  0  0  0  0  0  0  0
    1.5382    2.3773   -1.1696 H   0  0  0  0  0  0  0  0  0  0  0  0
    1.6245    3.2582    0.3418 H   0  0  0  0  0  0  0  0  0  0  0  0
    2.8915    0.5044   -0.1630 H   0  0  0  0  0  0  0  0  0  0  0  0
    2.9410    1.3742    1.3731 H   0  0  0  0  0  0  0  0  0  0  0  0
    3.7551    2.0346   -0.0552 H   0  0  0  0  0  0  0  0  0  0  0  0
  1  2  1  0
  1  4  1  0
  1  5  1  0
  1  6  1  0
  2  3  1  0
  2  7  1  0
  2  8  1  0
  3 17  1  0
  9 10  1  0
  9 14  1  0
  9 15  1  0
  9 16  1  0
 10 11  1  0
 10 18  1  0
 11 12  1  0
 12 13  1  0
 12 19  1  0
 12 20  1  0
 13 21  1  0
 13 22  1  0
 13 23  1  0
M  RAD  1  10   2
M  END
>  <reaction>  (14) 
rmg_rxn_381

>  <mol_properties>  (14) 
{"1": {"label": "*4", "atom_type": "Cs"}, "2": {"label": "*3", "atom_type": "O2s"}, "9": {"label": "*1", "atom_type": "Cs"}, "10": {"label": "*0", "atom_type": "S2s"}, "16": {"label": "*2", "atom_type": "H0"}}

>  <type>  (14) 
unop_10

>  <geom_source>  (14) 
Heuristics

$$$$

     RDKit          3D

 23 21  0  0  0  0  0  0  0  0999 V2000
   -2.9059    0.0273    1.3447 C   0  0  0  0  0  0  0  0  0  0  0  0
   -1.9904   -1.1755    1.4793 C   0  0  0  0  0  0  0  0  0  0  0  0
   -1.6735   -1.7667    0.2343 O   0  0  0  0  0  0  0  0  0  0  0  0
   -3.1656    0.4257    2.3276 H   0  0  0  0  0  0  0  0  0  0  0  0
   -2.4202    0.8272    0.7794 H   0  0  0  0  0  0  0  0  0  0  0  0
   -3.8254   -0.2483    0.8266 H   0  0  0  0  0  0  0  0  0  0  0  0
   -1.0768   -0.8956    2.0193 H   0  0  0  0  0  0  0  0  0  0  0  0
   -2.4807   -1.9593    2.0584 H   0  0  0  0  0  0  0  0  0  0  0  0
    0.3802   -0.7212   -2.1448 C   0  0  0  0  0  0  0  0  0  0  0  0
    0.3802   -0.7212   -0.6251 C   0  0  0  0  0  3  0  0  0  0  0  0
    0.3802    0.9199    0.1398 S   0  0  0  0  0  0  0  0  0  0  0  0
    1.9208    1.6338   -0.4888 C   0  0  0  0  0  0  0  0  0  0  0  0
    3.1818    0.8750   -0.1096 C   0  0  0  0  0  0  0  0  0  0  0  0
    1.3033   -0.2976   -2.5442 H   0  0  0  0  0  0  0  0  0  0  0  0
    0.2977   -1.7424   -2.5235 H   0  0  0  0  0  0  0  0  0  0  0  0
   -0.4555   -0.1387   -2.5342 H   0  0  0  0  0  0  0  0  0  0  0  0
   -0.7132   -1.2778   -0.1675 H   0  0  0  0  0  0  0  0  0  0  0  0
    1.2164   -1.3038   -0.2351 H   0  0  0  0  0  0  0  0  0  0  0  0
    1.8497    1.7560   -1.5708 H   0  0  0  0  0  0  0  0  0  0  0  0
    1.9359    2.6370   -0.0595 H   0  0  0  0  0  0  0  0  0  0  0  0
    3.2030   -0.1169   -0.5643 H   0  0  0  0  0  0  0  0  0  0  0  0
    3.2524    0.7529    0.9718 H   0  0  0  0  0  0  0  0  0  0  0  0
    4.0665    1.4134   -0.4565 H   0  0  0  0  0  0  0  0  0  0  0  0
  1  2  1  0
  1  4  1  0
  1  5  1  0
  1  6  1  0
  2  3  1  0
  2  7  1  0
  2  8  1  0
  3 17  1  0
  9 10  1  0
  9 14  1  0
  9 15  1  0
  9 16  1  0
 10 11  1  0
 10 18  1  0
 11 12  1  0
 12 13  1  0
 12 19  1  0
 12 20  1  0
 13 21  1  0
 13 22  1  0
 13 23  1  0
M  RAD  1  10   2
M  END
>  <reaction>  (15) 
rmg_rxn_381

>  <mol_properties>  (15) 
{"1": {"label": "*4", "atom_type": "Cs"}, "2": {"label": "*3", "atom_type": "O2s"}, "9": {"label": "*1", "atom_type": "Cs"}, "10": {"label": "*0", "atom_type": "S2s"}, "16": {"label": "*2", "atom_type": "H0"}}

>  <type>  (15) 
unop_11

>  <geom_source>  (15) 
Heuristics

$$$$

     RDKit          3D

 23 21  0  0  0  0  0  0  0  0999 V2000
   -1.8312   -2.6952   -1.1685 C   0  0  0  0  0  0  0  0  0  0  0  0
   -2.5411   -1.7068   -0.2619 C   0  0  0  0  0  0  0  0  0  0  0  0
   -1.7491   -1.3036    0.8382 O   0  0  0  0  0  0  0  0  0  0  0  0
   -2.4902   -3.0184   -1.9770 H   0  0  0  0  0  0  0  0  0  0  0  0
   -0.9451   -2.2432   -1.6223 H   0  0  0  0  0  0  0  0  0  0  0  0
   -1.5161   -3.5737   -0.6039 H   0  0  0  0  0  0  0  0  0  0  0  0
   -2.8732   -0.8353   -0.8406 H   0  0  0  0  0  0  0  0  0  0  0  0
   -3.4312   -2.1650    0.1715 H   0  0  0  0  0  0  0  0  0  0  0  0
    0.3047   -0.2581   -1.5410 C   0  0  0  0  0  0  0  0  0  0  0  0
    0.3047   -0.2581   -0.0212 C   0  0  0  0  0  3  0  0  0  0  0  0
    0.3047    1.3830    0.7437 S   0  0  0  0  0  0  0  0  0  0  0  0
    1.8452    2.0969    0.1151 C   0  0  0  0  0  0  0  0  0  0  0  0
    3.1062    1.3380    0.4943 C   0  0  0  0  0  0  0  0  0  0  0  0
    1.2277    0.1655   -1.9404 H   0  0  0  0  0  0  0  0  0  0  0  0
    0.2221   -1.2793   -1.9196 H   0  0  0  0  0  0  0  0  0  0  0  0
   -0.5311    0.3244   -1.9304 H   0  0  0  0  0  0  0  0  0  0  0  0
   -0.7888   -0.8147    0.4363 H   0  0  0  0  0  0  0  0  0  0  0  0
    1.1409   -0.8408    0.3688 H   0  0  0  0  0  0  0  0  0  0  0  0
    1.7741    2.2191   -0.9670 H   0  0  0  0  0  0  0  0  0  0  0  0
    1.8603    3.1001    0.5443 H   0  0  0  0  0  0  0  0  0  0  0  0
    3.1274    0.3462    0.0396 H   0  0  0  0  0  0  0  0  0  0  0  0
    3.1768    1.2160    1.5757 H   0  0  0  0  0  0  0  0  0  0  0  0
    3.9909    1.8764    0.1473 H   0  0  0  0  0  0  0  0  0  0  0  0
  1  2  1  0
  1  4  1  0
  1  5  1  0
  1  6  1  0
  2  3  1  0
  2  7  1  0
  2  8  1  0
  3 17  1  0
  9 10  1  0
  9 14  1  0
  9 15  1  0
  9 16  1  0
 10 11  1  0
 10 18  1  0
 11 12  1  0
 12 13  1  0
 12 19  1  0
 12 20  1  0
 13 21  1  0
 13 22  1  0
 13 23  1  0
M  RAD  1  10   2
M  END
>  <reaction>  (16) 
rmg_rxn_381

>  <mol_properties>  (16) 
{"1": {"label": "*4", "atom_type": "Cs"}, "2": {"label": "*3", "atom_type": "O2s"}, "9": {"label": "*1", "atom_type": "Cs"}, "10": {"label": "*0", "atom_type": "S2s"}, "16": {"label": "*2", "atom_type": "H0"}}

>  <type>  (16) 
unop_12

>  <geom_source>  (16) 
Heuristics

$$$$

     RDKit          3D

 23 21  0  0  0  0  0  0  0  0999 V2000
   -1.5860   -1.1548    0.9470 S   0  0  0  0  0  0  0  0  0  0  0  0
    1.8195   -0.4147    0.6452 O   0  0  0  0  0  0  0  0  0  0  0  0
   -3.0679   -0.0867    1.0430 C   0  0  0  0  0  0  0  0  0  0  0  0
    2.7871    0.5237    0.2739 C   0  0  0  0  0  0  0  0  0  0  0  0
    4.1673   -0.1118    0.3356 C   0  0  0  0  0  0  0  0  0  0  0  0
   -3.7533    0.0308   -0.3127 C   0  0  0  0  0  0  0  0  0  0  0  0
   -0.1383   -0.4324   -1.2894 C   0  0  0  0  0  0  0  0  0  0  0  0
   -0.4849    0.0445    0.1113 C   0  0  0  0  0  3  0  0  0  0  0  0
    2.5894    0.8749   -0.7623 H   0  0  0  0  0  0  0  0  0  0  0  0
    2.7505    1.3928    0.9662 H   0  0  0  0  0  0  0  0  0  0  0  0
   -2.8027    0.9197    1.4309 H   0  0  0  0  0  0  0  0  0  0  0  0
   -3.7772   -0.5498    1.7608 H   0  0  0  0  0  0  0  0  0  0  0  0
    4.3800   -0.4594    1.3689 H   0  0  0  0  0  0  0  0  0  0  0  0
    4.2189   -0.9771   -0.3588 H   0  0  0  0  0  0  0  0  0  0  0  0
    4.9362    0.6330    0.0408 H   0  0  0  0  0  0  0  0  0  0  0  0
   -4.7033    0.5944   -0.2002 H   0  0  0  0  0  0  0  0  0  0  0  0
   -3.1066    0.5755   -1.0307 H   0  0  0  0  0  0  0  0  0  0  0  0
   -3.9827   -0.9785   -0.7153 H   0  0  0  0  0  0  0  0  0  0  0  0
    0.3575   -1.4243   -1.2384 H   0  0  0  0  0  0  0  0  0  0  0  0
   -1.0557   -0.5108   -1.9093 H   0  0  0  0  0  0  0  0  0  0  0  0
    0.5578    0.2904   -1.7632 H   0  0  0  0  0  0  0  0  0  0  0  0
   -0.8978    1.0746    0.0839 H   0  0  0  0  0  0  0  0  0  0  0  0
    0.7921    0.1460    0.5730 H   0  0  0  0  0  0  0  0  0  0  0  0
  1  8  1  0
  1  3  1  0
  2  4  1  0
  2 23  1  0
  3  6  1  0
  3 11  1  0
  3 12  1  0
  4  5  1  0
  4  9  1  0
  4 10  1  0
  5 13  1  0
  5 14  1  0
  5 15  1  0
  6 16  1  0
  6 17  1  0
  6 18  1  0
  7  8  1  0
  7 19  1  0
  7 20  1  0
  7 21  1  0
  8 22  1  0
M  RAD  1   8   2
M  END
>  <reaction>  (17) 
rmg_rxn_381

>  <mol_properties>  (17) 
{"1": {"label": "*4", "atom_type": "Cs"}, "2": {"label": "*3", "atom_type": "O2s"}, "9": {"label": "*1", "atom_type": "Cs"}, "10": {"label": "*0", "atom_type": "S2s"}, "16": {"label": "*2", "atom_type": "H0"}}

>  <type>  (17) 
unop_13

>  <geom_source>  (17) 
AutoTST

$$$$

     RDKit          3D

 23 21  0  0  0  0  0  0  0  0999 V2000
   -1.1610   -2.9544   -0.7752 C   0  0  0  0  0  0  0  0  0  0  0  0
   -2.3093   -2.1732   -0.1636 C   0  0  0  0  0  0  0  0  0  0  0  0
   -1.8775   -1.2008    0.7681 O   0  0  0  0  0  0  0  0  0  0  0  0
   -1.5365   -3.7254   -1.4511 H   0  0  0  0  0  0  0  0  0  0  0  0
   -0.5044   -2.2974   -1.3521 H   0  0  0  0  0  0  0  0  0  0  0  0
   -0.5668   -3.4336    0.0040 H   0  0  0  0  0  0  0  0  0  0  0  0
   -2.9144   -1.7109   -0.9540 H   0  0  0  0  0  0  0  0  0  0  0  0
   -2.9648   -2.8424    0.3954 H   0  0  0  0  0  0  0  0  0  0  0  0
    0.1763   -0.1553   -1.6110 C   0  0  0  0  0  0  0  0  0  0  0  0
    0.1763   -0.1553   -0.0912 C   0  0  0  0  0  3  0  0  0  0  0  0
    0.1763    1.4857    0.6736 S   0  0  0  0  0  0  0  0  0  0  0  0
    1.7169    2.1997    0.0450 C   0  0  0  0  0  0  0  0  0  0  0  0
    2.9778    1.4408    0.4243 C   0  0  0  0  0  0  0  0  0  0  0  0
    1.0993    0.2682   -2.0104 H   0  0  0  0  0  0  0  0  0  0  0  0
    0.0937   -1.1765   -1.9896 H   0  0  0  0  0  0  0  0  0  0  0  0
   -0.6594    0.4271   -2.0004 H   0  0  0  0  0  0  0  0  0  0  0  0
   -0.9172   -0.7120    0.3663 H   0  0  0  0  0  0  0  0  0  0  0  0
    1.0125   -0.7380    0.2988 H   0  0  0  0  0  0  0  0  0  0  0  0
    1.6457    2.3219   -1.0370 H   0  0  0  0  0  0  0  0  0  0  0  0
    1.7319    3.2028    0.4743 H   0  0  0  0  0  0  0  0  0  0  0  0
    2.9990    0.4490   -0.0304 H   0  0  0  0  0  0  0  0  0  0  0  0
    3.0485    1.3188    1.5057 H   0  0  0  0  0  0  0  0  0  0  0  0
    3.8625    1.9792    0.0773 H   0  0  0  0  0  0  0  0  0  0  0  0
  1  2  1  0
  1  4  1  0
  1  5  1  0
  1  6  1  0
  2  3  1  0
  2  7  1  0
  2  8  1  0
  3 17  1  0
  9 10  1  0
  9 14  1  0
  9 15  1  0
  9 16  1  0
 10 11  1  0
 10 18  1  0
 11 12  1  0
 12 13  1  0
 12 19  1  0
 12 20  1  0
 13 21  1  0
 13 22  1  0
 13 23  1  0
M  RAD  1  10   2
M  END
>  <reaction>  (18) 
rmg_rxn_381

>  <mol_properties>  (18) 
{"1": {"label": "*4", "atom_type": "Cs"}, "2": {"label": "*3", "atom_type": "O2s"}, "9": {"label": "*1", "atom_type": "Cs"}, "10": {"label": "*0", "atom_type": "S2s"}, "16": {"label": "*2", "atom_type": "H0"}}

>  <type>  (18) 
unop_14

>  <geom_source>  (18) 
gaussian_log

$$$$
