
     RDKit          3D

 15 14  0  0  0  0  0  0  0  0999 V2000
    2.4145    0.0817    0.4065 C   0  0  0  0  0  0  0  0  0  0  0  0
    1.1257   -0.2220   -0.3219 C   0  0  0  0  0  0  0  0  0  0  0  0
    1.0983   -1.5879   -0.6512 O   0  0  0  0  0  0  0  0  0  0  0  0
   -0.0685   -1.9694   -1.3352 C   0  0  0  0  0  0  0  0  0  0  0  0
    0.0024   -3.4478   -1.6403 C   0  0  0  0  0  0  0  0  0  0  0  0
    3.2736   -0.1534   -0.2229 H   0  0  0  0  0  0  0  0  0  0  0  0
    2.4581    1.1389    0.6728 H   0  0  0  0  0  0  0  0  0  0  0  0
    2.4855   -0.5095    1.3201 H   0  0  0  0  0  0  0  0  0  0  0  0
    0.2597    0.0294    0.3083 H   0  0  0  0  0  0  0  0  0  0  0  0
    1.0482    0.3858   -1.2356 H   0  0  0  0  0  0  0  0  0  0  0  0
   -0.9535   -1.7457   -0.7211 H   0  0  0  0  0  0  0  0  0  0  0  0
   -0.1650   -1.3894   -2.2650 H   0  0  0  0  0  0  0  0  0  0  0  0
    0.0831   -4.0247   -0.7183 H   0  0  0  0  0  0  0  0  0  0  0  0
   -0.8950   -3.7674   -2.1724 H   0  0  0  0  0  0  0  0  0  0  0  0
    0.8712   -3.6686   -2.2613 H   0  0  0  0  0  0  0  0  0  0  0  0
  1  2  1  0
  1  6  1  0
  1  7  1  0
  1  8  1  0
  2  3  1  0
  2  9  1  0
  2 10  1  0
  3  4  1  0
  4  5  1  0
  4 11  1  0
  4 12  1  0
  5 13  1  0
  5 14  1  0
  5 15  1  0
M  END
>  <reaction>  (1) 
rmg_rxn_648

>  <mol_properties>  (1) 
{"0": {"label": "donator", "atom_type": "Cs"}, "5": {"label": "d_hydrogen", "atom_type": "H0"}}

>  <type>  (1) 
r1h

$$$$

     RDKit          3D

  8  7  0  0  0  0  0  0  0  0999 V2000
   -0.7835    0.1123   -0.0716 C   0  0  0  0  0  0  0  0  0  0  0  0
    0.7168   -0.1170   -0.1385 C   0  0  0  0  0  0  0  0  0  0  0  0
    1.3688    0.5271   -1.1400 O   0  0  0  0  0  1  0  0  0  0  0  0
   -1.2217   -0.4423    0.7606 H   0  0  0  0  0  0  0  0  0  0  0  0
   -1.0002    1.1721    0.0670 H   0  0  0  0  0  0  0  0  0  0  0  0
   -1.2599   -0.2172   -0.9956 H   0  0  0  0  0  0  0  0  0  0  0  0
    1.2144    0.1666    0.8077 H   0  0  0  0  0  0  0  0  0  0  0  0
    0.9605   -1.1919   -0.2314 H   0  0  0  0  0  0  0  0  0  0  0  0
  1  2  1  0
  1  4  1  0
  1  5  1  0
  1  6  1  0
  2  3  1  0
  2  7  1  0
  2  8  1  0
M  RAD  1   3   2
M  END
>  <reaction>  (2) 
rmg_rxn_648

>  <mol_properties>  (2) 
{"2": {"label": "acceptor", "atom_type": "O2s"}}

>  <type>  (2) 
r2

$$$$

     RDKit          3D

  9  8  0  0  0  0  0  0  0  0999 V2000
   -0.9895    0.3048    0.1041 C   0  0  0  0  0  0  0  0  0  0  0  0
    0.3761   -0.3562    0.0721 C   0  0  0  0  0  0  0  0  0  0  0  0
    0.3441   -1.6564   -0.4834 O   0  0  0  0  0  0  0  0  0  0  0  0
   -1.6997   -0.3114    0.6572 H   0  0  0  0  0  0  0  0  0  0  0  0
   -0.9320    1.2848    0.5822 H   0  0  0  0  0  0  0  0  0  0  0  0
   -1.3774    0.4507   -0.9077 H   0  0  0  0  0  0  0  0  0  0  0  0
    0.7581   -0.4813    1.0862 H   0  0  0  0  0  0  0  0  0  0  0  0
    1.0900    0.2787   -0.4681 H   0  0  0  0  0  0  0  0  0  0  0  0
    0.0089   -1.5959   -1.3792 H   0  0  0  0  0  0  0  0  0  0  0  0
  1  2  1  0
  1  4  1  0
  1  5  1  0
  1  6  1  0
  2  3  1  0
  2  7  1  0
  2  8  1  0
  3  9  1  0
M  END
>  <reaction>  (3) 
rmg_rxn_648

>  <mol_properties>  (3) 
{"2": {"label": "acceptor", "atom_type": "O2s"}, "8": {"label": "a_hydrogen", "atom_type": "H0"}}

>  <type>  (3) 
r2h

$$$$

     RDKit          3D

 23 21  0  0  0  0  0  0  0  0999 V2000
   -2.2783   -0.0666    0.0754 C   0  0  0  0  0  0  0  0  0  0  0  0
   -1.7192    1.3388   -0.0562 C   0  0  0  0  0  0  0  0  0  0  0  0
   -1.2334    1.8636    1.1463 O   0  0  0  0  0  0  0  0  0  0  0  0
   -3.0594   -0.0982    0.8362 H   0  0  0  0  0  0  0  0  0  0  0  0
   -2.7036   -0.4014   -0.8739 H   0  0  0  0  0  0  0  0  0  0  0  0
   -1.4892   -0.7648    0.3570 H   0  0  0  0  0  0  0  0  0  0  0  0
   -0.9464    1.3709   -0.8328 H   0  0  0  0  0  0  0  0  0  0  0  0
   -2.5086    2.0331   -0.3728 H   0  0  0  0  0  0  0  0  0  0  0  0
    1.1453    1.1366    1.4285 C   0  0  0  0  0  3  0  0  0  0  0  0
    1.2727   -0.3186    1.1085 C   0  0  0  0  0  0  0  0  0  0  0  0
    1.0288   -0.5140   -0.2593 O   0  0  0  0  0  0  0  0  0  0  0  0
    1.0362   -1.8681   -0.6418 C   0  0  0  0  0  0  0  0  0  0  0  0
    0.6853   -1.9585   -2.1080 C   0  0  0  0  0  0  0  0  0  0  0  0
   -0.0697    1.4948    1.3033 H   0  0  0  0  0  0  0  0  0  0  0  0
    1.3480    1.3740    2.4711 H   0  0  0  0  0  0  0  0  0  0  0  0
    1.6793    1.7874    0.7387 H   0  0  0  0  0  0  0  0  0  0  0  0
    2.2851   -0.6722    1.3678 H   0  0  0  0  0  0  0  0  0  0  0  0
    0.5659   -0.9066    1.7128 H   0  0  0  0  0  0  0  0  0  0  0  0
    2.0257   -2.3071   -0.4493 H   0  0  0  0  0  0  0  0  0  0  0  0
    0.3079   -2.4294   -0.0381 H   0  0  0  0  0  0  0  0  0  0  0  0
    1.4082   -1.4066   -2.7096 H   0  0  0  0  0  0  0  0  0  0  0  0
    0.6850   -2.9996   -2.4336 H   0  0  0  0  0  0  0  0  0  0  0  0
   -0.3054   -1.5385   -2.2868 H   0  0  0  0  0  0  0  0  0  0  0  0
  1  2  1  0
  1  4  1  0
  1  5  1  0
  1  6  1  0
  2  3  1  0
  2  7  1  0
  2  8  1  0
  3 14  1  0
  9 10  1  0
  9 15  1  0
  9 16  1  0
 10 11  1  0
 10 17  1  0
 10 18  1  0
 11 12  1  0
 12 13  1  0
 12 19  1  0
 12 20  1  0
 13 21  1  0
 13 22  1  0
 13 23  1  0
M  RAD  1   9   2
M  END
>  <reaction>  (4) 
rmg_rxn_648

>  <mol_properties>  (4) 
{"1": {"label": "*0", "atom_type": "Cs"}, "2": {"label": "*1", "atom_type": "O2s"}, "8": {"label": "*3", "atom_type": "Cs"}, "9": {"label": "*4", "atom_type": "Cs"}, "13": {"label": "*2", "atom_type": "H0"}}

>  <type>  (4) 
ts

$$$$

     RDKit          3D

 23 21  0  0  0  0  0  0  0  0999 V2000
   -1.0897    2.2594    2.3925 C   0  0  0  0  0  0  0  0  0  0  0  0
   -1.8956    2.1806    1.1091 C   0  0  0  0  0  0  0  0  0  0  0  0
   -1.1543    1.6530    0.0264 O   0  0  0  0  0  0  0  0  0  0  0  0
   -0.1884    2.8552    2.2420 H   0  0  0  0  0  0  0  0  0  0  0  0
   -1.6796    2.7150    3.1905 H   0  0  0  0  0  0  0  0  0  0  0  0
   -0.7899    1.2629    2.7280 H   0  0  0  0  0  0  0  0  0  0  0  0
   -2.8106    1.5971    1.2733 H   0  0  0  0  0  0  0  0  0  0  0  0
   -2.2015    3.1793    0.7943 H   0  0  0  0  0  0  0  0  0  0  0  0
    0.8396    0.5272    0.9222 C   0  0  0  0  0  3  0  0  0  0  0  0
    0.8396   -0.9344    0.5386 C   0  0  0  0  0  0  0  0  0  0  0  0
    0.8396   -1.0386   -0.8629 O   0  0  0  0  0  0  0  0  0  0  0  0
    0.8396   -2.3678   -1.3195 C   0  0  0  0  0  0  0  0  0  0  0  0
    0.8396   -2.3678   -2.8307 C   0  0  0  0  0  0  0  0  0  0  0  0
   -0.2216    1.1264    0.4454 H   0  0  0  0  0  0  0  0  0  0  0  0
    0.8396    0.6330    2.0082 H   0  0  0  0  0  0  0  0  0  0  0  0
    1.7240    1.0265    0.5249 H   0  0  0  0  0  0  0  0  0  0  0  0
    1.7245   -1.4404    0.9524 H   0  0  0  0  0  0  0  0  0  0  0  0
   -0.0453   -1.4404    0.9524 H   0  0  0  0  0  0  0  0  0  0  0  0
    1.7245   -2.8964   -0.9352 H   0  0  0  0  0  0  0  0  0  0  0  0
   -0.0453   -2.8964   -0.9352 H   0  0  0  0  0  0  0  0  0  0  0  0
    1.7240   -1.8567   -3.2127 H   0  0  0  0  0  0  0  0  0  0  0  0
    0.8396   -3.3913   -3.2087 H   0  0  0  0  0  0  0  0  0  0  0  0
   -0.0447   -1.8567   -3.2127 H   0  0  0  0  0  0  0  0  0  0  0  0
  1  2  1  0
  1  4  1  0
  1  5  1  0
  1  6  1  0
  2  3  1  0
  2  7  1  0
  2  8  1  0
  3 14  1  0
  9 10  1  0
  9 15  1  0
  9 16  1  0
 10 11  1  0
 10 17  1  0
 10 18  1  0
 11 12  1  0
 12 13  1  0
 12 19  1  0
 12 20  1  0
 13 21  1  0
 13 22  1  0
 13 23  1  0
M  RAD  1   9   2
M  END
>  <reaction>  (5) 
rmg_rxn_648

>  <mol_properties>  (5) 
{"1": {"label": "*0", "atom_type": "Cs"}, "2": {"label": "*1", "atom_type": "O2s"}, "8": {"label": "*3", "atom_type": "Cs"}, "9": {"label": "*4", "atom_type": "Cs"}, "13": {"label": "*2", "atom_type": "H0"}}

>  <type>  (5) 
unop_1

>  <geom_source>  (5) 
Heuristics

$$$$

     RDKit          3D

 23 21  0  0  0  0  0  0  0  0999 V2000
   -2.0527    0.2631    1.4408 C   0  0  0  0  0  0  0  0  0  0  0  0
   -2.0224    1.2077    0.2536 C   0  0  0  0  0  0  0  0  0  0  0  0
   -0.9709    2.1505    0.3284 O   0  0  0  0  0  0  0  0  0  0  0  0
   -2.1303    0.8236    2.3734 H   0  0  0  0  0  0  0  0  0  0  0  0
   -2.9044   -0.4166    1.3707 H   0  0  0  0  0  0  0  0  0  0  0  0
   -1.1446   -0.3446    1.4805 H   0  0  0  0  0  0  0  0  0  0  0  0
   -1.9649    0.6364   -0.6818 H   0  0  0  0  0  0  0  0  0  0  0  0
   -2.9402    1.7963    0.2167 H   0  0  0  0  0  0  0  0  0  0  0  0
    1.0230    1.0248    1.2241 C   0  0  0  0  0  3  0  0  0  0  0  0
    1.0230   -0.4368    0.8405 C   0  0  0  0  0  0  0  0  0  0  0  0
    1.0230   -0.5411   -0.5610 O   0  0  0  0  0  0  0  0  0  0  0  0
    1.0230   -1.8702   -1.0175 C   0  0  0  0  0  0  0  0  0  0  0  0
    1.0230   -1.8702   -2.5287 C   0  0  0  0  0  0  0  0  0  0  0  0
   -0.0382    1.6240    0.7474 H   0  0  0  0  0  0  0  0  0  0  0  0
    1.0230    1.1306    2.3101 H   0  0  0  0  0  0  0  0  0  0  0  0
    1.9074    1.5241    0.8268 H   0  0  0  0  0  0  0  0  0  0  0  0
    1.9079   -0.9428    1.2543 H   0  0  0  0  0  0  0  0  0  0  0  0
    0.1381   -0.9428    1.2543 H   0  0  0  0  0  0  0  0  0  0  0  0
    1.9079   -2.3989   -0.6332 H   0  0  0  0  0  0  0  0  0  0  0  0
    0.1381   -2.3989   -0.6332 H   0  0  0  0  0  0  0  0  0  0  0  0
    1.9074   -1.3592   -2.9108 H   0  0  0  0  0  0  0  0  0  0  0  0
    1.0230   -2.8938   -2.9067 H   0  0  0  0  0  0  0  0  0  0  0  0
    0.1387   -1.3592   -2.9108 H   0  0  0  0  0  0  0  0  0  0  0  0
  1  2  1  0
  1  4  1  0
  1  5  1  0
  1  6  1  0
  2  3  1  0
  2  7  1  0
  2  8  1  0
  3 14  1  0
  9 10  1  0
  9 15  1  0
  9 16  1  0
 10 11  1  0
 10 17  1  0
 10 18  1  0
 11 12  1  0
 12 13  1  0
 12 19  1  0
 12 20  1  0
 13 21  1  0
 13 22  1  0
 13 23  1  0
M  RAD  1   9   2
M  END
>  <reaction>  (6) 
rmg_rxn_648

>  <mol_properties>  (6) 
{"1": {"label": "*0", "atom_type": "Cs"}, "2": {"label": "*1", "atom_type": "O2s"}, "8": {"label": "*3", "atom_type": "Cs"}, "9": {"label": "*4", "atom_type": "Cs"}, "13": {"label": "*2", "atom_type": "H0"}}

>  <type>  (6) 
unop_2

>  <geom_source>  (6) 
Heuristics

$$$$

     RDKit          3D

 23 21  0  0  0  0  0  0  0  0999 V2000
   -0.4552    3.0774    1.7699 C   0  0  0  0  0  0  0  0  0  0  0  0
   -1.6487    2.5180    1.0179 C   0  0  0  0  0  0  0  0  0  0  0  0
   -1.3020    1.4595    0.1465 O   0  0  0  0  0  0  0  0  0  0  0  0
    0.3122    3.4152    1.0721 H   0  0  0  0  0  0  0  0  0  0  0  0
   -0.7545    3.9216    2.3944 H   0  0  0  0  0  0  0  0  0  0  0  0
   -0.0147    2.3198    2.4238 H   0  0  0  0  0  0  0  0  0  0  0  0
   -2.4248    2.1992    1.7255 H   0  0  0  0  0  0  0  0  0  0  0  0
   -2.0879    3.2878    0.3819 H   0  0  0  0  0  0  0  0  0  0  0  0
    0.6920    0.3338    1.0422 C   0  0  0  0  0  3  0  0  0  0  0  0
    0.6920   -1.1279    0.6586 C   0  0  0  0  0  0  0  0  0  0  0  0
    0.6920   -1.2321   -0.7429 O   0  0  0  0  0  0  0  0  0  0  0  0
    0.6920   -2.5612   -1.1995 C   0  0  0  0  0  0  0  0  0  0  0  0
    0.6920   -2.5612   -2.7106 C   0  0  0  0  0  0  0  0  0  0  0  0
   -0.3693    0.9329    0.5655 H   0  0  0  0  0  0  0  0  0  0  0  0
    0.6920    0.4396    2.1282 H   0  0  0  0  0  0  0  0  0  0  0  0
    1.5764    0.8331    0.6449 H   0  0  0  0  0  0  0  0  0  0  0  0
    1.5769   -1.6338    1.0724 H   0  0  0  0  0  0  0  0  0  0  0  0
   -0.1929   -1.6338    1.0724 H   0  0  0  0  0  0  0  0  0  0  0  0
    1.5769   -3.0899   -0.8151 H   0  0  0  0  0  0  0  0  0  0  0  0
   -0.1929   -3.0899   -0.8151 H   0  0  0  0  0  0  0  0  0  0  0  0
    1.5764   -2.0502   -3.0927 H   0  0  0  0  0  0  0  0  0  0  0  0
    0.6920   -3.5848   -3.0886 H   0  0  0  0  0  0  0  0  0  0  0  0
   -0.1924   -2.0502   -3.0927 H   0  0  0  0  0  0  0  0  0  0  0  0
  1  2  1  0
  1  4  1  0
  1  5  1  0
  1  6  1  0
  2  3  1  0
  2  7  1  0
  2  8  1  0
  3 14  1  0
  9 10  1  0
  9 15  1  0
  9 16  1  0
 10 11  1  0
 10 17  1  0
 10 18  1  0
 11 12  1  0
 12 13  1  0
 12 19  1  0
 12 20  1  0
 13 21  1  0
 13 22  1  0
 13 23  1  0
M  RAD  1   9   2
M  END
>  <reaction>  (7) 
rmg_rxn_648

>  <mol_properties>  (7) 
{"1": {"label": "*0", "atom_type": "Cs"}, "2": {"label": "*1", "atom_type": "O2s"}, "8": {"label": "*3", "atom_type": "Cs"}, "9": {"label": "*4", "atom_type": "Cs"}, "13": {"label": "*2", "atom_type": "H0"}}

>  <type>  (7) 
unop_3

>  <geom_source>  (7) 
Heuristics

$$$$

     RDKit          3D

 23 21  0  0  0  0  0  0  0  0999 V2000
   -1.9223    0.6656   -1.0341 C   0  0  0  0  0  0  0  0  0  0  0  0
   -1.1276    1.8576   -0.5337 C   0  0  0  0  0  0  0  0  0  0  0  0
   -1.1417    1.9747    0.8756 O   0  0  0  0  0  0  0  0  0  0  0  0
   -2.9535    0.7187   -0.6823 H   0  0  0  0  0  0  0  0  0  0  0  0
   -1.9274    0.6368   -2.1256 H   0  0  0  0  0  0  0  0  0  0  0  0
   -1.4866   -0.2721   -0.6787 H   0  0  0  0  0  0  0  0  0  0  0  0
   -0.0971    1.8080   -0.9083 H   0  0  0  0  0  0  0  0  0  0  0  0
   -1.5631    2.7850   -0.9082 H   0  0  0  0  0  0  0  0  0  0  0  0
    0.8522    0.8490    1.7714 C   0  0  0  0  0  3  0  0  0  0  0  0
    0.8522   -0.6126    1.3878 C   0  0  0  0  0  0  0  0  0  0  0  0
    0.8522   -0.7169   -0.0138 O   0  0  0  0  0  0  0  0  0  0  0  0
    0.8522   -2.0460   -0.4703 C   0  0  0  0  0  0  0  0  0  0  0  0
    0.8522   -2.0460   -1.9815 C   0  0  0  0  0  0  0  0  0  0  0  0
   -0.2090    1.4482    1.2946 H   0  0  0  0  0  0  0  0  0  0  0  0
    0.8522    0.9548    2.8573 H   0  0  0  0  0  0  0  0  0  0  0  0
    1.7366    1.3483    1.3741 H   0  0  0  0  0  0  0  0  0  0  0  0
    1.7372   -1.1186    1.8015 H   0  0  0  0  0  0  0  0  0  0  0  0
   -0.0327   -1.1186    1.8015 H   0  0  0  0  0  0  0  0  0  0  0  0
    1.7372   -2.5747   -0.0860 H   0  0  0  0  0  0  0  0  0  0  0  0
   -0.0327   -2.5747   -0.0860 H   0  0  0  0  0  0  0  0  0  0  0  0
    1.7366   -1.5350   -2.3636 H   0  0  0  0  0  0  0  0  0  0  0  0
    0.8522   -3.0695   -2.3595 H   0  0  0  0  0  0  0  0  0  0  0  0
   -0.0321   -1.5350   -2.3636 H   0  0  0  0  0  0  0  0  0  0  0  0
  1  2  1  0
  1  4  1  0
  1  5  1  0
  1  6  1  0
  2  3  1  0
  2  7  1  0
  2  8  1  0
  3 14  1  0
  9 10  1  0
  9 15  1  0
  9 16  1  0
 10 11  1  0
 10 17  1  0
 10 18  1  0
 11 12  1  0
 12 13  1  0
 12 19  1  0
 12 20  1  0
 13 21  1  0
 13 22  1  0
 13 23  1  0
M  RAD  1   9   2
M  END
>  <reaction>  (8) 
rmg_rxn_648

>  <mol_properties>  (8) 
{"1": {"label": "*0", "atom_type": "Cs"}, "2": {"label": "*1", "atom_type": "O2s"}, "8": {"label": "*3", "atom_type": "Cs"}, "9": {"label": "*4", "atom_type": "Cs"}, "13": {"label": "*2", "atom_type": "H0"}}

>  <type>  (8) 
unop_4

>  <geom_source>  (8) 
Heuristics

$$$$

     RDKit          3D

 23 21  0  0  0  0  0  0  0  0999 V2000
   -0.1247    3.4414    0.3014 C   0  0  0  0  0  0  0  0  0  0  0  0
   -1.3616    2.7248    0.8107 C   0  0  0  0  0  0  0  0  0  0  0  0
   -1.4049    1.3641    0.4278 O   0  0  0  0  0  0  0  0  0  0  0  0
   -0.0589    3.3654   -0.7848 H   0  0  0  0  0  0  0  0  0  0  0  0
   -0.1512    4.4979    0.5759 H   0  0  0  0  0  0  0  0  0  0  0  0
    0.7828    3.0088    0.7311 H   0  0  0  0  0  0  0  0  0  0  0  0
   -1.4321    2.8229    1.9016 H   0  0  0  0  0  0  0  0  0  0  0  0
   -2.2599    3.1761    0.3871 H   0  0  0  0  0  0  0  0  0  0  0  0
    0.5890    0.2384    1.3235 C   0  0  0  0  0  3  0  0  0  0  0  0
    0.5890   -1.2233    0.9399 C   0  0  0  0  0  0  0  0  0  0  0  0
    0.5890   -1.3275   -0.4616 O   0  0  0  0  0  0  0  0  0  0  0  0
    0.5890   -2.6566   -0.9182 C   0  0  0  0  0  0  0  0  0  0  0  0
    0.5890   -2.6566   -2.4293 C   0  0  0  0  0  0  0  0  0  0  0  0
   -0.4722    0.8375    0.8468 H   0  0  0  0  0  0  0  0  0  0  0  0
    0.5890    0.3442    2.4095 H   0  0  0  0  0  0  0  0  0  0  0  0
    1.4734    0.7377    0.9262 H   0  0  0  0  0  0  0  0  0  0  0  0
    1.4739   -1.7292    1.3537 H   0  0  0  0  0  0  0  0  0  0  0  0
   -0.2959   -1.7292    1.3537 H   0  0  0  0  0  0  0  0  0  0  0  0
    1.4739   -3.1853   -0.5338 H   0  0  0  0  0  0  0  0  0  0  0  0
   -0.2959   -3.1853   -0.5338 H   0  0  0  0  0  0  0  0  0  0  0  0
    1.4734   -2.1456   -2.8114 H   0  0  0  0  0  0  0  0  0  0  0  0
    0.5890   -3.6802   -2.8073 H   0  0  0  0  0  0  0  0  0  0  0  0
   -0.2954   -2.1456   -2.8114 H   0  0  0  0  0  0  0  0  0  0  0  0
  1  2  1  0
  1  4  1  0
  1  5  1  0
  1  6  1  0
  2  3  1  0
  2  7  1  0
  2  8  1  0
  3 14  1  0
  9 10  1  0
  9 15  1  0
  9 16  1  0
 10 11  1  0
 10 17  1  0
 10 18  1  0
 11 12  1  0
 12 13  1  0
 12 19  1  0
 12 20  1  0
 13 21  1  0
 13 22  1  0
 13 23  1  0
M  RAD  1   9   2
M  END
>  <reaction>  (9) 
rmg_rxn_648

>  <mol_properties>  (9) 
{"1": {"label": "*0", "atom_type": "Cs"}, "2": {"label": "*1", "atom_type": "O2s"}, "8": {"label": "*3", "atom_type": "Cs"}, "9": {"label": "*4", "atom_type": "Cs"}, "13": {"label": "*2", "atom_type": "H0"}}

>  <type>  (9) 
unop_5

>  <geom_source>  (9) 
Heuristics

$$$$

     RDKit          3D

 23 21  0  0  0  0  0  0  0  0999 V2000
   -1.4917    1.4133   -1.4809 C   0  0  0  0  0  0  0  0  0  0  0  0
   -0.9381    2.2790   -0.3642 C   0  0  0  0  0  0  0  0  0  0  0  0
   -1.2456    1.7789    0.9224 O   0  0  0  0  0  0  0  0  0  0  0  0
   -2.5723    1.3041   -1.3801 H   0  0  0  0  0  0  0  0  0  0  0  0
   -1.2754    1.8564   -2.4552 H   0  0  0  0  0  0  0  0  0  0  0  0
   -1.0430    0.4164   -1.4620 H   0  0  0  0  0  0  0  0  0  0  0  0
    0.1461    2.4012   -0.4837 H   0  0  0  0  0  0  0  0  0  0  0  0
   -1.3818    3.2748   -0.4042 H   0  0  0  0  0  0  0  0  0  0  0  0
    0.7484    0.6532    1.8182 C   0  0  0  0  0  3  0  0  0  0  0  0
    0.7484   -0.8084    1.4346 C   0  0  0  0  0  0  0  0  0  0  0  0
    0.7484   -0.9126    0.0331 O   0  0  0  0  0  0  0  0  0  0  0  0
    0.7484   -2.2418   -0.4235 C   0  0  0  0  0  0  0  0  0  0  0  0
    0.7484   -2.2418   -1.9347 C   0  0  0  0  0  0  0  0  0  0  0  0
   -0.3129    1.2524    1.3414 H   0  0  0  0  0  0  0  0  0  0  0  0
    0.7484    0.7590    2.9042 H   0  0  0  0  0  0  0  0  0  0  0  0
    1.6327    1.1525    1.4209 H   0  0  0  0  0  0  0  0  0  0  0  0
    1.6333   -1.3144    1.8484 H   0  0  0  0  0  0  0  0  0  0  0  0
   -0.1366   -1.3144    1.8484 H   0  0  0  0  0  0  0  0  0  0  0  0
    1.6333   -2.7704   -0.0392 H   0  0  0  0  0  0  0  0  0  0  0  0
   -0.1366   -2.7704   -0.0392 H   0  0  0  0  0  0  0  0  0  0  0  0
    1.6327   -1.7307   -2.3167 H   0  0  0  0  0  0  0  0  0  0  0  0
    0.7483   -3.2653   -2.3127 H   0  0  0  0  0  0  0  0  0  0  0  0
   -0.1360   -1.7307   -2.3167 H   0  0  0  0  0  0  0  0  0  0  0  0
  1  2  1  0
  1  4  1  0
  1  5  1  0
  1  6  1  0
  2  3  1  0
  2  7  1  0
  2  8  1  0
  3 14  1  0
  9 10  1  0
  9 15  1  0
  9 16  1  0
 10 11  1  0
 10 17  1  0
 10 18  1  0
 11 12  1  0
 12 13  1  0
 12 19  1  0
 12 20  1  0
 13 21  1  0
 13 22  1  0
 13 23  1  0
M  RAD  1   9   2
M  END
>  <reaction>  (10) 
rmg_rxn_648

>  <mol_properties>  (10) 
{"1": {"label": "*0", "atom_type": "Cs"}, "2": {"label": "*1", "atom_type": "O2s"}, "8": {"label": "*3", "atom_type": "Cs"}, "9": {"label": "*4", "atom_type": "Cs"}, "13": {"label": "*2", "atom_type": "H0"}}

>  <type>  (10) 
unop_6

>  <geom_source>  (10) 
Heuristics

$$$$

     RDKit          3D

 23 21  0  0  0  0  0  0  0  0999 V2000
   -1.0315    2.2532   -1.4700 C   0  0  0  0  0  0  0  0  0  0  0  0
   -0.9070    2.6195   -0.0026 C   0  0  0  0  0  0  0  0  0  0  0  0
   -1.3280    1.5812    0.8604 O   0  0  0  0  0  0  0  0  0  0  0  0
   -2.0587    1.9740   -1.7085 H   0  0  0  0  0  0  0  0  0  0  0  0
   -0.7432    3.0950   -2.1030 H   0  0  0  0  0  0  0  0  0  0  0  0
   -0.3804    1.4111   -1.7196 H   0  0  0  0  0  0  0  0  0  0  0  0
    0.1240    2.9189    0.2253 H   0  0  0  0  0  0  0  0  0  0  0  0
   -1.5492    3.4703    0.2292 H   0  0  0  0  0  0  0  0  0  0  0  0
    0.6659    0.4555    1.7561 C   0  0  0  0  0  3  0  0  0  0  0  0
    0.6659   -1.0062    1.3725 C   0  0  0  0  0  0  0  0  0  0  0  0
    0.6659   -1.1104   -0.0290 O   0  0  0  0  0  0  0  0  0  0  0  0
    0.6659   -2.4395   -0.4855 C   0  0  0  0  0  0  0  0  0  0  0  0
    0.6659   -2.4395   -1.9967 C   0  0  0  0  0  0  0  0  0  0  0  0
   -0.3954    1.0546    1.2794 H   0  0  0  0  0  0  0  0  0  0  0  0
    0.6659    0.5613    2.8421 H   0  0  0  0  0  0  0  0  0  0  0  0
    1.5503    0.9548    1.3588 H   0  0  0  0  0  0  0  0  0  0  0  0
    1.5508   -1.5121    1.7863 H   0  0  0  0  0  0  0  0  0  0  0  0
   -0.2190   -1.5121    1.7863 H   0  0  0  0  0  0  0  0  0  0  0  0
    1.5508   -2.9682   -0.1012 H   0  0  0  0  0  0  0  0  0  0  0  0
   -0.2190   -2.9682   -0.1012 H   0  0  0  0  0  0  0  0  0  0  0  0
    1.5503   -1.9285   -2.3788 H   0  0  0  0  0  0  0  0  0  0  0  0
    0.6659   -3.4631   -2.3747 H   0  0  0  0  0  0  0  0  0  0  0  0
   -0.2185   -1.9285   -2.3788 H   0  0  0  0  0  0  0  0  0  0  0  0
  1  2  1  0
  1  4  1  0
  1  5  1  0
  1  6  1  0
  2  3  1  0
  2  7  1  0
  2  8  1  0
  3 14  1  0
  9 10  1  0
  9 15  1  0
  9 16  1  0
 10 11  1  0
 10 17  1  0
 10 18  1  0
 11 12  1  0
 12 13  1  0
 12 19  1  0
 12 20  1  0
 13 21  1  0
 13 22  1  0
 13 23  1  0
M  RAD  1   9   2
M  END
>  <reaction>  (11) 
rmg_rxn_648

>  <mol_properties>  (11) 
{"1": {"label": "*0", "atom_type": "Cs"}, "2": {"label": "*1", "atom_type": "O2s"}, "8": {"label": "*3", "atom_type": "Cs"}, "9": {"label": "*4", "atom_type": "Cs"}, "13": {"label": "*2", "atom_type": "H0"}}

>  <type>  (11) 
unop_7

>  <geom_source>  (11) 
Heuristics

$$$$

     RDKit          3D

 23 21  0  0  0  0  0  0  0  0999 V2000
   -1.5692    1.4107    2.3873 C   0  0  0  0  0  0  0  0  0  0  0  0
   -2.0779    1.7737    1.0044 C   0  0  0  0  0  0  0  0  0  0  0  0
   -1.0433    1.8633    0.0445 O   0  0  0  0  0  0  0  0  0  0  0  0
   -0.8223    2.1321    2.7214 H   0  0  0  0  0  0  0  0  0  0  0  0
   -2.3890    1.3983    3.1084 H   0  0  0  0  0  0  0  0  0  0  0  0
   -1.1112    0.4179    2.3874 H   0  0  0  0  0  0  0  0  0  0  0  0
   -2.8434    1.0556    0.6835 H   0  0  0  0  0  0  0  0  0  0  0  0
   -2.5462    2.7588    1.0218 H   0  0  0  0  0  0  0  0  0  0  0  0
    0.9507    0.7376    0.9402 C   0  0  0  0  0  3  0  0  0  0  0  0
    0.9507   -0.7241    0.5566 C   0  0  0  0  0  0  0  0  0  0  0  0
    0.9507   -0.8283   -0.8449 O   0  0  0  0  0  0  0  0  0  0  0  0
    0.9507   -2.1574   -1.3015 C   0  0  0  0  0  0  0  0  0  0  0  0
    0.9507   -2.1574   -2.8126 C   0  0  0  0  0  0  0  0  0  0  0  0
   -0.1106    1.3367    0.4635 H   0  0  0  0  0  0  0  0  0  0  0  0
    0.9507    0.8434    2.0262 H   0  0  0  0  0  0  0  0  0  0  0  0
    1.8350    1.2369    0.5429 H   0  0  0  0  0  0  0  0  0  0  0  0
    1.8356   -1.2300    0.9704 H   0  0  0  0  0  0  0  0  0  0  0  0
    0.0658   -1.2300    0.9704 H   0  0  0  0  0  0  0  0  0  0  0  0
    1.8356   -2.6861   -0.9171 H   0  0  0  0  0  0  0  0  0  0  0  0
    0.0658   -2.6861   -0.9171 H   0  0  0  0  0  0  0  0  0  0  0  0
    1.8350   -1.6464   -3.1947 H   0  0  0  0  0  0  0  0  0  0  0  0
    0.9507   -3.1810   -3.1906 H   0  0  0  0  0  0  0  0  0  0  0  0
    0.0663   -1.6464   -3.1947 H   0  0  0  0  0  0  0  0  0  0  0  0
  1  2  1  0
  1  4  1  0
  1  5  1  0
  1  6  1  0
  2  3  1  0
  2  7  1  0
  2  8  1  0
  3 14  1  0
  9 10  1  0
  9 15  1  0
  9 16  1  0
 10 11  1  0
 10 17  1  0
 10 18  1  0
 11 12  1  0
 12 13  1  0
 12 19  1  0
 12 20  1  0
 13 21  1  0
 13 22  1  0
 13 23  1  0
M  RAD  1   9   2
M  END
>  <reaction>  (12) 
rmg_rxn_648

>  <mol_properties>  (12) 
{"1": {"label": "*0", "atom_type": "Cs"}, "2": {"label": "*1", "atom_type": "O2s"}, "8": {"label": "*3", "atom_type": "Cs"}, "9": {"label": "*4", "atom_type": "Cs"}, "13": {"label": "*2", "atom_type": "H0"}}

>  <type>  (12) 
unop_8

>  <geom_source>  (12) 
Heuristics

$$$$

     RDKit          3D

 23 21  0  0  0  0  0  0  0  0999 V2000
   -2.1937    0.1852   -0.2256 C   0  0  0  0  0  0  0  0  0  0  0  0
   -1.4267    1.4718   -0.4691 C   0  0  0  0  0  0  0  0  0  0  0  0
   -1.0463    2.1197    0.7290 O   0  0  0  0  0  0  0  0  0  0  0  0
   -3.0785    0.3769    0.3829 H   0  0  0  0  0  0  0  0  0  0  0  0
   -2.5105   -0.2594   -1.1713 H   0  0  0  0  0  0  0  0  0  0  0  0
   -1.5719   -0.5483    0.2949 H   0  0  0  0  0  0  0  0  0  0  0  0
   -0.5495    1.2746   -1.0986 H   0  0  0  0  0  0  0  0  0  0  0  0
   -2.0527    2.1884   -1.0026 H   0  0  0  0  0  0  0  0  0  0  0  0
    0.9477    0.9940    1.6247 C   0  0  0  0  0  3  0  0  0  0  0  0
    0.9477   -0.4676    1.2411 C   0  0  0  0  0  0  0  0  0  0  0  0
    0.9477   -0.5719   -0.1604 O   0  0  0  0  0  0  0  0  0  0  0  0
    0.9477   -1.9010   -0.6169 C   0  0  0  0  0  0  0  0  0  0  0  0
    0.9477   -1.9010   -2.1281 C   0  0  0  0  0  0  0  0  0  0  0  0
   -0.1136    1.5932    1.1480 H   0  0  0  0  0  0  0  0  0  0  0  0
    0.9477    1.0998    2.7107 H   0  0  0  0  0  0  0  0  0  0  0  0
    1.8321    1.4933    1.2274 H   0  0  0  0  0  0  0  0  0  0  0  0
    1.8326   -0.9736    1.6549 H   0  0  0  0  0  0  0  0  0  0  0  0
    0.0628   -0.9736    1.6549 H   0  0  0  0  0  0  0  0  0  0  0  0
    1.8326   -2.4297   -0.2326 H   0  0  0  0  0  0  0  0  0  0  0  0
    0.0628   -2.4297   -0.2326 H   0  0  0  0  0  0  0  0  0  0  0  0
    1.8321   -1.3900   -2.5102 H   0  0  0  0  0  0  0  0  0  0  0  0
    0.9477   -2.9246   -2.5061 H   0  0  0  0  0  0  0  0  0  0  0  0
    0.0633   -1.3900   -2.5102 H   0  0  0  0  0  0  0  0  0  0  0  0
  1  2  1  0
  1  4  1  0
  1  5  1  0
  1  6  1  0
  2  3  1  0
  2  7  1  0
  2  8  1  0
  3 14  1  0
  9 10  1  0
  9 15  1  0
  9 16  1  0
 10 11  1  0
 10 17  1  0
 10 18  1  0
 11 12  1  0
 12 13  1  0
 12 19  1  0
 12 20  1  0
 13 21  1  0
 13 22  1  0
 13 23  1  0
M  RAD  1   9   2
M  END
>  <reaction>  (13) 
rmg_rxn_648

>  <mol_properties>  (13) 
{"1": {"label": "*0", "atom_type": "Cs"}, "2": {"label": "*1", "atom_type": "O2s"}, "8": {"label": "*3", "atom_type": "Cs"}, "9": {"label": "*4", "atom_type": "Cs"}, "13": {"label": "*2", "atom_type": "H0"}}

>  <type>  (13) 
unop_9

>  <geom_source>  (13) 
Heuristics

$$$$

     RDKit          3D

 23 21  0  0  0  0  0  0  0  0999 V2000
   -1.8621    0.7186    2.0168 C   0  0  0  0  0  0  0  0  0  0  0  0
   -2.1329    1.4121    0.6945 C   0  0  0  0  0  0  0  0  0  0  0  0
   -0.9847    2.0399    0.1582 O   0  0  0  0  0  0  0  0  0  0  0  0
   -1.4590    1.4252    2.7436 H   0  0  0  0  0  0  0  0  0  0  0  0
   -2.7805    0.2882    2.4213 H   0  0  0  0  0  0  0  0  0  0  0  0
   -1.1411   -0.0938    1.8920 H   0  0  0  0  0  0  0  0  0  0  0  0
   -2.5572    0.7001   -0.0250 H   0  0  0  0  0  0  0  0  0  0  0  0
   -2.8651    2.2093    0.8301 H   0  0  0  0  0  0  0  0  0  0  0  0
    1.0092    0.9141    1.0539 C   0  0  0  0  0  3  0  0  0  0  0  0
    1.0092   -0.5475    0.6703 C   0  0  0  0  0  0  0  0  0  0  0  0
    1.0092   -0.6517   -0.7312 O   0  0  0  0  0  0  0  0  0  0  0  0
    1.0092   -1.9809   -1.1877 C   0  0  0  0  0  0  0  0  0  0  0  0
    1.0092   -1.9809   -2.6989 C   0  0  0  0  0  0  0  0  0  0  0  0
   -0.0520    1.5133    0.5772 H   0  0  0  0  0  0  0  0  0  0  0  0
    1.0092    1.0199    2.1399 H   0  0  0  0  0  0  0  0  0  0  0  0
    1.8936    1.4134    0.6566 H   0  0  0  0  0  0  0  0  0  0  0  0
    1.8941   -1.0535    1.0841 H   0  0  0  0  0  0  0  0  0  0  0  0
    0.1243   -1.0535    1.0841 H   0  0  0  0  0  0  0  0  0  0  0  0
    1.8941   -2.5095   -0.8034 H   0  0  0  0  0  0  0  0  0  0  0  0
    0.1243   -2.5095   -0.8034 H   0  0  0  0  0  0  0  0  0  0  0  0
    1.8936   -1.4698   -3.0810 H   0  0  0  0  0  0  0  0  0  0  0  0
    1.0092   -3.0044   -3.0769 H   0  0  0  0  0  0  0  0  0  0  0  0
    0.1248   -1.4698   -3.0810 H   0  0  0  0  0  0  0  0  0  0  0  0
  1  2  1  0
  1  4  1  0
  1  5  1  0
  1  6  1  0
  2  3  1  0
  2  7  1  0
  2  8  1  0
  3 14  1  0
  9 10  1  0
  9 15  1  0
  9 16  1  0
 10 11  1  0
 10 17  1  0
 10 18  1  0
 11 12  1  0
 12 13  1  0
 12 19  1  0
 12 20  1  0
 13 21  1  0
 13 22  1  0
 13 23  1  0
M  RAD  1   9   2
M  END
>  <reaction>  (14) 
rmg_rxn_648

>  <mol_properties>  (14) 
{"1": {"label": "*0", "atom_type": "Cs"}, "2": {"label": "*1", "atom_type": "O2s"}, "8": {"label": "*3", "atom_type": "Cs"}, "9": {"label": "*4", "atom_type": "Cs"}, "13": {"label": "*2", "atom_type": "H0"}}

>  <type>  (14) 
unop_10

>  <geom_source>  (14) 
Heuristics

$$$$

     RDKit          3D

 23 21  0  0  0  0  0  0  0  0999 V2000
   -0.5494    3.0117   -0.9621 C   0  0  0  0  0  0  0  0  0  0  0  0
   -1.0593    2.7804    0.4483 C   0  0  0  0  0  0  0  0  0  0  0  0
   -1.3837    1.4271    0.7001 O   0  0  0  0  0  0  0  0  0  0  0  0
   -1.2817    2.6692   -1.6945 H   0  0  0  0  0  0  0  0  0  0  0  0
   -0.3558    4.0727   -1.1327 H   0  0  0  0  0  0  0  0  0  0  0  0
    0.3856    2.4713   -1.1336 H   0  0  0  0  0  0  0  0  0  0  0  0
   -0.3266    3.1459    1.1791 H   0  0  0  0  0  0  0  0  0  0  0  0
   -1.9832    3.3372    0.6110 H   0  0  0  0  0  0  0  0  0  0  0  0
    0.6103    0.3014    1.5959 C   0  0  0  0  0  3  0  0  0  0  0  0
    0.6103   -1.1603    1.2123 C   0  0  0  0  0  0  0  0  0  0  0  0
    0.6103   -1.2645   -0.1892 O   0  0  0  0  0  0  0  0  0  0  0  0
    0.6103   -2.5936   -0.6458 C   0  0  0  0  0  0  0  0  0  0  0  0
    0.6103   -2.5936   -2.1569 C   0  0  0  0  0  0  0  0  0  0  0  0
   -0.4510    0.9005    1.1191 H   0  0  0  0  0  0  0  0  0  0  0  0
    0.6103    0.4072    2.6819 H   0  0  0  0  0  0  0  0  0  0  0  0
    1.4946    0.8007    1.1986 H   0  0  0  0  0  0  0  0  0  0  0  0
    1.4952   -1.6662    1.6261 H   0  0  0  0  0  0  0  0  0  0  0  0
   -0.2746   -1.6662    1.6261 H   0  0  0  0  0  0  0  0  0  0  0  0
    1.4952   -3.1223   -0.2614 H   0  0  0  0  0  0  0  0  0  0  0  0
   -0.2746   -3.1223   -0.2614 H   0  0  0  0  0  0  0  0  0  0  0  0
    1.4946   -2.0826   -2.5390 H   0  0  0  0  0  0  0  0  0  0  0  0
    0.6103   -3.6172   -2.5349 H   0  0  0  0  0  0  0  0  0  0  0  0
   -0.2741   -2.0826   -2.5390 H   0  0  0  0  0  0  0  0  0  0  0  0
  1  2  1  0
  1  4  1  0
  1  5  1  0
  1  6  1  0
  2  3  1  0
  2  7  1  0
  2  8  1  0
  3 14  1  0
  9 10  1  0
  9 15  1  0
  9 16  1  0
 10 11  1  0
 10 17  1  0
 10 18  1  0
 11 12  1  0
 12 13  1  0
 12 19  1  0
 12 20  1  0
 13 21  1  0
 13 22  1  0
 13 23  1  0
M  RAD  1   9   2
M  END
>  <reaction>  (15) 
rmg_rxn_648

>  <mol_properties>  (15) 
{"1": {"label": "*0", "atom_type": "Cs"}, "2": {"label": "*1", "atom_type": "O2s"}, "8": {"label": "*3", "atom_type": "Cs"}, "9": {"label": "*4", "atom_type": "Cs"}, "13": {"label": "*2", "atom_type": "H0"}}

>  <type>  (15) 
unop_11

>  <geom_source>  (15) 
Heuristics

$$$$

     RDKit          3D

 23 21  0  0  0  0  0  0  0  0999 V2000
   -2.2029    0.0652    0.6844 C   0  0  0  0  0  0  0  0  0  0  0  0
   -1.7597    1.2300   -0.1816 C   0  0  0  0  0  0  0  0  0  0  0  0
   -0.9893    2.1801    0.5281 O   0  0  0  0  0  0  0  0  0  0  0  0
   -2.7675    0.4229    1.5465 H   0  0  0  0  0  0  0  0  0  0  0  0
   -2.8335   -0.6203    0.1146 H   0  0  0  0  0  0  0  0  0  0  0  0
   -1.3415   -0.5008    1.0493 H   0  0  0  0  0  0  0  0  0  0  0  0
   -1.2102    0.8614   -1.0573 H   0  0  0  0  0  0  0  0  0  0  0  0
   -2.6284    1.7762   -0.5518 H   0  0  0  0  0  0  0  0  0  0  0  0
    1.0047    1.0544    1.4238 C   0  0  0  0  0  3  0  0  0  0  0  0
    1.0047   -0.4072    1.0402 C   0  0  0  0  0  0  0  0  0  0  0  0
    1.0047   -0.5114   -0.3613 O   0  0  0  0  0  0  0  0  0  0  0  0
    1.0047   -1.8406   -0.8178 C   0  0  0  0  0  0  0  0  0  0  0  0
    1.0047   -1.8406   -2.3290 C   0  0  0  0  0  0  0  0  0  0  0  0
   -0.0566    1.6536    0.9471 H   0  0  0  0  0  0  0  0  0  0  0  0
    1.0047    1.1602    2.5098 H   0  0  0  0  0  0  0  0  0  0  0  0
    1.8890    1.5537    1.0265 H   0  0  0  0  0  0  0  0  0  0  0  0
    1.8896   -0.9132    1.4540 H   0  0  0  0  0  0  0  0  0  0  0  0
    0.1198   -0.9132    1.4540 H   0  0  0  0  0  0  0  0  0  0  0  0
    1.8896   -2.3692   -0.4335 H   0  0  0  0  0  0  0  0  0  0  0  0
    0.1198   -2.3692   -0.4335 H   0  0  0  0  0  0  0  0  0  0  0  0
    1.8890   -1.3295   -2.7111 H   0  0  0  0  0  0  0  0  0  0  0  0
    1.0047   -2.8641   -2.7070 H   0  0  0  0  0  0  0  0  0  0  0  0
    0.1203   -1.3295   -2.7111 H   0  0  0  0  0  0  0  0  0  0  0  0
  1  2  1  0
  1  4  1  0
  1  5  1  0
  1  6  1  0
  2  3  1  0
  2  7  1  0
  2  8  1  0
  3 14  1  0
  9 10  1  0
  9 15  1  0
  9 16  1  0
 10 11  1  0
 10 17  1  0
 10 18  1  0
 11 12  1  0
 12 13  1  0
 12 19  1  0
 12 20  1  0
 13 21  1  0
 13 22  1  0
 13 23  1  0
M  RAD  1   9   2
M  END
>  <reaction>  (16) 
rmg_rxn_648

>  <mol_properties>  (16) 
{"1": {"label": "*0", "atom_type": "Cs"}, "2": {"label": "*1", "atom_type": "O2s"}, "8": {"label": "*3", "atom_type": "Cs"}, "9": {"label": "*4", "atom_type": "Cs"}, "13": {"label": "*2", "atom_type": "H0"}}

>  <type>  (16) 
unop_12

>  <geom_source>  (16) 
Heuristics

$$$$

     RDKit          3D

 23 21  0  0  0  0  0  0  0  0999 V2000
   -1.2368   -0.0533   -0.3625 O   0  0  0  0  0  0  0  0  0  0  0  0
    1.6269    0.2344    0.2742 O   0  0  0  0  0  0  0  0  0  0  0  0
   -2.5092    0.1871   -0.9339 C   0  0  0  0  0  0  0  0  0  0  0  0
    2.9164   -0.1239   -0.1284 C   0  0  0  0  0  0  0  0  0  0  0  0
   -1.2593   -1.2296    0.4177 C   0  0  0  0  0  0  0  0  0  0  0  0
    3.6938    1.1209   -0.5266 C   0  0  0  0  0  0  0  0  0  0  0  0
   -3.2903    1.1834   -0.0844 C   0  0  0  0  0  0  0  0  0  0  0  0
    0.0779   -1.3807    1.1208 C   0  0  0  0  0  3  0  0  0  0  0  0
    3.4401   -0.6342    0.7088 H   0  0  0  0  0  0  0  0  0  0  0  0
    2.8573   -0.8157   -0.9963 H   0  0  0  0  0  0  0  0  0  0  0  0
   -2.3545    0.6360   -1.9378 H   0  0  0  0  0  0  0  0  0  0  0  0
   -3.1153   -0.7370   -1.0915 H   0  0  0  0  0  0  0  0  0  0  0  0
    3.1832    1.6350   -1.3685 H   0  0  0  0  0  0  0  0  0  0  0  0
    3.7659    1.8165    0.3364 H   0  0  0  0  0  0  0  0  0  0  0  0
    4.7183    0.8364   -0.8465 H   0  0  0  0  0  0  0  0  0  0  0  0
   -3.5023    0.7546    0.9171 H   0  0  0  0  0  0  0  0  0  0  0  0
   -2.7057    2.1199    0.0367 H   0  0  0  0  0  0  0  0  0  0  0  0
   -4.2543    1.4233   -0.5807 H   0  0  0  0  0  0  0  0  0  0  0  0
   -2.0600   -1.1886    1.1907 H   0  0  0  0  0  0  0  0  0  0  0  0
   -1.4106   -2.1203   -0.2323 H   0  0  0  0  0  0  0  0  0  0  0  0
    0.0937   -2.3210    1.7115 H   0  0  0  0  0  0  0  0  0  0  0  0
    0.2545   -0.5184    1.7983 H   0  0  0  0  0  0  0  0  0  0  0  0
    1.0704   -0.8248    0.5771 H   0  0  0  0  0  0  0  0  0  0  0  0
  1  5  1  0
  1  3  1  0
  2  4  1  0
  2 23  1  0
  3  7  1  0
  3 11  1  0
  3 12  1  0
  4  6  1  0
  4  9  1  0
  4 10  1  0
  5  8  1  0
  5 19  1  0
  5 20  1  0
  6 13  1  0
  6 14  1  0
  6 15  1  0
  7 16  1  0
  7 17  1  0
  7 18  1  0
  8 21  1  0
  8 22  1  0
M  RAD  1   8   2
M  END
>  <reaction>  (17) 
rmg_rxn_648

>  <mol_properties>  (17) 
{"1": {"label": "*0", "atom_type": "Cs"}, "2": {"label": "*1", "atom_type": "O2s"}, "8": {"label": "*3", "atom_type": "Cs"}, "9": {"label": "*4", "atom_type": "Cs"}, "13": {"label": "*2", "atom_type": "H0"}}

>  <type>  (17) 
unop_13

>  <geom_source>  (17) 
AutoTST

$$$$

     RDKit          3D

 23 21  0  0  0  0  0  0  0  0999 V2000
   -2.0527    0.2631    1.4408 C   0  0  0  0  0  0  0  0  0  0  0  0
   -2.0224    1.2078    0.2536 C   0  0  0  0  0  0  0  0  0  0  0  0
   -0.9709    2.1505    0.3284 O   0  0  0  0  0  0  0  0  0  0  0  0
   -2.1303    0.8236    2.3734 H   0  0  0  0  0  0  0  0  0  0  0  0
   -2.9044   -0.4166    1.3707 H   0  0  0  0  0  0  0  0  0  0  0  0
   -1.1446   -0.3446    1.4805 H   0  0  0  0  0  0  0  0  0  0  0  0
   -1.9649    0.6364   -0.6818 H   0  0  0  0  0  0  0  0  0  0  0  0
   -2.9402    1.7963    0.2167 H   0  0  0  0  0  0  0  0  0  0  0  0
    1.0230    1.0248    1.2241 C   0  0  0  0  0  3  0  0  0  0  0  0
    1.0230   -0.4369    0.8405 C   0  0  0  0  0  0  0  0  0  0  0  0
    1.0230   -0.5411   -0.5610 O   0  0  0  0  0  0  0  0  0  0  0  0
    1.0230   -1.8702   -1.0175 C   0  0  0  0  0  0  0  0  0  0  0  0
    1.0230   -1.8702   -2.5287 C   0  0  0  0  0  0  0  0  0  0  0  0
   -0.0382    1.6240    0.7474 H   0  0  0  0  0  0  0  0  0  0  0  0
    1.0230    1.1306    2.3101 H   0  0  0  0  0  0  0  0  0  0  0  0
    1.9074    1.5241    0.8268 H   0  0  0  0  0  0  0  0  0  0  0  0
    1.9080   -0.9428    1.2543 H   0  0  0  0  0  0  0  0  0  0  0  0
    0.1381   -0.9428    1.2543 H   0  0  0  0  0  0  0  0  0  0  0  0
    1.9080   -2.3989   -0.6332 H   0  0  0  0  0  0  0  0  0  0  0  0
    0.1381   -2.3989   -0.6332 H   0  0  0  0  0  0  0  0  0  0  0  0
    1.9074   -1.3592   -2.9108 H   0  0  0  0  0  0  0  0  0  0  0  0
    1.0230   -2.8937   -2.9067 H   0  0  0  0  0  0  0  0  0  0  0  0
    0.1387   -1.3592   -2.9108 H   0  0  0  0  0  0  0  0  0  0  0  0
  1  2  1  0
  1  4  1  0
  1  5  1  0
  1  6  1  0
  2  3  1  0
  2  7  1  0
  2  8  1  0
  3 14  1  0
  9 10  1  0
  9 15  1  0
  9 16  1  0
 10 11  1  0
 10 17  1  0
 10 18  1  0
 11 12  1  0
 12 13  1  0
 12 19  1  0
 12 20  1  0
 13 21  1  0
 13 22  1  0
 13 23  1  0
M  RAD  1   9   2
M  END
>  <reaction>  (18) 
rmg_rxn_648

>  <mol_properties>  (18) 
{"1": {"label": "*0", "atom_type": "Cs"}, "2": {"label": "*1", "atom_type": "O2s"}, "8": {"label": "*3", "atom_type": "Cs"}, "9": {"label": "*4", "atom_type": "Cs"}, "13": {"label": "*2", "atom_type": "H0"}}

>  <type>  (18) 
unop_14

>  <geom_source>  (18) 
gaussian_log

$$$$
