
     RDKit          3D

  9  8  0  0  0  0  0  0  0  0999 V2000
   -0.9895    0.3048    0.1041 C   0  0  0  0  0  0  0  0  0  0  0  0
    0.3761   -0.3562    0.0721 C   0  0  0  0  0  0  0  0  0  0  0  0
    0.3441   -1.6564   -0.4834 O   0  0  0  0  0  0  0  0  0  0  0  0
   -1.6997   -0.3114    0.6572 H   0  0  0  0  0  0  0  0  0  0  0  0
   -0.9320    1.2848    0.5822 H   0  0  0  0  0  0  0  0  0  0  0  0
   -1.3774    0.4507   -0.9077 H   0  0  0  0  0  0  0  0  0  0  0  0
    0.7581   -0.4813    1.0862 H   0  0  0  0  0  0  0  0  0  0  0  0
    1.0900    0.2787   -0.4681 H   0  0  0  0  0  0  0  0  0  0  0  0
    0.0089   -1.5959   -1.3792 H   0  0  0  0  0  0  0  0  0  0  0  0
  1  2  1  0
  1  4  1  0
  1  5  1  0
  1  6  1  0
  2  3  1  0
  2  7  1  0
  2  8  1  0
  3  9  1  0
M  END
>  <reaction>  (1) 
rmg_rxn_15418

>  <mol_properties>  (1) 
{"2": {"label": "donator", "atom_type": "O2s"}, "8": {"label": "d_hydrogen", "atom_type": "H0"}}

>  <type>  (1) 
r1h

$$$$

     RDKit          3D

  5  4  0  0  0  0  0  0  0  0999 V2000
    0.8934    0.3742    0.4948 O   0  0  0  0  0  0  0  0  0  0  0  0
    0.1582   -0.1610   -0.5904 N   0  0  0  0  0  0  0  0  0  0  0  0
   -1.0297   -0.3739   -0.4689 C   0  0  0  0  0  3  0  0  0  0  0  0
    1.7805    0.4382    0.1306 H   0  0  0  0  0  0  0  0  0  0  0  0
   -1.8023   -0.2775    0.2859 H   0  0  0  0  0  0  0  0  0  0  0  0
  1  2  1  0
  1  4  1  0
  2  3  2  3
  3  5  1  0
M  RAD  1   3   2
M  END
>  <reaction>  (2) 
rmg_rxn_15418

>  <mol_properties>  (2) 
{"2": {"label": "acceptor", "atom_type": "Cd"}}

>  <type>  (2) 
r2

$$$$

     RDKit          3D

  6  5  0  0  0  0  0  0  0  0999 V2000
    1.2314    0.0428    0.5088 O   0  0  0  0  0  0  0  0  0  0  0  0
    0.2987    0.2341   -0.4915 N   0  0  0  0  0  0  0  0  0  0  0  0
   -0.8599   -0.1122   -0.1290 C   0  0  0  0  0  0  0  0  0  0  0  0
    2.0507    0.3401    0.1082 H   0  0  0  0  0  0  0  0  0  0  0  0
   -1.0700   -0.5112    0.8610 H   0  0  0  0  0  0  0  0  0  0  0  0
   -1.6509    0.0064   -0.8574 H   0  0  0  0  0  0  0  0  0  0  0  0
  1  2  1  0
  1  4  1  0
  2  3  2  3
  3  5  1  0
  3  6  1  0
M  END
>  <reaction>  (3) 
rmg_rxn_15418

>  <mol_properties>  (3) 
{"2": {"label": "acceptor", "atom_type": "Cd"}, "5": {"label": "a_hydrogen", "atom_type": "H0"}}

>  <type>  (3) 
r2h

$$$$

     RDKit          3D

 14 12  0  0  0  0  0  0  0  0999 V2000
    1.3392   -0.2276   -1.1055 O   0  0  0  0  0  0  0  0  0  0  0  0
    1.6364    0.7585   -0.2297 N   0  0  0  0  0  0  0  0  0  0  0  0
    0.9877    0.8707    0.8286 C   0  0  0  0  0  3  0  0  0  0  0  0
    0.5873   -0.7319   -0.7278 H   0  0  0  0  0  0  0  0  0  0  0  0
    1.1857    1.6559    1.5495 H   0  0  0  0  0  0  0  0  0  0  0  0
   -2.0561    0.3755   -0.8916 C   0  0  0  0  0  0  0  0  0  0  0  0
   -1.9749   -0.2968    0.4667 C   0  0  0  0  0  0  0  0  0  0  0  0
   -0.7367   -0.9032    0.7325 O   0  0  0  0  0  0  0  0  0  0  0  0
   -1.3426    1.1994   -0.9597 H   0  0  0  0  0  0  0  0  0  0  0  0
   -1.8355   -0.3355   -1.6891 H   0  0  0  0  0  0  0  0  0  0  0  0
   -3.0568    0.7788   -1.0570 H   0  0  0  0  0  0  0  0  0  0  0  0
   -2.6978   -1.1203    0.5232 H   0  0  0  0  0  0  0  0  0  0  0  0
   -2.2397    0.4059    1.2659 H   0  0  0  0  0  0  0  0  0  0  0  0
    0.0836    0.0081    1.0240 H   0  0  0  0  0  0  0  0  0  0  0  0
  1  2  1  0
  1  4  1  0
  2  3  2  3
  3  5  1  0
  6  7  1  0
  6  9  1  0
  6 10  1  0
  6 11  1  0
  7  8  1  0
  7 12  1  0
  7 13  1  0
  8 14  1  0
M  RAD  1   3   2
M  END
>  <reaction>  (4) 
rmg_rxn_15418

>  <mol_properties>  (4) 
{"1": {"label": "*4", "atom_type": "N3d"}, "2": {"label": "*3", "atom_type": "Cd"}, "6": {"label": "*0", "atom_type": "Cs"}, "7": {"label": "*1", "atom_type": "O2s"}, "13": {"label": "*2", "atom_type": "H0"}}

>  <type>  (4) 
ts

$$$$

     RDKit          3D

 14 12  0  0  0  0  0  0  0  0999 V2000
   -2.2185   -0.6985   -0.4541 O   0  0  0  0  0  0  0  0  0  0  0  0
   -2.0475    0.5393    0.0265 N   0  0  0  0  0  0  0  0  0  0  0  0
   -0.9769    0.9659    0.4728 C   0  0  0  0  0  3  0  0  0  0  0  0
   -1.3856   -1.2145   -0.4015 H   0  0  0  0  0  0  0  0  0  0  0  0
   -0.8794    1.9653    0.8498 H   0  0  0  0  0  0  0  0  0  0  0  0
    2.4392    0.6297   -0.6709 C   0  0  0  0  0  0  0  0  0  0  0  0
    2.0474   -0.4050    0.3844 C   0  0  0  0  0  0  0  0  0  0  0  0
    0.7288   -0.8046    0.3075 O   0  0  0  0  0  0  0  0  0  0  0  0
    2.2109    0.2560   -1.6664 H   0  0  0  0  0  0  0  0  0  0  0  0
    1.8867    1.5548   -0.5127 H   0  0  0  0  0  0  0  0  0  0  0  0
    3.5028    0.8415   -0.6067 H   0  0  0  0  0  0  0  0  0  0  0  0
    2.2853   -0.0204    1.3908 H   0  0  0  0  0  0  0  0  0  0  0  0
    2.6370   -1.3202    0.2323 H   0  0  0  0  0  0  0  0  0  0  0  0
    0.0179    0.1169    0.4518 H   0  0  0  0  0  0  0  0  0  0  0  0
  1  2  1  0
  1  4  1  0
  2  3  2  3
  3  5  1  0
  6  7  1  0
  6  9  1  0
  6 10  1  0
  6 11  1  0
  7  8  1  0
  7 12  1  0
  7 13  1  0
  8 14  1  0
M  RAD  1   3   2
M  END
>  <reaction>  (5) 
rmg_rxn_15418

>  <mol_properties>  (5) 
{"1": {"label": "*4", "atom_type": "N3d"}, "2": {"label": "*3", "atom_type": "Cd"}, "6": {"label": "*0", "atom_type": "Cs"}, "7": {"label": "*1", "atom_type": "O2s"}, "13": {"label": "*2", "atom_type": "H0"}}

>  <type>  (5) 
unop_1

>  <geom_source>  (5) 
crest_best.xyz

$$$$

     RDKit          3D

 14 12  0  0  0  0  0  0  0  0999 V2000
   -1.9094    2.3162    0.4039 O   0  0  0  0  0  0  0  0  0  0  0  0
   -1.4491    1.0409    0.6663 N   0  0  0  0  0  0  0  0  0  0  0  0
   -0.6435    0.6385   -0.2184 C   0  0  0  0  0  3  0  0  0  0  0  0
   -2.5001    2.4945    1.1383 H   0  0  0  0  0  0  0  0  0  0  0  0
   -0.3627    1.2461   -1.0761 H   0  0  0  0  0  0  0  0  0  0  0  0
    1.3539   -1.8397   -1.4956 C   0  0  0  0  0  0  0  0  0  0  0  0
    1.3539   -1.8397    0.0219 C   0  0  0  0  0  0  0  0  0  0  0  0
    1.3539   -0.5365    0.5712 O   0  0  0  0  0  0  0  0  0  0  0  0
    2.2100   -1.2822   -1.8780 H   0  0  0  0  0  0  0  0  0  0  0  0
    1.4024   -2.8603   -1.8809 H   0  0  0  0  0  0  0  0  0  0  0  0
    0.4425   -1.3795   -1.8868 H   0  0  0  0  0  0  0  0  0  0  0  0
    2.2604   -2.3154    0.3987 H   0  0  0  0  0  0  0  0  0  0  0  0
    0.5018   -2.4194    0.3991 H   0  0  0  0  0  0  0  0  0  0  0  0
    0.4156    0.0155    0.2003 H   0  0  0  0  0  0  0  0  0  0  0  0
  1  2  1  0
  1  4  1  0
  2  3  2  3
  3  5  1  0
  6  7  1  0
  6  9  1  0
  6 10  1  0
  6 11  1  0
  7  8  1  0
  7 12  1  0
  7 13  1  0
  8 14  1  0
M  RAD  1   3   2
M  END
>  <reaction>  (6) 
rmg_rxn_15418

>  <mol_properties>  (6) 
{"1": {"label": "*4", "atom_type": "N3d"}, "2": {"label": "*3", "atom_type": "Cd"}, "6": {"label": "*0", "atom_type": "Cs"}, "7": {"label": "*1", "atom_type": "O2s"}, "13": {"label": "*2", "atom_type": "H0"}}

>  <type>  (6) 
unop_2

>  <geom_source>  (6) 
Heuristics

$$$$

     RDKit          3D

 14 12  0  0  0  0  0  0  0  0999 V2000
   -2.2386   -0.6972    0.4384 O   0  0  0  0  0  0  0  0  0  0  0  0
   -2.0540    0.5436   -0.0294 N   0  0  0  0  0  0  0  0  0  0  0  0
   -0.9743    0.9692   -0.4543 C   0  0  0  0  0  3  0  0  0  0  0  0
   -1.4079   -1.2172    0.3954 H   0  0  0  0  0  0  0  0  0  0  0  0
   -0.8671    1.9711   -0.8221 H   0  0  0  0  0  0  0  0  0  0  0  0
    2.4653    0.6245    0.6558 C   0  0  0  0  0  0  0  0  0  0  0  0
    2.0471   -0.4089   -0.3905 C   0  0  0  0  0  0  0  0  0  0  0  0
    0.7291   -0.8039   -0.2852 O   0  0  0  0  0  0  0  0  0  0  0  0
    3.5274    0.8350    0.5664 H   0  0  0  0  0  0  0  0  0  0  0  0
    1.9104    1.5504    0.5116 H   0  0  0  0  0  0  0  0  0  0  0  0
    2.2601    0.2503    1.6561 H   0  0  0  0  0  0  0  0  0  0  0  0
    2.6366   -1.3262   -0.2511 H   0  0  0  0  0  0  0  0  0  0  0  0
    2.2648   -0.0256   -1.4021 H   0  0  0  0  0  0  0  0  0  0  0  0
    0.0183    0.1181   -0.4250 H   0  0  0  0  0  0  0  0  0  0  0  0
  1  2  1  0
  1  4  1  0
  2  3  2  3
  3  5  1  0
  6  7  1  0
  6  9  1  0
  6 10  1  0
  6 11  1  0
  7  8  1  0
  7 12  1  0
  7 13  1  0
  8 14  1  0
M  RAD  1   3   2
M  END
>  <reaction>  (7) 
rmg_rxn_15418

>  <mol_properties>  (7) 
{"1": {"label": "*4", "atom_type": "N3d"}, "2": {"label": "*3", "atom_type": "Cd"}, "6": {"label": "*0", "atom_type": "Cs"}, "7": {"label": "*1", "atom_type": "O2s"}, "13": {"label": "*2", "atom_type": "H0"}}

>  <type>  (7) 
unop_3

>  <geom_source>  (7) 
Heuristics

$$$$

     RDKit          3D

 14 12  0  0  0  0  0  0  0  0999 V2000
    2.1816   -0.7020   -0.4868 O   0  0  0  0  0  0  0  0  0  0  0  0
    2.0391    0.5288    0.0201 N   0  0  0  0  0  0  0  0  0  0  0  0
    0.9871    0.9574    0.5070 C   0  0  0  0  0  3  0  0  0  0  0  0
    1.3446   -1.2098   -0.4161 H   0  0  0  0  0  0  0  0  0  0  0  0
    0.9099    1.9506    0.9043 H   0  0  0  0  0  0  0  0  0  0  0  0
   -2.3959    0.6245   -0.7126 C   0  0  0  0  0  0  0  0  0  0  0  0
   -2.0476   -0.3831    0.3835 C   0  0  0  0  0  0  0  0  0  0  0  0
   -0.7323   -0.8003    0.3569 O   0  0  0  0  0  0  0  0  0  0  0  0
   -1.8333    1.5457   -0.5680 H   0  0  0  0  0  0  0  0  0  0  0  0
   -2.1486    0.2176   -1.6903 H   0  0  0  0  0  0  0  0  0  0  0  0
   -3.4574    0.8539   -0.6821 H   0  0  0  0  0  0  0  0  0  0  0  0
   -2.6441   -1.2954    0.2410 H   0  0  0  0  0  0  0  0  0  0  0  0
   -2.3094    0.0339    1.3708 H   0  0  0  0  0  0  0  0  0  0  0  0
   -0.0141    0.1158    0.5022 H   0  0  0  0  0  0  0  0  0  0  0  0
  1  2  1  0
  1  4  1  0
  2  3  2  3
  3  5  1  0
  6  7  1  0
  6  9  1  0
  6 10  1  0
  6 11  1  0
  7  8  1  0
  7 12  1  0
  7 13  1  0
  8 14  1  0
M  RAD  1   3   2
M  END
>  <reaction>  (8) 
rmg_rxn_15418

>  <mol_properties>  (8) 
{"1": {"label": "*4", "atom_type": "N3d"}, "2": {"label": "*3", "atom_type": "Cd"}, "6": {"label": "*0", "atom_type": "Cs"}, "7": {"label": "*1", "atom_type": "O2s"}, "13": {"label": "*2", "atom_type": "H0"}}

>  <type>  (8) 
unop_4

>  <geom_source>  (8) 
Heuristics

$$$$

     RDKit          3D

 14 12  0  0  0  0  0  0  0  0999 V2000
   -2.6071    1.1667   -0.1623 O   0  0  0  0  0  0  0  0  0  0  0  0
   -1.4504    0.4140   -0.1126 N   0  0  0  0  0  0  0  0  0  0  0  0
   -0.4350    1.1243    0.1280 C   0  0  0  0  0  3  0  0  0  0  0  0
   -3.2873    0.5165   -0.3485 H   0  0  0  0  0  0  0  0  0  0  0  0
   -0.4935    2.2008    0.2746 H   0  0  0  0  0  0  0  0  0  0  0  0
    1.5625   -1.3539   -1.1493 C   0  0  0  0  0  0  0  0  0  0  0  0
    1.5625   -1.3539    0.3682 C   0  0  0  0  0  0  0  0  0  0  0  0
    1.5625   -0.0507    0.9175 O   0  0  0  0  0  0  0  0  0  0  0  0
    2.4185   -0.7964   -1.5317 H   0  0  0  0  0  0  0  0  0  0  0  0
    1.6109   -2.3745   -1.5346 H   0  0  0  0  0  0  0  0  0  0  0  0
    0.6511   -0.8937   -1.5405 H   0  0  0  0  0  0  0  0  0  0  0  0
    2.4690   -1.8296    0.7450 H   0  0  0  0  0  0  0  0  0  0  0  0
    0.7103   -1.9336    0.7455 H   0  0  0  0  0  0  0  0  0  0  0  0
    0.6242    0.5013    0.5466 H   0  0  0  0  0  0  0  0  0  0  0  0
  1  2  1  0
  1  4  1  0
  2  3  2  3
  3  5  1  0
  6  7  1  0
  6  9  1  0
  6 10  1  0
  6 11  1  0
  7  8  1  0
  7 12  1  0
  7 13  1  0
  8 14  1  0
M  RAD  1   3   2
M  END
>  <reaction>  (9) 
rmg_rxn_15418

>  <mol_properties>  (9) 
{"1": {"label": "*4", "atom_type": "N3d"}, "2": {"label": "*3", "atom_type": "Cd"}, "6": {"label": "*0", "atom_type": "Cs"}, "7": {"label": "*1", "atom_type": "O2s"}, "13": {"label": "*2", "atom_type": "H0"}}

>  <type>  (9) 
unop_5

>  <geom_source>  (9) 
Heuristics

$$$$

     RDKit          3D

 14 12  0  0  0  0  0  0  0  0999 V2000
   -2.7705    0.4797    0.1192 O   0  0  0  0  0  0  0  0  0  0  0  0
   -1.4348    0.0834    0.1496 N   0  0  0  0  0  0  0  0  0  0  0  0
   -0.9586   -0.8625   -0.4659 C   0  0  0  0  0  3  0  0  0  0  0  0
   -2.8212    1.2430    0.7132 H   0  0  0  0  0  0  0  0  0  0  0  0
   -1.3587   -1.6027   -1.1416 H   0  0  0  0  0  0  0  0  0  0  0  0
    1.9751    1.2216   -0.4578 C   0  0  0  0  0  0  0  0  0  0  0  0
    1.8983    0.0873    0.5649 C   0  0  0  0  0  0  0  0  0  0  0  0
    1.4410   -1.1014    0.0450 O   0  0  0  0  0  0  0  0  0  0  0  0
    2.4124    2.1066   -0.0038 H   0  0  0  0  0  0  0  0  0  0  0  0
    2.5842    0.9186   -1.3057 H   0  0  0  0  0  0  0  0  0  0  0  0
    0.9774    1.4642   -0.8175 H   0  0  0  0  0  0  0  0  0  0  0  0
    1.2855    0.4026    1.4269 H   0  0  0  0  0  0  0  0  0  0  0  0
    2.9069   -0.1295    0.9467 H   0  0  0  0  0  0  0  0  0  0  0  0
    0.3226   -1.0132   -0.2268 H   0  0  0  0  0  0  0  0  0  0  0  0
  1  2  1  0
  1  4  1  0
  2  3  2  3
  3  5  1  0
  6  7  1  0
  6  9  1  0
  6 10  1  0
  6 11  1  0
  7  8  1  0
  7 12  1  0
  7 13  1  0
  8 14  1  0
M  RAD  1   3   2
M  END
>  <reaction>  (10) 
rmg_rxn_15418

>  <mol_properties>  (10) 
{"1": {"label": "*4", "atom_type": "N3d"}, "2": {"label": "*3", "atom_type": "Cd"}, "6": {"label": "*0", "atom_type": "Cs"}, "7": {"label": "*1", "atom_type": "O2s"}, "13": {"label": "*2", "atom_type": "H0"}}

>  <type>  (10) 
unop_6

>  <geom_source>  (10) 
Heuristics

$$$$

     RDKit          3D

 14 12  0  0  0  0  0  0  0  0999 V2000
   -1.7865    2.4413   -0.0218 O   0  0  0  0  0  0  0  0  0  0  0  0
   -1.2156    1.3960    0.6771 N   0  0  0  0  0  0  0  0  0  0  0  0
   -0.7334    0.5204   -0.0938 C   0  0  0  0  0  3  0  0  0  0  0  0
   -2.1071    3.0225    0.6707 H   0  0  0  0  0  0  0  0  0  0  0  0
   -0.7766    0.6050   -1.1776 H   0  0  0  0  0  0  0  0  0  0  0  0
    1.2641   -1.9579   -1.3711 C   0  0  0  0  0  0  0  0  0  0  0  0
    1.2641   -1.9579    0.1464 C   0  0  0  0  0  0  0  0  0  0  0  0
    1.2641   -0.6547    0.6958 O   0  0  0  0  0  0  0  0  0  0  0  0
    2.1202   -1.4003   -1.7534 H   0  0  0  0  0  0  0  0  0  0  0  0
    1.3125   -2.9785   -1.7563 H   0  0  0  0  0  0  0  0  0  0  0  0
    0.3527   -1.4977   -1.7623 H   0  0  0  0  0  0  0  0  0  0  0  0
    2.1706   -2.4336    0.5233 H   0  0  0  0  0  0  0  0  0  0  0  0
    0.4119   -2.5376    0.5237 H   0  0  0  0  0  0  0  0  0  0  0  0
    0.3258   -0.1027    0.3249 H   0  0  0  0  0  0  0  0  0  0  0  0
  1  2  1  0
  1  4  1  0
  2  3  2  3
  3  5  1  0
  6  7  1  0
  6  9  1  0
  6 10  1  0
  6 11  1  0
  7  8  1  0
  7 12  1  0
  7 13  1  0
  8 14  1  0
M  RAD  1   3   2
M  END
>  <reaction>  (11) 
rmg_rxn_15418

>  <mol_properties>  (11) 
{"1": {"label": "*4", "atom_type": "N3d"}, "2": {"label": "*3", "atom_type": "Cd"}, "6": {"label": "*0", "atom_type": "Cs"}, "7": {"label": "*1", "atom_type": "O2s"}, "13": {"label": "*2", "atom_type": "H0"}}

>  <type>  (11) 
unop_7

>  <geom_source>  (11) 
Heuristics

$$$$

     RDKit          3D

 14 12  0  0  0  0  0  0  0  0999 V2000
   -1.6143    2.0599   -1.0483 O   0  0  0  0  0  0  0  0  0  0  0  0
   -0.9596    0.8895   -0.7187 N   0  0  0  0  0  0  0  0  0  0  0  0
   -0.8431    0.7495    0.5304 C   0  0  0  0  0  3  0  0  0  0  0  0
   -1.6340    2.0409   -2.0071 H   0  0  0  0  0  0  0  0  0  0  0  0
   -1.2232    1.4807    1.2406 H   0  0  0  0  0  0  0  0  0  0  0  0
    1.1544   -1.7288   -0.7469 C   0  0  0  0  0  0  0  0  0  0  0  0
    1.1544   -1.7288    0.7706 C   0  0  0  0  0  0  0  0  0  0  0  0
    1.1544   -0.4256    1.3199 O   0  0  0  0  0  0  0  0  0  0  0  0
    2.0105   -1.1712   -1.1292 H   0  0  0  0  0  0  0  0  0  0  0  0
    1.2029   -2.7493   -1.1322 H   0  0  0  0  0  0  0  0  0  0  0  0
    0.2430   -1.2686   -1.1381 H   0  0  0  0  0  0  0  0  0  0  0  0
    2.0609   -2.2045    1.1474 H   0  0  0  0  0  0  0  0  0  0  0  0
    0.3022   -2.3085    1.1479 H   0  0  0  0  0  0  0  0  0  0  0  0
    0.2161    0.1264    0.9490 H   0  0  0  0  0  0  0  0  0  0  0  0
  1  2  1  0
  1  4  1  0
  2  3  2  3
  3  5  1  0
  6  7  1  0
  6  9  1  0
  6 10  1  0
  6 11  1  0
  7  8  1  0
  7 12  1  0
  7 13  1  0
  8 14  1  0
M  RAD  1   3   2
M  END
>  <reaction>  (12) 
rmg_rxn_15418

>  <mol_properties>  (12) 
{"1": {"label": "*4", "atom_type": "N3d"}, "2": {"label": "*3", "atom_type": "Cd"}, "6": {"label": "*0", "atom_type": "Cs"}, "7": {"label": "*1", "atom_type": "O2s"}, "13": {"label": "*2", "atom_type": "H0"}}

>  <type>  (12) 
unop_8

>  <geom_source>  (12) 
Heuristics

$$$$

     RDKit          3D

 14 12  0  0  0  0  0  0  0  0999 V2000
   -2.7694   -0.4801   -0.1193 O   0  0  0  0  0  0  0  0  0  0  0  0
   -1.4334   -0.0844   -0.1482 N   0  0  0  0  0  0  0  0  0  0  0  0
   -0.9590    0.8646    0.4641 C   0  0  0  0  0  3  0  0  0  0  0  0
   -2.8188   -1.2463   -0.7095 H   0  0  0  0  0  0  0  0  0  0  0  0
   -1.3615    1.6079    1.1349 H   0  0  0  0  0  0  0  0  0  0  0  0
    1.9740   -1.2220    0.4577 C   0  0  0  0  0  0  0  0  0  0  0  0
    1.8970   -0.0876   -0.5648 C   0  0  0  0  0  0  0  0  0  0  0  0
    1.4412    1.1015   -0.0444 O   0  0  0  0  0  0  0  0  0  0  0  0
    2.5857   -0.9201    1.3042 H   0  0  0  0  0  0  0  0  0  0  0  0
    0.9768   -1.4627    0.8196 H   0  0  0  0  0  0  0  0  0  0  0  0
    2.4087   -2.1078    0.0027 H   0  0  0  0  0  0  0  0  0  0  0  0
    1.2830   -0.4022   -1.4262 H   0  0  0  0  0  0  0  0  0  0  0  0
    2.9054    0.1284   -0.9479 H   0  0  0  0  0  0  0  0  0  0  0  0
    0.3225    1.0146    0.2268 H   0  0  0  0  0  0  0  0  0  0  0  0
  1  2  1  0
  1  4  1  0
  2  3  2  3
  3  5  1  0
  6  7  1  0
  6  9  1  0
  6 10  1  0
  6 11  1  0
  7  8  1  0
  7 12  1  0
  7 13  1  0
  8 14  1  0
M  RAD  1   3   2
M  END
>  <reaction>  (13) 
rmg_rxn_15418

>  <mol_properties>  (13) 
{"1": {"label": "*4", "atom_type": "N3d"}, "2": {"label": "*3", "atom_type": "Cd"}, "6": {"label": "*0", "atom_type": "Cs"}, "7": {"label": "*1", "atom_type": "O2s"}, "13": {"label": "*2", "atom_type": "H0"}}

>  <type>  (13) 
unop_9

>  <geom_source>  (13) 
Heuristics

$$$$

     RDKit          3D

 14 12  0  0  0  0  0  0  0  0999 V2000
   -2.0395    2.2630   -0.1050 O   0  0  0  0  0  0  0  0  0  0  0  0
   -0.8861    1.6929    0.3966 N   0  0  0  0  0  0  0  0  0  0  0  0
   -0.7329    0.5060   -0.0051 C   0  0  0  0  0  3  0  0  0  0  0  0
   -2.0328    3.1453    0.2712 H   0  0  0  0  0  0  0  0  0  0  0  0
   -1.4420    0.0150   -0.6682 H   0  0  0  0  0  0  0  0  0  0  0  0
    1.2646   -1.9722   -1.2824 C   0  0  0  0  0  0  0  0  0  0  0  0
    1.2646   -1.9722    0.2351 C   0  0  0  0  0  0  0  0  0  0  0  0
    1.2646   -0.6691    0.7844 O   0  0  0  0  0  0  0  0  0  0  0  0
    2.1207   -1.4147   -1.6647 H   0  0  0  0  0  0  0  0  0  0  0  0
    1.3130   -2.9928   -1.6676 H   0  0  0  0  0  0  0  0  0  0  0  0
    0.3532   -1.5121   -1.6736 H   0  0  0  0  0  0  0  0  0  0  0  0
    2.1711   -2.4480    0.6120 H   0  0  0  0  0  0  0  0  0  0  0  0
    0.4124   -2.5520    0.6124 H   0  0  0  0  0  0  0  0  0  0  0  0
    0.3263   -0.1171    0.4136 H   0  0  0  0  0  0  0  0  0  0  0  0
  1  2  1  0
  1  4  1  0
  2  3  2  3
  3  5  1  0
  6  7  1  0
  6  9  1  0
  6 10  1  0
  6 11  1  0
  7  8  1  0
  7 12  1  0
  7 13  1  0
  8 14  1  0
M  RAD  1   3   2
M  END
>  <reaction>  (14) 
rmg_rxn_15418

>  <mol_properties>  (14) 
{"1": {"label": "*4", "atom_type": "N3d"}, "2": {"label": "*3", "atom_type": "Cd"}, "6": {"label": "*0", "atom_type": "Cs"}, "7": {"label": "*1", "atom_type": "O2s"}, "13": {"label": "*2", "atom_type": "H0"}}

>  <type>  (14) 
unop_10

>  <geom_source>  (14) 
Heuristics

$$$$

     RDKit          3D

 14 12  0  0  0  0  0  0  0  0999 V2000
   -2.7697   -0.4800    0.1191 O   0  0  0  0  0  0  0  0  0  0  0  0
   -1.4338   -0.0839    0.1487 N   0  0  0  0  0  0  0  0  0  0  0  0
   -0.9589    0.8645   -0.4639 C   0  0  0  0  0  3  0  0  0  0  0  0
   -2.8192   -1.2459    0.7098 H   0  0  0  0  0  0  0  0  0  0  0  0
   -1.3604    1.6076   -1.1356 H   0  0  0  0  0  0  0  0  0  0  0  0
    1.9733   -1.2225   -0.4575 C   0  0  0  0  0  0  0  0  0  0  0  0
    1.8980   -0.0875    0.5645 C   0  0  0  0  0  0  0  0  0  0  0  0
    1.4415    1.1014    0.0441 O   0  0  0  0  0  0  0  0  0  0  0  0
    2.5812   -0.9199   -1.3065 H   0  0  0  0  0  0  0  0  0  0  0  0
    2.4115   -2.1071   -0.0035 H   0  0  0  0  0  0  0  0  0  0  0  0
    0.9752   -1.4655   -0.8155 H   0  0  0  0  0  0  0  0  0  0  0  0
    2.9069    0.1287    0.9458 H   0  0  0  0  0  0  0  0  0  0  0  0
    1.2853   -0.4016    1.4270 H   0  0  0  0  0  0  0  0  0  0  0  0
    0.3227    1.0143   -0.2264 H   0  0  0  0  0  0  0  0  0  0  0  0
  1  2  1  0
  1  4  1  0
  2  3  2  3
  3  5  1  0
  6  7  1  0
  6  9  1  0
  6 10  1  0
  6 11  1  0
  7  8  1  0
  7 12  1  0
  7 13  1  0
  8 14  1  0
M  RAD  1   3   2
M  END
>  <reaction>  (15) 
rmg_rxn_15418

>  <mol_properties>  (15) 
{"1": {"label": "*4", "atom_type": "N3d"}, "2": {"label": "*3", "atom_type": "Cd"}, "6": {"label": "*0", "atom_type": "Cs"}, "7": {"label": "*1", "atom_type": "O2s"}, "13": {"label": "*2", "atom_type": "H0"}}

>  <type>  (15) 
unop_11

>  <geom_source>  (15) 
Heuristics

$$$$

     RDKit          3D

 14 12  0  0  0  0  0  0  0  0999 V2000
   -1.4628    2.4286   -0.6250 O   0  0  0  0  0  0  0  0  0  0  0  0
   -0.8082    1.2140   -0.6815 N   0  0  0  0  0  0  0  0  0  0  0  0
   -0.9227    0.5656    0.3956 C   0  0  0  0  0  3  0  0  0  0  0  0
   -1.2985    2.8098   -1.4898 H   0  0  0  0  0  0  0  0  0  0  0  0
   -1.4778    0.9434    1.2516 H   0  0  0  0  0  0  0  0  0  0  0  0
    1.0748   -1.9127   -0.8817 C   0  0  0  0  0  0  0  0  0  0  0  0
    1.0748   -1.9127    0.6358 C   0  0  0  0  0  0  0  0  0  0  0  0
    1.0748   -0.6095    1.1851 O   0  0  0  0  0  0  0  0  0  0  0  0
    1.9308   -1.3551   -1.2640 H   0  0  0  0  0  0  0  0  0  0  0  0
    1.1232   -2.9332   -1.2670 H   0  0  0  0  0  0  0  0  0  0  0  0
    0.1633   -1.4525   -1.2729 H   0  0  0  0  0  0  0  0  0  0  0  0
    1.9812   -2.3884    1.0126 H   0  0  0  0  0  0  0  0  0  0  0  0
    0.2226   -2.4924    1.0131 H   0  0  0  0  0  0  0  0  0  0  0  0
    0.1364   -0.0575    0.8142 H   0  0  0  0  0  0  0  0  0  0  0  0
  1  2  1  0
  1  4  1  0
  2  3  2  3
  3  5  1  0
  6  7  1  0
  6  9  1  0
  6 10  1  0
  6 11  1  0
  7  8  1  0
  7 12  1  0
  7 13  1  0
  8 14  1  0
M  RAD  1   3   2
M  END
>  <reaction>  (16) 
rmg_rxn_15418

>  <mol_properties>  (16) 
{"1": {"label": "*4", "atom_type": "N3d"}, "2": {"label": "*3", "atom_type": "Cd"}, "6": {"label": "*0", "atom_type": "Cs"}, "7": {"label": "*1", "atom_type": "O2s"}, "13": {"label": "*2", "atom_type": "H0"}}

>  <type>  (16) 
unop_12

>  <geom_source>  (16) 
Heuristics

$$$$

     RDKit          3D

 14 12  0  0  0  0  0  0  0  0999 V2000
   -2.2219    0.6977    0.4524 O   0  0  0  0  0  0  0  0  0  0  0  0
   -2.0481   -0.5401   -0.0271 N   0  0  0  0  0  0  0  0  0  0  0  0
   -0.9761   -0.9655   -0.4712 C   0  0  0  0  0  3  0  0  0  0  0  0
   -1.3898    1.2150    0.4013 H   0  0  0  0  0  0  0  0  0  0  0  0
   -0.8766   -1.9650   -0.8474 H   0  0  0  0  0  0  0  0  0  0  0  0
    2.4420   -0.6297    0.6690 C   0  0  0  0  0  0  0  0  0  0  0  0
    2.0477    0.4055   -0.3848 C   0  0  0  0  0  0  0  0  0  0  0  0
    0.7294    0.8054   -0.3045 O   0  0  0  0  0  0  0  0  0  0  0  0
    3.5056   -0.8409    0.6028 H   0  0  0  0  0  0  0  0  0  0  0  0
    2.2151   -0.2568    1.6651 H   0  0  0  0  0  0  0  0  0  0  0  0
    1.8897   -1.5549    0.5112 H   0  0  0  0  0  0  0  0  0  0  0  0
    2.2831    0.0214   -1.3920 H   0  0  0  0  0  0  0  0  0  0  0  0
    2.6378    1.3205   -0.2338 H   0  0  0  0  0  0  0  0  0  0  0  0
    0.0181   -0.1158   -0.4489 H   0  0  0  0  0  0  0  0  0  0  0  0
  1  2  1  0
  1  4  1  0
  2  3  2  3
  3  5  1  0
  6  7  1  0
  6  9  1  0
  6 10  1  0
  6 11  1  0
  7  8  1  0
  7 12  1  0
  7 13  1  0
  8 14  1  0
M  RAD  1   3   2
M  END
>  <reaction>  (17) 
rmg_rxn_15418

>  <mol_properties>  (17) 
{"1": {"label": "*4", "atom_type": "N3d"}, "2": {"label": "*3", "atom_type": "Cd"}, "6": {"label": "*0", "atom_type": "Cs"}, "7": {"label": "*1", "atom_type": "O2s"}, "13": {"label": "*2", "atom_type": "H0"}}

>  <type>  (17) 
unop_13

>  <geom_source>  (17) 
Heuristics

$$$$

     RDKit          3D

 14 12  0  0  0  0  0  0  0  0999 V2000
   -1.5838    2.5295   -0.1022 O   0  0  0  0  0  0  0  0  0  0  0  0
   -0.7162    1.5212   -0.4731 N   0  0  0  0  0  0  0  0  0  0  0  0
   -0.9076    0.4655    0.1921 C   0  0  0  0  0  3  0  0  0  0  0  0
   -1.3345    3.2584   -0.6738 H   0  0  0  0  0  0  0  0  0  0  0  0
   -1.6731    0.3874    0.9611 H   0  0  0  0  0  0  0  0  0  0  0  0
    1.0899   -2.0127   -1.0852 C   0  0  0  0  0  0  0  0  0  0  0  0
    1.0899   -2.0127    0.4323 C   0  0  0  0  0  0  0  0  0  0  0  0
    1.0899   -0.7095    0.9816 O   0  0  0  0  0  0  0  0  0  0  0  0
    1.9460   -1.4552   -1.4675 H   0  0  0  0  0  0  0  0  0  0  0  0
    1.1384   -3.0333   -1.4704 H   0  0  0  0  0  0  0  0  0  0  0  0
    0.1785   -1.5526   -1.4764 H   0  0  0  0  0  0  0  0  0  0  0  0
    1.9964   -2.4884    0.8092 H   0  0  0  0  0  0  0  0  0  0  0  0
    0.2377   -2.5924    0.8096 H   0  0  0  0  0  0  0  0  0  0  0  0
    0.1516   -0.1575    0.6107 H   0  0  0  0  0  0  0  0  0  0  0  0
  1  2  1  0
  1  4  1  0
  2  3  2  3
  3  5  1  0
  6  7  1  0
  6  9  1  0
  6 10  1  0
  6 11  1  0
  7  8  1  0
  7 12  1  0
  7 13  1  0
  8 14  1  0
M  RAD  1   3   2
M  END
>  <reaction>  (18) 
rmg_rxn_15418

>  <mol_properties>  (18) 
{"1": {"label": "*4", "atom_type": "N3d"}, "2": {"label": "*3", "atom_type": "Cd"}, "6": {"label": "*0", "atom_type": "Cs"}, "7": {"label": "*1", "atom_type": "O2s"}, "13": {"label": "*2", "atom_type": "H0"}}

>  <type>  (18) 
unop_14

>  <geom_source>  (18) 
Heuristics

$$$$

     RDKit          3D

 14 12  0  0  0  0  0  0  0  0999 V2000
   -2.7696    0.4801   -0.1193 O   0  0  0  0  0  0  0  0  0  0  0  0
   -1.4340    0.0834   -0.1493 N   0  0  0  0  0  0  0  0  0  0  0  0
   -0.9586   -0.8631    0.4661 C   0  0  0  0  0  3  0  0  0  0  0  0
   -2.8198    1.2437   -0.7130 H   0  0  0  0  0  0  0  0  0  0  0  0
   -1.3596   -1.6034    1.1411 H   0  0  0  0  0  0  0  0  0  0  0  0
    1.9749    1.2214    0.4582 C   0  0  0  0  0  0  0  0  0  0  0  0
    1.8969    0.0878   -0.5652 C   0  0  0  0  0  0  0  0  0  0  0  0
    1.4409   -1.1015   -0.0453 O   0  0  0  0  0  0  0  0  0  0  0  0
    2.4116    2.1067    0.0042 H   0  0  0  0  0  0  0  0  0  0  0  0
    0.9777    1.4638    0.8194 H   0  0  0  0  0  0  0  0  0  0  0  0
    2.5853    0.9178    1.3050 H   0  0  0  0  0  0  0  0  0  0  0  0
    2.9049   -0.1284   -0.9489 H   0  0  0  0  0  0  0  0  0  0  0  0
    1.2824    0.4034   -1.4259 H   0  0  0  0  0  0  0  0  0  0  0  0
    0.3226   -1.0142    0.2270 H   0  0  0  0  0  0  0  0  0  0  0  0
  1  2  1  0
  1  4  1  0
  2  3  2  3
  3  5  1  0
  6  7  1  0
  6  9  1  0
  6 10  1  0
  6 11  1  0
  7  8  1  0
  7 12  1  0
  7 13  1  0
  8 14  1  0
M  RAD  1   3   2
M  END
>  <reaction>  (19) 
rmg_rxn_15418

>  <mol_properties>  (19) 
{"1": {"label": "*4", "atom_type": "N3d"}, "2": {"label": "*3", "atom_type": "Cd"}, "6": {"label": "*0", "atom_type": "Cs"}, "7": {"label": "*1", "atom_type": "O2s"}, "13": {"label": "*2", "atom_type": "H0"}}

>  <type>  (19) 
unop_15

>  <geom_source>  (19) 
Heuristics

$$$$

     RDKit          3D

 14 12  0  0  0  0  0  0  0  0999 V2000
   -2.2395    1.9196    0.5825 O   0  0  0  0  0  0  0  0  0  0  0  0
   -1.5570    0.7233    0.4827 N   0  0  0  0  0  0  0  0  0  0  0  0
   -0.5204    0.8292   -0.2299 C   0  0  0  0  0  3  0  0  0  0  0  0
   -2.9895    1.7016    1.1393 H   0  0  0  0  0  0  0  0  0  0  0  0
   -0.2236    1.7653   -0.6981 H   0  0  0  0  0  0  0  0  0  0  0  0
    1.4771   -1.6490   -1.5071 C   0  0  0  0  0  0  0  0  0  0  0  0
    1.4771   -1.6490    0.0104 C   0  0  0  0  0  0  0  0  0  0  0  0
    1.4771   -0.3458    0.5597 O   0  0  0  0  0  0  0  0  0  0  0  0
    2.3331   -1.0915   -1.8895 H   0  0  0  0  0  0  0  0  0  0  0  0
    1.5255   -2.6696   -1.8924 H   0  0  0  0  0  0  0  0  0  0  0  0
    0.5656   -1.1889   -1.8983 H   0  0  0  0  0  0  0  0  0  0  0  0
    2.3835   -2.1247    0.3872 H   0  0  0  0  0  0  0  0  0  0  0  0
    0.6249   -2.2287    0.3876 H   0  0  0  0  0  0  0  0  0  0  0  0
    0.5387    0.2062    0.1888 H   0  0  0  0  0  0  0  0  0  0  0  0
  1  2  1  0
  1  4  1  0
  2  3  2  3
  3  5  1  0
  6  7  1  0
  6  9  1  0
  6 10  1  0
  6 11  1  0
  7  8  1  0
  7 12  1  0
  7 13  1  0
  8 14  1  0
M  RAD  1   3   2
M  END
>  <reaction>  (20) 
rmg_rxn_15418

>  <mol_properties>  (20) 
{"1": {"label": "*4", "atom_type": "N3d"}, "2": {"label": "*3", "atom_type": "Cd"}, "6": {"label": "*0", "atom_type": "Cs"}, "7": {"label": "*1", "atom_type": "O2s"}, "13": {"label": "*2", "atom_type": "H0"}}

>  <type>  (20) 
unop_16

>  <geom_source>  (20) 
Heuristics

$$$$

     RDKit          3D

 14 12  0  0  0  0  0  0  0  0999 V2000
   -2.2185   -0.6985   -0.4541 O   0  0  0  0  0  0  0  0  0  0  0  0
   -2.0475    0.5393    0.0265 N   0  0  0  0  0  0  0  0  0  0  0  0
   -0.9769    0.9659    0.4728 C   0  0  0  0  0  3  0  0  0  0  0  0
   -1.3856   -1.2145   -0.4015 H   0  0  0  0  0  0  0  0  0  0  0  0
   -0.8794    1.9653    0.8498 H   0  0  0  0  0  0  0  0  0  0  0  0
    2.4392    0.6297   -0.6709 C   0  0  0  0  0  0  0  0  0  0  0  0
    2.0474   -0.4050    0.3844 C   0  0  0  0  0  0  0  0  0  0  0  0
    0.7288   -0.8046    0.3075 O   0  0  0  0  0  0  0  0  0  0  0  0
    2.2109    0.2560   -1.6664 H   0  0  0  0  0  0  0  0  0  0  0  0
    1.8867    1.5548   -0.5127 H   0  0  0  0  0  0  0  0  0  0  0  0
    3.5028    0.8415   -0.6067 H   0  0  0  0  0  0  0  0  0  0  0  0
    2.2853   -0.0204    1.3908 H   0  0  0  0  0  0  0  0  0  0  0  0
    2.6370   -1.3202    0.2323 H   0  0  0  0  0  0  0  0  0  0  0  0
    0.0179    0.1169    0.4518 H   0  0  0  0  0  0  0  0  0  0  0  0
  1  2  1  0
  1  4  1  0
  2  3  2  3
  3  5  1  0
  6  7  1  0
  6  9  1  0
  6 10  1  0
  6 11  1  0
  7  8  1  0
  7 12  1  0
  7 13  1  0
  8 14  1  0
M  RAD  1   3   2
M  END
>  <reaction>  (21) 
rmg_rxn_15418

>  <mol_properties>  (21) 
{"1": {"label": "*4", "atom_type": "N3d"}, "2": {"label": "*3", "atom_type": "Cd"}, "6": {"label": "*0", "atom_type": "Cs"}, "7": {"label": "*1", "atom_type": "O2s"}, "13": {"label": "*2", "atom_type": "H0"}}

>  <type>  (21) 
unop_17

>  <geom_source>  (21) 
Heuristics

$$$$

     RDKit          3D

 14 12  0  0  0  0  0  0  0  0999 V2000
   -1.9848    1.5745   -1.1298 O   0  0  0  0  0  0  0  0  0  0  0  0
   -1.1329    0.6221   -0.6063 N   0  0  0  0  0  0  0  0  0  0  0  0
   -0.6930    0.9553    0.5291 C   0  0  0  0  0  3  0  0  0  0  0  0
   -2.2402    1.2026   -1.9763 H   0  0  0  0  0  0  0  0  0  0  0  0
   -0.9694    1.8889    1.0144 H   0  0  0  0  0  0  0  0  0  0  0  0
    1.3045   -1.5230   -0.7482 C   0  0  0  0  0  0  0  0  0  0  0  0
    1.3045   -1.5230    0.7693 C   0  0  0  0  0  0  0  0  0  0  0  0
    1.3045   -0.2198    1.3186 O   0  0  0  0  0  0  0  0  0  0  0  0
    2.1605   -0.9654   -1.1305 H   0  0  0  0  0  0  0  0  0  0  0  0
    1.3529   -2.5436   -1.1334 H   0  0  0  0  0  0  0  0  0  0  0  0
    0.3930   -1.0628   -1.1394 H   0  0  0  0  0  0  0  0  0  0  0  0
    2.2109   -1.9987    1.1462 H   0  0  0  0  0  0  0  0  0  0  0  0
    0.4523   -2.1027    1.1466 H   0  0  0  0  0  0  0  0  0  0  0  0
    0.3661    0.3322    0.9477 H   0  0  0  0  0  0  0  0  0  0  0  0
  1  2  1  0
  1  4  1  0
  2  3  2  3
  3  5  1  0
  6  7  1  0
  6  9  1  0
  6 10  1  0
  6 11  1  0
  7  8  1  0
  7 12  1  0
  7 13  1  0
  8 14  1  0
M  RAD  1   3   2
M  END
>  <reaction>  (22) 
rmg_rxn_15418

>  <mol_properties>  (22) 
{"1": {"label": "*4", "atom_type": "N3d"}, "2": {"label": "*3", "atom_type": "Cd"}, "6": {"label": "*0", "atom_type": "Cs"}, "7": {"label": "*1", "atom_type": "O2s"}, "13": {"label": "*2", "atom_type": "H0"}}

>  <type>  (22) 
unop_18

>  <geom_source>  (22) 
Heuristics

$$$$

     RDKit          3D

 14 12  0  0  0  0  0  0  0  0999 V2000
   -2.5288    1.4606    0.3734 O   0  0  0  0  0  0  0  0  0  0  0  0
   -1.5493    0.5031    0.1981 N   0  0  0  0  0  0  0  0  0  0  0  0
   -0.4359    1.0163   -0.1027 C   0  0  0  0  0  3  0  0  0  0  0  0
   -3.3068    0.9447    0.5935 H   0  0  0  0  0  0  0  0  0  0  0  0
   -0.2934    2.0900   -0.2049 H   0  0  0  0  0  0  0  0  0  0  0  0
    1.5616   -1.4619   -1.3799 C   0  0  0  0  0  0  0  0  0  0  0  0
    1.5616   -1.4619    0.1376 C   0  0  0  0  0  0  0  0  0  0  0  0
    1.5616   -0.1587    0.6869 O   0  0  0  0  0  0  0  0  0  0  0  0
    2.4177   -0.9044   -1.7623 H   0  0  0  0  0  0  0  0  0  0  0  0
    1.6100   -2.4825   -1.7652 H   0  0  0  0  0  0  0  0  0  0  0  0
    0.6502   -1.0018   -1.7711 H   0  0  0  0  0  0  0  0  0  0  0  0
    2.4681   -1.9376    0.5144 H   0  0  0  0  0  0  0  0  0  0  0  0
    0.7094   -2.0416    0.5148 H   0  0  0  0  0  0  0  0  0  0  0  0
    0.6233    0.3933    0.3160 H   0  0  0  0  0  0  0  0  0  0  0  0
  1  2  1  0
  1  4  1  0
  2  3  2  3
  3  5  1  0
  6  7  1  0
  6  9  1  0
  6 10  1  0
  6 11  1  0
  7  8  1  0
  7 12  1  0
  7 13  1  0
  8 14  1  0
M  RAD  1   3   2
M  END
>  <reaction>  (23) 
rmg_rxn_15418

>  <mol_properties>  (23) 
{"1": {"label": "*4", "atom_type": "N3d"}, "2": {"label": "*3", "atom_type": "Cd"}, "6": {"label": "*0", "atom_type": "Cs"}, "7": {"label": "*1", "atom_type": "O2s"}, "13": {"label": "*2", "atom_type": "H0"}}

>  <type>  (23) 
unop_19

>  <geom_source>  (23) 
Heuristics

$$$$

     RDKit          3D

 14 12  0  0  0  0  0  0  0  0999 V2000
   -1.9116    2.3593    0.1726 O   0  0  0  0  0  0  0  0  0  0  0  0
   -0.7164    1.7231   -0.0990 N   0  0  0  0  0  0  0  0  0  0  0  0
   -0.8097    0.4704    0.0249 C   0  0  0  0  0  3  0  0  0  0  0  0
   -1.7037    3.2868    0.0436 H   0  0  0  0  0  0  0  0  0  0  0  0
   -1.7354   -0.0233    0.3130 H   0  0  0  0  0  0  0  0  0  0  0  0
    1.1878   -2.0079   -1.2524 C   0  0  0  0  0  0  0  0  0  0  0  0
    1.1878   -2.0079    0.2651 C   0  0  0  0  0  0  0  0  0  0  0  0
    1.1878   -0.7047    0.8144 O   0  0  0  0  0  0  0  0  0  0  0  0
    2.0438   -1.4503   -1.6347 H   0  0  0  0  0  0  0  0  0  0  0  0
    1.2362   -3.0285   -1.6376 H   0  0  0  0  0  0  0  0  0  0  0  0
    0.2763   -1.5477   -1.6436 H   0  0  0  0  0  0  0  0  0  0  0  0
    2.0943   -2.4836    0.6420 H   0  0  0  0  0  0  0  0  0  0  0  0
    0.3356   -2.5876    0.6424 H   0  0  0  0  0  0  0  0  0  0  0  0
    0.2494   -0.1527    0.4435 H   0  0  0  0  0  0  0  0  0  0  0  0
  1  2  1  0
  1  4  1  0
  2  3  2  3
  3  5  1  0
  6  7  1  0
  6  9  1  0
  6 10  1  0
  6 11  1  0
  7  8  1  0
  7 12  1  0
  7 13  1  0
  8 14  1  0
M  RAD  1   3   2
M  END
>  <reaction>  (24) 
rmg_rxn_15418

>  <mol_properties>  (24) 
{"1": {"label": "*4", "atom_type": "N3d"}, "2": {"label": "*3", "atom_type": "Cd"}, "6": {"label": "*0", "atom_type": "Cs"}, "7": {"label": "*1", "atom_type": "O2s"}, "13": {"label": "*2", "atom_type": "H0"}}

>  <type>  (24) 
unop_20

>  <geom_source>  (24) 
Heuristics

$$$$

     RDKit          3D

 14 12  0  0  0  0  0  0  0  0999 V2000
   -2.3940    1.2087   -0.7774 O   0  0  0  0  0  0  0  0  0  0  0  0
   -1.3014    0.4575   -0.3912 N   0  0  0  0  0  0  0  0  0  0  0  0
   -0.5326    1.1019    0.3750 C   0  0  0  0  0  3  0  0  0  0  0  0
   -2.8848    0.6112   -1.3449 H   0  0  0  0  0  0  0  0  0  0  0  0
   -0.7318    2.1273    0.6790 H   0  0  0  0  0  0  0  0  0  0  0  0
    1.4649   -1.3763   -0.9023 C   0  0  0  0  0  0  0  0  0  0  0  0
    1.4649   -1.3763    0.6152 C   0  0  0  0  0  0  0  0  0  0  0  0
    1.4649   -0.0731    1.1645 O   0  0  0  0  0  0  0  0  0  0  0  0
    2.3210   -0.8188   -1.2847 H   0  0  0  0  0  0  0  0  0  0  0  0
    1.5134   -2.3969   -1.2876 H   0  0  0  0  0  0  0  0  0  0  0  0
    0.5535   -0.9162   -1.2935 H   0  0  0  0  0  0  0  0  0  0  0  0
    2.3714   -1.8520    0.9920 H   0  0  0  0  0  0  0  0  0  0  0  0
    0.6128   -1.9561    0.9925 H   0  0  0  0  0  0  0  0  0  0  0  0
    0.5266    0.4788    0.7936 H   0  0  0  0  0  0  0  0  0  0  0  0
  1  2  1  0
  1  4  1  0
  2  3  2  3
  3  5  1  0
  6  7  1  0
  6  9  1  0
  6 10  1  0
  6 11  1  0
  7  8  1  0
  7 12  1  0
  7 13  1  0
  8 14  1  0
M  RAD  1   3   2
M  END
>  <reaction>  (25) 
rmg_rxn_15418

>  <mol_properties>  (25) 
{"1": {"label": "*4", "atom_type": "N3d"}, "2": {"label": "*3", "atom_type": "Cd"}, "6": {"label": "*0", "atom_type": "Cs"}, "7": {"label": "*1", "atom_type": "O2s"}, "13": {"label": "*2", "atom_type": "H0"}}

>  <type>  (25) 
unop_21

>  <geom_source>  (25) 
Heuristics

$$$$

     RDKit          3D

 14 12  0  0  0  0  0  0  0  0999 V2000
   -2.2370   -0.6959   -0.4405 O   0  0  0  0  0  0  0  0  0  0  0  0
   -2.0519    0.5438    0.0299 N   0  0  0  0  0  0  0  0  0  0  0  0
   -0.9727    0.9674    0.4579 C   0  0  0  0  0  3  0  0  0  0  0  0
   -1.4069   -1.2168   -0.3970 H   0  0  0  0  0  0  0  0  0  0  0  0
   -0.8650    1.9685    0.8276 H   0  0  0  0  0  0  0  0  0  0  0  0
    2.4591    0.6289   -0.6556 C   0  0  0  0  0  0  0  0  0  0  0  0
    2.0477   -0.4106    0.3873 C   0  0  0  0  0  0  0  0  0  0  0  0
    0.7296   -0.8066    0.2865 O   0  0  0  0  0  0  0  0  0  0  0  0
    3.5219    0.8381   -0.5727 H   0  0  0  0  0  0  0  0  0  0  0  0
    2.2464    0.2609   -1.6566 H   0  0  0  0  0  0  0  0  0  0  0  0
    1.9060    1.5543   -0.5018 H   0  0  0  0  0  0  0  0  0  0  0  0
    2.2700   -0.0323    1.3997 H   0  0  0  0  0  0  0  0  0  0  0  0
    2.6376   -1.3263    0.2399 H   0  0  0  0  0  0  0  0  0  0  0  0
    0.0190    0.1152    0.4292 H   0  0  0  0  0  0  0  0  0  0  0  0
  1  2  1  0
  1  4  1  0
  2  3  2  3
  3  5  1  0
  6  7  1  0
  6  9  1  0
  6 10  1  0
  6 11  1  0
  7  8  1  0
  7 12  1  0
  7 13  1  0
  8 14  1  0
M  RAD  1   3   2
M  END
>  <reaction>  (26) 
rmg_rxn_15418

>  <mol_properties>  (26) 
{"1": {"label": "*4", "atom_type": "N3d"}, "2": {"label": "*3", "atom_type": "Cd"}, "6": {"label": "*0", "atom_type": "Cs"}, "7": {"label": "*1", "atom_type": "O2s"}, "13": {"label": "*2", "atom_type": "H0"}}

>  <type>  (26) 
unop_22

>  <geom_source>  (26) 
Heuristics

$$$$

     RDKit          3D

 14 12  0  0  0  0  0  0  0  0999 V2000
    3.1548    0.1220    0.0292 O   0  0  0  0  0  0  0  0  0  0  0  0
   -1.1183   -0.9248   -0.9169 O   0  0  0  0  0  1  0  0  0  0  0  0
    1.9656   -0.0259   -0.6452 N   0  0  0  0  0  0  0  0  0  0  0  0
   -1.0145   -0.2254    0.2858 C   0  0  0  0  0  0  0  0  0  0  0  0
   -1.9085    1.0041    0.2471 C   0  0  0  0  0  0  0  0  0  0  0  0
    1.2035   -1.0436   -0.4159 C   0  0  0  0  0  0  0  0  0  0  0  0
   -1.3234   -0.8874    1.1221 H   0  0  0  0  0  0  0  0  0  0  0  0
    0.0409    0.0833    0.4399 H   0  0  0  0  0  0  0  0  0  0  0  0
   -1.6001    1.6726   -0.5845 H   0  0  0  0  0  0  0  0  0  0  0  0
   -1.8239    1.5586    1.2054 H   0  0  0  0  0  0  0  0  0  0  0  0
   -2.9666    0.7004    0.0987 H   0  0  0  0  0  0  0  0  0  0  0  0
    0.1550   -1.1618   -1.0192 H   0  0  0  0  0  0  0  0  0  0  0  0
    1.4896   -1.7944    0.3100 H   0  0  0  0  0  0  0  0  0  0  0  0
    3.7459    0.9223   -0.1566 H   0  0  0  0  0  0  0  0  0  0  0  0
  1  3  1  0
  1 14  1  0
  2  4  1  0
  3  6  2  3
  4  5  1  0
  4  7  1  0
  4  8  1  0
  5  9  1  0
  5 10  1  0
  5 11  1  0
  6 12  1  0
  6 13  1  0
M  RAD  1   2   2
M  END
>  <reaction>  (27) 
rmg_rxn_15418

>  <mol_properties>  (27) 
{"1": {"label": "*4", "atom_type": "N3d"}, "2": {"label": "*3", "atom_type": "Cd"}, "6": {"label": "*0", "atom_type": "Cs"}, "7": {"label": "*1", "atom_type": "O2s"}, "13": {"label": "*2", "atom_type": "H0"}}

>  <type>  (27) 
unop_23

>  <geom_source>  (27) 
AutoTST

$$$$

     RDKit          3D

 14 12  0  0  0  0  0  0  0  0999 V2000
   -2.6071    1.1667   -0.1623 O   0  0  0  0  0  0  0  0  0  0  0  0
   -1.4504    0.4140   -0.1126 N   0  0  0  0  0  0  0  0  0  0  0  0
   -0.4350    1.1243    0.1280 C   0  0  0  0  0  3  0  0  0  0  0  0
   -3.2873    0.5165   -0.3485 H   0  0  0  0  0  0  0  0  0  0  0  0
   -0.4935    2.2008    0.2746 H   0  0  0  0  0  0  0  0  0  0  0  0
    1.5625   -1.3539   -1.1493 C   0  0  0  0  0  0  0  0  0  0  0  0
    1.5625   -1.3539    0.3682 C   0  0  0  0  0  0  0  0  0  0  0  0
    1.5625   -0.0507    0.9175 O   0  0  0  0  0  0  0  0  0  0  0  0
    2.4185   -0.7964   -1.5317 H   0  0  0  0  0  0  0  0  0  0  0  0
    1.6109   -2.3745   -1.5346 H   0  0  0  0  0  0  0  0  0  0  0  0
    0.6511   -0.8937   -1.5405 H   0  0  0  0  0  0  0  0  0  0  0  0
    2.4690   -1.8296    0.7450 H   0  0  0  0  0  0  0  0  0  0  0  0
    0.7103   -1.9336    0.7455 H   0  0  0  0  0  0  0  0  0  0  0  0
    0.6241    0.5013    0.5466 H   0  0  0  0  0  0  0  0  0  0  0  0
  1  2  1  0
  1  4  1  0
  2  3  2  3
  3  5  1  0
  6  7  1  0
  6  9  1  0
  6 10  1  0
  6 11  1  0
  7  8  1  0
  7 12  1  0
  7 13  1  0
  8 14  1  0
M  RAD  1   3   2
M  END
>  <reaction>  (28) 
rmg_rxn_15418

>  <mol_properties>  (28) 
{"1": {"label": "*4", "atom_type": "N3d"}, "2": {"label": "*3", "atom_type": "Cd"}, "6": {"label": "*0", "atom_type": "Cs"}, "7": {"label": "*1", "atom_type": "O2s"}, "13": {"label": "*2", "atom_type": "H0"}}

>  <type>  (28) 
unop_24

>  <geom_source>  (28) 
gaussian_log

$$$$
