
     RDKit          3D

  5  4  0  0  0  0  0  0  0  0999 V2000
   -0.4583    0.0384    0.1517 N   0  0  0  0  0  0  0  0  0  0  0  0
    0.7454   -0.3487    0.5322 N   0  0  0  0  0  0  0  0  0  0  0  0
    0.7566   -1.0388    1.5193 O   0  0  0  0  0  0  0  0  0  0  0  0
   -1.2688   -0.2521    0.6850 H   0  0  0  0  0  0  0  0  0  0  0  0
   -0.5137    0.6154   -0.6670 H   0  0  0  0  0  0  0  0  0  0  0  0
  1  2  1  0
  1  4  1  0
  1  5  1  0
  2  3  2  0
M  END
>  <reaction>  (1) 
rmg_rxn_1475

>  <mol_properties>  (1) 
{"0": {"label": "donator", "atom_type": "N3s"}, "3": {"label": "d_hydrogen", "atom_type": "H0"}}

>  <type>  (1) 
r1h

$$$$

     RDKit          3D

 17 16  0  0  0  0  0  0  0  0999 V2000
    2.3993   -0.7259   -0.8796 C   0  0  0  0  0  0  0  0  0  0  0  0
    1.8173   -0.7170    0.4851 C   0  0  0  0  0  3  0  0  0  0  0  0
    2.6779   -0.5182    1.6852 C   0  0  0  0  0  0  0  0  0  0  0  0
    3.8710   -1.2723    1.6674 O   0  0  0  0  0  0  0  0  0  0  0  0
    3.6589   -2.6587    1.8015 C   0  0  0  0  0  0  0  0  0  0  0  0
    4.9969   -3.3586    1.7556 C   0  0  0  0  0  0  0  0  0  0  0  0
    3.3755   -1.2152   -0.8894 H   0  0  0  0  0  0  0  0  0  0  0  0
    1.7457   -1.2284   -1.5943 H   0  0  0  0  0  0  0  0  0  0  0  0
    2.5578    0.2962   -1.2545 H   0  0  0  0  0  0  0  0  0  0  0  0
    0.7445   -0.6275    0.6059 H   0  0  0  0  0  0  0  0  0  0  0  0
    2.1057   -0.7316    2.5992 H   0  0  0  0  0  0  0  0  0  0  0  0
    3.0103    0.5272    1.7516 H   0  0  0  0  0  0  0  0  0  0  0  0
    3.0050   -3.0235    0.9977 H   0  0  0  0  0  0  0  0  0  0  0  0
    3.1469   -2.8645    2.7531 H   0  0  0  0  0  0  0  0  0  0  0  0
    5.6430   -3.0039    2.5594 H   0  0  0  0  0  0  0  0  0  0  0  0
    4.8641   -4.4360    1.8660 H   0  0  0  0  0  0  0  0  0  0  0  0
    5.4957   -3.1672    0.8046 H   0  0  0  0  0  0  0  0  0  0  0  0
  1  2  1  0
  1  7  1  0
  1  8  1  0
  1  9  1  0
  2  3  1  0
  2 10  1  0
  3  4  1  0
  3 11  1  0
  3 12  1  0
  4  5  1  0
  5  6  1  0
  5 13  1  0
  5 14  1  0
  6 15  1  0
  6 16  1  0
  6 17  1  0
M  RAD  1   2   2
M  END
>  <reaction>  (2) 
rmg_rxn_1475

>  <mol_properties>  (2) 
{"1": {"label": "acceptor", "atom_type": "Cs"}}

>  <type>  (2) 
r2

$$$$

     RDKit          3D

 18 17  0  0  0  0  0  0  0  0999 V2000
    2.2026   -0.7213   -0.2612 C   0  0  0  0  0  0  0  0  0  0  0  0
    1.5384    0.2638    0.6915 C   0  0  0  0  0  0  0  0  0  0  0  0
    2.2584    1.5946    0.7694 C   0  0  0  0  0  0  0  0  0  0  0  0
    2.2212    2.2185   -0.4893 O   0  0  0  0  0  0  0  0  0  0  0  0
    2.8988    3.4488   -0.5204 C   0  0  0  0  0  0  0  0  0  0  0  0
    2.7981    4.0296   -1.9118 C   0  0  0  0  0  0  0  0  0  0  0  0
    3.2294   -0.9309    0.0486 H   0  0  0  0  0  0  0  0  0  0  0  0
    2.2338   -0.3181   -1.2734 H   0  0  0  0  0  0  0  0  0  0  0  0
    1.6610   -1.6680   -0.2875 H   0  0  0  0  0  0  0  0  0  0  0  0
    1.4990   -0.1566    1.7002 H   0  0  0  0  0  0  0  0  0  0  0  0
    0.5055    0.4455    0.3835 H   0  0  0  0  0  0  0  0  0  0  0  0
    3.3038    1.4410    1.0808 H   0  0  0  0  0  0  0  0  0  0  0  0
    1.7844    2.2410    1.5226 H   0  0  0  0  0  0  0  0  0  0  0  0
    2.4596    4.1376    0.2164 H   0  0  0  0  0  0  0  0  0  0  0  0
    3.9524    3.3035   -0.2397 H   0  0  0  0  0  0  0  0  0  0  0  0
    1.7543    4.1869   -2.1856 H   0  0  0  0  0  0  0  0  0  0  0  0
    3.2472    3.3545   -2.6411 H   0  0  0  0  0  0  0  0  0  0  0  0
    3.3178    4.9878   -1.9600 H   0  0  0  0  0  0  0  0  0  0  0  0
  1  2  1  0
  1  7  1  0
  1  8  1  0
  1  9  1  0
  2  3  1  0
  2 10  1  0
  2 11  1  0
  3  4  1  0
  3 12  1  0
  3 13  1  0
  4  5  1  0
  5  6  1  0
  5 14  1  0
  5 15  1  0
  6 16  1  0
  6 17  1  0
  6 18  1  0
M  END
>  <reaction>  (3) 
rmg_rxn_1475

>  <mol_properties>  (3) 
{"0": {"label": "a_hydrogen", "atom_type": "H0"}, "2": {"label": "acceptor", "atom_type": "Cs"}}

>  <type>  (3) 
r2h

$$$$

     RDKit          3D

 22 20  0  0  0  0  0  0  0  0999 V2000
    1.4087    0.9832   -0.3413 N   0  0  0  0  0  0  0  0  0  0  0  0
    2.6372    1.1519    0.0079 N   0  0  0  0  0  0  0  0  0  0  0  0
    3.3433    0.1858    0.1598 O   0  0  0  0  0  0  0  0  0  0  0  0
    0.9066   -0.1424   -0.0475 H   0  0  0  0  0  0  0  0  0  0  0  0
    0.8387    1.8056   -0.1783 H   0  0  0  0  0  0  0  0  0  0  0  0
    0.9153   -2.4132   -0.3588 C   0  0  0  0  0  0  0  0  0  0  0  0
    0.2902   -1.2570    0.3679 C   0  0  0  0  0  3  0  0  0  0  0  0
   -1.1399   -0.9539    0.0320 C   0  0  0  0  0  0  0  0  0  0  0  0
   -1.4999    0.2750    0.6140 O   0  0  0  0  0  0  0  0  0  0  0  0
   -2.8794    0.5691    0.5674 C   0  0  0  0  0  0  0  0  0  0  0  0
   -3.3911    0.8960   -0.8252 C   0  0  0  0  0  0  0  0  0  0  0  0
    1.9701   -2.5048   -0.1055 H   0  0  0  0  0  0  0  0  0  0  0  0
    0.4182   -3.3537   -0.0942 H   0  0  0  0  0  0  0  0  0  0  0  0
    0.8347   -2.2921   -1.4412 H   0  0  0  0  0  0  0  0  0  0  0  0
    0.4879   -1.2292    1.4390 H   0  0  0  0  0  0  0  0  0  0  0  0
   -1.7912   -1.7583    0.4162 H   0  0  0  0  0  0  0  0  0  0  0  0
   -1.2677   -0.9302   -1.0589 H   0  0  0  0  0  0  0  0  0  0  0  0
   -3.0132    1.4285    1.2257 H   0  0  0  0  0  0  0  0  0  0  0  0
   -3.4495   -0.2675    0.9944 H   0  0  0  0  0  0  0  0  0  0  0  0
   -4.4327    1.2172   -0.7696 H   0  0  0  0  0  0  0  0  0  0  0  0
   -2.8058    1.7039   -1.2673 H   0  0  0  0  0  0  0  0  0  0  0  0
   -3.3466    0.0327   -1.4905 H   0  0  0  0  0  0  0  0  0  0  0  0
  1  2  1  0
  1  4  1  0
  1  5  1  0
  2  3  2  0
  6  7  1  0
  6 12  1  0
  6 13  1  0
  6 14  1  0
  7  8  1  0
  7 15  1  0
  8  9  1  0
  8 16  1  0
  8 17  1  0
  9 10  1  0
 10 11  1  0
 10 18  1  0
 10 19  1  0
 11 20  1  0
 11 21  1  0
 11 22  1  0
M  RAD  1   7   2
M  END
>  <reaction>  (4) 
rmg_rxn_1475

>  <mol_properties>  (4) 
{"0": {"label": "*1", "atom_type": "N3s"}, "1": {"label": "*0", "atom_type": "N3d"}, "3": {"label": "*2", "atom_type": "H0"}, "6": {"label": "*3", "atom_type": "Cs"}, "7": {"label": "*4", "atom_type": "Cs"}}

>  <type>  (4) 
ts

$$$$

     RDKit          3D

 22 20  0  0  0  0  0  0  0  0999 V2000
    1.3863   -0.9032    0.1068 N   0  0  0  0  0  0  0  0  0  0  0  0
    2.5676   -1.3115    0.0427 N   0  0  0  0  0  0  0  0  0  0  0  0
    3.5569   -0.6126    0.0561 O   0  0  0  0  0  0  0  0  0  0  0  0
    0.9264    0.2199   -0.1014 H   0  0  0  0  0  0  0  0  0  0  0  0
    0.6730   -1.6185    0.0096 H   0  0  0  0  0  0  0  0  0  0  0  0
    0.8882    2.4607    0.3804 C   0  0  0  0  0  0  0  0  0  0  0  0
    0.2841    1.3183   -0.3961 C   0  0  0  0  0  3  0  0  0  0  0  0
   -1.1469    0.9890   -0.0357 C   0  0  0  0  0  0  0  0  0  0  0  0
   -1.4476   -0.3015   -0.5405 O   0  0  0  0  0  0  0  0  0  0  0  0
   -2.8148   -0.6437   -0.5297 C   0  0  0  0  0  0  0  0  0  0  0  0
   -3.3856   -0.8898    0.8659 C   0  0  0  0  0  0  0  0  0  0  0  0
    0.8108    2.2852    1.4517 H   0  0  0  0  0  0  0  0  0  0  0  0
    1.9379    2.5788    0.1237 H   0  0  0  0  0  0  0  0  0  0  0  0
    0.3777    3.4000    0.1560 H   0  0  0  0  0  0  0  0  0  0  0  0
    0.4094    1.4278   -1.4715 H   0  0  0  0  0  0  0  0  0  0  0  0
   -1.8453    1.7251   -0.4716 H   0  0  0  0  0  0  0  0  0  0  0  0
   -1.2721    1.0123    1.0569 H   0  0  0  0  0  0  0  0  0  0  0  0
   -2.8741   -1.5618   -1.1209 H   0  0  0  0  0  0  0  0  0  0  0  0
   -3.4011    0.1378   -1.0370 H   0  0  0  0  0  0  0  0  0  0  0  0
   -2.7725   -1.6135    1.3977 H   0  0  0  0  0  0  0  0  0  0  0  0
   -3.4200    0.0311    1.4429 H   0  0  0  0  0  0  0  0  0  0  0  0
   -4.3957   -1.2801    0.7792 H   0  0  0  0  0  0  0  0  0  0  0  0
  1  2  1  0
  1  4  1  0
  1  5  1  0
  2  3  2  0
  6  7  1  0
  6 12  1  0
  6 13  1  0
  6 14  1  0
  7  8  1  0
  7 15  1  0
  8  9  1  0
  8 16  1  0
  8 17  1  0
  9 10  1  0
 10 11  1  0
 10 18  1  0
 10 19  1  0
 11 20  1  0
 11 21  1  0
 11 22  1  0
M  RAD  1   7   2
M  END
>  <reaction>  (5) 
rmg_rxn_1475

>  <mol_properties>  (5) 
{"0": {"label": "*1", "atom_type": "N3s"}, "1": {"label": "*0", "atom_type": "N3d"}, "3": {"label": "*2", "atom_type": "H0"}, "6": {"label": "*3", "atom_type": "Cs"}, "7": {"label": "*4", "atom_type": "Cs"}}

>  <type>  (5) 
unop_1

>  <geom_source>  (5) 
crest_best.xyz

$$$$

     RDKit          3D

 22 20  0  0  0  0  0  0  0  0999 V2000
   -0.4743   -1.9934    2.0782 N   0  0  0  0  0  0  0  0  0  0  0  0
   -0.4743   -3.1962    1.5335 N   0  0  0  0  0  0  0  0  0  0  0  0
   -0.4743   -3.1962    0.3290 O   0  0  0  0  0  0  0  0  0  0  0  0
   -0.4743   -1.0108    1.3630 H   0  0  0  0  0  0  0  0  0  0  0  0
   -0.4743   -1.9471    3.0803 H   0  0  0  0  0  0  0  0  0  0  0  0
   -1.7126    0.8946    0.8605 C   0  0  0  0  0  0  0  0  0  0  0  0
   -0.4743    0.0502    0.5908 C   0  0  0  0  0  3  0  0  0  0  0  0
    0.1631    0.3400   -0.7527 C   0  0  0  0  0  0  0  0  0  0  0  0
    0.6134    1.6710   -0.7771 O   0  0  0  0  0  0  0  0  0  0  0  0
    1.1898    2.0407   -2.0038 C   0  0  0  0  0  0  0  0  0  0  0  0
    1.6361    3.4821   -1.9219 C   0  0  0  0  0  0  0  0  0  0  0  0
   -2.4771    0.7193    0.0994 H   0  0  0  0  0  0  0  0  0  0  0  0
   -2.1469    0.6555    1.8323 H   0  0  0  0  0  0  0  0  0  0  0  0
   -1.4659    1.9562    0.8491 H   0  0  0  0  0  0  0  0  0  0  0  0
    0.2715    0.2175    1.3722 H   0  0  0  0  0  0  0  0  0  0  0  0
   -0.5675    0.1766   -1.5608 H   0  0  0  0  0  0  0  0  0  0  0  0
    1.0057   -0.3443   -0.9305 H   0  0  0  0  0  0  0  0  0  0  0  0
    0.4591    1.9100   -2.8156 H   0  0  0  0  0  0  0  0  0  0  0  0
    2.0445    1.3859   -2.2292 H   0  0  0  0  0  0  0  0  0  0  0  0
    2.3708    3.6100   -1.1262 H   0  0  0  0  0  0  0  0  0  0  0  0
    2.0884    3.7921   -2.8652 H   0  0  0  0  0  0  0  0  0  0  0  0
    0.7868    4.1339   -1.7139 H   0  0  0  0  0  0  0  0  0  0  0  0
  1  2  1  0
  1  4  1  0
  1  5  1  0
  2  3  2  0
  6  7  1  0
  6 12  1  0
  6 13  1  0
  6 14  1  0
  7  8  1  0
  7 15  1  0
  8  9  1  0
  8 16  1  0
  8 17  1  0
  9 10  1  0
 10 11  1  0
 10 18  1  0
 10 19  1  0
 11 20  1  0
 11 21  1  0
 11 22  1  0
M  RAD  1   7   2
M  END
>  <reaction>  (6) 
rmg_rxn_1475

>  <mol_properties>  (6) 
{"0": {"label": "*1", "atom_type": "N3s"}, "1": {"label": "*0", "atom_type": "N3d"}, "3": {"label": "*2", "atom_type": "H0"}, "6": {"label": "*3", "atom_type": "Cs"}, "7": {"label": "*4", "atom_type": "Cs"}}

>  <type>  (6) 
unop_2

>  <geom_source>  (6) 
Heuristics

$$$$

     RDKit          3D

 22 20  0  0  0  0  0  0  0  0999 V2000
    1.3862   -0.9033    0.1058 N   0  0  0  0  0  0  0  0  0  0  0  0
    2.5675   -1.3115    0.0424 N   0  0  0  0  0  0  0  0  0  0  0  0
    3.5568   -0.6126    0.0570 O   0  0  0  0  0  0  0  0  0  0  0  0
    0.9263    0.2200   -0.1019 H   0  0  0  0  0  0  0  0  0  0  0  0
    0.6730   -1.6184    0.0077 H   0  0  0  0  0  0  0  0  0  0  0  0
    0.8880    2.4606    0.3806 C   0  0  0  0  0  0  0  0  0  0  0  0
    0.2840    1.3185   -0.3963 C   0  0  0  0  0  3  0  0  0  0  0  0
   -1.1470    0.9891   -0.0359 C   0  0  0  0  0  0  0  0  0  0  0  0
   -1.4476   -0.3014   -0.5407 O   0  0  0  0  0  0  0  0  0  0  0  0
   -2.8147   -0.6438   -0.5294 C   0  0  0  0  0  0  0  0  0  0  0  0
   -3.3849   -0.8901    0.8664 C   0  0  0  0  0  0  0  0  0  0  0  0
    0.3772    3.4000    0.1566 H   0  0  0  0  0  0  0  0  0  0  0  0
    0.8108    2.2848    1.4519 H   0  0  0  0  0  0  0  0  0  0  0  0
    1.9376    2.5789    0.1238 H   0  0  0  0  0  0  0  0  0  0  0  0
    0.4091    1.4284   -1.4717 H   0  0  0  0  0  0  0  0  0  0  0  0
   -1.8455    1.7252   -0.4716 H   0  0  0  0  0  0  0  0  0  0  0  0
   -1.2720    1.0122    1.0568 H   0  0  0  0  0  0  0  0  0  0  0  0
   -2.8741   -1.5619   -1.1205 H   0  0  0  0  0  0  0  0  0  0  0  0
   -3.4014    0.1375   -1.0365 H   0  0  0  0  0  0  0  0  0  0  0  0
   -4.3949   -1.2810    0.7801 H   0  0  0  0  0  0  0  0  0  0  0  0
   -2.7714   -1.6135    1.3981 H   0  0  0  0  0  0  0  0  0  0  0  0
   -3.4196    0.0309    1.4432 H   0  0  0  0  0  0  0  0  0  0  0  0
  1  2  1  0
  1  4  1  0
  1  5  1  0
  2  3  2  0
  6  7  1  0
  6 12  1  0
  6 13  1  0
  6 14  1  0
  7  8  1  0
  7 15  1  0
  8  9  1  0
  8 16  1  0
  8 17  1  0
  9 10  1  0
 10 11  1  0
 10 18  1  0
 10 19  1  0
 11 20  1  0
 11 21  1  0
 11 22  1  0
M  RAD  1   7   2
M  END
>  <reaction>  (7) 
rmg_rxn_1475

>  <mol_properties>  (7) 
{"0": {"label": "*1", "atom_type": "N3s"}, "1": {"label": "*0", "atom_type": "N3d"}, "3": {"label": "*2", "atom_type": "H0"}, "6": {"label": "*3", "atom_type": "Cs"}, "7": {"label": "*4", "atom_type": "Cs"}}

>  <type>  (7) 
unop_3

>  <geom_source>  (7) 
Heuristics

$$$$

     RDKit          3D

 22 20  0  0  0  0  0  0  0  0999 V2000
    1.3860    0.9035   -0.1041 N   0  0  0  0  0  0  0  0  0  0  0  0
    2.5676    1.3113   -0.0424 N   0  0  0  0  0  0  0  0  0  0  0  0
    3.5566    0.6117   -0.0589 O   0  0  0  0  0  0  0  0  0  0  0  0
    0.9260   -0.2197    0.1030 H   0  0  0  0  0  0  0  0  0  0  0  0
    0.6733    1.6190   -0.0047 H   0  0  0  0  0  0  0  0  0  0  0  0
    0.8880   -2.4600   -0.3805 C   0  0  0  0  0  0  0  0  0  0  0  0
    0.2838   -1.3184    0.3970 C   0  0  0  0  0  3  0  0  0  0  0  0
   -1.1472   -0.9891    0.0370 C   0  0  0  0  0  0  0  0  0  0  0  0
   -1.4471    0.3023    0.5400 O   0  0  0  0  0  0  0  0  0  0  0  0
   -2.8141    0.6452    0.5289 C   0  0  0  0  0  0  0  0  0  0  0  0
   -3.3854    0.8880   -0.8671 C   0  0  0  0  0  0  0  0  0  0  0  0
    0.8105   -2.2838   -1.4516 H   0  0  0  0  0  0  0  0  0  0  0  0
    1.9378   -2.5779   -0.1240 H   0  0  0  0  0  0  0  0  0  0  0  0
    0.3778   -3.3997   -0.1566 H   0  0  0  0  0  0  0  0  0  0  0  0
    0.4095   -1.4284    1.4723 H   0  0  0  0  0  0  0  0  0  0  0  0
   -1.8457   -1.7243    0.4744 H   0  0  0  0  0  0  0  0  0  0  0  0
   -1.2730   -1.0138   -1.0555 H   0  0  0  0  0  0  0  0  0  0  0  0
   -2.8726    1.5648    1.1176 H   0  0  0  0  0  0  0  0  0  0  0  0
   -3.4006   -0.1346    1.0386 H   0  0  0  0  0  0  0  0  0  0  0  0
   -4.3949    1.2797   -0.7810 H   0  0  0  0  0  0  0  0  0  0  0  0
   -2.7717    1.6094   -1.4013 H   0  0  0  0  0  0  0  0  0  0  0  0
   -3.4211   -0.0346   -1.4413 H   0  0  0  0  0  0  0  0  0  0  0  0
  1  2  1  0
  1  4  1  0
  1  5  1  0
  2  3  2  0
  6  7  1  0
  6 12  1  0
  6 13  1  0
  6 14  1  0
  7  8  1  0
  7 15  1  0
  8  9  1  0
  8 16  1  0
  8 17  1  0
  9 10  1  0
 10 11  1  0
 10 18  1  0
 10 19  1  0
 11 20  1  0
 11 21  1  0
 11 22  1  0
M  RAD  1   7   2
M  END
>  <reaction>  (8) 
rmg_rxn_1475

>  <mol_properties>  (8) 
{"0": {"label": "*1", "atom_type": "N3s"}, "1": {"label": "*0", "atom_type": "N3d"}, "3": {"label": "*2", "atom_type": "H0"}, "6": {"label": "*3", "atom_type": "Cs"}, "7": {"label": "*4", "atom_type": "Cs"}}

>  <type>  (8) 
unop_4

>  <geom_source>  (8) 
Heuristics

$$$$

     RDKit          3D

 22 20  0  0  0  0  0  0  0  0999 V2000
   -0.5512   -2.1665    1.7656 N   0  0  0  0  0  0  0  0  0  0  0  0
   -0.5512   -3.3693    1.2209 N   0  0  0  0  0  0  0  0  0  0  0  0
   -0.5512   -3.3693    0.0164 O   0  0  0  0  0  0  0  0  0  0  0  0
   -0.5512   -1.1839    1.0504 H   0  0  0  0  0  0  0  0  0  0  0  0
   -0.5512   -2.1202    2.7677 H   0  0  0  0  0  0  0  0  0  0  0  0
   -1.2662   -0.4279   -1.0314 C   0  0  0  0  0  0  0  0  0  0  0  0
   -0.5512   -0.1229    0.2782 C   0  0  0  0  0  3  0  0  0  0  0  0
    0.7015    0.7088    0.0931 C   0  0  0  0  0  0  0  0  0  0  0  0
    0.3536    1.9631   -0.4367 O   0  0  0  0  0  0  0  0  0  0  0  0
    1.4619    2.7926   -0.6757 C   0  0  0  0  0  0  0  0  0  0  0  0
    0.9780    4.1074   -1.2421 C   0  0  0  0  0  0  0  0  0  0  0  0
   -0.6135   -0.9801   -1.7122 H   0  0  0  0  0  0  0  0  0  0  0  0
   -2.1586   -1.0317   -0.8602 H   0  0  0  0  0  0  0  0  0  0  0  0
   -1.5681    0.4930   -1.5301 H   0  0  0  0  0  0  0  0  0  0  0  0
   -1.2230    0.4078    0.9577 H   0  0  0  0  0  0  0  0  0  0  0  0
    1.3991    0.1951   -0.5872 H   0  0  0  0  0  0  0  0  0  0  0  0
    1.2188    0.8383    1.0551 H   0  0  0  0  0  0  0  0  0  0  0  0
    2.1523    2.3024   -1.3779 H   0  0  0  0  0  0  0  0  0  0  0  0
    2.0157    2.9578    0.2604 H   0  0  0  0  0  0  0  0  0  0  0  0
    0.3042    4.6007   -0.5406 H   0  0  0  0  0  0  0  0  0  0  0  0
    1.8232    4.7697   -1.4356 H   0  0  0  0  0  0  0  0  0  0  0  0
    0.4423    3.9462   -2.1782 H   0  0  0  0  0  0  0  0  0  0  0  0
  1  2  1  0
  1  4  1  0
  1  5  1  0
  2  3  2  0
  6  7  1  0
  6 12  1  0
  6 13  1  0
  6 14  1  0
  7  8  1  0
  7 15  1  0
  8  9  1  0
  8 16  1  0
  8 17  1  0
  9 10  1  0
 10 11  1  0
 10 18  1  0
 10 19  1  0
 11 20  1  0
 11 21  1  0
 11 22  1  0
M  RAD  1   7   2
M  END
>  <reaction>  (9) 
rmg_rxn_1475

>  <mol_properties>  (9) 
{"0": {"label": "*1", "atom_type": "N3s"}, "1": {"label": "*0", "atom_type": "N3d"}, "3": {"label": "*2", "atom_type": "H0"}, "6": {"label": "*3", "atom_type": "Cs"}, "7": {"label": "*4", "atom_type": "Cs"}}

>  <type>  (9) 
unop_5

>  <geom_source>  (9) 
Heuristics

$$$$

     RDKit          3D

 22 20  0  0  0  0  0  0  0  0999 V2000
    1.3866    0.9040   -0.1057 N   0  0  0  0  0  0  0  0  0  0  0  0
    2.5683    1.3112   -0.0425 N   0  0  0  0  0  0  0  0  0  0  0  0
    3.5570    0.6114   -0.0572 O   0  0  0  0  0  0  0  0  0  0  0  0
    0.9262   -0.2191    0.1020 H   0  0  0  0  0  0  0  0  0  0  0  0
    0.6739    1.6197   -0.0076 H   0  0  0  0  0  0  0  0  0  0  0  0
    0.8885   -2.4596   -0.3804 C   0  0  0  0  0  0  0  0  0  0  0  0
    0.2841   -1.3177    0.3964 C   0  0  0  0  0  3  0  0  0  0  0  0
   -1.1469   -0.9888    0.0359 C   0  0  0  0  0  0  0  0  0  0  0  0
   -1.4481    0.3016    0.5406 O   0  0  0  0  0  0  0  0  0  0  0  0
   -2.8153    0.6435    0.5293 C   0  0  0  0  0  0  0  0  0  0  0  0
   -3.3859    0.8889   -0.8665 C   0  0  0  0  0  0  0  0  0  0  0  0
    1.9383   -2.5774   -0.1237 H   0  0  0  0  0  0  0  0  0  0  0  0
    0.3783   -3.3992   -0.1561 H   0  0  0  0  0  0  0  0  0  0  0  0
    0.8111   -2.2840   -1.4517 H   0  0  0  0  0  0  0  0  0  0  0  0
    0.4093   -1.4274    1.4718 H   0  0  0  0  0  0  0  0  0  0  0  0
   -1.8452   -1.7251    0.4718 H   0  0  0  0  0  0  0  0  0  0  0  0
   -1.2721   -1.0121   -1.0567 H   0  0  0  0  0  0  0  0  0  0  0  0
   -2.8750    1.5618    1.1201 H   0  0  0  0  0  0  0  0  0  0  0  0
   -3.4015   -0.1379    1.0369 H   0  0  0  0  0  0  0  0  0  0  0  0
   -2.7728    1.6123   -1.3986 H   0  0  0  0  0  0  0  0  0  0  0  0
   -3.4202   -0.0323   -1.4429 H   0  0  0  0  0  0  0  0  0  0  0  0
   -4.3960    1.2793   -0.7801 H   0  0  0  0  0  0  0  0  0  0  0  0
  1  2  1  0
  1  4  1  0
  1  5  1  0
  2  3  2  0
  6  7  1  0
  6 12  1  0
  6 13  1  0
  6 14  1  0
  7  8  1  0
  7 15  1  0
  8  9  1  0
  8 16  1  0
  8 17  1  0
  9 10  1  0
 10 11  1  0
 10 18  1  0
 10 19  1  0
 11 20  1  0
 11 21  1  0
 11 22  1  0
M  RAD  1   7   2
M  END
>  <reaction>  (10) 
rmg_rxn_1475

>  <mol_properties>  (10) 
{"0": {"label": "*1", "atom_type": "N3s"}, "1": {"label": "*0", "atom_type": "N3d"}, "3": {"label": "*2", "atom_type": "H0"}, "6": {"label": "*3", "atom_type": "Cs"}, "7": {"label": "*4", "atom_type": "Cs"}}

>  <type>  (10) 
unop_6

>  <geom_source>  (10) 
Heuristics

$$$$

     RDKit          3D

 22 20  0  0  0  0  0  0  0  0999 V2000
   -0.1186   -1.7877    2.3574 N   0  0  0  0  0  0  0  0  0  0  0  0
   -0.1186   -2.9906    1.8127 N   0  0  0  0  0  0  0  0  0  0  0  0
   -0.1186   -2.9906    0.6082 O   0  0  0  0  0  0  0  0  0  0  0  0
   -0.1186   -0.8051    1.6422 H   0  0  0  0  0  0  0  0  0  0  0  0
   -0.1186   -1.7414    3.3595 H   0  0  0  0  0  0  0  0  0  0  0  0
   -0.8335    1.4083    1.5628 C   0  0  0  0  0  0  0  0  0  0  0  0
   -0.1186    0.2559    0.8700 C   0  0  0  0  0  3  0  0  0  0  0  0
   -0.2548    0.2913   -0.6385 C   0  0  0  0  0  0  0  0  0  0  0  0
    0.3576    1.4550   -1.1342 O   0  0  0  0  0  0  0  0  0  0  0  0
    0.2487    1.5900   -2.5283 C   0  0  0  0  0  0  0  0  0  0  0  0
    0.9357    2.8673   -2.9529 C   0  0  0  0  0  0  0  0  0  0  0  0
   -1.9029    1.3949    1.3379 H   0  0  0  0  0  0  0  0  0  0  0  0
   -0.7186    1.3473    2.6460 H   0  0  0  0  0  0  0  0  0  0  0  0
   -0.4334    2.3663    1.2309 H   0  0  0  0  0  0  0  0  0  0  0  0
    0.9448    0.2676    1.1229 H   0  0  0  0  0  0  0  0  0  0  0  0
   -1.3191    0.2778   -0.9222 H   0  0  0  0  0  0  0  0  0  0  0  0
    0.2137   -0.5983   -1.0846 H   0  0  0  0  0  0  0  0  0  0  0  0
   -0.8114    1.6079   -2.8213 H   0  0  0  0  0  0  0  0  0  0  0  0
    0.7075    0.7229   -3.0262 H   0  0  0  0  0  0  0  0  0  0  0  0
    1.9900    2.8447   -2.6750 H   0  0  0  0  0  0  0  0  0  0  0  0
    0.8643    2.9934   -4.0343 H   0  0  0  0  0  0  0  0  0  0  0  0
    0.4715    3.7290   -2.4718 H   0  0  0  0  0  0  0  0  0  0  0  0
  1  2  1  0
  1  4  1  0
  1  5  1  0
  2  3  2  0
  6  7  1  0
  6 12  1  0
  6 13  1  0
  6 14  1  0
  7  8  1  0
  7 15  1  0
  8  9  1  0
  8 16  1  0
  8 17  1  0
  9 10  1  0
 10 11  1  0
 10 18  1  0
 10 19  1  0
 11 20  1  0
 11 21  1  0
 11 22  1  0
M  RAD  1   7   2
M  END
>  <reaction>  (11) 
rmg_rxn_1475

>  <mol_properties>  (11) 
{"0": {"label": "*1", "atom_type": "N3s"}, "1": {"label": "*0", "atom_type": "N3d"}, "3": {"label": "*2", "atom_type": "H0"}, "6": {"label": "*3", "atom_type": "Cs"}, "7": {"label": "*4", "atom_type": "Cs"}}

>  <type>  (11) 
unop_7

>  <geom_source>  (11) 
Heuristics

$$$$

     RDKit          3D

 22 20  0  0  0  0  0  0  0  0999 V2000
   -0.4254   -2.1625    0.5987 N   0  0  0  0  0  0  0  0  0  0  0  0
   -0.4254   -3.3653    0.0539 N   0  0  0  0  0  0  0  0  0  0  0  0
   -0.4254   -3.3653   -1.1506 O   0  0  0  0  0  0  0  0  0  0  0  0
   -0.4254   -1.1799   -0.1166 H   0  0  0  0  0  0  0  0  0  0  0  0
   -0.4254   -2.1161    1.6008 H   0  0  0  0  0  0  0  0  0  0  0  0
    0.8129   -0.1159   -1.7752 C   0  0  0  0  0  0  0  0  0  0  0  0
   -0.4254   -0.1189   -0.8888 C   0  0  0  0  0  3  0  0  0  0  0  0
   -0.2073    0.5727    0.4414 C   0  0  0  0  0  0  0  0  0  0  0  0
    0.0822    1.9298    0.2187 O   0  0  0  0  0  0  0  0  0  0  0  0
    0.3351    2.6457    1.4007 C   0  0  0  0  0  0  0  0  0  0  0  0
    0.6342    4.0845    1.0487 C   0  0  0  0  0  0  0  0  0  0  0  0
    1.6456   -0.6247   -1.2830 H   0  0  0  0  0  0  0  0  0  0  0  0
    0.6206   -0.6261   -2.7202 H   0  0  0  0  0  0  0  0  0  0  0  0
    1.1271    0.9041   -1.9962 H   0  0  0  0  0  0  0  0  0  0  0  0
   -1.2561    0.3714   -1.4029 H   0  0  0  0  0  0  0  0  0  0  0  0
    0.6249    0.0960    0.9832 H   0  0  0  0  0  0  0  0  0  0  0  0
   -1.1040    0.4789    1.0715 H   0  0  0  0  0  0  0  0  0  0  0  0
    1.1844    2.1964    1.9364 H   0  0  0  0  0  0  0  0  0  0  0  0
   -0.5368    2.5867    2.0690 H   0  0  0  0  0  0  0  0  0  0  0  0
   -0.2127    4.5349    0.5297 H   0  0  0  0  0  0  0  0  0  0  0  0
    0.8337    4.6614    1.9531 H   0  0  0  0  0  0  0  0  0  0  0  0
    1.5078    4.1453    0.3987 H   0  0  0  0  0  0  0  0  0  0  0  0
  1  2  1  0
  1  4  1  0
  1  5  1  0
  2  3  2  0
  6  7  1  0
  6 12  1  0
  6 13  1  0
  6 14  1  0
  7  8  1  0
  7 15  1  0
  8  9  1  0
  8 16  1  0
  8 17  1  0
  9 10  1  0
 10 11  1  0
 10 18  1  0
 10 19  1  0
 11 20  1  0
 11 21  1  0
 11 22  1  0
M  RAD  1   7   2
M  END
>  <reaction>  (12) 
rmg_rxn_1475

>  <mol_properties>  (12) 
{"0": {"label": "*1", "atom_type": "N3s"}, "1": {"label": "*0", "atom_type": "N3d"}, "3": {"label": "*2", "atom_type": "H0"}, "6": {"label": "*3", "atom_type": "Cs"}, "7": {"label": "*4", "atom_type": "Cs"}}

>  <type>  (12) 
unop_8

>  <geom_source>  (12) 
Heuristics

$$$$

     RDKit          3D

 22 20  0  0  0  0  0  0  0  0999 V2000
    1.3862   -0.9030    0.1040 N   0  0  0  0  0  0  0  0  0  0  0  0
    2.5676   -1.3112    0.0424 N   0  0  0  0  0  0  0  0  0  0  0  0
    3.5569   -0.6124    0.0589 O   0  0  0  0  0  0  0  0  0  0  0  0
    0.9263    0.2203   -0.1032 H   0  0  0  0  0  0  0  0  0  0  0  0
    0.6730   -1.6181    0.0048 H   0  0  0  0  0  0  0  0  0  0  0  0
    0.8874    2.4608    0.3803 C   0  0  0  0  0  0  0  0  0  0  0  0
    0.2836    1.3188   -0.3970 C   0  0  0  0  0  3  0  0  0  0  0  0
   -1.1473    0.9889   -0.0365 C   0  0  0  0  0  0  0  0  0  0  0  0
   -1.4471   -0.3022   -0.5403 O   0  0  0  0  0  0  0  0  0  0  0  0
   -2.8140   -0.6454   -0.5290 C   0  0  0  0  0  0  0  0  0  0  0  0
   -3.3850   -0.8887    0.8671 C   0  0  0  0  0  0  0  0  0  0  0  0
    0.3762    3.4000    0.1570 H   0  0  0  0  0  0  0  0  0  0  0  0
    0.8106    2.2843    1.4515 H   0  0  0  0  0  0  0  0  0  0  0  0
    1.9369    2.5797    0.1232 H   0  0  0  0  0  0  0  0  0  0  0  0
    0.4086    1.4291   -1.4723 H   0  0  0  0  0  0  0  0  0  0  0  0
   -1.8462    1.7242   -0.4730 H   0  0  0  0  0  0  0  0  0  0  0  0
   -1.2725    1.0128    1.0561 H   0  0  0  0  0  0  0  0  0  0  0  0
   -2.8725   -1.5648   -1.1180 H   0  0  0  0  0  0  0  0  0  0  0  0
   -3.4008    0.1345   -1.0382 H   0  0  0  0  0  0  0  0  0  0  0  0
   -2.7709   -1.6099    1.4011 H   0  0  0  0  0  0  0  0  0  0  0  0
   -3.4213    0.0337    1.4414 H   0  0  0  0  0  0  0  0  0  0  0  0
   -4.3944   -1.2810    0.7810 H   0  0  0  0  0  0  0  0  0  0  0  0
  1  2  1  0
  1  4  1  0
  1  5  1  0
  2  3  2  0
  6  7  1  0
  6 12  1  0
  6 13  1  0
  6 14  1  0
  7  8  1  0
  7 15  1  0
  8  9  1  0
  8 16  1  0
  8 17  1  0
  9 10  1  0
 10 11  1  0
 10 18  1  0
 10 19  1  0
 11 20  1  0
 11 21  1  0
 11 22  1  0
M  RAD  1   7   2
M  END
>  <reaction>  (13) 
rmg_rxn_1475

>  <mol_properties>  (13) 
{"0": {"label": "*1", "atom_type": "N3s"}, "1": {"label": "*0", "atom_type": "N3d"}, "3": {"label": "*2", "atom_type": "H0"}, "6": {"label": "*3", "atom_type": "Cs"}, "7": {"label": "*4", "atom_type": "Cs"}}

>  <type>  (13) 
unop_9

>  <geom_source>  (13) 
Heuristics

$$$$

     RDKit          3D

 22 20  0  0  0  0  0  0  0  0999 V2000
    0.7483   -1.6671    2.1679 N   0  0  0  0  0  0  0  0  0  0  0  0
    0.7483   -2.8699    1.6231 N   0  0  0  0  0  0  0  0  0  0  0  0
    0.7483   -2.8699    0.4186 O   0  0  0  0  0  0  0  0  0  0  0  0
    0.7483   -0.6845    1.4527 H   0  0  0  0  0  0  0  0  0  0  0  0
    0.7483   -1.6207    3.1700 H   0  0  0  0  0  0  0  0  0  0  0  0
    0.7483    1.6417    1.5282 C   0  0  0  0  0  0  0  0  0  0  0  0
    0.7483    0.3765    0.6804 C   0  0  0  0  0  3  0  0  0  0  0  0
   -0.4477    0.2794   -0.2444 C   0  0  0  0  0  0  0  0  0  0  0  0
   -0.4108    1.3395   -1.1662 O   0  0  0  0  0  0  0  0  0  0  0  0
   -1.5062    1.3500   -2.0458 C   0  0  0  0  0  0  0  0  0  0  0  0
   -1.3683    2.5237   -2.9876 C   0  0  0  0  0  0  0  0  0  0  0  0
   -0.1455    1.6906    2.1551 H   0  0  0  0  0  0  0  0  0  0  0  0
    1.6194    1.6747    2.1842 H   0  0  0  0  0  0  0  0  0  0  0  0
    0.7634    2.5297    0.8964 H   0  0  0  0  0  0  0  0  0  0  0  0
    1.6585    0.3291    0.0771 H   0  0  0  0  0  0  0  0  0  0  0  0
   -1.3810    0.3223    0.3390 H   0  0  0  0  0  0  0  0  0  0  0  0
   -0.4397   -0.6823   -0.7782 H   0  0  0  0  0  0  0  0  0  0  0  0
   -2.4440    1.4227   -1.4755 H   0  0  0  0  0  0  0  0  0  0  0  0
   -1.5431    0.4065   -2.6103 H   0  0  0  0  0  0  0  0  0  0  0  0
   -0.4455    2.4453   -3.5634 H   0  0  0  0  0  0  0  0  0  0  0  0
   -2.2094    2.5521   -3.6821 H   0  0  0  0  0  0  0  0  0  0  0  0
   -1.3473    3.4607   -2.4299 H   0  0  0  0  0  0  0  0  0  0  0  0
  1  2  1  0
  1  4  1  0
  1  5  1  0
  2  3  2  0
  6  7  1  0
  6 12  1  0
  6 13  1  0
  6 14  1  0
  7  8  1  0
  7 15  1  0
  8  9  1  0
  8 16  1  0
  8 17  1  0
  9 10  1  0
 10 11  1  0
 10 18  1  0
 10 19  1  0
 11 20  1  0
 11 21  1  0
 11 22  1  0
M  RAD  1   7   2
M  END
>  <reaction>  (14) 
rmg_rxn_1475

>  <mol_properties>  (14) 
{"0": {"label": "*1", "atom_type": "N3s"}, "1": {"label": "*0", "atom_type": "N3d"}, "3": {"label": "*2", "atom_type": "H0"}, "6": {"label": "*3", "atom_type": "Cs"}, "7": {"label": "*4", "atom_type": "Cs"}}

>  <type>  (14) 
unop_10

>  <geom_source>  (14) 
Heuristics

$$$$

     RDKit          3D

 22 20  0  0  0  0  0  0  0  0999 V2000
    1.3867    0.9029   -0.1054 N   0  0  0  0  0  0  0  0  0  0  0  0
    2.5683    1.3107   -0.0432 N   0  0  0  0  0  0  0  0  0  0  0  0
    3.5574    0.6115   -0.0582 O   0  0  0  0  0  0  0  0  0  0  0  0
    0.9263   -0.2201    0.1025 H   0  0  0  0  0  0  0  0  0  0  0  0
    0.6737    1.6184   -0.0075 H   0  0  0  0  0  0  0  0  0  0  0  0
    0.8869   -2.4607   -0.3795 C   0  0  0  0  0  0  0  0  0  0  0  0
    0.2835   -1.3182    0.3973 C   0  0  0  0  0  3  0  0  0  0  0  0
   -1.1473   -0.9883    0.0371 C   0  0  0  0  0  0  0  0  0  0  0  0
   -1.4464    0.3038    0.5389 O   0  0  0  0  0  0  0  0  0  0  0  0
   -2.8134    0.6468    0.5293 C   0  0  0  0  0  0  0  0  0  0  0  0
   -3.3874    0.8859   -0.8663 C   0  0  0  0  0  0  0  0  0  0  0  0
    1.9365   -2.5796   -0.1226 H   0  0  0  0  0  0  0  0  0  0  0  0
    0.3755   -3.3996   -0.1554 H   0  0  0  0  0  0  0  0  0  0  0  0
    0.8098   -2.2849   -1.4508 H   0  0  0  0  0  0  0  0  0  0  0  0
    0.4091   -1.4277    1.4727 H   0  0  0  0  0  0  0  0  0  0  0  0
   -1.8462   -1.7226    0.4752 H   0  0  0  0  0  0  0  0  0  0  0  0
   -1.2732   -1.0139   -1.0555 H   0  0  0  0  0  0  0  0  0  0  0  0
   -2.8708    1.5679    1.1158 H   0  0  0  0  0  0  0  0  0  0  0  0
   -3.3990   -0.1316    1.0421 H   0  0  0  0  0  0  0  0  0  0  0  0
   -4.3965    1.2786   -0.7793 H   0  0  0  0  0  0  0  0  0  0  0  0
   -2.7744    1.6054   -1.4038 H   0  0  0  0  0  0  0  0  0  0  0  0
   -3.4250   -0.0383   -1.4377 H   0  0  0  0  0  0  0  0  0  0  0  0
  1  2  1  0
  1  4  1  0
  1  5  1  0
  2  3  2  0
  6  7  1  0
  6 12  1  0
  6 13  1  0
  6 14  1  0
  7  8  1  0
  7 15  1  0
  8  9  1  0
  8 16  1  0
  8 17  1  0
  9 10  1  0
 10 11  1  0
 10 18  1  0
 10 19  1  0
 11 20  1  0
 11 21  1  0
 11 22  1  0
M  RAD  1   7   2
M  END
>  <reaction>  (15) 
rmg_rxn_1475

>  <mol_properties>  (15) 
{"0": {"label": "*1", "atom_type": "N3s"}, "1": {"label": "*0", "atom_type": "N3d"}, "3": {"label": "*2", "atom_type": "H0"}, "6": {"label": "*3", "atom_type": "Cs"}, "7": {"label": "*4", "atom_type": "Cs"}}

>  <type>  (15) 
unop_11

>  <geom_source>  (15) 
Heuristics

$$$$

     RDKit          3D

 22 20  0  0  0  0  0  0  0  0999 V2000
    0.1552   -2.1095    0.4145 N   0  0  0  0  0  0  0  0  0  0  0  0
    0.1552   -3.3123   -0.1302 N   0  0  0  0  0  0  0  0  0  0  0  0
    0.1552   -3.3123   -1.3347 O   0  0  0  0  0  0  0  0  0  0  0  0
    0.1552   -1.1268   -0.3007 H   0  0  0  0  0  0  0  0  0  0  0  0
    0.1552   -2.0631    1.4166 H   0  0  0  0  0  0  0  0  0  0  0  0
    1.5851    0.3578   -1.3813 C   0  0  0  0  0  0  0  0  0  0  0  0
    0.1552   -0.0659   -1.0729 C   0  0  0  0  0  3  0  0  0  0  0  0
   -0.3355    0.4287    0.2724 C   0  0  0  0  0  0  0  0  0  0  0  0
   -0.3606    1.8338    0.2711 O   0  0  0  0  0  0  0  0  0  0  0  0
   -0.7714    2.3838    1.4968 C   0  0  0  0  0  0  0  0  0  0  0  0
   -0.7616    3.8909    1.3865 C   0  0  0  0  0  0  0  0  0  0  0  0
    2.2766   -0.0269   -0.6276 H   0  0  0  0  0  0  0  0  0  0  0  0
    1.9056   -0.0199   -2.3533 H   0  0  0  0  0  0  0  0  0  0  0  0
    1.6720    1.4443   -1.3921 H   0  0  0  0  0  0  0  0  0  0  0  0
   -0.5214    0.3053   -1.8471 H   0  0  0  0  0  0  0  0  0  0  0  0
    0.3284    0.0664    1.0733 H   0  0  0  0  0  0  0  0  0  0  0  0
   -1.3418    0.0357    0.4792 H   0  0  0  0  0  0  0  0  0  0  0  0
   -0.0974    2.0527    2.3007 H   0  0  0  0  0  0  0  0  0  0  0  0
   -1.7794    2.0235    1.7507 H   0  0  0  0  0  0  0  0  0  0  0  0
   -1.4399    4.2208    0.5990 H   0  0  0  0  0  0  0  0  0  0  0  0
   -1.0784    4.3410    2.3286 H   0  0  0  0  0  0  0  0  0  0  0  0
    0.2406    4.2502    1.1502 H   0  0  0  0  0  0  0  0  0  0  0  0
  1  2  1  0
  1  4  1  0
  1  5  1  0
  2  3  2  0
  6  7  1  0
  6 12  1  0
  6 13  1  0
  6 14  1  0
  7  8  1  0
  7 15  1  0
  8  9  1  0
  8 16  1  0
  8 17  1  0
  9 10  1  0
 10 11  1  0
 10 18  1  0
 10 19  1  0
 11 20  1  0
 11 21  1  0
 11 22  1  0
M  RAD  1   7   2
M  END
>  <reaction>  (16) 
rmg_rxn_1475

>  <mol_properties>  (16) 
{"0": {"label": "*1", "atom_type": "N3s"}, "1": {"label": "*0", "atom_type": "N3d"}, "3": {"label": "*2", "atom_type": "H0"}, "6": {"label": "*3", "atom_type": "Cs"}, "7": {"label": "*4", "atom_type": "Cs"}}

>  <type>  (16) 
unop_12

>  <geom_source>  (16) 
Heuristics

$$$$

     RDKit          3D

 22 20  0  0  0  0  0  0  0  0999 V2000
    1.3869   -0.9031    0.1054 N   0  0  0  0  0  0  0  0  0  0  0  0
    2.5684   -1.3109    0.0431 N   0  0  0  0  0  0  0  0  0  0  0  0
    3.5574   -0.6116    0.0578 O   0  0  0  0  0  0  0  0  0  0  0  0
    0.9265    0.2198   -0.1026 H   0  0  0  0  0  0  0  0  0  0  0  0
    0.6739   -1.6187    0.0077 H   0  0  0  0  0  0  0  0  0  0  0  0
    0.8874    2.4605    0.3795 C   0  0  0  0  0  0  0  0  0  0  0  0
    0.2836    1.3180   -0.3970 C   0  0  0  0  0  3  0  0  0  0  0  0
   -1.1471    0.9882   -0.0361 C   0  0  0  0  0  0  0  0  0  0  0  0
   -1.4470   -0.3031   -0.5392 O   0  0  0  0  0  0  0  0  0  0  0  0
   -2.8141   -0.6455   -0.5294 C   0  0  0  0  0  0  0  0  0  0  0  0
   -3.3873   -0.8870    0.8660 C   0  0  0  0  0  0  0  0  0  0  0  0
    0.8111    2.2846    1.4508 H   0  0  0  0  0  0  0  0  0  0  0  0
    1.9369    2.5794    0.1219 H   0  0  0  0  0  0  0  0  0  0  0  0
    0.3760    3.3995    0.1558 H   0  0  0  0  0  0  0  0  0  0  0  0
    0.4085    1.4277   -1.4725 H   0  0  0  0  0  0  0  0  0  0  0  0
   -1.8461    1.7233   -0.4729 H   0  0  0  0  0  0  0  0  0  0  0  0
   -1.2722    1.0126    1.0565 H   0  0  0  0  0  0  0  0  0  0  0  0
   -2.8723   -1.5656   -1.1176 H   0  0  0  0  0  0  0  0  0  0  0  0
   -3.3997    0.1341   -1.0405 H   0  0  0  0  0  0  0  0  0  0  0  0
   -3.4236    0.0361    1.4393 H   0  0  0  0  0  0  0  0  0  0  0  0
   -4.3968   -1.2786    0.7788 H   0  0  0  0  0  0  0  0  0  0  0  0
   -2.7746   -1.6081    1.4016 H   0  0  0  0  0  0  0  0  0  0  0  0
  1  2  1  0
  1  4  1  0
  1  5  1  0
  2  3  2  0
  6  7  1  0
  6 12  1  0
  6 13  1  0
  6 14  1  0
  7  8  1  0
  7 15  1  0
  8  9  1  0
  8 16  1  0
  8 17  1  0
  9 10  1  0
 10 11  1  0
 10 18  1  0
 10 19  1  0
 11 20  1  0
 11 21  1  0
 11 22  1  0
M  RAD  1   7   2
M  END
>  <reaction>  (17) 
rmg_rxn_1475

>  <mol_properties>  (17) 
{"0": {"label": "*1", "atom_type": "N3s"}, "1": {"label": "*0", "atom_type": "N3d"}, "3": {"label": "*2", "atom_type": "H0"}, "6": {"label": "*3", "atom_type": "Cs"}, "7": {"label": "*4", "atom_type": "Cs"}}

>  <type>  (17) 
unop_13

>  <geom_source>  (17) 
Heuristics

$$$$

     RDKit          3D

 22 20  0  0  0  0  0  0  0  0999 V2000
    0.7716   -1.9612    0.6117 N   0  0  0  0  0  0  0  0  0  0  0  0
    0.7716   -3.1640    0.0670 N   0  0  0  0  0  0  0  0  0  0  0  0
    0.7716   -3.1640   -1.1375 O   0  0  0  0  0  0  0  0  0  0  0  0
    0.7716   -0.9785   -0.1035 H   0  0  0  0  0  0  0  0  0  0  0  0
    0.7716   -1.9148    1.6138 H   0  0  0  0  0  0  0  0  0  0  0  0
    2.0100    0.9269   -0.6060 C   0  0  0  0  0  0  0  0  0  0  0  0
    0.7716    0.0825   -0.8757 C   0  0  0  0  0  3  0  0  0  0  0  0
   -0.3410    0.3207    0.1245 C   0  0  0  0  0  0  0  0  0  0  0  0
   -0.7766    1.6533    0.0279 O   0  0  0  0  0  0  0  0  0  0  0  0
   -1.7882    1.9758    0.9478 C   0  0  0  0  0  0  0  0  0  0  0  0
   -2.1798    3.4232    0.7595 C   0  0  0  0  0  0  0  0  0  0  0  0
    2.4192    0.7130    0.3845 H   0  0  0  0  0  0  0  0  0  0  0  0
    2.7904    0.7253   -1.3412 H   0  0  0  0  0  0  0  0  0  0  0  0
    1.7693    1.9891   -0.6468 H   0  0  0  0  0  0  0  0  0  0  0  0
    0.3875    0.2890   -1.8780 H   0  0  0  0  0  0  0  0  0  0  0  0
    0.0187    0.1171    1.1456 H   0  0  0  0  0  0  0  0  0  0  0  0
   -1.1804   -0.3633   -0.0688 H   0  0  0  0  0  0  0  0  0  0  0  0
   -1.4302    1.8047    1.9737 H   0  0  0  0  0  0  0  0  0  0  0  0
   -2.6577    1.3193    0.7948 H   0  0  0  0  0  0  0  0  0  0  0  0
   -2.5478    3.5908   -0.2532 H   0  0  0  0  0  0  0  0  0  0  0  0
   -2.9664    3.6968    1.4645 H   0  0  0  0  0  0  0  0  0  0  0  0
   -1.3221    4.0758    0.9264 H   0  0  0  0  0  0  0  0  0  0  0  0
  1  2  1  0
  1  4  1  0
  1  5  1  0
  2  3  2  0
  6  7  1  0
  6 12  1  0
  6 13  1  0
  6 14  1  0
  7  8  1  0
  7 15  1  0
  8  9  1  0
  8 16  1  0
  8 17  1  0
  9 10  1  0
 10 11  1  0
 10 18  1  0
 10 19  1  0
 11 20  1  0
 11 21  1  0
 11 22  1  0
M  RAD  1   7   2
M  END
>  <reaction>  (18) 
rmg_rxn_1475

>  <mol_properties>  (18) 
{"0": {"label": "*1", "atom_type": "N3s"}, "1": {"label": "*0", "atom_type": "N3d"}, "3": {"label": "*2", "atom_type": "H0"}, "6": {"label": "*3", "atom_type": "Cs"}, "7": {"label": "*4", "atom_type": "Cs"}}

>  <type>  (18) 
unop_14

>  <geom_source>  (18) 
Heuristics

$$$$

     RDKit          3D

 22 20  0  0  0  0  0  0  0  0999 V2000
    1.3866   -0.9030    0.1062 N   0  0  0  0  0  0  0  0  0  0  0  0
    2.5681   -1.3109    0.0431 N   0  0  0  0  0  0  0  0  0  0  0  0
    3.5572   -0.6118    0.0573 O   0  0  0  0  0  0  0  0  0  0  0  0
    0.9264    0.2200   -0.1019 H   0  0  0  0  0  0  0  0  0  0  0  0
    0.6736   -1.6184    0.0085 H   0  0  0  0  0  0  0  0  0  0  0  0
    0.8872    2.4608    0.3796 C   0  0  0  0  0  0  0  0  0  0  0  0
    0.2837    1.3182   -0.3969 C   0  0  0  0  0  3  0  0  0  0  0  0
   -1.1472    0.9884   -0.0366 C   0  0  0  0  0  0  0  0  0  0  0  0
   -1.4467   -0.3032   -0.5393 O   0  0  0  0  0  0  0  0  0  0  0  0
   -2.8137   -0.6459   -0.5295 C   0  0  0  0  0  0  0  0  0  0  0  0
   -3.3869   -0.8870    0.8660 C   0  0  0  0  0  0  0  0  0  0  0  0
    0.8100    2.2854    1.4510 H   0  0  0  0  0  0  0  0  0  0  0  0
    1.9369    2.5794    0.1228 H   0  0  0  0  0  0  0  0  0  0  0  0
    0.3761    3.3999    0.1552 H   0  0  0  0  0  0  0  0  0  0  0  0
    0.4091    1.4276   -1.4723 H   0  0  0  0  0  0  0  0  0  0  0  0
   -1.8460    1.7233   -0.4739 H   0  0  0  0  0  0  0  0  0  0  0  0
   -1.2728    1.0132    1.0560 H   0  0  0  0  0  0  0  0  0  0  0  0
   -2.8716   -1.5662   -1.1173 H   0  0  0  0  0  0  0  0  0  0  0  0
   -3.3995    0.1333   -1.0409 H   0  0  0  0  0  0  0  0  0  0  0  0
   -4.3961   -1.2795    0.7789 H   0  0  0  0  0  0  0  0  0  0  0  0
   -2.7737   -1.6073    1.4022 H   0  0  0  0  0  0  0  0  0  0  0  0
   -3.4241    0.0364    1.4388 H   0  0  0  0  0  0  0  0  0  0  0  0
  1  2  1  0
  1  4  1  0
  1  5  1  0
  2  3  2  0
  6  7  1  0
  6 12  1  0
  6 13  1  0
  6 14  1  0
  7  8  1  0
  7 15  1  0
  8  9  1  0
  8 16  1  0
  8 17  1  0
  9 10  1  0
 10 11  1  0
 10 18  1  0
 10 19  1  0
 11 20  1  0
 11 21  1  0
 11 22  1  0
M  RAD  1   7   2
M  END
>  <reaction>  (19) 
rmg_rxn_1475

>  <mol_properties>  (19) 
{"0": {"label": "*1", "atom_type": "N3s"}, "1": {"label": "*0", "atom_type": "N3d"}, "3": {"label": "*2", "atom_type": "H0"}, "6": {"label": "*3", "atom_type": "Cs"}, "7": {"label": "*4", "atom_type": "Cs"}}

>  <type>  (19) 
unop_15

>  <geom_source>  (19) 
Heuristics

$$$$

     RDKit          3D

 22 20  0  0  0  0  0  0  0  0999 V2000
   -0.4797   -2.1416    1.8752 N   0  0  0  0  0  0  0  0  0  0  0  0
   -0.4797   -3.3444    1.3305 N   0  0  0  0  0  0  0  0  0  0  0  0
   -0.4797   -3.3444    0.1260 O   0  0  0  0  0  0  0  0  0  0  0  0
   -0.4797   -1.1590    1.1600 H   0  0  0  0  0  0  0  0  0  0  0  0
   -0.4797   -2.0952    2.8773 H   0  0  0  0  0  0  0  0  0  0  0  0
   -1.9096    0.3257    0.0794 C   0  0  0  0  0  0  0  0  0  0  0  0
   -0.4797   -0.0980    0.3878 C   0  0  0  0  0  3  0  0  0  0  0  0
    0.5296    0.4479   -0.6014 C   0  0  0  0  0  0  0  0  0  0  0  0
    0.5388    1.8515   -0.5307 O   0  0  0  0  0  0  0  0  0  0  0  0
    1.4246    2.4485   -1.4431 C   0  0  0  0  0  0  0  0  0  0  0  0
    1.3550    3.9496   -1.2843 C   0  0  0  0  0  0  0  0  0  0  0  0
   -2.2135   -0.0207   -0.9116 H   0  0  0  0  0  0  0  0  0  0  0  0
   -2.6079   -0.0894    0.8077 H   0  0  0  0  0  0  0  0  0  0  0  0
   -2.0031    1.4115    0.0979 H   0  0  0  0  0  0  0  0  0  0  0  0
   -0.1978    0.2341    1.3903 H   0  0  0  0  0  0  0  0  0  0  0  0
    0.2705    0.1257   -1.6224 H   0  0  0  0  0  0  0  0  0  0  0  0
    1.5325    0.0546   -0.3791 H   0  0  0  0  0  0  0  0  0  0  0  0
    1.1574    2.1576   -2.4698 H   0  0  0  0  0  0  0  0  0  0  0  0
    2.4486    2.0897   -1.2613 H   0  0  0  0  0  0  0  0  0  0  0  0
    1.6331    4.2399   -0.2706 H   0  0  0  0  0  0  0  0  0  0  0  0
    2.0366    4.4359   -1.9840 H   0  0  0  0  0  0  0  0  0  0  0  0
    0.3437    4.3081   -1.4796 H   0  0  0  0  0  0  0  0  0  0  0  0
  1  2  1  0
  1  4  1  0
  1  5  1  0
  2  3  2  0
  6  7  1  0
  6 12  1  0
  6 13  1  0
  6 14  1  0
  7  8  1  0
  7 15  1  0
  8  9  1  0
  8 16  1  0
  8 17  1  0
  9 10  1  0
 10 11  1  0
 10 18  1  0
 10 19  1  0
 11 20  1  0
 11 21  1  0
 11 22  1  0
M  RAD  1   7   2
M  END
>  <reaction>  (20) 
rmg_rxn_1475

>  <mol_properties>  (20) 
{"0": {"label": "*1", "atom_type": "N3s"}, "1": {"label": "*0", "atom_type": "N3d"}, "3": {"label": "*2", "atom_type": "H0"}, "6": {"label": "*3", "atom_type": "Cs"}, "7": {"label": "*4", "atom_type": "Cs"}}

>  <type>  (20) 
unop_16

>  <geom_source>  (20) 
Heuristics

$$$$

     RDKit          3D

 22 20  0  0  0  0  0  0  0  0999 V2000
    1.3863   -0.9032    0.1068 N   0  0  0  0  0  0  0  0  0  0  0  0
    2.5676   -1.3115    0.0427 N   0  0  0  0  0  0  0  0  0  0  0  0
    3.5569   -0.6126    0.0561 O   0  0  0  0  0  0  0  0  0  0  0  0
    0.9264    0.2199   -0.1014 H   0  0  0  0  0  0  0  0  0  0  0  0
    0.6730   -1.6185    0.0096 H   0  0  0  0  0  0  0  0  0  0  0  0
    0.8882    2.4607    0.3804 C   0  0  0  0  0  0  0  0  0  0  0  0
    0.2841    1.3183   -0.3961 C   0  0  0  0  0  3  0  0  0  0  0  0
   -1.1469    0.9890   -0.0357 C   0  0  0  0  0  0  0  0  0  0  0  0
   -1.4476   -0.3015   -0.5405 O   0  0  0  0  0  0  0  0  0  0  0  0
   -2.8148   -0.6437   -0.5297 C   0  0  0  0  0  0  0  0  0  0  0  0
   -3.3856   -0.8898    0.8659 C   0  0  0  0  0  0  0  0  0  0  0  0
    0.8108    2.2852    1.4517 H   0  0  0  0  0  0  0  0  0  0  0  0
    1.9379    2.5788    0.1237 H   0  0  0  0  0  0  0  0  0  0  0  0
    0.3777    3.4000    0.1560 H   0  0  0  0  0  0  0  0  0  0  0  0
    0.4094    1.4278   -1.4715 H   0  0  0  0  0  0  0  0  0  0  0  0
   -1.8453    1.7251   -0.4716 H   0  0  0  0  0  0  0  0  0  0  0  0
   -1.2721    1.0123    1.0569 H   0  0  0  0  0  0  0  0  0  0  0  0
   -2.8741   -1.5618   -1.1209 H   0  0  0  0  0  0  0  0  0  0  0  0
   -3.4011    0.1378   -1.0370 H   0  0  0  0  0  0  0  0  0  0  0  0
   -2.7725   -1.6135    1.3977 H   0  0  0  0  0  0  0  0  0  0  0  0
   -3.4200    0.0311    1.4429 H   0  0  0  0  0  0  0  0  0  0  0  0
   -4.3957   -1.2801    0.7792 H   0  0  0  0  0  0  0  0  0  0  0  0
  1  2  1  0
  1  4  1  0
  1  5  1  0
  2  3  2  0
  6  7  1  0
  6 12  1  0
  6 13  1  0
  6 14  1  0
  7  8  1  0
  7 15  1  0
  8  9  1  0
  8 16  1  0
  8 17  1  0
  9 10  1  0
 10 11  1  0
 10 18  1  0
 10 19  1  0
 11 20  1  0
 11 21  1  0
 11 22  1  0
M  RAD  1   7   2
M  END
>  <reaction>  (21) 
rmg_rxn_1475

>  <mol_properties>  (21) 
{"0": {"label": "*1", "atom_type": "N3s"}, "1": {"label": "*0", "atom_type": "N3d"}, "3": {"label": "*2", "atom_type": "H0"}, "6": {"label": "*3", "atom_type": "Cs"}, "7": {"label": "*4", "atom_type": "Cs"}}

>  <type>  (21) 
unop_17

>  <geom_source>  (21) 
Heuristics

$$$$

     RDKit          3D

 22 20  0  0  0  0  0  0  0  0999 V2000
   -0.7608   -2.1507    1.0456 N   0  0  0  0  0  0  0  0  0  0  0  0
   -0.7608   -3.3535    0.5009 N   0  0  0  0  0  0  0  0  0  0  0  0
   -0.7608   -3.3535   -0.7036 O   0  0  0  0  0  0  0  0  0  0  0  0
   -0.7608   -1.1680    0.3304 H   0  0  0  0  0  0  0  0  0  0  0  0
   -0.7608   -2.1043    2.0477 H   0  0  0  0  0  0  0  0  0  0  0  0
   -0.0459   -0.4121   -1.7514 C   0  0  0  0  0  0  0  0  0  0  0  0
   -0.7608   -0.1071   -0.4418 C   0  0  0  0  0  3  0  0  0  0  0  0
    0.0834    0.6993    0.5238 C   0  0  0  0  0  0  0  0  0  0  0  0
    0.3667    1.9544   -0.0414 O   0  0  0  0  0  0  0  0  0  0  0  0
    1.1788    2.7608    0.7734 C   0  0  0  0  0  0  0  0  0  0  0  0
    1.4210    4.0784    0.0744 C   0  0  0  0  0  0  0  0  0  0  0  0
    0.8686   -0.9832   -1.5722 H   0  0  0  0  0  0  0  0  0  0  0  0
   -0.6807   -0.9974   -2.4182 H   0  0  0  0  0  0  0  0  0  0  0  0
    0.2297    0.5092   -2.2645 H   0  0  0  0  0  0  0  0  0  0  0  0
   -1.6848    0.4429   -0.6380 H   0  0  0  0  0  0  0  0  0  0  0  0
    1.0222    0.1658    0.7415 H   0  0  0  0  0  0  0  0  0  0  0  0
   -0.4478    0.8290    1.4781 H   0  0  0  0  0  0  0  0  0  0  0  0
    2.1326    2.2506    0.9735 H   0  0  0  0  0  0  0  0  0  0  0  0
    0.6897    2.9252    1.7450 H   0  0  0  0  0  0  0  0  0  0  0  0
    0.4768    4.5913   -0.1121 H   0  0  0  0  0  0  0  0  0  0  0  0
    2.0504    4.7229    0.6900 H   0  0  0  0  0  0  0  0  0  0  0  0
    1.9199    3.9177   -0.8820 H   0  0  0  0  0  0  0  0  0  0  0  0
  1  2  1  0
  1  4  1  0
  1  5  1  0
  2  3  2  0
  6  7  1  0
  6 12  1  0
  6 13  1  0
  6 14  1  0
  7  8  1  0
  7 15  1  0
  8  9  1  0
  8 16  1  0
  8 17  1  0
  9 10  1  0
 10 11  1  0
 10 18  1  0
 10 19  1  0
 11 20  1  0
 11 21  1  0
 11 22  1  0
M  RAD  1   7   2
M  END
>  <reaction>  (22) 
rmg_rxn_1475

>  <mol_properties>  (22) 
{"0": {"label": "*1", "atom_type": "N3s"}, "1": {"label": "*0", "atom_type": "N3d"}, "3": {"label": "*2", "atom_type": "H0"}, "6": {"label": "*3", "atom_type": "Cs"}, "7": {"label": "*4", "atom_type": "Cs"}}

>  <type>  (22) 
unop_18

>  <geom_source>  (22) 
Heuristics

$$$$

     RDKit          3D

 22 20  0  0  0  0  0  0  0  0999 V2000
   -0.4456   -2.1893    1.8155 N   0  0  0  0  0  0  0  0  0  0  0  0
   -0.4456   -3.3921    1.2707 N   0  0  0  0  0  0  0  0  0  0  0  0
   -0.4456   -3.3921    0.0662 O   0  0  0  0  0  0  0  0  0  0  0  0
   -0.4456   -1.2066    1.1002 H   0  0  0  0  0  0  0  0  0  0  0  0
   -0.4456   -2.1429    2.8176 H   0  0  0  0  0  0  0  0  0  0  0  0
   -1.6840   -0.1427   -0.5584 C   0  0  0  0  0  0  0  0  0  0  0  0
   -0.4456   -0.1457    0.3280 C   0  0  0  0  0  3  0  0  0  0  0  0
    0.7284    0.5887   -0.2865 C   0  0  0  0  0  0  0  0  0  0  0  0
    0.3960    1.9445   -0.4493 O   0  0  0  0  0  0  0  0  0  0  0  0
    1.4180    2.6996   -1.0483 C   0  0  0  0  0  0  0  0  0  0  0  0
    0.9585    4.1335   -1.1762 C   0  0  0  0  0  0  0  0  0  0  0  0
   -1.4762   -0.6195   -1.5196 H   0  0  0  0  0  0  0  0  0  0  0  0
   -2.5056   -0.6840   -0.0870 H   0  0  0  0  0  0  0  0  0  0  0  0
   -2.0157    0.8768   -0.7550 H   0  0  0  0  0  0  0  0  0  0  0  0
   -0.6744    0.3121    1.2939 H   0  0  0  0  0  0  0  0  0  0  0  0
    0.9826    0.1454   -1.2623 H   0  0  0  0  0  0  0  0  0  0  0  0
    1.6158    0.4947    0.3565 H   0  0  0  0  0  0  0  0  0  0  0  0
    1.6604    2.2838   -2.0375 H   0  0  0  0  0  0  0  0  0  0  0  0
    2.3329    2.6418   -0.4401 H   0  0  0  0  0  0  0  0  0  0  0  0
    0.7312    4.5508   -0.1946 H   0  0  0  0  0  0  0  0  0  0  0  0
    1.7380    4.7404   -1.6394 H   0  0  0  0  0  0  0  0  0  0  0  0
    0.0604    4.1935   -1.7919 H   0  0  0  0  0  0  0  0  0  0  0  0
  1  2  1  0
  1  4  1  0
  1  5  1  0
  2  3  2  0
  6  7  1  0
  6 12  1  0
  6 13  1  0
  6 14  1  0
  7  8  1  0
  7 15  1  0
  8  9  1  0
  8 16  1  0
  8 17  1  0
  9 10  1  0
 10 11  1  0
 10 18  1  0
 10 19  1  0
 11 20  1  0
 11 21  1  0
 11 22  1  0
M  RAD  1   7   2
M  END
>  <reaction>  (23) 
rmg_rxn_1475

>  <mol_properties>  (23) 
{"0": {"label": "*1", "atom_type": "N3s"}, "1": {"label": "*0", "atom_type": "N3d"}, "3": {"label": "*2", "atom_type": "H0"}, "6": {"label": "*3", "atom_type": "Cs"}, "7": {"label": "*4", "atom_type": "Cs"}}

>  <type>  (23) 
unop_19

>  <geom_source>  (23) 
Heuristics

$$$$

     RDKit          3D

 22 20  0  0  0  0  0  0  0  0999 V2000
    1.1398   -1.7637    1.2636 N   0  0  0  0  0  0  0  0  0  0  0  0
    1.1398   -2.9665    0.7188 N   0  0  0  0  0  0  0  0  0  0  0  0
    1.1398   -2.9665   -0.4857 O   0  0  0  0  0  0  0  0  0  0  0  0
    1.1398   -0.7810    0.5483 H   0  0  0  0  0  0  0  0  0  0  0  0
    1.1398   -1.7173    2.2657 H   0  0  0  0  0  0  0  0  0  0  0  0
    1.8548    1.4323    0.4690 C   0  0  0  0  0  0  0  0  0  0  0  0
    1.1398    0.2799   -0.2239 C   0  0  0  0  0  3  0  0  0  0  0  0
   -0.3561    0.2769    0.0159 C   0  0  0  0  0  0  0  0  0  0  0  0
   -0.9182    1.4418   -0.5337 O   0  0  0  0  0  0  0  0  0  0  0  0
   -2.3041    1.5416   -0.3266 C   0  0  0  0  0  0  0  0  0  0  0  0
   -2.8029    2.8233   -0.9528 C   0  0  0  0  0  0  0  0  0  0  0  0
    1.7044    1.3902    1.5506 H   0  0  0  0  0  0  0  0  0  0  0  0
    2.9286    1.3993    0.2789 H   0  0  0  0  0  0  0  0  0  0  0  0
    1.4751    2.3908    0.1151 H   0  0  0  0  0  0  0  0  0  0  0  0
    1.3186    0.3209   -1.3014 H   0  0  0  0  0  0  0  0  0  0  0  0
   -0.5656    0.2334    1.0965 H   0  0  0  0  0  0  0  0  0  0  0  0
   -0.8138   -0.6124   -0.4418 H   0  0  0  0  0  0  0  0  0  0  0  0
   -2.5238    1.5293    0.7511 H   0  0  0  0  0  0  0  0  0  0  0  0
   -2.8133    0.6733   -0.7706 H   0  0  0  0  0  0  0  0  0  0  0  0
   -2.5979    2.8303   -2.0239 H   0  0  0  0  0  0  0  0  0  0  0  0
   -3.8794    2.9224   -0.8048 H   0  0  0  0  0  0  0  0  0  0  0  0
   -2.3101    3.6856   -0.5024 H   0  0  0  0  0  0  0  0  0  0  0  0
  1  2  1  0
  1  4  1  0
  1  5  1  0
  2  3  2  0
  6  7  1  0
  6 12  1  0
  6 13  1  0
  6 14  1  0
  7  8  1  0
  7 15  1  0
  8  9  1  0
  8 16  1  0
  8 17  1  0
  9 10  1  0
 10 11  1  0
 10 18  1  0
 10 19  1  0
 11 20  1  0
 11 21  1  0
 11 22  1  0
M  RAD  1   7   2
M  END
>  <reaction>  (24) 
rmg_rxn_1475

>  <mol_properties>  (24) 
{"0": {"label": "*1", "atom_type": "N3s"}, "1": {"label": "*0", "atom_type": "N3d"}, "3": {"label": "*2", "atom_type": "H0"}, "6": {"label": "*3", "atom_type": "Cs"}, "7": {"label": "*4", "atom_type": "Cs"}}

>  <type>  (24) 
unop_20

>  <geom_source>  (24) 
Heuristics

$$$$

     RDKit          3D

 22 20  0  0  0  0  0  0  0  0999 V2000
   -0.7483   -2.1405    1.5175 N   0  0  0  0  0  0  0  0  0  0  0  0
   -0.7483   -3.3433    0.9727 N   0  0  0  0  0  0  0  0  0  0  0  0
   -0.7483   -3.3433   -0.2318 O   0  0  0  0  0  0  0  0  0  0  0  0
   -0.7483   -1.1579    0.8023 H   0  0  0  0  0  0  0  0  0  0  0  0
   -0.7483   -2.0942    2.5196 H   0  0  0  0  0  0  0  0  0  0  0  0
   -0.7483   -0.5147   -1.4344 C   0  0  0  0  0  0  0  0  0  0  0  0
   -0.7483   -0.0969    0.0300 C   0  0  0  0  0  3  0  0  0  0  0  0
    0.4477    0.7534    0.4068 C   0  0  0  0  0  0  0  0  0  0  0  0
    0.4108    1.9564   -0.3187 O   0  0  0  0  0  0  0  0  0  0  0  0
    1.5062    2.7966   -0.0583 C   0  0  0  0  0  0  0  0  0  0  0  0
    1.3683    4.0536   -0.8857 C   0  0  0  0  0  0  0  0  0  0  0  0
    0.1455   -1.0962   -1.6737 H   0  0  0  0  0  0  0  0  0  0  0  0
   -1.6194   -1.1288   -1.6676 H   0  0  0  0  0  0  0  0  0  0  0  0
   -0.7634    0.3595   -2.0853 H   0  0  0  0  0  0  0  0  0  0  0  0
   -1.6585    0.4627    0.2606 H   0  0  0  0  0  0  0  0  0  0  0  0
    1.3810    0.2114    0.1866 H   0  0  0  0  0  0  0  0  0  0  0  0
    0.4397    0.9657    1.4859 H   0  0  0  0  0  0  0  0  0  0  0  0
    2.4440    2.2763   -0.3029 H   0  0  0  0  0  0  0  0  0  0  0  0
    1.5431    3.0437    1.0131 H   0  0  0  0  0  0  0  0  0  0  0  0
    0.4455    4.5774   -0.6341 H   0  0  0  0  0  0  0  0  0  0  0  0
    2.2094    4.7231   -0.6992 H   0  0  0  0  0  0  0  0  0  0  0  0
    1.3473    3.8109   -1.9488 H   0  0  0  0  0  0  0  0  0  0  0  0
  1  2  1  0
  1  4  1  0
  1  5  1  0
  2  3  2  0
  6  7  1  0
  6 12  1  0
  6 13  1  0
  6 14  1  0
  7  8  1  0
  7 15  1  0
  8  9  1  0
  8 16  1  0
  8 17  1  0
  9 10  1  0
 10 11  1  0
 10 18  1  0
 10 19  1  0
 11 20  1  0
 11 21  1  0
 11 22  1  0
M  RAD  1   7   2
M  END
>  <reaction>  (25) 
rmg_rxn_1475

>  <mol_properties>  (25) 
{"0": {"label": "*1", "atom_type": "N3s"}, "1": {"label": "*0", "atom_type": "N3d"}, "3": {"label": "*2", "atom_type": "H0"}, "6": {"label": "*3", "atom_type": "Cs"}, "7": {"label": "*4", "atom_type": "Cs"}}

>  <type>  (25) 
unop_21

>  <geom_source>  (25) 
Heuristics

$$$$

     RDKit          3D

 22 20  0  0  0  0  0  0  0  0999 V2000
    1.3861   -0.9022    0.1085 N   0  0  0  0  0  0  0  0  0  0  0  0
    2.5670   -1.3113    0.0432 N   0  0  0  0  0  0  0  0  0  0  0  0
    3.5569   -0.6132    0.0554 O   0  0  0  0  0  0  0  0  0  0  0  0
    0.9264    0.2210   -0.1003 H   0  0  0  0  0  0  0  0  0  0  0  0
    0.6721   -1.6169    0.0120 H   0  0  0  0  0  0  0  0  0  0  0  0
    0.8864    2.4619    0.3803 C   0  0  0  0  0  0  0  0  0  0  0  0
    0.2839    1.3189   -0.3964 C   0  0  0  0  0  3  0  0  0  0  0  0
   -1.1473    0.9891   -0.0372 C   0  0  0  0  0  0  0  0  0  0  0  0
   -1.4460   -0.3028   -0.5396 O   0  0  0  0  0  0  0  0  0  0  0  0
   -2.8128   -0.6463   -0.5299 C   0  0  0  0  0  0  0  0  0  0  0  0
   -3.3858   -0.8884    0.8656 C   0  0  0  0  0  0  0  0  0  0  0  0
    0.3753    3.4008    0.1551 H   0  0  0  0  0  0  0  0  0  0  0  0
    0.8084    2.2866    1.4516 H   0  0  0  0  0  0  0  0  0  0  0  0
    1.9363    2.5808    0.1244 H   0  0  0  0  0  0  0  0  0  0  0  0
    0.4103    1.4280   -1.4717 H   0  0  0  0  0  0  0  0  0  0  0  0
   -1.8459    1.7235   -0.4757 H   0  0  0  0  0  0  0  0  0  0  0  0
   -1.2738    1.0144    1.0553 H   0  0  0  0  0  0  0  0  0  0  0  0
   -2.8703   -1.5664   -1.1181 H   0  0  0  0  0  0  0  0  0  0  0  0
   -3.3991    0.1329   -1.0408 H   0  0  0  0  0  0  0  0  0  0  0  0
   -2.7726   -1.6092    1.4011 H   0  0  0  0  0  0  0  0  0  0  0  0
   -3.4229    0.0345    1.4391 H   0  0  0  0  0  0  0  0  0  0  0  0
   -4.3951   -1.2807    0.7784 H   0  0  0  0  0  0  0  0  0  0  0  0
  1  2  1  0
  1  4  1  0
  1  5  1  0
  2  3  2  0
  6  7  1  0
  6 12  1  0
  6 13  1  0
  6 14  1  0
  7  8  1  0
  7 15  1  0
  8  9  1  0
  8 16  1  0
  8 17  1  0
  9 10  1  0
 10 11  1  0
 10 18  1  0
 10 19  1  0
 11 20  1  0
 11 21  1  0
 11 22  1  0
M  RAD  1   7   2
M  END
>  <reaction>  (26) 
rmg_rxn_1475

>  <mol_properties>  (26) 
{"0": {"label": "*1", "atom_type": "N3s"}, "1": {"label": "*0", "atom_type": "N3d"}, "3": {"label": "*2", "atom_type": "H0"}, "6": {"label": "*3", "atom_type": "Cs"}, "7": {"label": "*4", "atom_type": "Cs"}}

>  <type>  (26) 
unop_22

>  <geom_source>  (26) 
Heuristics

$$$$

     RDKit          3D

 22 20  0  0  0  0  0  0  0  0999 V2000
   -0.5512   -2.1665    1.7656 N   0  0  0  0  0  0  0  0  0  0  0  0
   -0.5512   -3.3693    1.2209 N   0  0  0  0  0  0  0  0  0  0  0  0
   -0.5512   -3.3693    0.0164 O   0  0  0  0  0  0  0  0  0  0  0  0
   -0.5512   -1.1839    1.0504 H   0  0  0  0  0  0  0  0  0  0  0  0
   -0.5512   -2.1202    2.7677 H   0  0  0  0  0  0  0  0  0  0  0  0
   -1.2662   -0.4279   -1.0314 C   0  0  0  0  0  0  0  0  0  0  0  0
   -0.5512   -0.1229    0.2782 C   0  0  0  0  0  3  0  0  0  0  0  0
    0.7015    0.7088    0.0931 C   0  0  0  0  0  0  0  0  0  0  0  0
    0.3536    1.9631   -0.4367 O   0  0  0  0  0  0  0  0  0  0  0  0
    1.4619    2.7926   -0.6757 C   0  0  0  0  0  0  0  0  0  0  0  0
    0.9780    4.1074   -1.2421 C   0  0  0  0  0  0  0  0  0  0  0  0
   -0.6135   -0.9801   -1.7122 H   0  0  0  0  0  0  0  0  0  0  0  0
   -2.1586   -1.0317   -0.8602 H   0  0  0  0  0  0  0  0  0  0  0  0
   -1.5681    0.4930   -1.5301 H   0  0  0  0  0  0  0  0  0  0  0  0
   -1.2230    0.4078    0.9577 H   0  0  0  0  0  0  0  0  0  0  0  0
    1.3991    0.1951   -0.5872 H   0  0  0  0  0  0  0  0  0  0  0  0
    1.2188    0.8383    1.0551 H   0  0  0  0  0  0  0  0  0  0  0  0
    2.1523    2.3024   -1.3779 H   0  0  0  0  0  0  0  0  0  0  0  0
    2.0157    2.9579    0.2604 H   0  0  0  0  0  0  0  0  0  0  0  0
    0.3042    4.6007   -0.5406 H   0  0  0  0  0  0  0  0  0  0  0  0
    1.8233    4.7697   -1.4356 H   0  0  0  0  0  0  0  0  0  0  0  0
    0.4423    3.9462   -2.1782 H   0  0  0  0  0  0  0  0  0  0  0  0
  1  2  1  0
  1  4  1  0
  1  5  1  0
  2  3  2  0
  6  7  1  0
  6 12  1  0
  6 13  1  0
  6 14  1  0
  7  8  1  0
  7 15  1  0
  8  9  1  0
  8 16  1  0
  8 17  1  0
  9 10  1  0
 10 11  1  0
 10 18  1  0
 10 19  1  0
 11 20  1  0
 11 21  1  0
 11 22  1  0
M  RAD  1   7   2
M  END
>  <reaction>  (27) 
rmg_rxn_1475

>  <mol_properties>  (27) 
{"0": {"label": "*1", "atom_type": "N3s"}, "1": {"label": "*0", "atom_type": "N3d"}, "3": {"label": "*2", "atom_type": "H0"}, "6": {"label": "*3", "atom_type": "Cs"}, "7": {"label": "*4", "atom_type": "Cs"}}

>  <type>  (27) 
unop_23

>  <geom_source>  (27) 
gaussian_log

$$$$
