
     RDKit          3D

  8  7  0  0  0  0  0  0  0  0999 V2000
    0.9548    0.1194   -0.0790 C   0  0  0  0  0  0  0  0  0  0  0  0
   -0.4838   -0.2649    0.0193 C   0  0  0  0  0  0  0  0  0  0  0  0
   -0.8933   -1.1081    0.8664 N   0  0  0  0  0  0  0  0  0  0  0  0
    1.3360   -0.0983   -1.0800 H   0  0  0  0  0  0  0  0  0  0  0  0
    1.0698    1.1948    0.0786 H   0  0  0  0  0  0  0  0  0  0  0  0
    1.5426   -0.4219    0.6602 H   0  0  0  0  0  0  0  0  0  0  0  0
   -1.1575    0.2324   -0.6905 H   0  0  0  0  0  0  0  0  0  0  0  0
   -1.8989   -1.2455    0.7886 H   0  0  0  0  0  0  0  0  0  0  0  0
  1  2  1  0
  1  4  1  0
  1  5  1  0
  1  6  1  0
  2  3  2  3
  2  7  1  0
  3  8  1  0
M  END
>  <reaction>  (1) 
rmg_rxn_16521

>  <mol_properties>  (1) 
{"2": {"label": "donator", "atom_type": "N3d"}, "7": {"label": "d_hydrogen", "atom_type": "H0"}}

>  <type>  (1) 
r1h

$$$$

     RDKit          3D

 10  9  0  0  0  0  0  0  0  0999 V2000
    1.2930    0.1441    0.3288 C   0  0  0  0  0  0  0  0  0  0  0  0
   -0.0374   -0.1647    0.9100 C   0  0  0  0  0  3  0  0  0  0  0  0
   -1.2664    0.4569    0.3567 C   0  0  0  0  0  0  0  0  0  0  0  0
    1.4384    1.2242    0.2174 H   0  0  0  0  0  0  0  0  0  0  0  0
    2.1077   -0.2477    0.9385 H   0  0  0  0  0  0  0  0  0  0  0  0
    1.4057   -0.2836   -0.6789 H   0  0  0  0  0  0  0  0  0  0  0  0
   -0.1309   -0.9912    1.6030 H   0  0  0  0  0  0  0  0  0  0  0  0
   -1.5005    0.0716   -0.6471 H   0  0  0  0  0  0  0  0  0  0  0  0
   -2.1382    0.2713    0.9849 H   0  0  0  0  0  0  0  0  0  0  0  0
   -1.1497    1.5406    0.2456 H   0  0  0  0  0  0  0  0  0  0  0  0
  1  2  1  0
  1  4  1  0
  1  5  1  0
  1  6  1  0
  2  3  1  0
  2  7  1  0
  3  8  1  0
  3  9  1  0
  3 10  1  0
M  RAD  1   2   2
M  END
>  <reaction>  (2) 
rmg_rxn_16521

>  <mol_properties>  (2) 
{"1": {"label": "acceptor", "atom_type": "Cs"}}

>  <type>  (2) 
r2

$$$$

     RDKit          3D

 11 10  0  0  0  0  0  0  0  0999 V2000
   -1.2710    0.1907   -0.2084 C   0  0  0  0  0  0  0  0  0  0  0  0
    0.0202   -0.6130   -0.2928 C   0  0  0  0  0  0  0  0  0  0  0  0
    0.1086   -1.6953    0.7756 C   0  0  0  0  0  0  0  0  0  0  0  0
   -1.3607    0.6851    0.7620 H   0  0  0  0  0  0  0  0  0  0  0  0
   -2.1429   -0.4567   -0.3299 H   0  0  0  0  0  0  0  0  0  0  0  0
   -1.3158    0.9602   -0.9809 H   0  0  0  0  0  0  0  0  0  0  0  0
    0.8757    0.0616   -0.1992 H   0  0  0  0  0  0  0  0  0  0  0  0
    0.0997   -1.0712   -1.2825 H   0  0  0  0  0  0  0  0  0  0  0  0
   -0.7198   -2.4022    0.6850 H   0  0  0  0  0  0  0  0  0  0  0  0
    1.0395   -2.2596    0.6989 H   0  0  0  0  0  0  0  0  0  0  0  0
    0.0624   -1.2603    1.7770 H   0  0  0  0  0  0  0  0  0  0  0  0
  1  2  1  0
  1  4  1  0
  1  5  1  0
  1  6  1  0
  2  3  1  0
  2  7  1  0
  2  8  1  0
  3  9  1  0
  3 10  1  0
  3 11  1  0
M  END
>  <reaction>  (3) 
rmg_rxn_16521

>  <mol_properties>  (3) 
{"0": {"label": "a_hydrogen", "atom_type": "H0"}, "2": {"label": "acceptor", "atom_type": "Cs"}}

>  <type>  (3) 
r2h

$$$$

     RDKit          3D

 18 16  0  0  0  0  0  0  0  0999 V2000
   -2.9476   -0.0813    0.3310 C   0  0  0  0  0  0  0  0  0  0  0  0
   -1.4637   -0.0202    0.1273 C   0  0  0  0  0  0  0  0  0  0  0  0
   -0.9160   -0.3387   -0.9564 N   0  0  0  0  0  0  0  0  0  0  0  0
   -3.3286    0.9074    0.5974 H   0  0  0  0  0  0  0  0  0  0  0  0
   -3.4444   -0.4304   -0.5723 H   0  0  0  0  0  0  0  0  0  0  0  0
   -3.1831   -0.7539    1.1593 H   0  0  0  0  0  0  0  0  0  0  0  0
   -0.8777    0.3237    0.9921 H   0  0  0  0  0  0  0  0  0  0  0  0
    0.3106   -0.1858   -0.8222 H   0  0  0  0  0  0  0  0  0  0  0  0
    1.9378   -0.9100    0.6190 C   0  0  0  0  0  0  0  0  0  0  0  0
    1.6088    0.0358   -0.5034 C   0  0  0  0  0  3  0  0  0  0  0  0
    1.7263    1.5038   -0.1974 C   0  0  0  0  0  0  0  0  0  0  0  0
    1.3596   -0.6751    1.5169 H   0  0  0  0  0  0  0  0  0  0  0  0
    1.7307   -1.9453    0.3447 H   0  0  0  0  0  0  0  0  0  0  0  0
    2.9973   -0.8432    0.8933 H   0  0  0  0  0  0  0  0  0  0  0  0
    2.0655   -0.2454   -1.4531 H   0  0  0  0  0  0  0  0  0  0  0  0
    2.7672    1.7824    0.0053 H   0  0  0  0  0  0  0  0  0  0  0  0
    1.3748    2.1162   -1.0288 H   0  0  0  0  0  0  0  0  0  0  0  0
    1.1452    1.7709    0.6896 H   0  0  0  0  0  0  0  0  0  0  0  0
  1  2  1  0
  1  4  1  0
  1  5  1  0
  1  6  1  0
  2  3  2  3
  2  7  1  0
  3  8  1  0
  9 10  1  0
  9 12  1  0
  9 13  1  0
  9 14  1  0
 10 11  1  0
 10 15  1  0
 11 16  1  0
 11 17  1  0
 11 18  1  0
M  RAD  1  10   2
M  END
>  <reaction>  (4) 
rmg_rxn_16521

>  <mol_properties>  (4) 
{"1": {"label": "*0", "atom_type": "Cd"}, "2": {"label": "*1", "atom_type": "N3d"}, "7": {"label": "*2", "atom_type": "H0"}, "8": {"label": "*4", "atom_type": "Cs"}, "9": {"label": "*3", "atom_type": "Cs"}}

>  <type>  (4) 
ts

$$$$

     RDKit          3D

 18 16  0  0  0  0  0  0  0  0999 V2000
   -3.1108    0.0270    0.2030 C   0  0  0  0  0  0  0  0  0  0  0  0
   -1.6257    0.2052    0.0921 C   0  0  0  0  0  0  0  0  0  0  0  0
   -0.8891   -0.6434   -0.4303 N   0  0  0  0  0  0  0  0  0  0  0  0
   -3.6124    0.8417   -0.3171 H   0  0  0  0  0  0  0  0  0  0  0  0
   -3.4096   -0.9234   -0.2296 H   0  0  0  0  0  0  0  0  0  0  0  0
   -3.4017    0.0614    1.2518 H   0  0  0  0  0  0  0  0  0  0  0  0
   -1.2659    1.1558    0.5165 H   0  0  0  0  0  0  0  0  0  0  0  0
    0.3255   -0.3564   -0.4491 H   0  0  0  0  0  0  0  0  0  0  0  0
    2.2819   -1.0390    0.4163 C   0  0  0  0  0  0  0  0  0  0  0  0
    1.5812   -0.0153   -0.4400 C   0  0  0  0  0  3  0  0  0  0  0  0
    1.6615    1.3980    0.0774 C   0  0  0  0  0  0  0  0  0  0  0  0
    1.9252   -0.9918    1.4437 H   0  0  0  0  0  0  0  0  0  0  0  0
    2.1076   -2.0423    0.0354 H   0  0  0  0  0  0  0  0  0  0  0  0
    3.3604   -0.8621    0.4270 H   0  0  0  0  0  0  0  0  0  0  0  0
    1.8646   -0.0880   -1.4886 H   0  0  0  0  0  0  0  0  0  0  0  0
    2.6958    1.7516    0.0754 H   0  0  0  0  0  0  0  0  0  0  0  0
    1.0778    2.0753   -0.5437 H   0  0  0  0  0  0  0  0  0  0  0  0
    1.2963    1.4566    1.1021 H   0  0  0  0  0  0  0  0  0  0  0  0
  1  2  1  0
  1  4  1  0
  1  5  1  0
  1  6  1  0
  2  3  2  3
  2  7  1  0
  3  8  1  0
  9 10  1  0
  9 12  1  0
  9 13  1  0
  9 14  1  0
 10 11  1  0
 10 15  1  0
 11 16  1  0
 11 17  1  0
 11 18  1  0
M  RAD  1  10   2
M  END
>  <reaction>  (5) 
rmg_rxn_16521

>  <mol_properties>  (5) 
{"1": {"label": "*0", "atom_type": "Cd"}, "2": {"label": "*1", "atom_type": "N3d"}, "7": {"label": "*2", "atom_type": "H0"}, "8": {"label": "*4", "atom_type": "Cs"}, "9": {"label": "*3", "atom_type": "Cs"}}

>  <type>  (5) 
unop_1

>  <geom_source>  (5) 
crest_best.xyz

$$$$

     RDKit          3D

 18 16  0  0  0  0  0  0  0  0999 V2000
   -0.1037   -0.3930   -3.2069 C   0  0  0  0  0  0  0  0  0  0  0  0
   -0.1037   -0.3930   -1.7145 C   0  0  0  0  0  0  0  0  0  0  0  0
   -0.1037    0.6796   -1.0469 N   0  0  0  0  0  0  0  0  0  0  0  0
    0.7745   -0.9230   -3.5843 H   0  0  0  0  0  0  0  0  0  0  0  0
   -0.9820   -0.9230   -3.5843 H   0  0  0  0  0  0  0  0  0  0  0  0
   -0.1037    0.6276   -3.5855 H   0  0  0  0  0  0  0  0  0  0  0  0
   -0.1037   -1.3827   -1.2399 H   0  0  0  0  0  0  0  0  0  0  0  0
   -0.1037    0.4494    0.1527 H   0  0  0  0  0  0  0  0  0  0  0  0
    1.1403    0.8120    2.0748 C   0  0  0  0  0  0  0  0  0  0  0  0
   -0.1037    0.2021    1.4415 C   0  0  0  0  0  3  0  0  0  0  0  0
   -0.7366   -0.8762    2.3116 C   0  0  0  0  0  0  0  0  0  0  0  0
    1.9026    0.0493    2.2514 H   0  0  0  0  0  0  0  0  0  0  0  0
    1.5789    1.5815    1.4373 H   0  0  0  0  0  0  0  0  0  0  0  0
    0.9036    1.2703    3.0381 H   0  0  0  0  0  0  0  0  0  0  0  0
   -0.8368    0.9900    1.2474 H   0  0  0  0  0  0  0  0  0  0  0  0
   -1.0324   -0.4711    3.2824 H   0  0  0  0  0  0  0  0  0  0  0  0
   -1.6253   -1.3006    1.8416 H   0  0  0  0  0  0  0  0  0  0  0  0
   -0.0334   -1.6921    2.4957 H   0  0  0  0  0  0  0  0  0  0  0  0
  1  2  1  0
  1  4  1  0
  1  5  1  0
  1  6  1  0
  2  3  2  3
  2  7  1  0
  3  8  1  0
  9 10  1  0
  9 12  1  0
  9 13  1  0
  9 14  1  0
 10 11  1  0
 10 15  1  0
 11 16  1  0
 11 17  1  0
 11 18  1  0
M  RAD  1  10   2
M  END
>  <reaction>  (6) 
rmg_rxn_16521

>  <mol_properties>  (6) 
{"1": {"label": "*0", "atom_type": "Cd"}, "2": {"label": "*1", "atom_type": "N3d"}, "7": {"label": "*2", "atom_type": "H0"}, "8": {"label": "*4", "atom_type": "Cs"}, "9": {"label": "*3", "atom_type": "Cs"}}

>  <type>  (6) 
unop_2

>  <geom_source>  (6) 
Heuristics

$$$$

     RDKit          3D

 18 16  0  0  0  0  0  0  0  0999 V2000
    0.0872   -0.2704   -3.1435 C   0  0  0  0  0  0  0  0  0  0  0  0
    0.0872   -0.2704   -1.6511 C   0  0  0  0  0  0  0  0  0  0  0  0
    0.0872    0.8022   -0.9835 N   0  0  0  0  0  0  0  0  0  0  0  0
    0.9654   -0.8004   -3.5209 H   0  0  0  0  0  0  0  0  0  0  0  0
   -0.7911   -0.8004   -3.5209 H   0  0  0  0  0  0  0  0  0  0  0  0
    0.0872    0.7502   -3.5221 H   0  0  0  0  0  0  0  0  0  0  0  0
    0.0872   -1.2601   -1.1765 H   0  0  0  0  0  0  0  0  0  0  0  0
    0.0872    0.5720    0.2161 H   0  0  0  0  0  0  0  0  0  0  0  0
    0.8054   -0.9925    1.7684 C   0  0  0  0  0  0  0  0  0  0  0  0
    0.0872    0.3248    1.5049 C   0  0  0  0  0  3  0  0  0  0  0  0
   -1.1494    0.5034    2.3764 C   0  0  0  0  0  0  0  0  0  0  0  0
    0.1465   -1.8424    1.5744 H   0  0  0  0  0  0  0  0  0  0  0  0
    1.6875   -1.1021    1.1354 H   0  0  0  0  0  0  0  0  0  0  0  0
    1.1304   -1.0588    2.8096 H   0  0  0  0  0  0  0  0  0  0  0  0
    0.7767    1.1560    1.6765 H   0  0  0  0  0  0  0  0  0  0  0  0
   -0.8860    0.4843    3.4367 H   0  0  0  0  0  0  0  0  0  0  0  0
   -1.6497    1.4518    2.1733 H   0  0  0  0  0  0  0  0  0  0  0  0
   -1.8699   -0.2993    2.2015 H   0  0  0  0  0  0  0  0  0  0  0  0
  1  2  1  0
  1  4  1  0
  1  5  1  0
  1  6  1  0
  2  3  2  3
  2  7  1  0
  3  8  1  0
  9 10  1  0
  9 12  1  0
  9 13  1  0
  9 14  1  0
 10 11  1  0
 10 15  1  0
 11 16  1  0
 11 17  1  0
 11 18  1  0
M  RAD  1  10   2
M  END
>  <reaction>  (7) 
rmg_rxn_16521

>  <mol_properties>  (7) 
{"1": {"label": "*0", "atom_type": "Cd"}, "2": {"label": "*1", "atom_type": "N3d"}, "7": {"label": "*2", "atom_type": "H0"}, "8": {"label": "*4", "atom_type": "Cs"}, "9": {"label": "*3", "atom_type": "Cs"}}

>  <type>  (7) 
unop_3

>  <geom_source>  (7) 
Heuristics

$$$$

     RDKit          3D

 18 16  0  0  0  0  0  0  0  0999 V2000
   -0.1442   -0.4334   -3.1967 C   0  0  0  0  0  0  0  0  0  0  0  0
   -0.1442   -0.4334   -1.7044 C   0  0  0  0  0  0  0  0  0  0  0  0
   -0.1442    0.6392   -1.0367 N   0  0  0  0  0  0  0  0  0  0  0  0
    0.7341   -0.9634   -3.5741 H   0  0  0  0  0  0  0  0  0  0  0  0
   -1.0225   -0.9634   -3.5741 H   0  0  0  0  0  0  0  0  0  0  0  0
   -0.1442    0.5872   -3.5753 H   0  0  0  0  0  0  0  0  0  0  0  0
   -0.1442   -1.4231   -1.2297 H   0  0  0  0  0  0  0  0  0  0  0  0
   -0.1442    0.4091    0.1629 H   0  0  0  0  0  0  0  0  0  0  0  0
    0.5740    1.2880    2.1840 C   0  0  0  0  0  0  0  0  0  0  0  0
   -0.1442    0.1618    1.4516 C   0  0  0  0  0  3  0  0  0  0  0  0
   -0.0101   -1.1792    2.1618 C   0  0  0  0  0  0  0  0  0  0  0  0
    1.6419    1.0754    2.2762 H   0  0  0  0  0  0  0  0  0  0  0  0
    0.4667    2.2395    1.6606 H   0  0  0  0  0  0  0  0  0  0  0  0
    0.1750    1.4144    3.1934 H   0  0  0  0  0  0  0  0  0  0  0  0
   -1.2031    0.4135    1.3460 H   0  0  0  0  0  0  0  0  0  0  0  0
   -0.4275   -1.1305    3.1704 H   0  0  0  0  0  0  0  0  0  0  0  0
   -0.5306   -1.9725    1.6226 H   0  0  0  0  0  0  0  0  0  0  0  0
    1.0393   -1.4695    2.2533 H   0  0  0  0  0  0  0  0  0  0  0  0
  1  2  1  0
  1  4  1  0
  1  5  1  0
  1  6  1  0
  2  3  2  3
  2  7  1  0
  3  8  1  0
  9 10  1  0
  9 12  1  0
  9 13  1  0
  9 14  1  0
 10 11  1  0
 10 15  1  0
 11 16  1  0
 11 17  1  0
 11 18  1  0
M  RAD  1  10   2
M  END
>  <reaction>  (8) 
rmg_rxn_16521

>  <mol_properties>  (8) 
{"1": {"label": "*0", "atom_type": "Cd"}, "2": {"label": "*1", "atom_type": "N3d"}, "7": {"label": "*2", "atom_type": "H0"}, "8": {"label": "*4", "atom_type": "Cs"}, "9": {"label": "*3", "atom_type": "Cs"}}

>  <type>  (8) 
unop_4

>  <geom_source>  (8) 
Heuristics

$$$$

     RDKit          3D

 18 16  0  0  0  0  0  0  0  0999 V2000
    0.2596   -0.5957   -3.0251 C   0  0  0  0  0  0  0  0  0  0  0  0
    0.2596   -0.5957   -1.5328 C   0  0  0  0  0  0  0  0  0  0  0  0
    0.2596    0.4769   -0.8651 N   0  0  0  0  0  0  0  0  0  0  0  0
    1.1379   -1.1257   -3.4025 H   0  0  0  0  0  0  0  0  0  0  0  0
   -0.6186   -1.1257   -3.4025 H   0  0  0  0  0  0  0  0  0  0  0  0
    0.2596    0.4249   -3.4037 H   0  0  0  0  0  0  0  0  0  0  0  0
    0.2596   -1.5854   -1.0581 H   0  0  0  0  0  0  0  0  0  0  0  0
    0.2596    0.2468    0.3345 H   0  0  0  0  0  0  0  0  0  0  0  0
   -0.9844   -0.8014    1.9859 C   0  0  0  0  0  0  0  0  0  0  0  0
    0.2596   -0.0005    1.6232 C   0  0  0  0  0  3  0  0  0  0  0  0
    0.0381    1.5035    1.7206 C   0  0  0  0  0  0  0  0  0  0  0  0
   -1.8163   -0.5527    1.3225 H   0  0  0  0  0  0  0  0  0  0  0  0
   -0.8062   -1.8754    1.9103 H   0  0  0  0  0  0  0  0  0  0  0  0
   -1.3031   -0.5863    3.0087 H   0  0  0  0  0  0  0  0  0  0  0  0
    1.0837   -0.2904    2.2809 H   0  0  0  0  0  0  0  0  0  0  0  0
   -0.2483    1.7913    2.7350 H   0  0  0  0  0  0  0  0  0  0  0  0
    0.9395    2.0596    1.4573 H   0  0  0  0  0  0  0  0  0  0  0  0
   -0.7615    1.8249    1.0488 H   0  0  0  0  0  0  0  0  0  0  0  0
  1  2  1  0
  1  4  1  0
  1  5  1  0
  1  6  1  0
  2  3  2  3
  2  7  1  0
  3  8  1  0
  9 10  1  0
  9 12  1  0
  9 13  1  0
  9 14  1  0
 10 11  1  0
 10 15  1  0
 11 16  1  0
 11 17  1  0
 11 18  1  0
M  RAD  1  10   2
M  END
>  <reaction>  (9) 
rmg_rxn_16521

>  <mol_properties>  (9) 
{"1": {"label": "*0", "atom_type": "Cd"}, "2": {"label": "*1", "atom_type": "N3d"}, "7": {"label": "*2", "atom_type": "H0"}, "8": {"label": "*4", "atom_type": "Cs"}, "9": {"label": "*3", "atom_type": "Cs"}}

>  <type>  (9) 
unop_5

>  <geom_source>  (9) 
Heuristics

$$$$

     RDKit          3D

 18 16  0  0  0  0  0  0  0  0999 V2000
   -0.2082   -0.5431   -3.1403 C   0  0  0  0  0  0  0  0  0  0  0  0
   -0.2082   -0.5431   -1.6480 C   0  0  0  0  0  0  0  0  0  0  0  0
   -0.2082    0.5295   -0.9803 N   0  0  0  0  0  0  0  0  0  0  0  0
    0.6700   -1.0731   -3.5177 H   0  0  0  0  0  0  0  0  0  0  0  0
   -1.0865   -1.0731   -3.5177 H   0  0  0  0  0  0  0  0  0  0  0  0
   -0.2082    0.4775   -3.5189 H   0  0  0  0  0  0  0  0  0  0  0  0
   -0.2082   -1.5328   -1.1733 H   0  0  0  0  0  0  0  0  0  0  0  0
   -0.2082    0.2994    0.2193 H   0  0  0  0  0  0  0  0  0  0  0  0
   -0.2082    1.3673    2.2767 C   0  0  0  0  0  0  0  0  0  0  0  0
   -0.2082    0.0521    1.5080 C   0  0  0  0  0  3  0  0  0  0  0  0
    0.9841   -0.8303    1.8550 C   0  0  0  0  0  0  0  0  0  0  0  0
    0.6950    1.9443    2.0636 H   0  0  0  0  0  0  0  0  0  0  0  0
   -1.0690    1.9850    2.0149 H   0  0  0  0  0  0  0  0  0  0  0  0
   -0.2391    1.1898    3.3545 H   0  0  0  0  0  0  0  0  0  0  0  0
   -1.1349   -0.4903    1.7148 H   0  0  0  0  0  0  0  0  0  0  0  0
    0.9907   -1.0770    2.9195 H   0  0  0  0  0  0  0  0  0  0  0  0
    0.9665   -1.7668    1.2950 H   0  0  0  0  0  0  0  0  0  0  0  0
    1.9248   -0.3226    1.6287 H   0  0  0  0  0  0  0  0  0  0  0  0
  1  2  1  0
  1  4  1  0
  1  5  1  0
  1  6  1  0
  2  3  2  3
  2  7  1  0
  3  8  1  0
  9 10  1  0
  9 12  1  0
  9 13  1  0
  9 14  1  0
 10 11  1  0
 10 15  1  0
 11 16  1  0
 11 17  1  0
 11 18  1  0
M  RAD  1  10   2
M  END
>  <reaction>  (10) 
rmg_rxn_16521

>  <mol_properties>  (10) 
{"1": {"label": "*0", "atom_type": "Cd"}, "2": {"label": "*1", "atom_type": "N3d"}, "7": {"label": "*2", "atom_type": "H0"}, "8": {"label": "*4", "atom_type": "Cs"}, "9": {"label": "*3", "atom_type": "Cs"}}

>  <type>  (10) 
unop_6

>  <geom_source>  (10) 
Heuristics

$$$$

     RDKit          3D

 18 16  0  0  0  0  0  0  0  0999 V2000
    0.1650   -0.7098   -3.0163 C   0  0  0  0  0  0  0  0  0  0  0  0
    0.1650   -0.7098   -1.5240 C   0  0  0  0  0  0  0  0  0  0  0  0
    0.1650    0.3628   -0.8563 N   0  0  0  0  0  0  0  0  0  0  0  0
    1.0433   -1.2398   -3.3937 H   0  0  0  0  0  0  0  0  0  0  0  0
   -0.7132   -1.2398   -3.3937 H   0  0  0  0  0  0  0  0  0  0  0  0
    0.1650    0.3108   -3.3949 H   0  0  0  0  0  0  0  0  0  0  0  0
    0.1650   -1.6995   -1.0493 H   0  0  0  0  0  0  0  0  0  0  0  0
    0.1650    0.1327    0.3433 H   0  0  0  0  0  0  0  0  0  0  0  0
   -1.2714   -0.2101    2.1300 C   0  0  0  0  0  0  0  0  0  0  0  0
    0.1650   -0.1146    1.6320 C   0  0  0  0  0  3  0  0  0  0  0  0
    0.6617    1.3229    1.5457 C   0  0  0  0  0  0  0  0  0  0  0  0
   -1.9518    0.3285    1.4659 H   0  0  0  0  0  0  0  0  0  0  0  0
   -1.6088   -1.2465    2.1850 H   0  0  0  0  0  0  0  0  0  0  0  0
   -1.3693    0.2270    3.1267 H   0  0  0  0  0  0  0  0  0  0  0  0
    0.8192   -0.6865    2.2959 H   0  0  0  0  0  0  0  0  0  0  0  0
    0.6248    1.8084    2.5239 H   0  0  0  0  0  0  0  0  0  0  0  0
    1.6914    1.3707    1.1874 H   0  0  0  0  0  0  0  0  0  0  0  0
    0.0423    1.9099    0.8631 H   0  0  0  0  0  0  0  0  0  0  0  0
  1  2  1  0
  1  4  1  0
  1  5  1  0
  1  6  1  0
  2  3  2  3
  2  7  1  0
  3  8  1  0
  9 10  1  0
  9 12  1  0
  9 13  1  0
  9 14  1  0
 10 11  1  0
 10 15  1  0
 11 16  1  0
 11 17  1  0
 11 18  1  0
M  RAD  1  10   2
M  END
>  <reaction>  (11) 
rmg_rxn_16521

>  <mol_properties>  (11) 
{"1": {"label": "*0", "atom_type": "Cd"}, "2": {"label": "*1", "atom_type": "N3d"}, "7": {"label": "*2", "atom_type": "H0"}, "8": {"label": "*4", "atom_type": "Cs"}, "9": {"label": "*3", "atom_type": "Cs"}}

>  <type>  (11) 
unop_7

>  <geom_source>  (11) 
Heuristics

$$$$

     RDKit          3D

 18 16  0  0  0  0  0  0  0  0999 V2000
    0.0173   -0.7578   -3.0254 C   0  0  0  0  0  0  0  0  0  0  0  0
    0.0173   -0.7578   -1.5331 C   0  0  0  0  0  0  0  0  0  0  0  0
    0.0173    0.3149   -0.8654 N   0  0  0  0  0  0  0  0  0  0  0  0
    0.8956   -1.2878   -3.4029 H   0  0  0  0  0  0  0  0  0  0  0  0
   -0.8610   -1.2878   -3.4029 H   0  0  0  0  0  0  0  0  0  0  0  0
    0.0173    0.2628   -3.4040 H   0  0  0  0  0  0  0  0  0  0  0  0
    0.0173   -1.7475   -1.0585 H   0  0  0  0  0  0  0  0  0  0  0  0
    0.0173    0.0847    0.3342 H   0  0  0  0  0  0  0  0  0  0  0  0
   -1.2267    0.4472    2.2562 C   0  0  0  0  0  0  0  0  0  0  0  0
    0.0173   -0.1626    1.6229 C   0  0  0  0  0  3  0  0  0  0  0  0
    1.1450    0.8475    1.4541 C   0  0  0  0  0  0  0  0  0  0  0  0
   -1.6141    1.2666    1.6459 H   0  0  0  0  0  0  0  0  0  0  0  0
   -2.0225   -0.2910    2.3687 H   0  0  0  0  0  0  0  0  0  0  0  0
   -1.0028    0.8515    3.2464 H   0  0  0  0  0  0  0  0  0  0  0  0
    0.3658   -0.9981    2.2363 H   0  0  0  0  0  0  0  0  0  0  0  0
    1.4437    1.2644    2.4190 H   0  0  0  0  0  0  0  0  0  0  0  0
    2.0265    0.3924    0.9994 H   0  0  0  0  0  0  0  0  0  0  0  0
    0.8323    1.6795    0.8185 H   0  0  0  0  0  0  0  0  0  0  0  0
  1  2  1  0
  1  4  1  0
  1  5  1  0
  1  6  1  0
  2  3  2  3
  2  7  1  0
  3  8  1  0
  9 10  1  0
  9 12  1  0
  9 13  1  0
  9 14  1  0
 10 11  1  0
 10 15  1  0
 11 16  1  0
 11 17  1  0
 11 18  1  0
M  RAD  1  10   2
M  END
>  <reaction>  (12) 
rmg_rxn_16521

>  <mol_properties>  (12) 
{"1": {"label": "*0", "atom_type": "Cd"}, "2": {"label": "*1", "atom_type": "N3d"}, "7": {"label": "*2", "atom_type": "H0"}, "8": {"label": "*4", "atom_type": "Cs"}, "9": {"label": "*3", "atom_type": "Cs"}}

>  <type>  (12) 
unop_8

>  <geom_source>  (12) 
Heuristics

$$$$

     RDKit          3D

 18 16  0  0  0  0  0  0  0  0999 V2000
   -0.0779   -0.3452   -3.1977 C   0  0  0  0  0  0  0  0  0  0  0  0
   -0.0779   -0.3452   -1.7053 C   0  0  0  0  0  0  0  0  0  0  0  0
   -0.0779    0.7274   -1.0377 N   0  0  0  0  0  0  0  0  0  0  0  0
    0.8004   -0.8752   -3.5751 H   0  0  0  0  0  0  0  0  0  0  0  0
   -0.9562   -0.8752   -3.5751 H   0  0  0  0  0  0  0  0  0  0  0  0
   -0.0779    0.6754   -3.5763 H   0  0  0  0  0  0  0  0  0  0  0  0
   -0.0779   -1.3349   -1.2307 H   0  0  0  0  0  0  0  0  0  0  0  0
   -0.0779    0.4973    0.1619 H   0  0  0  0  0  0  0  0  0  0  0  0
    1.3586    0.1545    1.9487 C   0  0  0  0  0  0  0  0  0  0  0  0
   -0.0779    0.2500    1.4507 C   0  0  0  0  0  3  0  0  0  0  0  0
   -1.0734   -0.4002    2.4028 C   0  0  0  0  0  0  0  0  0  0  0  0
    1.6610   -0.8884    2.0713 H   0  0  0  0  0  0  0  0  0  0  0  0
    2.0562    0.6253    1.2539 H   0  0  0  0  0  0  0  0  0  0  0  0
    1.4693    0.6457    2.9184 H   0  0  0  0  0  0  0  0  0  0  0  0
   -0.3443    1.3008    1.3073 H   0  0  0  0  0  0  0  0  0  0  0  0
   -1.0394    0.0735    3.3869 H   0  0  0  0  0  0  0  0  0  0  0  0
   -2.0958   -0.3217    2.0293 H   0  0  0  0  0  0  0  0  0  0  0  0
   -0.8477   -1.4605    2.5398 H   0  0  0  0  0  0  0  0  0  0  0  0
  1  2  1  0
  1  4  1  0
  1  5  1  0
  1  6  1  0
  2  3  2  3
  2  7  1  0
  3  8  1  0
  9 10  1  0
  9 12  1  0
  9 13  1  0
  9 14  1  0
 10 11  1  0
 10 15  1  0
 11 16  1  0
 11 17  1  0
 11 18  1  0
M  RAD  1  10   2
M  END
>  <reaction>  (13) 
rmg_rxn_16521

>  <mol_properties>  (13) 
{"1": {"label": "*0", "atom_type": "Cd"}, "2": {"label": "*1", "atom_type": "N3d"}, "7": {"label": "*2", "atom_type": "H0"}, "8": {"label": "*4", "atom_type": "Cs"}, "9": {"label": "*3", "atom_type": "Cs"}}

>  <type>  (13) 
unop_9

>  <geom_source>  (13) 
Heuristics

$$$$

     RDKit          3D

 18 16  0  0  0  0  0  0  0  0999 V2000
   -3.1108    0.0270    0.2030 C   0  0  0  0  0  0  0  0  0  0  0  0
   -1.6257    0.2052    0.0921 C   0  0  0  0  0  0  0  0  0  0  0  0
   -0.8891   -0.6434   -0.4303 N   0  0  0  0  0  0  0  0  0  0  0  0
   -3.6124    0.8417   -0.3171 H   0  0  0  0  0  0  0  0  0  0  0  0
   -3.4096   -0.9234   -0.2296 H   0  0  0  0  0  0  0  0  0  0  0  0
   -3.4017    0.0614    1.2518 H   0  0  0  0  0  0  0  0  0  0  0  0
   -1.2659    1.1558    0.5165 H   0  0  0  0  0  0  0  0  0  0  0  0
    0.3255   -0.3564   -0.4491 H   0  0  0  0  0  0  0  0  0  0  0  0
    2.2819   -1.0390    0.4163 C   0  0  0  0  0  0  0  0  0  0  0  0
    1.5812   -0.0153   -0.4400 C   0  0  0  0  0  3  0  0  0  0  0  0
    1.6615    1.3980    0.0774 C   0  0  0  0  0  0  0  0  0  0  0  0
    1.9252   -0.9918    1.4437 H   0  0  0  0  0  0  0  0  0  0  0  0
    2.1076   -2.0423    0.0354 H   0  0  0  0  0  0  0  0  0  0  0  0
    3.3604   -0.8621    0.4270 H   0  0  0  0  0  0  0  0  0  0  0  0
    1.8646   -0.0880   -1.4886 H   0  0  0  0  0  0  0  0  0  0  0  0
    2.6958    1.7516    0.0754 H   0  0  0  0  0  0  0  0  0  0  0  0
    1.0778    2.0753   -0.5437 H   0  0  0  0  0  0  0  0  0  0  0  0
    1.2963    1.4566    1.1021 H   0  0  0  0  0  0  0  0  0  0  0  0
  1  2  1  0
  1  4  1  0
  1  5  1  0
  1  6  1  0
  2  3  2  3
  2  7  1  0
  3  8  1  0
  9 10  1  0
  9 12  1  0
  9 13  1  0
  9 14  1  0
 10 11  1  0
 10 15  1  0
 11 16  1  0
 11 17  1  0
 11 18  1  0
M  RAD  1  10   2
M  END
>  <reaction>  (14) 
rmg_rxn_16521

>  <mol_properties>  (14) 
{"1": {"label": "*0", "atom_type": "Cd"}, "2": {"label": "*1", "atom_type": "N3d"}, "7": {"label": "*2", "atom_type": "H0"}, "8": {"label": "*4", "atom_type": "Cs"}, "9": {"label": "*3", "atom_type": "Cs"}}

>  <type>  (14) 
unop_10

>  <geom_source>  (14) 
Heuristics

$$$$

     RDKit          3D

 18 16  0  0  0  0  0  0  0  0999 V2000
    0.2771   -0.4511   -3.0536 C   0  0  0  0  0  0  0  0  0  0  0  0
    0.2771   -0.4511   -1.5613 C   0  0  0  0  0  0  0  0  0  0  0  0
    0.2771    0.6215   -0.8936 N   0  0  0  0  0  0  0  0  0  0  0  0
    1.1554   -0.9811   -3.4310 H   0  0  0  0  0  0  0  0  0  0  0  0
   -0.6011   -0.9811   -3.4310 H   0  0  0  0  0  0  0  0  0  0  0  0
    0.2771    0.5695   -3.4322 H   0  0  0  0  0  0  0  0  0  0  0  0
    0.2771   -1.4408   -1.0866 H   0  0  0  0  0  0  0  0  0  0  0  0
    0.2771    0.3914    0.3060 H   0  0  0  0  0  0  0  0  0  0  0  0
   -0.4411   -1.1732    1.8583 C   0  0  0  0  0  0  0  0  0  0  0  0
    0.2771    0.1441    1.5947 C   0  0  0  0  0  3  0  0  0  0  0  0
   -0.5723    1.3572    1.9517 C   0  0  0  0  0  0  0  0  0  0  0  0
   -1.3624   -1.2394    1.2744 H   0  0  0  0  0  0  0  0  0  0  0  0
    0.1827   -2.0295    1.5967 H   0  0  0  0  0  0  0  0  0  0  0  0
   -0.7120   -1.2662    2.9128 H   0  0  0  0  0  0  0  0  0  0  0  0
    1.2090    0.1713    2.1663 H   0  0  0  0  0  0  0  0  0  0  0  0
   -0.8474    1.3439    3.0092 H   0  0  0  0  0  0  0  0  0  0  0  0
   -0.0413    2.2903    1.7562 H   0  0  0  0  0  0  0  0  0  0  0  0
   -1.4977    1.3707    1.3708 H   0  0  0  0  0  0  0  0  0  0  0  0
  1  2  1  0
  1  4  1  0
  1  5  1  0
  1  6  1  0
  2  3  2  3
  2  7  1  0
  3  8  1  0
  9 10  1  0
  9 12  1  0
  9 13  1  0
  9 14  1  0
 10 11  1  0
 10 15  1  0
 11 16  1  0
 11 17  1  0
 11 18  1  0
M  RAD  1  10   2
M  END
>  <reaction>  (15) 
rmg_rxn_16521

>  <mol_properties>  (15) 
{"1": {"label": "*0", "atom_type": "Cd"}, "2": {"label": "*1", "atom_type": "N3d"}, "7": {"label": "*2", "atom_type": "H0"}, "8": {"label": "*4", "atom_type": "Cs"}, "9": {"label": "*3", "atom_type": "Cs"}}

>  <type>  (15) 
unop_11

>  <geom_source>  (15) 
Heuristics

$$$$

     RDKit          3D

 18 16  0  0  0  0  0  0  0  0999 V2000
   -0.0194   -0.2911   -3.1766 C   0  0  0  0  0  0  0  0  0  0  0  0
   -0.0194   -0.2911   -1.6843 C   0  0  0  0  0  0  0  0  0  0  0  0
   -0.0194    0.7815   -1.0166 N   0  0  0  0  0  0  0  0  0  0  0  0
    0.8589   -0.8211   -3.5540 H   0  0  0  0  0  0  0  0  0  0  0  0
   -0.8976   -0.8211   -3.5540 H   0  0  0  0  0  0  0  0  0  0  0  0
   -0.0194    0.7295   -3.5552 H   0  0  0  0  0  0  0  0  0  0  0  0
   -0.0194   -1.2808   -1.2096 H   0  0  0  0  0  0  0  0  0  0  0  0
   -0.0194    0.5513    0.1830 H   0  0  0  0  0  0  0  0  0  0  0  0
    1.2246   -0.4969    1.8344 C   0  0  0  0  0  0  0  0  0  0  0  0
   -0.0194    0.3040    1.4717 C   0  0  0  0  0  3  0  0  0  0  0  0
   -1.1735    0.0642    2.4366 C   0  0  0  0  0  0  0  0  0  0  0  0
    1.0144   -1.5692    1.8281 H   0  0  0  0  0  0  0  0  0  0  0  0
    2.0396   -0.3119    1.1325 H   0  0  0  0  0  0  0  0  0  0  0  0
    1.5790   -0.2365    2.8347 H   0  0  0  0  0  0  0  0  0  0  0  0
    0.2257    1.3696    1.4552 H   0  0  0  0  0  0  0  0  0  0  0  0
   -0.8948    0.3422    3.4559 H   0  0  0  0  0  0  0  0  0  0  0  0
   -2.0546    0.6459    2.1606 H   0  0  0  0  0  0  0  0  0  0  0  0
   -1.4593   -0.9905    2.4493 H   0  0  0  0  0  0  0  0  0  0  0  0
  1  2  1  0
  1  4  1  0
  1  5  1  0
  1  6  1  0
  2  3  2  3
  2  7  1  0
  3  8  1  0
  9 10  1  0
  9 12  1  0
  9 13  1  0
  9 14  1  0
 10 11  1  0
 10 15  1  0
 11 16  1  0
 11 17  1  0
 11 18  1  0
M  RAD  1  10   2
M  END
>  <reaction>  (16) 
rmg_rxn_16521

>  <mol_properties>  (16) 
{"1": {"label": "*0", "atom_type": "Cd"}, "2": {"label": "*1", "atom_type": "N3d"}, "7": {"label": "*2", "atom_type": "H0"}, "8": {"label": "*4", "atom_type": "Cs"}, "9": {"label": "*3", "atom_type": "Cs"}}

>  <type>  (16) 
unop_12

>  <geom_source>  (16) 
Heuristics

$$$$

     RDKit          3D

 18 16  0  0  0  0  0  0  0  0999 V2000
   -0.1426   -0.7037   -3.0622 C   0  0  0  0  0  0  0  0  0  0  0  0
   -0.1426   -0.7037   -1.5699 C   0  0  0  0  0  0  0  0  0  0  0  0
   -0.1426    0.3689   -0.9022 N   0  0  0  0  0  0  0  0  0  0  0  0
    0.7357   -1.2337   -3.4396 H   0  0  0  0  0  0  0  0  0  0  0  0
   -1.0208   -1.2337   -3.4396 H   0  0  0  0  0  0  0  0  0  0  0  0
   -0.1426    0.3169   -3.4408 H   0  0  0  0  0  0  0  0  0  0  0  0
   -0.1426   -1.6934   -1.0952 H   0  0  0  0  0  0  0  0  0  0  0  0
   -0.1426    0.1387    0.2974 H   0  0  0  0  0  0  0  0  0  0  0  0
   -0.8608    1.0176    2.3185 C   0  0  0  0  0  0  0  0  0  0  0  0
   -0.1426   -0.1086    1.5861 C   0  0  0  0  0  3  0  0  0  0  0  0
    1.3654    0.0985    1.5262 C   0  0  0  0  0  0  0  0  0  0  0  0
   -0.6847    1.9777    1.8274 H   0  0  0  0  0  0  0  0  0  0  0  0
   -1.9389    0.8515    2.3510 H   0  0  0  0  0  0  0  0  0  0  0  0
   -0.5043    1.1040    3.3478 H   0  0  0  0  0  0  0  0  0  0  0  0
   -0.3600   -1.0602    2.0790 H   0  0  0  0  0  0  0  0  0  0  0  0
    1.7921    0.1559    2.5305 H   0  0  0  0  0  0  0  0  0  0  0  0
    1.8618   -0.7175    0.9983 H   0  0  0  0  0  0  0  0  0  0  0  0
    1.6117    1.0297    1.0100 H   0  0  0  0  0  0  0  0  0  0  0  0
  1  2  1  0
  1  4  1  0
  1  5  1  0
  1  6  1  0
  2  3  2  3
  2  7  1  0
  3  8  1  0
  9 10  1  0
  9 12  1  0
  9 13  1  0
  9 14  1  0
 10 11  1  0
 10 15  1  0
 11 16  1  0
 11 17  1  0
 11 18  1  0
M  RAD  1  10   2
M  END
>  <reaction>  (17) 
rmg_rxn_16521

>  <mol_properties>  (17) 
{"1": {"label": "*0", "atom_type": "Cd"}, "2": {"label": "*1", "atom_type": "N3d"}, "7": {"label": "*2", "atom_type": "H0"}, "8": {"label": "*4", "atom_type": "Cs"}, "9": {"label": "*3", "atom_type": "Cs"}}

>  <type>  (17) 
unop_13

>  <geom_source>  (17) 
Heuristics

$$$$

     RDKit          3D

 18 16  0  0  0  0  0  0  0  0999 V2000
    0.2082   -0.3252   -3.0985 C   0  0  0  0  0  0  0  0  0  0  0  0
    0.2082   -0.3252   -1.6062 C   0  0  0  0  0  0  0  0  0  0  0  0
    0.2082    0.7475   -0.9385 N   0  0  0  0  0  0  0  0  0  0  0  0
    1.0865   -0.8552   -3.4759 H   0  0  0  0  0  0  0  0  0  0  0  0
   -0.6700   -0.8552   -3.4759 H   0  0  0  0  0  0  0  0  0  0  0  0
    0.2082    0.6955   -3.4771 H   0  0  0  0  0  0  0  0  0  0  0  0
    0.2082   -1.3149   -1.1315 H   0  0  0  0  0  0  0  0  0  0  0  0
    0.2082    0.5173    0.2611 H   0  0  0  0  0  0  0  0  0  0  0  0
    0.2082   -1.2363    1.7771 C   0  0  0  0  0  0  0  0  0  0  0  0
    0.2082    0.2700    1.5498 C   0  0  0  0  0  3  0  0  0  0  0  0
   -0.9841    0.9613    2.1988 C   0  0  0  0  0  0  0  0  0  0  0  0
   -0.6950   -1.6934    1.3657 H   0  0  0  0  0  0  0  0  0  0  0  0
    1.0690   -1.7132    1.3053 H   0  0  0  0  0  0  0  0  0  0  0  0
    0.2391   -1.4703    2.8441 H   0  0  0  0  0  0  0  0  0  0  0  0
    1.1349    0.6974    1.9427 H   0  0  0  0  0  0  0  0  0  0  0  0
   -0.9908    0.7965    3.2790 H   0  0  0  0  0  0  0  0  0  0  0  0
   -0.9665    2.0386    2.0251 H   0  0  0  0  0  0  0  0  0  0  0  0
   -1.9248    0.5734    1.8006 H   0  0  0  0  0  0  0  0  0  0  0  0
  1  2  1  0
  1  4  1  0
  1  5  1  0
  1  6  1  0
  2  3  2  3
  2  7  1  0
  3  8  1  0
  9 10  1  0
  9 12  1  0
  9 13  1  0
  9 14  1  0
 10 11  1  0
 10 15  1  0
 11 16  1  0
 11 17  1  0
 11 18  1  0
M  RAD  1  10   2
M  END
>  <reaction>  (18) 
rmg_rxn_16521

>  <mol_properties>  (18) 
{"1": {"label": "*0", "atom_type": "Cd"}, "2": {"label": "*1", "atom_type": "N3d"}, "7": {"label": "*2", "atom_type": "H0"}, "8": {"label": "*4", "atom_type": "Cs"}, "9": {"label": "*3", "atom_type": "Cs"}}

>  <type>  (18) 
unop_14

>  <geom_source>  (18) 
Heuristics

$$$$

     RDKit          3D

 18 16  0  0  0  0  0  0  0  0999 V2000
    0.0872   -0.2704   -3.1435 C   0  0  0  0  0  0  0  0  0  0  0  0
    0.0872   -0.2704   -1.6511 C   0  0  0  0  0  0  0  0  0  0  0  0
    0.0872    0.8022   -0.9835 N   0  0  0  0  0  0  0  0  0  0  0  0
    0.9654   -0.8004   -3.5209 H   0  0  0  0  0  0  0  0  0  0  0  0
   -0.7911   -0.8004   -3.5209 H   0  0  0  0  0  0  0  0  0  0  0  0
    0.0872    0.7502   -3.5221 H   0  0  0  0  0  0  0  0  0  0  0  0
    0.0872   -1.2601   -1.1765 H   0  0  0  0  0  0  0  0  0  0  0  0
    0.0872    0.5720    0.2161 H   0  0  0  0  0  0  0  0  0  0  0  0
    0.8054   -0.9925    1.7684 C   0  0  0  0  0  0  0  0  0  0  0  0
    0.0872    0.3247    1.5049 C   0  0  0  0  0  3  0  0  0  0  0  0
   -1.1494    0.5034    2.3764 C   0  0  0  0  0  0  0  0  0  0  0  0
    0.1465   -1.8423    1.5744 H   0  0  0  0  0  0  0  0  0  0  0  0
    1.6875   -1.1021    1.1354 H   0  0  0  0  0  0  0  0  0  0  0  0
    1.1304   -1.0588    2.8096 H   0  0  0  0  0  0  0  0  0  0  0  0
    0.7767    1.1560    1.6765 H   0  0  0  0  0  0  0  0  0  0  0  0
   -0.8860    0.4844    3.4367 H   0  0  0  0  0  0  0  0  0  0  0  0
   -1.6497    1.4518    2.1733 H   0  0  0  0  0  0  0  0  0  0  0  0
   -1.8699   -0.2993    2.2015 H   0  0  0  0  0  0  0  0  0  0  0  0
  1  2  1  0
  1  4  1  0
  1  5  1  0
  1  6  1  0
  2  3  2  3
  2  7  1  0
  3  8  1  0
  9 10  1  0
  9 12  1  0
  9 13  1  0
  9 14  1  0
 10 11  1  0
 10 15  1  0
 11 16  1  0
 11 17  1  0
 11 18  1  0
M  RAD  1  10   2
M  END
>  <reaction>  (19) 
rmg_rxn_16521

>  <mol_properties>  (19) 
{"1": {"label": "*0", "atom_type": "Cd"}, "2": {"label": "*1", "atom_type": "N3d"}, "7": {"label": "*2", "atom_type": "H0"}, "8": {"label": "*4", "atom_type": "Cs"}, "9": {"label": "*3", "atom_type": "Cs"}}

>  <type>  (19) 
unop_15

>  <geom_source>  (19) 
gaussian_log

$$$$
