
     RDKit          3D

 18 17  0  0  0  0  0  0  0  0999 V2000
    2.2026   -0.7213   -0.2612 C   0  0  0  0  0  0  0  0  0  0  0  0
    1.5384    0.2638    0.6915 C   0  0  0  0  0  0  0  0  0  0  0  0
    2.2584    1.5946    0.7694 C   0  0  0  0  0  0  0  0  0  0  0  0
    2.2212    2.2185   -0.4893 O   0  0  0  0  0  0  0  0  0  0  0  0
    2.8988    3.4488   -0.5204 C   0  0  0  0  0  0  0  0  0  0  0  0
    2.7981    4.0296   -1.9118 C   0  0  0  0  0  0  0  0  0  0  0  0
    3.2294   -0.9309    0.0486 H   0  0  0  0  0  0  0  0  0  0  0  0
    2.2338   -0.3181   -1.2734 H   0  0  0  0  0  0  0  0  0  0  0  0
    1.6610   -1.6680   -0.2875 H   0  0  0  0  0  0  0  0  0  0  0  0
    1.4990   -0.1566    1.7002 H   0  0  0  0  0  0  0  0  0  0  0  0
    0.5055    0.4455    0.3835 H   0  0  0  0  0  0  0  0  0  0  0  0
    3.3038    1.4410    1.0808 H   0  0  0  0  0  0  0  0  0  0  0  0
    1.7844    2.2410    1.5226 H   0  0  0  0  0  0  0  0  0  0  0  0
    2.4596    4.1376    0.2164 H   0  0  0  0  0  0  0  0  0  0  0  0
    3.9524    3.3035   -0.2397 H   0  0  0  0  0  0  0  0  0  0  0  0
    1.7543    4.1869   -2.1856 H   0  0  0  0  0  0  0  0  0  0  0  0
    3.2472    3.3545   -2.6411 H   0  0  0  0  0  0  0  0  0  0  0  0
    3.3178    4.9878   -1.9600 H   0  0  0  0  0  0  0  0  0  0  0  0
  1  2  1  0
  1  7  1  0
  1  8  1  0
  1  9  1  0
  2  3  1  0
  2 10  1  0
  2 11  1  0
  3  4  1  0
  3 12  1  0
  3 13  1  0
  4  5  1  0
  5  6  1  0
  5 14  1  0
  5 15  1  0
  6 16  1  0
  6 17  1  0
  6 18  1  0
M  END
>  <reaction>  (1) 
rmg_rxn_15421

>  <mol_properties>  (1) 
{"1": {"label": "donator", "atom_type": "Cs"}, "9": {"label": "d_hydrogen", "atom_type": "H0"}}

>  <type>  (1) 
r1h

$$$$

     RDKit          3D

  5  4  0  0  0  0  0  0  0  0999 V2000
    0.8934    0.3742    0.4948 O   0  0  0  0  0  0  0  0  0  0  0  0
    0.1582   -0.1610   -0.5904 N   0  0  0  0  0  0  0  0  0  0  0  0
   -1.0297   -0.3739   -0.4689 C   0  0  0  0  0  3  0  0  0  0  0  0
    1.7805    0.4382    0.1306 H   0  0  0  0  0  0  0  0  0  0  0  0
   -1.8023   -0.2775    0.2859 H   0  0  0  0  0  0  0  0  0  0  0  0
  1  2  1  0
  1  4  1  0
  2  3  2  3
  3  5  1  0
M  RAD  1   3   2
M  END
>  <reaction>  (2) 
rmg_rxn_15421

>  <mol_properties>  (2) 
{"2": {"label": "acceptor", "atom_type": "Cd"}}

>  <type>  (2) 
r2

$$$$

     RDKit          3D

  6  5  0  0  0  0  0  0  0  0999 V2000
    1.2314    0.0428    0.5088 O   0  0  0  0  0  0  0  0  0  0  0  0
    0.2987    0.2341   -0.4915 N   0  0  0  0  0  0  0  0  0  0  0  0
   -0.8599   -0.1122   -0.1290 C   0  0  0  0  0  0  0  0  0  0  0  0
    2.0507    0.3401    0.1082 H   0  0  0  0  0  0  0  0  0  0  0  0
   -1.0700   -0.5112    0.8610 H   0  0  0  0  0  0  0  0  0  0  0  0
   -1.6509    0.0064   -0.8574 H   0  0  0  0  0  0  0  0  0  0  0  0
  1  2  1  0
  1  4  1  0
  2  3  2  3
  3  5  1  0
  3  6  1  0
M  END
>  <reaction>  (3) 
rmg_rxn_15421

>  <mol_properties>  (3) 
{"2": {"label": "acceptor", "atom_type": "Cd"}, "5": {"label": "a_hydrogen", "atom_type": "H0"}}

>  <type>  (3) 
r2h

$$$$

     RDKit          3D

 23 21  0  0  0  0  0  0  0  0999 V2000
    3.7183   -1.5766    1.1293 O   0  0  0  0  0  0  0  0  0  0  0  0
    2.4569   -1.1203    0.7254 N   0  0  0  0  0  0  0  0  0  0  0  0
    1.6432   -2.0289    0.4805 C   0  0  0  0  0  3  0  0  0  0  0  0
    4.2039   -0.7608    1.2714 H   0  0  0  0  0  0  0  0  0  0  0  0
    1.8049   -3.1049    0.5455 H   0  0  0  0  0  0  0  0  0  0  0  0
   -0.7399   -1.1239   -1.8212 C   0  0  0  0  0  0  0  0  0  0  0  0
   -0.6867   -0.9673   -0.3232 C   0  0  0  0  0  0  0  0  0  0  0  0
   -0.5465    0.4437    0.1813 C   0  0  0  0  0  0  0  0  0  0  0  0
   -1.7070    1.1695   -0.1544 O   0  0  0  0  0  0  0  0  0  0  0  0
   -1.6534    2.5136    0.2562 C   0  0  0  0  0  0  0  0  0  0  0  0
   -2.9349    3.2017   -0.1529 C   0  0  0  0  0  0  0  0  0  0  0  0
    0.1353   -0.6688   -2.2905 H   0  0  0  0  0  0  0  0  0  0  0  0
   -1.6283   -0.6307   -2.2232 H   0  0  0  0  0  0  0  0  0  0  0  0
   -0.7760   -2.1749   -2.1117 H   0  0  0  0  0  0  0  0  0  0  0  0
    0.3744   -1.5367    0.0714 H   0  0  0  0  0  0  0  0  0  0  0  0
   -1.4769   -1.5107    0.1971 H   0  0  0  0  0  0  0  0  0  0  0  0
    0.3401    0.9147   -0.2680 H   0  0  0  0  0  0  0  0  0  0  0  0
   -0.3991    0.4458    1.2702 H   0  0  0  0  0  0  0  0  0  0  0  0
   -1.5187    2.5669    1.3465 H   0  0  0  0  0  0  0  0  0  0  0  0
   -0.7860    3.0102   -0.2023 H   0  0  0  0  0  0  0  0  0  0  0  0
   -3.7943    2.7177    0.3126 H   0  0  0  0  0  0  0  0  0  0  0  0
   -3.0616    3.1615   -1.2353 H   0  0  0  0  0  0  0  0  0  0  0  0
   -2.9169    4.2482    0.1556 H   0  0  0  0  0  0  0  0  0  0  0  0
  1  2  1  0
  1  4  1  0
  2  3  2  3
  3  5  1  0
  6  7  1  0
  6 12  1  0
  6 13  1  0
  6 14  1  0
  7  8  1  0
  7 15  1  0
  7 16  1  0
  8  9  1  0
  8 17  1  0
  8 18  1  0
  9 10  1  0
 10 11  1  0
 10 19  1  0
 10 20  1  0
 11 21  1  0
 11 22  1  0
 11 23  1  0
M  RAD  1   3   2
M  END
>  <reaction>  (4) 
rmg_rxn_15421

>  <mol_properties>  (4) 
{"1": {"label": "*4", "atom_type": "N3d"}, "2": {"label": "*3", "atom_type": "Cd"}, "6": {"label": "*1", "atom_type": "Cs"}, "7": {"label": "*0", "atom_type": "Cs"}, "14": {"label": "*2", "atom_type": "H0"}}

>  <type>  (4) 
ts

$$$$

     RDKit          3D

 23 21  0  0  0  0  0  0  0  0999 V2000
    3.3451   -0.2402    0.1580 O   0  0  0  0  0  0  0  0  0  0  0  0
    1.9954    0.1696    0.2257 N   0  0  0  0  0  0  0  0  0  0  0  0
    1.4573    0.6837   -0.7636 C   0  0  0  0  0  0  0  0  0  0  0  0
    3.5335   -0.6003    1.0354 H   0  0  0  0  0  0  0  0  0  0  0  0
    1.8729    0.8904   -1.7425 H   0  0  0  0  0  0  0  0  0  0  0  0
   -0.9401    2.7503    0.2847 C   0  0  0  0  0  0  0  0  0  0  0  0
   -1.0414    1.3813   -0.3357 C   0  0  0  0  0  3  0  0  0  0  0  0
   -1.6559    0.3349    0.5714 C   0  0  0  0  0  0  0  0  0  0  0  0
   -2.1139   -0.8193   -0.0970 O   0  0  0  0  0  0  0  0  0  0  0  0
   -1.1261   -1.6875   -0.6153 C   0  0  0  0  0  0  0  0  0  0  0  0
   -0.2793   -2.3808    0.4493 C   0  0  0  0  0  0  0  0  0  0  0  0
   -0.4070    3.4329   -0.3735 H   0  0  0  0  0  0  0  0  0  0  0  0
   -0.4128    2.7002    1.2353 H   0  0  0  0  0  0  0  0  0  0  0  0
   -1.9322    3.1670    0.4701 H   0  0  0  0  0  0  0  0  0  0  0  0
    0.2106    1.0187   -0.5693 H   0  0  0  0  0  0  0  0  0  0  0  0
   -1.5121    1.3903   -1.3175 H   0  0  0  0  0  0  0  0  0  0  0  0
   -2.5625    0.7447    1.0374 H   0  0  0  0  0  0  0  0  0  0  0  0
   -0.9543    0.0781    1.3776 H   0  0  0  0  0  0  0  0  0  0  0  0
   -1.7008   -2.4314   -1.1739 H   0  0  0  0  0  0  0  0  0  0  0  0
   -0.4705   -1.1550   -1.3183 H   0  0  0  0  0  0  0  0  0  0  0  0
    0.3002   -3.1737   -0.0154 H   0  0  0  0  0  0  0  0  0  0  0  0
   -0.9217   -2.8128    1.2127 H   0  0  0  0  0  0  0  0  0  0  0  0
    0.4092   -1.6792    0.9136 H   0  0  0  0  0  0  0  0  0  0  0  0
  1  2  1  0
  1  4  1  0
  2  3  2  3
  3  5  1  0
  3 15  1  0
  6  7  1  0
  6 12  1  0
  6 13  1  0
  6 14  1  0
  7  8  1  0
  7 16  1  0
  8  9  1  0
  8 17  1  0
  8 18  1  0
  9 10  1  0
 10 11  1  0
 10 19  1  0
 10 20  1  0
 11 21  1  0
 11 22  1  0
 11 23  1  0
M  RAD  1   7   2
M  END
>  <reaction>  (5) 
rmg_rxn_15421

>  <mol_properties>  (5) 
{"1": {"label": "*4", "atom_type": "N3d"}, "2": {"label": "*3", "atom_type": "Cd"}, "6": {"label": "*1", "atom_type": "Cs"}, "7": {"label": "*0", "atom_type": "Cs"}, "14": {"label": "*2", "atom_type": "H0"}}

>  <type>  (5) 
unop_1

>  <geom_source>  (5) 
crest_best.xyz

$$$$

     RDKit          3D

 23 21  0  0  0  0  0  0  0  0999 V2000
    2.9401   -2.1663    2.0740 O   0  0  0  0  0  0  0  0  0  0  0  0
    2.5090   -1.4436    0.9791 N   0  0  0  0  0  0  0  0  0  0  0  0
    1.7189   -2.1104    0.2547 C   0  0  0  0  0  0  0  0  0  0  0  0
    3.5216   -1.5541    2.5291 H   0  0  0  0  0  0  0  0  0  0  0  0
    1.4290   -3.1324    0.4894 H   0  0  0  0  0  0  0  0  0  0  0  0
   -0.3854   -0.8536   -2.1664 C   0  0  0  0  0  0  0  0  0  0  0  0
   -0.3854   -0.8536   -0.6435 C   0  0  0  0  0  3  0  0  0  0  0  0
   -0.3854    0.5394   -0.0480 C   0  0  0  0  0  0  0  0  0  0  0  0
   -1.5684    1.2030   -0.4156 O   0  0  0  0  0  0  0  0  0  0  0  0
   -1.6391    2.5211    0.0653 C   0  0  0  0  0  0  0  0  0  0  0  0
   -2.9424    3.1389   -0.3855 C   0  0  0  0  0  0  0  0  0  0  0  0
    0.4967   -0.3393   -2.5560 H   0  0  0  0  0  0  0  0  0  0  0  0
   -1.2681   -0.3439   -2.5525 H   0  0  0  0  0  0  0  0  0  0  0  0
   -0.3799   -1.8715   -2.5591 H   0  0  0  0  0  0  0  0  0  0  0  0
    0.6724   -1.4854   -0.1920 H   0  0  0  0  0  0  0  0  0  0  0  0
   -1.2598   -1.3916   -0.2682 H   0  0  0  0  0  0  0  0  0  0  0  0
    0.4888    1.1045   -0.4084 H   0  0  0  0  0  0  0  0  0  0  0  0
   -0.3106    0.4855    1.0480 H   0  0  0  0  0  0  0  0  0  0  0  0
   -1.5719    2.5240    1.1634 H   0  0  0  0  0  0  0  0  0  0  0  0
   -0.7862    3.1041   -0.3126 H   0  0  0  0  0  0  0  0  0  0  0  0
   -3.7888    2.5695    0.0001 H   0  0  0  0  0  0  0  0  0  0  0  0
   -3.0032    3.1507   -1.4744 H   0  0  0  0  0  0  0  0  0  0  0  0
   -3.0200    4.1649   -0.0225 H   0  0  0  0  0  0  0  0  0  0  0  0
  1  2  1  0
  1  4  1  0
  2  3  2  3
  3  5  1  0
  3 15  1  0
  6  7  1  0
  6 12  1  0
  6 13  1  0
  6 14  1  0
  7  8  1  0
  7 16  1  0
  8  9  1  0
  8 17  1  0
  8 18  1  0
  9 10  1  0
 10 11  1  0
 10 19  1  0
 10 20  1  0
 11 21  1  0
 11 22  1  0
 11 23  1  0
M  RAD  1   7   2
M  END
>  <reaction>  (6) 
rmg_rxn_15421

>  <mol_properties>  (6) 
{"1": {"label": "*4", "atom_type": "N3d"}, "2": {"label": "*3", "atom_type": "Cd"}, "6": {"label": "*1", "atom_type": "Cs"}, "7": {"label": "*0", "atom_type": "Cs"}, "14": {"label": "*2", "atom_type": "H0"}}

>  <type>  (6) 
unop_2

>  <geom_source>  (6) 
Heuristics

$$$$

     RDKit          3D

 23 21  0  0  0  0  0  0  0  0999 V2000
    3.3454   -0.2403    0.1580 O   0  0  0  0  0  0  0  0  0  0  0  0
    1.9956    0.1691    0.2255 N   0  0  0  0  0  0  0  0  0  0  0  0
    1.4579    0.6846   -0.7632 C   0  0  0  0  0  0  0  0  0  0  0  0
    3.5335   -0.6015    1.0350 H   0  0  0  0  0  0  0  0  0  0  0  0
    1.8736    0.8931   -1.7417 H   0  0  0  0  0  0  0  0  0  0  0  0
   -0.9408    2.7506    0.2849 C   0  0  0  0  0  0  0  0  0  0  0  0
   -1.0411    1.3815   -0.3355 C   0  0  0  0  0  3  0  0  0  0  0  0
   -1.6556    0.3349    0.5714 C   0  0  0  0  0  0  0  0  0  0  0  0
   -2.1137   -0.8191   -0.0974 O   0  0  0  0  0  0  0  0  0  0  0  0
   -1.1262   -1.6876   -0.6155 C   0  0  0  0  0  0  0  0  0  0  0  0
   -0.2802   -2.3817    0.4493 C   0  0  0  0  0  0  0  0  0  0  0  0
   -0.4142    2.7007    1.2359 H   0  0  0  0  0  0  0  0  0  0  0  0
   -1.9333    3.1669    0.4696 H   0  0  0  0  0  0  0  0  0  0  0  0
   -0.4077    3.4335   -0.3730 H   0  0  0  0  0  0  0  0  0  0  0  0
    0.2110    1.0194   -0.5688 H   0  0  0  0  0  0  0  0  0  0  0  0
   -1.5113    1.3903   -1.3175 H   0  0  0  0  0  0  0  0  0  0  0  0
   -2.5622    0.7446    1.0376 H   0  0  0  0  0  0  0  0  0  0  0  0
   -0.9540    0.0778    1.3774 H   0  0  0  0  0  0  0  0  0  0  0  0
   -1.7010   -2.4311   -1.1744 H   0  0  0  0  0  0  0  0  0  0  0  0
   -0.4700   -1.1554   -1.3181 H   0  0  0  0  0  0  0  0  0  0  0  0
    0.4081   -1.6804    0.9145 H   0  0  0  0  0  0  0  0  0  0  0  0
    0.2995   -3.1744   -0.0154 H   0  0  0  0  0  0  0  0  0  0  0  0
   -0.9232   -2.8140    1.2121 H   0  0  0  0  0  0  0  0  0  0  0  0
  1  2  1  0
  1  4  1  0
  2  3  2  3
  3  5  1  0
  3 15  1  0
  6  7  1  0
  6 12  1  0
  6 13  1  0
  6 14  1  0
  7  8  1  0
  7 16  1  0
  8  9  1  0
  8 17  1  0
  8 18  1  0
  9 10  1  0
 10 11  1  0
 10 19  1  0
 10 20  1  0
 11 21  1  0
 11 22  1  0
 11 23  1  0
M  RAD  1   7   2
M  END
>  <reaction>  (7) 
rmg_rxn_15421

>  <mol_properties>  (7) 
{"1": {"label": "*4", "atom_type": "N3d"}, "2": {"label": "*3", "atom_type": "Cd"}, "6": {"label": "*1", "atom_type": "Cs"}, "7": {"label": "*0", "atom_type": "Cs"}, "14": {"label": "*2", "atom_type": "H0"}}

>  <type>  (7) 
unop_3

>  <geom_source>  (7) 
Heuristics

$$$$

     RDKit          3D

 23 21  0  0  0  0  0  0  0  0999 V2000
    3.3442    0.2420   -0.1586 O   0  0  0  0  0  0  0  0  0  0  0  0
    1.9959   -0.1727   -0.2261 N   0  0  0  0  0  0  0  0  0  0  0  0
    1.4560   -0.6780    0.7666 C   0  0  0  0  0  0  0  0  0  0  0  0
    3.5342    0.5931   -1.0393 H   0  0  0  0  0  0  0  0  0  0  0  0
    1.8682   -0.8737    1.7491 H   0  0  0  0  0  0  0  0  0  0  0  0
   -0.9370   -2.7509   -0.2846 C   0  0  0  0  0  0  0  0  0  0  0  0
   -1.0405   -1.3821    0.3361 C   0  0  0  0  0  3  0  0  0  0  0  0
   -1.6552   -0.3363   -0.5715 C   0  0  0  0  0  0  0  0  0  0  0  0
   -2.1140    0.8178    0.0964 O   0  0  0  0  0  0  0  0  0  0  0  0
   -1.1271    1.6870    0.6147 C   0  0  0  0  0  0  0  0  0  0  0  0
   -0.2810    2.3812   -0.4500 C   0  0  0  0  0  0  0  0  0  0  0  0
   -0.4054   -3.4336    0.3747 H   0  0  0  0  0  0  0  0  0  0  0  0
   -0.4073   -2.7002   -1.2338 H   0  0  0  0  0  0  0  0  0  0  0  0
   -1.9286   -3.1679   -0.4727 H   0  0  0  0  0  0  0  0  0  0  0  0
    0.2106   -1.0180    0.5710 H   0  0  0  0  0  0  0  0  0  0  0  0
   -1.5123   -1.3919    1.3173 H   0  0  0  0  0  0  0  0  0  0  0  0
   -2.5615   -0.7466   -1.0378 H   0  0  0  0  0  0  0  0  0  0  0  0
   -0.9534   -0.0794   -1.3775 H   0  0  0  0  0  0  0  0  0  0  0  0
   -1.7024    2.4303    1.1732 H   0  0  0  0  0  0  0  0  0  0  0  0
   -0.4708    1.1552    1.3176 H   0  0  0  0  0  0  0  0  0  0  0  0
    0.2992    3.1734    0.0150 H   0  0  0  0  0  0  0  0  0  0  0  0
   -0.9239    2.8142   -1.2124 H   0  0  0  0  0  0  0  0  0  0  0  0
    0.4068    1.6800   -0.9158 H   0  0  0  0  0  0  0  0  0  0  0  0
  1  2  1  0
  1  4  1  0
  2  3  2  3
  3  5  1  0
  3 15  1  0
  6  7  1  0
  6 12  1  0
  6 13  1  0
  6 14  1  0
  7  8  1  0
  7 16  1  0
  8  9  1  0
  8 17  1  0
  8 18  1  0
  9 10  1  0
 10 11  1  0
 10 19  1  0
 10 20  1  0
 11 21  1  0
 11 22  1  0
 11 23  1  0
M  RAD  1   7   2
M  END
>  <reaction>  (8) 
rmg_rxn_15421

>  <mol_properties>  (8) 
{"1": {"label": "*4", "atom_type": "N3d"}, "2": {"label": "*3", "atom_type": "Cd"}, "6": {"label": "*1", "atom_type": "Cs"}, "7": {"label": "*0", "atom_type": "Cs"}, "14": {"label": "*2", "atom_type": "H0"}}

>  <type>  (8) 
unop_4

>  <geom_source>  (8) 
Heuristics

$$$$

     RDKit          3D

 23 21  0  0  0  0  0  0  0  0999 V2000
    3.7396   -2.3070    0.6307 O   0  0  0  0  0  0  0  0  0  0  0  0
    2.6011   -1.9751   -0.0768 N   0  0  0  0  0  0  0  0  0  0  0  0
    1.5674   -2.0152    0.6466 C   0  0  0  0  0  0  0  0  0  0  0  0
    4.4364   -2.2380   -0.0249 H   0  0  0  0  0  0  0  0  0  0  0  0
    1.5990   -2.2829    1.7006 H   0  0  0  0  0  0  0  0  0  0  0  0
   -0.5370   -0.7584   -1.7745 C   0  0  0  0  0  0  0  0  0  0  0  0
   -0.5370   -0.7584   -0.2516 C   0  0  0  0  0  3  0  0  0  0  0  0
   -0.5370    0.6346    0.3439 C   0  0  0  0  0  0  0  0  0  0  0  0
   -1.7200    1.2982   -0.0237 O   0  0  0  0  0  0  0  0  0  0  0  0
   -1.7907    2.6163    0.4572 C   0  0  0  0  0  0  0  0  0  0  0  0
   -3.0940    3.2341    0.0064 C   0  0  0  0  0  0  0  0  0  0  0  0
    0.3451   -0.2441   -2.1641 H   0  0  0  0  0  0  0  0  0  0  0  0
   -1.4197   -0.2487   -2.1606 H   0  0  0  0  0  0  0  0  0  0  0  0
   -0.5315   -1.7763   -2.1672 H   0  0  0  0  0  0  0  0  0  0  0  0
    0.5209   -1.3902    0.1999 H   0  0  0  0  0  0  0  0  0  0  0  0
   -1.4113   -1.2964    0.1237 H   0  0  0  0  0  0  0  0  0  0  0  0
    0.3372    1.1997   -0.0165 H   0  0  0  0  0  0  0  0  0  0  0  0
   -0.4622    0.5807    1.4399 H   0  0  0  0  0  0  0  0  0  0  0  0
   -1.7234    2.6191    1.5553 H   0  0  0  0  0  0  0  0  0  0  0  0
   -0.9378    3.1993    0.0793 H   0  0  0  0  0  0  0  0  0  0  0  0
   -3.9404    2.6647    0.3920 H   0  0  0  0  0  0  0  0  0  0  0  0
   -3.1548    3.2459   -1.0825 H   0  0  0  0  0  0  0  0  0  0  0  0
   -3.1716    4.2601    0.3694 H   0  0  0  0  0  0  0  0  0  0  0  0
  1  2  1  0
  1  4  1  0
  2  3  2  3
  3  5  1  0
  3 15  1  0
  6  7  1  0
  6 12  1  0
  6 13  1  0
  6 14  1  0
  7  8  1  0
  7 16  1  0
  8  9  1  0
  8 17  1  0
  8 18  1  0
  9 10  1  0
 10 11  1  0
 10 19  1  0
 10 20  1  0
 11 21  1  0
 11 22  1  0
 11 23  1  0
M  RAD  1   7   2
M  END
>  <reaction>  (9) 
rmg_rxn_15421

>  <mol_properties>  (9) 
{"1": {"label": "*4", "atom_type": "N3d"}, "2": {"label": "*3", "atom_type": "Cd"}, "6": {"label": "*1", "atom_type": "Cs"}, "7": {"label": "*0", "atom_type": "Cs"}, "14": {"label": "*2", "atom_type": "H0"}}

>  <type>  (9) 
unop_5

>  <geom_source>  (9) 
Heuristics

$$$$

     RDKit          3D

 23 21  0  0  0  0  0  0  0  0999 V2000
   -3.3435    0.2318    0.1587 O   0  0  0  0  0  0  0  0  0  0  0  0
   -1.9932   -0.1759    0.2260 N   0  0  0  0  0  0  0  0  0  0  0  0
   -1.4556   -0.6926   -0.7621 C   0  0  0  0  0  0  0  0  0  0  0  0
   -3.5313    0.5946    1.0350 H   0  0  0  0  0  0  0  0  0  0  0  0
   -1.8718   -0.9029   -1.7399 H   0  0  0  0  0  0  0  0  0  0  0  0
    0.9544   -2.7487    0.2827 C   0  0  0  0  0  0  0  0  0  0  0  0
    1.0467   -1.3781   -0.3355 C   0  0  0  0  0  3  0  0  0  0  0  0
    1.6538   -0.3288    0.5733 C   0  0  0  0  0  0  0  0  0  0  0  0
    2.1091    0.8270   -0.0944 O   0  0  0  0  0  0  0  0  0  0  0  0
    1.1193    1.6906   -0.6163 C   0  0  0  0  0  0  0  0  0  0  0  0
    0.2680    2.3831    0.4453 C   0  0  0  0  0  0  0  0  0  0  0  0
    0.4267   -3.4340   -0.3770 H   0  0  0  0  0  0  0  0  0  0  0  0
    0.4262   -2.7038    1.2330 H   0  0  0  0  0  0  0  0  0  0  0  0
    1.9493   -3.1589    0.4681 H   0  0  0  0  0  0  0  0  0  0  0  0
   -0.2074   -1.0225   -0.5687 H   0  0  0  0  0  0  0  0  0  0  0  0
    1.5177   -1.3825   -1.3172 H   0  0  0  0  0  0  0  0  0  0  0  0
    2.5607   -0.7344    1.0425 H   0  0  0  0  0  0  0  0  0  0  0  0
    0.9485   -0.0745    1.3770 H   0  0  0  0  0  0  0  0  0  0  0  0
    1.6923    2.4354   -1.1753 H   0  0  0  0  0  0  0  0  0  0  0  0
    0.4668    1.1544   -1.3194 H   0  0  0  0  0  0  0  0  0  0  0  0
   -0.4183    1.6799    0.9102 H   0  0  0  0  0  0  0  0  0  0  0  0
   -0.3138    3.1726   -0.0221 H   0  0  0  0  0  0  0  0  0  0  0  0
    0.9076    2.8194    1.2087 H   0  0  0  0  0  0  0  0  0  0  0  0
  1  2  1  0
  1  4  1  0
  2  3  2  3
  3  5  1  0
  3 15  1  0
  6  7  1  0
  6 12  1  0
  6 13  1  0
  6 14  1  0
  7  8  1  0
  7 16  1  0
  8  9  1  0
  8 17  1  0
  8 18  1  0
  9 10  1  0
 10 11  1  0
 10 19  1  0
 10 20  1  0
 11 21  1  0
 11 22  1  0
 11 23  1  0
M  RAD  1   7   2
M  END
>  <reaction>  (10) 
rmg_rxn_15421

>  <mol_properties>  (10) 
{"1": {"label": "*4", "atom_type": "N3d"}, "2": {"label": "*3", "atom_type": "Cd"}, "6": {"label": "*1", "atom_type": "Cs"}, "7": {"label": "*0", "atom_type": "Cs"}, "14": {"label": "*2", "atom_type": "H0"}}

>  <type>  (10) 
unop_6

>  <geom_source>  (10) 
Heuristics

$$$$

     RDKit          3D

 23 21  0  0  0  0  0  0  0  0999 V2000
    2.7877   -2.6582    2.0467 O   0  0  0  0  0  0  0  0  0  0  0  0
    2.2377   -1.6166    1.3257 N   0  0  0  0  0  0  0  0  0  0  0  0
    1.7816   -2.0016    0.2134 C   0  0  0  0  0  0  0  0  0  0  0  0
    3.0898   -2.2350    2.8527 H   0  0  0  0  0  0  0  0  0  0  0  0
    1.8296   -3.0383   -0.1133 H   0  0  0  0  0  0  0  0  0  0  0  0
   -0.3228   -0.7449   -2.2077 C   0  0  0  0  0  0  0  0  0  0  0  0
   -0.3228   -0.7449   -0.6848 C   0  0  0  0  0  3  0  0  0  0  0  0
   -0.3228    0.6482   -0.0893 C   0  0  0  0  0  0  0  0  0  0  0  0
   -1.5058    1.3118   -0.4569 O   0  0  0  0  0  0  0  0  0  0  0  0
   -1.5765    2.6298    0.0240 C   0  0  0  0  0  0  0  0  0  0  0  0
   -2.8798    3.2476   -0.4268 C   0  0  0  0  0  0  0  0  0  0  0  0
    0.5593   -0.2306   -2.5974 H   0  0  0  0  0  0  0  0  0  0  0  0
   -1.2055   -0.2352   -2.5938 H   0  0  0  0  0  0  0  0  0  0  0  0
   -0.3173   -1.7627   -2.6004 H   0  0  0  0  0  0  0  0  0  0  0  0
    0.7351   -1.3766   -0.2333 H   0  0  0  0  0  0  0  0  0  0  0  0
   -1.1971   -1.2829   -0.3096 H   0  0  0  0  0  0  0  0  0  0  0  0
    0.5514    1.2133   -0.4497 H   0  0  0  0  0  0  0  0  0  0  0  0
   -0.2480    0.5943    1.0067 H   0  0  0  0  0  0  0  0  0  0  0  0
   -1.5092    2.6327    1.1221 H   0  0  0  0  0  0  0  0  0  0  0  0
   -0.7236    3.2128   -0.3539 H   0  0  0  0  0  0  0  0  0  0  0  0
   -3.7262    2.6782   -0.0412 H   0  0  0  0  0  0  0  0  0  0  0  0
   -2.9406    3.2595   -1.5157 H   0  0  0  0  0  0  0  0  0  0  0  0
   -2.9574    4.2736   -0.0638 H   0  0  0  0  0  0  0  0  0  0  0  0
  1  2  1  0
  1  4  1  0
  2  3  2  3
  3  5  1  0
  3 15  1  0
  6  7  1  0
  6 12  1  0
  6 13  1  0
  6 14  1  0
  7  8  1  0
  7 16  1  0
  8  9  1  0
  8 17  1  0
  8 18  1  0
  9 10  1  0
 10 11  1  0
 10 19  1  0
 10 20  1  0
 11 21  1  0
 11 22  1  0
 11 23  1  0
M  RAD  1   7   2
M  END
>  <reaction>  (11) 
rmg_rxn_15421

>  <mol_properties>  (11) 
{"1": {"label": "*4", "atom_type": "N3d"}, "2": {"label": "*3", "atom_type": "Cd"}, "6": {"label": "*1", "atom_type": "Cs"}, "7": {"label": "*0", "atom_type": "Cs"}, "14": {"label": "*2", "atom_type": "H0"}}

>  <type>  (11) 
unop_7

>  <geom_source>  (11) 
Heuristics

$$$$

     RDKit          3D

 23 21  0  0  0  0  0  0  0  0999 V2000
    2.5993   -3.6231    1.1613 O   0  0  0  0  0  0  0  0  0  0  0  0
    1.9709   -2.8769    0.1840 N   0  0  0  0  0  0  0  0  0  0  0  0
    1.8499   -1.6659    0.5195 C   0  0  0  0  0  0  0  0  0  0  0  0
    2.6256   -4.5049    0.7848 H   0  0  0  0  0  0  0  0  0  0  0  0
    2.2078   -1.2827    1.4727 H   0  0  0  0  0  0  0  0  0  0  0  0
   -0.2545   -0.4092   -1.9017 C   0  0  0  0  0  0  0  0  0  0  0  0
   -0.2545   -0.4092   -0.3788 C   0  0  0  0  0  3  0  0  0  0  0  0
   -0.2545    0.9839    0.2168 C   0  0  0  0  0  0  0  0  0  0  0  0
   -1.4375    1.6475   -0.1508 O   0  0  0  0  0  0  0  0  0  0  0  0
   -1.5082    2.9655    0.3301 C   0  0  0  0  0  0  0  0  0  0  0  0
   -2.8115    3.5833   -0.1208 C   0  0  0  0  0  0  0  0  0  0  0  0
    0.6276    0.1051   -2.2913 H   0  0  0  0  0  0  0  0  0  0  0  0
   -1.1372    0.1005   -2.2877 H   0  0  0  0  0  0  0  0  0  0  0  0
   -0.2490   -1.4271   -2.2943 H   0  0  0  0  0  0  0  0  0  0  0  0
    0.8034   -1.0410    0.0728 H   0  0  0  0  0  0  0  0  0  0  0  0
   -1.1288   -0.9472   -0.0035 H   0  0  0  0  0  0  0  0  0  0  0  0
    0.6197    1.5489   -0.1436 H   0  0  0  0  0  0  0  0  0  0  0  0
   -0.1797    0.9300    1.3128 H   0  0  0  0  0  0  0  0  0  0  0  0
   -1.4409    2.9684    1.4281 H   0  0  0  0  0  0  0  0  0  0  0  0
   -0.6553    3.5485   -0.0478 H   0  0  0  0  0  0  0  0  0  0  0  0
   -3.6579    3.0139    0.2649 H   0  0  0  0  0  0  0  0  0  0  0  0
   -2.8723    3.5952   -1.2096 H   0  0  0  0  0  0  0  0  0  0  0  0
   -2.8891    4.6093    0.2423 H   0  0  0  0  0  0  0  0  0  0  0  0
  1  2  1  0
  1  4  1  0
  2  3  2  3
  3  5  1  0
  3 15  1  0
  6  7  1  0
  6 12  1  0
  6 13  1  0
  6 14  1  0
  7  8  1  0
  7 16  1  0
  8  9  1  0
  8 17  1  0
  8 18  1  0
  9 10  1  0
 10 11  1  0
 10 19  1  0
 10 20  1  0
 11 21  1  0
 11 22  1  0
 11 23  1  0
M  RAD  1   7   2
M  END
>  <reaction>  (12) 
rmg_rxn_15421

>  <mol_properties>  (12) 
{"1": {"label": "*4", "atom_type": "N3d"}, "2": {"label": "*3", "atom_type": "Cd"}, "6": {"label": "*1", "atom_type": "Cs"}, "7": {"label": "*0", "atom_type": "Cs"}, "14": {"label": "*2", "atom_type": "H0"}}

>  <type>  (12) 
unop_8

>  <geom_source>  (12) 
Heuristics

$$$$

     RDKit          3D

 23 21  0  0  0  0  0  0  0  0999 V2000
    3.3452    0.2402   -0.1574 O   0  0  0  0  0  0  0  0  0  0  0  0
    1.9962   -0.1718   -0.2261 N   0  0  0  0  0  0  0  0  0  0  0  0
    1.4560   -0.6800    0.7651 C   0  0  0  0  0  0  0  0  0  0  0  0
    3.5357    0.5942   -1.0368 H   0  0  0  0  0  0  0  0  0  0  0  0
    1.8686   -0.8795    1.7467 H   0  0  0  0  0  0  0  0  0  0  0  0
   -0.9387   -2.7498   -0.2858 C   0  0  0  0  0  0  0  0  0  0  0  0
   -1.0414   -1.3814    0.3358 C   0  0  0  0  0  3  0  0  0  0  0  0
   -1.6578   -0.3352   -0.5702 C   0  0  0  0  0  0  0  0  0  0  0  0
   -2.1140    0.8194    0.0988 O   0  0  0  0  0  0  0  0  0  0  0  0
   -1.1250    1.6876    0.6145 C   0  0  0  0  0  0  0  0  0  0  0  0
   -0.2793    2.3792   -0.4522 C   0  0  0  0  0  0  0  0  0  0  0  0
   -0.4045   -3.4323    0.3716 H   0  0  0  0  0  0  0  0  0  0  0  0
   -0.4119   -2.6982   -1.2365 H   0  0  0  0  0  0  0  0  0  0  0  0
   -1.9304   -3.1676   -0.4711 H   0  0  0  0  0  0  0  0  0  0  0  0
    0.2100   -1.0175    0.5696 H   0  0  0  0  0  0  0  0  0  0  0  0
   -1.5117   -1.3918    1.3178 H   0  0  0  0  0  0  0  0  0  0  0  0
   -2.5657   -0.7449   -1.0339 H   0  0  0  0  0  0  0  0  0  0  0  0
   -0.9580   -0.0788   -1.3781 H   0  0  0  0  0  0  0  0  0  0  0  0
   -1.6984    2.4325    1.1730 H   0  0  0  0  0  0  0  0  0  0  0  0
   -0.4685    1.1557    1.3172 H   0  0  0  0  0  0  0  0  0  0  0  0
   -0.9226    2.8096   -1.2158 H   0  0  0  0  0  0  0  0  0  0  0  0
    0.4089    1.6770   -0.9159 H   0  0  0  0  0  0  0  0  0  0  0  0
    0.3003    3.1732    0.0104 H   0  0  0  0  0  0  0  0  0  0  0  0
  1  2  1  0
  1  4  1  0
  2  3  2  3
  3  5  1  0
  3 15  1  0
  6  7  1  0
  6 12  1  0
  6 13  1  0
  6 14  1  0
  7  8  1  0
  7 16  1  0
  8  9  1  0
  8 17  1  0
  8 18  1  0
  9 10  1  0
 10 11  1  0
 10 19  1  0
 10 20  1  0
 11 21  1  0
 11 22  1  0
 11 23  1  0
M  RAD  1   7   2
M  END
>  <reaction>  (13) 
rmg_rxn_15421

>  <mol_properties>  (13) 
{"1": {"label": "*4", "atom_type": "N3d"}, "2": {"label": "*3", "atom_type": "Cd"}, "6": {"label": "*1", "atom_type": "Cs"}, "7": {"label": "*0", "atom_type": "Cs"}, "14": {"label": "*2", "atom_type": "H0"}}

>  <type>  (13) 
unop_9

>  <geom_source>  (13) 
Heuristics

$$$$

     RDKit          3D

 23 21  0  0  0  0  0  0  0  0999 V2000
    3.0457   -2.6972    1.8501 O   0  0  0  0  0  0  0  0  0  0  0  0
    1.9031   -2.0148    1.4813 N   0  0  0  0  0  0  0  0  0  0  0  0
    1.7811   -1.9419    0.2270 C   0  0  0  0  0  0  0  0  0  0  0  0
    3.0154   -2.6791    2.8087 H   0  0  0  0  0  0  0  0  0  0  0  0
    2.5060   -2.3748   -0.4591 H   0  0  0  0  0  0  0  0  0  0  0  0
   -0.3232   -0.6852   -2.1942 C   0  0  0  0  0  0  0  0  0  0  0  0
   -0.3232   -0.6852   -0.6713 C   0  0  0  0  0  3  0  0  0  0  0  0
   -0.3232    0.7079   -0.0757 C   0  0  0  0  0  0  0  0  0  0  0  0
   -1.5062    1.3715   -0.4433 O   0  0  0  0  0  0  0  0  0  0  0  0
   -1.5770    2.6896    0.0376 C   0  0  0  0  0  0  0  0  0  0  0  0
   -2.8803    3.3073   -0.4133 C   0  0  0  0  0  0  0  0  0  0  0  0
    0.5588   -0.1708   -2.5838 H   0  0  0  0  0  0  0  0  0  0  0  0
   -1.2060   -0.1755   -2.5802 H   0  0  0  0  0  0  0  0  0  0  0  0
   -0.3178   -1.7030   -2.5868 H   0  0  0  0  0  0  0  0  0  0  0  0
    0.7346   -1.3169   -0.2197 H   0  0  0  0  0  0  0  0  0  0  0  0
   -1.1976   -1.2231   -0.2960 H   0  0  0  0  0  0  0  0  0  0  0  0
    0.5510    1.2730   -0.4361 H   0  0  0  0  0  0  0  0  0  0  0  0
   -0.2485    0.6540    1.0203 H   0  0  0  0  0  0  0  0  0  0  0  0
   -1.5097    2.6924    1.1356 H   0  0  0  0  0  0  0  0  0  0  0  0
   -0.7241    3.2725   -0.3403 H   0  0  0  0  0  0  0  0  0  0  0  0
   -3.7266    2.7379   -0.0276 H   0  0  0  0  0  0  0  0  0  0  0  0
   -2.9411    3.3192   -1.5021 H   0  0  0  0  0  0  0  0  0  0  0  0
   -2.9579    4.3334   -0.0502 H   0  0  0  0  0  0  0  0  0  0  0  0
  1  2  1  0
  1  4  1  0
  2  3  2  3
  3  5  1  0
  3 15  1  0
  6  7  1  0
  6 12  1  0
  6 13  1  0
  6 14  1  0
  7  8  1  0
  7 16  1  0
  8  9  1  0
  8 17  1  0
  8 18  1  0
  9 10  1  0
 10 11  1  0
 10 19  1  0
 10 20  1  0
 11 21  1  0
 11 22  1  0
 11 23  1  0
M  RAD  1   7   2
M  END
>  <reaction>  (14) 
rmg_rxn_15421

>  <mol_properties>  (14) 
{"1": {"label": "*4", "atom_type": "N3d"}, "2": {"label": "*3", "atom_type": "Cd"}, "6": {"label": "*1", "atom_type": "Cs"}, "7": {"label": "*0", "atom_type": "Cs"}, "14": {"label": "*2", "atom_type": "H0"}}

>  <type>  (14) 
unop_10

>  <geom_source>  (14) 
Heuristics

$$$$

     RDKit          3D

 23 21  0  0  0  0  0  0  0  0999 V2000
    3.3430    0.2293   -0.1579 O   0  0  0  0  0  0  0  0  0  0  0  0
    1.9928   -0.1790   -0.2259 N   0  0  0  0  0  0  0  0  0  0  0  0
    1.4537   -0.6923    0.7631 C   0  0  0  0  0  0  0  0  0  0  0  0
    3.5321    0.5890   -1.0353 H   0  0  0  0  0  0  0  0  0  0  0  0
    1.8681   -0.8995    1.7424 H   0  0  0  0  0  0  0  0  0  0  0  0
   -0.9565   -2.7475   -0.2853 C   0  0  0  0  0  0  0  0  0  0  0  0
   -1.0484   -1.3780    0.3355 C   0  0  0  0  0  3  0  0  0  0  0  0
   -1.6563   -0.3273   -0.5712 C   0  0  0  0  0  0  0  0  0  0  0  0
   -2.1073    0.8293    0.0980 O   0  0  0  0  0  0  0  0  0  0  0  0
   -1.1144    1.6919    0.6157 C   0  0  0  0  0  0  0  0  0  0  0  0
   -0.2659    2.3822   -0.4496 C   0  0  0  0  0  0  0  0  0  0  0  0
   -1.9515   -3.1575   -0.4705 H   0  0  0  0  0  0  0  0  0  0  0  0
   -0.4279   -3.4338    0.3727 H   0  0  0  0  0  0  0  0  0  0  0  0
   -0.4291   -2.7007   -1.2360 H   0  0  0  0  0  0  0  0  0  0  0  0
    0.2058   -1.0233    0.5689 H   0  0  0  0  0  0  0  0  0  0  0  0
   -1.5190   -1.3841    1.3173 H   0  0  0  0  0  0  0  0  0  0  0  0
   -2.5652   -0.7311   -1.0378 H   0  0  0  0  0  0  0  0  0  0  0  0
   -0.9528   -0.0742   -1.3768 H   0  0  0  0  0  0  0  0  0  0  0  0
   -1.6844    2.4381    1.1758 H   0  0  0  0  0  0  0  0  0  0  0  0
   -0.4604    1.1554    1.3171 H   0  0  0  0  0  0  0  0  0  0  0  0
    0.4178    1.6775   -0.9161 H   0  0  0  0  0  0  0  0  0  0  0  0
    0.3188    3.1712    0.0151 H   0  0  0  0  0  0  0  0  0  0  0  0
   -0.9073    2.8188   -1.2112 H   0  0  0  0  0  0  0  0  0  0  0  0
  1  2  1  0
  1  4  1  0
  2  3  2  3
  3  5  1  0
  3 15  1  0
  6  7  1  0
  6 12  1  0
  6 13  1  0
  6 14  1  0
  7  8  1  0
  7 16  1  0
  8  9  1  0
  8 17  1  0
  8 18  1  0
  9 10  1  0
 10 11  1  0
 10 19  1  0
 10 20  1  0
 11 21  1  0
 11 22  1  0
 11 23  1  0
M  RAD  1   7   2
M  END
>  <reaction>  (15) 
rmg_rxn_15421

>  <mol_properties>  (15) 
{"1": {"label": "*4", "atom_type": "N3d"}, "2": {"label": "*3", "atom_type": "Cd"}, "6": {"label": "*1", "atom_type": "Cs"}, "7": {"label": "*0", "atom_type": "Cs"}, "14": {"label": "*2", "atom_type": "H0"}}

>  <type>  (15) 
unop_11

>  <geom_source>  (15) 
Heuristics

$$$$

     RDKit          3D

 23 21  0  0  0  0  0  0  0  0999 V2000
    2.4093   -3.3505    1.7276 O   0  0  0  0  0  0  0  0  0  0  0  0
    1.7845   -2.9455    0.5646 N   0  0  0  0  0  0  0  0  0  0  0  0
    1.9077   -1.7043    0.3702 C   0  0  0  0  0  0  0  0  0  0  0  0
    2.2413   -4.2945    1.7528 H   0  0  0  0  0  0  0  0  0  0  0  0
    2.4481   -1.0541    1.0549 H   0  0  0  0  0  0  0  0  0  0  0  0
   -0.1966   -0.4476   -2.0510 C   0  0  0  0  0  0  0  0  0  0  0  0
   -0.1966   -0.4476   -0.5281 C   0  0  0  0  0  3  0  0  0  0  0  0
   -0.1966    0.9455    0.0675 C   0  0  0  0  0  0  0  0  0  0  0  0
   -1.3796    1.6091   -0.3001 O   0  0  0  0  0  0  0  0  0  0  0  0
   -1.4503    2.9271    0.1808 C   0  0  0  0  0  0  0  0  0  0  0  0
   -2.7536    3.5449   -0.2701 C   0  0  0  0  0  0  0  0  0  0  0  0
    0.6855    0.0668   -2.4406 H   0  0  0  0  0  0  0  0  0  0  0  0
   -1.0793    0.0621   -2.4370 H   0  0  0  0  0  0  0  0  0  0  0  0
   -0.1911   -1.4654   -2.4436 H   0  0  0  0  0  0  0  0  0  0  0  0
    0.8612   -1.0793   -0.0765 H   0  0  0  0  0  0  0  0  0  0  0  0
   -1.0710   -0.9855   -0.1528 H   0  0  0  0  0  0  0  0  0  0  0  0
    0.6776    1.5106   -0.2929 H   0  0  0  0  0  0  0  0  0  0  0  0
   -0.1218    0.8916    1.1635 H   0  0  0  0  0  0  0  0  0  0  0  0
   -1.3830    2.9300    1.2788 H   0  0  0  0  0  0  0  0  0  0  0  0
   -0.5974    3.5101   -0.1971 H   0  0  0  0  0  0  0  0  0  0  0  0
   -3.6000    2.9755    0.1156 H   0  0  0  0  0  0  0  0  0  0  0  0
   -2.8144    3.5568   -1.3589 H   0  0  0  0  0  0  0  0  0  0  0  0
   -2.8312    4.5710    0.0930 H   0  0  0  0  0  0  0  0  0  0  0  0
  1  2  1  0
  1  4  1  0
  2  3  2  3
  3  5  1  0
  3 15  1  0
  6  7  1  0
  6 12  1  0
  6 13  1  0
  6 14  1  0
  7  8  1  0
  7 16  1  0
  8  9  1  0
  8 17  1  0
  8 18  1  0
  9 10  1  0
 10 11  1  0
 10 19  1  0
 10 20  1  0
 11 21  1  0
 11 22  1  0
 11 23  1  0
M  RAD  1   7   2
M  END
>  <reaction>  (16) 
rmg_rxn_15421

>  <mol_properties>  (16) 
{"1": {"label": "*4", "atom_type": "N3d"}, "2": {"label": "*3", "atom_type": "Cd"}, "6": {"label": "*1", "atom_type": "Cs"}, "7": {"label": "*0", "atom_type": "Cs"}, "14": {"label": "*2", "atom_type": "H0"}}

>  <type>  (16) 
unop_12

>  <geom_source>  (16) 
Heuristics

$$$$

     RDKit          3D

 23 21  0  0  0  0  0  0  0  0999 V2000
    3.3447    0.2376   -0.1589 O   0  0  0  0  0  0  0  0  0  0  0  0
    1.9944   -0.1706   -0.2257 N   0  0  0  0  0  0  0  0  0  0  0  0
    1.4577   -0.6883    0.7624 C   0  0  0  0  0  0  0  0  0  0  0  0
    3.5316    0.6014   -1.0351 H   0  0  0  0  0  0  0  0  0  0  0  0
    1.8747   -0.9001    1.7396 H   0  0  0  0  0  0  0  0  0  0  0  0
   -0.9458   -2.7505   -0.2827 C   0  0  0  0  0  0  0  0  0  0  0  0
   -1.0428   -1.3802    0.3354 C   0  0  0  0  0  3  0  0  0  0  0  0
   -1.6534   -0.3329   -0.5733 C   0  0  0  0  0  0  0  0  0  0  0  0
   -2.1122    0.8215    0.0943 O   0  0  0  0  0  0  0  0  0  0  0  0
   -1.1251    1.6882    0.6163 C   0  0  0  0  0  0  0  0  0  0  0  0
   -0.2760    2.3833   -0.4454 C   0  0  0  0  0  0  0  0  0  0  0  0
   -0.4169   -2.7039   -1.2326 H   0  0  0  0  0  0  0  0  0  0  0  0
   -1.9393   -3.1636   -0.4691 H   0  0  0  0  0  0  0  0  0  0  0  0
   -0.4165   -3.4343    0.3773 H   0  0  0  0  0  0  0  0  0  0  0  0
    0.2101   -1.0209    0.5689 H   0  0  0  0  0  0  0  0  0  0  0  0
   -1.5139   -1.3863    1.3171 H   0  0  0  0  0  0  0  0  0  0  0  0
   -2.5591   -0.7415   -1.0422 H   0  0  0  0  0  0  0  0  0  0  0  0
   -0.9491   -0.0765   -1.3772 H   0  0  0  0  0  0  0  0  0  0  0  0
   -1.7006    2.4313    1.1751 H   0  0  0  0  0  0  0  0  0  0  0  0
   -0.4711    1.1541    1.3194 H   0  0  0  0  0  0  0  0  0  0  0  0
   -0.9169    2.8182   -1.2086 H   0  0  0  0  0  0  0  0  0  0  0  0
    0.4120    1.6819   -0.9107 H   0  0  0  0  0  0  0  0  0  0  0  0
    0.3039    3.1741    0.0221 H   0  0  0  0  0  0  0  0  0  0  0  0
  1  2  1  0
  1  4  1  0
  2  3  2  3
  3  5  1  0
  3 15  1  0
  6  7  1  0
  6 12  1  0
  6 13  1  0
  6 14  1  0
  7  8  1  0
  7 16  1  0
  8  9  1  0
  8 17  1  0
  8 18  1  0
  9 10  1  0
 10 11  1  0
 10 19  1  0
 10 20  1  0
 11 21  1  0
 11 22  1  0
 11 23  1  0
M  RAD  1   7   2
M  END
>  <reaction>  (17) 
rmg_rxn_15421

>  <mol_properties>  (17) 
{"1": {"label": "*4", "atom_type": "N3d"}, "2": {"label": "*3", "atom_type": "Cd"}, "6": {"label": "*1", "atom_type": "Cs"}, "7": {"label": "*0", "atom_type": "Cs"}, "14": {"label": "*2", "atom_type": "H0"}}

>  <type>  (17) 
unop_13

>  <geom_source>  (17) 
Heuristics

$$$$

     RDKit          3D

 23 21  0  0  0  0  0  0  0  0999 V2000
    2.5282   -2.8559    2.0740 O   0  0  0  0  0  0  0  0  0  0  0  0
    1.6875   -2.8191    0.9791 N   0  0  0  0  0  0  0  0  0  0  0  0
    1.8999   -1.8073    0.2547 C   0  0  0  0  0  0  0  0  0  0  0  0
    2.2650   -3.6582    2.5291 H   0  0  0  0  0  0  0  0  0  0  0  0
    2.6623   -1.0675    0.4894 H   0  0  0  0  0  0  0  0  0  0  0  0
   -0.2044   -0.5506   -2.1664 C   0  0  0  0  0  0  0  0  0  0  0  0
   -0.2044   -0.5506   -0.6435 C   0  0  0  0  0  3  0  0  0  0  0  0
   -0.2044    0.8425   -0.0480 C   0  0  0  0  0  0  0  0  0  0  0  0
   -1.3874    1.5061   -0.4156 O   0  0  0  0  0  0  0  0  0  0  0  0
   -1.4581    2.8242    0.0653 C   0  0  0  0  0  0  0  0  0  0  0  0
   -2.7614    3.4419   -0.3855 C   0  0  0  0  0  0  0  0  0  0  0  0
    0.6777   -0.0362   -2.5560 H   0  0  0  0  0  0  0  0  0  0  0  0
   -1.0871   -0.0409   -2.5525 H   0  0  0  0  0  0  0  0  0  0  0  0
   -0.1989   -1.5684   -2.5591 H   0  0  0  0  0  0  0  0  0  0  0  0
    0.8534   -1.1823   -0.1920 H   0  0  0  0  0  0  0  0  0  0  0  0
   -1.0788   -1.0885   -0.2682 H   0  0  0  0  0  0  0  0  0  0  0  0
    0.6698    1.4076   -0.4084 H   0  0  0  0  0  0  0  0  0  0  0  0
   -0.1296    0.7886    1.0480 H   0  0  0  0  0  0  0  0  0  0  0  0
   -1.3909    2.8270    1.1634 H   0  0  0  0  0  0  0  0  0  0  0  0
   -0.6052    3.4071   -0.3126 H   0  0  0  0  0  0  0  0  0  0  0  0
   -3.6078    2.8725    0.0001 H   0  0  0  0  0  0  0  0  0  0  0  0
   -2.8222    3.4538   -1.4744 H   0  0  0  0  0  0  0  0  0  0  0  0
   -2.8390    4.4680   -0.0225 H   0  0  0  0  0  0  0  0  0  0  0  0
  1  2  1  0
  1  4  1  0
  2  3  2  3
  3  5  1  0
  3 15  1  0
  6  7  1  0
  6 12  1  0
  6 13  1  0
  6 14  1  0
  7  8  1  0
  7 16  1  0
  8  9  1  0
  8 17  1  0
  8 18  1  0
  9 10  1  0
 10 11  1  0
 10 19  1  0
 10 20  1  0
 11 21  1  0
 11 22  1  0
 11 23  1  0
M  RAD  1   7   2
M  END
>  <reaction>  (18) 
rmg_rxn_15421

>  <mol_properties>  (18) 
{"1": {"label": "*4", "atom_type": "N3d"}, "2": {"label": "*3", "atom_type": "Cd"}, "6": {"label": "*1", "atom_type": "Cs"}, "7": {"label": "*0", "atom_type": "Cs"}, "14": {"label": "*2", "atom_type": "H0"}}

>  <type>  (18) 
unop_14

>  <geom_source>  (18) 
Heuristics

$$$$

     RDKit          3D

 23 21  0  0  0  0  0  0  0  0999 V2000
    3.3453    0.2420   -0.1582 O   0  0  0  0  0  0  0  0  0  0  0  0
    1.9963   -0.1703   -0.2258 N   0  0  0  0  0  0  0  0  0  0  0  0
    1.4570   -0.6796    0.7651 C   0  0  0  0  0  0  0  0  0  0  0  0
    3.5347    0.5969   -1.0375 H   0  0  0  0  0  0  0  0  0  0  0  0
    1.8702   -0.8806    1.7462 H   0  0  0  0  0  0  0  0  0  0  0  0
   -0.9370   -2.7507   -0.2847 C   0  0  0  0  0  0  0  0  0  0  0  0
   -1.0402   -1.3819    0.3358 C   0  0  0  0  0  3  0  0  0  0  0  0
   -1.6561   -0.3363   -0.5713 C   0  0  0  0  0  0  0  0  0  0  0  0
   -2.1148    0.8177    0.0969 O   0  0  0  0  0  0  0  0  0  0  0  0
   -1.1277    1.6868    0.6148 C   0  0  0  0  0  0  0  0  0  0  0  0
   -0.2813    2.3803   -0.4501 C   0  0  0  0  0  0  0  0  0  0  0  0
   -1.9286   -3.1682   -0.4715 H   0  0  0  0  0  0  0  0  0  0  0  0
   -0.4043   -3.4330    0.3741 H   0  0  0  0  0  0  0  0  0  0  0  0
   -0.4085   -2.7000   -1.2345 H   0  0  0  0  0  0  0  0  0  0  0  0
    0.2110   -1.0176    0.5699 H   0  0  0  0  0  0  0  0  0  0  0  0
   -1.5112   -1.3916    1.3175 H   0  0  0  0  0  0  0  0  0  0  0  0
   -2.5626   -0.7470   -1.0367 H   0  0  0  0  0  0  0  0  0  0  0  0
   -0.9552   -0.0791   -1.3779 H   0  0  0  0  0  0  0  0  0  0  0  0
   -1.7029    2.4306    1.1730 H   0  0  0  0  0  0  0  0  0  0  0  0
   -0.4717    1.1552    1.3181 H   0  0  0  0  0  0  0  0  0  0  0  0
   -0.9241    2.8119   -1.2134 H   0  0  0  0  0  0  0  0  0  0  0  0
    0.4073    1.6790   -0.9144 H   0  0  0  0  0  0  0  0  0  0  0  0
    0.2979    3.1735    0.0144 H   0  0  0  0  0  0  0  0  0  0  0  0
  1  2  1  0
  1  4  1  0
  2  3  2  3
  3  5  1  0
  3 15  1  0
  6  7  1  0
  6 12  1  0
  6 13  1  0
  6 14  1  0
  7  8  1  0
  7 16  1  0
  8  9  1  0
  8 17  1  0
  8 18  1  0
  9 10  1  0
 10 11  1  0
 10 19  1  0
 10 20  1  0
 11 21  1  0
 11 22  1  0
 11 23  1  0
M  RAD  1   7   2
M  END
>  <reaction>  (19) 
rmg_rxn_15421

>  <mol_properties>  (19) 
{"1": {"label": "*4", "atom_type": "N3d"}, "2": {"label": "*3", "atom_type": "Cd"}, "6": {"label": "*1", "atom_type": "Cs"}, "7": {"label": "*0", "atom_type": "Cs"}, "14": {"label": "*2", "atom_type": "H0"}}

>  <type>  (19) 
unop_15

>  <geom_source>  (19) 
Heuristics

$$$$

     RDKit          3D

 23 21  0  0  0  0  0  0  0  0999 V2000
    3.3192   -1.8271    1.7276 O   0  0  0  0  0  0  0  0  0  0  0  0
    2.6663   -1.4690    0.5646 N   0  0  0  0  0  0  0  0  0  0  0  0
    1.6320   -2.1661    0.3702 C   0  0  0  0  0  0  0  0  0  0  0  0
    4.0706   -1.2315    1.7528 H   0  0  0  0  0  0  0  0  0  0  0  0
    1.3157   -2.9502    1.0549 H   0  0  0  0  0  0  0  0  0  0  0  0
   -0.4724   -0.9093   -2.0510 C   0  0  0  0  0  0  0  0  0  0  0  0
   -0.4724   -0.9093   -0.5281 C   0  0  0  0  0  3  0  0  0  0  0  0
   -0.4724    0.4837    0.0675 C   0  0  0  0  0  0  0  0  0  0  0  0
   -1.6554    1.1473   -0.3001 O   0  0  0  0  0  0  0  0  0  0  0  0
   -1.7261    2.4654    0.1808 C   0  0  0  0  0  0  0  0  0  0  0  0
   -3.0294    3.0832   -0.2701 C   0  0  0  0  0  0  0  0  0  0  0  0
    0.4097   -0.3950   -2.4406 H   0  0  0  0  0  0  0  0  0  0  0  0
   -1.3551   -0.3997   -2.4370 H   0  0  0  0  0  0  0  0  0  0  0  0
   -0.4669   -1.9272   -2.4436 H   0  0  0  0  0  0  0  0  0  0  0  0
    0.5855   -1.5411   -0.0765 H   0  0  0  0  0  0  0  0  0  0  0  0
   -1.3467   -1.4473   -0.1528 H   0  0  0  0  0  0  0  0  0  0  0  0
    0.4018    1.0488   -0.2929 H   0  0  0  0  0  0  0  0  0  0  0  0
   -0.3976    0.4298    1.1635 H   0  0  0  0  0  0  0  0  0  0  0  0
   -1.6588    2.4682    1.2788 H   0  0  0  0  0  0  0  0  0  0  0  0
   -0.8732    3.0484   -0.1971 H   0  0  0  0  0  0  0  0  0  0  0  0
   -3.8758    2.5138    0.1156 H   0  0  0  0  0  0  0  0  0  0  0  0
   -3.0902    3.0950   -1.3589 H   0  0  0  0  0  0  0  0  0  0  0  0
   -3.1070    4.1092    0.0930 H   0  0  0  0  0  0  0  0  0  0  0  0
  1  2  1  0
  1  4  1  0
  2  3  2  3
  3  5  1  0
  3 15  1  0
  6  7  1  0
  6 12  1  0
  6 13  1  0
  6 14  1  0
  7  8  1  0
  7 16  1  0
  8  9  1  0
  8 17  1  0
  8 18  1  0
  9 10  1  0
 10 11  1  0
 10 19  1  0
 10 20  1  0
 11 21  1  0
 11 22  1  0
 11 23  1  0
M  RAD  1   7   2
M  END
>  <reaction>  (20) 
rmg_rxn_15421

>  <mol_properties>  (20) 
{"1": {"label": "*4", "atom_type": "N3d"}, "2": {"label": "*3", "atom_type": "Cd"}, "6": {"label": "*1", "atom_type": "Cs"}, "7": {"label": "*0", "atom_type": "Cs"}, "14": {"label": "*2", "atom_type": "H0"}}

>  <type>  (20) 
unop_16

>  <geom_source>  (20) 
Heuristics

$$$$

     RDKit          3D

 23 21  0  0  0  0  0  0  0  0999 V2000
    3.3451   -0.2402    0.1580 O   0  0  0  0  0  0  0  0  0  0  0  0
    1.9954    0.1696    0.2257 N   0  0  0  0  0  0  0  0  0  0  0  0
    1.4573    0.6837   -0.7636 C   0  0  0  0  0  0  0  0  0  0  0  0
    3.5335   -0.6003    1.0354 H   0  0  0  0  0  0  0  0  0  0  0  0
    1.8729    0.8904   -1.7425 H   0  0  0  0  0  0  0  0  0  0  0  0
   -0.9401    2.7503    0.2847 C   0  0  0  0  0  0  0  0  0  0  0  0
   -1.0414    1.3813   -0.3357 C   0  0  0  0  0  3  0  0  0  0  0  0
   -1.6559    0.3349    0.5714 C   0  0  0  0  0  0  0  0  0  0  0  0
   -2.1139   -0.8193   -0.0970 O   0  0  0  0  0  0  0  0  0  0  0  0
   -1.1261   -1.6875   -0.6153 C   0  0  0  0  0  0  0  0  0  0  0  0
   -0.2793   -2.3808    0.4493 C   0  0  0  0  0  0  0  0  0  0  0  0
   -0.4070    3.4329   -0.3735 H   0  0  0  0  0  0  0  0  0  0  0  0
   -0.4128    2.7002    1.2353 H   0  0  0  0  0  0  0  0  0  0  0  0
   -1.9322    3.1670    0.4701 H   0  0  0  0  0  0  0  0  0  0  0  0
    0.2106    1.0187   -0.5693 H   0  0  0  0  0  0  0  0  0  0  0  0
   -1.5121    1.3903   -1.3175 H   0  0  0  0  0  0  0  0  0  0  0  0
   -2.5625    0.7447    1.0374 H   0  0  0  0  0  0  0  0  0  0  0  0
   -0.9543    0.0781    1.3776 H   0  0  0  0  0  0  0  0  0  0  0  0
   -1.7008   -2.4314   -1.1739 H   0  0  0  0  0  0  0  0  0  0  0  0
   -0.4705   -1.1550   -1.3183 H   0  0  0  0  0  0  0  0  0  0  0  0
    0.3002   -3.1737   -0.0154 H   0  0  0  0  0  0  0  0  0  0  0  0
   -0.9217   -2.8128    1.2127 H   0  0  0  0  0  0  0  0  0  0  0  0
    0.4092   -1.6792    0.9136 H   0  0  0  0  0  0  0  0  0  0  0  0
  1  2  1  0
  1  4  1  0
  2  3  2  3
  3  5  1  0
  3 15  1  0
  6  7  1  0
  6 12  1  0
  6 13  1  0
  6 14  1  0
  7  8  1  0
  7 16  1  0
  8  9  1  0
  8 17  1  0
  8 18  1  0
  9 10  1  0
 10 11  1  0
 10 19  1  0
 10 20  1  0
 11 21  1  0
 11 22  1  0
 11 23  1  0
M  RAD  1   7   2
M  END
>  <reaction>  (21) 
rmg_rxn_15421

>  <mol_properties>  (21) 
{"1": {"label": "*4", "atom_type": "N3d"}, "2": {"label": "*3", "atom_type": "Cd"}, "6": {"label": "*1", "atom_type": "Cs"}, "7": {"label": "*0", "atom_type": "Cs"}, "14": {"label": "*2", "atom_type": "H0"}}

>  <type>  (21) 
unop_17

>  <geom_source>  (21) 
Heuristics

$$$$

     RDKit          3D

 23 21  0  0  0  0  0  0  0  0999 V2000
    3.0312   -3.4931    0.6307 O   0  0  0  0  0  0  0  0  0  0  0  0
    2.1992   -2.6481   -0.0768 N   0  0  0  0  0  0  0  0  0  0  0  0
    1.7442   -1.7190    0.6466 C   0  0  0  0  0  0  0  0  0  0  0  0
    3.3009   -4.1393   -0.0249 H   0  0  0  0  0  0  0  0  0  0  0  0
    1.9949   -1.6199    1.7006 H   0  0  0  0  0  0  0  0  0  0  0  0
   -0.3601   -0.4623   -1.7745 C   0  0  0  0  0  0  0  0  0  0  0  0
   -0.3601   -0.4623   -0.2516 C   0  0  0  0  0  3  0  0  0  0  0  0
   -0.3601    0.9308    0.3439 C   0  0  0  0  0  0  0  0  0  0  0  0
   -1.5431    1.5944   -0.0237 O   0  0  0  0  0  0  0  0  0  0  0  0
   -1.6138    2.9125    0.4572 C   0  0  0  0  0  0  0  0  0  0  0  0
   -2.9171    3.5302    0.0064 C   0  0  0  0  0  0  0  0  0  0  0  0
    0.5220    0.0521   -2.1641 H   0  0  0  0  0  0  0  0  0  0  0  0
   -1.2428    0.0474   -2.1606 H   0  0  0  0  0  0  0  0  0  0  0  0
   -0.3546   -1.4801   -2.1672 H   0  0  0  0  0  0  0  0  0  0  0  0
    0.6977   -1.0940    0.1999 H   0  0  0  0  0  0  0  0  0  0  0  0
   -1.2345   -1.0002    0.1237 H   0  0  0  0  0  0  0  0  0  0  0  0
    0.5141    1.4959   -0.0165 H   0  0  0  0  0  0  0  0  0  0  0  0
   -0.2853    0.8769    1.4399 H   0  0  0  0  0  0  0  0  0  0  0  0
   -1.5465    2.9153    1.5553 H   0  0  0  0  0  0  0  0  0  0  0  0
   -0.7609    3.4954    0.0793 H   0  0  0  0  0  0  0  0  0  0  0  0
   -3.7635    2.9608    0.3920 H   0  0  0  0  0  0  0  0  0  0  0  0
   -2.9779    3.5421   -1.0825 H   0  0  0  0  0  0  0  0  0  0  0  0
   -2.9947    4.5563    0.3694 H   0  0  0  0  0  0  0  0  0  0  0  0
  1  2  1  0
  1  4  1  0
  2  3  2  3
  3  5  1  0
  3 15  1  0
  6  7  1  0
  6 12  1  0
  6 13  1  0
  6 14  1  0
  7  8  1  0
  7 16  1  0
  8  9  1  0
  8 17  1  0
  8 18  1  0
  9 10  1  0
 10 11  1  0
 10 19  1  0
 10 20  1  0
 11 21  1  0
 11 22  1  0
 11 23  1  0
M  RAD  1   7   2
M  END
>  <reaction>  (22) 
rmg_rxn_15421

>  <mol_properties>  (22) 
{"1": {"label": "*4", "atom_type": "N3d"}, "2": {"label": "*3", "atom_type": "Cd"}, "6": {"label": "*1", "atom_type": "Cs"}, "7": {"label": "*0", "atom_type": "Cs"}, "14": {"label": "*2", "atom_type": "H0"}}

>  <type>  (22) 
unop_18

>  <geom_source>  (22) 
Heuristics

$$$$

     RDKit          3D

 23 21  0  0  0  0  0  0  0  0999 V2000
    3.6492   -1.8651    1.1613 O   0  0  0  0  0  0  0  0  0  0  0  0
    2.6942   -1.6657    0.1840 N   0  0  0  0  0  0  0  0  0  0  0  0
    1.5707   -2.1333    0.5195 C   0  0  0  0  0  0  0  0  0  0  0  0
    4.4381   -1.4701    0.7848 H   0  0  0  0  0  0  0  0  0  0  0  0
    1.4031   -2.6302    1.4727 H   0  0  0  0  0  0  0  0  0  0  0  0
   -0.5336   -0.8766   -1.9017 C   0  0  0  0  0  0  0  0  0  0  0  0
   -0.5336   -0.8766   -0.3788 C   0  0  0  0  0  3  0  0  0  0  0  0
   -0.5336    0.5165    0.2168 C   0  0  0  0  0  0  0  0  0  0  0  0
   -1.7166    1.1801   -0.1508 O   0  0  0  0  0  0  0  0  0  0  0  0
   -1.7873    2.4981    0.3301 C   0  0  0  0  0  0  0  0  0  0  0  0
   -3.0906    3.1159   -0.1208 C   0  0  0  0  0  0  0  0  0  0  0  0
    0.3485   -0.3623   -2.2913 H   0  0  0  0  0  0  0  0  0  0  0  0
   -1.4163   -0.3669   -2.2877 H   0  0  0  0  0  0  0  0  0  0  0  0
   -0.5281   -1.8944   -2.2943 H   0  0  0  0  0  0  0  0  0  0  0  0
    0.5242   -1.5083    0.0728 H   0  0  0  0  0  0  0  0  0  0  0  0
   -1.4080   -1.4146   -0.0035 H   0  0  0  0  0  0  0  0  0  0  0  0
    0.3406    1.0816   -0.1436 H   0  0  0  0  0  0  0  0  0  0  0  0
   -0.4588    0.4626    1.3128 H   0  0  0  0  0  0  0  0  0  0  0  0
   -1.7201    2.5010    1.4281 H   0  0  0  0  0  0  0  0  0  0  0  0
   -0.9345    3.0811   -0.0478 H   0  0  0  0  0  0  0  0  0  0  0  0
   -3.9370    2.5465    0.2649 H   0  0  0  0  0  0  0  0  0  0  0  0
   -3.1514    3.1278   -1.2096 H   0  0  0  0  0  0  0  0  0  0  0  0
   -3.1682    4.1419    0.2423 H   0  0  0  0  0  0  0  0  0  0  0  0
  1  2  1  0
  1  4  1  0
  2  3  2  3
  3  5  1  0
  3 15  1  0
  6  7  1  0
  6 12  1  0
  6 13  1  0
  6 14  1  0
  7  8  1  0
  7 16  1  0
  8  9  1  0
  8 17  1  0
  8 18  1  0
  9 10  1  0
 10 11  1  0
 10 19  1  0
 10 20  1  0
 11 21  1  0
 11 22  1  0
 11 23  1  0
M  RAD  1   7   2
M  END
>  <reaction>  (23) 
rmg_rxn_15421

>  <mol_properties>  (23) 
{"1": {"label": "*4", "atom_type": "N3d"}, "2": {"label": "*3", "atom_type": "Cd"}, "6": {"label": "*1", "atom_type": "Cs"}, "7": {"label": "*0", "atom_type": "Cs"}, "14": {"label": "*2", "atom_type": "H0"}}

>  <type>  (23) 
unop_19

>  <geom_source>  (23) 
Heuristics

$$$$

     RDKit          3D

 23 21  0  0  0  0  0  0  0  0999 V2000
    2.8890   -2.4885    2.0467 O   0  0  0  0  0  0  0  0  0  0  0  0
    1.7112   -2.4981    1.3257 N   0  0  0  0  0  0  0  0  0  0  0  0
    1.8339   -1.9140    0.2134 C   0  0  0  0  0  0  0  0  0  0  0  0
    2.6597   -2.9552    2.8527 H   0  0  0  0  0  0  0  0  0  0  0  0
    2.7693   -1.4648   -0.1133 H   0  0  0  0  0  0  0  0  0  0  0  0
   -0.2704   -0.6573   -2.2077 C   0  0  0  0  0  0  0  0  0  0  0  0
   -0.2704   -0.6573   -0.6848 C   0  0  0  0  0  3  0  0  0  0  0  0
   -0.2704    0.7358   -0.0893 C   0  0  0  0  0  0  0  0  0  0  0  0
   -1.4534    1.3994   -0.4569 O   0  0  0  0  0  0  0  0  0  0  0  0
   -1.5241    2.7175    0.0240 C   0  0  0  0  0  0  0  0  0  0  0  0
   -2.8275    3.3352   -0.4268 C   0  0  0  0  0  0  0  0  0  0  0  0
    0.6116   -0.1429   -2.5974 H   0  0  0  0  0  0  0  0  0  0  0  0
   -1.1532   -0.1476   -2.5938 H   0  0  0  0  0  0  0  0  0  0  0  0
   -0.2650   -1.6751   -2.6004 H   0  0  0  0  0  0  0  0  0  0  0  0
    0.7874   -1.2890   -0.2333 H   0  0  0  0  0  0  0  0  0  0  0  0
   -1.1448   -1.1952   -0.3096 H   0  0  0  0  0  0  0  0  0  0  0  0
    0.6038    1.3009   -0.4497 H   0  0  0  0  0  0  0  0  0  0  0  0
   -0.1956    0.6819    1.0067 H   0  0  0  0  0  0  0  0  0  0  0  0
   -1.4569    2.7203    1.1221 H   0  0  0  0  0  0  0  0  0  0  0  0
   -0.6713    3.3004   -0.3539 H   0  0  0  0  0  0  0  0  0  0  0  0
   -3.6738    2.7658   -0.0412 H   0  0  0  0  0  0  0  0  0  0  0  0
   -2.8883    3.3471   -1.5157 H   0  0  0  0  0  0  0  0  0  0  0  0
   -2.9051    4.3613   -0.0638 H   0  0  0  0  0  0  0  0  0  0  0  0
  1  2  1  0
  1  4  1  0
  2  3  2  3
  3  5  1  0
  3 15  1  0
  6  7  1  0
  6 12  1  0
  6 13  1  0
  6 14  1  0
  7  8  1  0
  7 16  1  0
  8  9  1  0
  8 17  1  0
  8 18  1  0
  9 10  1  0
 10 11  1  0
 10 19  1  0
 10 20  1  0
 11 21  1  0
 11 22  1  0
 11 23  1  0
M  RAD  1   7   2
M  END
>  <reaction>  (24) 
rmg_rxn_15421

>  <mol_properties>  (24) 
{"1": {"label": "*4", "atom_type": "N3d"}, "2": {"label": "*3", "atom_type": "Cd"}, "6": {"label": "*1", "atom_type": "Cs"}, "7": {"label": "*0", "atom_type": "Cs"}, "14": {"label": "*2", "atom_type": "H0"}}

>  <type>  (24) 
unop_20

>  <geom_source>  (24) 
Heuristics

$$$$

     RDKit          3D

 23 21  0  0  0  0  0  0  0  0999 V2000
    3.4987   -2.9677    0.4102 O   0  0  0  0  0  0  0  0  0  0  0  0
    2.4221   -2.3248   -0.1682 N   0  0  0  0  0  0  0  0  0  0  0  0
    1.6331   -1.8536    0.6972 C   0  0  0  0  0  0  0  0  0  0  0  0
    4.0074   -3.2715   -0.3441 H   0  0  0  0  0  0  0  0  0  0  0  0
    1.8058   -1.9567    1.7664 H   0  0  0  0  0  0  0  0  0  0  0  0
   -0.4712   -0.5968   -1.7239 C   0  0  0  0  0  0  0  0  0  0  0  0
   -0.4712   -0.5968   -0.2010 C   0  0  0  0  0  3  0  0  0  0  0  0
   -0.4712    0.7963    0.3945 C   0  0  0  0  0  0  0  0  0  0  0  0
   -1.6542    1.4599    0.0269 O   0  0  0  0  0  0  0  0  0  0  0  0
   -1.7249    2.7779    0.5078 C   0  0  0  0  0  0  0  0  0  0  0  0
   -3.0282    3.3957    0.0570 C   0  0  0  0  0  0  0  0  0  0  0  0
    0.4109   -0.0825   -2.1136 H   0  0  0  0  0  0  0  0  0  0  0  0
   -1.3539   -0.0871   -2.1100 H   0  0  0  0  0  0  0  0  0  0  0  0
   -0.4657   -1.6147   -2.1166 H   0  0  0  0  0  0  0  0  0  0  0  0
    0.5866   -1.2286    0.2505 H   0  0  0  0  0  0  0  0  0  0  0  0
   -1.3456   -1.1348    0.1742 H   0  0  0  0  0  0  0  0  0  0  0  0
    0.4030    1.3613    0.0341 H   0  0  0  0  0  0  0  0  0  0  0  0
   -0.3964    0.7423    1.4905 H   0  0  0  0  0  0  0  0  0  0  0  0
   -1.6577    2.7808    1.6059 H   0  0  0  0  0  0  0  0  0  0  0  0
   -0.8720    3.3609    0.1299 H   0  0  0  0  0  0  0  0  0  0  0  0
   -3.8746    2.8263    0.4426 H   0  0  0  0  0  0  0  0  0  0  0  0
   -3.0890    3.4076   -1.0319 H   0  0  0  0  0  0  0  0  0  0  0  0
   -3.1058    4.4217    0.4200 H   0  0  0  0  0  0  0  0  0  0  0  0
  1  2  1  0
  1  4  1  0
  2  3  2  3
  3  5  1  0
  3 15  1  0
  6  7  1  0
  6 12  1  0
  6 13  1  0
  6 14  1  0
  7  8  1  0
  7 16  1  0
  8  9  1  0
  8 17  1  0
  8 18  1  0
  9 10  1  0
 10 11  1  0
 10 19  1  0
 10 20  1  0
 11 21  1  0
 11 22  1  0
 11 23  1  0
M  RAD  1   7   2
M  END
>  <reaction>  (25) 
rmg_rxn_15421

>  <mol_properties>  (25) 
{"1": {"label": "*4", "atom_type": "N3d"}, "2": {"label": "*3", "atom_type": "Cd"}, "6": {"label": "*1", "atom_type": "Cs"}, "7": {"label": "*0", "atom_type": "Cs"}, "14": {"label": "*2", "atom_type": "H0"}}

>  <type>  (25) 
unop_21

>  <geom_source>  (25) 
Heuristics

$$$$

     RDKit          3D

 23 21  0  0  0  0  0  0  0  0999 V2000
   -1.6425   -0.7475    0.1396 O   0  0  0  0  0  0  0  0  0  0  0  0
    4.1401    2.6646    0.1797 O   0  0  0  0  0  0  0  0  0  0  0  0
    3.0533    1.8711   -0.1035 N   0  0  0  0  0  0  0  0  0  0  0  0
   -2.7549   -0.4751   -0.6918 C   0  0  0  0  0  0  0  0  0  0  0  0
   -0.4380   -0.4040   -0.5152 C   0  0  0  0  0  0  0  0  0  0  0  0
   -3.3611    0.8777   -0.3360 C   0  0  0  0  0  0  0  0  0  0  0  0
    0.9543   -2.0274    0.8470 C   0  0  0  0  0  0  0  0  0  0  0  0
    0.7359   -0.5723    0.4460 C   0  0  0  0  0  3  0  0  0  0  0  0
    3.0037    0.6512    0.3191 C   0  0  0  0  0  0  0  0  0  0  0  0
   -3.5212   -1.2569   -0.5051 H   0  0  0  0  0  0  0  0  0  0  0  0
   -2.5237   -0.5139   -1.7830 H   0  0  0  0  0  0  0  0  0  0  0  0
   -3.6311    0.9017    0.7410 H   0  0  0  0  0  0  0  0  0  0  0  0
   -2.6382    1.6928   -0.5482 H   0  0  0  0  0  0  0  0  0  0  0  0
   -4.2772    1.0476   -0.9400 H   0  0  0  0  0  0  0  0  0  0  0  0
   -0.4525    0.6590   -0.8446 H   0  0  0  0  0  0  0  0  0  0  0  0
   -0.2734   -1.0557   -1.4030 H   0  0  0  0  0  0  0  0  0  0  0  0
    1.8427   -2.0949    1.5086 H   0  0  0  0  0  0  0  0  0  0  0  0
    1.1361   -2.6500   -0.0543 H   0  0  0  0  0  0  0  0  0  0  0  0
    0.0701   -2.4169    1.3946 H   0  0  0  0  0  0  0  0  0  0  0  0
    0.5874    0.0573    1.3500 H   0  0  0  0  0  0  0  0  0  0  0  0
    3.8164    0.2359    0.9019 H   0  0  0  0  0  0  0  0  0  0  0  0
    2.0028   -0.0634    0.0523 H   0  0  0  0  0  0  0  0  0  0  0  0
    4.1709    3.6192   -0.1552 H   0  0  0  0  0  0  0  0  0  0  0  0
  1  4  1  0
  1  5  1  0
  2  3  1  0
  2 23  1  0
  3  9  2  3
  4  6  1  0
  4 10  1  0
  4 11  1  0
  5  8  1  0
  5 15  1  0
  5 16  1  0
  6 12  1  0
  6 13  1  0
  6 14  1  0
  7  8  1  0
  7 17  1  0
  7 18  1  0
  7 19  1  0
  8 20  1  0
  9 21  1  0
  9 22  1  0
M  RAD  1   8   2
M  END
>  <reaction>  (26) 
rmg_rxn_15421

>  <mol_properties>  (26) 
{"1": {"label": "*4", "atom_type": "N3d"}, "2": {"label": "*3", "atom_type": "Cd"}, "6": {"label": "*1", "atom_type": "Cs"}, "7": {"label": "*0", "atom_type": "Cs"}, "14": {"label": "*2", "atom_type": "H0"}}

>  <type>  (26) 
unop_22

>  <geom_source>  (26) 
AutoTST

$$$$

     RDKit          3D

 23 21  0  0  0  0  0  0  0  0999 V2000
    3.7396   -2.3070    0.6307 O   0  0  0  0  0  0  0  0  0  0  0  0
    2.6011   -1.9751   -0.0768 N   0  0  0  0  0  0  0  0  0  0  0  0
    1.5674   -2.0152    0.6466 C   0  0  0  0  0  0  0  0  0  0  0  0
    4.4364   -2.2380   -0.0249 H   0  0  0  0  0  0  0  0  0  0  0  0
    1.5990   -2.2829    1.7006 H   0  0  0  0  0  0  0  0  0  0  0  0
   -0.5370   -0.7584   -1.7745 C   0  0  0  0  0  0  0  0  0  0  0  0
   -0.5370   -0.7584   -0.2516 C   0  0  0  0  0  3  0  0  0  0  0  0
   -0.5370    0.6346    0.3439 C   0  0  0  0  0  0  0  0  0  0  0  0
   -1.7200    1.2982   -0.0237 O   0  0  0  0  0  0  0  0  0  0  0  0
   -1.7907    2.6163    0.4572 C   0  0  0  0  0  0  0  0  0  0  0  0
   -3.0940    3.2341    0.0064 C   0  0  0  0  0  0  0  0  0  0  0  0
    0.3451   -0.2441   -2.1641 H   0  0  0  0  0  0  0  0  0  0  0  0
   -1.4197   -0.2487   -2.1606 H   0  0  0  0  0  0  0  0  0  0  0  0
   -0.5315   -1.7763   -2.1672 H   0  0  0  0  0  0  0  0  0  0  0  0
    0.5209   -1.3902    0.1999 H   0  0  0  0  0  0  0  0  0  0  0  0
   -1.4114   -1.2964    0.1237 H   0  0  0  0  0  0  0  0  0  0  0  0
    0.3372    1.1997   -0.0165 H   0  0  0  0  0  0  0  0  0  0  0  0
   -0.4622    0.5807    1.4400 H   0  0  0  0  0  0  0  0  0  0  0  0
   -1.7234    2.6191    1.5553 H   0  0  0  0  0  0  0  0  0  0  0  0
   -0.9378    3.1993    0.0793 H   0  0  0  0  0  0  0  0  0  0  0  0
   -3.9404    2.6647    0.3921 H   0  0  0  0  0  0  0  0  0  0  0  0
   -3.1548    3.2459   -1.0825 H   0  0  0  0  0  0  0  0  0  0  0  0
   -3.1716    4.2601    0.3694 H   0  0  0  0  0  0  0  0  0  0  0  0
  1  2  1  0
  1  4  1  0
  2  3  2  3
  3  5  1  0
  3 15  1  0
  6  7  1  0
  6 12  1  0
  6 13  1  0
  6 14  1  0
  7  8  1  0
  7 16  1  0
  8  9  1  0
  8 17  1  0
  8 18  1  0
  9 10  1  0
 10 11  1  0
 10 19  1  0
 10 20  1  0
 11 21  1  0
 11 22  1  0
 11 23  1  0
M  RAD  1   7   2
M  END
>  <reaction>  (27) 
rmg_rxn_15421

>  <mol_properties>  (27) 
{"1": {"label": "*4", "atom_type": "N3d"}, "2": {"label": "*3", "atom_type": "Cd"}, "6": {"label": "*1", "atom_type": "Cs"}, "7": {"label": "*0", "atom_type": "Cs"}, "14": {"label": "*2", "atom_type": "H0"}}

>  <type>  (27) 
unop_23

>  <geom_source>  (27) 
gaussian_log

$$$$
