
     RDKit          3D

 18 17  0  0  0  0  0  0  0  0999 V2000
   -2.0259    0.7229    0.6723 C   0  0  0  0  0  0  0  0  0  0  0  0
   -2.2633   -0.2033   -0.5051 C   0  0  0  0  0  0  0  0  0  0  0  0
   -3.5759   -0.8351   -0.4348 N   0  0  0  0  0  0  0  0  0  0  0  0
   -3.5393   -1.8229    0.5861 O   0  0  0  0  0  0  0  0  0  0  0  0
   -4.4084   -1.5320    1.5957 C   0  0  0  0  0  0  0  0  0  0  0  0
   -4.4166   -2.2104    2.7340 C   0  0  0  0  0  0  0  0  0  0  0  0
   -3.4994   -3.3391    3.0843 C   0  0  0  0  0  0  0  0  0  0  0  0
   -2.0352    0.1659    1.6099 H   0  0  0  0  0  0  0  0  0  0  0  0
   -1.0559    1.2133    0.5798 H   0  0  0  0  0  0  0  0  0  0  0  0
   -2.8013    1.4887    0.7204 H   0  0  0  0  0  0  0  0  0  0  0  0
   -2.2626    0.3628   -1.4408 H   0  0  0  0  0  0  0  0  0  0  0  0
   -1.4644   -0.9527   -0.5666 H   0  0  0  0  0  0  0  0  0  0  0  0
   -3.7195   -1.3835   -1.2755 H   0  0  0  0  0  0  0  0  0  0  0  0
   -5.0825   -0.7139    1.3763 H   0  0  0  0  0  0  0  0  0  0  0  0
   -5.1648   -1.9154    3.4592 H   0  0  0  0  0  0  0  0  0  0  0  0
   -2.9929   -3.1494    4.0339 H   0  0  0  0  0  0  0  0  0  0  0  0
   -4.0525   -4.2753    3.1986 H   0  0  0  0  0  0  0  0  0  0  0  0
   -2.7409   -3.4889    2.3171 H   0  0  0  0  0  0  0  0  0  0  0  0
  1  2  1  0
  1  8  1  0
  1  9  1  0
  1 10  1  0
  2  3  1  0
  2 11  1  0
  2 12  1  0
  3  4  1  0
  3 13  1  0
  4  5  1  0
  5  6  2  3
  5 14  1  0
  6  7  1  0
  6 15  1  0
  7 16  1  0
  7 17  1  0
  7 18  1  0
M  END
>  <reaction>  (1) 
rmg_rxn_15713

>  <mol_properties>  (1) 
{"2": {"label": "donator", "atom_type": "N3s"}, "12": {"label": "d_hydrogen", "atom_type": "H0"}}

>  <type>  (1) 
r1h

$$$$

     RDKit          3D

  8  7  0  0  0  0  0  0  0  0999 V2000
    1.7077   -0.1964   -0.0607 C   0  0  0  0  0  3  0  0  0  0  0  0
    0.4209   -0.4565    0.2808 O   0  0  0  0  0  0  0  0  0  0  0  0
   -0.4607    0.4385   -0.2968 N   0  0  0  0  0  0  0  0  0  0  0  0
   -1.6584    0.1416   -0.0244 C   0  0  0  0  0  0  0  0  0  0  0  0
    2.4163   -0.7685    0.5170 H   0  0  0  0  0  0  0  0  0  0  0  0
    1.9214    0.7645   -0.5045 H   0  0  0  0  0  0  0  0  0  0  0  0
   -2.4185    0.7953   -0.4307 H   0  0  0  0  0  0  0  0  0  0  0  0
   -1.9286   -0.7185    0.5831 H   0  0  0  0  0  0  0  0  0  0  0  0
  1  2  1  0
  1  5  1  0
  1  6  1  0
  2  3  1  0
  3  4  2  3
  4  7  1  0
  4  8  1  0
M  RAD  1   1   2
M  END
>  <reaction>  (2) 
rmg_rxn_15713

>  <mol_properties>  (2) 
{"0": {"label": "acceptor", "atom_type": "Cs"}}

>  <type>  (2) 
r2

$$$$

     RDKit          3D

  9  8  0  0  0  0  0  0  0  0999 V2000
   -1.5470   -0.0755   -0.1976 C   0  0  0  0  0  0  0  0  0  0  0  0
   -0.2885    0.4507    0.1749 O   0  0  0  0  0  0  0  0  0  0  0  0
   -0.1502    1.7216   -0.3294 N   0  0  0  0  0  0  0  0  0  0  0  0
    0.9626    2.2353   -0.0219 C   0  0  0  0  0  0  0  0  0  0  0  0
   -1.6392   -0.1356   -1.2844 H   0  0  0  0  0  0  0  0  0  0  0  0
   -2.3597    0.5337    0.2044 H   0  0  0  0  0  0  0  0  0  0  0  0
   -1.5879   -1.0750    0.2318 H   0  0  0  0  0  0  0  0  0  0  0  0
    1.1497    3.2381   -0.3820 H   0  0  0  0  0  0  0  0  0  0  0  0
    1.7060    1.7101    0.5739 H   0  0  0  0  0  0  0  0  0  0  0  0
  1  2  1  0
  1  5  1  0
  1  6  1  0
  1  7  1  0
  2  3  1  0
  3  4  2  3
  4  8  1  0
  4  9  1  0
M  END
>  <reaction>  (3) 
rmg_rxn_15713

>  <mol_properties>  (3) 
{"0": {"label": "acceptor", "atom_type": "Cs"}, "8": {"label": "a_hydrogen", "atom_type": "H0"}}

>  <type>  (3) 
r2h

$$$$

     RDKit          3D

 26 24  0  0  0  0  0  0  0  0999 V2000
   -1.8599    0.0153    0.9546 C   0  0  0  0  0  3  0  0  0  0  0  0
   -0.7706    0.6077    1.5574 O   0  0  0  0  0  0  0  0  0  0  0  0
    0.0659   -0.3394    2.1134 N   0  0  0  0  0  0  0  0  0  0  0  0
    1.1130    0.1884    2.5832 C   0  0  0  0  0  0  0  0  0  0  0  0
   -2.2395   -0.8514    1.4939 H   0  0  0  0  0  0  0  0  0  0  0  0
   -2.5904    0.7841    0.7203 H   0  0  0  0  0  0  0  0  0  0  0  0
    1.8227   -0.4815    3.0498 H   0  0  0  0  0  0  0  0  0  0  0  0
    1.3066    1.2568    2.5282 H   0  0  0  0  0  0  0  0  0  0  0  0
    0.2741   -2.9336   -2.0722 C   0  0  0  0  0  0  0  0  0  0  0  0
   -0.4263   -2.2409   -0.9146 C   0  0  0  0  0  0  0  0  0  0  0  0
   -0.8454   -0.8937   -1.2703 N   0  0  0  0  0  0  0  0  0  0  0  0
    0.3203   -0.1109   -1.2660 O   0  0  0  0  0  0  0  0  0  0  0  0
    0.1174    1.0701   -1.9121 C   0  0  0  0  0  0  0  0  0  0  0  0
    0.8606    2.1385   -1.6615 C   0  0  0  0  0  0  0  0  0  0  0  0
    1.9447    2.2156   -0.6355 C   0  0  0  0  0  0  0  0  0  0  0  0
    1.1939   -2.4105   -2.3330 H   0  0  0  0  0  0  0  0  0  0  0  0
    0.5292   -3.9590   -1.7992 H   0  0  0  0  0  0  0  0  0  0  0  0
   -0.3700   -2.9581   -2.9523 H   0  0  0  0  0  0  0  0  0  0  0  0
   -1.3475   -2.7689   -0.6560 H   0  0  0  0  0  0  0  0  0  0  0  0
    0.2122   -2.2301   -0.0243 H   0  0  0  0  0  0  0  0  0  0  0  0
   -1.4416   -0.4822   -0.3031 H   0  0  0  0  0  0  0  0  0  0  0  0
   -0.6770    1.0437   -2.6483 H   0  0  0  0  0  0  0  0  0  0  0  0
    0.6635    3.0156   -2.2656 H   0  0  0  0  0  0  0  0  0  0  0  0
    2.9208    2.3723   -1.1021 H   0  0  0  0  0  0  0  0  0  0  0  0
    1.7748    3.0553    0.0433 H   0  0  0  0  0  0  0  0  0  0  0  0
    1.9933    1.2996   -0.0480 H   0  0  0  0  0  0  0  0  0  0  0  0
  1  2  1  0
  1  5  1  0
  1  6  1  0
  2  3  1  0
  3  4  2  3
  4  7  1  0
  4  8  1  0
  9 10  1  0
  9 16  1  0
  9 17  1  0
  9 18  1  0
 10 11  1  0
 10 19  1  0
 10 20  1  0
 11 12  1  0
 11 21  1  0
 12 13  1  0
 13 14  2  3
 13 22  1  0
 14 15  1  0
 14 23  1  0
 15 24  1  0
 15 25  1  0
 15 26  1  0
M  RAD  1   1   2
M  END
>  <reaction>  (4) 
rmg_rxn_15713

>  <mol_properties>  (4) 
{"0": {"label": "*3", "atom_type": "Cs"}, "1": {"label": "*4", "atom_type": "O2s"}, "10": {"label": "*1", "atom_type": "N3s"}, "11": {"label": "*0", "atom_type": "O2s"}, "20": {"label": "*2", "atom_type": "H0"}}

>  <type>  (4) 
ts

$$$$

     RDKit          3D

 26 24  0  0  0  0  0  0  0  0999 V2000
    1.0548   -1.4097   -0.0433 C   0  0  0  0  0  3  0  0  0  0  0  0
    2.4104   -1.1958   -0.2961 O   0  0  0  0  0  0  0  0  0  0  0  0
    2.9880   -0.3504    0.6247 N   0  0  0  0  0  0  0  0  0  0  0  0
    4.2054   -0.0757    0.4408 C   0  0  0  0  0  0  0  0  0  0  0  0
    0.7738   -2.3286   -0.5489 H   0  0  0  0  0  0  0  0  0  0  0  0
    0.8240   -1.4227    1.0208 H   0  0  0  0  0  0  0  0  0  0  0  0
    4.6628    0.5814    1.1590 H   0  0  0  0  0  0  0  0  0  0  0  0
    4.8023   -0.4610   -0.3802 H   0  0  0  0  0  0  0  0  0  0  0  0
    0.6181    2.0411    0.6544 C   0  0  0  0  0  0  0  0  0  0  0  0
    0.2397    1.7368   -0.7966 C   0  0  0  0  0  0  0  0  0  0  0  0
   -0.3985    0.4678   -1.0110 N   0  0  0  0  0  0  0  0  0  0  0  0
   -1.5730    0.4002   -0.2588 O   0  0  0  0  0  0  0  0  0  0  0  0
   -2.3766   -0.6313   -0.6216 C   0  0  0  0  0  0  0  0  0  0  0  0
   -3.5031   -0.9082    0.0300 C   0  0  0  0  0  0  0  0  0  0  0  0
   -4.0103   -0.1412    1.2050 C   0  0  0  0  0  0  0  0  0  0  0  0
    1.3641    1.3313    1.0063 H   0  0  0  0  0  0  0  0  0  0  0  0
    1.0293    3.0446    0.7245 H   0  0  0  0  0  0  0  0  0  0  0  0
   -0.2625    1.9778    1.2895 H   0  0  0  0  0  0  0  0  0  0  0  0
   -0.4409    2.5154   -1.1635 H   0  0  0  0  0  0  0  0  0  0  0  0
    1.1292    1.7243   -1.4308 H   0  0  0  0  0  0  0  0  0  0  0  0
    0.3585   -0.4638   -0.5748 H   0  0  0  0  0  0  0  0  0  0  0  0
   -2.0315   -1.2026   -1.4736 H   0  0  0  0  0  0  0  0  0  0  0  0
   -4.1016   -1.7368   -0.3139 H   0  0  0  0  0  0  0  0  0  0  0  0
   -4.1339   -0.8019    2.0628 H   0  0  0  0  0  0  0  0  0  0  0  0
   -3.3186    0.6543    1.4650 H   0  0  0  0  0  0  0  0  0  0  0  0
   -4.9838    0.2946    0.9811 H   0  0  0  0  0  0  0  0  0  0  0  0
  1  2  1  0
  1  5  1  0
  1  6  1  0
  2  3  1  0
  3  4  2  3
  4  7  1  0
  4  8  1  0
  9 10  1  0
  9 16  1  0
  9 17  1  0
  9 18  1  0
 10 11  1  0
 10 19  1  0
 10 20  1  0
 11 12  1  0
 11 21  1  0
 12 13  1  0
 13 14  2  3
 13 22  1  0
 14 15  1  0
 14 23  1  0
 15 24  1  0
 15 25  1  0
 15 26  1  0
M  RAD  1   1   2
M  END
>  <reaction>  (5) 
rmg_rxn_15713

>  <mol_properties>  (5) 
{"0": {"label": "*3", "atom_type": "Cs"}, "1": {"label": "*4", "atom_type": "O2s"}, "10": {"label": "*1", "atom_type": "N3s"}, "11": {"label": "*0", "atom_type": "O2s"}, "20": {"label": "*2", "atom_type": "H0"}}

>  <type>  (5) 
unop_1

>  <geom_source>  (5) 
crest_best.xyz

$$$$

     RDKit          3D

 26 24  0  0  0  0  0  0  0  0999 V2000
   -1.2518   -0.7193    1.7900 C   0  0  0  0  0  3  0  0  0  0  0  0
   -0.0880   -0.0923    2.2921 O   0  0  0  0  0  0  0  0  0  0  0  0
   -0.4003    0.6291    3.4194 N   0  0  0  0  0  0  0  0  0  0  0  0
    0.6111    1.2096    3.9062 C   0  0  0  0  0  0  0  0  0  0  0  0
   -1.6704   -1.4114    2.5242 H   0  0  0  0  0  0  0  0  0  0  0  0
   -2.0064    0.0209    1.5145 H   0  0  0  0  0  0  0  0  0  0  0  0
    0.4487    1.8001    4.7980 H   0  0  0  0  0  0  0  0  0  0  0  0
    1.6018    1.1302    3.4640 H   0  0  0  0  0  0  0  0  0  0  0  0
   -1.0639   -1.9543   -2.7765 C   0  0  0  0  0  0  0  0  0  0  0  0
   -1.0639   -1.9543   -1.2598 C   0  0  0  0  0  0  0  0  0  0  0  0
   -1.0639   -0.5981   -0.7232 N   0  0  0  0  0  0  0  0  0  0  0  0
    0.2298   -0.0433   -0.9182 O   0  0  0  0  0  0  0  0  0  0  0  0
    0.1900    1.0415   -1.7436 C   0  0  0  0  0  0  0  0  0  0  0  0
    1.2919    1.6096   -2.2117 C   0  0  0  0  0  0  0  0  0  0  0  0
    2.6913    1.1575   -1.9380 C   0  0  0  0  0  0  0  0  0  0  0  0
   -0.1588   -1.4843   -3.1628 H   0  0  0  0  0  0  0  0  0  0  0  0
   -1.1029   -2.9763   -3.1560 H   0  0  0  0  0  0  0  0  0  0  0  0
   -1.9256   -1.4062   -3.1602 H   0  0  0  0  0  0  0  0  0  0  0  0
   -1.9784   -2.4177   -0.8792 H   0  0  0  0  0  0  0  0  0  0  0  0
   -0.2123   -2.5320   -0.8795 H   0  0  0  0  0  0  0  0  0  0  0  0
   -1.1545   -0.6566    0.4888 H   0  0  0  0  0  0  0  0  0  0  0  0
   -0.8101    1.3899   -1.9674 H   0  0  0  0  0  0  0  0  0  0  0  0
    1.1493    2.4817   -2.8378 H   0  0  0  0  0  0  0  0  0  0  0  0
    3.2385    0.9971   -2.8702 H   0  0  0  0  0  0  0  0  0  0  0  0
    3.2441    1.9096   -1.3686 H   0  0  0  0  0  0  0  0  0  0  0  0
    2.7059    0.2285   -1.3696 H   0  0  0  0  0  0  0  0  0  0  0  0
  1  2  1  0
  1  5  1  0
  1  6  1  0
  2  3  1  0
  3  4  2  3
  4  7  1  0
  4  8  1  0
  9 10  1  0
  9 16  1  0
  9 17  1  0
  9 18  1  0
 10 11  1  0
 10 19  1  0
 10 20  1  0
 11 12  1  0
 11 21  1  0
 12 13  1  0
 13 14  2  3
 13 22  1  0
 14 15  1  0
 14 23  1  0
 15 24  1  0
 15 25  1  0
 15 26  1  0
M  RAD  1   1   2
M  END
>  <reaction>  (6) 
rmg_rxn_15713

>  <mol_properties>  (6) 
{"0": {"label": "*3", "atom_type": "Cs"}, "1": {"label": "*4", "atom_type": "O2s"}, "10": {"label": "*1", "atom_type": "N3s"}, "11": {"label": "*0", "atom_type": "O2s"}, "20": {"label": "*2", "atom_type": "H0"}}

>  <type>  (6) 
unop_2

>  <geom_source>  (6) 
Heuristics

$$$$

     RDKit          3D

 26 24  0  0  0  0  0  0  0  0999 V2000
    1.0531    1.4076    0.0372 C   0  0  0  0  0  3  0  0  0  0  0  0
    2.4087    1.1986    0.2940 O   0  0  0  0  0  0  0  0  0  0  0  0
    2.9904    0.3498   -0.6210 N   0  0  0  0  0  0  0  0  0  0  0  0
    4.2082    0.0794   -0.4333 C   0  0  0  0  0  0  0  0  0  0  0  0
    0.7682    2.3276    0.5386 H   0  0  0  0  0  0  0  0  0  0  0  0
    0.8247    1.4158   -1.0274 H   0  0  0  0  0  0  0  0  0  0  0  0
    4.6686   -0.5804   -1.1470 H   0  0  0  0  0  0  0  0  0  0  0  0
    4.8025    0.4706    0.3869 H   0  0  0  0  0  0  0  0  0  0  0  0
    0.6201   -2.0416   -0.6578 C   0  0  0  0  0  0  0  0  0  0  0  0
    0.2394   -1.7391    0.7929 C   0  0  0  0  0  0  0  0  0  0  0  0
   -0.3980   -0.4699    1.0083 N   0  0  0  0  0  0  0  0  0  0  0  0
   -1.5736   -0.4015    0.2578 O   0  0  0  0  0  0  0  0  0  0  0  0
   -2.3767    0.6292    0.6238 C   0  0  0  0  0  0  0  0  0  0  0  0
   -3.5037    0.9084   -0.0258 C   0  0  0  0  0  0  0  0  0  0  0  0
   -4.0126    0.1451   -1.2025 C   0  0  0  0  0  0  0  0  0  0  0  0
   -0.2591   -1.9762   -1.2944 H   0  0  0  0  0  0  0  0  0  0  0  0
    1.0302   -3.0456   -0.7287 H   0  0  0  0  0  0  0  0  0  0  0  0
    1.3677   -1.3323   -1.0071 H   0  0  0  0  0  0  0  0  0  0  0  0
   -0.4425   -2.5176    1.1574 H   0  0  0  0  0  0  0  0  0  0  0  0
    1.1280   -1.7283    1.4286 H   0  0  0  0  0  0  0  0  0  0  0  0
    0.3583    0.4616    0.5708 H   0  0  0  0  0  0  0  0  0  0  0  0
   -2.0307    1.1980    1.4771 H   0  0  0  0  0  0  0  0  0  0  0  0
   -4.1016    1.7362    0.3212 H   0  0  0  0  0  0  0  0  0  0  0  0
   -3.3208   -0.6489   -1.4668 H   0  0  0  0  0  0  0  0  0  0  0  0
   -4.9853   -0.2923   -0.9782 H   0  0  0  0  0  0  0  0  0  0  0  0
   -4.1385    0.8089   -2.0577 H   0  0  0  0  0  0  0  0  0  0  0  0
  1  2  1  0
  1  5  1  0
  1  6  1  0
  2  3  1  0
  3  4  2  3
  4  7  1  0
  4  8  1  0
  9 10  1  0
  9 16  1  0
  9 17  1  0
  9 18  1  0
 10 11  1  0
 10 19  1  0
 10 20  1  0
 11 12  1  0
 11 21  1  0
 12 13  1  0
 13 14  2  3
 13 22  1  0
 14 15  1  0
 14 23  1  0
 15 24  1  0
 15 25  1  0
 15 26  1  0
M  RAD  1   1   2
M  END
>  <reaction>  (7) 
rmg_rxn_15713

>  <mol_properties>  (7) 
{"0": {"label": "*3", "atom_type": "Cs"}, "1": {"label": "*4", "atom_type": "O2s"}, "10": {"label": "*1", "atom_type": "N3s"}, "11": {"label": "*0", "atom_type": "O2s"}, "20": {"label": "*2", "atom_type": "H0"}}

>  <type>  (7) 
unop_3

>  <geom_source>  (7) 
Heuristics

$$$$

     RDKit          3D

 26 24  0  0  0  0  0  0  0  0999 V2000
    1.6450    0.5270    1.4594 C   0  0  0  0  0  3  0  0  0  0  0  0
    0.9226    1.5849    0.9005 O   0  0  0  0  0  0  0  0  0  0  0  0
    1.2148    1.7601   -0.4349 N   0  0  0  0  0  0  0  0  0  0  0  0
    0.5211    2.6173   -1.0451 C   0  0  0  0  0  0  0  0  0  0  0  0
    2.6796    0.4996    1.1211 H   0  0  0  0  0  0  0  0  0  0  0  0
    1.5536    0.6125    2.5373 H   0  0  0  0  0  0  0  0  0  0  0  0
    0.7486    2.7665   -2.0856 H   0  0  0  0  0  0  0  0  0  0  0  0
   -0.2711    3.2014   -0.5863 H   0  0  0  0  0  0  0  0  0  0  0  0
    1.6076   -1.4358   -1.5772 C   0  0  0  0  0  0  0  0  0  0  0  0
    1.2736   -2.2556   -0.3296 C   0  0  0  0  0  0  0  0  0  0  0  0
    0.4507   -1.5871    0.6407 N   0  0  0  0  0  0  0  0  0  0  0  0
   -0.6853   -1.0724    0.0172 O   0  0  0  0  0  0  0  0  0  0  0  0
   -1.6122   -0.6096    0.8913 C   0  0  0  0  0  0  0  0  0  0  0  0
   -2.6868    0.0598    0.4816 C   0  0  0  0  0  0  0  0  0  0  0  0
   -2.9881    0.3774   -0.9450 C   0  0  0  0  0  0  0  0  0  0  0  0
    0.7009   -1.2241   -2.1383 H   0  0  0  0  0  0  0  0  0  0  0  0
    2.0652   -0.4888   -1.3006 H   0  0  0  0  0  0  0  0  0  0  0  0
    2.2915   -1.9927   -2.2121 H   0  0  0  0  0  0  0  0  0  0  0  0
    0.7541   -3.1743   -0.6314 H   0  0  0  0  0  0  0  0  0  0  0  0
    2.1830   -2.5349    0.2081 H   0  0  0  0  0  0  0  0  0  0  0  0
    1.0933   -0.5808    1.1063 H   0  0  0  0  0  0  0  0  0  0  0  0
   -1.4087   -0.8193    1.9336 H   0  0  0  0  0  0  0  0  0  0  0  0
   -3.3977    0.3895    1.2225 H   0  0  0  0  0  0  0  0  0  0  0  0
   -2.1589    0.0818   -1.5812 H   0  0  0  0  0  0  0  0  0  0  0  0
   -3.8871   -0.1469   -1.2701 H   0  0  0  0  0  0  0  0  0  0  0  0
   -3.1675    1.4455   -1.0642 H   0  0  0  0  0  0  0  0  0  0  0  0
  1  2  1  0
  1  5  1  0
  1  6  1  0
  2  3  1  0
  3  4  2  3
  4  7  1  0
  4  8  1  0
  9 10  1  0
  9 16  1  0
  9 17  1  0
  9 18  1  0
 10 11  1  0
 10 19  1  0
 10 20  1  0
 11 12  1  0
 11 21  1  0
 12 13  1  0
 13 14  2  3
 13 22  1  0
 14 15  1  0
 14 23  1  0
 15 24  1  0
 15 25  1  0
 15 26  1  0
M  RAD  1   1   2
M  END
>  <reaction>  (8) 
rmg_rxn_15713

>  <mol_properties>  (8) 
{"0": {"label": "*3", "atom_type": "Cs"}, "1": {"label": "*4", "atom_type": "O2s"}, "10": {"label": "*1", "atom_type": "N3s"}, "11": {"label": "*0", "atom_type": "O2s"}, "20": {"label": "*2", "atom_type": "H0"}}

>  <type>  (8) 
unop_4

>  <geom_source>  (8) 
Heuristics

$$$$

     RDKit          3D

 26 24  0  0  0  0  0  0  0  0999 V2000
   -1.1758    0.0595    1.7971 C   0  0  0  0  0  3  0  0  0  0  0  0
   -0.5558   -1.1555    2.1697 O   0  0  0  0  0  0  0  0  0  0  0  0
   -0.2390   -1.1228    3.5066 N   0  0  0  0  0  0  0  0  0  0  0  0
    0.3192   -2.1904    3.8880 C   0  0  0  0  0  0  0  0  0  0  0  0
   -2.1016    0.2132    2.3560 H   0  0  0  0  0  0  0  0  0  0  0  0
   -0.5057    0.9064    1.9609 H   0  0  0  0  0  0  0  0  0  0  0  0
    0.6008   -2.2444    4.9311 H   0  0  0  0  0  0  0  0  0  0  0  0
    0.5141   -3.0226    3.2150 H   0  0  0  0  0  0  0  0  0  0  0  0
   -0.9879   -1.1755   -2.7695 C   0  0  0  0  0  0  0  0  0  0  0  0
   -0.9879   -1.1755   -1.2528 C   0  0  0  0  0  0  0  0  0  0  0  0
   -0.9879    0.1806   -0.7162 N   0  0  0  0  0  0  0  0  0  0  0  0
    0.3057    0.7355   -0.9112 O   0  0  0  0  0  0  0  0  0  0  0  0
    0.2660    1.8202   -1.7366 C   0  0  0  0  0  0  0  0  0  0  0  0
    1.3679    2.3884   -2.2047 C   0  0  0  0  0  0  0  0  0  0  0  0
    2.7673    1.9363   -1.9310 C   0  0  0  0  0  0  0  0  0  0  0  0
   -0.0828   -0.7055   -3.1558 H   0  0  0  0  0  0  0  0  0  0  0  0
   -1.0269   -2.1975   -3.1490 H   0  0  0  0  0  0  0  0  0  0  0  0
   -1.8496   -0.6274   -3.1532 H   0  0  0  0  0  0  0  0  0  0  0  0
   -1.9024   -1.6389   -0.8722 H   0  0  0  0  0  0  0  0  0  0  0  0
   -0.1364   -1.7532   -0.8725 H   0  0  0  0  0  0  0  0  0  0  0  0
   -1.0785    0.1222    0.4958 H   0  0  0  0  0  0  0  0  0  0  0  0
   -0.7341    2.1687   -1.9604 H   0  0  0  0  0  0  0  0  0  0  0  0
    1.2253    3.2605   -2.8308 H   0  0  0  0  0  0  0  0  0  0  0  0
    3.3145    1.7759   -2.8632 H   0  0  0  0  0  0  0  0  0  0  0  0
    3.3201    2.6884   -1.3616 H   0  0  0  0  0  0  0  0  0  0  0  0
    2.7819    1.0073   -1.3626 H   0  0  0  0  0  0  0  0  0  0  0  0
  1  2  1  0
  1  5  1  0
  1  6  1  0
  2  3  1  0
  3  4  2  3
  4  7  1  0
  4  8  1  0
  9 10  1  0
  9 16  1  0
  9 17  1  0
  9 18  1  0
 10 11  1  0
 10 19  1  0
 10 20  1  0
 11 12  1  0
 11 21  1  0
 12 13  1  0
 13 14  2  3
 13 22  1  0
 14 15  1  0
 14 23  1  0
 15 24  1  0
 15 25  1  0
 15 26  1  0
M  RAD  1   1   2
M  END
>  <reaction>  (9) 
rmg_rxn_15713

>  <mol_properties>  (9) 
{"0": {"label": "*3", "atom_type": "Cs"}, "1": {"label": "*4", "atom_type": "O2s"}, "10": {"label": "*1", "atom_type": "N3s"}, "11": {"label": "*0", "atom_type": "O2s"}, "20": {"label": "*2", "atom_type": "H0"}}

>  <type>  (9) 
unop_5

>  <geom_source>  (9) 
Heuristics

$$$$

     RDKit          3D

 26 24  0  0  0  0  0  0  0  0999 V2000
    1.0530   -1.4084   -0.0257 C   0  0  0  0  0  3  0  0  0  0  0  0
    2.4082   -1.2030   -0.2872 O   0  0  0  0  0  0  0  0  0  0  0  0
    2.9920   -0.3445    0.6174 N   0  0  0  0  0  0  0  0  0  0  0  0
    4.2091   -0.0756    0.4236 C   0  0  0  0  0  0  0  0  0  0  0  0
    0.7659   -2.3314   -0.5203 H   0  0  0  0  0  0  0  0  0  0  0  0
    0.8269   -1.4093    1.0395 H   0  0  0  0  0  0  0  0  0  0  0  0
    4.6713    0.5918    1.1290 H   0  0  0  0  0  0  0  0  0  0  0  0
    4.8013   -0.4752   -0.3941 H   0  0  0  0  0  0  0  0  0  0  0  0
    0.6186    2.0416    0.6579 C   0  0  0  0  0  0  0  0  0  0  0  0
    0.2415    1.7354   -0.7930 C   0  0  0  0  0  0  0  0  0  0  0  0
   -0.3959    0.4657   -1.0064 N   0  0  0  0  0  0  0  0  0  0  0  0
   -1.5735    0.4004   -0.2589 O   0  0  0  0  0  0  0  0  0  0  0  0
   -2.3769   -0.6304   -0.6243 C   0  0  0  0  0  0  0  0  0  0  0  0
   -3.5054   -0.9068    0.0238 C   0  0  0  0  0  0  0  0  0  0  0  0
   -4.0151   -0.1400    1.1979 C   0  0  0  0  0  0  0  0  0  0  0  0
   -0.2620    1.9765    1.2928 H   0  0  0  0  0  0  0  0  0  0  0  0
    1.3664    1.3341    1.0103 H   0  0  0  0  0  0  0  0  0  0  0  0
    1.0271    3.0463    0.7275 H   0  0  0  0  0  0  0  0  0  0  0  0
   -0.4393    2.5130   -1.1614 H   0  0  0  0  0  0  0  0  0  0  0  0
    1.1317    1.7226   -1.4263 H   0  0  0  0  0  0  0  0  0  0  0  0
    0.3589   -0.4646   -0.5639 H   0  0  0  0  0  0  0  0  0  0  0  0
   -2.0297   -1.2016   -1.4756 H   0  0  0  0  0  0  0  0  0  0  0  0
   -4.1038   -1.7346   -0.3224 H   0  0  0  0  0  0  0  0  0  0  0  0
   -3.3214    0.6521    1.4629 H   0  0  0  0  0  0  0  0  0  0  0  0
   -4.9857    0.3005    0.9701 H   0  0  0  0  0  0  0  0  0  0  0  0
   -4.1459   -0.8020    2.0537 H   0  0  0  0  0  0  0  0  0  0  0  0
  1  2  1  0
  1  5  1  0
  1  6  1  0
  2  3  1  0
  3  4  2  3
  4  7  1  0
  4  8  1  0
  9 10  1  0
  9 16  1  0
  9 17  1  0
  9 18  1  0
 10 11  1  0
 10 19  1  0
 10 20  1  0
 11 12  1  0
 11 21  1  0
 12 13  1  0
 13 14  2  3
 13 22  1  0
 14 15  1  0
 14 23  1  0
 15 24  1  0
 15 25  1  0
 15 26  1  0
M  RAD  1   1   2
M  END
>  <reaction>  (10) 
rmg_rxn_15713

>  <mol_properties>  (10) 
{"0": {"label": "*3", "atom_type": "Cs"}, "1": {"label": "*4", "atom_type": "O2s"}, "10": {"label": "*1", "atom_type": "N3s"}, "11": {"label": "*0", "atom_type": "O2s"}, "20": {"label": "*2", "atom_type": "H0"}}

>  <type>  (10) 
unop_6

>  <geom_source>  (10) 
Heuristics

$$$$

     RDKit          3D

 26 24  0  0  0  0  0  0  0  0999 V2000
   -1.0444   -0.8315    1.7755 C   0  0  0  0  0  3  0  0  0  0  0  0
   -0.3646    0.3073    2.2660 O   0  0  0  0  0  0  0  0  0  0  0  0
   -0.8728    0.6566    3.4943 N   0  0  0  0  0  0  0  0  0  0  0  0
   -0.2951    1.6724    3.9750 C   0  0  0  0  0  0  0  0  0  0  0  0
   -0.9131   -1.6838    2.4459 H   0  0  0  0  0  0  0  0  0  0  0  0
   -2.1100   -0.6265    1.6500 H   0  0  0  0  0  0  0  0  0  0  0  0
   -0.6382    2.0126    4.9429 H   0  0  0  0  0  0  0  0  0  0  0  0
    0.5080    2.1907    3.4555 H   0  0  0  0  0  0  0  0  0  0  0  0
   -0.8565   -2.0665   -2.7911 C   0  0  0  0  0  0  0  0  0  0  0  0
   -0.8565   -2.0665   -1.2744 C   0  0  0  0  0  0  0  0  0  0  0  0
   -0.8565   -0.7103   -0.7378 N   0  0  0  0  0  0  0  0  0  0  0  0
    0.4372   -0.1555   -0.9328 O   0  0  0  0  0  0  0  0  0  0  0  0
    0.3975    0.9293   -1.7582 C   0  0  0  0  0  0  0  0  0  0  0  0
    1.4993    1.4975   -2.2263 C   0  0  0  0  0  0  0  0  0  0  0  0
    2.8987    1.0454   -1.9526 C   0  0  0  0  0  0  0  0  0  0  0  0
    0.0486   -1.5965   -3.1774 H   0  0  0  0  0  0  0  0  0  0  0  0
   -0.8954   -3.0885   -3.1706 H   0  0  0  0  0  0  0  0  0  0  0  0
   -1.7182   -1.5184   -3.1748 H   0  0  0  0  0  0  0  0  0  0  0  0
   -1.7710   -2.5299   -0.8938 H   0  0  0  0  0  0  0  0  0  0  0  0
   -0.0049   -2.6442   -0.8941 H   0  0  0  0  0  0  0  0  0  0  0  0
   -0.9471   -0.7688    0.4742 H   0  0  0  0  0  0  0  0  0  0  0  0
   -0.6027    1.2777   -1.9820 H   0  0  0  0  0  0  0  0  0  0  0  0
    1.3567    2.3695   -2.8524 H   0  0  0  0  0  0  0  0  0  0  0  0
    3.4459    0.8849   -2.8848 H   0  0  0  0  0  0  0  0  0  0  0  0
    3.4515    1.7974   -1.3832 H   0  0  0  0  0  0  0  0  0  0  0  0
    2.9134    0.1163   -1.3842 H   0  0  0  0  0  0  0  0  0  0  0  0
  1  2  1  0
  1  5  1  0
  1  6  1  0
  2  3  1  0
  3  4  2  3
  4  7  1  0
  4  8  1  0
  9 10  1  0
  9 16  1  0
  9 17  1  0
  9 18  1  0
 10 11  1  0
 10 19  1  0
 10 20  1  0
 11 12  1  0
 11 21  1  0
 12 13  1  0
 13 14  2  3
 13 22  1  0
 14 15  1  0
 14 23  1  0
 15 24  1  0
 15 25  1  0
 15 26  1  0
M  RAD  1   1   2
M  END
>  <reaction>  (11) 
rmg_rxn_15713

>  <mol_properties>  (11) 
{"0": {"label": "*3", "atom_type": "Cs"}, "1": {"label": "*4", "atom_type": "O2s"}, "10": {"label": "*1", "atom_type": "N3s"}, "11": {"label": "*0", "atom_type": "O2s"}, "20": {"label": "*2", "atom_type": "H0"}}

>  <type>  (11) 
unop_7

>  <geom_source>  (11) 
Heuristics

$$$$

     RDKit          3D

 26 24  0  0  0  0  0  0  0  0999 V2000
   -0.3657   -0.2170    1.8672 C   0  0  0  0  0  3  0  0  0  0  0  0
   -1.5866   -0.8808    2.1288 O   0  0  0  0  0  0  0  0  0  0  0  0
   -2.1298   -0.4071    3.2990 N   0  0  0  0  0  0  0  0  0  0  0  0
   -3.2256   -0.9721    3.5759 C   0  0  0  0  0  0  0  0  0  0  0  0
   -0.5224    0.8579    1.7516 H   0  0  0  0  0  0  0  0  0  0  0  0
    0.3560   -0.3967    2.6672 H   0  0  0  0  0  0  0  0  0  0  0  0
   -3.7189   -0.6542    4.4847 H   0  0  0  0  0  0  0  0  0  0  0  0
   -3.6649   -1.7409    2.9439 H   0  0  0  0  0  0  0  0  0  0  0  0
   -0.1779   -1.4520   -2.6994 C   0  0  0  0  0  0  0  0  0  0  0  0
   -0.1779   -1.4520   -1.1827 C   0  0  0  0  0  0  0  0  0  0  0  0
   -0.1779   -0.0959   -0.6461 N   0  0  0  0  0  0  0  0  0  0  0  0
    1.1158    0.4590   -0.8411 O   0  0  0  0  0  0  0  0  0  0  0  0
    1.0761    1.5437   -1.6665 C   0  0  0  0  0  0  0  0  0  0  0  0
    2.1780    2.1119   -2.1346 C   0  0  0  0  0  0  0  0  0  0  0  0
    3.5774    1.6598   -1.8609 C   0  0  0  0  0  0  0  0  0  0  0  0
    0.7273   -0.9820   -3.0857 H   0  0  0  0  0  0  0  0  0  0  0  0
   -0.2168   -2.4740   -3.0789 H   0  0  0  0  0  0  0  0  0  0  0  0
   -1.0396   -0.9039   -3.0831 H   0  0  0  0  0  0  0  0  0  0  0  0
   -1.0924   -1.9154   -0.8021 H   0  0  0  0  0  0  0  0  0  0  0  0
    0.6737   -2.0297   -0.8024 H   0  0  0  0  0  0  0  0  0  0  0  0
   -0.2685   -0.1543    0.5659 H   0  0  0  0  0  0  0  0  0  0  0  0
    0.0759    1.8922   -1.8903 H   0  0  0  0  0  0  0  0  0  0  0  0
    2.0354    2.9840   -2.7606 H   0  0  0  0  0  0  0  0  0  0  0  0
    4.1245    1.4994   -2.7931 H   0  0  0  0  0  0  0  0  0  0  0  0
    4.1302    2.4119   -1.2915 H   0  0  0  0  0  0  0  0  0  0  0  0
    3.5920    0.7308   -1.2925 H   0  0  0  0  0  0  0  0  0  0  0  0
  1  2  1  0
  1  5  1  0
  1  6  1  0
  2  3  1  0
  3  4  2  3
  4  7  1  0
  4  8  1  0
  9 10  1  0
  9 16  1  0
  9 17  1  0
  9 18  1  0
 10 11  1  0
 10 19  1  0
 10 20  1  0
 11 12  1  0
 11 21  1  0
 12 13  1  0
 13 14  2  3
 13 22  1  0
 14 15  1  0
 14 23  1  0
 15 24  1  0
 15 25  1  0
 15 26  1  0
M  RAD  1   1   2
M  END
>  <reaction>  (12) 
rmg_rxn_15713

>  <mol_properties>  (12) 
{"0": {"label": "*3", "atom_type": "Cs"}, "1": {"label": "*4", "atom_type": "O2s"}, "10": {"label": "*1", "atom_type": "N3s"}, "11": {"label": "*0", "atom_type": "O2s"}, "20": {"label": "*2", "atom_type": "H0"}}

>  <type>  (12) 
unop_8

>  <geom_source>  (12) 
Heuristics

$$$$

     RDKit          3D

 26 24  0  0  0  0  0  0  0  0999 V2000
    1.1930    1.1338   -0.7708 C   0  0  0  0  0  3  0  0  0  0  0  0
    2.4305    0.5588   -1.0816 O   0  0  0  0  0  0  0  0  0  0  0  0
    3.3913    0.4357   -0.1449 N   0  0  0  0  0  0  0  0  0  0  0  0
    3.1986    0.7252    1.0671 C   0  0  0  0  0  0  0  0  0  0  0  0
    1.2834    2.1034   -0.2770 H   0  0  0  0  0  0  0  0  0  0  0  0
    0.6485    1.2021   -1.7075 H   0  0  0  0  0  0  0  0  0  0  0  0
    4.0450    0.5896    1.7178 H   0  0  0  0  0  0  0  0  0  0  0  0
    2.2696    1.0760    1.5087 H   0  0  0  0  0  0  0  0  0  0  0  0
    0.4091   -2.2862   -0.7404 C   0  0  0  0  0  0  0  0  0  0  0  0
    0.3430   -1.7313    0.6841 C   0  0  0  0  0  0  0  0  0  0  0  0
   -0.1607   -0.3887    0.7894 N   0  0  0  0  0  0  0  0  0  0  0  0
   -1.4695   -0.3432    0.3119 O   0  0  0  0  0  0  0  0  0  0  0  0
   -2.1096    0.8145    0.6127 C   0  0  0  0  0  0  0  0  0  0  0  0
   -3.3358    1.0750    0.1660 C   0  0  0  0  0  0  0  0  0  0  0  0
   -4.1349    0.1550   -0.6938 C   0  0  0  0  0  0  0  0  0  0  0  0
   -0.5745   -2.2429   -1.2026 H   0  0  0  0  0  0  0  0  0  0  0  0
    1.1082   -1.7087   -1.3402 H   0  0  0  0  0  0  0  0  0  0  0  0
    0.7413   -3.3203   -0.7167 H   0  0  0  0  0  0  0  0  0  0  0  0
   -0.2999   -2.3764    1.2950 H   0  0  0  0  0  0  0  0  0  0  0  0
    1.3402   -1.7057    1.1310 H   0  0  0  0  0  0  0  0  0  0  0  0
    0.5349    0.3736    0.0292 H   0  0  0  0  0  0  0  0  0  0  0  0
   -1.5517    1.5002    1.2375 H   0  0  0  0  0  0  0  0  0  0  0  0
   -3.7938    2.0098    0.4482 H   0  0  0  0  0  0  0  0  0  0  0  0
   -4.4095    0.6518   -1.6241 H   0  0  0  0  0  0  0  0  0  0  0  0
   -3.5661   -0.7411   -0.9226 H   0  0  0  0  0  0  0  0  0  0  0  0
   -5.0570   -0.1298   -0.1875 H   0  0  0  0  0  0  0  0  0  0  0  0
  1  2  1  0
  1  5  1  0
  1  6  1  0
  2  3  1  0
  3  4  2  3
  4  7  1  0
  4  8  1  0
  9 10  1  0
  9 16  1  0
  9 17  1  0
  9 18  1  0
 10 11  1  0
 10 19  1  0
 10 20  1  0
 11 12  1  0
 11 21  1  0
 12 13  1  0
 13 14  2  3
 13 22  1  0
 14 15  1  0
 14 23  1  0
 15 24  1  0
 15 25  1  0
 15 26  1  0
M  RAD  1   1   2
M  END
>  <reaction>  (13) 
rmg_rxn_15713

>  <mol_properties>  (13) 
{"0": {"label": "*3", "atom_type": "Cs"}, "1": {"label": "*4", "atom_type": "O2s"}, "10": {"label": "*1", "atom_type": "N3s"}, "11": {"label": "*0", "atom_type": "O2s"}, "20": {"label": "*2", "atom_type": "H0"}}

>  <type>  (13) 
unop_9

>  <geom_source>  (13) 
Heuristics

$$$$

     RDKit          3D

 26 24  0  0  0  0  0  0  0  0999 V2000
   -0.8816   -0.8436    1.7635 C   0  0  0  0  0  3  0  0  0  0  0  0
   -0.8757    0.4970    2.2135 O   0  0  0  0  0  0  0  0  0  0  0  0
   -0.9754    0.5260    3.5839 N   0  0  0  0  0  0  0  0  0  0  0  0
   -0.9742    1.7065    4.0345 C   0  0  0  0  0  0  0  0  0  0  0  0
   -0.0327   -1.3965    2.1720 H   0  0  0  0  0  0  0  0  0  0  0  0
   -1.8115   -1.3449    2.0415 H   0  0  0  0  0  0  0  0  0  0  0  0
   -1.0497    1.8157    5.1081 H   0  0  0  0  0  0  0  0  0  0  0  0
   -0.9016    2.5799    3.3900 H   0  0  0  0  0  0  0  0  0  0  0  0
   -0.6937   -2.0786   -2.8030 C   0  0  0  0  0  0  0  0  0  0  0  0
   -0.6937   -2.0786   -1.2863 C   0  0  0  0  0  0  0  0  0  0  0  0
   -0.6937   -0.7225   -0.7497 N   0  0  0  0  0  0  0  0  0  0  0  0
    0.5999   -0.1676   -0.9447 O   0  0  0  0  0  0  0  0  0  0  0  0
    0.5602    0.9171   -1.7701 C   0  0  0  0  0  0  0  0  0  0  0  0
    1.6621    1.4853   -2.2383 C   0  0  0  0  0  0  0  0  0  0  0  0
    3.0615    1.0332   -1.9645 C   0  0  0  0  0  0  0  0  0  0  0  0
    0.2114   -1.6086   -3.1893 H   0  0  0  0  0  0  0  0  0  0  0  0
   -0.7327   -3.1006   -3.1825 H   0  0  0  0  0  0  0  0  0  0  0  0
   -1.5554   -1.5306   -3.1867 H   0  0  0  0  0  0  0  0  0  0  0  0
   -1.6082   -2.5420   -0.9057 H   0  0  0  0  0  0  0  0  0  0  0  0
    0.1578   -2.6564   -0.9060 H   0  0  0  0  0  0  0  0  0  0  0  0
   -0.7843   -0.7809    0.4623 H   0  0  0  0  0  0  0  0  0  0  0  0
   -0.4399    1.2656   -1.9939 H   0  0  0  0  0  0  0  0  0  0  0  0
    1.5195    2.3574   -2.8643 H   0  0  0  0  0  0  0  0  0  0  0  0
    3.6087    0.8727   -2.8968 H   0  0  0  0  0  0  0  0  0  0  0  0
    3.6143    1.7853   -1.3951 H   0  0  0  0  0  0  0  0  0  0  0  0
    3.0761    0.1041   -1.3961 H   0  0  0  0  0  0  0  0  0  0  0  0
  1  2  1  0
  1  5  1  0
  1  6  1  0
  2  3  1  0
  3  4  2  3
  4  7  1  0
  4  8  1  0
  9 10  1  0
  9 16  1  0
  9 17  1  0
  9 18  1  0
 10 11  1  0
 10 19  1  0
 10 20  1  0
 11 12  1  0
 11 21  1  0
 12 13  1  0
 13 14  2  3
 13 22  1  0
 14 15  1  0
 14 23  1  0
 15 24  1  0
 15 25  1  0
 15 26  1  0
M  RAD  1   1   2
M  END
>  <reaction>  (14) 
rmg_rxn_15713

>  <mol_properties>  (14) 
{"0": {"label": "*3", "atom_type": "Cs"}, "1": {"label": "*4", "atom_type": "O2s"}, "10": {"label": "*1", "atom_type": "N3s"}, "11": {"label": "*0", "atom_type": "O2s"}, "20": {"label": "*2", "atom_type": "H0"}}

>  <type>  (14) 
unop_10

>  <geom_source>  (14) 
Heuristics

$$$$

     RDKit          3D

 26 24  0  0  0  0  0  0  0  0999 V2000
    1.1951    1.1304   -0.7763 C   0  0  0  0  0  3  0  0  0  0  0  0
    2.4329    0.5535   -1.0820 O   0  0  0  0  0  0  0  0  0  0  0  0
    3.3921    0.4348   -0.1430 N   0  0  0  0  0  0  0  0  0  0  0  0
    3.1971    0.7302    1.0673 C   0  0  0  0  0  0  0  0  0  0  0  0
    1.2849    2.1019   -0.2862 H   0  0  0  0  0  0  0  0  0  0  0  0
    0.6525    1.1953   -1.7143 H   0  0  0  0  0  0  0  0  0  0  0  0
    4.0424    0.5976    1.7200 H   0  0  0  0  0  0  0  0  0  0  0  0
    2.2674    1.0830    1.5056 H   0  0  0  0  0  0  0  0  0  0  0  0
    0.4073   -2.2884   -0.7359 C   0  0  0  0  0  0  0  0  0  0  0  0
    0.3431   -1.7288    0.6868 C   0  0  0  0  0  0  0  0  0  0  0  0
   -0.1605   -0.3859    0.7883 N   0  0  0  0  0  0  0  0  0  0  0  0
   -1.4696   -0.3416    0.3115 O   0  0  0  0  0  0  0  0  0  0  0  0
   -2.1101    0.8161    0.6112 C   0  0  0  0  0  0  0  0  0  0  0  0
   -3.3367    1.0754    0.1650 C   0  0  0  0  0  0  0  0  0  0  0  0
   -4.1358    0.1537   -0.6930 C   0  0  0  0  0  0  0  0  0  0  0  0
    1.1058   -1.7131   -1.3384 H   0  0  0  0  0  0  0  0  0  0  0  0
    0.7393   -3.3225   -0.7092 H   0  0  0  0  0  0  0  0  0  0  0  0
   -0.5768   -2.2465   -1.1971 H   0  0  0  0  0  0  0  0  0  0  0  0
   -0.2990   -2.3719    1.3007 H   0  0  0  0  0  0  0  0  0  0  0  0
    1.3408   -1.7018    1.1324 H   0  0  0  0  0  0  0  0  0  0  0  0
    0.5351    0.3740    0.0258 H   0  0  0  0  0  0  0  0  0  0  0  0
   -1.5520    1.5029    1.2347 H   0  0  0  0  0  0  0  0  0  0  0  0
   -3.7951    2.0102    0.4464 H   0  0  0  0  0  0  0  0  0  0  0  0
   -5.0557   -0.1336   -0.1842 H   0  0  0  0  0  0  0  0  0  0  0  0
   -4.4143    0.6500   -1.6224 H   0  0  0  0  0  0  0  0  0  0  0  0
   -3.5654   -0.7410   -0.9236 H   0  0  0  0  0  0  0  0  0  0  0  0
  1  2  1  0
  1  5  1  0
  1  6  1  0
  2  3  1  0
  3  4  2  3
  4  7  1  0
  4  8  1  0
  9 10  1  0
  9 16  1  0
  9 17  1  0
  9 18  1  0
 10 11  1  0
 10 19  1  0
 10 20  1  0
 11 12  1  0
 11 21  1  0
 12 13  1  0
 13 14  2  3
 13 22  1  0
 14 15  1  0
 14 23  1  0
 15 24  1  0
 15 25  1  0
 15 26  1  0
M  RAD  1   1   2
M  END
>  <reaction>  (15) 
rmg_rxn_15713

>  <mol_properties>  (15) 
{"0": {"label": "*3", "atom_type": "Cs"}, "1": {"label": "*4", "atom_type": "O2s"}, "10": {"label": "*1", "atom_type": "N3s"}, "11": {"label": "*0", "atom_type": "O2s"}, "20": {"label": "*2", "atom_type": "H0"}}

>  <type>  (15) 
unop_11

>  <geom_source>  (15) 
Heuristics

$$$$

     RDKit          3D

 26 24  0  0  0  0  0  0  0  0999 V2000
   -0.3650   -0.5114    1.8684 C   0  0  0  0  0  3  0  0  0  0  0  0
   -1.7505   -0.4904    2.1507 O   0  0  0  0  0  0  0  0  0  0  0  0
   -1.9827    0.2658    3.2745 N   0  0  0  0  0  0  0  0  0  0  0  0
   -3.2108    0.3145    3.5679 C   0  0  0  0  0  0  0  0  0  0  0  0
    0.0098    0.4964    1.6761 H   0  0  0  0  0  0  0  0  0  0  0  0
    0.1950   -0.9579    2.6931 H   0  0  0  0  0  0  0  0  0  0  0  0
   -3.4778    0.8923    4.4426 H   0  0  0  0  0  0  0  0  0  0  0  0
   -3.9741   -0.1927    2.9816 H   0  0  0  0  0  0  0  0  0  0  0  0
   -0.1772   -1.7464   -2.6981 C   0  0  0  0  0  0  0  0  0  0  0  0
   -0.1772   -1.7464   -1.1815 C   0  0  0  0  0  0  0  0  0  0  0  0
   -0.1772   -0.3903   -0.6448 N   0  0  0  0  0  0  0  0  0  0  0  0
    1.1165    0.1646   -0.8398 O   0  0  0  0  0  0  0  0  0  0  0  0
    1.0768    1.2493   -1.6652 C   0  0  0  0  0  0  0  0  0  0  0  0
    2.1786    1.8175   -2.1334 C   0  0  0  0  0  0  0  0  0  0  0  0
    3.5781    1.3654   -1.8596 C   0  0  0  0  0  0  0  0  0  0  0  0
    0.7280   -1.2764   -3.0844 H   0  0  0  0  0  0  0  0  0  0  0  0
   -0.2161   -2.7684   -3.0777 H   0  0  0  0  0  0  0  0  0  0  0  0
   -1.0389   -1.1984   -3.0818 H   0  0  0  0  0  0  0  0  0  0  0  0
   -1.0917   -2.2099   -0.8008 H   0  0  0  0  0  0  0  0  0  0  0  0
    0.6744   -2.3242   -0.8011 H   0  0  0  0  0  0  0  0  0  0  0  0
   -0.2678   -0.4487    0.5672 H   0  0  0  0  0  0  0  0  0  0  0  0
    0.0766    1.5978   -1.8890 H   0  0  0  0  0  0  0  0  0  0  0  0
    2.0361    2.6896   -2.7594 H   0  0  0  0  0  0  0  0  0  0  0  0
    4.1252    1.2049   -2.7919 H   0  0  0  0  0  0  0  0  0  0  0  0
    4.1308    2.1175   -1.2902 H   0  0  0  0  0  0  0  0  0  0  0  0
    3.5927    0.4363   -1.2913 H   0  0  0  0  0  0  0  0  0  0  0  0
  1  2  1  0
  1  5  1  0
  1  6  1  0
  2  3  1  0
  3  4  2  3
  4  7  1  0
  4  8  1  0
  9 10  1  0
  9 16  1  0
  9 17  1  0
  9 18  1  0
 10 11  1  0
 10 19  1  0
 10 20  1  0
 11 12  1  0
 11 21  1  0
 12 13  1  0
 13 14  2  3
 13 22  1  0
 14 15  1  0
 14 23  1  0
 15 24  1  0
 15 25  1  0
 15 26  1  0
M  RAD  1   1   2
M  END
>  <reaction>  (16) 
rmg_rxn_15713

>  <mol_properties>  (16) 
{"0": {"label": "*3", "atom_type": "Cs"}, "1": {"label": "*4", "atom_type": "O2s"}, "10": {"label": "*1", "atom_type": "N3s"}, "11": {"label": "*0", "atom_type": "O2s"}, "20": {"label": "*2", "atom_type": "H0"}}

>  <type>  (16) 
unop_12

>  <geom_source>  (16) 
Heuristics

$$$$

     RDKit          3D

 26 24  0  0  0  0  0  0  0  0999 V2000
    1.1980    1.1192   -0.7894 C   0  0  0  0  0  3  0  0  0  0  0  0
    2.4393    0.5429   -1.0823 O   0  0  0  0  0  0  0  0  0  0  0  0
    3.3934    0.4368   -0.1369 N   0  0  0  0  0  0  0  0  0  0  0  0
    3.1909    0.7440    1.0692 C   0  0  0  0  0  0  0  0  0  0  0  0
    1.2823    2.0965   -0.3099 H   0  0  0  0  0  0  0  0  0  0  0  0
    0.6600    1.1717   -1.7308 H   0  0  0  0  0  0  0  0  0  0  0  0
    4.0330    0.6209    1.7280 H   0  0  0  0  0  0  0  0  0  0  0  0
    2.2576    1.0984    1.4987 H   0  0  0  0  0  0  0  0  0  0  0  0
    0.4030   -2.2963   -0.7278 C   0  0  0  0  0  0  0  0  0  0  0  0
    0.3404   -1.7286    0.6918 C   0  0  0  0  0  0  0  0  0  0  0  0
   -0.1598   -0.3840    0.7860 N   0  0  0  0  0  0  0  0  0  0  0  0
   -1.4695   -0.3393    0.3109 O   0  0  0  0  0  0  0  0  0  0  0  0
   -2.1055    0.8231    0.6018 C   0  0  0  0  0  0  0  0  0  0  0  0
   -3.3339    1.0812    0.1597 C   0  0  0  0  0  0  0  0  0  0  0  0
   -4.1407    0.1528   -0.6835 C   0  0  0  0  0  0  0  0  0  0  0  0
    0.7326   -3.3310   -0.6955 H   0  0  0  0  0  0  0  0  0  0  0  0
   -0.5811   -2.2547   -1.1890 H   0  0  0  0  0  0  0  0  0  0  0  0
    1.1027   -1.7259   -1.3335 H   0  0  0  0  0  0  0  0  0  0  0  0
   -0.3031   -2.3668    1.3094 H   0  0  0  0  0  0  0  0  0  0  0  0
    1.3383   -1.7015    1.1369 H   0  0  0  0  0  0  0  0  0  0  0  0
    0.5368    0.3694    0.0179 H   0  0  0  0  0  0  0  0  0  0  0  0
   -1.5423    1.5150    1.2151 H   0  0  0  0  0  0  0  0  0  0  0  0
   -3.7876    2.0206    0.4333 H   0  0  0  0  0  0  0  0  0  0  0  0
   -5.0605   -0.1228   -0.1680 H   0  0  0  0  0  0  0  0  0  0  0  0
   -4.4197    0.6385   -1.6184 H   0  0  0  0  0  0  0  0  0  0  0  0
   -3.5759   -0.7478   -0.9044 H   0  0  0  0  0  0  0  0  0  0  0  0
  1  2  1  0
  1  5  1  0
  1  6  1  0
  2  3  1  0
  3  4  2  3
  4  7  1  0
  4  8  1  0
  9 10  1  0
  9 16  1  0
  9 17  1  0
  9 18  1  0
 10 11  1  0
 10 19  1  0
 10 20  1  0
 11 12  1  0
 11 21  1  0
 12 13  1  0
 13 14  2  3
 13 22  1  0
 14 15  1  0
 14 23  1  0
 15 24  1  0
 15 25  1  0
 15 26  1  0
M  RAD  1   1   2
M  END
>  <reaction>  (17) 
rmg_rxn_15713

>  <mol_properties>  (17) 
{"0": {"label": "*3", "atom_type": "Cs"}, "1": {"label": "*4", "atom_type": "O2s"}, "10": {"label": "*1", "atom_type": "N3s"}, "11": {"label": "*0", "atom_type": "O2s"}, "20": {"label": "*2", "atom_type": "H0"}}

>  <type>  (17) 
unop_13

>  <geom_source>  (17) 
Heuristics

$$$$

     RDKit          3D

 26 24  0  0  0  0  0  0  0  0999 V2000
   -0.5127   -0.7407    1.8443 C   0  0  0  0  0  3  0  0  0  0  0  0
   -1.6991   -0.0456    2.1740 O   0  0  0  0  0  0  0  0  0  0  0  0
   -1.5134    0.6615    3.3378 N   0  0  0  0  0  0  0  0  0  0  0  0
   -2.5498    1.3013    3.6744 C   0  0  0  0  0  0  0  0  0  0  0  0
    0.3154   -0.0465    1.6848 H   0  0  0  0  0  0  0  0  0  0  0  0
   -0.2462   -1.4527    2.6287 H   0  0  0  0  0  0  0  0  0  0  0  0
   -2.4853    1.8853    4.5827 H   0  0  0  0  0  0  0  0  0  0  0  0
   -3.4684    1.2774    3.0921 H   0  0  0  0  0  0  0  0  0  0  0  0
   -0.3248   -1.9757   -2.7223 C   0  0  0  0  0  0  0  0  0  0  0  0
   -0.3248   -1.9757   -1.2056 C   0  0  0  0  0  0  0  0  0  0  0  0
   -0.3248   -0.6196   -0.6690 N   0  0  0  0  0  0  0  0  0  0  0  0
    0.9688   -0.0647   -0.8640 O   0  0  0  0  0  0  0  0  0  0  0  0
    0.9291    1.0200   -1.6894 C   0  0  0  0  0  0  0  0  0  0  0  0
    2.0310    1.5882   -2.1575 C   0  0  0  0  0  0  0  0  0  0  0  0
    3.4304    1.1361   -1.8838 C   0  0  0  0  0  0  0  0  0  0  0  0
    0.5803   -1.5058   -3.1086 H   0  0  0  0  0  0  0  0  0  0  0  0
   -0.3638   -2.9977   -3.1018 H   0  0  0  0  0  0  0  0  0  0  0  0
   -1.1865   -1.4277   -3.1060 H   0  0  0  0  0  0  0  0  0  0  0  0
   -1.2393   -2.4392   -0.8250 H   0  0  0  0  0  0  0  0  0  0  0  0
    0.5267   -2.5535   -0.8253 H   0  0  0  0  0  0  0  0  0  0  0  0
   -0.4154   -0.6780    0.5430 H   0  0  0  0  0  0  0  0  0  0  0  0
   -0.0710    1.3685   -1.9132 H   0  0  0  0  0  0  0  0  0  0  0  0
    1.8884    2.4602   -2.7835 H   0  0  0  0  0  0  0  0  0  0  0  0
    3.9776    0.9756   -2.8160 H   0  0  0  0  0  0  0  0  0  0  0  0
    3.9832    1.8882   -1.3144 H   0  0  0  0  0  0  0  0  0  0  0  0
    3.4450    0.2070   -1.3154 H   0  0  0  0  0  0  0  0  0  0  0  0
  1  2  1  0
  1  5  1  0
  1  6  1  0
  2  3  1  0
  3  4  2  3
  4  7  1  0
  4  8  1  0
  9 10  1  0
  9 16  1  0
  9 17  1  0
  9 18  1  0
 10 11  1  0
 10 19  1  0
 10 20  1  0
 11 12  1  0
 11 21  1  0
 12 13  1  0
 13 14  2  3
 13 22  1  0
 14 15  1  0
 14 23  1  0
 15 24  1  0
 15 25  1  0
 15 26  1  0
M  RAD  1   1   2
M  END
>  <reaction>  (18) 
rmg_rxn_15713

>  <mol_properties>  (18) 
{"0": {"label": "*3", "atom_type": "Cs"}, "1": {"label": "*4", "atom_type": "O2s"}, "10": {"label": "*1", "atom_type": "N3s"}, "11": {"label": "*0", "atom_type": "O2s"}, "20": {"label": "*2", "atom_type": "H0"}}

>  <type>  (18) 
unop_14

>  <geom_source>  (18) 
Heuristics

$$$$

     RDKit          3D

 26 24  0  0  0  0  0  0  0  0999 V2000
    1.1954    1.1211   -0.7852 C   0  0  0  0  0  3  0  0  0  0  0  0
    2.4369    0.5472   -1.0819 O   0  0  0  0  0  0  0  0  0  0  0  0
    3.3927    0.4394   -0.1384 N   0  0  0  0  0  0  0  0  0  0  0  0
    3.1923    0.7433    1.0688 C   0  0  0  0  0  0  0  0  0  0  0  0
    1.2792    2.0968   -0.3026 H   0  0  0  0  0  0  0  0  0  0  0  0
    0.6559    1.1760   -1.7257 H   0  0  0  0  0  0  0  0  0  0  0  0
    4.0357    0.6190    1.7257 H   0  0  0  0  0  0  0  0  0  0  0  0
    2.2596    1.0962    1.5009 H   0  0  0  0  0  0  0  0  0  0  0  0
    0.4055   -2.2968   -0.7309 C   0  0  0  0  0  0  0  0  0  0  0  0
    0.3404   -1.7322    0.6898 C   0  0  0  0  0  0  0  0  0  0  0  0
   -0.1603   -0.3880    0.7864 N   0  0  0  0  0  0  0  0  0  0  0  0
   -1.4697   -0.3419    0.3107 O   0  0  0  0  0  0  0  0  0  0  0  0
   -2.1047    0.8206    0.6037 C   0  0  0  0  0  0  0  0  0  0  0  0
   -3.3323    1.0817    0.1613 C   0  0  0  0  0  0  0  0  0  0  0  0
   -4.1404    0.1570   -0.6848 C   0  0  0  0  0  0  0  0  0  0  0  0
    0.7366   -3.3311   -0.7001 H   0  0  0  0  0  0  0  0  0  0  0  0
   -0.5781   -2.2558   -1.1934 H   0  0  0  0  0  0  0  0  0  0  0  0
    1.1052   -1.7243   -1.3346 H   0  0  0  0  0  0  0  0  0  0  0  0
   -0.3037   -2.3720    1.3050 H   0  0  0  0  0  0  0  0  0  0  0  0
    1.3377   -1.7056    1.1365 H   0  0  0  0  0  0  0  0  0  0  0  0
    0.5362    0.3677    0.0203 H   0  0  0  0  0  0  0  0  0  0  0  0
   -1.5410    1.5101    1.2191 H   0  0  0  0  0  0  0  0  0  0  0  0
   -3.7846    2.0212    0.4369 H   0  0  0  0  0  0  0  0  0  0  0  0
   -3.5769   -0.7436   -0.9086 H   0  0  0  0  0  0  0  0  0  0  0  0
   -5.0604   -0.1189   -0.1699 H   0  0  0  0  0  0  0  0  0  0  0  0
   -4.4189    0.6460   -1.6180 H   0  0  0  0  0  0  0  0  0  0  0  0
  1  2  1  0
  1  5  1  0
  1  6  1  0
  2  3  1  0
  3  4  2  3
  4  7  1  0
  4  8  1  0
  9 10  1  0
  9 16  1  0
  9 17  1  0
  9 18  1  0
 10 11  1  0
 10 19  1  0
 10 20  1  0
 11 12  1  0
 11 21  1  0
 12 13  1  0
 13 14  2  3
 13 22  1  0
 14 15  1  0
 14 23  1  0
 15 24  1  0
 15 25  1  0
 15 26  1  0
M  RAD  1   1   2
M  END
>  <reaction>  (19) 
rmg_rxn_15713

>  <mol_properties>  (19) 
{"0": {"label": "*3", "atom_type": "Cs"}, "1": {"label": "*4", "atom_type": "O2s"}, "10": {"label": "*1", "atom_type": "N3s"}, "11": {"label": "*0", "atom_type": "O2s"}, "20": {"label": "*2", "atom_type": "H0"}}

>  <type>  (19) 
unop_15

>  <geom_source>  (19) 
Heuristics

$$$$

     RDKit          3D

 26 24  0  0  0  0  0  0  0  0999 V2000
   -1.3879   -0.4817    1.7934 C   0  0  0  0  0  3  0  0  0  0  0  0
   -0.0596   -0.5395    2.2748 O   0  0  0  0  0  0  0  0  0  0  0  0
    0.0496    0.2068    3.4236 N   0  0  0  0  0  0  0  0  0  0  0  0
    1.2226    0.1858    3.8931 C   0  0  0  0  0  0  0  0  0  0  0  0
   -2.0871   -0.8917    2.5257 H   0  0  0  0  0  0  0  0  0  0  0  0
   -1.6719    0.5452    1.5528 H   0  0  0  0  0  0  0  0  0  0  0  0
    1.3920    0.7509    4.7999 H   0  0  0  0  0  0  0  0  0  0  0  0
    2.0326   -0.3670    3.4222 H   0  0  0  0  0  0  0  0  0  0  0  0
   -1.2000   -1.7167   -2.7732 C   0  0  0  0  0  0  0  0  0  0  0  0
   -1.2000   -1.7167   -1.2565 C   0  0  0  0  0  0  0  0  0  0  0  0
   -1.2000   -0.3606   -0.7198 N   0  0  0  0  0  0  0  0  0  0  0  0
    0.0936    0.1943   -0.9149 O   0  0  0  0  0  0  0  0  0  0  0  0
    0.0539    1.2790   -1.7403 C   0  0  0  0  0  0  0  0  0  0  0  0
    1.1558    1.8472   -2.2084 C   0  0  0  0  0  0  0  0  0  0  0  0
    2.5552    1.3951   -1.9347 C   0  0  0  0  0  0  0  0  0  0  0  0
   -0.2949   -1.2467   -3.1595 H   0  0  0  0  0  0  0  0  0  0  0  0
   -1.2390   -2.7387   -3.1527 H   0  0  0  0  0  0  0  0  0  0  0  0
   -2.0617   -1.1687   -3.1568 H   0  0  0  0  0  0  0  0  0  0  0  0
   -2.1145   -2.1802   -0.8758 H   0  0  0  0  0  0  0  0  0  0  0  0
   -0.3485   -2.2945   -0.8762 H   0  0  0  0  0  0  0  0  0  0  0  0
   -1.2906   -0.4190    0.4922 H   0  0  0  0  0  0  0  0  0  0  0  0
   -0.9462    1.6275   -1.9641 H   0  0  0  0  0  0  0  0  0  0  0  0
    1.0132    2.7193   -2.8344 H   0  0  0  0  0  0  0  0  0  0  0  0
    3.1024    1.2346   -2.8669 H   0  0  0  0  0  0  0  0  0  0  0  0
    3.1080    2.1472   -1.3653 H   0  0  0  0  0  0  0  0  0  0  0  0
    2.5698    0.4660   -1.3663 H   0  0  0  0  0  0  0  0  0  0  0  0
  1  2  1  0
  1  5  1  0
  1  6  1  0
  2  3  1  0
  3  4  2  3
  4  7  1  0
  4  8  1  0
  9 10  1  0
  9 16  1  0
  9 17  1  0
  9 18  1  0
 10 11  1  0
 10 19  1  0
 10 20  1  0
 11 12  1  0
 11 21  1  0
 12 13  1  0
 13 14  2  3
 13 22  1  0
 14 15  1  0
 14 23  1  0
 15 24  1  0
 15 25  1  0
 15 26  1  0
M  RAD  1   1   2
M  END
>  <reaction>  (20) 
rmg_rxn_15713

>  <mol_properties>  (20) 
{"0": {"label": "*3", "atom_type": "Cs"}, "1": {"label": "*4", "atom_type": "O2s"}, "10": {"label": "*1", "atom_type": "N3s"}, "11": {"label": "*0", "atom_type": "O2s"}, "20": {"label": "*2", "atom_type": "H0"}}

>  <type>  (20) 
unop_16

>  <geom_source>  (20) 
Heuristics

$$$$

     RDKit          3D

 26 24  0  0  0  0  0  0  0  0999 V2000
    1.0548   -1.4097   -0.0433 C   0  0  0  0  0  3  0  0  0  0  0  0
    2.4104   -1.1958   -0.2961 O   0  0  0  0  0  0  0  0  0  0  0  0
    2.9880   -0.3504    0.6247 N   0  0  0  0  0  0  0  0  0  0  0  0
    4.2054   -0.0757    0.4408 C   0  0  0  0  0  0  0  0  0  0  0  0
    0.7738   -2.3286   -0.5489 H   0  0  0  0  0  0  0  0  0  0  0  0
    0.8240   -1.4227    1.0208 H   0  0  0  0  0  0  0  0  0  0  0  0
    4.6628    0.5814    1.1590 H   0  0  0  0  0  0  0  0  0  0  0  0
    4.8023   -0.4610   -0.3802 H   0  0  0  0  0  0  0  0  0  0  0  0
    0.6181    2.0411    0.6544 C   0  0  0  0  0  0  0  0  0  0  0  0
    0.2397    1.7368   -0.7966 C   0  0  0  0  0  0  0  0  0  0  0  0
   -0.3985    0.4678   -1.0110 N   0  0  0  0  0  0  0  0  0  0  0  0
   -1.5730    0.4002   -0.2588 O   0  0  0  0  0  0  0  0  0  0  0  0
   -2.3766   -0.6313   -0.6216 C   0  0  0  0  0  0  0  0  0  0  0  0
   -3.5031   -0.9082    0.0300 C   0  0  0  0  0  0  0  0  0  0  0  0
   -4.0103   -0.1412    1.2050 C   0  0  0  0  0  0  0  0  0  0  0  0
    1.3641    1.3313    1.0063 H   0  0  0  0  0  0  0  0  0  0  0  0
    1.0293    3.0446    0.7245 H   0  0  0  0  0  0  0  0  0  0  0  0
   -0.2625    1.9778    1.2895 H   0  0  0  0  0  0  0  0  0  0  0  0
   -0.4409    2.5154   -1.1635 H   0  0  0  0  0  0  0  0  0  0  0  0
    1.1292    1.7243   -1.4308 H   0  0  0  0  0  0  0  0  0  0  0  0
    0.3585   -0.4638   -0.5748 H   0  0  0  0  0  0  0  0  0  0  0  0
   -2.0315   -1.2026   -1.4736 H   0  0  0  0  0  0  0  0  0  0  0  0
   -4.1016   -1.7368   -0.3139 H   0  0  0  0  0  0  0  0  0  0  0  0
   -4.1339   -0.8019    2.0628 H   0  0  0  0  0  0  0  0  0  0  0  0
   -3.3186    0.6543    1.4650 H   0  0  0  0  0  0  0  0  0  0  0  0
   -4.9838    0.2946    0.9811 H   0  0  0  0  0  0  0  0  0  0  0  0
  1  2  1  0
  1  5  1  0
  1  6  1  0
  2  3  1  0
  3  4  2  3
  4  7  1  0
  4  8  1  0
  9 10  1  0
  9 16  1  0
  9 17  1  0
  9 18  1  0
 10 11  1  0
 10 19  1  0
 10 20  1  0
 11 12  1  0
 11 21  1  0
 12 13  1  0
 13 14  2  3
 13 22  1  0
 14 15  1  0
 14 23  1  0
 15 24  1  0
 15 25  1  0
 15 26  1  0
M  RAD  1   1   2
M  END
>  <reaction>  (21) 
rmg_rxn_15713

>  <mol_properties>  (21) 
{"0": {"label": "*3", "atom_type": "Cs"}, "1": {"label": "*4", "atom_type": "O2s"}, "10": {"label": "*1", "atom_type": "N3s"}, "11": {"label": "*0", "atom_type": "O2s"}, "20": {"label": "*2", "atom_type": "H0"}}

>  <type>  (21) 
unop_17

>  <geom_source>  (21) 
Heuristics

$$$$

     RDKit          3D

 26 24  0  0  0  0  0  0  0  0999 V2000
   -0.5438    0.0412    1.8434 C   0  0  0  0  0  3  0  0  0  0  0  0
   -1.2806   -1.1345    2.1166 O   0  0  0  0  0  0  0  0  0  0  0  0
   -1.7866   -1.0778    3.3931 N   0  0  0  0  0  0  0  0  0  0  0  0
   -2.4550   -2.1098    3.6845 C   0  0  0  0  0  0  0  0  0  0  0  0
   -1.1806    0.9260    1.9114 H   0  0  0  0  0  0  0  0  0  0  0  0
    0.2979    0.1435    2.5320 H   0  0  0  0  0  0  0  0  0  0  0  0
   -2.8884   -2.1431    4.6751 H   0  0  0  0  0  0  0  0  0  0  0  0
   -2.5974   -2.9323    2.9868 H   0  0  0  0  0  0  0  0  0  0  0  0
   -0.3559   -1.1938   -2.7231 C   0  0  0  0  0  0  0  0  0  0  0  0
   -0.3559   -1.1938   -1.2065 C   0  0  0  0  0  0  0  0  0  0  0  0
   -0.3559    0.1623   -0.6698 N   0  0  0  0  0  0  0  0  0  0  0  0
    0.9377    0.7172   -0.8648 O   0  0  0  0  0  0  0  0  0  0  0  0
    0.8980    1.8019   -1.6902 C   0  0  0  0  0  0  0  0  0  0  0  0
    1.9999    2.3701   -2.1584 C   0  0  0  0  0  0  0  0  0  0  0  0
    3.3993    1.9180   -1.8846 C   0  0  0  0  0  0  0  0  0  0  0  0
    0.5492   -0.7239   -3.1094 H   0  0  0  0  0  0  0  0  0  0  0  0
   -0.3949   -2.2158   -3.1027 H   0  0  0  0  0  0  0  0  0  0  0  0
   -1.2176   -0.6458   -3.1068 H   0  0  0  0  0  0  0  0  0  0  0  0
   -1.2704   -1.6573   -0.8258 H   0  0  0  0  0  0  0  0  0  0  0  0
    0.4956   -1.7716   -0.8261 H   0  0  0  0  0  0  0  0  0  0  0  0
   -0.4465    0.1039    0.5422 H   0  0  0  0  0  0  0  0  0  0  0  0
   -0.1021    2.1503   -1.9140 H   0  0  0  0  0  0  0  0  0  0  0  0
    1.8573    3.2421   -2.7844 H   0  0  0  0  0  0  0  0  0  0  0  0
    3.9465    1.7575   -2.8169 H   0  0  0  0  0  0  0  0  0  0  0  0
    3.9521    2.6701   -1.3152 H   0  0  0  0  0  0  0  0  0  0  0  0
    3.4139    0.9889   -1.3163 H   0  0  0  0  0  0  0  0  0  0  0  0
  1  2  1  0
  1  5  1  0
  1  6  1  0
  2  3  1  0
  3  4  2  3
  4  7  1  0
  4  8  1  0
  9 10  1  0
  9 16  1  0
  9 17  1  0
  9 18  1  0
 10 11  1  0
 10 19  1  0
 10 20  1  0
 11 12  1  0
 11 21  1  0
 12 13  1  0
 13 14  2  3
 13 22  1  0
 14 15  1  0
 14 23  1  0
 15 24  1  0
 15 25  1  0
 15 26  1  0
M  RAD  1   1   2
M  END
>  <reaction>  (22) 
rmg_rxn_15713

>  <mol_properties>  (22) 
{"0": {"label": "*3", "atom_type": "Cs"}, "1": {"label": "*4", "atom_type": "O2s"}, "10": {"label": "*1", "atom_type": "N3s"}, "11": {"label": "*0", "atom_type": "O2s"}, "20": {"label": "*2", "atom_type": "H0"}}

>  <type>  (22) 
unop_18

>  <geom_source>  (22) 
Heuristics

$$$$

     RDKit          3D

 26 24  0  0  0  0  0  0  0  0999 V2000
   -1.3701   -0.1878    1.7935 C   0  0  0  0  0  3  0  0  0  0  0  0
   -0.2407   -0.9198    2.2275 O   0  0  0  0  0  0  0  0  0  0  0  0
    0.1524   -0.4733    3.4664 N   0  0  0  0  0  0  0  0  0  0  0  0
    1.1617   -1.0995    3.8978 C   0  0  0  0  0  0  0  0  0  0  0  0
   -2.2098   -0.3222    2.4790 H   0  0  0  0  0  0  0  0  0  0  0  0
   -1.1365    0.8757    1.7066 H   0  0  0  0  0  0  0  0  0  0  0  0
    1.5347   -0.8067    4.8701 H   0  0  0  0  0  0  0  0  0  0  0  0
    1.6434   -1.8950    3.3332 H   0  0  0  0  0  0  0  0  0  0  0  0
   -1.1822   -1.4228   -2.7731 C   0  0  0  0  0  0  0  0  0  0  0  0
   -1.1822   -1.4228   -1.2564 C   0  0  0  0  0  0  0  0  0  0  0  0
   -1.1822   -0.0667   -0.7197 N   0  0  0  0  0  0  0  0  0  0  0  0
    0.1115    0.4882   -0.9148 O   0  0  0  0  0  0  0  0  0  0  0  0
    0.0718    1.5729   -1.7402 C   0  0  0  0  0  0  0  0  0  0  0  0
    1.1736    2.1411   -2.2083 C   0  0  0  0  0  0  0  0  0  0  0  0
    2.5731    1.6890   -1.9346 C   0  0  0  0  0  0  0  0  0  0  0  0
   -0.2771   -0.9529   -3.1594 H   0  0  0  0  0  0  0  0  0  0  0  0
   -1.2211   -2.4448   -3.1526 H   0  0  0  0  0  0  0  0  0  0  0  0
   -2.0439   -0.8748   -3.1567 H   0  0  0  0  0  0  0  0  0  0  0  0
   -2.0967   -1.8863   -0.8757 H   0  0  0  0  0  0  0  0  0  0  0  0
   -0.3306   -2.0006   -0.8761 H   0  0  0  0  0  0  0  0  0  0  0  0
   -1.2728   -0.1251    0.4923 H   0  0  0  0  0  0  0  0  0  0  0  0
   -0.9284    1.9214   -1.9640 H   0  0  0  0  0  0  0  0  0  0  0  0
    1.0311    3.0132   -2.8343 H   0  0  0  0  0  0  0  0  0  0  0  0
    3.1202    1.5285   -2.8668 H   0  0  0  0  0  0  0  0  0  0  0  0
    3.1258    2.4411   -1.3651 H   0  0  0  0  0  0  0  0  0  0  0  0
    2.5877    0.7599   -1.3662 H   0  0  0  0  0  0  0  0  0  0  0  0
  1  2  1  0
  1  5  1  0
  1  6  1  0
  2  3  1  0
  3  4  2  3
  4  7  1  0
  4  8  1  0
  9 10  1  0
  9 16  1  0
  9 17  1  0
  9 18  1  0
 10 11  1  0
 10 19  1  0
 10 20  1  0
 11 12  1  0
 11 21  1  0
 12 13  1  0
 13 14  2  3
 13 22  1  0
 14 15  1  0
 14 23  1  0
 15 24  1  0
 15 25  1  0
 15 26  1  0
M  RAD  1   1   2
M  END
>  <reaction>  (23) 
rmg_rxn_15713

>  <mol_properties>  (23) 
{"0": {"label": "*3", "atom_type": "Cs"}, "1": {"label": "*4", "atom_type": "O2s"}, "10": {"label": "*1", "atom_type": "N3s"}, "11": {"label": "*0", "atom_type": "O2s"}, "20": {"label": "*2", "atom_type": "H0"}}

>  <type>  (23) 
unop_19

>  <geom_source>  (23) 
Heuristics

$$$$

     RDKit          3D

 26 24  0  0  0  0  0  0  0  0999 V2000
   -0.7219   -0.8408    1.7991 C   0  0  0  0  0  3  0  0  0  0  0  0
   -1.3990    0.3373    2.1902 O   0  0  0  0  0  0  0  0  0  0  0  0
   -1.0561    0.6619    3.4808 N   0  0  0  0  0  0  0  0  0  0  0  0
   -1.6381    1.7114    3.8765 C   0  0  0  0  0  0  0  0  0  0  0  0
    0.3606   -0.6983    1.8313 H   0  0  0  0  0  0  0  0  0  0  0  0
   -0.9985   -1.6813    2.4396 H   0  0  0  0  0  0  0  0  0  0  0  0
   -1.4207    2.0354    4.8855 H   0  0  0  0  0  0  0  0  0  0  0  0
   -2.3257    2.2729    3.2476 H   0  0  0  0  0  0  0  0  0  0  0  0
   -0.5340   -2.0758   -2.7674 C   0  0  0  0  0  0  0  0  0  0  0  0
   -0.5340   -2.0758   -1.2508 C   0  0  0  0  0  0  0  0  0  0  0  0
   -0.5340   -0.7197   -0.7141 N   0  0  0  0  0  0  0  0  0  0  0  0
    0.7597   -0.1648   -0.9091 O   0  0  0  0  0  0  0  0  0  0  0  0
    0.7199    0.9199   -1.7345 C   0  0  0  0  0  0  0  0  0  0  0  0
    1.8218    1.4881   -2.2027 C   0  0  0  0  0  0  0  0  0  0  0  0
    3.2212    1.0360   -1.9289 C   0  0  0  0  0  0  0  0  0  0  0  0
    0.3711   -1.6059   -3.1537 H   0  0  0  0  0  0  0  0  0  0  0  0
   -0.5730   -3.0978   -3.1470 H   0  0  0  0  0  0  0  0  0  0  0  0
   -1.3957   -1.5278   -3.1511 H   0  0  0  0  0  0  0  0  0  0  0  0
   -1.4485   -2.5393   -0.8701 H   0  0  0  0  0  0  0  0  0  0  0  0
    0.3175   -2.6536   -0.8704 H   0  0  0  0  0  0  0  0  0  0  0  0
   -0.6246   -0.7781    0.4979 H   0  0  0  0  0  0  0  0  0  0  0  0
   -0.2802    1.2683   -1.9583 H   0  0  0  0  0  0  0  0  0  0  0  0
    1.6792    2.3601   -2.8287 H   0  0  0  0  0  0  0  0  0  0  0  0
    3.7684    0.8755   -2.8612 H   0  0  0  0  0  0  0  0  0  0  0  0
    3.7740    1.7881   -1.3595 H   0  0  0  0  0  0  0  0  0  0  0  0
    3.2358    0.1069   -1.3606 H   0  0  0  0  0  0  0  0  0  0  0  0
  1  2  1  0
  1  5  1  0
  1  6  1  0
  2  3  1  0
  3  4  2  3
  4  7  1  0
  4  8  1  0
  9 10  1  0
  9 16  1  0
  9 17  1  0
  9 18  1  0
 10 11  1  0
 10 19  1  0
 10 20  1  0
 11 12  1  0
 11 21  1  0
 12 13  1  0
 13 14  2  3
 13 22  1  0
 14 15  1  0
 14 23  1  0
 15 24  1  0
 15 25  1  0
 15 26  1  0
M  RAD  1   1   2
M  END
>  <reaction>  (24) 
rmg_rxn_15713

>  <mol_properties>  (24) 
{"0": {"label": "*3", "atom_type": "Cs"}, "1": {"label": "*4", "atom_type": "O2s"}, "10": {"label": "*1", "atom_type": "N3s"}, "11": {"label": "*0", "atom_type": "O2s"}, "20": {"label": "*2", "atom_type": "H0"}}

>  <type>  (24) 
unop_20

>  <geom_source>  (24) 
Heuristics

$$$$

     RDKit          3D

 26 24  0  0  0  0  0  0  0  0999 V2000
   -0.8563    0.1527    1.8134 C   0  0  0  0  0  3  0  0  0  0  0  0
   -0.9193   -1.2247    2.1272 O   0  0  0  0  0  0  0  0  0  0  0  0
   -1.0239   -1.3853    3.4881 N   0  0  0  0  0  0  0  0  0  0  0  0
   -1.0835   -2.6035    3.8186 C   0  0  0  0  0  0  0  0  0  0  0  0
   -1.7604    0.6701    2.1424 H   0  0  0  0  0  0  0  0  0  0  0  0
    0.0184    0.6185    2.2729 H   0  0  0  0  0  0  0  0  0  0  0  0
   -1.1672   -2.8154    4.8761 H   0  0  0  0  0  0  0  0  0  0  0  0
   -1.0534   -3.4107    3.0899 H   0  0  0  0  0  0  0  0  0  0  0  0
   -0.6685   -1.0823   -2.7531 C   0  0  0  0  0  0  0  0  0  0  0  0
   -0.6685   -1.0823   -1.2364 C   0  0  0  0  0  0  0  0  0  0  0  0
   -0.6685    0.2738   -0.6998 N   0  0  0  0  0  0  0  0  0  0  0  0
    0.6252    0.8287   -0.8948 O   0  0  0  0  0  0  0  0  0  0  0  0
    0.5855    1.9134   -1.7202 C   0  0  0  0  0  0  0  0  0  0  0  0
    1.6873    2.4816   -2.1883 C   0  0  0  0  0  0  0  0  0  0  0  0
    3.0868    2.0295   -1.9146 C   0  0  0  0  0  0  0  0  0  0  0  0
    0.2366   -0.6123   -3.1394 H   0  0  0  0  0  0  0  0  0  0  0  0
   -0.7074   -2.1043   -3.1326 H   0  0  0  0  0  0  0  0  0  0  0  0
   -1.5302   -0.5343   -3.1368 H   0  0  0  0  0  0  0  0  0  0  0  0
   -1.5830   -1.5458   -0.8558 H   0  0  0  0  0  0  0  0  0  0  0  0
    0.1831   -1.6601   -0.8561 H   0  0  0  0  0  0  0  0  0  0  0  0
   -0.7591    0.2154    0.5122 H   0  0  0  0  0  0  0  0  0  0  0  0
   -0.4147    2.2619   -1.9440 H   0  0  0  0  0  0  0  0  0  0  0  0
    1.5448    3.3537   -2.8144 H   0  0  0  0  0  0  0  0  0  0  0  0
    3.6339    1.8690   -2.8469 H   0  0  0  0  0  0  0  0  0  0  0  0
    3.6395    2.7816   -1.3452 H   0  0  0  0  0  0  0  0  0  0  0  0
    3.1014    1.1004   -1.3462 H   0  0  0  0  0  0  0  0  0  0  0  0
  1  2  1  0
  1  5  1  0
  1  6  1  0
  2  3  1  0
  3  4  2  3
  4  7  1  0
  4  8  1  0
  9 10  1  0
  9 16  1  0
  9 17  1  0
  9 18  1  0
 10 11  1  0
 10 19  1  0
 10 20  1  0
 11 12  1  0
 11 21  1  0
 12 13  1  0
 13 14  2  3
 13 22  1  0
 14 15  1  0
 14 23  1  0
 15 24  1  0
 15 25  1  0
 15 26  1  0
M  RAD  1   1   2
M  END
>  <reaction>  (25) 
rmg_rxn_15713

>  <mol_properties>  (25) 
{"0": {"label": "*3", "atom_type": "Cs"}, "1": {"label": "*4", "atom_type": "O2s"}, "10": {"label": "*1", "atom_type": "N3s"}, "11": {"label": "*0", "atom_type": "O2s"}, "20": {"label": "*2", "atom_type": "H0"}}

>  <type>  (25) 
unop_21

>  <geom_source>  (25) 
Heuristics

$$$$

     RDKit          3D

 26 24  0  0  0  0  0  0  0  0999 V2000
   -1.1986    1.1192    0.7909 C   0  0  0  0  0  3  0  0  0  0  0  0
   -2.4402    0.5429    1.0824 O   0  0  0  0  0  0  0  0  0  0  0  0
   -3.3933    0.4369    0.1359 N   0  0  0  0  0  0  0  0  0  0  0  0
   -3.1897    0.7445   -1.0698 C   0  0  0  0  0  0  0  0  0  0  0  0
   -1.2823    2.0969    0.3120 H   0  0  0  0  0  0  0  0  0  0  0  0
   -0.6614    1.1709    1.7329 H   0  0  0  0  0  0  0  0  0  0  0  0
   -4.0310    0.6215   -1.7295 H   0  0  0  0  0  0  0  0  0  0  0  0
   -2.2560    1.0993   -1.4982 H   0  0  0  0  0  0  0  0  0  0  0  0
   -0.4055   -2.2964    0.7266 C   0  0  0  0  0  0  0  0  0  0  0  0
   -0.3410   -1.7274   -0.6924 C   0  0  0  0  0  0  0  0  0  0  0  0
    0.1598   -0.3829   -0.7849 N   0  0  0  0  0  0  0  0  0  0  0  0
    1.4695   -0.3391   -0.3094 O   0  0  0  0  0  0  0  0  0  0  0  0
    2.1071    0.8218   -0.6031 C   0  0  0  0  0  0  0  0  0  0  0  0
    3.3356    1.0795   -0.1612 C   0  0  0  0  0  0  0  0  0  0  0  0
    4.1411    0.1527    0.6851 C   0  0  0  0  0  0  0  0  0  0  0  0
   -1.1069   -1.7272    1.3316 H   0  0  0  0  0  0  0  0  0  0  0  0
   -0.7341   -3.3313    0.6927 H   0  0  0  0  0  0  0  0  0  0  0  0
    0.5777   -2.2543    1.1897 H   0  0  0  0  0  0  0  0  0  0  0  0
    0.3032   -2.3652   -1.3097 H   0  0  0  0  0  0  0  0  0  0  0  0
   -1.3383   -1.6996   -1.1388 H   0  0  0  0  0  0  0  0  0  0  0  0
   -0.5370    0.3697   -0.0163 H   0  0  0  0  0  0  0  0  0  0  0  0
    1.5450    1.5127   -1.2184 H   0  0  0  0  0  0  0  0  0  0  0  0
    3.7907    2.0176   -0.4373 H   0  0  0  0  0  0  0  0  0  0  0  0
    4.4201    0.6408    1.6186 H   0  0  0  0  0  0  0  0  0  0  0  0
    3.5752   -0.7467    0.9083 H   0  0  0  0  0  0  0  0  0  0  0  0
    5.0608   -0.1254    0.1708 H   0  0  0  0  0  0  0  0  0  0  0  0
  1  2  1  0
  1  5  1  0
  1  6  1  0
  2  3  1  0
  3  4  2  3
  4  7  1  0
  4  8  1  0
  9 10  1  0
  9 16  1  0
  9 17  1  0
  9 18  1  0
 10 11  1  0
 10 19  1  0
 10 20  1  0
 11 12  1  0
 11 21  1  0
 12 13  1  0
 13 14  2  3
 13 22  1  0
 14 15  1  0
 14 23  1  0
 15 24  1  0
 15 25  1  0
 15 26  1  0
M  RAD  1   1   2
M  END
>  <reaction>  (26) 
rmg_rxn_15713

>  <mol_properties>  (26) 
{"0": {"label": "*3", "atom_type": "Cs"}, "1": {"label": "*4", "atom_type": "O2s"}, "10": {"label": "*1", "atom_type": "N3s"}, "11": {"label": "*0", "atom_type": "O2s"}, "20": {"label": "*2", "atom_type": "H0"}}

>  <type>  (26) 
unop_22

>  <geom_source>  (26) 
Heuristics

$$$$

     RDKit          3D

 26 24  0  0  0  0  0  0  0  0999 V2000
   -1.1758    0.0595    1.7971 C   0  0  0  0  0  3  0  0  0  0  0  0
   -0.5558   -1.1555    2.1697 O   0  0  0  0  0  0  0  0  0  0  0  0
   -0.2390   -1.1228    3.5067 N   0  0  0  0  0  0  0  0  0  0  0  0
    0.3192   -2.1904    3.8880 C   0  0  0  0  0  0  0  0  0  0  0  0
   -2.1016    0.2132    2.3560 H   0  0  0  0  0  0  0  0  0  0  0  0
   -0.5057    0.9064    1.9609 H   0  0  0  0  0  0  0  0  0  0  0  0
    0.6008   -2.2444    4.9311 H   0  0  0  0  0  0  0  0  0  0  0  0
    0.5141   -3.0226    3.2150 H   0  0  0  0  0  0  0  0  0  0  0  0
   -0.9879   -1.1755   -2.7695 C   0  0  0  0  0  0  0  0  0  0  0  0
   -0.9879   -1.1755   -1.2528 C   0  0  0  0  0  0  0  0  0  0  0  0
   -0.9879    0.1806   -0.7162 N   0  0  0  0  0  0  0  0  0  0  0  0
    0.3057    0.7355   -0.9112 O   0  0  0  0  0  0  0  0  0  0  0  0
    0.2660    1.8202   -1.7366 C   0  0  0  0  0  0  0  0  0  0  0  0
    1.3679    2.3884   -2.2047 C   0  0  0  0  0  0  0  0  0  0  0  0
    2.7673    1.9363   -1.9310 C   0  0  0  0  0  0  0  0  0  0  0  0
   -0.0828   -0.7055   -3.1558 H   0  0  0  0  0  0  0  0  0  0  0  0
   -1.0269   -2.1975   -3.1490 H   0  0  0  0  0  0  0  0  0  0  0  0
   -1.8496   -0.6274   -3.1532 H   0  0  0  0  0  0  0  0  0  0  0  0
   -1.9024   -1.6389   -0.8722 H   0  0  0  0  0  0  0  0  0  0  0  0
   -0.1364   -1.7532   -0.8725 H   0  0  0  0  0  0  0  0  0  0  0  0
   -1.0785    0.1222    0.4958 H   0  0  0  0  0  0  0  0  0  0  0  0
   -0.7341    2.1687   -1.9604 H   0  0  0  0  0  0  0  0  0  0  0  0
    1.2253    3.2605   -2.8308 H   0  0  0  0  0  0  0  0  0  0  0  0
    3.3145    1.7759   -2.8632 H   0  0  0  0  0  0  0  0  0  0  0  0
    3.3201    2.6884   -1.3616 H   0  0  0  0  0  0  0  0  0  0  0  0
    2.7819    1.0072   -1.3626 H   0  0  0  0  0  0  0  0  0  0  0  0
  1  2  1  0
  1  5  1  0
  1  6  1  0
  2  3  1  0
  3  4  2  3
  4  7  1  0
  4  8  1  0
  9 10  1  0
  9 16  1  0
  9 17  1  0
  9 18  1  0
 10 11  1  0
 10 19  1  0
 10 20  1  0
 11 12  1  0
 11 21  1  0
 12 13  1  0
 13 14  2  3
 13 22  1  0
 14 15  1  0
 14 23  1  0
 15 24  1  0
 15 25  1  0
 15 26  1  0
M  RAD  1   1   2
M  END
>  <reaction>  (27) 
rmg_rxn_15713

>  <mol_properties>  (27) 
{"0": {"label": "*3", "atom_type": "Cs"}, "1": {"label": "*4", "atom_type": "O2s"}, "10": {"label": "*1", "atom_type": "N3s"}, "11": {"label": "*0", "atom_type": "O2s"}, "20": {"label": "*2", "atom_type": "H0"}}

>  <type>  (27) 
unop_23

>  <geom_source>  (27) 
gaussian_log

$$$$
