
     RDKit          3D

 15 14  0  0  0  0  0  0  0  0999 V2000
   -1.2811   -0.4129    1.0228 C   0  0  0  0  0  0  0  0  0  0  0  0
   -1.0023   -0.5809   -0.4650 C   0  0  0  0  0  0  0  0  0  0  0  0
   -2.0576    0.0568   -1.3449 C   0  0  0  0  0  0  0  0  0  0  0  0
   -2.0663    1.4464   -1.1307 O   0  0  0  0  0  0  0  0  0  0  0  0
   -3.0424    2.1072   -1.8849 C   0  0  0  0  0  0  0  0  0  0  0  0
   -2.2382   -0.8657    1.2935 H   0  0  0  0  0  0  0  0  0  0  0  0
   -1.3219    0.6426    1.2914 H   0  0  0  0  0  0  0  0  0  0  0  0
   -0.5042   -0.8881    1.6236 H   0  0  0  0  0  0  0  0  0  0  0  0
   -0.0316   -0.1460   -0.7167 H   0  0  0  0  0  0  0  0  0  0  0  0
   -0.9494   -1.6429   -0.7203 H   0  0  0  0  0  0  0  0  0  0  0  0
   -1.8518   -0.1570   -2.4041 H   0  0  0  0  0  0  0  0  0  0  0  0
   -3.0491   -0.3636   -1.1124 H   0  0  0  0  0  0  0  0  0  0  0  0
   -4.0521    1.7545   -1.6343 H   0  0  0  0  0  0  0  0  0  0  0  0
   -2.8850    1.9634   -2.9626 H   0  0  0  0  0  0  0  0  0  0  0  0
   -2.9730    3.1700   -1.6570 H   0  0  0  0  0  0  0  0  0  0  0  0
  1  2  1  0
  1  6  1  0
  1  7  1  0
  1  8  1  0
  2  3  1  0
  2  9  1  0
  2 10  1  0
  3  4  1  0
  3 11  1  0
  3 12  1  0
  4  5  1  0
  5 13  1  0
  5 14  1  0
  5 15  1  0
M  END
>  <reaction>  (1) 
rmg_rxn_658

>  <mol_properties>  (1) 
{"4": {"label": "donator", "atom_type": "Cs"}, "12": {"label": "d_hydrogen", "atom_type": "H0"}}

>  <type>  (1) 
r1h

$$$$

     RDKit          3D

 13 12  0  0  0  0  0  0  0  0999 V2000
    2.0654   -0.2739   -0.0844 C   0  0  0  0  0  3  0  0  0  0  0  0
    0.6326   -0.4110   -0.4406 C   0  0  0  0  0  0  0  0  0  0  0  0
   -0.3055    0.4151    0.4359 C   0  0  0  0  0  0  0  0  0  0  0  0
   -1.7714    0.2357    0.0671 C   0  0  0  0  0  0  0  0  0  0  0  0
    2.3610    0.0676    0.8995 H   0  0  0  0  0  0  0  0  0  0  0  0
    2.8408   -0.6127   -0.7582 H   0  0  0  0  0  0  0  0  0  0  0  0
    0.3313   -1.4695   -0.3768 H   0  0  0  0  0  0  0  0  0  0  0  0
    0.4826   -0.1432   -1.4940 H   0  0  0  0  0  0  0  0  0  0  0  0
   -0.1518    0.1351    1.4826 H   0  0  0  0  0  0  0  0  0  0  0  0
   -0.0303    1.4705    0.3565 H   0  0  0  0  0  0  0  0  0  0  0  0
   -2.0768   -0.8084    0.1692 H   0  0  0  0  0  0  0  0  0  0  0  0
   -1.9546    0.5339   -0.9679 H   0  0  0  0  0  0  0  0  0  0  0  0
   -2.4194    0.8370    0.7066 H   0  0  0  0  0  0  0  0  0  0  0  0
  1  2  1  0
  1  5  1  0
  1  6  1  0
  2  3  1  0
  2  7  1  0
  2  8  1  0
  3  4  1  0
  3  9  1  0
  3 10  1  0
  4 11  1  0
  4 12  1  0
  4 13  1  0
M  RAD  1   1   2
M  END
>  <reaction>  (2) 
rmg_rxn_658

>  <mol_properties>  (2) 
{"0": {"label": "acceptor", "atom_type": "Cs"}}

>  <type>  (2) 
r2

$$$$

     RDKit          3D

 14 13  0  0  0  0  0  0  0  0999 V2000
    1.8106   -0.5953    0.5577 C   0  0  0  0  0  0  0  0  0  0  0  0
    0.5197    0.2064    0.6554 C   0  0  0  0  0  0  0  0  0  0  0  0
   -0.5206   -0.2080   -0.3788 C   0  0  0  0  0  0  0  0  0  0  0  0
   -1.8114    0.5937   -0.2812 C   0  0  0  0  0  0  0  0  0  0  0  0
    2.2725   -0.4752   -0.4251 H   0  0  0  0  0  0  0  0  0  0  0  0
    1.6214   -1.6612    0.7052 H   0  0  0  0  0  0  0  0  0  0  0  0
    2.5364   -0.2784    1.3084 H   0  0  0  0  0  0  0  0  0  0  0  0
    0.0930    0.0950    1.6574 H   0  0  0  0  0  0  0  0  0  0  0  0
    0.7393    1.2723    0.5354 H   0  0  0  0  0  0  0  0  0  0  0  0
   -0.7402   -1.2739   -0.2588 H   0  0  0  0  0  0  0  0  0  0  0  0
   -0.0938   -0.0965   -1.3808 H   0  0  0  0  0  0  0  0  0  0  0  0
   -1.6222    1.6596   -0.4287 H   0  0  0  0  0  0  0  0  0  0  0  0
   -2.2734    0.4736    0.7017 H   0  0  0  0  0  0  0  0  0  0  0  0
   -2.5373    0.2768   -1.0318 H   0  0  0  0  0  0  0  0  0  0  0  0
  1  2  1  0
  1  5  1  0
  1  6  1  0
  1  7  1  0
  2  3  1  0
  2  8  1  0
  2  9  1  0
  3  4  1  0
  3 10  1  0
  3 11  1  0
  4 12  1  0
  4 13  1  0
  4 14  1  0
M  END
>  <reaction>  (3) 
rmg_rxn_658

>  <mol_properties>  (3) 
{"0": {"label": "acceptor", "atom_type": "Cs"}, "13": {"label": "a_hydrogen", "atom_type": "H0"}}

>  <type>  (3) 
r2h

$$$$

     RDKit          3D

 28 26  0  0  0  0  0  0  0  0999 V2000
    0.2550    2.0097    0.6695 C   0  0  0  0  0  3  0  0  0  0  0  0
    0.6926    1.4295   -0.6480 C   0  0  0  0  0  0  0  0  0  0  0  0
    2.0721    1.9056   -1.1065 C   0  0  0  0  0  0  0  0  0  0  0  0
    2.4940    1.2851   -2.4322 C   0  0  0  0  0  0  0  0  0  0  0  0
    0.0245    3.0744    0.6555 H   0  0  0  0  0  0  0  0  0  0  0  0
    0.8847    1.7467    1.5194 H   0  0  0  0  0  0  0  0  0  0  0  0
   -0.0442    1.6752   -1.4199 H   0  0  0  0  0  0  0  0  0  0  0  0
    0.7017    0.3368   -0.5823 H   0  0  0  0  0  0  0  0  0  0  0  0
    2.0675    2.9964   -1.1922 H   0  0  0  0  0  0  0  0  0  0  0  0
    2.8086    1.6626   -0.3344 H   0  0  0  0  0  0  0  0  0  0  0  0
    1.7876    1.5400   -3.2257 H   0  0  0  0  0  0  0  0  0  0  0  0
    2.5283    0.1954   -2.3594 H   0  0  0  0  0  0  0  0  0  0  0  0
    3.4820    1.6315   -2.7402 H   0  0  0  0  0  0  0  0  0  0  0  0
    0.1337   -2.5523   -0.5476 C   0  0  0  0  0  0  0  0  0  0  0  0
   -0.6396   -2.6715    0.7591 C   0  0  0  0  0  0  0  0  0  0  0  0
   -0.9273   -1.3335    1.4066 C   0  0  0  0  0  0  0  0  0  0  0  0
   -1.7904   -0.5896    0.5736 O   0  0  0  0  0  0  0  0  0  0  0  0
   -2.0631    0.6751    1.0476 C   0  0  0  0  0  0  0  0  0  0  0  0
    1.1078   -2.0848   -0.3825 H   0  0  0  0  0  0  0  0  0  0  0  0
   -0.4131   -1.9431   -1.2677 H   0  0  0  0  0  0  0  0  0  0  0  0
    0.3061   -3.5332   -0.9925 H   0  0  0  0  0  0  0  0  0  0  0  0
   -1.5891   -3.1856    0.5891 H   0  0  0  0  0  0  0  0  0  0  0  0
   -0.0761   -3.2760    1.4749 H   0  0  0  0  0  0  0  0  0  0  0  0
   -1.3983   -1.4723    2.3894 H   0  0  0  0  0  0  0  0  0  0  0  0
    0.0062   -0.7744    1.5621 H   0  0  0  0  0  0  0  0  0  0  0  0
   -0.9674    1.4053    0.9456 H   0  0  0  0  0  0  0  0  0  0  0  0
   -2.3389    0.6994    2.1085 H   0  0  0  0  0  0  0  0  0  0  0  0
   -2.8038    1.1525    0.4097 H   0  0  0  0  0  0  0  0  0  0  0  0
  1  2  1  0
  1  5  1  0
  1  6  1  0
  2  3  1  0
  2  7  1  0
  2  8  1  0
  3  4  1  0
  3  9  1  0
  3 10  1  0
  4 11  1  0
  4 12  1  0
  4 13  1  0
 14 15  1  0
 14 19  1  0
 14 20  1  0
 14 21  1  0
 15 16  1  0
 15 22  1  0
 15 23  1  0
 16 17  1  0
 16 24  1  0
 16 25  1  0
 17 18  1  0
 18 26  1  0
 18 27  1  0
 18 28  1  0
M  RAD  1   1   2
M  END
>  <reaction>  (4) 
rmg_rxn_658

>  <mol_properties>  (4) 
{"0": {"label": "*3", "atom_type": "Cs"}, "1": {"label": "*4", "atom_type": "Cs"}, "16": {"label": "*0", "atom_type": "O2s"}, "17": {"label": "*1", "atom_type": "Cs"}, "25": {"label": "*2", "atom_type": "H0"}}

>  <type>  (4) 
ts

$$$$

     RDKit          3D

 28 26  0  0  0  0  0  0  0  0999 V2000
    0.7371    1.1221    0.1676 C   0  0  0  0  0  0  0  0  0  0  0  0
    0.2195    2.3138   -0.6265 C   0  0  0  0  0  0  0  0  0  0  0  0
    1.0156    3.5894   -0.3765 C   0  0  0  0  0  0  0  0  0  0  0  0
    0.4980    4.7811   -1.1705 C   0  0  0  0  0  0  0  0  0  0  0  0
    0.6948    1.3191    1.2414 H   0  0  0  0  0  0  0  0  0  0  0  0
    1.7771    0.9040   -0.0870 H   0  0  0  0  0  0  0  0  0  0  0  0
   -0.8314    2.4927   -0.3772 H   0  0  0  0  0  0  0  0  0  0  0  0
    0.2428    2.0807   -1.6959 H   0  0  0  0  0  0  0  0  0  0  0  0
    0.9923    3.8225    0.6930 H   0  0  0  0  0  0  0  0  0  0  0  0
    2.0665    3.4105   -0.6257 H   0  0  0  0  0  0  0  0  0  0  0  0
   -0.5420    4.9991   -0.9159 H   0  0  0  0  0  0  0  0  0  0  0  0
    0.5403    4.5840   -2.2444 H   0  0  0  0  0  0  0  0  0  0  0  0
    1.0851    5.6794   -0.9729 H   0  0  0  0  0  0  0  0  0  0  0  0
    0.0122   -3.7104   -1.1380 C   0  0  0  0  0  0  0  0  0  0  0  0
    0.0122   -3.7104    0.3849 C   0  0  0  0  0  0  0  0  0  0  0  0
    0.0122   -2.3178    0.9810 C   0  0  0  0  0  0  0  0  0  0  0  0
   -1.1729   -1.6543    0.6168 O   0  0  0  0  0  0  0  0  0  0  0  0
   -1.2337   -0.3432    1.1020 C   0  0  0  0  0  3  0  0  0  0  0  0
    0.8945   -3.1967   -1.5277 H   0  0  0  0  0  0  0  0  0  0  0  0
   -0.8703   -3.2005   -1.5244 H   0  0  0  0  0  0  0  0  0  0  0  0
    0.0171   -4.7284   -1.5303 H   0  0  0  0  0  0  0  0  0  0  0  0
   -0.8619   -4.2485    0.7606 H   0  0  0  0  0  0  0  0  0  0  0  0
    0.8939   -4.2365    0.7612 H   0  0  0  0  0  0  0  0  0  0  0  0
    0.0890   -2.3715    2.0770 H   0  0  0  0  0  0  0  0  0  0  0  0
    0.8845   -1.7507    0.6188 H   0  0  0  0  0  0  0  0  0  0  0  0
   -0.2450    0.3918    0.6332 H   0  0  0  0  0  0  0  0  0  0  0  0
   -1.1917   -0.3171    2.1995 H   0  0  0  0  0  0  0  0  0  0  0  0
   -2.1793    0.0869    0.7749 H   0  0  0  0  0  0  0  0  0  0  0  0
  1  2  1  0
  1  5  1  0
  1  6  1  0
  1 26  1  0
  2  3  1  0
  2  7  1  0
  2  8  1  0
  3  4  1  0
  3  9  1  0
  3 10  1  0
  4 11  1  0
  4 12  1  0
  4 13  1  0
 14 15  1  0
 14 19  1  0
 14 20  1  0
 14 21  1  0
 15 16  1  0
 15 22  1  0
 15 23  1  0
 16 17  1  0
 16 24  1  0
 16 25  1  0
 17 18  1  0
 18 27  1  0
 18 28  1  0
M  RAD  1  18   2
M  END
>  <reaction>  (5) 
rmg_rxn_658

>  <mol_properties>  (5) 
{"0": {"label": "*3", "atom_type": "Cs"}, "1": {"label": "*4", "atom_type": "Cs"}, "16": {"label": "*0", "atom_type": "O2s"}, "17": {"label": "*1", "atom_type": "Cs"}, "25": {"label": "*2", "atom_type": "H0"}}

>  <type>  (5) 
unop_1

>  <geom_source>  (5) 
Heuristics

$$$$

     RDKit          3D

 28 26  0  0  0  0  0  0  0  0999 V2000
    0.3112    1.9087    0.6561 C   0  0  0  0  0  0  0  0  0  0  0  0
    0.7493    1.4406   -0.7251 C   0  0  0  0  0  0  0  0  0  0  0  0
    1.5579    2.4878   -1.4821 C   0  0  0  0  0  0  0  0  0  0  0  0
    1.9959    2.0197   -2.8633 C   0  0  0  0  0  0  0  0  0  0  0  0
   -0.3116    2.8037    0.5867 H   0  0  0  0  0  0  0  0  0  0  0  0
    1.1751    2.1554    1.2779 H   0  0  0  0  0  0  0  0  0  0  0  0
   -0.1308    1.1704   -1.3176 H   0  0  0  0  0  0  0  0  0  0  0  0
    1.3449    0.5268   -0.6314 H   0  0  0  0  0  0  0  0  0  0  0  0
    0.9622    3.4016   -1.5758 H   0  0  0  0  0  0  0  0  0  0  0  0
    2.4380    2.7580   -0.8896 H   0  0  0  0  0  0  0  0  0  0  0  0
    1.1321    1.7730   -3.4851 H   0  0  0  0  0  0  0  0  0  0  0  0
    2.6187    1.1247   -2.7939 H   0  0  0  0  0  0  0  0  0  0  0  0
    2.5720    2.7875   -3.3822 H   0  0  0  0  0  0  0  0  0  0  0  0
   -0.4138   -2.9237   -0.6495 C   0  0  0  0  0  0  0  0  0  0  0  0
   -0.4138   -2.9237    0.8734 C   0  0  0  0  0  0  0  0  0  0  0  0
   -0.4138   -1.5311    1.4695 C   0  0  0  0  0  0  0  0  0  0  0  0
   -1.5988   -0.8677    1.1053 O   0  0  0  0  0  0  0  0  0  0  0  0
   -1.6596    0.4434    1.5905 C   0  0  0  0  0  3  0  0  0  0  0  0
    0.4686   -2.4100   -1.0392 H   0  0  0  0  0  0  0  0  0  0  0  0
   -1.2962   -2.4138   -1.0359 H   0  0  0  0  0  0  0  0  0  0  0  0
   -0.4088   -3.9417   -1.0418 H   0  0  0  0  0  0  0  0  0  0  0  0
   -1.2879   -3.4619    1.2491 H   0  0  0  0  0  0  0  0  0  0  0  0
    0.4680   -3.4498    1.2497 H   0  0  0  0  0  0  0  0  0  0  0  0
   -0.3369   -1.5848    2.5655 H   0  0  0  0  0  0  0  0  0  0  0  0
    0.4586   -0.9641    1.1073 H   0  0  0  0  0  0  0  0  0  0  0  0
   -0.6709    1.1785    1.1218 H   0  0  0  0  0  0  0  0  0  0  0  0
   -1.6176    0.4695    2.6880 H   0  0  0  0  0  0  0  0  0  0  0  0
   -2.6053    0.8736    1.2634 H   0  0  0  0  0  0  0  0  0  0  0  0
  1  2  1  0
  1  5  1  0
  1  6  1  0
  1 26  1  0
  2  3  1  0
  2  7  1  0
  2  8  1  0
  3  4  1  0
  3  9  1  0
  3 10  1  0
  4 11  1  0
  4 12  1  0
  4 13  1  0
 14 15  1  0
 14 19  1  0
 14 20  1  0
 14 21  1  0
 15 16  1  0
 15 22  1  0
 15 23  1  0
 16 17  1  0
 16 24  1  0
 16 25  1  0
 17 18  1  0
 18 27  1  0
 18 28  1  0
M  RAD  1  18   2
M  END
>  <reaction>  (6) 
rmg_rxn_658

>  <mol_properties>  (6) 
{"0": {"label": "*3", "atom_type": "Cs"}, "1": {"label": "*4", "atom_type": "Cs"}, "16": {"label": "*0", "atom_type": "O2s"}, "17": {"label": "*1", "atom_type": "Cs"}, "25": {"label": "*2", "atom_type": "H0"}}

>  <type>  (6) 
unop_2

>  <geom_source>  (6) 
Heuristics

$$$$

     RDKit          3D

 28 26  0  0  0  0  0  0  0  0999 V2000
    0.5996    1.0739   -0.1085 C   0  0  0  0  0  0  0  0  0  0  0  0
    0.1980    2.5375   -0.2315 C   0  0  0  0  0  0  0  0  0  0  0  0
    1.3737    3.4949   -0.0741 C   0  0  0  0  0  0  0  0  0  0  0  0
    0.9720    4.9585   -0.1971 C   0  0  0  0  0  0  0  0  0  0  0  0
    1.0472    0.8716    0.8675 H   0  0  0  0  0  0  0  0  0  0  0  0
    1.3346    0.8044   -0.8706 H   0  0  0  0  0  0  0  0  0  0  0  0
   -0.5605    2.7748    0.5215 H   0  0  0  0  0  0  0  0  0  0  0  0
   -0.2752    2.7081   -1.2039 H   0  0  0  0  0  0  0  0  0  0  0  0
    1.8469    3.3243    0.8983 H   0  0  0  0  0  0  0  0  0  0  0  0
    2.1322    3.2576   -0.8270 H   0  0  0  0  0  0  0  0  0  0  0  0
    0.2370    5.2280    0.5651 H   0  0  0  0  0  0  0  0  0  0  0  0
    0.5245    5.1608   -1.1731 H   0  0  0  0  0  0  0  0  0  0  0  0
    1.8315    5.6207   -0.0806 H   0  0  0  0  0  0  0  0  0  0  0  0
   -0.1254   -3.7585   -1.4140 C   0  0  0  0  0  0  0  0  0  0  0  0
   -0.1254   -3.7585    0.1089 C   0  0  0  0  0  0  0  0  0  0  0  0
   -0.1254   -2.3659    0.7050 C   0  0  0  0  0  0  0  0  0  0  0  0
   -1.3104   -1.7025    0.3408 O   0  0  0  0  0  0  0  0  0  0  0  0
   -1.3712   -0.3914    0.8260 C   0  0  0  0  0  3  0  0  0  0  0  0
    0.7570   -3.2448   -1.8037 H   0  0  0  0  0  0  0  0  0  0  0  0
   -1.0078   -3.2486   -1.8004 H   0  0  0  0  0  0  0  0  0  0  0  0
   -0.1204   -4.7765   -1.8063 H   0  0  0  0  0  0  0  0  0  0  0  0
   -0.9995   -4.2966    0.4845 H   0  0  0  0  0  0  0  0  0  0  0  0
    0.7564   -4.2846    0.4852 H   0  0  0  0  0  0  0  0  0  0  0  0
   -0.0485   -2.4196    1.8010 H   0  0  0  0  0  0  0  0  0  0  0  0
    0.7470   -1.7989    0.3428 H   0  0  0  0  0  0  0  0  0  0  0  0
   -0.3825    0.3437    0.3572 H   0  0  0  0  0  0  0  0  0  0  0  0
   -1.3292   -0.3652    1.9235 H   0  0  0  0  0  0  0  0  0  0  0  0
   -2.3169    0.0388    0.4988 H   0  0  0  0  0  0  0  0  0  0  0  0
  1  2  1  0
  1  5  1  0
  1  6  1  0
  1 26  1  0
  2  3  1  0
  2  7  1  0
  2  8  1  0
  3  4  1  0
  3  9  1  0
  3 10  1  0
  4 11  1  0
  4 12  1  0
  4 13  1  0
 14 15  1  0
 14 19  1  0
 14 20  1  0
 14 21  1  0
 15 16  1  0
 15 22  1  0
 15 23  1  0
 16 17  1  0
 16 24  1  0
 16 25  1  0
 17 18  1  0
 18 27  1  0
 18 28  1  0
M  RAD  1  18   2
M  END
>  <reaction>  (7) 
rmg_rxn_658

>  <mol_properties>  (7) 
{"0": {"label": "*3", "atom_type": "Cs"}, "1": {"label": "*4", "atom_type": "Cs"}, "16": {"label": "*0", "atom_type": "O2s"}, "17": {"label": "*1", "atom_type": "Cs"}, "25": {"label": "*2", "atom_type": "H0"}}

>  <type>  (7) 
unop_3

>  <geom_source>  (7) 
Heuristics

$$$$

     RDKit          3D

 28 26  0  0  0  0  0  0  0  0999 V2000
   -0.1532    1.9472   -0.3465 C   0  0  0  0  0  0  0  0  0  0  0  0
    1.2025    1.3786    0.0502 C   0  0  0  0  0  0  0  0  0  0  0  0
    2.2674    2.4521    0.2425 C   0  0  0  0  0  0  0  0  0  0  0  0
    3.6231    1.8835    0.6392 C   0  0  0  0  0  0  0  0  0  0  0  0
   -0.0856    2.5013   -1.2858 H   0  0  0  0  0  0  0  0  0  0  0  0
   -0.5275    2.6347    0.4158 H   0  0  0  0  0  0  0  0  0  0  0  0
    1.5413    0.6705   -0.7129 H   0  0  0  0  0  0  0  0  0  0  0  0
    1.1027    0.8030    0.9761 H   0  0  0  0  0  0  0  0  0  0  0  0
    2.3672    3.0278   -0.6834 H   0  0  0  0  0  0  0  0  0  0  0  0
    1.9286    3.1603    1.0057 H   0  0  0  0  0  0  0  0  0  0  0  0
    3.9974    1.1960   -0.1231 H   0  0  0  0  0  0  0  0  0  0  0  0
    3.5555    1.3295    1.5785 H   0  0  0  0  0  0  0  0  0  0  0  0
    4.3655    2.6726    0.7701 H   0  0  0  0  0  0  0  0  0  0  0  0
   -0.8782   -2.8852   -1.6520 C   0  0  0  0  0  0  0  0  0  0  0  0
   -0.8782   -2.8852   -0.1291 C   0  0  0  0  0  0  0  0  0  0  0  0
   -0.8782   -1.4926    0.4670 C   0  0  0  0  0  0  0  0  0  0  0  0
   -2.0632   -0.8292    0.1028 O   0  0  0  0  0  0  0  0  0  0  0  0
   -2.1240    0.4819    0.5880 C   0  0  0  0  0  3  0  0  0  0  0  0
    0.0042   -2.3715   -2.0417 H   0  0  0  0  0  0  0  0  0  0  0  0
   -1.7606   -2.3753   -2.0384 H   0  0  0  0  0  0  0  0  0  0  0  0
   -0.8733   -3.9032   -2.0443 H   0  0  0  0  0  0  0  0  0  0  0  0
   -1.7523   -3.4233    0.2465 H   0  0  0  0  0  0  0  0  0  0  0  0
    0.0035   -3.4113    0.2472 H   0  0  0  0  0  0  0  0  0  0  0  0
   -0.8014   -1.5463    1.5630 H   0  0  0  0  0  0  0  0  0  0  0  0
   -0.0058   -0.9256    0.1048 H   0  0  0  0  0  0  0  0  0  0  0  0
   -1.1353    1.2170    0.1192 H   0  0  0  0  0  0  0  0  0  0  0  0
   -2.0820    0.5080    1.6855 H   0  0  0  0  0  0  0  0  0  0  0  0
   -3.0697    0.9121    0.2608 H   0  0  0  0  0  0  0  0  0  0  0  0
  1  2  1  0
  1  5  1  0
  1  6  1  0
  1 26  1  0
  2  3  1  0
  2  7  1  0
  2  8  1  0
  3  4  1  0
  3  9  1  0
  3 10  1  0
  4 11  1  0
  4 12  1  0
  4 13  1  0
 14 15  1  0
 14 19  1  0
 14 20  1  0
 14 21  1  0
 15 16  1  0
 15 22  1  0
 15 23  1  0
 16 17  1  0
 16 24  1  0
 16 25  1  0
 17 18  1  0
 18 27  1  0
 18 28  1  0
M  RAD  1  18   2
M  END
>  <reaction>  (8) 
rmg_rxn_658

>  <mol_properties>  (8) 
{"0": {"label": "*3", "atom_type": "Cs"}, "1": {"label": "*4", "atom_type": "Cs"}, "16": {"label": "*0", "atom_type": "O2s"}, "17": {"label": "*1", "atom_type": "Cs"}, "25": {"label": "*2", "atom_type": "H0"}}

>  <type>  (8) 
unop_4

>  <geom_source>  (8) 
Heuristics

$$$$

     RDKit          3D

 28 26  0  0  0  0  0  0  0  0999 V2000
    0.4616    1.1073   -0.2426 C   0  0  0  0  0  0  0  0  0  0  0  0
    0.3958    2.5341    0.2851 C   0  0  0  0  0  0  0  0  0  0  0  0
    1.5246    3.4162   -0.2357 C   0  0  0  0  0  0  0  0  0  0  0  0
    1.4589    4.8431    0.2920 C   0  0  0  0  0  0  0  0  0  0  0  0
    1.4000    0.6268    0.0442 H   0  0  0  0  0  0  0  0  0  0  0  0
    0.4022    1.0903   -1.3335 H   0  0  0  0  0  0  0  0  0  0  0  0
    0.4258    2.5227    1.3794 H   0  0  0  0  0  0  0  0  0  0  0  0
   -0.5647    2.9829    0.0120 H   0  0  0  0  0  0  0  0  0  0  0  0
    2.4851    2.9675    0.0375 H   0  0  0  0  0  0  0  0  0  0  0  0
    1.4947    3.4276   -1.3300 H   0  0  0  0  0  0  0  0  0  0  0  0
    1.5182    4.8600    1.3829 H   0  0  0  0  0  0  0  0  0  0  0  0
    0.5204    5.3235    0.0053 H   0  0  0  0  0  0  0  0  0  0  0  0
    2.2773    5.4516   -0.0960 H   0  0  0  0  0  0  0  0  0  0  0  0
   -0.2634   -3.7251   -1.5481 C   0  0  0  0  0  0  0  0  0  0  0  0
   -0.2634   -3.7251   -0.0252 C   0  0  0  0  0  0  0  0  0  0  0  0
   -0.2634   -2.3325    0.5708 C   0  0  0  0  0  0  0  0  0  0  0  0
   -1.4484   -1.6691    0.2067 O   0  0  0  0  0  0  0  0  0  0  0  0
   -1.5092   -0.3580    0.6918 C   0  0  0  0  0  3  0  0  0  0  0  0
    0.6190   -3.2115   -1.9379 H   0  0  0  0  0  0  0  0  0  0  0  0
   -1.1458   -3.2152   -1.9346 H   0  0  0  0  0  0  0  0  0  0  0  0
   -0.2585   -4.7431   -1.9404 H   0  0  0  0  0  0  0  0  0  0  0  0
   -1.1375   -4.2633    0.3504 H   0  0  0  0  0  0  0  0  0  0  0  0
    0.6183   -4.2513    0.3510 H   0  0  0  0  0  0  0  0  0  0  0  0
   -0.1866   -2.3862    1.6669 H   0  0  0  0  0  0  0  0  0  0  0  0
    0.6090   -1.7655    0.2086 H   0  0  0  0  0  0  0  0  0  0  0  0
   -0.5206    0.3771    0.2231 H   0  0  0  0  0  0  0  0  0  0  0  0
   -1.4672   -0.3319    1.7893 H   0  0  0  0  0  0  0  0  0  0  0  0
   -2.4549    0.0722    0.3647 H   0  0  0  0  0  0  0  0  0  0  0  0
  1  2  1  0
  1  5  1  0
  1  6  1  0
  1 26  1  0
  2  3  1  0
  2  7  1  0
  2  8  1  0
  3  4  1  0
  3  9  1  0
  3 10  1  0
  4 11  1  0
  4 12  1  0
  4 13  1  0
 14 15  1  0
 14 19  1  0
 14 20  1  0
 14 21  1  0
 15 16  1  0
 15 22  1  0
 15 23  1  0
 16 17  1  0
 16 24  1  0
 16 25  1  0
 17 18  1  0
 18 27  1  0
 18 28  1  0
M  RAD  1  18   2
M  END
>  <reaction>  (9) 
rmg_rxn_658

>  <mol_properties>  (9) 
{"0": {"label": "*3", "atom_type": "Cs"}, "1": {"label": "*4", "atom_type": "Cs"}, "16": {"label": "*0", "atom_type": "O2s"}, "17": {"label": "*1", "atom_type": "Cs"}, "25": {"label": "*2", "atom_type": "H0"}}

>  <type>  (9) 
unop_5

>  <geom_source>  (9) 
Heuristics

$$$$

     RDKit          3D

 28 26  0  0  0  0  0  0  0  0999 V2000
   -0.0119    1.6611   -0.5618 C   0  0  0  0  0  0  0  0  0  0  0  0
    1.2088    1.6003    0.3464 C   0  0  0  0  0  0  0  0  0  0  0  0
    1.9144    2.9438    0.4896 C   0  0  0  0  0  0  0  0  0  0  0  0
    3.1351    2.8830    1.3978 C   0  0  0  0  0  0  0  0  0  0  0  0
    0.2646    1.9850   -1.5679 H   0  0  0  0  0  0  0  0  0  0  0  0
   -0.7500    2.3697   -0.1784 H   0  0  0  0  0  0  0  0  0  0  0  0
    1.9187    0.8624   -0.0413 H   0  0  0  0  0  0  0  0  0  0  0  0
    0.9115    1.2442    1.3381 H   0  0  0  0  0  0  0  0  0  0  0  0
    2.2117    3.2999   -0.5020 H   0  0  0  0  0  0  0  0  0  0  0  0
    1.2046    3.6817    0.8773 H   0  0  0  0  0  0  0  0  0  0  0  0
    3.8732    2.1744    1.0144 H   0  0  0  0  0  0  0  0  0  0  0  0
    2.8586    2.5591    2.4040 H   0  0  0  0  0  0  0  0  0  0  0  0
    3.6202    3.8568    1.4824 H   0  0  0  0  0  0  0  0  0  0  0  0
   -0.7369   -3.1713   -1.8673 C   0  0  0  0  0  0  0  0  0  0  0  0
   -0.7369   -3.1713   -0.3444 C   0  0  0  0  0  0  0  0  0  0  0  0
   -0.7369   -1.7787    0.2517 C   0  0  0  0  0  0  0  0  0  0  0  0
   -1.9219   -1.1152   -0.1125 O   0  0  0  0  0  0  0  0  0  0  0  0
   -1.9827    0.1959    0.3727 C   0  0  0  0  0  3  0  0  0  0  0  0
    0.1455   -2.6576   -2.2570 H   0  0  0  0  0  0  0  0  0  0  0  0
   -1.6193   -2.6614   -2.2537 H   0  0  0  0  0  0  0  0  0  0  0  0
   -0.7319   -4.1893   -2.2596 H   0  0  0  0  0  0  0  0  0  0  0  0
   -1.6110   -3.7094    0.0312 H   0  0  0  0  0  0  0  0  0  0  0  0
    0.1449   -3.6974    0.0319 H   0  0  0  0  0  0  0  0  0  0  0  0
   -0.6600   -1.8324    1.3477 H   0  0  0  0  0  0  0  0  0  0  0  0
    0.1355   -1.2117   -0.1105 H   0  0  0  0  0  0  0  0  0  0  0  0
   -0.9940    0.9309   -0.0961 H   0  0  0  0  0  0  0  0  0  0  0  0
   -1.9407    0.2220    1.4702 H   0  0  0  0  0  0  0  0  0  0  0  0
   -2.9284    0.6260    0.0455 H   0  0  0  0  0  0  0  0  0  0  0  0
  1  2  1  0
  1  5  1  0
  1  6  1  0
  1 26  1  0
  2  3  1  0
  2  7  1  0
  2  8  1  0
  3  4  1  0
  3  9  1  0
  3 10  1  0
  4 11  1  0
  4 12  1  0
  4 13  1  0
 14 15  1  0
 14 19  1  0
 14 20  1  0
 14 21  1  0
 15 16  1  0
 15 22  1  0
 15 23  1  0
 16 17  1  0
 16 24  1  0
 16 25  1  0
 17 18  1  0
 18 27  1  0
 18 28  1  0
M  RAD  1  18   2
M  END
>  <reaction>  (10) 
rmg_rxn_658

>  <mol_properties>  (10) 
{"0": {"label": "*3", "atom_type": "Cs"}, "1": {"label": "*4", "atom_type": "Cs"}, "16": {"label": "*0", "atom_type": "O2s"}, "17": {"label": "*1", "atom_type": "Cs"}, "25": {"label": "*2", "atom_type": "H0"}}

>  <type>  (10) 
unop_6

>  <geom_source>  (10) 
Heuristics

$$$$

     RDKit          3D

 28 26  0  0  0  0  0  0  0  0999 V2000
    0.2022    1.3706   -0.5710 C   0  0  0  0  0  0  0  0  0  0  0  0
    1.0731    1.9172    0.5521 C   0  0  0  0  0  0  0  0  0  0  0  0
    1.5178    3.3561    0.3168 C   0  0  0  0  0  0  0  0  0  0  0  0
    2.3887    3.9028    1.4399 C   0  0  0  0  0  0  0  0  0  0  0  0
    0.7362    1.3875   -1.5240 H   0  0  0  0  0  0  0  0  0  0  0  0
   -0.7041    1.9690   -0.6900 H   0  0  0  0  0  0  0  0  0  0  0  0
    1.9580    1.2839    0.6722 H   0  0  0  0  0  0  0  0  0  0  0  0
    0.5282    1.8610    1.5000 H   0  0  0  0  0  0  0  0  0  0  0  0
    2.0627    3.4123   -0.6311 H   0  0  0  0  0  0  0  0  0  0  0  0
    0.6329    3.9895    0.1967 H   0  0  0  0  0  0  0  0  0  0  0  0
    3.2950    3.3043    1.5589 H   0  0  0  0  0  0  0  0  0  0  0  0
    1.8547    3.8858    2.3929 H   0  0  0  0  0  0  0  0  0  0  0  0
    2.6922    4.9328    1.2459 H   0  0  0  0  0  0  0  0  0  0  0  0
   -0.5228   -3.4619   -1.8765 C   0  0  0  0  0  0  0  0  0  0  0  0
   -0.5228   -3.4619   -0.3536 C   0  0  0  0  0  0  0  0  0  0  0  0
   -0.5228   -2.0693    0.2424 C   0  0  0  0  0  0  0  0  0  0  0  0
   -1.7078   -1.4058   -0.1217 O   0  0  0  0  0  0  0  0  0  0  0  0
   -1.7686   -0.0947    0.3635 C   0  0  0  0  0  3  0  0  0  0  0  0
    0.3596   -2.9482   -2.2662 H   0  0  0  0  0  0  0  0  0  0  0  0
   -1.4052   -2.9520   -2.2629 H   0  0  0  0  0  0  0  0  0  0  0  0
   -0.5179   -4.4799   -2.2688 H   0  0  0  0  0  0  0  0  0  0  0  0
   -1.3969   -4.0000    0.0220 H   0  0  0  0  0  0  0  0  0  0  0  0
    0.3590   -3.9880    0.0226 H   0  0  0  0  0  0  0  0  0  0  0  0
   -0.4459   -2.1230    1.3385 H   0  0  0  0  0  0  0  0  0  0  0  0
    0.3496   -1.5022   -0.1197 H   0  0  0  0  0  0  0  0  0  0  0  0
   -0.7799    0.6403   -0.1053 H   0  0  0  0  0  0  0  0  0  0  0  0
   -1.7266   -0.0686    1.4609 H   0  0  0  0  0  0  0  0  0  0  0  0
   -2.7143    0.3354    0.0363 H   0  0  0  0  0  0  0  0  0  0  0  0
  1  2  1  0
  1  5  1  0
  1  6  1  0
  1 26  1  0
  2  3  1  0
  2  7  1  0
  2  8  1  0
  3  4  1  0
  3  9  1  0
  3 10  1  0
  4 11  1  0
  4 12  1  0
  4 13  1  0
 14 15  1  0
 14 19  1  0
 14 20  1  0
 14 21  1  0
 15 16  1  0
 15 22  1  0
 15 23  1  0
 16 17  1  0
 16 24  1  0
 16 25  1  0
 17 18  1  0
 18 27  1  0
 18 28  1  0
M  RAD  1  18   2
M  END
>  <reaction>  (11) 
rmg_rxn_658

>  <mol_properties>  (11) 
{"0": {"label": "*3", "atom_type": "Cs"}, "1": {"label": "*4", "atom_type": "Cs"}, "16": {"label": "*0", "atom_type": "O2s"}, "17": {"label": "*1", "atom_type": "Cs"}, "25": {"label": "*2", "atom_type": "H0"}}

>  <type>  (11) 
unop_7

>  <geom_source>  (11) 
Heuristics

$$$$

     RDKit          3D

 28 26  0  0  0  0  0  0  0  0999 V2000
    0.7385    1.3126    0.4743 C   0  0  0  0  0  0  0  0  0  0  0  0
    0.3559    1.9965   -0.8312 C   0  0  0  0  0  0  0  0  0  0  0  0
    0.8826    3.4232   -0.9349 C   0  0  0  0  0  0  0  0  0  0  0  0
    0.4999    4.1071   -2.2404 C   0  0  0  0  0  0  0  0  0  0  0  0
    0.3451    1.8610    1.3334 H   0  0  0  0  0  0  0  0  0  0  0  0
    1.8242    1.2605    0.5853 H   0  0  0  0  0  0  0  0  0  0  0  0
   -0.7340    2.0087   -0.9338 H   0  0  0  0  0  0  0  0  0  0  0  0
    0.7343    1.4126   -1.6765 H   0  0  0  0  0  0  0  0  0  0  0  0
    0.5042    4.0071   -0.0897 H   0  0  0  0  0  0  0  0  0  0  0  0
    1.9725    3.4110   -0.8323 H   0  0  0  0  0  0  0  0  0  0  0  0
   -0.5858    4.1592   -2.3514 H   0  0  0  0  0  0  0  0  0  0  0  0
    0.8934    3.5587   -3.0996 H   0  0  0  0  0  0  0  0  0  0  0  0
    0.8892    5.1254   -2.2880 H   0  0  0  0  0  0  0  0  0  0  0  0
    0.0136   -3.5199   -0.8313 C   0  0  0  0  0  0  0  0  0  0  0  0
    0.0136   -3.5199    0.6916 C   0  0  0  0  0  0  0  0  0  0  0  0
    0.0136   -2.1273    1.2877 C   0  0  0  0  0  0  0  0  0  0  0  0
   -1.1715   -1.4638    0.9236 O   0  0  0  0  0  0  0  0  0  0  0  0
   -1.2323   -0.1527    1.4087 C   0  0  0  0  0  3  0  0  0  0  0  0
    0.8959   -3.0062   -1.2210 H   0  0  0  0  0  0  0  0  0  0  0  0
   -0.8689   -3.0100   -1.2177 H   0  0  0  0  0  0  0  0  0  0  0  0
    0.0185   -4.5379   -1.2236 H   0  0  0  0  0  0  0  0  0  0  0  0
   -0.8606   -4.0580    1.0673 H   0  0  0  0  0  0  0  0  0  0  0  0
    0.8953   -4.0460    1.0679 H   0  0  0  0  0  0  0  0  0  0  0  0
    0.0904   -2.1810    2.3838 H   0  0  0  0  0  0  0  0  0  0  0  0
    0.8859   -1.5603    0.9255 H   0  0  0  0  0  0  0  0  0  0  0  0
   -0.2436    0.5823    0.9400 H   0  0  0  0  0  0  0  0  0  0  0  0
   -1.1903   -0.1266    2.5062 H   0  0  0  0  0  0  0  0  0  0  0  0
   -2.1780    0.2774    1.0816 H   0  0  0  0  0  0  0  0  0  0  0  0
  1  2  1  0
  1  5  1  0
  1  6  1  0
  1 26  1  0
  2  3  1  0
  2  7  1  0
  2  8  1  0
  3  4  1  0
  3  9  1  0
  3 10  1  0
  4 11  1  0
  4 12  1  0
  4 13  1  0
 14 15  1  0
 14 19  1  0
 14 20  1  0
 14 21  1  0
 15 16  1  0
 15 22  1  0
 15 23  1  0
 16 17  1  0
 16 24  1  0
 16 25  1  0
 17 18  1  0
 18 27  1  0
 18 28  1  0
M  RAD  1  18   2
M  END
>  <reaction>  (12) 
rmg_rxn_658

>  <mol_properties>  (12) 
{"0": {"label": "*3", "atom_type": "Cs"}, "1": {"label": "*4", "atom_type": "Cs"}, "16": {"label": "*0", "atom_type": "O2s"}, "17": {"label": "*1", "atom_type": "Cs"}, "25": {"label": "*2", "atom_type": "H0"}}

>  <type>  (12) 
unop_8

>  <geom_source>  (12) 
Heuristics

$$$$

     RDKit          3D

 28 26  0  0  0  0  0  0  0  0999 V2000
   -0.1488    2.1224    0.0209 C   0  0  0  0  0  0  0  0  0  0  0  0
    1.0909    1.2819   -0.2534 C   0  0  0  0  0  0  0  0  0  0  0  0
    2.3627    2.1139   -0.3710 C   0  0  0  0  0  0  0  0  0  0  0  0
    3.6024    1.2734   -0.6453 C   0  0  0  0  0  0  0  0  0  0  0  0
   -0.3149    2.8476   -0.7793 H   0  0  0  0  0  0  0  0  0  0  0  0
   -0.0449    2.6799    0.9549 H   0  0  0  0  0  0  0  0  0  0  0  0
    0.9502    0.7102   -1.1764 H   0  0  0  0  0  0  0  0  0  0  0  0
    1.2182    0.5437    0.5450 H   0  0  0  0  0  0  0  0  0  0  0  0
    2.2354    2.8521   -1.1694 H   0  0  0  0  0  0  0  0  0  0  0  0
    2.5034    2.6856    0.5520 H   0  0  0  0  0  0  0  0  0  0  0  0
    3.4985    0.7160   -1.5793 H   0  0  0  0  0  0  0  0  0  0  0  0
    3.7686    0.5482    0.1549 H   0  0  0  0  0  0  0  0  0  0  0  0
    4.4969    1.8933   -0.7246 H   0  0  0  0  0  0  0  0  0  0  0  0
   -0.8738   -2.7100   -1.2846 C   0  0  0  0  0  0  0  0  0  0  0  0
   -0.8738   -2.7100    0.2383 C   0  0  0  0  0  0  0  0  0  0  0  0
   -0.8738   -1.3174    0.8344 C   0  0  0  0  0  0  0  0  0  0  0  0
   -2.0588   -0.6540    0.4702 O   0  0  0  0  0  0  0  0  0  0  0  0
   -2.1196    0.6571    0.9554 C   0  0  0  0  0  3  0  0  0  0  0  0
    0.0086   -2.1963   -1.6743 H   0  0  0  0  0  0  0  0  0  0  0  0
   -1.7562   -2.2001   -1.6710 H   0  0  0  0  0  0  0  0  0  0  0  0
   -0.8689   -3.7280   -1.6769 H   0  0  0  0  0  0  0  0  0  0  0  0
   -1.7479   -3.2482    0.6139 H   0  0  0  0  0  0  0  0  0  0  0  0
    0.0079   -3.2361    0.6146 H   0  0  0  0  0  0  0  0  0  0  0  0
   -0.7970   -1.3711    1.9304 H   0  0  0  0  0  0  0  0  0  0  0  0
   -0.0014   -0.7504    0.4722 H   0  0  0  0  0  0  0  0  0  0  0  0
   -1.1309    1.3922    0.4866 H   0  0  0  0  0  0  0  0  0  0  0  0
   -2.0776    0.6832    2.0529 H   0  0  0  0  0  0  0  0  0  0  0  0
   -3.0653    1.0873    0.6282 H   0  0  0  0  0  0  0  0  0  0  0  0
  1  2  1  0
  1  5  1  0
  1  6  1  0
  1 26  1  0
  2  3  1  0
  2  7  1  0
  2  8  1  0
  3  4  1  0
  3  9  1  0
  3 10  1  0
  4 11  1  0
  4 12  1  0
  4 13  1  0
 14 15  1  0
 14 19  1  0
 14 20  1  0
 14 21  1  0
 15 16  1  0
 15 22  1  0
 15 23  1  0
 16 17  1  0
 16 24  1  0
 16 25  1  0
 17 18  1  0
 18 27  1  0
 18 28  1  0
M  RAD  1  18   2
M  END
>  <reaction>  (13) 
rmg_rxn_658

>  <mol_properties>  (13) 
{"0": {"label": "*3", "atom_type": "Cs"}, "1": {"label": "*4", "atom_type": "Cs"}, "16": {"label": "*0", "atom_type": "O2s"}, "17": {"label": "*1", "atom_type": "Cs"}, "25": {"label": "*2", "atom_type": "H0"}}

>  <type>  (13) 
unop_9

>  <geom_source>  (13) 
Heuristics

$$$$

     RDKit          3D

 28 26  0  0  0  0  0  0  0  0999 V2000
    0.5825    1.6055    0.6692 C   0  0  0  0  0  0  0  0  0  0  0  0
    0.5496    1.6819   -0.8512 C   0  0  0  0  0  0  0  0  0  0  0  0
    1.0817    3.0030   -1.3945 C   0  0  0  0  0  0  0  0  0  0  0  0
    1.0488    3.0794   -2.9150 C   0  0  0  0  0  0  0  0  0  0  0  0
   -0.0216    2.3998    1.1142 H   0  0  0  0  0  0  0  0  0  0  0  0
    1.6024    1.7171    1.0447 H   0  0  0  0  0  0  0  0  0  0  0  0
   -0.4765    1.5366   -1.2042 H   0  0  0  0  0  0  0  0  0  0  0  0
    1.1356    0.8590   -1.2731 H   0  0  0  0  0  0  0  0  0  0  0  0
    0.4957    3.8259   -0.9726 H   0  0  0  0  0  0  0  0  0  0  0  0
    2.1078    3.1483   -1.0416 H   0  0  0  0  0  0  0  0  0  0  0  0
    0.0289    2.9678   -3.2905 H   0  0  0  0  0  0  0  0  0  0  0  0
    1.6529    2.2851   -3.3599 H   0  0  0  0  0  0  0  0  0  0  0  0
    1.4346    4.0340   -3.2763 H   0  0  0  0  0  0  0  0  0  0  0  0
   -0.1425   -3.2269   -0.6363 C   0  0  0  0  0  0  0  0  0  0  0  0
   -0.1425   -3.2269    0.8866 C   0  0  0  0  0  0  0  0  0  0  0  0
   -0.1425   -1.8344    1.4826 C   0  0  0  0  0  0  0  0  0  0  0  0
   -1.3276   -1.1709    1.1185 O   0  0  0  0  0  0  0  0  0  0  0  0
   -1.3883    0.1402    1.6037 C   0  0  0  0  0  3  0  0  0  0  0  0
    0.7399   -2.7133   -1.0260 H   0  0  0  0  0  0  0  0  0  0  0  0
   -1.0250   -2.7170   -1.0227 H   0  0  0  0  0  0  0  0  0  0  0  0
   -0.1376   -4.2449   -1.0286 H   0  0  0  0  0  0  0  0  0  0  0  0
   -1.0166   -3.7651    1.2622 H   0  0  0  0  0  0  0  0  0  0  0  0
    0.7392   -3.7531    1.2628 H   0  0  0  0  0  0  0  0  0  0  0  0
   -0.0657   -1.8881    2.5787 H   0  0  0  0  0  0  0  0  0  0  0  0
    0.7299   -1.2673    1.1204 H   0  0  0  0  0  0  0  0  0  0  0  0
   -0.3997    0.8753    1.1349 H   0  0  0  0  0  0  0  0  0  0  0  0
   -1.3463    0.1663    2.7011 H   0  0  0  0  0  0  0  0  0  0  0  0
   -2.3340    0.5703    1.2765 H   0  0  0  0  0  0  0  0  0  0  0  0
  1  2  1  0
  1  5  1  0
  1  6  1  0
  1 26  1  0
  2  3  1  0
  2  7  1  0
  2  8  1  0
  3  4  1  0
  3  9  1  0
  3 10  1  0
  4 11  1  0
  4 12  1  0
  4 13  1  0
 14 15  1  0
 14 19  1  0
 14 20  1  0
 14 21  1  0
 15 16  1  0
 15 22  1  0
 15 23  1  0
 16 17  1  0
 16 24  1  0
 16 25  1  0
 17 18  1  0
 18 27  1  0
 18 28  1  0
M  RAD  1  18   2
M  END
>  <reaction>  (14) 
rmg_rxn_658

>  <mol_properties>  (14) 
{"0": {"label": "*3", "atom_type": "Cs"}, "1": {"label": "*4", "atom_type": "Cs"}, "16": {"label": "*0", "atom_type": "O2s"}, "17": {"label": "*1", "atom_type": "Cs"}, "25": {"label": "*2", "atom_type": "H0"}}

>  <type>  (14) 
unop_10

>  <geom_source>  (14) 
Heuristics

$$$$

     RDKit          3D

 28 26  0  0  0  0  0  0  0  0999 V2000
    0.3826    1.1747   -0.4081 C   0  0  0  0  0  0  0  0  0  0  0  0
    0.7827    2.2659    0.5757 C   0  0  0  0  0  0  0  0  0  0  0  0
    1.3509    3.5055   -0.1056 C   0  0  0  0  0  0  0  0  0  0  0  0
    1.7509    4.5967    0.8782 C   0  0  0  0  0  0  0  0  0  0  0  0
    1.2407    0.8481   -1.0004 H   0  0  0  0  0  0  0  0  0  0  0  0
   -0.3800    1.5346   -1.1029 H   0  0  0  0  0  0  0  0  0  0  0  0
    1.5234    1.8725    1.2794 H   0  0  0  0  0  0  0  0  0  0  0  0
   -0.0853    2.5540    1.1776 H   0  0  0  0  0  0  0  0  0  0  0  0
    2.2188    3.2174   -0.7075 H   0  0  0  0  0  0  0  0  0  0  0  0
    0.6101    3.8989   -0.8092 H   0  0  0  0  0  0  0  0  0  0  0  0
    2.5135    4.2368    1.5730 H   0  0  0  0  0  0  0  0  0  0  0  0
    0.8929    4.9234    1.4705 H   0  0  0  0  0  0  0  0  0  0  0  0
    2.1538    5.4710    0.3644 H   0  0  0  0  0  0  0  0  0  0  0  0
   -0.3424   -3.6577   -1.7136 C   0  0  0  0  0  0  0  0  0  0  0  0
   -0.3424   -3.6577   -0.1907 C   0  0  0  0  0  0  0  0  0  0  0  0
   -0.3424   -2.2651    0.4053 C   0  0  0  0  0  0  0  0  0  0  0  0
   -1.5274   -1.6016    0.0412 O   0  0  0  0  0  0  0  0  0  0  0  0
   -1.5882   -0.2905    0.5264 C   0  0  0  0  0  3  0  0  0  0  0  0
    0.5400   -3.1440   -2.1033 H   0  0  0  0  0  0  0  0  0  0  0  0
   -1.2248   -3.1478   -2.1000 H   0  0  0  0  0  0  0  0  0  0  0  0
   -0.3374   -4.6757   -2.1059 H   0  0  0  0  0  0  0  0  0  0  0  0
   -1.2165   -4.1958    0.1849 H   0  0  0  0  0  0  0  0  0  0  0  0
    0.5394   -4.1838    0.1855 H   0  0  0  0  0  0  0  0  0  0  0  0
   -0.2655   -2.3188    1.5014 H   0  0  0  0  0  0  0  0  0  0  0  0
    0.5300   -1.6981    0.0431 H   0  0  0  0  0  0  0  0  0  0  0  0
   -0.5995    0.4445    0.0576 H   0  0  0  0  0  0  0  0  0  0  0  0
   -1.5462   -0.2644    1.6238 H   0  0  0  0  0  0  0  0  0  0  0  0
   -2.5339    0.1396    0.1992 H   0  0  0  0  0  0  0  0  0  0  0  0
  1  2  1  0
  1  5  1  0
  1  6  1  0
  1 26  1  0
  2  3  1  0
  2  7  1  0
  2  8  1  0
  3  4  1  0
  3  9  1  0
  3 10  1  0
  4 11  1  0
  4 12  1  0
  4 13  1  0
 14 15  1  0
 14 19  1  0
 14 20  1  0
 14 21  1  0
 15 16  1  0
 15 22  1  0
 15 23  1  0
 16 17  1  0
 16 24  1  0
 16 25  1  0
 17 18  1  0
 18 27  1  0
 18 28  1  0
M  RAD  1  18   2
M  END
>  <reaction>  (15) 
rmg_rxn_658

>  <mol_properties>  (15) 
{"0": {"label": "*3", "atom_type": "Cs"}, "1": {"label": "*4", "atom_type": "Cs"}, "16": {"label": "*0", "atom_type": "O2s"}, "17": {"label": "*1", "atom_type": "Cs"}, "25": {"label": "*2", "atom_type": "H0"}}

>  <type>  (15) 
unop_11

>  <geom_source>  (15) 
Heuristics

$$$$

     RDKit          3D

 28 26  0  0  0  0  0  0  0  0999 V2000
    0.0260    2.1095    0.4101 C   0  0  0  0  0  0  0  0  0  0  0  0
    0.9298    1.3057   -0.5149 C   0  0  0  0  0  0  0  0  0  0  0  0
    2.0867    2.1231   -1.0779 C   0  0  0  0  0  0  0  0  0  0  0  0
    2.9906    1.3193   -2.0030 C   0  0  0  0  0  0  0  0  0  0  0  0
   -0.4115    2.9624   -0.1142 H   0  0  0  0  0  0  0  0  0  0  0  0
    0.5863    2.4989    1.2635 H   0  0  0  0  0  0  0  0  0  0  0  0
    0.3402    0.9011   -1.3440 H   0  0  0  0  0  0  0  0  0  0  0  0
    1.3307    0.4409    0.0235 H   0  0  0  0  0  0  0  0  0  0  0  0
    1.6858    2.9879   -1.6164 H   0  0  0  0  0  0  0  0  0  0  0  0
    2.6763    2.5277   -0.2489 H   0  0  0  0  0  0  0  0  0  0  0  0
    2.4302    0.9299   -2.8563 H   0  0  0  0  0  0  0  0  0  0  0  0
    3.4280    0.4664   -1.4787 H   0  0  0  0  0  0  0  0  0  0  0  0
    3.8090    1.9278   -2.3911 H   0  0  0  0  0  0  0  0  0  0  0  0
   -0.6990   -2.7230   -0.8954 C   0  0  0  0  0  0  0  0  0  0  0  0
   -0.6990   -2.7230    0.6275 C   0  0  0  0  0  0  0  0  0  0  0  0
   -0.6990   -1.3304    1.2235 C   0  0  0  0  0  0  0  0  0  0  0  0
   -1.8841   -0.6669    0.8594 O   0  0  0  0  0  0  0  0  0  0  0  0
   -1.9449    0.6442    1.3446 C   0  0  0  0  0  3  0  0  0  0  0  0
    0.1834   -2.2093   -1.2851 H   0  0  0  0  0  0  0  0  0  0  0  0
   -1.5815   -2.2131   -1.2818 H   0  0  0  0  0  0  0  0  0  0  0  0
   -0.6941   -3.7409   -1.2877 H   0  0  0  0  0  0  0  0  0  0  0  0
   -1.5731   -3.2611    1.0031 H   0  0  0  0  0  0  0  0  0  0  0  0
    0.1827   -3.2491    1.0037 H   0  0  0  0  0  0  0  0  0  0  0  0
   -0.6222   -1.3841    2.3196 H   0  0  0  0  0  0  0  0  0  0  0  0
    0.1734   -0.7633    0.8613 H   0  0  0  0  0  0  0  0  0  0  0  0
   -0.9562    1.3793    0.8758 H   0  0  0  0  0  0  0  0  0  0  0  0
   -1.9029    0.6703    2.4420 H   0  0  0  0  0  0  0  0  0  0  0  0
   -2.8905    1.0743    1.0174 H   0  0  0  0  0  0  0  0  0  0  0  0
  1  2  1  0
  1  5  1  0
  1  6  1  0
  1 26  1  0
  2  3  1  0
  2  7  1  0
  2  8  1  0
  3  4  1  0
  3  9  1  0
  3 10  1  0
  4 11  1  0
  4 12  1  0
  4 13  1  0
 14 15  1  0
 14 19  1  0
 14 20  1  0
 14 21  1  0
 15 16  1  0
 15 22  1  0
 15 23  1  0
 16 17  1  0
 16 24  1  0
 16 25  1  0
 17 18  1  0
 18 27  1  0
 18 28  1  0
M  RAD  1  18   2
M  END
>  <reaction>  (16) 
rmg_rxn_658

>  <mol_properties>  (16) 
{"0": {"label": "*3", "atom_type": "Cs"}, "1": {"label": "*4", "atom_type": "Cs"}, "16": {"label": "*0", "atom_type": "O2s"}, "17": {"label": "*1", "atom_type": "Cs"}, "25": {"label": "*2", "atom_type": "H0"}}

>  <type>  (16) 
unop_12

>  <geom_source>  (16) 
Heuristics

$$$$

     RDKit          3D

 28 26  0  0  0  0  0  0  0  0999 V2000
    1.8238   -0.2898    1.1699 O   0  0  0  0  0  0  0  0  0  0  0  0
   -3.9894   -0.2704    0.1357 C   0  0  0  0  0  0  0  0  0  0  0  0
   -2.5051   -0.3253   -0.2418 C   0  0  0  0  0  0  0  0  0  0  0  0
    3.8655   -0.2386   -0.1241 C   0  0  0  0  0  0  0  0  0  0  0  0
    2.8919    0.5442    0.7625 C   0  0  0  0  0  0  0  0  0  0  0  0
   -4.8315    0.2648   -1.0186 C   0  0  0  0  0  0  0  0  0  0  0  0
   -1.6624   -0.8600    0.9112 C   0  0  0  0  0  0  0  0  0  0  0  0
    5.0743    0.6111   -0.5055 C   0  0  0  0  0  0  0  0  0  0  0  0
    0.7132   -0.1100    0.3200 C   0  0  0  0  0  3  0  0  0  0  0  0
   -4.1276    0.3912    1.0187 H   0  0  0  0  0  0  0  0  0  0  0  0
   -4.3472   -1.2896    0.3996 H   0  0  0  0  0  0  0  0  0  0  0  0
   -2.3655   -0.9872   -1.1239 H   0  0  0  0  0  0  0  0  0  0  0  0
   -2.1459    0.6932   -0.5050 H   0  0  0  0  0  0  0  0  0  0  0  0
    4.2146   -1.1432    0.4197 H   0  0  0  0  0  0  0  0  0  0  0  0
    3.3493   -0.5660   -1.0517 H   0  0  0  0  0  0  0  0  0  0  0  0
    3.4313    0.8701    1.6776 H   0  0  0  0  0  0  0  0  0  0  0  0
    2.5583    1.4767    0.2458 H   0  0  0  0  0  0  0  0  0  0  0  0
   -5.8999    0.2934   -0.7173 H   0  0  0  0  0  0  0  0  0  0  0  0
   -4.7307   -0.3938   -1.9076 H   0  0  0  0  0  0  0  0  0  0  0  0
   -4.5102    1.2941   -1.2859 H   0  0  0  0  0  0  0  0  0  0  0  0
   -1.9822   -1.8898    1.1785 H   0  0  0  0  0  0  0  0  0  0  0  0
   -1.7616   -0.2015    1.8003 H   0  0  0  0  0  0  0  0  0  0  0  0
   -0.4181   -0.8911    0.5541 H   0  0  0  0  0  0  0  0  0  0  0  0
    4.7503    1.5109   -1.0708 H   0  0  0  0  0  0  0  0  0  0  0  0
    5.7591    0.0167   -1.1463 H   0  0  0  0  0  0  0  0  0  0  0  0
    5.6262    0.9284    0.4049 H   0  0  0  0  0  0  0  0  0  0  0  0
    0.2659    0.9010    0.4410 H   0  0  0  0  0  0  0  0  0  0  0  0
    0.9536   -0.3395   -0.7413 H   0  0  0  0  0  0  0  0  0  0  0  0
  1  9  1  0
  1  5  1  0
  2  6  1  0
  2  3  1  0
  2 10  1  0
  2 11  1  0
  3  7  1  0
  3 12  1  0
  3 13  1  0
  4  8  1  0
  4  5  1  0
  4 14  1  0
  4 15  1  0
  5 16  1  0
  5 17  1  0
  6 18  1  0
  6 19  1  0
  6 20  1  0
  7 21  1  0
  7 22  1  0
  7 23  1  0
  8 24  1  0
  8 25  1  0
  8 26  1  0
  9 27  1  0
  9 28  1  0
M  RAD  1   9   2
M  END
>  <reaction>  (17) 
rmg_rxn_658

>  <mol_properties>  (17) 
{"0": {"label": "*3", "atom_type": "Cs"}, "1": {"label": "*4", "atom_type": "Cs"}, "16": {"label": "*0", "atom_type": "O2s"}, "17": {"label": "*1", "atom_type": "Cs"}, "25": {"label": "*2", "atom_type": "H0"}}

>  <type>  (17) 
unop_13

>  <geom_source>  (17) 
AutoTST

$$$$

     RDKit          3D

 28 26  0  0  0  0  0  0  0  0999 V2000
    0.3112    1.9087    0.6561 C   0  0  0  0  0  0  0  0  0  0  0  0
    0.7493    1.4406   -0.7251 C   0  0  0  0  0  0  0  0  0  0  0  0
    1.5579    2.4878   -1.4821 C   0  0  0  0  0  0  0  0  0  0  0  0
    1.9959    2.0197   -2.8633 C   0  0  0  0  0  0  0  0  0  0  0  0
   -0.3116    2.8037    0.5867 H   0  0  0  0  0  0  0  0  0  0  0  0
    1.1751    2.1554    1.2779 H   0  0  0  0  0  0  0  0  0  0  0  0
   -0.1308    1.1704   -1.3176 H   0  0  0  0  0  0  0  0  0  0  0  0
    1.3449    0.5268   -0.6314 H   0  0  0  0  0  0  0  0  0  0  0  0
    0.9622    3.4016   -1.5758 H   0  0  0  0  0  0  0  0  0  0  0  0
    2.4380    2.7580   -0.8896 H   0  0  0  0  0  0  0  0  0  0  0  0
    1.1321    1.7730   -3.4851 H   0  0  0  0  0  0  0  0  0  0  0  0
    2.6187    1.1247   -2.7939 H   0  0  0  0  0  0  0  0  0  0  0  0
    2.5720    2.7875   -3.3822 H   0  0  0  0  0  0  0  0  0  0  0  0
   -0.4138   -2.9237   -0.6495 C   0  0  0  0  0  0  0  0  0  0  0  0
   -0.4138   -2.9237    0.8734 C   0  0  0  0  0  0  0  0  0  0  0  0
   -0.4138   -1.5311    1.4695 C   0  0  0  0  0  0  0  0  0  0  0  0
   -1.5988   -0.8677    1.1054 O   0  0  0  0  0  0  0  0  0  0  0  0
   -1.6596    0.4434    1.5905 C   0  0  0  0  0  3  0  0  0  0  0  0
    0.4686   -2.4101   -1.0392 H   0  0  0  0  0  0  0  0  0  0  0  0
   -1.2962   -2.4138   -1.0359 H   0  0  0  0  0  0  0  0  0  0  0  0
   -0.4088   -3.9417   -1.0418 H   0  0  0  0  0  0  0  0  0  0  0  0
   -1.2879   -3.4619    1.2491 H   0  0  0  0  0  0  0  0  0  0  0  0
    0.4680   -3.4498    1.2497 H   0  0  0  0  0  0  0  0  0  0  0  0
   -0.3369   -1.5848    2.5655 H   0  0  0  0  0  0  0  0  0  0  0  0
    0.4586   -0.9641    1.1073 H   0  0  0  0  0  0  0  0  0  0  0  0
   -0.6709    1.1785    1.1218 H   0  0  0  0  0  0  0  0  0  0  0  0
   -1.6176    0.4695    2.6880 H   0  0  0  0  0  0  0  0  0  0  0  0
   -2.6053    0.8736    1.2634 H   0  0  0  0  0  0  0  0  0  0  0  0
  1  2  1  0
  1  5  1  0
  1  6  1  0
  1 26  1  0
  2  3  1  0
  2  7  1  0
  2  8  1  0
  3  4  1  0
  3  9  1  0
  3 10  1  0
  4 11  1  0
  4 12  1  0
  4 13  1  0
 14 15  1  0
 14 19  1  0
 14 20  1  0
 14 21  1  0
 15 16  1  0
 15 22  1  0
 15 23  1  0
 16 17  1  0
 16 24  1  0
 16 25  1  0
 17 18  1  0
 18 27  1  0
 18 28  1  0
M  RAD  1  18   2
M  END
>  <reaction>  (18) 
rmg_rxn_658

>  <mol_properties>  (18) 
{"0": {"label": "*3", "atom_type": "Cs"}, "1": {"label": "*4", "atom_type": "Cs"}, "16": {"label": "*0", "atom_type": "O2s"}, "17": {"label": "*1", "atom_type": "Cs"}, "25": {"label": "*2", "atom_type": "H0"}}

>  <type>  (18) 
unop_14

>  <geom_source>  (18) 
gaussian_log

$$$$
