
     RDKit          3D

  9  8  0  0  0  0  0  0  0  0999 V2000
   -1.0314    0.2323   -0.1227 C   0  0  0  0  0  0  0  0  0  0  0  0
    0.3094   -0.4511    0.0063 C   0  0  0  0  0  0  0  0  0  0  0  0
    0.3197   -1.7698    0.6841 N   0  0  0  0  0  0  0  0  0  0  0  0
   -0.7498   -2.1455    1.0557 O   0  0  0  0  0  0  0  0  0  0  0  0
   -1.4744    0.4198    0.8552 H   0  0  0  0  0  0  0  0  0  0  0  0
   -0.9073    1.1865   -0.6350 H   0  0  0  0  0  0  0  0  0  0  0  0
   -1.7319   -0.3778   -0.6927 H   0  0  0  0  0  0  0  0  0  0  0  0
    1.0375    0.1401    0.5713 H   0  0  0  0  0  0  0  0  0  0  0  0
    0.7826   -0.6494   -0.9609 H   0  0  0  0  0  0  0  0  0  0  0  0
  1  2  1  0
  1  5  1  0
  1  6  1  0
  1  7  1  0
  2  3  1  0
  2  8  1  0
  2  9  1  0
  3  4  2  0
M  END
>  <reaction>  (1) 
rmg_rxn_15419

>  <mol_properties>  (1) 
{"0": {"label": "donator", "atom_type": "Cs"}, "4": {"label": "d_hydrogen", "atom_type": "H0"}}

>  <type>  (1) 
r1h

$$$$

     RDKit          3D

  5  4  0  0  0  0  0  0  0  0999 V2000
    0.8934    0.3742    0.4948 O   0  0  0  0  0  0  0  0  0  0  0  0
    0.1582   -0.1610   -0.5904 N   0  0  0  0  0  0  0  0  0  0  0  0
   -1.0297   -0.3739   -0.4689 C   0  0  0  0  0  3  0  0  0  0  0  0
    1.7805    0.4382    0.1306 H   0  0  0  0  0  0  0  0  0  0  0  0
   -1.8023   -0.2775    0.2859 H   0  0  0  0  0  0  0  0  0  0  0  0
  1  2  1  0
  1  4  1  0
  2  3  2  3
  3  5  1  0
M  RAD  1   3   2
M  END
>  <reaction>  (2) 
rmg_rxn_15419

>  <mol_properties>  (2) 
{"2": {"label": "acceptor", "atom_type": "Cd"}}

>  <type>  (2) 
r2

$$$$

     RDKit          3D

  6  5  0  0  0  0  0  0  0  0999 V2000
    1.2314    0.0428    0.5088 O   0  0  0  0  0  0  0  0  0  0  0  0
    0.2987    0.2341   -0.4915 N   0  0  0  0  0  0  0  0  0  0  0  0
   -0.8599   -0.1122   -0.1290 C   0  0  0  0  0  0  0  0  0  0  0  0
    2.0507    0.3401    0.1082 H   0  0  0  0  0  0  0  0  0  0  0  0
   -1.0700   -0.5112    0.8610 H   0  0  0  0  0  0  0  0  0  0  0  0
   -1.6509    0.0064   -0.8574 H   0  0  0  0  0  0  0  0  0  0  0  0
  1  2  1  0
  1  4  1  0
  2  3  2  3
  3  5  1  0
  3  6  1  0
M  END
>  <reaction>  (3) 
rmg_rxn_15419

>  <mol_properties>  (3) 
{"2": {"label": "acceptor", "atom_type": "Cd"}, "5": {"label": "a_hydrogen", "atom_type": "H0"}}

>  <type>  (3) 
r2h

$$$$

     RDKit          3D

 14 12  0  0  0  0  0  0  0  0999 V2000
   -2.7305    0.2340   -1.1924 O   0  0  0  0  0  0  0  0  0  0  0  0
   -1.6048    0.4528   -0.3952 N   0  0  0  0  0  0  0  0  0  0  0  0
   -0.6784    1.0509   -0.9715 C   0  0  0  0  0  3  0  0  0  0  0  0
   -3.3225   -0.2400   -0.6038 H   0  0  0  0  0  0  0  0  0  0  0  0
   -0.6437    1.4050   -2.0009 H   0  0  0  0  0  0  0  0  0  0  0  0
    1.3308    1.2157    0.7638 C   0  0  0  0  0  0  0  0  0  0  0  0
    1.1556   -0.0659    1.5146 C   0  0  0  0  0  0  0  0  0  0  0  0
    1.5358   -1.3113    0.8031 N   0  0  0  0  0  0  0  0  0  0  0  0
    1.9439   -1.1476   -0.3054 O   0  0  0  0  0  0  0  0  0  0  0  0
    0.4251    1.2169   -0.1534 H   0  0  0  0  0  0  0  0  0  0  0  0
    1.1035    2.0953    1.3612 H   0  0  0  0  0  0  0  0  0  0  0  0
    2.2701    1.3059    0.2239 H   0  0  0  0  0  0  0  0  0  0  0  0
    0.1142   -0.2353    1.8094 H   0  0  0  0  0  0  0  0  0  0  0  0
    1.7377   -0.1052    2.4435 H   0  0  0  0  0  0  0  0  0  0  0  0
  1  2  1  0
  1  4  1  0
  2  3  2  3
  3  5  1  0
  6  7  1  0
  6 10  1  0
  6 11  1  0
  6 12  1  0
  7  8  1  0
  7 13  1  0
  7 14  1  0
  8  9  2  0
M  RAD  1   3   2
M  END
>  <reaction>  (4) 
rmg_rxn_15419

>  <mol_properties>  (4) 
{"1": {"label": "*4", "atom_type": "N3d"}, "2": {"label": "*3", "atom_type": "Cd"}, "5": {"label": "*1", "atom_type": "Cs"}, "6": {"label": "*0", "atom_type": "Cs"}, "9": {"label": "*2", "atom_type": "H0"}}

>  <type>  (4) 
ts

$$$$

     RDKit          3D

 14 12  0  0  0  0  0  0  0  0999 V2000
   -3.6980    0.4641   -0.1011 O   0  0  0  0  0  0  0  0  0  0  0  0
   -2.3210    0.2715   -0.0083 N   0  0  0  0  0  0  0  0  0  0  0  0
   -1.8386   -0.8671   -0.0787 C   0  0  0  0  0  0  0  0  0  0  0  0
   -3.8202    1.4214   -0.0213 H   0  0  0  0  0  0  0  0  0  0  0  0
   -2.3229   -1.8255   -0.2121 H   0  0  0  0  0  0  0  0  0  0  0  0
    0.7698   -0.8965    0.1201 C   0  0  0  0  0  3  0  0  0  0  0  0
    1.2722    0.4827    0.3242 C   0  0  0  0  0  0  0  0  0  0  0  0
    2.7093    0.1792    0.4314 N   0  0  0  0  0  0  0  0  0  0  0  0
    3.3758    0.2366   -0.5866 O   0  0  0  0  0  0  0  0  0  0  0  0
   -0.5655   -0.8714    0.0229 H   0  0  0  0  0  0  0  0  0  0  0  0
    1.0670   -1.3422   -0.8235 H   0  0  0  0  0  0  0  0  0  0  0  0
    0.9337   -1.5599    0.9618 H   0  0  0  0  0  0  0  0  0  0  0  0
    0.9540    0.9136    1.2718 H   0  0  0  0  0  0  0  0  0  0  0  0
    1.0501    1.1427   -0.5187 H   0  0  0  0  0  0  0  0  0  0  0  0
  1  2  1  0
  1  4  1  0
  2  3  2  3
  3  5  1  0
  3 10  1  0
  6  7  1  0
  6 11  1  0
  6 12  1  0
  7  8  1  0
  7 13  1  0
  7 14  1  0
  8  9  2  0
M  RAD  1   6   2
M  END
>  <reaction>  (5) 
rmg_rxn_15419

>  <mol_properties>  (5) 
{"1": {"label": "*4", "atom_type": "N3d"}, "2": {"label": "*3", "atom_type": "Cd"}, "5": {"label": "*1", "atom_type": "Cs"}, "6": {"label": "*0", "atom_type": "Cs"}, "9": {"label": "*2", "atom_type": "H0"}}

>  <type>  (5) 
unop_1

>  <geom_source>  (5) 
crest_best.xyz

$$$$

     RDKit          3D

 14 12  0  0  0  0  0  0  0  0999 V2000
   -2.0919    1.9200   -1.9031 O   0  0  0  0  0  0  0  0  0  0  0  0
   -1.6679    1.4981   -0.6584 N   0  0  0  0  0  0  0  0  0  0  0  0
   -0.9003    0.4989   -0.7349 C   0  0  0  0  0  0  0  0  0  0  0  0
   -2.6563    2.6693   -1.7032 H   0  0  0  0  0  0  0  0  0  0  0  0
   -0.6223    0.0439   -1.6832 H   0  0  0  0  0  0  0  0  0  0  0  0
    1.2043    0.5243    0.8017 C   0  0  0  0  0  3  0  0  0  0  0  0
    1.2043   -0.6527    1.7485 C   0  0  0  0  0  0  0  0  0  0  0  0
    1.2043   -2.0008    1.1312 N   0  0  0  0  0  0  0  0  0  0  0  0
    1.2043   -2.0008   -0.0618 O   0  0  0  0  0  0  0  0  0  0  0  0
    0.1482    0.5115    0.0306 H   0  0  0  0  0  0  0  0  0  0  0  0
    1.2043    1.4527    1.3732 H   0  0  0  0  0  0  0  0  0  0  0  0
    2.0844    0.5137    0.1591 H   0  0  0  0  0  0  0  0  0  0  0  0
    0.3331   -0.6676    2.4115 H   0  0  0  0  0  0  0  0  0  0  0  0
    2.0755   -0.6676    2.4115 H   0  0  0  0  0  0  0  0  0  0  0  0
  1  2  1  0
  1  4  1  0
  2  3  2  3
  3  5  1  0
  3 10  1  0
  6  7  1  0
  6 11  1  0
  6 12  1  0
  7  8  1  0
  7 13  1  0
  7 14  1  0
  8  9  2  0
M  RAD  1   6   2
M  END
>  <reaction>  (6) 
rmg_rxn_15419

>  <mol_properties>  (6) 
{"1": {"label": "*4", "atom_type": "N3d"}, "2": {"label": "*3", "atom_type": "Cd"}, "5": {"label": "*1", "atom_type": "Cs"}, "6": {"label": "*0", "atom_type": "Cs"}, "9": {"label": "*2", "atom_type": "H0"}}

>  <type>  (6) 
unop_2

>  <geom_source>  (6) 
Heuristics

$$$$

     RDKit          3D

 14 12  0  0  0  0  0  0  0  0999 V2000
   -3.7028   -0.4600    0.1004 O   0  0  0  0  0  0  0  0  0  0  0  0
   -2.3248   -0.2731    0.0110 N   0  0  0  0  0  0  0  0  0  0  0  0
   -1.8390    0.8645    0.0754 C   0  0  0  0  0  0  0  0  0  0  0  0
   -3.8284   -1.4172    0.0264 H   0  0  0  0  0  0  0  0  0  0  0  0
   -2.3213    1.8253    0.1995 H   0  0  0  0  0  0  0  0  0  0  0  0
    0.7698    0.8928   -0.1174 C   0  0  0  0  0  3  0  0  0  0  0  0
    1.2758   -0.4847   -0.3244 C   0  0  0  0  0  0  0  0  0  0  0  0
    2.7118   -0.1765   -0.4316 N   0  0  0  0  0  0  0  0  0  0  0  0
    3.3791   -0.2344    0.5858 O   0  0  0  0  0  0  0  0  0  0  0  0
   -0.5657    0.8655   -0.0222 H   0  0  0  0  0  0  0  0  0  0  0  0
    1.0651    1.3366    0.8278 H   0  0  0  0  0  0  0  0  0  0  0  0
    0.9333    1.5586   -0.9571 H   0  0  0  0  0  0  0  0  0  0  0  0
    0.9587   -0.9146   -1.2729 H   0  0  0  0  0  0  0  0  0  0  0  0
    1.0561   -1.1471    0.5170 H   0  0  0  0  0  0  0  0  0  0  0  0
  1  2  1  0
  1  4  1  0
  2  3  2  3
  3  5  1  0
  3 10  1  0
  6  7  1  0
  6 11  1  0
  6 12  1  0
  7  8  1  0
  7 13  1  0
  7 14  1  0
  8  9  2  0
M  RAD  1   6   2
M  END
>  <reaction>  (7) 
rmg_rxn_15419

>  <mol_properties>  (7) 
{"1": {"label": "*4", "atom_type": "N3d"}, "2": {"label": "*3", "atom_type": "Cd"}, "5": {"label": "*1", "atom_type": "Cs"}, "6": {"label": "*0", "atom_type": "Cs"}, "9": {"label": "*2", "atom_type": "H0"}}

>  <type>  (7) 
unop_3

>  <geom_source>  (7) 
Heuristics

$$$$

     RDKit          3D

 14 12  0  0  0  0  0  0  0  0999 V2000
   -2.8723    0.8202   -1.1658 O   0  0  0  0  0  0  0  0  0  0  0  0
   -1.7406    0.4446   -0.4692 N   0  0  0  0  0  0  0  0  0  0  0  0
   -0.6958    0.9645   -0.9505 C   0  0  0  0  0  0  0  0  0  0  0  0
   -3.5787    0.3639   -0.7045 H   0  0  0  0  0  0  0  0  0  0  0  0
   -0.7141    1.6269   -1.8133 H   0  0  0  0  0  0  0  0  0  0  0  0
    1.4088    0.9898    0.5861 C   0  0  0  0  0  3  0  0  0  0  0  0
    1.4088   -0.1871    1.5328 C   0  0  0  0  0  0  0  0  0  0  0  0
    1.4088   -1.5353    0.9156 N   0  0  0  0  0  0  0  0  0  0  0  0
    1.4088   -1.5353   -0.2774 O   0  0  0  0  0  0  0  0  0  0  0  0
    0.3526    0.9771   -0.1850 H   0  0  0  0  0  0  0  0  0  0  0  0
    1.4088    1.9183    1.1575 H   0  0  0  0  0  0  0  0  0  0  0  0
    2.2889    0.9792   -0.0565 H   0  0  0  0  0  0  0  0  0  0  0  0
    0.5376   -0.2020    2.1959 H   0  0  0  0  0  0  0  0  0  0  0  0
    2.2800   -0.2020    2.1959 H   0  0  0  0  0  0  0  0  0  0  0  0
  1  2  1  0
  1  4  1  0
  2  3  2  3
  3  5  1  0
  3 10  1  0
  6  7  1  0
  6 11  1  0
  6 12  1  0
  7  8  1  0
  7 13  1  0
  7 14  1  0
  8  9  2  0
M  RAD  1   6   2
M  END
>  <reaction>  (8) 
rmg_rxn_15419

>  <mol_properties>  (8) 
{"1": {"label": "*4", "atom_type": "N3d"}, "2": {"label": "*3", "atom_type": "Cd"}, "5": {"label": "*1", "atom_type": "Cs"}, "6": {"label": "*0", "atom_type": "Cs"}, "9": {"label": "*2", "atom_type": "H0"}}

>  <type>  (8) 
unop_4

>  <geom_source>  (8) 
Heuristics

$$$$

     RDKit          3D

 14 12  0  0  0  0  0  0  0  0999 V2000
   -3.6985   -0.4619   -0.1008 O   0  0  0  0  0  0  0  0  0  0  0  0
   -2.3215   -0.2702   -0.0063 N   0  0  0  0  0  0  0  0  0  0  0  0
   -1.8381    0.8680   -0.0796 C   0  0  0  0  0  0  0  0  0  0  0  0
   -3.8218   -1.4187   -0.0173 H   0  0  0  0  0  0  0  0  0  0  0  0
   -2.3219    1.8265   -0.2151 H   0  0  0  0  0  0  0  0  0  0  0  0
    0.7694    0.8941    0.1298 C   0  0  0  0  0  3  0  0  0  0  0  0
    1.2695   -0.4901    0.3031 C   0  0  0  0  0  0  0  0  0  0  0  0
    2.7054   -0.1898    0.4328 N   0  0  0  0  0  0  0  0  0  0  0  0
    3.3824   -0.2228   -0.5792 O   0  0  0  0  0  0  0  0  0  0  0  0
   -0.5653    0.8711    0.0233 H   0  0  0  0  0  0  0  0  0  0  0  0
    0.9277    1.5361    0.9888 H   0  0  0  0  0  0  0  0  0  0  0  0
    1.0734    1.3629   -0.8004 H   0  0  0  0  0  0  0  0  0  0  0  0
    1.0560   -1.1281   -0.5586 H   0  0  0  0  0  0  0  0  0  0  0  0
    0.9416   -0.9453    1.2360 H   0  0  0  0  0  0  0  0  0  0  0  0
  1  2  1  0
  1  4  1  0
  2  3  2  3
  3  5  1  0
  3 10  1  0
  6  7  1  0
  6 11  1  0
  6 12  1  0
  7  8  1  0
  7 13  1  0
  7 14  1  0
  8  9  2  0
M  RAD  1   6   2
M  END
>  <reaction>  (9) 
rmg_rxn_15419

>  <mol_properties>  (9) 
{"1": {"label": "*4", "atom_type": "N3d"}, "2": {"label": "*3", "atom_type": "Cd"}, "5": {"label": "*1", "atom_type": "Cs"}, "6": {"label": "*0", "atom_type": "Cs"}, "9": {"label": "*2", "atom_type": "H0"}}

>  <type>  (9) 
unop_5

>  <geom_source>  (9) 
Heuristics

$$$$

     RDKit          3D

 14 12  0  0  0  0  0  0  0  0999 V2000
   -1.9649    1.6008   -2.2413 O   0  0  0  0  0  0  0  0  0  0  0  0
   -1.4109    1.6672   -0.9781 N   0  0  0  0  0  0  0  0  0  0  0  0
   -0.9793    0.5454   -0.5925 C   0  0  0  0  0  0  0  0  0  0  0  0
   -2.2471    2.5024   -2.4077 H   0  0  0  0  0  0  0  0  0  0  0  0
   -1.0486   -0.3516   -1.2041 H   0  0  0  0  0  0  0  0  0  0  0  0
    1.1253    0.5708    0.9441 C   0  0  0  0  0  3  0  0  0  0  0  0
    1.1253   -0.6062    1.8908 C   0  0  0  0  0  0  0  0  0  0  0  0
    1.1253   -1.9543    1.2736 N   0  0  0  0  0  0  0  0  0  0  0  0
    1.1253   -1.9543    0.0806 O   0  0  0  0  0  0  0  0  0  0  0  0
    0.0692    0.5581    0.1730 H   0  0  0  0  0  0  0  0  0  0  0  0
    1.1253    1.4992    1.5155 H   0  0  0  0  0  0  0  0  0  0  0  0
    2.0054    0.5602    0.3015 H   0  0  0  0  0  0  0  0  0  0  0  0
    0.2541   -0.6211    2.5539 H   0  0  0  0  0  0  0  0  0  0  0  0
    1.9965   -0.6210    2.5539 H   0  0  0  0  0  0  0  0  0  0  0  0
  1  2  1  0
  1  4  1  0
  2  3  2  3
  3  5  1  0
  3 10  1  0
  6  7  1  0
  6 11  1  0
  6 12  1  0
  7  8  1  0
  7 13  1  0
  7 14  1  0
  8  9  2  0
M  RAD  1   6   2
M  END
>  <reaction>  (10) 
rmg_rxn_15419

>  <mol_properties>  (10) 
{"1": {"label": "*4", "atom_type": "N3d"}, "2": {"label": "*3", "atom_type": "Cd"}, "5": {"label": "*1", "atom_type": "Cs"}, "6": {"label": "*0", "atom_type": "Cs"}, "9": {"label": "*2", "atom_type": "H0"}}

>  <type>  (10) 
unop_6

>  <geom_source>  (10) 
Heuristics

$$$$

     RDKit          3D

 14 12  0  0  0  0  0  0  0  0999 V2000
   -1.8224    0.4310   -2.4303 O   0  0  0  0  0  0  0  0  0  0  0  0
   -1.1988    0.1115   -1.2402 N   0  0  0  0  0  0  0  0  0  0  0  0
   -1.0537    1.1218   -0.4974 C   0  0  0  0  0  0  0  0  0  0  0  0
   -1.8684   -0.4098   -2.8895 H   0  0  0  0  0  0  0  0  0  0  0  0
   -1.3899    2.1154   -0.7860 H   0  0  0  0  0  0  0  0  0  0  0  0
    1.0509    1.1472    1.0392 C   0  0  0  0  0  3  0  0  0  0  0  0
    1.0509   -0.0298    1.9860 C   0  0  0  0  0  0  0  0  0  0  0  0
    1.0509   -1.3779    1.3687 N   0  0  0  0  0  0  0  0  0  0  0  0
    1.0509   -1.3779    0.1757 O   0  0  0  0  0  0  0  0  0  0  0  0
   -0.0053    1.1344    0.2681 H   0  0  0  0  0  0  0  0  0  0  0  0
    1.0509    2.0756    1.6107 H   0  0  0  0  0  0  0  0  0  0  0  0
    1.9310    1.1366    0.3966 H   0  0  0  0  0  0  0  0  0  0  0  0
    0.1797   -0.0447    2.6490 H   0  0  0  0  0  0  0  0  0  0  0  0
    1.9221   -0.0447    2.6490 H   0  0  0  0  0  0  0  0  0  0  0  0
  1  2  1  0
  1  4  1  0
  2  3  2  3
  3  5  1  0
  3 10  1  0
  6  7  1  0
  6 11  1  0
  6 12  1  0
  7  8  1  0
  7 13  1  0
  7 14  1  0
  8  9  2  0
M  RAD  1   6   2
M  END
>  <reaction>  (11) 
rmg_rxn_15419

>  <mol_properties>  (11) 
{"1": {"label": "*4", "atom_type": "N3d"}, "2": {"label": "*3", "atom_type": "Cd"}, "5": {"label": "*1", "atom_type": "Cs"}, "6": {"label": "*0", "atom_type": "Cs"}, "9": {"label": "*2", "atom_type": "H0"}}

>  <type>  (11) 
unop_7

>  <geom_source>  (11) 
Heuristics

$$$$

     RDKit          3D

 14 12  0  0  0  0  0  0  0  0999 V2000
   -3.6979    0.4651    0.0979 O   0  0  0  0  0  0  0  0  0  0  0  0
   -2.3203    0.2724    0.0128 N   0  0  0  0  0  0  0  0  0  0  0  0
   -1.8394   -0.8673    0.0760 C   0  0  0  0  0  0  0  0  0  0  0  0
   -3.8189    1.4231    0.0262 H   0  0  0  0  0  0  0  0  0  0  0  0
   -2.3257   -1.8266    0.1965 H   0  0  0  0  0  0  0  0  0  0  0  0
    0.7698   -0.8977   -0.1123 C   0  0  0  0  0  3  0  0  0  0  0  0
    1.2718    0.4802   -0.3261 C   0  0  0  0  0  0  0  0  0  0  0  0
    2.7087    0.1757   -0.4326 N   0  0  0  0  0  0  0  0  0  0  0  0
    3.3765    0.2413    0.5841 O   0  0  0  0  0  0  0  0  0  0  0  0
   -0.5659   -0.8721   -0.0186 H   0  0  0  0  0  0  0  0  0  0  0  0
    0.9353   -1.5672   -0.9487 H   0  0  0  0  0  0  0  0  0  0  0  0
    1.0656   -1.3361    0.8351 H   0  0  0  0  0  0  0  0  0  0  0  0
    1.0505    1.1459    0.5124 H   0  0  0  0  0  0  0  0  0  0  0  0
    0.9529    0.9047   -1.2764 H   0  0  0  0  0  0  0  0  0  0  0  0
  1  2  1  0
  1  4  1  0
  2  3  2  3
  3  5  1  0
  3 10  1  0
  6  7  1  0
  6 11  1  0
  6 12  1  0
  7  8  1  0
  7 13  1  0
  7 14  1  0
  8  9  2  0
M  RAD  1   6   2
M  END
>  <reaction>  (12) 
rmg_rxn_15419

>  <mol_properties>  (12) 
{"1": {"label": "*4", "atom_type": "N3d"}, "2": {"label": "*3", "atom_type": "Cd"}, "5": {"label": "*1", "atom_type": "Cs"}, "6": {"label": "*0", "atom_type": "Cs"}, "9": {"label": "*2", "atom_type": "H0"}}

>  <type>  (12) 
unop_8

>  <geom_source>  (12) 
Heuristics

$$$$

     RDKit          3D

 14 12  0  0  0  0  0  0  0  0999 V2000
   -2.2262    1.4416   -2.1389 O   0  0  0  0  0  0  0  0  0  0  0  0
   -1.0796    1.5488   -1.3768 N   0  0  0  0  0  0  0  0  0  0  0  0
   -0.9772    0.6064   -0.5431 C   0  0  0  0  0  0  0  0  0  0  0  0
   -2.1797    2.2047   -2.7183 H   0  0  0  0  0  0  0  0  0  0  0  0
   -1.7199   -0.1838   -0.4569 H   0  0  0  0  0  0  0  0  0  0  0  0
    1.1274    0.6318    0.9935 C   0  0  0  0  0  3  0  0  0  0  0  0
    1.1274   -0.5451    1.9402 C   0  0  0  0  0  0  0  0  0  0  0  0
    1.1274   -1.8933    1.3229 N   0  0  0  0  0  0  0  0  0  0  0  0
    1.1274   -1.8933    0.1300 O   0  0  0  0  0  0  0  0  0  0  0  0
    0.0712    0.6191    0.2224 H   0  0  0  0  0  0  0  0  0  0  0  0
    1.1274    1.5602    1.5649 H   0  0  0  0  0  0  0  0  0  0  0  0
    2.0075    0.6212    0.3509 H   0  0  0  0  0  0  0  0  0  0  0  0
    0.2562   -0.5600    2.6032 H   0  0  0  0  0  0  0  0  0  0  0  0
    1.9986   -0.5600    2.6032 H   0  0  0  0  0  0  0  0  0  0  0  0
  1  2  1  0
  1  4  1  0
  2  3  2  3
  3  5  1  0
  3 10  1  0
  6  7  1  0
  6 11  1  0
  6 12  1  0
  7  8  1  0
  7 13  1  0
  7 14  1  0
  8  9  2  0
M  RAD  1   6   2
M  END
>  <reaction>  (13) 
rmg_rxn_15419

>  <mol_properties>  (13) 
{"1": {"label": "*4", "atom_type": "N3d"}, "2": {"label": "*3", "atom_type": "Cd"}, "5": {"label": "*1", "atom_type": "Cs"}, "6": {"label": "*0", "atom_type": "Cs"}, "9": {"label": "*2", "atom_type": "H0"}}

>  <type>  (13) 
unop_9

>  <geom_source>  (13) 
Heuristics

$$$$

     RDKit          3D

 14 12  0  0  0  0  0  0  0  0999 V2000
   -3.6959   -0.4686    0.0963 O   0  0  0  0  0  0  0  0  0  0  0  0
   -2.3184   -0.2736    0.0159 N   0  0  0  0  0  0  0  0  0  0  0  0
   -1.8401    0.8675    0.0745 C   0  0  0  0  0  0  0  0  0  0  0  0
   -3.8148   -1.4272    0.0301 H   0  0  0  0  0  0  0  0  0  0  0  0
   -2.3289    1.8263    0.1872 H   0  0  0  0  0  0  0  0  0  0  0  0
    0.7700    0.9013   -0.0999 C   0  0  0  0  0  3  0  0  0  0  0  0
    1.2725   -0.4716   -0.3425 C   0  0  0  0  0  0  0  0  0  0  0  0
    2.7103   -0.1661   -0.4321 N   0  0  0  0  0  0  0  0  0  0  0  0
    3.3711   -0.2558    0.5873 O   0  0  0  0  0  0  0  0  0  0  0  0
   -0.5661    0.8741   -0.0143 H   0  0  0  0  0  0  0  0  0  0  0  0
    1.0604    1.3173    0.8593 H   0  0  0  0  0  0  0  0  0  0  0  0
    0.9409    1.5900   -0.9194 H   0  0  0  0  0  0  0  0  0  0  0  0
    0.9598   -0.8735   -1.3047 H   0  0  0  0  0  0  0  0  0  0  0  0
    1.0449   -1.1565    0.4787 H   0  0  0  0  0  0  0  0  0  0  0  0
  1  2  1  0
  1  4  1  0
  2  3  2  3
  3  5  1  0
  3 10  1  0
  6  7  1  0
  6 11  1  0
  6 12  1  0
  7  8  1  0
  7 13  1  0
  7 14  1  0
  8  9  2  0
M  RAD  1   6   2
M  END
>  <reaction>  (14) 
rmg_rxn_15419

>  <mol_properties>  (14) 
{"1": {"label": "*4", "atom_type": "N3d"}, "2": {"label": "*3", "atom_type": "Cd"}, "5": {"label": "*1", "atom_type": "Cs"}, "6": {"label": "*0", "atom_type": "Cs"}, "9": {"label": "*2", "atom_type": "H0"}}

>  <type>  (14) 
unop_10

>  <geom_source>  (14) 
Heuristics

$$$$

     RDKit          3D

 14 12  0  0  0  0  0  0  0  0999 V2000
   -1.6361    1.0007   -2.5496 O   0  0  0  0  0  0  0  0  0  0  0  0
   -1.0244    0.3243   -1.5126 N   0  0  0  0  0  0  0  0  0  0  0  0
   -1.1318    0.9428   -0.4174 C   0  0  0  0  0  0  0  0  0  0  0  0
   -1.4822    0.4322   -3.3067 H   0  0  0  0  0  0  0  0  0  0  0  0
   -1.6507    1.8950   -0.3298 H   0  0  0  0  0  0  0  0  0  0  0  0
    0.9728    0.9681    1.1192 C   0  0  0  0  0  3  0  0  0  0  0  0
    0.9728   -0.2088    2.0660 C   0  0  0  0  0  0  0  0  0  0  0  0
    0.9728   -1.5570    1.4487 N   0  0  0  0  0  0  0  0  0  0  0  0
    0.9728   -1.5570    0.2557 O   0  0  0  0  0  0  0  0  0  0  0  0
   -0.0834    0.9554    0.3481 H   0  0  0  0  0  0  0  0  0  0  0  0
    0.9728    1.8966    1.6907 H   0  0  0  0  0  0  0  0  0  0  0  0
    1.8529    0.9575    0.4766 H   0  0  0  0  0  0  0  0  0  0  0  0
    0.1016   -0.2237    2.7290 H   0  0  0  0  0  0  0  0  0  0  0  0
    1.8440   -0.2237    2.7290 H   0  0  0  0  0  0  0  0  0  0  0  0
  1  2  1  0
  1  4  1  0
  2  3  2  3
  3  5  1  0
  3 10  1  0
  6  7  1  0
  6 11  1  0
  6 12  1  0
  7  8  1  0
  7 13  1  0
  7 14  1  0
  8  9  2  0
M  RAD  1   6   2
M  END
>  <reaction>  (15) 
rmg_rxn_15419

>  <mol_properties>  (15) 
{"1": {"label": "*4", "atom_type": "N3d"}, "2": {"label": "*3", "atom_type": "Cd"}, "5": {"label": "*1", "atom_type": "Cs"}, "6": {"label": "*0", "atom_type": "Cs"}, "9": {"label": "*2", "atom_type": "H0"}}

>  <type>  (15) 
unop_11

>  <geom_source>  (15) 
Heuristics

$$$$

     RDKit          3D

 14 12  0  0  0  0  0  0  0  0999 V2000
   -3.7041    0.4585    0.1012 O   0  0  0  0  0  0  0  0  0  0  0  0
   -2.3258    0.2730    0.0099 N   0  0  0  0  0  0  0  0  0  0  0  0
   -1.8387   -0.8640    0.0761 C   0  0  0  0  0  0  0  0  0  0  0  0
   -3.8308    1.4154    0.0254 H   0  0  0  0  0  0  0  0  0  0  0  0
   -2.3196   -1.8250    0.2034 H   0  0  0  0  0  0  0  0  0  0  0  0
    0.7697   -0.8912   -0.1214 C   0  0  0  0  0  3  0  0  0  0  0  0
    1.2763    0.4871   -0.3210 C   0  0  0  0  0  0  0  0  0  0  0  0
    2.7121    0.1789   -0.4314 N   0  0  0  0  0  0  0  0  0  0  0  0
    3.3805    0.2302    0.5857 O   0  0  0  0  0  0  0  0  0  0  0  0
   -0.5656   -0.8639   -0.0239 H   0  0  0  0  0  0  0  0  0  0  0  0
    0.9314   -1.5520   -0.9654 H   0  0  0  0  0  0  0  0  0  0  0  0
    1.0664   -1.3411    0.8206 H   0  0  0  0  0  0  0  0  0  0  0  0
    1.0578    1.1448    0.5245 H   0  0  0  0  0  0  0  0  0  0  0  0
    0.9585    0.9225   -1.2668 H   0  0  0  0  0  0  0  0  0  0  0  0
  1  2  1  0
  1  4  1  0
  2  3  2  3
  3  5  1  0
  3 10  1  0
  6  7  1  0
  6 11  1  0
  6 12  1  0
  7  8  1  0
  7 13  1  0
  7 14  1  0
  8  9  2  0
M  RAD  1   6   2
M  END
>  <reaction>  (16) 
rmg_rxn_15419

>  <mol_properties>  (16) 
{"1": {"label": "*4", "atom_type": "N3d"}, "2": {"label": "*3", "atom_type": "Cd"}, "5": {"label": "*1", "atom_type": "Cs"}, "6": {"label": "*0", "atom_type": "Cs"}, "9": {"label": "*2", "atom_type": "H0"}}

>  <type>  (16) 
unop_12

>  <geom_source>  (16) 
Heuristics

$$$$

     RDKit          3D

 14 12  0  0  0  0  0  0  0  0999 V2000
   -1.7404    1.5379   -2.3782 O   0  0  0  0  0  0  0  0  0  0  0  0
   -0.9174    0.6822   -1.6728 N   0  0  0  0  0  0  0  0  0  0  0  0
   -1.1263    0.7446   -0.4294 C   0  0  0  0  0  0  0  0  0  0  0  0
   -1.4820    1.3926   -3.2904 H   0  0  0  0  0  0  0  0  0  0  0  0
   -1.8732    1.4040    0.0076 H   0  0  0  0  0  0  0  0  0  0  0  0
    0.9783    0.7700    1.1072 C   0  0  0  0  0  3  0  0  0  0  0  0
    0.9783   -0.4070    2.0539 C   0  0  0  0  0  0  0  0  0  0  0  0
    0.9783   -1.7551    1.4366 N   0  0  0  0  0  0  0  0  0  0  0  0
    0.9783   -1.7551    0.2437 O   0  0  0  0  0  0  0  0  0  0  0  0
   -0.0778    0.7572    0.3361 H   0  0  0  0  0  0  0  0  0  0  0  0
    0.9783    1.6984    1.6786 H   0  0  0  0  0  0  0  0  0  0  0  0
    1.8585    0.7594    0.4646 H   0  0  0  0  0  0  0  0  0  0  0  0
    0.1071   -0.4219    2.7170 H   0  0  0  0  0  0  0  0  0  0  0  0
    1.8495   -0.4219    2.7170 H   0  0  0  0  0  0  0  0  0  0  0  0
  1  2  1  0
  1  4  1  0
  2  3  2  3
  3  5  1  0
  3 10  1  0
  6  7  1  0
  6 11  1  0
  6 12  1  0
  7  8  1  0
  7 13  1  0
  7 14  1  0
  8  9  2  0
M  RAD  1   6   2
M  END
>  <reaction>  (17) 
rmg_rxn_15419

>  <mol_properties>  (17) 
{"1": {"label": "*4", "atom_type": "N3d"}, "2": {"label": "*3", "atom_type": "Cd"}, "5": {"label": "*1", "atom_type": "Cs"}, "6": {"label": "*0", "atom_type": "Cs"}, "9": {"label": "*2", "atom_type": "H0"}}

>  <type>  (17) 
unop_13

>  <geom_source>  (17) 
Heuristics

$$$$

     RDKit          3D

 14 12  0  0  0  0  0  0  0  0999 V2000
   -2.4465    1.8818   -1.4541 O   0  0  0  0  0  0  0  0  0  0  0  0
   -1.8076    1.1758   -0.4540 N   0  0  0  0  0  0  0  0  0  0  0  0
   -0.7875    0.5684   -0.8828 C   0  0  0  0  0  0  0  0  0  0  0  0
   -3.1883    2.2872   -1.0007 H   0  0  0  0  0  0  0  0  0  0  0  0
   -0.4720    0.6134   -1.9230 H   0  0  0  0  0  0  0  0  0  0  0  0
    1.3171    0.5938    0.6538 C   0  0  0  0  0  3  0  0  0  0  0  0
    1.3171   -0.5832    1.6005 C   0  0  0  0  0  0  0  0  0  0  0  0
    1.3171   -1.9314    0.9832 N   0  0  0  0  0  0  0  0  0  0  0  0
    1.3171   -1.9314   -0.2097 O   0  0  0  0  0  0  0  0  0  0  0  0
    0.2610    0.5810   -0.1173 H   0  0  0  0  0  0  0  0  0  0  0  0
    1.3171    1.5222    1.2252 H   0  0  0  0  0  0  0  0  0  0  0  0
    2.1973    0.5831    0.0112 H   0  0  0  0  0  0  0  0  0  0  0  0
    0.4459   -0.5981    2.2635 H   0  0  0  0  0  0  0  0  0  0  0  0
    2.1883   -0.5981    2.2635 H   0  0  0  0  0  0  0  0  0  0  0  0
  1  2  1  0
  1  4  1  0
  2  3  2  3
  3  5  1  0
  3 10  1  0
  6  7  1  0
  6 11  1  0
  6 12  1  0
  7  8  1  0
  7 13  1  0
  7 14  1  0
  8  9  2  0
M  RAD  1   6   2
M  END
>  <reaction>  (18) 
rmg_rxn_15419

>  <mol_properties>  (18) 
{"1": {"label": "*4", "atom_type": "N3d"}, "2": {"label": "*3", "atom_type": "Cd"}, "5": {"label": "*1", "atom_type": "Cs"}, "6": {"label": "*0", "atom_type": "Cs"}, "9": {"label": "*2", "atom_type": "H0"}}

>  <type>  (18) 
unop_14

>  <geom_source>  (18) 
Heuristics

$$$$

     RDKit          3D

 14 12  0  0  0  0  0  0  0  0999 V2000
   -3.6980    0.4641   -0.1011 O   0  0  0  0  0  0  0  0  0  0  0  0
   -2.3210    0.2715   -0.0083 N   0  0  0  0  0  0  0  0  0  0  0  0
   -1.8386   -0.8671   -0.0787 C   0  0  0  0  0  0  0  0  0  0  0  0
   -3.8202    1.4214   -0.0213 H   0  0  0  0  0  0  0  0  0  0  0  0
   -2.3229   -1.8255   -0.2121 H   0  0  0  0  0  0  0  0  0  0  0  0
    0.7698   -0.8965    0.1201 C   0  0  0  0  0  3  0  0  0  0  0  0
    1.2722    0.4827    0.3242 C   0  0  0  0  0  0  0  0  0  0  0  0
    2.7093    0.1792    0.4314 N   0  0  0  0  0  0  0  0  0  0  0  0
    3.3758    0.2366   -0.5866 O   0  0  0  0  0  0  0  0  0  0  0  0
   -0.5655   -0.8714    0.0229 H   0  0  0  0  0  0  0  0  0  0  0  0
    1.0670   -1.3422   -0.8235 H   0  0  0  0  0  0  0  0  0  0  0  0
    0.9337   -1.5599    0.9618 H   0  0  0  0  0  0  0  0  0  0  0  0
    0.9540    0.9136    1.2718 H   0  0  0  0  0  0  0  0  0  0  0  0
    1.0501    1.1427   -0.5187 H   0  0  0  0  0  0  0  0  0  0  0  0
  1  2  1  0
  1  4  1  0
  2  3  2  3
  3  5  1  0
  3 10  1  0
  6  7  1  0
  6 11  1  0
  6 12  1  0
  7  8  1  0
  7 13  1  0
  7 14  1  0
  8  9  2  0
M  RAD  1   6   2
M  END
>  <reaction>  (19) 
rmg_rxn_15419

>  <mol_properties>  (19) 
{"1": {"label": "*4", "atom_type": "N3d"}, "2": {"label": "*3", "atom_type": "Cd"}, "5": {"label": "*1", "atom_type": "Cs"}, "6": {"label": "*0", "atom_type": "Cs"}, "9": {"label": "*2", "atom_type": "H0"}}

>  <type>  (19) 
unop_15

>  <geom_source>  (19) 
Heuristics

$$$$

     RDKit          3D

 14 12  0  0  0  0  0  0  0  0999 V2000
   -2.2308    0.1228   -2.0328 O   0  0  0  0  0  0  0  0  0  0  0  0
   -1.3977    0.0718   -0.9327 N   0  0  0  0  0  0  0  0  0  0  0  0
   -0.9167    1.2046   -0.6519 C   0  0  0  0  0  0  0  0  0  0  0  0
   -2.5212   -0.7858   -2.1338 H   0  0  0  0  0  0  0  0  0  0  0  0
   -1.1483    2.0990   -1.2263 H   0  0  0  0  0  0  0  0  0  0  0  0
    1.1879    1.2300    0.8847 C   0  0  0  0  0  3  0  0  0  0  0  0
    1.1879    0.0530    1.8314 C   0  0  0  0  0  0  0  0  0  0  0  0
    1.1879   -1.2951    1.2141 N   0  0  0  0  0  0  0  0  0  0  0  0
    1.1879   -1.2951    0.0211 O   0  0  0  0  0  0  0  0  0  0  0  0
    0.1317    1.2172    0.1135 H   0  0  0  0  0  0  0  0  0  0  0  0
    1.1879    2.1584    1.4561 H   0  0  0  0  0  0  0  0  0  0  0  0
    2.0680    1.2194    0.2421 H   0  0  0  0  0  0  0  0  0  0  0  0
    0.3167    0.0381    2.4944 H   0  0  0  0  0  0  0  0  0  0  0  0
    2.0591    0.0381    2.4944 H   0  0  0  0  0  0  0  0  0  0  0  0
  1  2  1  0
  1  4  1  0
  2  3  2  3
  3  5  1  0
  3 10  1  0
  6  7  1  0
  6 11  1  0
  6 12  1  0
  7  8  1  0
  7 13  1  0
  7 14  1  0
  8  9  2  0
M  RAD  1   6   2
M  END
>  <reaction>  (20) 
rmg_rxn_15419

>  <mol_properties>  (20) 
{"1": {"label": "*4", "atom_type": "N3d"}, "2": {"label": "*3", "atom_type": "Cd"}, "5": {"label": "*1", "atom_type": "Cs"}, "6": {"label": "*0", "atom_type": "Cs"}, "9": {"label": "*2", "atom_type": "H0"}}

>  <type>  (20) 
unop_16

>  <geom_source>  (20) 
Heuristics

$$$$

     RDKit          3D

 14 12  0  0  0  0  0  0  0  0999 V2000
   -2.7684    1.4596   -1.1515 O   0  0  0  0  0  0  0  0  0  0  0  0
   -1.8267    0.7942   -0.3915 N   0  0  0  0  0  0  0  0  0  0  0  0
   -0.7052    0.7428   -0.9685 C   0  0  0  0  0  0  0  0  0  0  0  0
   -3.5572    1.4263   -0.6068 H   0  0  0  0  0  0  0  0  0  0  0  0
   -0.5294    1.1798   -1.9491 H   0  0  0  0  0  0  0  0  0  0  0  0
    1.3994    0.7682    0.5681 C   0  0  0  0  0  3  0  0  0  0  0  0
    1.3994   -0.4087    1.5148 C   0  0  0  0  0  0  0  0  0  0  0  0
    1.3994   -1.7569    0.8976 N   0  0  0  0  0  0  0  0  0  0  0  0
    1.3994   -1.7569   -0.2954 O   0  0  0  0  0  0  0  0  0  0  0  0
    0.3433    0.7555   -0.2030 H   0  0  0  0  0  0  0  0  0  0  0  0
    1.3994    1.6966    1.1395 H   0  0  0  0  0  0  0  0  0  0  0  0
    2.2796    0.7576   -0.0745 H   0  0  0  0  0  0  0  0  0  0  0  0
    0.5282   -0.4236    2.1779 H   0  0  0  0  0  0  0  0  0  0  0  0
    2.2706   -0.4236    2.1779 H   0  0  0  0  0  0  0  0  0  0  0  0
  1  2  1  0
  1  4  1  0
  2  3  2  3
  3  5  1  0
  3 10  1  0
  6  7  1  0
  6 11  1  0
  6 12  1  0
  7  8  1  0
  7 13  1  0
  7 14  1  0
  8  9  2  0
M  RAD  1   6   2
M  END
>  <reaction>  (21) 
rmg_rxn_15419

>  <mol_properties>  (21) 
{"1": {"label": "*4", "atom_type": "N3d"}, "2": {"label": "*3", "atom_type": "Cd"}, "5": {"label": "*1", "atom_type": "Cs"}, "6": {"label": "*0", "atom_type": "Cs"}, "9": {"label": "*2", "atom_type": "H0"}}

>  <type>  (21) 
unop_17

>  <geom_source>  (21) 
Heuristics

$$$$

     RDKit          3D

 14 12  0  0  0  0  0  0  0  0999 V2000
   -2.0779    1.7238   -2.0885 O   0  0  0  0  0  0  0  0  0  0  0  0
   -0.9125    1.1253   -1.6518 N   0  0  0  0  0  0  0  0  0  0  0  0
   -1.0446    0.6165   -0.5041 C   0  0  0  0  0  0  0  0  0  0  0  0
   -1.8425    2.0625   -2.9545 H   0  0  0  0  0  0  0  0  0  0  0  0
   -1.9783    0.6592    0.0526 H   0  0  0  0  0  0  0  0  0  0  0  0
    1.0600    0.6418    1.0324 C   0  0  0  0  0  3  0  0  0  0  0  0
    1.0600   -0.5351    1.9792 C   0  0  0  0  0  0  0  0  0  0  0  0
    1.0600   -1.8833    1.3619 N   0  0  0  0  0  0  0  0  0  0  0  0
    1.0600   -1.8833    0.1689 O   0  0  0  0  0  0  0  0  0  0  0  0
    0.0038    0.6291    0.2613 H   0  0  0  0  0  0  0  0  0  0  0  0
    1.0600    1.5703    1.6039 H   0  0  0  0  0  0  0  0  0  0  0  0
    1.9401    0.6312    0.3898 H   0  0  0  0  0  0  0  0  0  0  0  0
    0.1888   -0.5500    2.6422 H   0  0  0  0  0  0  0  0  0  0  0  0
    1.9312   -0.5500    2.6422 H   0  0  0  0  0  0  0  0  0  0  0  0
  1  2  1  0
  1  4  1  0
  2  3  2  3
  3  5  1  0
  3 10  1  0
  6  7  1  0
  6 11  1  0
  6 12  1  0
  7  8  1  0
  7 13  1  0
  7 14  1  0
  8  9  2  0
M  RAD  1   6   2
M  END
>  <reaction>  (22) 
rmg_rxn_15419

>  <mol_properties>  (22) 
{"1": {"label": "*4", "atom_type": "N3d"}, "2": {"label": "*3", "atom_type": "Cd"}, "5": {"label": "*1", "atom_type": "Cs"}, "6": {"label": "*0", "atom_type": "Cs"}, "9": {"label": "*2", "atom_type": "H0"}}

>  <type>  (22) 
unop_18

>  <geom_source>  (22) 
Heuristics

$$$$

     RDKit          3D

 14 12  0  0  0  0  0  0  0  0999 V2000
   -2.6628    0.2725   -1.5216 O   0  0  0  0  0  0  0  0  0  0  0  0
   -1.5862    0.1922   -0.6605 N   0  0  0  0  0  0  0  0  0  0  0  0
   -0.7759    1.1455   -0.8278 C   0  0  0  0  0  0  0  0  0  0  0  0
   -3.1885   -0.4963   -1.2921 H   0  0  0  0  0  0  0  0  0  0  0  0
   -0.9323    1.9249   -1.5705 H   0  0  0  0  0  0  0  0  0  0  0  0
    1.3287    1.1709    0.7088 C   0  0  0  0  0  3  0  0  0  0  0  0
    1.3287   -0.0061    1.6555 C   0  0  0  0  0  0  0  0  0  0  0  0
    1.3287   -1.3542    1.0383 N   0  0  0  0  0  0  0  0  0  0  0  0
    1.3287   -1.3542   -0.1547 O   0  0  0  0  0  0  0  0  0  0  0  0
    0.2726    1.1582   -0.0623 H   0  0  0  0  0  0  0  0  0  0  0  0
    1.3287    2.0993    1.2802 H   0  0  0  0  0  0  0  0  0  0  0  0
    2.2089    1.1603    0.0662 H   0  0  0  0  0  0  0  0  0  0  0  0
    0.4575   -0.0209    2.3186 H   0  0  0  0  0  0  0  0  0  0  0  0
    2.1999   -0.0209    2.3186 H   0  0  0  0  0  0  0  0  0  0  0  0
  1  2  1  0
  1  4  1  0
  2  3  2  3
  3  5  1  0
  3 10  1  0
  6  7  1  0
  6 11  1  0
  6 12  1  0
  7  8  1  0
  7 13  1  0
  7 14  1  0
  8  9  2  0
M  RAD  1   6   2
M  END
>  <reaction>  (23) 
rmg_rxn_15419

>  <mol_properties>  (23) 
{"1": {"label": "*4", "atom_type": "N3d"}, "2": {"label": "*3", "atom_type": "Cd"}, "5": {"label": "*1", "atom_type": "Cs"}, "6": {"label": "*0", "atom_type": "Cs"}, "9": {"label": "*2", "atom_type": "H0"}}

>  <type>  (23) 
unop_19

>  <geom_source>  (23) 
Heuristics

$$$$

     RDKit          3D

 14 12  0  0  0  0  0  0  0  0999 V2000
    3.6067    0.7170    0.7367 O   0  0  0  0  0  0  0  0  0  0  0  0
   -3.8459    1.2464   -0.4306 O   0  0  0  0  0  0  0  0  0  0  0  0
   -2.9218    0.5386   -0.6939 N   0  0  0  0  0  0  0  0  0  0  0  0
    2.2625    0.4162    0.7985 N   0  0  0  0  0  0  0  0  0  0  0  0
   -1.8505    0.3568    0.2516 C   0  0  0  0  0  0  0  0  0  0  0  0
   -0.8068   -0.5852   -0.3248 C   0  0  0  0  0  3  0  0  0  0  0  0
    1.7416   -0.5275    0.0821 C   0  0  0  0  0  0  0  0  0  0  0  0
   -1.3762    1.3366    0.4736 H   0  0  0  0  0  0  0  0  0  0  0  0
   -2.2514   -0.0740    1.1940 H   0  0  0  0  0  0  0  0  0  0  0  0
   -1.2541   -1.5804   -0.5337 H   0  0  0  0  0  0  0  0  0  0  0  0
   -0.3749   -0.1635   -1.2573 H   0  0  0  0  0  0  0  0  0  0  0  0
    2.3521   -1.1138   -0.5930 H   0  0  0  0  0  0  0  0  0  0  0  0
    0.4817   -0.7754    0.1705 H   0  0  0  0  0  0  0  0  0  0  0  0
    4.2369    0.2083    0.1262 H   0  0  0  0  0  0  0  0  0  0  0  0
  1  4  1  0
  1 14  1  0
  2  3  2  0
  3  5  1  0
  4  7  2  3
  5  6  1  0
  5  8  1  0
  5  9  1  0
  6 10  1  0
  6 11  1  0
  7 12  1  0
  7 13  1  0
M  RAD  1   6   2
M  END
>  <reaction>  (24) 
rmg_rxn_15419

>  <mol_properties>  (24) 
{"1": {"label": "*4", "atom_type": "N3d"}, "2": {"label": "*3", "atom_type": "Cd"}, "5": {"label": "*1", "atom_type": "Cs"}, "6": {"label": "*0", "atom_type": "Cs"}, "9": {"label": "*2", "atom_type": "H0"}}

>  <type>  (24) 
unop_20

>  <geom_source>  (24) 
AutoTST

$$$$

     RDKit          3D

 14 12  0  0  0  0  0  0  0  0999 V2000
   -2.8723    0.8202   -1.1658 O   0  0  0  0  0  0  0  0  0  0  0  0
   -1.7406    0.4446   -0.4692 N   0  0  0  0  0  0  0  0  0  0  0  0
   -0.6958    0.9645   -0.9505 C   0  0  0  0  0  0  0  0  0  0  0  0
   -3.5787    0.3639   -0.7045 H   0  0  0  0  0  0  0  0  0  0  0  0
   -0.7141    1.6269   -1.8133 H   0  0  0  0  0  0  0  0  0  0  0  0
    1.4088    0.9898    0.5861 C   0  0  0  0  0  3  0  0  0  0  0  0
    1.4088   -0.1871    1.5328 C   0  0  0  0  0  0  0  0  0  0  0  0
    1.4088   -1.5353    0.9156 N   0  0  0  0  0  0  0  0  0  0  0  0
    1.4088   -1.5353   -0.2774 O   0  0  0  0  0  0  0  0  0  0  0  0
    0.3526    0.9771   -0.1850 H   0  0  0  0  0  0  0  0  0  0  0  0
    1.4088    1.9183    1.1575 H   0  0  0  0  0  0  0  0  0  0  0  0
    2.2889    0.9792   -0.0565 H   0  0  0  0  0  0  0  0  0  0  0  0
    0.5376   -0.2020    2.1959 H   0  0  0  0  0  0  0  0  0  0  0  0
    2.2800   -0.2020    2.1959 H   0  0  0  0  0  0  0  0  0  0  0  0
  1  2  1  0
  1  4  1  0
  2  3  2  3
  3  5  1  0
  3 10  1  0
  6  7  1  0
  6 11  1  0
  6 12  1  0
  7  8  1  0
  7 13  1  0
  7 14  1  0
  8  9  2  0
M  RAD  1   6   2
M  END
>  <reaction>  (25) 
rmg_rxn_15419

>  <mol_properties>  (25) 
{"1": {"label": "*4", "atom_type": "N3d"}, "2": {"label": "*3", "atom_type": "Cd"}, "5": {"label": "*1", "atom_type": "Cs"}, "6": {"label": "*0", "atom_type": "Cs"}, "9": {"label": "*2", "atom_type": "H0"}}

>  <type>  (25) 
unop_21

>  <geom_source>  (25) 
gaussian_log

$$$$
