
     RDKit          3D

  9  8  0  0  0  0  0  0  0  0999 V2000
    1.1303   -0.2933   -0.7510 C   0  0  0  0  0  0  0  0  0  0  0  0
    0.2866    0.4560   -0.0588 C   0  0  0  0  0  0  0  0  0  0  0  0
   -0.9719   -0.0331    0.5823 C   0  0  0  0  0  0  0  0  0  0  0  0
    2.0274    0.1230   -1.1916 H   0  0  0  0  0  0  0  0  0  0  0  0
    0.9532   -1.3530   -0.9023 H   0  0  0  0  0  0  0  0  0  0  0  0
    0.5065    1.5132    0.0659 H   0  0  0  0  0  0  0  0  0  0  0  0
   -0.9526    0.1426    1.6610 H   0  0  0  0  0  0  0  0  0  0  0  0
   -1.1182   -1.1002    0.4106 H   0  0  0  0  0  0  0  0  0  0  0  0
   -1.8412    0.5010    0.1901 H   0  0  0  0  0  0  0  0  0  0  0  0
  1  2  2  3
  1  4  1  0
  1  5  1  0
  2  3  1  0
  2  6  1  0
  3  7  1  0
  3  8  1  0
  3  9  1  0
M  END
>  <reaction>  (1) 
rmg_rxn_15428

>  <mol_properties>  (1) 
{"0": {"label": "donator", "atom_type": "Cd"}, "3": {"label": "d_hydrogen", "atom_type": "H0"}}

>  <type>  (1) 
r1h

$$$$

     RDKit          3D

  5  4  0  0  0  0  0  0  0  0999 V2000
    0.8934    0.3742    0.4948 O   0  0  0  0  0  0  0  0  0  0  0  0
    0.1582   -0.1610   -0.5904 N   0  0  0  0  0  0  0  0  0  0  0  0
   -1.0297   -0.3739   -0.4689 C   0  0  0  0  0  3  0  0  0  0  0  0
    1.7805    0.4382    0.1306 H   0  0  0  0  0  0  0  0  0  0  0  0
   -1.8023   -0.2775    0.2859 H   0  0  0  0  0  0  0  0  0  0  0  0
  1  2  1  0
  1  4  1  0
  2  3  2  3
  3  5  1  0
M  RAD  1   3   2
M  END
>  <reaction>  (2) 
rmg_rxn_15428

>  <mol_properties>  (2) 
{"2": {"label": "acceptor", "atom_type": "Cd"}}

>  <type>  (2) 
r2

$$$$

     RDKit          3D

  6  5  0  0  0  0  0  0  0  0999 V2000
    1.2314    0.0428    0.5088 O   0  0  0  0  0  0  0  0  0  0  0  0
    0.2987    0.2341   -0.4915 N   0  0  0  0  0  0  0  0  0  0  0  0
   -0.8599   -0.1122   -0.1290 C   0  0  0  0  0  0  0  0  0  0  0  0
    2.0507    0.3401    0.1082 H   0  0  0  0  0  0  0  0  0  0  0  0
   -1.0700   -0.5112    0.8610 H   0  0  0  0  0  0  0  0  0  0  0  0
   -1.6509    0.0064   -0.8574 H   0  0  0  0  0  0  0  0  0  0  0  0
  1  2  1  0
  1  4  1  0
  2  3  2  3
  3  5  1  0
  3  6  1  0
M  END
>  <reaction>  (3) 
rmg_rxn_15428

>  <mol_properties>  (3) 
{"2": {"label": "acceptor", "atom_type": "Cd"}, "5": {"label": "a_hydrogen", "atom_type": "H0"}}

>  <type>  (3) 
r2h

$$$$

     RDKit          3D

 14 12  0  0  0  0  0  0  0  0999 V2000
    0.0190   -0.6827    2.9632 O   0  0  0  0  0  0  0  0  0  0  0  0
    0.0117   -0.4311    1.5889 N   0  0  0  0  0  0  0  0  0  0  0  0
    0.0208    0.7812    1.2999 C   0  0  0  0  0  3  0  0  0  0  0  0
    0.0105   -1.6415    3.0053 H   0  0  0  0  0  0  0  0  0  0  0  0
    0.0334    1.6201    1.9958 H   0  0  0  0  0  0  0  0  0  0  0  0
    0.0048    1.0546   -1.3302 C   0  0  0  0  0  0  0  0  0  0  0  0
   -0.0102   -0.1191   -1.9205 C   0  0  0  0  0  0  0  0  0  0  0  0
   -0.0227   -0.3451   -3.4030 C   0  0  0  0  0  0  0  0  0  0  0  0
    0.0138    1.0241   -0.0074 H   0  0  0  0  0  0  0  0  0  0  0  0
    0.0107    2.0418   -1.7789 H   0  0  0  0  0  0  0  0  0  0  0  0
   -0.0139   -1.0086   -1.2929 H   0  0  0  0  0  0  0  0  0  0  0  0
    0.8489   -0.9295   -3.7073 H   0  0  0  0  0  0  0  0  0  0  0  0
   -0.0179    0.5959   -3.9531 H   0  0  0  0  0  0  0  0  0  0  0  0
   -0.9091   -0.9134   -3.6950 H   0  0  0  0  0  0  0  0  0  0  0  0
  1  2  1  0
  1  4  1  0
  2  3  2  3
  3  5  1  0
  6  7  2  3
  6  9  1  0
  6 10  1  0
  7  8  1  0
  7 11  1  0
  8 12  1  0
  8 13  1  0
  8 14  1  0
M  RAD  1   3   2
M  END
>  <reaction>  (4) 
rmg_rxn_15428

>  <mol_properties>  (4) 
{"1": {"label": "*4", "atom_type": "N3d"}, "2": {"label": "*3", "atom_type": "Cd"}, "5": {"label": "*1", "atom_type": "Cd"}, "6": {"label": "*0", "atom_type": "Cd"}, "8": {"label": "*2", "atom_type": "H0"}}

>  <type>  (4) 
ts

$$$$

     RDKit          3D

 14 12  0  0  0  0  0  0  0  0999 V2000
    3.4220    0.0256    0.0038 O   0  0  0  0  0  0  0  0  0  0  0  0
    2.0566   -0.3305    0.0014 N   0  0  0  0  0  0  0  0  0  0  0  0
    1.1727    0.5288   -0.0063 C   0  0  0  0  0  3  0  0  0  0  0  0
    3.8901   -0.8207    0.0098 H   0  0  0  0  0  0  0  0  0  0  0  0
    1.2297    1.6095   -0.0114 H   0  0  0  0  0  0  0  0  0  0  0  0
   -1.2464   -0.4530   -0.0064 C   0  0  0  0  0  0  0  0  0  0  0  0
   -2.2792    0.3523    0.0023 C   0  0  0  0  0  0  0  0  0  0  0  0
   -3.7152   -0.0887    0.0038 C   0  0  0  0  0  0  0  0  0  0  0  0
   -0.0510    0.0217   -0.0065 H   0  0  0  0  0  0  0  0  0  0  0  0
   -1.2828   -1.5277   -0.0137 H   0  0  0  0  0  0  0  0  0  0  0  0
   -2.1401    1.4270    0.0084 H   0  0  0  0  0  0  0  0  0  0  0  0
   -4.2189    0.2958    0.8898 H   0  0  0  0  0  0  0  0  0  0  0  0
   -3.7900   -1.1730   -0.0043 H   0  0  0  0  0  0  0  0  0  0  0  0
   -4.2252    0.3095   -0.8725 H   0  0  0  0  0  0  0  0  0  0  0  0
  1  2  1  0
  1  4  1  0
  2  3  2  3
  3  5  1  0
  6  7  2  3
  6  9  1  0
  6 10  1  0
  7  8  1  0
  7 11  1  0
  8 12  1  0
  8 13  1  0
  8 14  1  0
M  RAD  1   3   2
M  END
>  <reaction>  (5) 
rmg_rxn_15428

>  <mol_properties>  (5) 
{"1": {"label": "*4", "atom_type": "N3d"}, "2": {"label": "*3", "atom_type": "Cd"}, "5": {"label": "*1", "atom_type": "Cd"}, "6": {"label": "*0", "atom_type": "Cd"}, "8": {"label": "*2", "atom_type": "H0"}}

>  <type>  (5) 
unop_1

>  <geom_source>  (5) 
crest_best.xyz

$$$$

     RDKit          3D

 14 12  0  0  0  0  0  0  0  0999 V2000
    0.3072    1.1714    3.0467 O   0  0  0  0  0  0  0  0  0  0  0  0
    0.7067    0.4672    1.9280 N   0  0  0  0  0  0  0  0  0  0  0  0
   -0.2709   -0.0606    1.3286 C   0  0  0  0  0  0  0  0  0  0  0  0
    1.1310    1.5135    3.3996 H   0  0  0  0  0  0  0  0  0  0  0  0
   -1.2970    0.0435    1.6749 H   0  0  0  0  0  0  0  0  0  0  0  0
   -0.2709    0.1026   -1.2638 C   0  0  0  0  0  3  0  0  0  0  0  0
   -0.2709   -0.9798   -2.0258 C   0  0  0  0  0  0  0  0  0  0  0  0
   -0.2709   -0.9798   -3.5206 C   0  0  0  0  0  0  0  0  0  0  0  0
   -0.2709    0.0209    0.0330 H   0  0  0  0  0  0  0  0  0  0  0  0
   -0.2709    1.0982   -1.6947 H   0  0  0  0  0  0  0  0  0  0  0  0
   -0.2709   -1.9563   -1.5483 H   0  0  0  0  0  0  0  0  0  0  0  0
    0.6068   -1.5024   -3.9095 H   0  0  0  0  0  0  0  0  0  0  0  0
   -0.2709    0.0354   -3.9192 H   0  0  0  0  0  0  0  0  0  0  0  0
   -1.1486   -1.5024   -3.9095 H   0  0  0  0  0  0  0  0  0  0  0  0
  1  2  1  0
  1  4  1  0
  2  3  2  3
  3  5  1  0
  3  9  1  0
  6  7  2  3
  6 10  1  0
  7  8  1  0
  7 11  1  0
  8 12  1  0
  8 13  1  0
  8 14  1  0
M  RAD  1   6   2
M  END
>  <reaction>  (6) 
rmg_rxn_15428

>  <mol_properties>  (6) 
{"1": {"label": "*4", "atom_type": "N3d"}, "2": {"label": "*3", "atom_type": "Cd"}, "5": {"label": "*1", "atom_type": "Cd"}, "6": {"label": "*0", "atom_type": "Cd"}, "8": {"label": "*2", "atom_type": "H0"}}

>  <type>  (6) 
unop_2

>  <geom_source>  (6) 
Heuristics

$$$$

     RDKit          3D

 14 12  0  0  0  0  0  0  0  0999 V2000
    3.4221   -0.0281    0.0010 O   0  0  0  0  0  0  0  0  0  0  0  0
    2.0576    0.3310   -0.0002 N   0  0  0  0  0  0  0  0  0  0  0  0
    1.1717   -0.5263   -0.0011 C   0  0  0  0  0  3  0  0  0  0  0  0
    3.8923    0.8171    0.0015 H   0  0  0  0  0  0  0  0  0  0  0  0
    1.2260   -1.6072   -0.0010 H   0  0  0  0  0  0  0  0  0  0  0  0
   -1.2472    0.4560   -0.0011 C   0  0  0  0  0  0  0  0  0  0  0  0
   -2.2783   -0.3517    0.0001 C   0  0  0  0  0  0  0  0  0  0  0  0
   -3.7154    0.0858    0.0009 C   0  0  0  0  0  0  0  0  0  0  0  0
   -0.0513   -0.0174   -0.0014 H   0  0  0  0  0  0  0  0  0  0  0  0
   -1.2857    1.5306   -0.0017 H   0  0  0  0  0  0  0  0  0  0  0  0
   -2.1367   -1.4260    0.0003 H   0  0  0  0  0  0  0  0  0  0  0  0
   -4.2215   -0.3061   -0.8804 H   0  0  0  0  0  0  0  0  0  0  0  0
   -3.7930    1.1699    0.0017 H   0  0  0  0  0  0  0  0  0  0  0  0
   -4.2209   -0.3075    0.8820 H   0  0  0  0  0  0  0  0  0  0  0  0
  1  2  1  0
  1  4  1  0
  2  3  2  3
  3  5  1  0
  6  7  2  3
  6  9  1  0
  6 10  1  0
  7  8  1  0
  7 11  1  0
  8 12  1  0
  8 13  1  0
  8 14  1  0
M  RAD  1   3   2
M  END
>  <reaction>  (7) 
rmg_rxn_15428

>  <mol_properties>  (7) 
{"1": {"label": "*4", "atom_type": "N3d"}, "2": {"label": "*3", "atom_type": "Cd"}, "5": {"label": "*1", "atom_type": "Cd"}, "6": {"label": "*0", "atom_type": "Cd"}, "8": {"label": "*2", "atom_type": "H0"}}

>  <type>  (7) 
unop_3

>  <geom_source>  (7) 
Heuristics

$$$$

     RDKit          3D

 14 12  0  0  0  0  0  0  0  0999 V2000
    3.4221    0.0276    0.0025 O   0  0  0  0  0  0  0  0  0  0  0  0
    2.0574   -0.3310    0.0010 N   0  0  0  0  0  0  0  0  0  0  0  0
    1.1720    0.5268   -0.0043 C   0  0  0  0  0  3  0  0  0  0  0  0
    3.8919   -0.8179    0.0067 H   0  0  0  0  0  0  0  0  0  0  0  0
    1.2270    1.6077   -0.0098 H   0  0  0  0  0  0  0  0  0  0  0  0
   -1.2471   -0.4551   -0.0042 C   0  0  0  0  0  0  0  0  0  0  0  0
   -2.2786    0.3520    0.0019 C   0  0  0  0  0  0  0  0  0  0  0  0
   -3.7154   -0.0866    0.0023 C   0  0  0  0  0  0  0  0  0  0  0  0
   -0.0512    0.0185   -0.0035 H   0  0  0  0  0  0  0  0  0  0  0  0
   -1.2850   -1.5298   -0.0098 H   0  0  0  0  0  0  0  0  0  0  0  0
   -2.1379    1.4264    0.0065 H   0  0  0  0  0  0  0  0  0  0  0  0
   -3.7920   -1.1708   -0.0014 H   0  0  0  0  0  0  0  0  0  0  0  0
   -4.2227    0.3086   -0.8769 H   0  0  0  0  0  0  0  0  0  0  0  0
   -4.2203    0.3025    0.8856 H   0  0  0  0  0  0  0  0  0  0  0  0
  1  2  1  0
  1  4  1  0
  2  3  2  3
  3  5  1  0
  6  7  2  3
  6  9  1  0
  6 10  1  0
  7  8  1  0
  7 11  1  0
  8 12  1  0
  8 13  1  0
  8 14  1  0
M  RAD  1   3   2
M  END
>  <reaction>  (8) 
rmg_rxn_15428

>  <mol_properties>  (8) 
{"1": {"label": "*4", "atom_type": "N3d"}, "2": {"label": "*3", "atom_type": "Cd"}, "5": {"label": "*1", "atom_type": "Cd"}, "6": {"label": "*0", "atom_type": "Cd"}, "8": {"label": "*2", "atom_type": "H0"}}

>  <type>  (8) 
unop_4

>  <geom_source>  (8) 
Heuristics

$$$$

     RDKit          3D

 14 12  0  0  0  0  0  0  0  0999 V2000
    3.4220    0.0268   -0.0056 O   0  0  0  0  0  0  0  0  0  0  0  0
    2.0570   -0.3306   -0.0022 N   0  0  0  0  0  0  0  0  0  0  0  0
    1.1722    0.5275    0.0094 C   0  0  0  0  0  3  0  0  0  0  0  0
    3.8910   -0.8191   -0.0154 H   0  0  0  0  0  0  0  0  0  0  0  0
    1.2274    1.6084    0.0186 H   0  0  0  0  0  0  0  0  0  0  0  0
   -1.2468   -0.4546    0.0094 C   0  0  0  0  0  0  0  0  0  0  0  0
   -2.2786    0.3519   -0.0035 C   0  0  0  0  0  0  0  0  0  0  0  0
   -3.7153   -0.0872   -0.0054 C   0  0  0  0  0  0  0  0  0  0  0  0
   -0.0512    0.0193    0.0094 H   0  0  0  0  0  0  0  0  0  0  0  0
   -1.2845   -1.5293    0.0206 H   0  0  0  0  0  0  0  0  0  0  0  0
   -2.1382    1.4264   -0.0145 H   0  0  0  0  0  0  0  0  0  0  0  0
   -4.2258    0.3147    0.8688 H   0  0  0  0  0  0  0  0  0  0  0  0
   -3.7917   -1.1713    0.0061 H   0  0  0  0  0  0  0  0  0  0  0  0
   -4.2173    0.2950   -0.8934 H   0  0  0  0  0  0  0  0  0  0  0  0
  1  2  1  0
  1  4  1  0
  2  3  2  3
  3  5  1  0
  6  7  2  3
  6  9  1  0
  6 10  1  0
  7  8  1  0
  7 11  1  0
  8 12  1  0
  8 13  1  0
  8 14  1  0
M  RAD  1   3   2
M  END
>  <reaction>  (9) 
rmg_rxn_15428

>  <mol_properties>  (9) 
{"1": {"label": "*4", "atom_type": "N3d"}, "2": {"label": "*3", "atom_type": "Cd"}, "5": {"label": "*1", "atom_type": "Cd"}, "6": {"label": "*0", "atom_type": "Cd"}, "8": {"label": "*2", "atom_type": "H0"}}

>  <type>  (9) 
unop_5

>  <geom_source>  (9) 
Heuristics

$$$$

     RDKit          3D

 14 12  0  0  0  0  0  0  0  0999 V2000
    0.5985   -0.2246    3.1571 O   0  0  0  0  0  0  0  0  0  0  0  0
    0.2996   -0.4105    1.8217 N   0  0  0  0  0  0  0  0  0  0  0  0
   -0.2648    0.6006    1.3192 C   0  0  0  0  0  0  0  0  0  0  0  0
    1.0150   -1.0513    3.4085 H   0  0  0  0  0  0  0  0  0  0  0  0
   -0.4784    1.4994    1.8939 H   0  0  0  0  0  0  0  0  0  0  0  0
   -0.2648    0.7638   -1.2731 C   0  0  0  0  0  3  0  0  0  0  0  0
   -0.2648   -0.3186   -2.0352 C   0  0  0  0  0  0  0  0  0  0  0  0
   -0.2648   -0.3186   -3.5300 C   0  0  0  0  0  0  0  0  0  0  0  0
   -0.2648    0.6822    0.0236 H   0  0  0  0  0  0  0  0  0  0  0  0
   -0.2648    1.7595   -1.7041 H   0  0  0  0  0  0  0  0  0  0  0  0
   -0.2648   -1.2951   -1.5577 H   0  0  0  0  0  0  0  0  0  0  0  0
    0.6129   -0.8412   -3.9189 H   0  0  0  0  0  0  0  0  0  0  0  0
   -0.2648    0.6967   -3.9286 H   0  0  0  0  0  0  0  0  0  0  0  0
   -1.1425   -0.8412   -3.9189 H   0  0  0  0  0  0  0  0  0  0  0  0
  1  2  1  0
  1  4  1  0
  2  3  2  3
  3  5  1  0
  3  9  1  0
  6  7  2  3
  6 10  1  0
  7  8  1  0
  7 11  1  0
  8 12  1  0
  8 13  1  0
  8 14  1  0
M  RAD  1   6   2
M  END
>  <reaction>  (10) 
rmg_rxn_15428

>  <mol_properties>  (10) 
{"1": {"label": "*4", "atom_type": "N3d"}, "2": {"label": "*3", "atom_type": "Cd"}, "5": {"label": "*1", "atom_type": "Cd"}, "6": {"label": "*0", "atom_type": "Cd"}, "8": {"label": "*2", "atom_type": "H0"}}

>  <type>  (10) 
unop_6

>  <geom_source>  (10) 
Heuristics

$$$$

     RDKit          3D

 14 12  0  0  0  0  0  0  0  0999 V2000
    3.4221    0.0274    0.0011 O   0  0  0  0  0  0  0  0  0  0  0  0
    2.0573   -0.3307    0.0009 N   0  0  0  0  0  0  0  0  0  0  0  0
    1.1719    0.5270   -0.0024 C   0  0  0  0  0  3  0  0  0  0  0  0
    3.8917   -0.8181    0.0040 H   0  0  0  0  0  0  0  0  0  0  0  0
    1.2266    1.6078   -0.0054 H   0  0  0  0  0  0  0  0  0  0  0  0
   -1.2470   -0.4553   -0.0022 C   0  0  0  0  0  0  0  0  0  0  0  0
   -2.2785    0.3518    0.0012 C   0  0  0  0  0  0  0  0  0  0  0  0
   -3.7154   -0.0865    0.0010 C   0  0  0  0  0  0  0  0  0  0  0  0
   -0.0513    0.0183   -0.0019 H   0  0  0  0  0  0  0  0  0  0  0  0
   -1.2851   -1.5300   -0.0058 H   0  0  0  0  0  0  0  0  0  0  0  0
   -2.1375    1.4262    0.0043 H   0  0  0  0  0  0  0  0  0  0  0  0
   -3.7923   -1.1707   -0.0029 H   0  0  0  0  0  0  0  0  0  0  0  0
   -4.2224    0.3091   -0.8782 H   0  0  0  0  0  0  0  0  0  0  0  0
   -4.2205    0.3025    0.8843 H   0  0  0  0  0  0  0  0  0  0  0  0
  1  2  1  0
  1  4  1  0
  2  3  2  3
  3  5  1  0
  6  7  2  3
  6  9  1  0
  6 10  1  0
  7  8  1  0
  7 11  1  0
  8 12  1  0
  8 13  1  0
  8 14  1  0
M  RAD  1   3   2
M  END
>  <reaction>  (11) 
rmg_rxn_15428

>  <mol_properties>  (11) 
{"1": {"label": "*4", "atom_type": "N3d"}, "2": {"label": "*3", "atom_type": "Cd"}, "5": {"label": "*1", "atom_type": "Cd"}, "6": {"label": "*0", "atom_type": "Cd"}, "8": {"label": "*2", "atom_type": "H0"}}

>  <type>  (11) 
unop_7

>  <geom_source>  (11) 
Heuristics

$$$$

     RDKit          3D

 14 12  0  0  0  0  0  0  0  0999 V2000
   -0.1261    1.0778    3.1370 O   0  0  0  0  0  0  0  0  0  0  0  0
    0.4861    0.8227    1.9257 N   0  0  0  0  0  0  0  0  0  0  0  0
   -0.0783   -0.1174    1.3003 C   0  0  0  0  0  0  0  0  0  0  0  0
    0.3921    1.7986    3.5002 H   0  0  0  0  0  0  0  0  0  0  0  0
   -0.9437   -0.6470    1.6932 H   0  0  0  0  0  0  0  0  0  0  0  0
   -0.0783    0.0458   -1.2921 C   0  0  0  0  0  3  0  0  0  0  0  0
   -0.0783   -1.0366   -2.0542 C   0  0  0  0  0  0  0  0  0  0  0  0
   -0.0783   -1.0366   -3.5489 C   0  0  0  0  0  0  0  0  0  0  0  0
   -0.0783   -0.0359    0.0046 H   0  0  0  0  0  0  0  0  0  0  0  0
   -0.0783    1.0414   -1.7230 H   0  0  0  0  0  0  0  0  0  0  0  0
   -0.0783   -2.0131   -1.5766 H   0  0  0  0  0  0  0  0  0  0  0  0
    0.7994   -1.5592   -3.9378 H   0  0  0  0  0  0  0  0  0  0  0  0
   -0.0783   -0.0214   -3.9476 H   0  0  0  0  0  0  0  0  0  0  0  0
   -0.9560   -1.5592   -3.9378 H   0  0  0  0  0  0  0  0  0  0  0  0
  1  2  1  0
  1  4  1  0
  2  3  2  3
  3  5  1  0
  3  9  1  0
  6  7  2  3
  6 10  1  0
  7  8  1  0
  7 11  1  0
  8 12  1  0
  8 13  1  0
  8 14  1  0
M  RAD  1   6   2
M  END
>  <reaction>  (12) 
rmg_rxn_15428

>  <mol_properties>  (12) 
{"1": {"label": "*4", "atom_type": "N3d"}, "2": {"label": "*3", "atom_type": "Cd"}, "5": {"label": "*1", "atom_type": "Cd"}, "6": {"label": "*0", "atom_type": "Cd"}, "8": {"label": "*2", "atom_type": "H0"}}

>  <type>  (12) 
unop_8

>  <geom_source>  (12) 
Heuristics

$$$$

     RDKit          3D

 14 12  0  0  0  0  0  0  0  0999 V2000
   -0.8782    0.3076    3.0959 O   0  0  0  0  0  0  0  0  0  0  0  0
   -0.5597   -0.2160    1.8584 N   0  0  0  0  0  0  0  0  0  0  0  0
    0.4178    0.3828    1.3299 C   0  0  0  0  0  0  0  0  0  0  0  0
   -1.6218   -0.2281    3.3789 H   0  0  0  0  0  0  0  0  0  0  0  0
    0.9303    1.2108    1.8149 H   0  0  0  0  0  0  0  0  0  0  0  0
    0.4178    0.5459   -1.2625 C   0  0  0  0  0  3  0  0  0  0  0  0
    0.4178   -0.5364   -2.0246 C   0  0  0  0  0  0  0  0  0  0  0  0
    0.4178   -0.5364   -3.5193 C   0  0  0  0  0  0  0  0  0  0  0  0
    0.4178    0.4643    0.0342 H   0  0  0  0  0  0  0  0  0  0  0  0
    0.4178    1.5416   -1.6935 H   0  0  0  0  0  0  0  0  0  0  0  0
    0.4178   -1.5129   -1.5470 H   0  0  0  0  0  0  0  0  0  0  0  0
    1.2955   -1.0591   -3.9082 H   0  0  0  0  0  0  0  0  0  0  0  0
    0.4178    0.4788   -3.9180 H   0  0  0  0  0  0  0  0  0  0  0  0
   -0.4599   -1.0591   -3.9082 H   0  0  0  0  0  0  0  0  0  0  0  0
  1  2  1  0
  1  4  1  0
  2  3  2  3
  3  5  1  0
  3  9  1  0
  6  7  2  3
  6 10  1  0
  7  8  1  0
  7 11  1  0
  8 12  1  0
  8 13  1  0
  8 14  1  0
M  RAD  1   6   2
M  END
>  <reaction>  (13) 
rmg_rxn_15428

>  <mol_properties>  (13) 
{"1": {"label": "*4", "atom_type": "N3d"}, "2": {"label": "*3", "atom_type": "Cd"}, "5": {"label": "*1", "atom_type": "Cd"}, "6": {"label": "*0", "atom_type": "Cd"}, "8": {"label": "*2", "atom_type": "H0"}}

>  <type>  (13) 
unop_9

>  <geom_source>  (13) 
Heuristics

$$$$

     RDKit          3D

 14 12  0  0  0  0  0  0  0  0999 V2000
    1.8155   -1.1778   -0.1800 O   0  0  0  0  0  0  0  0  0  0  0  0
    2.2887    0.0492    0.1486 N   0  0  0  0  0  0  0  0  0  0  0  0
    1.5673    1.0592    0.1615 C   0  0  0  0  0  3  0  0  0  0  0  0
    0.8620   -1.1476   -0.3947 H   0  0  0  0  0  0  0  0  0  0  0  0
    1.9942    2.0076    0.4312 H   0  0  0  0  0  0  0  0  0  0  0  0
   -0.9708    0.7676   -0.4248 C   0  0  0  0  0  0  0  0  0  0  0  0
   -1.6985   -0.0529    0.2965 C   0  0  0  0  0  0  0  0  0  0  0  0
   -3.1462   -0.3661    0.0525 C   0  0  0  0  0  0  0  0  0  0  0  0
    0.2697    0.9818   -0.1309 H   0  0  0  0  0  0  0  0  0  0  0  0
   -1.3266    1.3102   -1.2846 H   0  0  0  0  0  0  0  0  0  0  0  0
   -1.2693   -0.5626    1.1528 H   0  0  0  0  0  0  0  0  0  0  0  0
   -3.7374   -0.0829    0.9224 H   0  0  0  0  0  0  0  0  0  0  0  0
   -3.2736   -1.4368   -0.1049 H   0  0  0  0  0  0  0  0  0  0  0  0
   -3.5196    0.1673   -0.8182 H   0  0  0  0  0  0  0  0  0  0  0  0
  1  2  1  0
  1  4  1  0
  2  3  2  3
  3  5  1  0
  6  7  2  3
  6  9  1  0
  6 10  1  0
  7  8  1  0
  7 11  1  0
  8 12  1  0
  8 13  1  0
  8 14  1  0
M  RAD  1   3   2
M  END
>  <reaction>  (14) 
rmg_rxn_15428

>  <mol_properties>  (14) 
{"1": {"label": "*4", "atom_type": "N3d"}, "2": {"label": "*3", "atom_type": "Cd"}, "5": {"label": "*1", "atom_type": "Cd"}, "6": {"label": "*0", "atom_type": "Cd"}, "8": {"label": "*2", "atom_type": "H0"}}

>  <type>  (14) 
unop_10

>  <geom_source>  (14) 
Heuristics

$$$$

     RDKit          3D

 14 12  0  0  0  0  0  0  0  0999 V2000
   -0.0000    0.8140    3.2666 O   0  0  0  0  0  0  0  0  0  0  0  0
    0.0000    1.0119    1.8999 N   0  0  0  0  0  0  0  0  0  0  0  0
    0.0000   -0.0792    1.2651 C   0  0  0  0  0  0  0  0  0  0  0  0
   -0.0000    1.7057    3.6201 H   0  0  0  0  0  0  0  0  0  0  0  0
    0.0000   -1.0470    1.7619 H   0  0  0  0  0  0  0  0  0  0  0  0
   -0.0000    0.0840   -1.3273 C   0  0  0  0  0  3  0  0  0  0  0  0
   -0.0000   -0.9984   -2.0894 C   0  0  0  0  0  0  0  0  0  0  0  0
   -0.0000   -0.9984   -3.5841 C   0  0  0  0  0  0  0  0  0  0  0  0
    0.0000    0.0024   -0.0306 H   0  0  0  0  0  0  0  0  0  0  0  0
   -0.0000    1.0797   -1.7583 H   0  0  0  0  0  0  0  0  0  0  0  0
   -0.0000   -1.9749   -1.6119 H   0  0  0  0  0  0  0  0  0  0  0  0
    0.8777   -1.5210   -3.9730 H   0  0  0  0  0  0  0  0  0  0  0  0
   -0.0000    0.0168   -3.9828 H   0  0  0  0  0  0  0  0  0  0  0  0
   -0.8777   -1.5210   -3.9730 H   0  0  0  0  0  0  0  0  0  0  0  0
  1  2  1  0
  1  4  1  0
  2  3  2  3
  3  5  1  0
  3  9  1  0
  6  7  2  3
  6 10  1  0
  7  8  1  0
  7 11  1  0
  8 12  1  0
  8 13  1  0
  8 14  1  0
M  RAD  1   6   2
M  END
>  <reaction>  (15) 
rmg_rxn_15428

>  <mol_properties>  (15) 
{"1": {"label": "*4", "atom_type": "N3d"}, "2": {"label": "*3", "atom_type": "Cd"}, "5": {"label": "*1", "atom_type": "Cd"}, "6": {"label": "*0", "atom_type": "Cd"}, "8": {"label": "*2", "atom_type": "H0"}}

>  <type>  (15) 
unop_11

>  <geom_source>  (15) 
Heuristics

$$$$

     RDKit          3D

 14 12  0  0  0  0  0  0  0  0999 V2000
    1.8148    1.1778   -0.1807 O   0  0  0  0  0  0  0  0  0  0  0  0
    2.2882   -0.0488    0.1491 N   0  0  0  0  0  0  0  0  0  0  0  0
    1.5673   -1.0591    0.1614 C   0  0  0  0  0  3  0  0  0  0  0  0
    0.8616    1.1471   -0.3964 H   0  0  0  0  0  0  0  0  0  0  0  0
    1.9942   -2.0072    0.4323 H   0  0  0  0  0  0  0  0  0  0  0  0
   -0.9712   -0.7695   -0.4240 C   0  0  0  0  0  0  0  0  0  0  0  0
   -1.6974    0.0540    0.2954 C   0  0  0  0  0  0  0  0  0  0  0  0
   -3.1455    0.3665    0.0530 C   0  0  0  0  0  0  0  0  0  0  0  0
    0.2698   -0.9826   -0.1316 H   0  0  0  0  0  0  0  0  0  0  0  0
   -1.3288   -1.3159   -1.2806 H   0  0  0  0  0  0  0  0  0  0  0  0
   -1.2663    0.5674    1.1485 H   0  0  0  0  0  0  0  0  0  0  0  0
   -3.5219   -0.1738   -0.8122 H   0  0  0  0  0  0  0  0  0  0  0  0
   -3.2723    1.4359   -0.1130 H   0  0  0  0  0  0  0  0  0  0  0  0
   -3.7345    0.0911    0.9270 H   0  0  0  0  0  0  0  0  0  0  0  0
  1  2  1  0
  1  4  1  0
  2  3  2  3
  3  5  1  0
  6  7  2  3
  6  9  1  0
  6 10  1  0
  7  8  1  0
  7 11  1  0
  8 12  1  0
  8 13  1  0
  8 14  1  0
M  RAD  1   3   2
M  END
>  <reaction>  (16) 
rmg_rxn_15428

>  <mol_properties>  (16) 
{"1": {"label": "*4", "atom_type": "N3d"}, "2": {"label": "*3", "atom_type": "Cd"}, "5": {"label": "*1", "atom_type": "Cd"}, "6": {"label": "*0", "atom_type": "Cd"}, "8": {"label": "*2", "atom_type": "H0"}}

>  <type>  (16) 
unop_12

>  <geom_source>  (16) 
Heuristics

$$$$

     RDKit          3D

 14 12  0  0  0  0  0  0  0  0999 V2000
    1.8133    1.1780    0.1809 O   0  0  0  0  0  0  0  0  0  0  0  0
    2.2877   -0.0481   -0.1492 N   0  0  0  0  0  0  0  0  0  0  0  0
    1.5678   -1.0592   -0.1614 C   0  0  0  0  0  3  0  0  0  0  0  0
    0.8602    1.1463    0.3970 H   0  0  0  0  0  0  0  0  0  0  0  0
    1.9954   -2.0067   -0.4327 H   0  0  0  0  0  0  0  0  0  0  0  0
   -0.9709   -0.7704    0.4236 C   0  0  0  0  0  0  0  0  0  0  0  0
   -1.6966    0.0541   -0.2950 C   0  0  0  0  0  0  0  0  0  0  0  0
   -3.1448    0.3664   -0.0531 C   0  0  0  0  0  0  0  0  0  0  0  0
    0.2702   -0.9834    0.1313 H   0  0  0  0  0  0  0  0  0  0  0  0
   -1.3291   -1.3180    1.2792 H   0  0  0  0  0  0  0  0  0  0  0  0
   -1.2650    0.5686   -1.1472 H   0  0  0  0  0  0  0  0  0  0  0  0
   -3.5215   -0.1738    0.8120 H   0  0  0  0  0  0  0  0  0  0  0  0
   -3.7334    0.0907   -0.9273 H   0  0  0  0  0  0  0  0  0  0  0  0
   -3.2719    1.4359    0.1125 H   0  0  0  0  0  0  0  0  0  0  0  0
  1  2  1  0
  1  4  1  0
  2  3  2  3
  3  5  1  0
  6  7  2  3
  6  9  1  0
  6 10  1  0
  7  8  1  0
  7 11  1  0
  8 12  1  0
  8 13  1  0
  8 14  1  0
M  RAD  1   3   2
M  END
>  <reaction>  (17) 
rmg_rxn_15428

>  <mol_properties>  (17) 
{"1": {"label": "*4", "atom_type": "N3d"}, "2": {"label": "*3", "atom_type": "Cd"}, "5": {"label": "*1", "atom_type": "Cd"}, "6": {"label": "*0", "atom_type": "Cd"}, "8": {"label": "*2", "atom_type": "H0"}}

>  <type>  (17) 
unop_13

>  <geom_source>  (17) 
Heuristics

$$$$

     RDKit          3D

 14 12  0  0  0  0  0  0  0  0999 V2000
   -0.7433    0.8598    3.0483 O   0  0  0  0  0  0  0  0  0  0  0  0
   -0.7160    0.0946    1.8991 N   0  0  0  0  0  0  0  0  0  0  0  0
    0.4128    0.1301    1.3351 C   0  0  0  0  0  0  0  0  0  0  0  0
   -1.6400    0.7461    3.3695 H   0  0  0  0  0  0  0  0  0  0  0  0
    1.2481    0.7044    1.7301 H   0  0  0  0  0  0  0  0  0  0  0  0
    0.4128    0.2933   -1.2572 C   0  0  0  0  0  3  0  0  0  0  0  0
    0.4128   -0.7891   -2.0193 C   0  0  0  0  0  0  0  0  0  0  0  0
    0.4128   -0.7891   -3.5140 C   0  0  0  0  0  0  0  0  0  0  0  0
    0.4128    0.2117    0.0395 H   0  0  0  0  0  0  0  0  0  0  0  0
    0.4128    1.2890   -1.6882 H   0  0  0  0  0  0  0  0  0  0  0  0
    0.4128   -1.7656   -1.5418 H   0  0  0  0  0  0  0  0  0  0  0  0
    1.2905   -1.3117   -3.9029 H   0  0  0  0  0  0  0  0  0  0  0  0
    0.4128    0.2262   -3.9127 H   0  0  0  0  0  0  0  0  0  0  0  0
   -0.4649   -1.3117   -3.9029 H   0  0  0  0  0  0  0  0  0  0  0  0
  1  2  1  0
  1  4  1  0
  2  3  2  3
  3  5  1  0
  3  9  1  0
  6  7  2  3
  6 10  1  0
  7  8  1  0
  7 11  1  0
  8 12  1  0
  8 13  1  0
  8 14  1  0
M  RAD  1   6   2
M  END
>  <reaction>  (18) 
rmg_rxn_15428

>  <mol_properties>  (18) 
{"1": {"label": "*4", "atom_type": "N3d"}, "2": {"label": "*3", "atom_type": "Cd"}, "5": {"label": "*1", "atom_type": "Cd"}, "6": {"label": "*0", "atom_type": "Cd"}, "8": {"label": "*2", "atom_type": "H0"}}

>  <type>  (18) 
unop_14

>  <geom_source>  (18) 
Heuristics

$$$$

     RDKit          3D

 14 12  0  0  0  0  0  0  0  0999 V2000
    3.4220   -0.0261    0.0020 O   0  0  0  0  0  0  0  0  0  0  0  0
    2.0568    0.3304   -0.0008 N   0  0  0  0  0  0  0  0  0  0  0  0
    1.1724   -0.5283   -0.0017 C   0  0  0  0  0  3  0  0  0  0  0  0
    3.8905    0.8201    0.0022 H   0  0  0  0  0  0  0  0  0  0  0  0
    1.2282   -1.6091   -0.0005 H   0  0  0  0  0  0  0  0  0  0  0  0
   -1.2466    0.4539   -0.0019 C   0  0  0  0  0  0  0  0  0  0  0  0
   -2.2789   -0.3521   -0.0002 C   0  0  0  0  0  0  0  0  0  0  0  0
   -3.7153    0.0879    0.0018 C   0  0  0  0  0  0  0  0  0  0  0  0
   -0.0512   -0.0205   -0.0028 H   0  0  0  0  0  0  0  0  0  0  0  0
   -1.2835    1.5287   -0.0018 H   0  0  0  0  0  0  0  0  0  0  0  0
   -2.1391   -1.4266   -0.0002 H   0  0  0  0  0  0  0  0  0  0  0  0
   -4.2212   -0.3058    0.8825 H   0  0  0  0  0  0  0  0  0  0  0  0
   -4.2224   -0.3018   -0.8800 H   0  0  0  0  0  0  0  0  0  0  0  0
   -3.7909    1.1722    0.0042 H   0  0  0  0  0  0  0  0  0  0  0  0
  1  2  1  0
  1  4  1  0
  2  3  2  3
  3  5  1  0
  6  7  2  3
  6  9  1  0
  6 10  1  0
  7  8  1  0
  7 11  1  0
  8 12  1  0
  8 13  1  0
  8 14  1  0
M  RAD  1   3   2
M  END
>  <reaction>  (19) 
rmg_rxn_15428

>  <mol_properties>  (19) 
{"1": {"label": "*4", "atom_type": "N3d"}, "2": {"label": "*3", "atom_type": "Cd"}, "5": {"label": "*1", "atom_type": "Cd"}, "6": {"label": "*0", "atom_type": "Cd"}, "8": {"label": "*2", "atom_type": "H0"}}

>  <type>  (19) 
unop_15

>  <geom_source>  (19) 
Heuristics

$$$$

     RDKit          3D

 14 12  0  0  0  0  0  0  0  0999 V2000
   -0.3072    1.1714    3.0467 O   0  0  0  0  0  0  0  0  0  0  0  0
   -0.7067    0.4672    1.9280 N   0  0  0  0  0  0  0  0  0  0  0  0
    0.2709   -0.0606    1.3286 C   0  0  0  0  0  0  0  0  0  0  0  0
   -1.1310    1.5135    3.3996 H   0  0  0  0  0  0  0  0  0  0  0  0
    1.2970    0.0435    1.6749 H   0  0  0  0  0  0  0  0  0  0  0  0
    0.2709    0.1026   -1.2638 C   0  0  0  0  0  3  0  0  0  0  0  0
    0.2709   -0.9798   -2.0258 C   0  0  0  0  0  0  0  0  0  0  0  0
    0.2709   -0.9798   -3.5206 C   0  0  0  0  0  0  0  0  0  0  0  0
    0.2709    0.0209    0.0330 H   0  0  0  0  0  0  0  0  0  0  0  0
    0.2709    1.0982   -1.6947 H   0  0  0  0  0  0  0  0  0  0  0  0
    0.2709   -1.9563   -1.5483 H   0  0  0  0  0  0  0  0  0  0  0  0
    1.1486   -1.5024   -3.9095 H   0  0  0  0  0  0  0  0  0  0  0  0
    0.2709    0.0354   -3.9192 H   0  0  0  0  0  0  0  0  0  0  0  0
   -0.6068   -1.5024   -3.9095 H   0  0  0  0  0  0  0  0  0  0  0  0
  1  2  1  0
  1  4  1  0
  2  3  2  3
  3  5  1  0
  3  9  1  0
  6  7  2  3
  6 10  1  0
  7  8  1  0
  7 11  1  0
  8 12  1  0
  8 13  1  0
  8 14  1  0
M  RAD  1   6   2
M  END
>  <reaction>  (20) 
rmg_rxn_15428

>  <mol_properties>  (20) 
{"1": {"label": "*4", "atom_type": "N3d"}, "2": {"label": "*3", "atom_type": "Cd"}, "5": {"label": "*1", "atom_type": "Cd"}, "6": {"label": "*0", "atom_type": "Cd"}, "8": {"label": "*2", "atom_type": "H0"}}

>  <type>  (20) 
unop_16

>  <geom_source>  (20) 
Heuristics

$$$$

     RDKit          3D

 14 12  0  0  0  0  0  0  0  0999 V2000
    3.4221    0.0268   -0.0023 O   0  0  0  0  0  0  0  0  0  0  0  0
    2.0571   -0.3306   -0.0015 N   0  0  0  0  0  0  0  0  0  0  0  0
    1.1722    0.5276    0.0044 C   0  0  0  0  0  3  0  0  0  0  0  0
    3.8911   -0.8191   -0.0076 H   0  0  0  0  0  0  0  0  0  0  0  0
    1.2277    1.6084    0.0102 H   0  0  0  0  0  0  0  0  0  0  0  0
   -1.2468   -0.4545    0.0047 C   0  0  0  0  0  0  0  0  0  0  0  0
   -2.2788    0.3520   -0.0018 C   0  0  0  0  0  0  0  0  0  0  0  0
   -3.7153   -0.0873   -0.0025 C   0  0  0  0  0  0  0  0  0  0  0  0
   -0.0512    0.0195    0.0042 H   0  0  0  0  0  0  0  0  0  0  0  0
   -1.2843   -1.5292    0.0104 H   0  0  0  0  0  0  0  0  0  0  0  0
   -2.1384    1.4265   -0.0079 H   0  0  0  0  0  0  0  0  0  0  0  0
   -4.2198    0.2999   -0.8869 H   0  0  0  0  0  0  0  0  0  0  0  0
   -4.2235    0.3095    0.8755 H   0  0  0  0  0  0  0  0  0  0  0  0
   -3.7916   -1.1715    0.0033 H   0  0  0  0  0  0  0  0  0  0  0  0
  1  2  1  0
  1  4  1  0
  2  3  2  3
  3  5  1  0
  6  7  2  3
  6  9  1  0
  6 10  1  0
  7  8  1  0
  7 11  1  0
  8 12  1  0
  8 13  1  0
  8 14  1  0
M  RAD  1   3   2
M  END
>  <reaction>  (21) 
rmg_rxn_15428

>  <mol_properties>  (21) 
{"1": {"label": "*4", "atom_type": "N3d"}, "2": {"label": "*3", "atom_type": "Cd"}, "5": {"label": "*1", "atom_type": "Cd"}, "6": {"label": "*0", "atom_type": "Cd"}, "8": {"label": "*2", "atom_type": "H0"}}

>  <type>  (21) 
unop_17

>  <geom_source>  (21) 
Heuristics

$$$$

     RDKit          3D

 14 12  0  0  0  0  0  0  0  0999 V2000
    0.7433    0.8598    3.0483 O   0  0  0  0  0  0  0  0  0  0  0  0
    0.7160    0.0946    1.8991 N   0  0  0  0  0  0  0  0  0  0  0  0
   -0.4128    0.1301    1.3351 C   0  0  0  0  0  0  0  0  0  0  0  0
    1.6400    0.7461    3.3695 H   0  0  0  0  0  0  0  0  0  0  0  0
   -1.2481    0.7044    1.7301 H   0  0  0  0  0  0  0  0  0  0  0  0
   -0.4128    0.2933   -1.2572 C   0  0  0  0  0  3  0  0  0  0  0  0
   -0.4128   -0.7891   -2.0193 C   0  0  0  0  0  0  0  0  0  0  0  0
   -0.4128   -0.7891   -3.5140 C   0  0  0  0  0  0  0  0  0  0  0  0
   -0.4128    0.2117    0.0395 H   0  0  0  0  0  0  0  0  0  0  0  0
   -0.4128    1.2890   -1.6882 H   0  0  0  0  0  0  0  0  0  0  0  0
   -0.4128   -1.7656   -1.5418 H   0  0  0  0  0  0  0  0  0  0  0  0
    0.4649   -1.3117   -3.9029 H   0  0  0  0  0  0  0  0  0  0  0  0
   -0.4128    0.2262   -3.9127 H   0  0  0  0  0  0  0  0  0  0  0  0
   -1.2905   -1.3117   -3.9029 H   0  0  0  0  0  0  0  0  0  0  0  0
  1  2  1  0
  1  4  1  0
  2  3  2  3
  3  5  1  0
  3  9  1  0
  6  7  2  3
  6 10  1  0
  7  8  1  0
  7 11  1  0
  8 12  1  0
  8 13  1  0
  8 14  1  0
M  RAD  1   6   2
M  END
>  <reaction>  (22) 
rmg_rxn_15428

>  <mol_properties>  (22) 
{"1": {"label": "*4", "atom_type": "N3d"}, "2": {"label": "*3", "atom_type": "Cd"}, "5": {"label": "*1", "atom_type": "Cd"}, "6": {"label": "*0", "atom_type": "Cd"}, "8": {"label": "*2", "atom_type": "H0"}}

>  <type>  (22) 
unop_18

>  <geom_source>  (22) 
Heuristics

$$$$

     RDKit          3D

 14 12  0  0  0  0  0  0  0  0999 V2000
    3.4220    0.0256    0.0038 O   0  0  0  0  0  0  0  0  0  0  0  0
    2.0566   -0.3305    0.0014 N   0  0  0  0  0  0  0  0  0  0  0  0
    1.1727    0.5288   -0.0063 C   0  0  0  0  0  3  0  0  0  0  0  0
    3.8901   -0.8207    0.0098 H   0  0  0  0  0  0  0  0  0  0  0  0
    1.2297    1.6095   -0.0114 H   0  0  0  0  0  0  0  0  0  0  0  0
   -1.2464   -0.4530   -0.0064 C   0  0  0  0  0  0  0  0  0  0  0  0
   -2.2792    0.3523    0.0023 C   0  0  0  0  0  0  0  0  0  0  0  0
   -3.7152   -0.0887    0.0038 C   0  0  0  0  0  0  0  0  0  0  0  0
   -0.0510    0.0217   -0.0065 H   0  0  0  0  0  0  0  0  0  0  0  0
   -1.2828   -1.5277   -0.0137 H   0  0  0  0  0  0  0  0  0  0  0  0
   -2.1401    1.4270    0.0084 H   0  0  0  0  0  0  0  0  0  0  0  0
   -4.2189    0.2958    0.8898 H   0  0  0  0  0  0  0  0  0  0  0  0
   -3.7900   -1.1730   -0.0043 H   0  0  0  0  0  0  0  0  0  0  0  0
   -4.2252    0.3095   -0.8725 H   0  0  0  0  0  0  0  0  0  0  0  0
  1  2  1  0
  1  4  1  0
  2  3  2  3
  3  5  1  0
  6  7  2  3
  6  9  1  0
  6 10  1  0
  7  8  1  0
  7 11  1  0
  8 12  1  0
  8 13  1  0
  8 14  1  0
M  RAD  1   3   2
M  END
>  <reaction>  (23) 
rmg_rxn_15428

>  <mol_properties>  (23) 
{"1": {"label": "*4", "atom_type": "N3d"}, "2": {"label": "*3", "atom_type": "Cd"}, "5": {"label": "*1", "atom_type": "Cd"}, "6": {"label": "*0", "atom_type": "Cd"}, "8": {"label": "*2", "atom_type": "H0"}}

>  <type>  (23) 
unop_19

>  <geom_source>  (23) 
Heuristics

$$$$

     RDKit          3D

 14 12  0  0  0  0  0  0  0  0999 V2000
   -0.5985   -0.2246    3.1571 O   0  0  0  0  0  0  0  0  0  0  0  0
   -0.2996   -0.4105    1.8217 N   0  0  0  0  0  0  0  0  0  0  0  0
    0.2648    0.6006    1.3192 C   0  0  0  0  0  0  0  0  0  0  0  0
   -1.0150   -1.0513    3.4085 H   0  0  0  0  0  0  0  0  0  0  0  0
    0.4784    1.4994    1.8939 H   0  0  0  0  0  0  0  0  0  0  0  0
    0.2648    0.7638   -1.2731 C   0  0  0  0  0  3  0  0  0  0  0  0
    0.2648   -0.3186   -2.0352 C   0  0  0  0  0  0  0  0  0  0  0  0
    0.2648   -0.3186   -3.5300 C   0  0  0  0  0  0  0  0  0  0  0  0
    0.2648    0.6822    0.0236 H   0  0  0  0  0  0  0  0  0  0  0  0
    0.2648    1.7595   -1.7041 H   0  0  0  0  0  0  0  0  0  0  0  0
    0.2648   -1.2951   -1.5577 H   0  0  0  0  0  0  0  0  0  0  0  0
    1.1425   -0.8412   -3.9189 H   0  0  0  0  0  0  0  0  0  0  0  0
    0.2648    0.6967   -3.9286 H   0  0  0  0  0  0  0  0  0  0  0  0
   -0.6129   -0.8412   -3.9189 H   0  0  0  0  0  0  0  0  0  0  0  0
  1  2  1  0
  1  4  1  0
  2  3  2  3
  3  5  1  0
  3  9  1  0
  6  7  2  3
  6 10  1  0
  7  8  1  0
  7 11  1  0
  8 12  1  0
  8 13  1  0
  8 14  1  0
M  RAD  1   6   2
M  END
>  <reaction>  (24) 
rmg_rxn_15428

>  <mol_properties>  (24) 
{"1": {"label": "*4", "atom_type": "N3d"}, "2": {"label": "*3", "atom_type": "Cd"}, "5": {"label": "*1", "atom_type": "Cd"}, "6": {"label": "*0", "atom_type": "Cd"}, "8": {"label": "*2", "atom_type": "H0"}}

>  <type>  (24) 
unop_20

>  <geom_source>  (24) 
Heuristics

$$$$

     RDKit          3D

 14 12  0  0  0  0  0  0  0  0999 V2000
    0.8782    0.3076    3.0959 O   0  0  0  0  0  0  0  0  0  0  0  0
    0.5597   -0.2160    1.8584 N   0  0  0  0  0  0  0  0  0  0  0  0
   -0.4178    0.3828    1.3299 C   0  0  0  0  0  0  0  0  0  0  0  0
    1.6218   -0.2281    3.3789 H   0  0  0  0  0  0  0  0  0  0  0  0
   -0.9303    1.2108    1.8149 H   0  0  0  0  0  0  0  0  0  0  0  0
   -0.4178    0.5459   -1.2625 C   0  0  0  0  0  3  0  0  0  0  0  0
   -0.4178   -0.5364   -2.0246 C   0  0  0  0  0  0  0  0  0  0  0  0
   -0.4178   -0.5364   -3.5193 C   0  0  0  0  0  0  0  0  0  0  0  0
   -0.4178    0.4643    0.0342 H   0  0  0  0  0  0  0  0  0  0  0  0
   -0.4178    1.5416   -1.6935 H   0  0  0  0  0  0  0  0  0  0  0  0
   -0.4178   -1.5129   -1.5470 H   0  0  0  0  0  0  0  0  0  0  0  0
    0.4599   -1.0591   -3.9082 H   0  0  0  0  0  0  0  0  0  0  0  0
   -0.4178    0.4788   -3.9180 H   0  0  0  0  0  0  0  0  0  0  0  0
   -1.2955   -1.0591   -3.9082 H   0  0  0  0  0  0  0  0  0  0  0  0
  1  2  1  0
  1  4  1  0
  2  3  2  3
  3  5  1  0
  3  9  1  0
  6  7  2  3
  6 10  1  0
  7  8  1  0
  7 11  1  0
  8 12  1  0
  8 13  1  0
  8 14  1  0
M  RAD  1   6   2
M  END
>  <reaction>  (25) 
rmg_rxn_15428

>  <mol_properties>  (25) 
{"1": {"label": "*4", "atom_type": "N3d"}, "2": {"label": "*3", "atom_type": "Cd"}, "5": {"label": "*1", "atom_type": "Cd"}, "6": {"label": "*0", "atom_type": "Cd"}, "8": {"label": "*2", "atom_type": "H0"}}

>  <type>  (25) 
unop_21

>  <geom_source>  (25) 
Heuristics

$$$$

     RDKit          3D

 14 12  0  0  0  0  0  0  0  0999 V2000
    0.1261    1.0778    3.1370 O   0  0  0  0  0  0  0  0  0  0  0  0
   -0.4861    0.8227    1.9257 N   0  0  0  0  0  0  0  0  0  0  0  0
    0.0783   -0.1174    1.3003 C   0  0  0  0  0  0  0  0  0  0  0  0
   -0.3921    1.7986    3.5002 H   0  0  0  0  0  0  0  0  0  0  0  0
    0.9437   -0.6470    1.6932 H   0  0  0  0  0  0  0  0  0  0  0  0
    0.0783    0.0458   -1.2921 C   0  0  0  0  0  3  0  0  0  0  0  0
    0.0783   -1.0366   -2.0542 C   0  0  0  0  0  0  0  0  0  0  0  0
    0.0783   -1.0366   -3.5489 C   0  0  0  0  0  0  0  0  0  0  0  0
    0.0783   -0.0359    0.0046 H   0  0  0  0  0  0  0  0  0  0  0  0
    0.0783    1.0414   -1.7230 H   0  0  0  0  0  0  0  0  0  0  0  0
    0.0783   -2.0131   -1.5766 H   0  0  0  0  0  0  0  0  0  0  0  0
    0.9560   -1.5592   -3.9378 H   0  0  0  0  0  0  0  0  0  0  0  0
    0.0783   -0.0214   -3.9476 H   0  0  0  0  0  0  0  0  0  0  0  0
   -0.7994   -1.5592   -3.9378 H   0  0  0  0  0  0  0  0  0  0  0  0
  1  2  1  0
  1  4  1  0
  2  3  2  3
  3  5  1  0
  3  9  1  0
  6  7  2  3
  6 10  1  0
  7  8  1  0
  7 11  1  0
  8 12  1  0
  8 13  1  0
  8 14  1  0
M  RAD  1   6   2
M  END
>  <reaction>  (26) 
rmg_rxn_15428

>  <mol_properties>  (26) 
{"1": {"label": "*4", "atom_type": "N3d"}, "2": {"label": "*3", "atom_type": "Cd"}, "5": {"label": "*1", "atom_type": "Cd"}, "6": {"label": "*0", "atom_type": "Cd"}, "8": {"label": "*2", "atom_type": "H0"}}

>  <type>  (26) 
unop_22

>  <geom_source>  (26) 
Heuristics

$$$$

     RDKit          3D

 14 12  0  0  0  0  0  0  0  0999 V2000
    0.0000   -0.4491    3.1871 O   0  0  0  0  0  0  0  0  0  0  0  0
    0.0000   -0.4741    1.8064 N   0  0  0  0  0  0  0  0  0  0  0  0
   -0.0000    0.6880    1.3134 C   0  0  0  0  0  0  0  0  0  0  0  0
    0.0000   -1.3781    3.4259 H   0  0  0  0  0  0  0  0  0  0  0  0
   -0.0000    1.5859    1.9277 H   0  0  0  0  0  0  0  0  0  0  0  0
   -0.0000    0.8512   -1.2790 C   0  0  0  0  0  3  0  0  0  0  0  0
   -0.0000   -0.2312   -2.0411 C   0  0  0  0  0  0  0  0  0  0  0  0
   -0.0000   -0.2312   -3.5358 C   0  0  0  0  0  0  0  0  0  0  0  0
   -0.0000    0.7696    0.0177 H   0  0  0  0  0  0  0  0  0  0  0  0
   -0.0000    1.8469   -1.7100 H   0  0  0  0  0  0  0  0  0  0  0  0
   -0.0000   -1.2077   -1.5636 H   0  0  0  0  0  0  0  0  0  0  0  0
    0.8777   -0.7538   -3.9247 H   0  0  0  0  0  0  0  0  0  0  0  0
   -0.0000    0.7841   -3.9345 H   0  0  0  0  0  0  0  0  0  0  0  0
   -0.8777   -0.7538   -3.9247 H   0  0  0  0  0  0  0  0  0  0  0  0
  1  2  1  0
  1  4  1  0
  2  3  2  3
  3  5  1  0
  3  9  1  0
  6  7  2  3
  6 10  1  0
  7  8  1  0
  7 11  1  0
  8 12  1  0
  8 13  1  0
  8 14  1  0
M  RAD  1   6   2
M  END
>  <reaction>  (27) 
rmg_rxn_15428

>  <mol_properties>  (27) 
{"1": {"label": "*4", "atom_type": "N3d"}, "2": {"label": "*3", "atom_type": "Cd"}, "5": {"label": "*1", "atom_type": "Cd"}, "6": {"label": "*0", "atom_type": "Cd"}, "8": {"label": "*2", "atom_type": "H0"}}

>  <type>  (27) 
unop_23

>  <geom_source>  (27) 
Heuristics

$$$$

     RDKit          3D

 14 12  0  0  0  0  0  0  0  0999 V2000
    3.4221    0.0253    0.0009 O   0  0  0  0  0  0  0  0  0  0  0  0
    2.0566   -0.3304   -0.0017 N   0  0  0  0  0  0  0  0  0  0  0  0
    1.1728    0.5290    0.0006 C   0  0  0  0  0  3  0  0  0  0  0  0
    3.8900   -0.8212   -0.0021 H   0  0  0  0  0  0  0  0  0  0  0  0
    1.2296    1.6098    0.0051 H   0  0  0  0  0  0  0  0  0  0  0  0
   -1.2464   -0.4526    0.0006 C   0  0  0  0  0  0  0  0  0  0  0  0
   -2.2794    0.3525   -0.0014 C   0  0  0  0  0  0  0  0  0  0  0  0
   -3.7152   -0.0891    0.0006 C   0  0  0  0  0  0  0  0  0  0  0  0
   -0.0511    0.0221    0.0001 H   0  0  0  0  0  0  0  0  0  0  0  0
   -1.2828   -1.5274    0.0039 H   0  0  0  0  0  0  0  0  0  0  0  0
   -2.1406    1.4272   -0.0046 H   0  0  0  0  0  0  0  0  0  0  0  0
   -4.2229    0.3001   -0.8810 H   0  0  0  0  0  0  0  0  0  0  0  0
   -4.2217    0.3038    0.8814 H   0  0  0  0  0  0  0  0  0  0  0  0
   -3.7895   -1.1735    0.0029 H   0  0  0  0  0  0  0  0  0  0  0  0
  1  2  1  0
  1  4  1  0
  2  3  2  3
  3  5  1  0
  6  7  2  3
  6  9  1  0
  6 10  1  0
  7  8  1  0
  7 11  1  0
  8 12  1  0
  8 13  1  0
  8 14  1  0
M  RAD  1   3   2
M  END
>  <reaction>  (28) 
rmg_rxn_15428

>  <mol_properties>  (28) 
{"1": {"label": "*4", "atom_type": "N3d"}, "2": {"label": "*3", "atom_type": "Cd"}, "5": {"label": "*1", "atom_type": "Cd"}, "6": {"label": "*0", "atom_type": "Cd"}, "8": {"label": "*2", "atom_type": "H0"}}

>  <type>  (28) 
unop_24

>  <geom_source>  (28) 
Heuristics

$$$$

     RDKit          3D

 14 12  0  0  0  0  0  0  0  0999 V2000
    2.1429    0.3000    1.4430 O   0  0  0  0  0  0  0  0  0  0  0  0
    2.7055    0.4243    0.1950 N   0  0  0  0  0  0  0  0  0  0  0  0
   -2.1258    0.0951    0.5384 C   0  0  0  0  0  0  0  0  0  0  0  0
   -1.4102   -0.8111   -0.4145 C   0  0  0  0  0  0  0  0  0  0  0  0
    2.0272    0.1136   -0.8588 C   0  0  0  0  0  3  0  0  0  0  0  0
   -0.4726   -0.3446   -1.2403 C   0  0  0  0  0  0  0  0  0  0  0  0
   -2.6652    0.8867   -0.0236 H   0  0  0  0  0  0  0  0  0  0  0  0
   -2.8610   -0.4895    1.1300 H   0  0  0  0  0  0  0  0  0  0  0  0
   -1.3984    0.5655    1.2333 H   0  0  0  0  0  0  0  0  0  0  0  0
   -1.6558   -1.8678   -0.4370 H   0  0  0  0  0  0  0  0  0  0  0  0
    2.4759    0.2138   -1.8376 H   0  0  0  0  0  0  0  0  0  0  0  0
    0.7578   -0.3367   -0.7463 H   0  0  0  0  0  0  0  0  0  0  0  0
   -0.1987    0.7062   -1.2478 H   0  0  0  0  0  0  0  0  0  0  0  0
    2.6784    0.5446    2.2663 H   0  0  0  0  0  0  0  0  0  0  0  0
  1  2  1  0
  1 14  1  0
  2  5  2  3
  3  4  1  0
  3  7  1  0
  3  8  1  0
  3  9  1  0
  4  6  2  3
  4 10  1  0
  5 11  1  0
  6 12  1  0
  6 13  1  0
M  RAD  1   5   2
M  END
>  <reaction>  (29) 
rmg_rxn_15428

>  <mol_properties>  (29) 
{"1": {"label": "*4", "atom_type": "N3d"}, "2": {"label": "*3", "atom_type": "Cd"}, "5": {"label": "*1", "atom_type": "Cd"}, "6": {"label": "*0", "atom_type": "Cd"}, "8": {"label": "*2", "atom_type": "H0"}}

>  <type>  (29) 
unop_25

>  <geom_source>  (29) 
AutoTST

$$$$

     RDKit          3D

 14 12  0  0  0  0  0  0  0  0999 V2000
    0.5985   -0.2246    3.1571 O   0  0  0  0  0  0  0  0  0  0  0  0
    0.2996   -0.4105    1.8217 N   0  0  0  0  0  0  0  0  0  0  0  0
   -0.2648    0.6006    1.3192 C   0  0  0  0  0  0  0  0  0  0  0  0
    1.0150   -1.0513    3.4085 H   0  0  0  0  0  0  0  0  0  0  0  0
   -0.4784    1.4994    1.8939 H   0  0  0  0  0  0  0  0  0  0  0  0
   -0.2648    0.7638   -1.2732 C   0  0  0  0  0  3  0  0  0  0  0  0
   -0.2648   -0.3186   -2.0352 C   0  0  0  0  0  0  0  0  0  0  0  0
   -0.2648   -0.3186   -3.5300 C   0  0  0  0  0  0  0  0  0  0  0  0
   -0.2648    0.6822    0.0236 H   0  0  0  0  0  0  0  0  0  0  0  0
   -0.2648    1.7595   -1.7041 H   0  0  0  0  0  0  0  0  0  0  0  0
   -0.2648   -1.2951   -1.5577 H   0  0  0  0  0  0  0  0  0  0  0  0
    0.6129   -0.8412   -3.9189 H   0  0  0  0  0  0  0  0  0  0  0  0
   -0.2648    0.6967   -3.9286 H   0  0  0  0  0  0  0  0  0  0  0  0
   -1.1425   -0.8412   -3.9189 H   0  0  0  0  0  0  0  0  0  0  0  0
  1  2  1  0
  1  4  1  0
  2  3  2  3
  3  5  1  0
  3  9  1  0
  6  7  2  3
  6 10  1  0
  7  8  1  0
  7 11  1  0
  8 12  1  0
  8 13  1  0
  8 14  1  0
M  RAD  1   6   2
M  END
>  <reaction>  (30) 
rmg_rxn_15428

>  <mol_properties>  (30) 
{"1": {"label": "*4", "atom_type": "N3d"}, "2": {"label": "*3", "atom_type": "Cd"}, "5": {"label": "*1", "atom_type": "Cd"}, "6": {"label": "*0", "atom_type": "Cd"}, "8": {"label": "*2", "atom_type": "H0"}}

>  <type>  (30) 
unop_26

>  <geom_source>  (30) 
gaussian_log

$$$$
