
     RDKit          3D

  9  8  0  0  0  0  0  0  0  0999 V2000
   -1.0314    0.2323   -0.1227 C   0  0  0  0  0  0  0  0  0  0  0  0
    0.3094   -0.4511    0.0063 C   0  0  0  0  0  0  0  0  0  0  0  0
    0.3197   -1.7698    0.6841 N   0  0  0  0  0  0  0  0  0  0  0  0
   -0.7498   -2.1455    1.0557 O   0  0  0  0  0  0  0  0  0  0  0  0
   -1.4744    0.4198    0.8552 H   0  0  0  0  0  0  0  0  0  0  0  0
   -0.9073    1.1865   -0.6350 H   0  0  0  0  0  0  0  0  0  0  0  0
   -1.7319   -0.3778   -0.6927 H   0  0  0  0  0  0  0  0  0  0  0  0
    1.0375    0.1401    0.5713 H   0  0  0  0  0  0  0  0  0  0  0  0
    0.7826   -0.6494   -0.9609 H   0  0  0  0  0  0  0  0  0  0  0  0
  1  2  1  0
  1  5  1  0
  1  6  1  0
  1  7  1  0
  2  3  1  0
  2  8  1  0
  2  9  1  0
  3  4  2  0
M  END
>  <reaction>  (1) 
rmg_rxn_6

>  <mol_properties>  (1) 
{"1": {"label": "donator", "atom_type": "Cs"}, "7": {"label": "d_hydrogen", "atom_type": "H0"}}

>  <type>  (1) 
r1h

$$$$

     RDKit          3D

  9  8  0  0  0  0  0  0  0  0999 V2000
    1.3246   -0.8124   -0.0809 C   0  0  0  0  0  2  0  0  0  0  0  0
    0.4082    0.3080    0.1518 C   0  0  0  0  0  0  0  0  0  0  0  0
   -1.0545   -0.0277   -0.1520 C   0  0  0  0  0  0  0  0  0  0  0  0
    2.3933   -0.9471    0.0203 H   0  0  0  0  0  0  0  0  0  0  0  0
    0.4898    0.6406    1.1970 H   0  0  0  0  0  0  0  0  0  0  0  0
    0.7134    1.1680   -0.4624 H   0  0  0  0  0  0  0  0  0  0  0  0
   -1.4014   -0.8515    0.4727 H   0  0  0  0  0  0  0  0  0  0  0  0
   -1.1767   -0.3214   -1.1952 H   0  0  0  0  0  0  0  0  0  0  0  0
   -1.6915    0.8372    0.0370 H   0  0  0  0  0  0  0  0  0  0  0  0
  1  2  1  0
  1  4  1  0
  2  3  1  0
  2  5  1  0
  2  6  1  0
  3  7  1  0
  3  8  1  0
  3  9  1  0
M  RAD  1   1   3
M  END
>  <reaction>  (2) 
rmg_rxn_6

>  <mol_properties>  (2) 
{"0": {"label": "acceptor", "atom_type": "Cs"}}

>  <type>  (2) 
r2

$$$$

     RDKit          3D

 10  9  0  0  0  0  0  0  0  0999 V2000
    1.4352    0.2660   -0.1351 C   0  0  0  0  0  3  0  0  0  0  0  0
    0.2236   -0.3243    0.4850 C   0  0  0  0  0  0  0  0  0  0  0  0
   -0.8893    0.6872    0.7364 C   0  0  0  0  0  0  0  0  0  0  0  0
    2.3577   -0.2958   -0.1940 H   0  0  0  0  0  0  0  0  0  0  0  0
    1.3935    1.2286   -0.6287 H   0  0  0  0  0  0  0  0  0  0  0  0
   -0.1633   -1.1318   -0.1556 H   0  0  0  0  0  0  0  0  0  0  0  0
    0.4945   -0.8215    1.4240 H   0  0  0  0  0  0  0  0  0  0  0  0
   -1.1991    1.1627   -0.1967 H   0  0  0  0  0  0  0  0  0  0  0  0
   -1.7660    0.2103    1.1768 H   0  0  0  0  0  0  0  0  0  0  0  0
   -0.5545    1.4732    1.4159 H   0  0  0  0  0  0  0  0  0  0  0  0
  1  2  1  0
  1  4  1  0
  1  5  1  0
  2  3  1  0
  2  6  1  0
  2  7  1  0
  3  8  1  0
  3  9  1  0
  3 10  1  0
M  RAD  1   1   2
M  END
>  <reaction>  (3) 
rmg_rxn_6

>  <mol_properties>  (3) 
{"0": {"label": "a_hydrogen", "atom_type": "H0"}, "1": {"label": "acceptor", "atom_type": "Cs"}}

>  <type>  (3) 
r2h

$$$$

     RDKit          3D

 18 16  0  0  0  0  0  0  0  0999 V2000
   -0.7917    0.2162   -1.4754 C   0  0  0  0  0  0  0  0  0  0  0  0
   -1.3807   -0.2871   -0.1811 C   0  0  0  0  0  0  0  0  0  0  0  0
   -1.6042    0.6731    0.8747 N   0  0  0  0  0  0  0  0  0  0  0  0
   -0.8851    1.6395    0.8441 O   0  0  0  0  0  0  0  0  0  0  0  0
    0.1536    0.7286   -1.3016 H   0  0  0  0  0  0  0  0  0  0  0  0
   -0.6207   -0.6226   -2.1503 H   0  0  0  0  0  0  0  0  0  0  0  0
   -1.4690    0.9190   -1.9641 H   0  0  0  0  0  0  0  0  0  0  0  0
   -0.5797   -1.0467    0.3196 H   0  0  0  0  0  0  0  0  0  0  0  0
   -2.2812   -0.8909   -0.2849 H   0  0  0  0  0  0  0  0  0  0  0  0
    0.6009   -1.9616    0.6483 C   0  0  0  0  0  2  0  0  0  0  0  0
    1.8940   -1.4701    0.1494 C   0  0  0  0  0  0  0  0  0  0  0  0
    2.3731   -0.1874    0.8454 C   0  0  0  0  0  0  0  0  0  0  0  0
    0.3693   -2.6896    1.4156 H   0  0  0  0  0  0  0  0  0  0  0  0
    2.6454   -2.2594    0.2712 H   0  0  0  0  0  0  0  0  0  0  0  0
    1.8226   -1.2818   -0.9280 H   0  0  0  0  0  0  0  0  0  0  0  0
    2.4991   -0.3499    1.9164 H   0  0  0  0  0  0  0  0  0  0  0  0
    1.6509    0.6195    0.7119 H   0  0  0  0  0  0  0  0  0  0  0  0
    3.3302    0.1343    0.4317 H   0  0  0  0  0  0  0  0  0  0  0  0
  1  2  1  0
  1  5  1  0
  1  6  1  0
  1  7  1  0
  2  3  1  0
  2  8  1  0
  2  9  1  0
  3  4  2  0
 10 11  1  0
 10 13  1  0
 11 12  1  0
 11 14  1  0
 11 15  1  0
 12 16  1  0
 12 17  1  0
 12 18  1  0
M  RAD  1  10   3
M  END
>  <reaction>  (4) 
rmg_rxn_6

>  <mol_properties>  (4) 
{"1": {"label": "*1", "atom_type": "Cs"}, "2": {"label": "*0", "atom_type": "N3d"}, "7": {"label": "*2", "atom_type": "H0"}, "9": {"label": "*3", "atom_type": "Cs"}, "10": {"label": "*4", "atom_type": "Cs"}}

>  <type>  (4) 
ts

$$$$

     RDKit          3D

 18 16  0  0  0  0  0  0  0  0999 V2000
   -1.1682   -0.1349   -2.2528 C   0  0  0  0  0  0  0  0  0  0  0  0
   -1.1682   -0.1349   -0.7424 C   0  0  0  0  0  0  0  0  0  0  0  0
   -1.1682    1.1911   -0.0788 N   0  0  0  0  0  0  0  0  0  0  0  0
   -1.1682    2.1206   -0.8265 O   0  0  0  0  0  1  0  0  0  0  0  0
   -0.2881    0.3725   -2.6473 H   0  0  0  0  0  0  0  0  0  0  0  0
   -1.1682   -1.1620   -2.6181 H   0  0  0  0  0  0  0  0  0  0  0  0
   -2.0484    0.3725   -2.6473 H   0  0  0  0  0  0  0  0  0  0  0  0
   -0.1228   -0.7437   -0.2298 H   0  0  0  0  0  0  0  0  0  0  0  0
   -2.0394   -0.6422   -0.3152 H   0  0  0  0  0  0  0  0  0  0  0  0
    0.9101   -1.3452    0.2767 C   0  0  0  0  0  3  0  0  0  0  0  0
    1.8555   -0.6191    1.1598 C   0  0  0  0  0  0  0  0  0  0  0  0
    2.0260   -1.2611    2.5323 C   0  0  0  0  0  0  0  0  0  0  0  0
    0.6325   -2.3707    0.4842 H   0  0  0  0  0  0  0  0  0  0  0  0
    2.8395   -0.5505    0.6708 H   0  0  0  0  0  0  0  0  0  0  0  0
    1.5295    0.4216    1.2731 H   0  0  0  0  0  0  0  0  0  0  0  0
    2.3898   -2.2866    2.4380 H   0  0  0  0  0  0  0  0  0  0  0  0
    1.0755   -1.2925    3.0680 H   0  0  0  0  0  0  0  0  0  0  0  0
    2.7402   -0.7069    3.1429 H   0  0  0  0  0  0  0  0  0  0  0  0
  1  2  1  0
  1  5  1  0
  1  6  1  0
  1  7  1  0
  2  3  2  3
  2  9  1  0
  3  4  1  0
  8 10  1  0
 10 11  1  0
 10 13  1  0
 11 12  1  0
 11 14  1  0
 11 15  1  0
 12 16  1  0
 12 17  1  0
 12 18  1  0
M  RAD  2   4   2  10   2
M  END
>  <reaction>  (5) 
rmg_rxn_6

>  <mol_properties>  (5) 
{"1": {"label": "*1", "atom_type": "Cs"}, "2": {"label": "*0", "atom_type": "N3d"}, "7": {"label": "*2", "atom_type": "H0"}, "9": {"label": "*3", "atom_type": "Cs"}, "10": {"label": "*4", "atom_type": "Cs"}}

>  <type>  (5) 
unop_1

>  <geom_source>  (5) 
Heuristics

$$$$

     RDKit          3D

 18 16  0  0  0  0  0  0  0  0999 V2000
   -1.4284   -0.0061   -1.7212 C   0  0  0  0  0  0  0  0  0  0  0  0
   -1.4284   -0.0061   -0.2107 C   0  0  0  0  0  0  0  0  0  0  0  0
   -1.4284    1.3199    0.4528 N   0  0  0  0  0  0  0  0  0  0  0  0
   -1.4284    2.2494   -0.2949 O   0  0  0  0  0  1  0  0  0  0  0  0
   -0.5483    0.5013   -2.1157 H   0  0  0  0  0  0  0  0  0  0  0  0
   -1.4284   -1.0332   -2.0865 H   0  0  0  0  0  0  0  0  0  0  0  0
   -2.3086    0.5013   -2.1157 H   0  0  0  0  0  0  0  0  0  0  0  0
   -0.3830   -0.6148    0.3018 H   0  0  0  0  0  0  0  0  0  0  0  0
   -2.2996   -0.5134    0.2164 H   0  0  0  0  0  0  0  0  0  0  0  0
    0.6499   -1.2163    0.8083 C   0  0  0  0  0  3  0  0  0  0  0  0
    1.9473   -1.2348    0.0891 C   0  0  0  0  0  0  0  0  0  0  0  0
    3.1577   -1.3091    1.0135 C   0  0  0  0  0  0  0  0  0  0  0  0
    0.5824   -1.5363    1.8403 H   0  0  0  0  0  0  0  0  0  0  0  0
    1.9729   -2.0888   -0.6051 H   0  0  0  0  0  0  0  0  0  0  0  0
    2.0245   -0.3513   -0.5556 H   0  0  0  0  0  0  0  0  0  0  0  0
    3.1165   -2.2063    1.6349 H   0  0  0  0  0  0  0  0  0  0  0  0
    3.1932   -0.4442    1.6785 H   0  0  0  0  0  0  0  0  0  0  0  0
    4.0887   -1.3373    0.4455 H   0  0  0  0  0  0  0  0  0  0  0  0
  1  2  1  0
  1  5  1  0
  1  6  1  0
  1  7  1  0
  2  3  2  3
  2  9  1  0
  3  4  1  0
  8 10  1  0
 10 11  1  0
 10 13  1  0
 11 12  1  0
 11 14  1  0
 11 15  1  0
 12 16  1  0
 12 17  1  0
 12 18  1  0
M  RAD  2   4   2  10   2
M  END
>  <reaction>  (6) 
rmg_rxn_6

>  <mol_properties>  (6) 
{"1": {"label": "*1", "atom_type": "Cs"}, "2": {"label": "*0", "atom_type": "N3d"}, "7": {"label": "*2", "atom_type": "H0"}, "9": {"label": "*3", "atom_type": "Cs"}, "10": {"label": "*4", "atom_type": "Cs"}}

>  <type>  (6) 
unop_2

>  <geom_source>  (6) 
Heuristics

$$$$

     RDKit          3D

 18 16  0  0  0  0  0  0  0  0999 V2000
   -1.0679    0.0344   -2.3121 C   0  0  0  0  0  0  0  0  0  0  0  0
   -1.0679    0.0344   -0.8016 C   0  0  0  0  0  0  0  0  0  0  0  0
   -1.0679    1.3604   -0.1380 N   0  0  0  0  0  0  0  0  0  0  0  0
   -1.0679    2.2899   -0.8857 O   0  0  0  0  0  1  0  0  0  0  0  0
   -0.1878    0.5418   -2.7065 H   0  0  0  0  0  0  0  0  0  0  0  0
   -1.0679   -0.9928   -2.6773 H   0  0  0  0  0  0  0  0  0  0  0  0
   -1.9481    0.5418   -2.7065 H   0  0  0  0  0  0  0  0  0  0  0  0
   -0.0225   -0.5744   -0.2890 H   0  0  0  0  0  0  0  0  0  0  0  0
   -1.9391   -0.4729   -0.3744 H   0  0  0  0  0  0  0  0  0  0  0  0
    1.0104   -1.1759    0.2174 C   0  0  0  0  0  3  0  0  0  0  0  0
    1.5640   -0.7612    1.5299 C   0  0  0  0  0  0  0  0  0  0  0  0
    1.8152   -1.9248    2.4827 C   0  0  0  0  0  0  0  0  0  0  0  0
    1.0821   -2.2033   -0.1159 H   0  0  0  0  0  0  0  0  0  0  0  0
    2.5062   -0.2127    1.3769 H   0  0  0  0  0  0  0  0  0  0  0  0
    0.8927   -0.0328    2.0000 H   0  0  0  0  0  0  0  0  0  0  0  0
    2.5147   -2.6402    2.0451 H   0  0  0  0  0  0  0  0  0  0  0  0
    0.8871   -2.4566    2.7007 H   0  0  0  0  0  0  0  0  0  0  0  0
    2.2367   -1.5791    3.4277 H   0  0  0  0  0  0  0  0  0  0  0  0
  1  2  1  0
  1  5  1  0
  1  6  1  0
  1  7  1  0
  2  3  2  3
  2  9  1  0
  3  4  1  0
  8 10  1  0
 10 11  1  0
 10 13  1  0
 11 12  1  0
 11 14  1  0
 11 15  1  0
 12 16  1  0
 12 17  1  0
 12 18  1  0
M  RAD  2   4   2  10   2
M  END
>  <reaction>  (7) 
rmg_rxn_6

>  <mol_properties>  (7) 
{"1": {"label": "*1", "atom_type": "Cs"}, "2": {"label": "*0", "atom_type": "N3d"}, "7": {"label": "*2", "atom_type": "H0"}, "9": {"label": "*3", "atom_type": "Cs"}, "10": {"label": "*4", "atom_type": "Cs"}}

>  <type>  (7) 
unop_3

>  <geom_source>  (7) 
Heuristics

$$$$

     RDKit          3D

 18 16  0  0  0  0  0  0  0  0999 V2000
   -1.0816    0.4924   -1.8618 C   0  0  0  0  0  0  0  0  0  0  0  0
   -1.0816    0.4924   -0.3514 C   0  0  0  0  0  0  0  0  0  0  0  0
   -1.0816    1.8183    0.3122 N   0  0  0  0  0  0  0  0  0  0  0  0
   -1.0816    2.7479   -0.4355 O   0  0  0  0  0  1  0  0  0  0  0  0
   -0.2014    0.9998   -2.2563 H   0  0  0  0  0  0  0  0  0  0  0  0
   -1.0816   -0.5348   -2.2271 H   0  0  0  0  0  0  0  0  0  0  0  0
   -1.9617    0.9998   -2.2563 H   0  0  0  0  0  0  0  0  0  0  0  0
   -0.0361   -0.1164    0.1612 H   0  0  0  0  0  0  0  0  0  0  0  0
   -1.9528   -0.0149    0.0758 H   0  0  0  0  0  0  0  0  0  0  0  0
    0.9968   -0.7179    0.6677 C   0  0  0  0  0  3  0  0  0  0  0  0
    1.2613   -2.1486    0.3778 C   0  0  0  0  0  0  0  0  0  0  0  0
    2.1747   -2.8202    1.3975 C   0  0  0  0  0  0  0  0  0  0  0  0
    1.1796   -0.3078    1.6527 H   0  0  0  0  0  0  0  0  0  0  0  0
    0.3089   -2.6986    0.3320 H   0  0  0  0  0  0  0  0  0  0  0  0
    1.6877   -2.2488   -0.6274 H   0  0  0  0  0  0  0  0  0  0  0  0
    1.7440   -2.7647    2.3996 H   0  0  0  0  0  0  0  0  0  0  0  0
    3.1507   -2.3323    1.4265 H   0  0  0  0  0  0  0  0  0  0  0  0
    2.3300   -3.8730    1.1573 H   0  0  0  0  0  0  0  0  0  0  0  0
  1  2  1  0
  1  5  1  0
  1  6  1  0
  1  7  1  0
  2  3  2  3
  2  9  1  0
  3  4  1  0
  8 10  1  0
 10 11  1  0
 10 13  1  0
 11 12  1  0
 11 14  1  0
 11 15  1  0
 12 16  1  0
 12 17  1  0
 12 18  1  0
M  RAD  2   4   2  10   2
M  END
>  <reaction>  (8) 
rmg_rxn_6

>  <mol_properties>  (8) 
{"1": {"label": "*1", "atom_type": "Cs"}, "2": {"label": "*0", "atom_type": "N3d"}, "7": {"label": "*2", "atom_type": "H0"}, "9": {"label": "*3", "atom_type": "Cs"}, "10": {"label": "*4", "atom_type": "Cs"}}

>  <type>  (8) 
unop_4

>  <geom_source>  (8) 
Heuristics

$$$$

     RDKit          3D

 18 16  0  0  0  0  0  0  0  0999 V2000
   -1.0894    0.1510   -2.2758 C   0  0  0  0  0  0  0  0  0  0  0  0
   -1.0894    0.1510   -0.7654 C   0  0  0  0  0  0  0  0  0  0  0  0
   -1.0894    1.4769   -0.1018 N   0  0  0  0  0  0  0  0  0  0  0  0
   -1.0894    2.4065   -0.8495 O   0  0  0  0  0  1  0  0  0  0  0  0
   -0.2092    0.6584   -2.6703 H   0  0  0  0  0  0  0  0  0  0  0  0
   -1.0894   -0.8762   -2.6411 H   0  0  0  0  0  0  0  0  0  0  0  0
   -1.9695    0.6584   -2.6703 H   0  0  0  0  0  0  0  0  0  0  0  0
   -0.0439   -0.4578   -0.2528 H   0  0  0  0  0  0  0  0  0  0  0  0
   -1.9606   -0.3563   -0.3382 H   0  0  0  0  0  0  0  0  0  0  0  0
    0.9890   -1.0593    0.2537 C   0  0  0  0  0  3  0  0  0  0  0  0
    1.1645   -1.1615    1.7232 C   0  0  0  0  0  0  0  0  0  0  0  0
    2.2663   -2.1290    2.1416 C   0  0  0  0  0  0  0  0  0  0  0  0
    1.7648   -1.3944   -0.4229 H   0  0  0  0  0  0  0  0  0  0  0  0
    1.3838   -0.1662    2.1393 H   0  0  0  0  0  0  0  0  0  0  0  0
    0.2157   -1.4534    2.1888 H   0  0  0  0  0  0  0  0  0  0  0  0
    3.2273   -1.8286    1.7185 H   0  0  0  0  0  0  0  0  0  0  0  0
    2.0496   -3.1402    1.7921 H   0  0  0  0  0  0  0  0  0  0  0  0
    2.3735   -2.1620    3.2267 H   0  0  0  0  0  0  0  0  0  0  0  0
  1  2  1  0
  1  5  1  0
  1  6  1  0
  1  7  1  0
  2  3  2  3
  2  9  1  0
  3  4  1  0
  8 10  1  0
 10 11  1  0
 10 13  1  0
 11 12  1  0
 11 14  1  0
 11 15  1  0
 12 16  1  0
 12 17  1  0
 12 18  1  0
M  RAD  2   4   2  10   2
M  END
>  <reaction>  (9) 
rmg_rxn_6

>  <mol_properties>  (9) 
{"1": {"label": "*1", "atom_type": "Cs"}, "2": {"label": "*0", "atom_type": "N3d"}, "7": {"label": "*2", "atom_type": "H0"}, "9": {"label": "*3", "atom_type": "Cs"}, "10": {"label": "*4", "atom_type": "Cs"}}

>  <type>  (9) 
unop_5

>  <geom_source>  (9) 
Heuristics

$$$$

     RDKit          3D

 18 16  0  0  0  0  0  0  0  0999 V2000
   -0.9901    0.4566   -2.0556 C   0  0  0  0  0  0  0  0  0  0  0  0
   -0.9901    0.4566   -0.5451 C   0  0  0  0  0  0  0  0  0  0  0  0
   -0.9901    1.7826    0.1184 N   0  0  0  0  0  0  0  0  0  0  0  0
   -0.9901    2.7121   -0.6293 O   0  0  0  0  0  1  0  0  0  0  0  0
   -0.1099    0.9640   -2.4501 H   0  0  0  0  0  0  0  0  0  0  0  0
   -0.9901   -0.5705   -2.4209 H   0  0  0  0  0  0  0  0  0  0  0  0
   -1.8702    0.9640   -2.4501 H   0  0  0  0  0  0  0  0  0  0  0  0
    0.0554   -0.1522   -0.0326 H   0  0  0  0  0  0  0  0  0  0  0  0
   -1.8613   -0.0507   -0.1180 H   0  0  0  0  0  0  0  0  0  0  0  0
    1.0882   -0.7536    0.4739 C   0  0  0  0  0  3  0  0  0  0  0  0
    1.0522   -2.2068    0.7705 C   0  0  0  0  0  0  0  0  0  0  0  0
    1.9355   -2.6131    1.9451 C   0  0  0  0  0  0  0  0  0  0  0  0
    1.4522   -0.0459    1.2078 H   0  0  0  0  0  0  0  0  0  0  0  0
    0.0161   -2.5163    0.9767 H   0  0  0  0  0  0  0  0  0  0  0  0
    1.3377   -2.7732   -0.1238 H   0  0  0  0  0  0  0  0  0  0  0  0
    1.6372   -2.0871    2.8546 H   0  0  0  0  0  0  0  0  0  0  0  0
    2.9813   -2.3709    1.7477 H   0  0  0  0  0  0  0  0  0  0  0  0
    1.8675   -3.6843    2.1399 H   0  0  0  0  0  0  0  0  0  0  0  0
  1  2  1  0
  1  5  1  0
  1  6  1  0
  1  7  1  0
  2  3  2  3
  2  9  1  0
  3  4  1  0
  8 10  1  0
 10 11  1  0
 10 13  1  0
 11 12  1  0
 11 14  1  0
 11 15  1  0
 12 16  1  0
 12 17  1  0
 12 18  1  0
M  RAD  2   4   2  10   2
M  END
>  <reaction>  (10) 
rmg_rxn_6

>  <mol_properties>  (10) 
{"1": {"label": "*1", "atom_type": "Cs"}, "2": {"label": "*0", "atom_type": "N3d"}, "7": {"label": "*2", "atom_type": "H0"}, "9": {"label": "*3", "atom_type": "Cs"}, "10": {"label": "*4", "atom_type": "Cs"}}

>  <type>  (10) 
unop_6

>  <geom_source>  (10) 
Heuristics

$$$$

     RDKit          3D

 18 16  0  0  0  0  0  0  0  0999 V2000
   -0.9801    0.3287   -2.2130 C   0  0  0  0  0  0  0  0  0  0  0  0
   -0.9801    0.3287   -0.7025 C   0  0  0  0  0  0  0  0  0  0  0  0
   -0.9801    1.6546   -0.0389 N   0  0  0  0  0  0  0  0  0  0  0  0
   -0.9801    2.5842   -0.7866 O   0  0  0  0  0  1  0  0  0  0  0  0
   -0.0999    0.8360   -2.6075 H   0  0  0  0  0  0  0  0  0  0  0  0
   -0.9801   -0.6985   -2.5783 H   0  0  0  0  0  0  0  0  0  0  0  0
   -1.8602    0.8360   -2.6075 H   0  0  0  0  0  0  0  0  0  0  0  0
    0.0654   -0.2801   -0.1899 H   0  0  0  0  0  0  0  0  0  0  0  0
   -1.8513   -0.1786   -0.2753 H   0  0  0  0  0  0  0  0  0  0  0  0
    1.0983   -0.8816    0.3165 C   0  0  0  0  0  3  0  0  0  0  0  0
    0.9334   -2.0622    1.1996 C   0  0  0  0  0  0  0  0  0  0  0  0
    1.9892   -2.1582    2.2955 C   0  0  0  0  0  0  0  0  0  0  0  0
    1.7053   -0.0393    0.6231 H   0  0  0  0  0  0  0  0  0  0  0  0
   -0.0646   -2.0401    1.6637 H   0  0  0  0  0  0  0  0  0  0  0  0
    0.9381   -2.9778    0.5964 H   0  0  0  0  0  0  0  0  0  0  0  0
    1.9701   -1.2703    2.9312 H   0  0  0  0  0  0  0  0  0  0  0  0
    2.9895   -2.2394    1.8662 H   0  0  0  0  0  0  0  0  0  0  0  0
    1.8224   -3.0290    2.9311 H   0  0  0  0  0  0  0  0  0  0  0  0
  1  2  1  0
  1  5  1  0
  1  6  1  0
  1  7  1  0
  2  3  2  3
  2  9  1  0
  3  4  1  0
  8 10  1  0
 10 11  1  0
 10 13  1  0
 11 12  1  0
 11 14  1  0
 11 15  1  0
 12 16  1  0
 12 17  1  0
 12 18  1  0
M  RAD  2   4   2  10   2
M  END
>  <reaction>  (11) 
rmg_rxn_6

>  <mol_properties>  (11) 
{"1": {"label": "*1", "atom_type": "Cs"}, "2": {"label": "*0", "atom_type": "N3d"}, "7": {"label": "*2", "atom_type": "H0"}, "9": {"label": "*3", "atom_type": "Cs"}, "10": {"label": "*4", "atom_type": "Cs"}}

>  <type>  (11) 
unop_7

>  <geom_source>  (11) 
Heuristics

$$$$

     RDKit          3D

 18 16  0  0  0  0  0  0  0  0999 V2000
   -1.3036   -0.2138   -2.0931 C   0  0  0  0  0  0  0  0  0  0  0  0
   -1.3036   -0.2138   -0.5826 C   0  0  0  0  0  0  0  0  0  0  0  0
   -1.3036    1.1122    0.0810 N   0  0  0  0  0  0  0  0  0  0  0  0
   -1.3036    2.0417   -0.6667 O   0  0  0  0  0  1  0  0  0  0  0  0
   -0.4235    0.2936   -2.4876 H   0  0  0  0  0  0  0  0  0  0  0  0
   -1.3036   -1.2409   -2.4584 H   0  0  0  0  0  0  0  0  0  0  0  0
   -2.1837    0.2936   -2.4876 H   0  0  0  0  0  0  0  0  0  0  0  0
   -0.2582   -0.8226   -0.0700 H   0  0  0  0  0  0  0  0  0  0  0  0
   -2.1748   -0.7211   -0.1555 H   0  0  0  0  0  0  0  0  0  0  0  0
    0.7747   -1.4241    0.4364 C   0  0  0  0  0  3  0  0  0  0  0  0
    2.0208   -0.6755    0.7330 C   0  0  0  0  0  0  0  0  0  0  0  0
    2.5088   -0.8446    2.1677 C   0  0  0  0  0  0  0  0  0  0  0  0
    0.4467   -2.2326    1.0772 H   0  0  0  0  0  0  0  0  0  0  0  0
    2.8169   -0.9950    0.0431 H   0  0  0  0  0  0  0  0  0  0  0  0
    1.8736    0.3884    0.5124 H   0  0  0  0  0  0  0  0  0  0  0  0
    2.6992   -1.8966    2.3910 H   0  0  0  0  0  0  0  0  0  0  0  0
    1.7627   -0.4829    2.8777 H   0  0  0  0  0  0  0  0  0  0  0  0
    3.4340   -0.2927    2.3390 H   0  0  0  0  0  0  0  0  0  0  0  0
  1  2  1  0
  1  5  1  0
  1  6  1  0
  1  7  1  0
  2  3  2  3
  2  9  1  0
  3  4  1  0
  8 10  1  0
 10 11  1  0
 10 13  1  0
 11 12  1  0
 11 14  1  0
 11 15  1  0
 12 16  1  0
 12 17  1  0
 12 18  1  0
M  RAD  2   4   2  10   2
M  END
>  <reaction>  (12) 
rmg_rxn_6

>  <mol_properties>  (12) 
{"1": {"label": "*1", "atom_type": "Cs"}, "2": {"label": "*0", "atom_type": "N3d"}, "7": {"label": "*2", "atom_type": "H0"}, "9": {"label": "*3", "atom_type": "Cs"}, "10": {"label": "*4", "atom_type": "Cs"}}

>  <type>  (12) 
unop_8

>  <geom_source>  (12) 
Heuristics

$$$$

     RDKit          3D

 18 16  0  0  0  0  0  0  0  0999 V2000
   -1.2241    0.4052   -1.7041 C   0  0  0  0  0  0  0  0  0  0  0  0
   -1.2241    0.4052   -0.1936 C   0  0  0  0  0  0  0  0  0  0  0  0
   -1.2241    1.7312    0.4700 N   0  0  0  0  0  0  0  0  0  0  0  0
   -1.2241    2.6607   -0.2777 O   0  0  0  0  0  1  0  0  0  0  0  0
   -0.3440    0.9126   -2.0986 H   0  0  0  0  0  0  0  0  0  0  0  0
   -1.2241   -0.6219   -2.0694 H   0  0  0  0  0  0  0  0  0  0  0  0
   -2.1042    0.9126   -2.0986 H   0  0  0  0  0  0  0  0  0  0  0  0
   -0.1787   -0.2036    0.3190 H   0  0  0  0  0  0  0  0  0  0  0  0
   -2.0953   -0.1021    0.2336 H   0  0  0  0  0  0  0  0  0  0  0  0
    0.8542   -0.8051    0.8254 C   0  0  0  0  0  3  0  0  0  0  0  0
    1.5106   -1.9244    0.1063 C   0  0  0  0  0  0  0  0  0  0  0  0
    2.6108   -2.6070    0.9117 C   0  0  0  0  0  0  0  0  0  0  0  0
    0.9423   -0.7078    1.9000 H   0  0  0  0  0  0  0  0  0  0  0  0
    0.7562   -2.6739   -0.1781 H   0  0  0  0  0  0  0  0  0  0  0  0
    1.9156   -1.5637   -0.8467 H   0  0  0  0  0  0  0  0  0  0  0  0
    2.2145   -3.0081    1.8470 H   0  0  0  0  0  0  0  0  0  0  0  0
    3.4051   -1.9013    1.1616 H   0  0  0  0  0  0  0  0  0  0  0  0
    3.0552   -3.4329    0.3544 H   0  0  0  0  0  0  0  0  0  0  0  0
  1  2  1  0
  1  5  1  0
  1  6  1  0
  1  7  1  0
  2  3  2  3
  2  9  1  0
  3  4  1  0
  8 10  1  0
 10 11  1  0
 10 13  1  0
 11 12  1  0
 11 14  1  0
 11 15  1  0
 12 16  1  0
 12 17  1  0
 12 18  1  0
M  RAD  2   4   2  10   2
M  END
>  <reaction>  (13) 
rmg_rxn_6

>  <mol_properties>  (13) 
{"1": {"label": "*1", "atom_type": "Cs"}, "2": {"label": "*0", "atom_type": "N3d"}, "7": {"label": "*2", "atom_type": "H0"}, "9": {"label": "*3", "atom_type": "Cs"}, "10": {"label": "*4", "atom_type": "Cs"}}

>  <type>  (13) 
unop_9

>  <geom_source>  (13) 
Heuristics

$$$$

     RDKit          3D

 18 16  0  0  0  0  0  0  0  0999 V2000
   -1.4043   -0.1675   -1.8918 C   0  0  0  0  0  0  0  0  0  0  0  0
   -1.4043   -0.1675   -0.3813 C   0  0  0  0  0  0  0  0  0  0  0  0
   -1.4043    1.1585    0.2822 N   0  0  0  0  0  0  0  0  0  0  0  0
   -1.4043    2.0880   -0.4655 O   0  0  0  0  0  1  0  0  0  0  0  0
   -0.5242    0.3399   -2.2863 H   0  0  0  0  0  0  0  0  0  0  0  0
   -1.4043   -1.1946   -2.2571 H   0  0  0  0  0  0  0  0  0  0  0  0
   -2.2845    0.3399   -2.2863 H   0  0  0  0  0  0  0  0  0  0  0  0
   -0.3589   -0.7762    0.1313 H   0  0  0  0  0  0  0  0  0  0  0  0
   -2.2755   -0.6748    0.0458 H   0  0  0  0  0  0  0  0  0  0  0  0
    0.6740   -1.3777    0.6377 C   0  0  0  0  0  3  0  0  0  0  0  0
    2.0489   -0.9017    0.3479 C   0  0  0  0  0  0  0  0  0  0  0  0
    2.9523   -0.8579    1.5755 C   0  0  0  0  0  0  0  0  0  0  0  0
    0.4547   -1.9205    1.5483 H   0  0  0  0  0  0  0  0  0  0  0  0
    2.5106   -1.5478   -0.4146 H   0  0  0  0  0  0  0  0  0  0  0  0
    2.0056    0.0897   -0.1185 H   0  0  0  0  0  0  0  0  0  0  0  0
    3.0386   -1.8478    2.0287 H   0  0  0  0  0  0  0  0  0  0  0  0
    2.5505   -0.1795    2.3303 H   0  0  0  0  0  0  0  0  0  0  0  0
    3.9564   -0.5192    1.3165 H   0  0  0  0  0  0  0  0  0  0  0  0
  1  2  1  0
  1  5  1  0
  1  6  1  0
  1  7  1  0
  2  3  2  3
  2  9  1  0
  3  4  1  0
  8 10  1  0
 10 11  1  0
 10 13  1  0
 11 12  1  0
 11 14  1  0
 11 15  1  0
 12 16  1  0
 12 17  1  0
 12 18  1  0
M  RAD  2   4   2  10   2
M  END
>  <reaction>  (14) 
rmg_rxn_6

>  <mol_properties>  (14) 
{"1": {"label": "*1", "atom_type": "Cs"}, "2": {"label": "*0", "atom_type": "N3d"}, "7": {"label": "*2", "atom_type": "H0"}, "9": {"label": "*3", "atom_type": "Cs"}, "10": {"label": "*4", "atom_type": "Cs"}}

>  <type>  (14) 
unop_10

>  <geom_source>  (14) 
Heuristics

$$$$

     RDKit          3D

 18 16  0  0  0  0  0  0  0  0999 V2000
   -1.0475    0.1876   -2.2785 C   0  0  0  0  0  0  0  0  0  0  0  0
   -1.0475    0.1876   -0.7680 C   0  0  0  0  0  0  0  0  0  0  0  0
   -1.0475    1.5136   -0.1044 N   0  0  0  0  0  0  0  0  0  0  0  0
   -1.0475    2.4431   -0.8521 O   0  0  0  0  0  1  0  0  0  0  0  0
   -0.1674    0.6950   -2.6730 H   0  0  0  0  0  0  0  0  0  0  0  0
   -1.0475   -0.8395   -2.6438 H   0  0  0  0  0  0  0  0  0  0  0  0
   -1.9276    0.6950   -2.6730 H   0  0  0  0  0  0  0  0  0  0  0  0
   -0.0021   -0.4211   -0.2554 H   0  0  0  0  0  0  0  0  0  0  0  0
   -1.9187   -0.3197   -0.3409 H   0  0  0  0  0  0  0  0  0  0  0  0
    1.0308   -1.0226    0.2510 C   0  0  0  0  0  3  0  0  0  0  0  0
    0.9434   -1.7088    1.5634 C   0  0  0  0  0  0  0  0  0  0  0  0
    2.2824   -1.8240    2.2836 C   0  0  0  0  0  0  0  0  0  0  0  0
    1.8871   -0.4093    0.0010 H   0  0  0  0  0  0  0  0  0  0  0  0
    0.2315   -1.1758    2.2124 H   0  0  0  0  0  0  0  0  0  0  0  0
    0.5048   -2.7049    1.4306 H   0  0  0  0  0  0  0  0  0  0  0  0
    2.7140   -0.8363    2.4600 H   0  0  0  0  0  0  0  0  0  0  0  0
    2.9957   -2.3982    1.6893 H   0  0  0  0  0  0  0  0  0  0  0  0
    2.1715   -2.3187    3.2495 H   0  0  0  0  0  0  0  0  0  0  0  0
  1  2  1  0
  1  5  1  0
  1  6  1  0
  1  7  1  0
  2  3  2  3
  2  9  1  0
  3  4  1  0
  8 10  1  0
 10 11  1  0
 10 13  1  0
 11 12  1  0
 11 14  1  0
 11 15  1  0
 12 16  1  0
 12 17  1  0
 12 18  1  0
M  RAD  2   4   2  10   2
M  END
>  <reaction>  (15) 
rmg_rxn_6

>  <mol_properties>  (15) 
{"1": {"label": "*1", "atom_type": "Cs"}, "2": {"label": "*0", "atom_type": "N3d"}, "7": {"label": "*2", "atom_type": "H0"}, "9": {"label": "*3", "atom_type": "Cs"}, "10": {"label": "*4", "atom_type": "Cs"}}

>  <type>  (15) 
unop_11

>  <geom_source>  (15) 
Heuristics

$$$$

     RDKit          3D

 18 16  0  0  0  0  0  0  0  0999 V2000
   -1.3600    0.2146   -1.6483 C   0  0  0  0  0  0  0  0  0  0  0  0
   -1.3600    0.2146   -0.1378 C   0  0  0  0  0  0  0  0  0  0  0  0
   -1.3600    1.5406    0.5257 N   0  0  0  0  0  0  0  0  0  0  0  0
   -1.3600    2.4702   -0.2220 O   0  0  0  0  0  1  0  0  0  0  0  0
   -0.4799    0.7220   -2.0428 H   0  0  0  0  0  0  0  0  0  0  0  0
   -1.3600   -0.8125   -2.0136 H   0  0  0  0  0  0  0  0  0  0  0  0
   -2.2401    0.7220   -2.0428 H   0  0  0  0  0  0  0  0  0  0  0  0
   -0.3145   -0.3941    0.3747 H   0  0  0  0  0  0  0  0  0  0  0  0
   -2.2312   -0.2927    0.2893 H   0  0  0  0  0  0  0  0  0  0  0  0
    0.7183   -0.9956    0.8812 C   0  0  0  0  0  3  0  0  0  0  0  0
    1.7528   -1.5980    0.0049 C   0  0  0  0  0  0  0  0  0  0  0  0
    3.0192   -2.0096    0.7477 C   0  0  0  0  0  0  0  0  0  0  0  0
    0.7519   -1.1319    1.9546 H   0  0  0  0  0  0  0  0  0  0  0  0
    1.3356   -2.4781   -0.5082 H   0  0  0  0  0  0  0  0  0  0  0  0
    2.0045   -0.9002   -0.8025 H   0  0  0  0  0  0  0  0  0  0  0  0
    2.7909   -2.7366    1.5300 H   0  0  0  0  0  0  0  0  0  0  0  0
    3.4902   -1.1465    1.2219 H   0  0  0  0  0  0  0  0  0  0  0  0
    3.7458   -2.4621    0.0714 H   0  0  0  0  0  0  0  0  0  0  0  0
  1  2  1  0
  1  5  1  0
  1  6  1  0
  1  7  1  0
  2  3  2  3
  2  9  1  0
  3  4  1  0
  8 10  1  0
 10 11  1  0
 10 13  1  0
 11 12  1  0
 11 14  1  0
 11 15  1  0
 12 16  1  0
 12 17  1  0
 12 18  1  0
M  RAD  2   4   2  10   2
M  END
>  <reaction>  (16) 
rmg_rxn_6

>  <mol_properties>  (16) 
{"1": {"label": "*1", "atom_type": "Cs"}, "2": {"label": "*0", "atom_type": "N3d"}, "7": {"label": "*2", "atom_type": "H0"}, "9": {"label": "*3", "atom_type": "Cs"}, "10": {"label": "*4", "atom_type": "Cs"}}

>  <type>  (16) 
unop_12

>  <geom_source>  (16) 
Heuristics

$$$$

     RDKit          3D

 18 16  0  0  0  0  0  0  0  0999 V2000
    0.6560    1.6529   -0.8032 O   0  0  0  0  0  1  0  0  0  0  0  0
    1.0828    1.2308    0.2283 N   0  0  0  0  0  0  0  0  0  0  0  0
   -1.7380   -0.2046   -0.5542 C   0  0  0  0  0  0  0  0  0  0  0  0
   -2.0146    0.9483    0.4049 C   0  0  0  0  0  0  0  0  0  0  0  0
    2.6285   -0.5345   -0.4315 C   0  0  0  0  0  0  0  0  0  0  0  0
    1.3882   -0.1695    0.3731 C   0  0  0  0  0  0  0  0  0  0  0  0
   -0.9456   -1.3109    0.1283 C   0  0  0  0  0  3  0  0  0  0  0  0
   -1.1587    0.1697   -1.4246 H   0  0  0  0  0  0  0  0  0  0  0  0
   -2.7002   -0.6197   -0.9227 H   0  0  0  0  0  0  0  0  0  0  0  0
   -2.6086    0.5933    1.2740 H   0  0  0  0  0  0  0  0  0  0  0  0
   -1.0602    1.3869    0.7668 H   0  0  0  0  0  0  0  0  0  0  0  0
   -2.5915    1.7381   -0.1208 H   0  0  0  0  0  0  0  0  0  0  0  0
    3.4986    0.0650   -0.0888 H   0  0  0  0  0  0  0  0  0  0  0  0
    2.8544   -1.6121   -0.2914 H   0  0  0  0  0  0  0  0  0  0  0  0
    2.4516   -0.3457   -1.5112 H   0  0  0  0  0  0  0  0  0  0  0  0
    1.5629   -0.3963    1.4460 H   0  0  0  0  0  0  0  0  0  0  0  0
   -1.5166   -1.7359    0.9812 H   0  0  0  0  0  0  0  0  0  0  0  0
    0.2112   -0.8559    0.5457 H   0  0  0  0  0  0  0  0  0  0  0  0
  1  2  1  0
  2  6  2  3
  3  7  1  0
  3  4  1  0
  3  8  1  0
  3  9  1  0
  4 10  1  0
  4 11  1  0
  4 12  1  0
  5  6  1  0
  5 13  1  0
  5 14  1  0
  5 15  1  0
  6 16  1  0
  7 17  1  0
  7 18  1  0
M  RAD  2   1   2   7   2
M  END
>  <reaction>  (17) 
rmg_rxn_6

>  <mol_properties>  (17) 
{"1": {"label": "*1", "atom_type": "Cs"}, "2": {"label": "*0", "atom_type": "N3d"}, "7": {"label": "*2", "atom_type": "H0"}, "9": {"label": "*3", "atom_type": "Cs"}, "10": {"label": "*4", "atom_type": "Cs"}}

>  <type>  (17) 
unop_13

>  <geom_source>  (17) 
AutoTST

$$$$

     RDKit          3D

 18 16  0  0  0  0  0  0  0  0999 V2000
   -1.4284   -0.0061   -1.7212 C   0  0  0  0  0  0  0  0  0  0  0  0
   -1.4284   -0.0061   -0.2107 C   0  0  0  0  0  0  0  0  0  0  0  0
   -1.4284    1.3199    0.4528 N   0  0  0  0  0  0  0  0  0  0  0  0
   -1.4284    2.2494   -0.2949 O   0  0  0  0  0  1  0  0  0  0  0  0
   -0.5483    0.5013   -2.1157 H   0  0  0  0  0  0  0  0  0  0  0  0
   -1.4284   -1.0332   -2.0865 H   0  0  0  0  0  0  0  0  0  0  0  0
   -2.3086    0.5013   -2.1157 H   0  0  0  0  0  0  0  0  0  0  0  0
   -0.3830   -0.6148    0.3019 H   0  0  0  0  0  0  0  0  0  0  0  0
   -2.2996   -0.5134    0.2164 H   0  0  0  0  0  0  0  0  0  0  0  0
    0.6499   -1.2163    0.8083 C   0  0  0  0  0  3  0  0  0  0  0  0
    1.9473   -1.2348    0.0891 C   0  0  0  0  0  0  0  0  0  0  0  0
    3.1578   -1.3091    1.0135 C   0  0  0  0  0  0  0  0  0  0  0  0
    0.5824   -1.5363    1.8403 H   0  0  0  0  0  0  0  0  0  0  0  0
    1.9729   -2.0888   -0.6051 H   0  0  0  0  0  0  0  0  0  0  0  0
    2.0245   -0.3513   -0.5556 H   0  0  0  0  0  0  0  0  0  0  0  0
    3.1165   -2.2063    1.6349 H   0  0  0  0  0  0  0  0  0  0  0  0
    3.1932   -0.4442    1.6785 H   0  0  0  0  0  0  0  0  0  0  0  0
    4.0887   -1.3373    0.4455 H   0  0  0  0  0  0  0  0  0  0  0  0
  1  2  1  0
  1  5  1  0
  1  6  1  0
  1  7  1  0
  2  3  2  3
  2  9  1  0
  3  4  1  0
  8 10  1  0
 10 11  1  0
 10 13  1  0
 11 12  1  0
 11 14  1  0
 11 15  1  0
 12 16  1  0
 12 17  1  0
 12 18  1  0
M  RAD  2   4   2  10   2
M  END
>  <reaction>  (18) 
rmg_rxn_6

>  <mol_properties>  (18) 
{"1": {"label": "*1", "atom_type": "Cs"}, "2": {"label": "*0", "atom_type": "N3d"}, "7": {"label": "*2", "atom_type": "H0"}, "9": {"label": "*3", "atom_type": "Cs"}, "10": {"label": "*4", "atom_type": "Cs"}}

>  <type>  (18) 
unop_14

>  <geom_source>  (18) 
gaussian_log

$$$$
