
     RDKit          3D

  7  6  0  0  0  0  0  0  0  0999 V2000
   -0.8548    0.0121    0.2120 C   0  0  0  0  0  0  0  0  0  0  0  0
    0.1921   -0.9637    0.4698 N   0  0  0  0  0  0  0  0  0  0  0  0
    0.8785   -1.2092   -0.5201 N   0  0  0  0  0  0  0  0  0  0  0  0
   -1.8110   -0.4522    0.4600 H   0  0  0  0  0  0  0  0  0  0  0  0
   -0.7101    0.8457    0.9015 H   0  0  0  0  0  0  0  0  0  0  0  0
   -0.8478    0.3585   -0.8239 H   0  0  0  0  0  0  0  0  0  0  0  0
    1.5811   -1.9033   -0.2318 H   0  0  0  0  0  0  0  0  0  0  0  0
  1  2  1  0
  1  4  1  0
  1  5  1  0
  1  6  1  0
  2  3  2  3
  3  7  1  0
M  END
>  <reaction>  (1) 
rmg_rxn_15647

>  <mol_properties>  (1) 
{"0": {"label": "donator", "atom_type": "Cs"}, "3": {"label": "d_hydrogen", "atom_type": "H0"}}

>  <type>  (1) 
r1h

$$$$

     RDKit          3D

  8  7  0  0  0  0  0  0  0  0999 V2000
    1.7077   -0.1964   -0.0607 C   0  0  0  0  0  3  0  0  0  0  0  0
    0.4209   -0.4565    0.2808 O   0  0  0  0  0  0  0  0  0  0  0  0
   -0.4607    0.4385   -0.2968 N   0  0  0  0  0  0  0  0  0  0  0  0
   -1.6584    0.1416   -0.0244 C   0  0  0  0  0  0  0  0  0  0  0  0
    2.4163   -0.7685    0.5170 H   0  0  0  0  0  0  0  0  0  0  0  0
    1.9214    0.7645   -0.5045 H   0  0  0  0  0  0  0  0  0  0  0  0
   -2.4185    0.7953   -0.4307 H   0  0  0  0  0  0  0  0  0  0  0  0
   -1.9286   -0.7185    0.5831 H   0  0  0  0  0  0  0  0  0  0  0  0
  1  2  1  0
  1  5  1  0
  1  6  1  0
  2  3  1  0
  3  4  2  3
  4  7  1  0
  4  8  1  0
M  RAD  1   1   2
M  END
>  <reaction>  (2) 
rmg_rxn_15647

>  <mol_properties>  (2) 
{"0": {"label": "acceptor", "atom_type": "Cs"}}

>  <type>  (2) 
r2

$$$$

     RDKit          3D

  9  8  0  0  0  0  0  0  0  0999 V2000
   -1.5470   -0.0755   -0.1976 C   0  0  0  0  0  0  0  0  0  0  0  0
   -0.2885    0.4507    0.1749 O   0  0  0  0  0  0  0  0  0  0  0  0
   -0.1502    1.7216   -0.3294 N   0  0  0  0  0  0  0  0  0  0  0  0
    0.9626    2.2353   -0.0219 C   0  0  0  0  0  0  0  0  0  0  0  0
   -1.6392   -0.1356   -1.2844 H   0  0  0  0  0  0  0  0  0  0  0  0
   -2.3597    0.5337    0.2044 H   0  0  0  0  0  0  0  0  0  0  0  0
   -1.5879   -1.0750    0.2318 H   0  0  0  0  0  0  0  0  0  0  0  0
    1.1497    3.2381   -0.3820 H   0  0  0  0  0  0  0  0  0  0  0  0
    1.7060    1.7101    0.5739 H   0  0  0  0  0  0  0  0  0  0  0  0
  1  2  1  0
  1  5  1  0
  1  6  1  0
  1  7  1  0
  2  3  1  0
  3  4  2  3
  4  8  1  0
  4  9  1  0
M  END
>  <reaction>  (3) 
rmg_rxn_15647

>  <mol_properties>  (3) 
{"0": {"label": "a_hydrogen", "atom_type": "H0"}, "1": {"label": "acceptor", "atom_type": "Cs"}}

>  <type>  (3) 
r2h

$$$$

     RDKit          3D

 15 13  0  0  0  0  0  0  0  0999 V2000
    1.3657    0.9685   -0.9744 C   0  0  0  0  0  0  0  0  0  0  0  0
    1.8646   -0.3405   -0.9512 N   0  0  0  0  0  0  0  0  0  0  0  0
    1.0400   -1.2032   -1.3175 N   0  0  0  0  0  0  0  0  0  0  0  0
    0.8919    1.1659    0.2321 H   0  0  0  0  0  0  0  0  0  0  0  0
    2.1521    1.7136   -1.0534 H   0  0  0  0  0  0  0  0  0  0  0  0
    0.4914    1.1324   -1.6068 H   0  0  0  0  0  0  0  0  0  0  0  0
    1.5115   -2.1103   -1.2299 H   0  0  0  0  0  0  0  0  0  0  0  0
    0.1990    1.1852    1.4388 C   0  0  0  0  0  3  0  0  0  0  0  0
   -0.5731    0.0553    1.4436 O   0  0  0  0  0  0  0  0  0  0  0  0
   -1.6952    0.2285    0.6419 N   0  0  0  0  0  0  0  0  0  0  0  0
   -2.2191   -0.8820    0.3509 C   0  0  0  0  0  0  0  0  0  0  0  0
   -0.3663    2.1149    1.4112 H   0  0  0  0  0  0  0  0  0  0  0  0
    0.9670    1.1052    2.2020 H   0  0  0  0  0  0  0  0  0  0  0  0
   -3.1144   -0.8465   -0.2553 H   0  0  0  0  0  0  0  0  0  0  0  0
   -1.8037   -1.8314    0.6774 H   0  0  0  0  0  0  0  0  0  0  0  0
  1  2  1  0
  1  4  1  0
  1  5  1  0
  1  6  1  0
  2  3  2  3
  3  7  1  0
  8  9  1  0
  8 12  1  0
  8 13  1  0
  9 10  1  0
 10 11  2  3
 11 14  1  0
 11 15  1  0
M  RAD  1   8   2
M  END
>  <reaction>  (4) 
rmg_rxn_15647

>  <mol_properties>  (4) 
{"0": {"label": "*1", "atom_type": "Cs"}, "1": {"label": "*0", "atom_type": "N3d"}, "3": {"label": "*2", "atom_type": "H0"}, "7": {"label": "*3", "atom_type": "Cs"}, "8": {"label": "*4", "atom_type": "O2s"}}

>  <type>  (4) 
ts

$$$$

     RDKit          3D

 15 13  0  0  0  0  0  0  0  0999 V2000
    1.4076   -0.9314    0.6915 C   0  0  0  0  0  3  0  0  0  0  0  0
    2.2918   -0.2148    0.0493 N   0  0  0  0  0  0  0  0  0  0  0  0
    2.1862    0.9721   -0.3647 N   0  0  0  0  0  0  0  0  0  0  0  0
    0.2516   -1.0602   -0.0800 H   0  0  0  0  0  0  0  0  0  0  0  0
    1.6866   -1.9729    0.8009 H   0  0  0  0  0  0  0  0  0  0  0  0
    0.9121   -0.4966    1.5632 H   0  0  0  0  0  0  0  0  0  0  0  0
    3.0906    1.3508   -0.6421 H   0  0  0  0  0  0  0  0  0  0  0  0
   -0.8193   -1.1490   -0.7263 C   0  0  0  0  0  0  0  0  0  0  0  0
   -1.8921   -0.6903    0.0472 O   0  0  0  0  0  0  0  0  0  0  0  0
   -2.0100    0.6218    0.3613 N   0  0  0  0  0  0  0  0  0  0  0  0
   -1.1645    1.4883    0.0140 C   0  0  0  0  0  0  0  0  0  0  0  0
   -1.0164   -2.2005   -0.9111 H   0  0  0  0  0  0  0  0  0  0  0  0
   -0.6930   -0.5922   -1.6571 H   0  0  0  0  0  0  0  0  0  0  0  0
   -1.3821    2.4938    0.3316 H   0  0  0  0  0  0  0  0  0  0  0  0
   -0.2456    1.3293   -0.5437 H   0  0  0  0  0  0  0  0  0  0  0  0
  1  2  1  0
  1  5  1  0
  1  6  1  0
  2  3  2  3
  3  7  1  0
  4  8  1  0
  8  9  1  0
  8 12  1  0
  8 13  1  0
  9 10  1  0
 10 11  2  3
 11 14  1  0
 11 15  1  0
M  RAD  1   1   2
M  END
>  <reaction>  (5) 
rmg_rxn_15647

>  <mol_properties>  (5) 
{"0": {"label": "*1", "atom_type": "Cs"}, "1": {"label": "*0", "atom_type": "N3d"}, "3": {"label": "*2", "atom_type": "H0"}, "7": {"label": "*3", "atom_type": "Cs"}, "8": {"label": "*4", "atom_type": "O2s"}}

>  <type>  (5) 
unop_1

>  <geom_source>  (5) 
crest_best.xyz

$$$$

     RDKit          3D

 15 13  0  0  0  0  0  0  0  0999 V2000
    1.1657   -0.1512   -1.4292 C   0  0  0  0  0  0  0  0  0  0  0  0
    1.1657   -1.4883   -2.0010 N   0  0  0  0  0  0  0  0  0  0  0  0
    1.1657   -1.4883   -3.2303 N   0  0  0  0  0  2  0  0  0  0  0  0
    0.1108   -0.0456   -0.6601 H   0  0  0  0  0  0  0  0  0  0  0  0
    2.0448   -0.0632   -0.7883 H   0  0  0  0  0  0  0  0  0  0  0  0
    1.1657    0.6247   -2.1981 H   0  0  0  0  0  0  0  0  0  0  0  0
    1.1657   -2.4728   -3.5290 H   0  0  0  0  0  0  0  0  0  0  0  0
   -0.9414    0.0597    0.1070 C   0  0  0  0  0  0  0  0  0  0  0  0
   -0.4456    0.3381    1.4017 O   0  0  0  0  0  0  0  0  0  0  0  0
   -1.2758    1.2332    2.0329 N   0  0  0  0  0  0  0  0  0  0  0  0
   -0.8729    1.5139    3.1972 C   0  0  0  0  0  0  0  0  0  0  0  0
   -1.9371   -0.3866    0.1575 H   0  0  0  0  0  0  0  0  0  0  0  0
   -0.9784    0.9667   -0.5006 H   0  0  0  0  0  0  0  0  0  0  0  0
   -1.4733    2.2141    3.7624 H   0  0  0  0  0  0  0  0  0  0  0  0
    0.0296    1.0826    3.6250 H   0  0  0  0  0  0  0  0  0  0  0  0
  1  2  2  3
  1  5  1  0
  1  6  1  0
  2  3  1  0
  3  7  1  0
  4  8  1  0
  8  9  1  0
  8 12  1  0
  8 13  1  0
  9 10  1  0
 10 11  2  3
 11 14  1  0
 11 15  1  0
M  RAD  1   3   2
M  END
>  <reaction>  (6) 
rmg_rxn_15647

>  <mol_properties>  (6) 
{"0": {"label": "*1", "atom_type": "Cs"}, "1": {"label": "*0", "atom_type": "N3d"}, "3": {"label": "*2", "atom_type": "H0"}, "7": {"label": "*3", "atom_type": "Cs"}, "8": {"label": "*4", "atom_type": "O2s"}}

>  <type>  (6) 
unop_2

>  <geom_source>  (6) 
Heuristics

$$$$

     RDKit          3D

 15 13  0  0  0  0  0  0  0  0999 V2000
    1.6741    1.3476    0.3062 C   0  0  0  0  0  0  0  0  0  0  0  0
    2.3854    0.3944   -0.1162 N   0  0  0  0  0  0  0  0  0  0  0  0
    2.2223   -0.8456   -0.2439 N   0  0  0  0  0  2  0  0  0  0  0  0
    0.3177   -1.4313    0.0724 H   0  0  0  0  0  0  0  0  0  0  0  0
    2.1663    2.2807    0.5203 H   0  0  0  0  0  0  0  0  0  0  0  0
    0.5935    1.2773    0.4196 H   0  0  0  0  0  0  0  0  0  0  0  0
    2.7602   -1.2452   -1.0075 H   0  0  0  0  0  0  0  0  0  0  0  0
   -0.7227   -1.6816    0.3411 C   0  0  0  0  0  0  0  0  0  0  0  0
   -1.6904   -0.8094   -0.1904 O   0  0  0  0  0  0  0  0  0  0  0  0
   -1.4543    0.4981    0.1707 N   0  0  0  0  0  0  0  0  0  0  0  0
   -2.2921    1.3488   -0.2291 C   0  0  0  0  0  0  0  0  0  0  0  0
   -0.5646   -1.5760    1.3964 H   0  0  0  0  0  0  0  0  0  0  0  0
   -1.0028   -2.6840    0.0459 H   0  0  0  0  0  0  0  0  0  0  0  0
   -2.1105    2.3733    0.0451 H   0  0  0  0  0  0  0  0  0  0  0  0
   -3.1700    1.1100   -0.8217 H   0  0  0  0  0  0  0  0  0  0  0  0
  1  2  2  3
  1  5  1  0
  1  6  1  0
  2  3  1  0
  3  7  1  0
  4  8  1  0
  8  9  1  0
  8 12  1  0
  8 13  1  0
  9 10  1  0
 10 11  2  3
 11 14  1  0
 11 15  1  0
M  RAD  1   3   2
M  END
>  <reaction>  (7) 
rmg_rxn_15647

>  <mol_properties>  (7) 
{"0": {"label": "*1", "atom_type": "Cs"}, "1": {"label": "*0", "atom_type": "N3d"}, "3": {"label": "*2", "atom_type": "H0"}, "7": {"label": "*3", "atom_type": "Cs"}, "8": {"label": "*4", "atom_type": "O2s"}}

>  <type>  (7) 
unop_3

>  <geom_source>  (7) 
Heuristics

$$$$

     RDKit          3D

 15 13  0  0  0  0  0  0  0  0999 V2000
    1.5693    0.9587   -1.1238 C   0  0  0  0  0  0  0  0  0  0  0  0
    1.5693   -0.3783   -1.6956 N   0  0  0  0  0  0  0  0  0  0  0  0
    1.5693   -0.3783   -2.9249 N   0  0  0  0  0  2  0  0  0  0  0  0
    0.5143    1.0643   -0.3547 H   0  0  0  0  0  0  0  0  0  0  0  0
    2.4484    1.0467   -0.4829 H   0  0  0  0  0  0  0  0  0  0  0  0
    1.5693    1.7347   -1.8927 H   0  0  0  0  0  0  0  0  0  0  0  0
    1.5693   -1.3629   -3.2236 H   0  0  0  0  0  0  0  0  0  0  0  0
   -0.5378    1.1697    0.4124 C   0  0  0  0  0  0  0  0  0  0  0  0
   -0.7875   -0.1333    0.9017 O   0  0  0  0  0  0  0  0  0  0  0  0
   -1.5920   -0.0641    2.0138 N   0  0  0  0  0  0  0  0  0  0  0  0
   -1.8438   -1.2077    2.4888 C   0  0  0  0  0  0  0  0  0  0  0  0
   -1.4682    1.6627    0.1215 H   0  0  0  0  0  0  0  0  0  0  0  0
   -0.0220    1.7758    1.1605 H   0  0  0  0  0  0  0  0  0  0  0  0
   -2.4731   -1.2396    3.3682 H   0  0  0  0  0  0  0  0  0  0  0  0
   -1.4558   -2.1237    2.0485 H   0  0  0  0  0  0  0  0  0  0  0  0
  1  2  2  3
  1  5  1  0
  1  6  1  0
  2  3  1  0
  3  7  1  0
  4  8  1  0
  8  9  1  0
  8 12  1  0
  8 13  1  0
  9 10  1  0
 10 11  2  3
 11 14  1  0
 11 15  1  0
M  RAD  1   3   2
M  END
>  <reaction>  (8) 
rmg_rxn_15647

>  <mol_properties>  (8) 
{"0": {"label": "*1", "atom_type": "Cs"}, "1": {"label": "*0", "atom_type": "N3d"}, "3": {"label": "*2", "atom_type": "H0"}, "7": {"label": "*3", "atom_type": "Cs"}, "8": {"label": "*4", "atom_type": "O2s"}}

>  <type>  (8) 
unop_4

>  <geom_source>  (8) 
Heuristics

$$$$

     RDKit          3D

 15 13  0  0  0  0  0  0  0  0999 V2000
    1.3272   -0.4201   -1.2361 C   0  0  0  0  0  0  0  0  0  0  0  0
    1.3272   -1.7572   -1.8079 N   0  0  0  0  0  0  0  0  0  0  0  0
    1.3272   -1.7572   -3.0372 N   0  0  0  0  0  2  0  0  0  0  0  0
    0.2722   -0.3145   -0.4670 H   0  0  0  0  0  0  0  0  0  0  0  0
    2.2063   -0.3321   -0.5952 H   0  0  0  0  0  0  0  0  0  0  0  0
    1.3272    0.3558   -2.0050 H   0  0  0  0  0  0  0  0  0  0  0  0
    1.3272   -2.7417   -3.3359 H   0  0  0  0  0  0  0  0  0  0  0  0
   -0.7799   -0.2091    0.3001 C   0  0  0  0  0  0  0  0  0  0  0  0
   -0.4215    0.7031    1.3194 O   0  0  0  0  0  0  0  0  0  0  0  0
   -1.5491    1.3187    1.8075 N   0  0  0  0  0  0  0  0  0  0  0  0
   -1.2789    2.1458    2.7237 C   0  0  0  0  0  0  0  0  0  0  0  0
   -1.4437   -0.9858    0.6865 H   0  0  0  0  0  0  0  0  0  0  0  0
   -1.2660    0.3057   -0.5317 H   0  0  0  0  0  0  0  0  0  0  0  0
   -2.1150    2.6742    3.1619 H   0  0  0  0  0  0  0  0  0  0  0  0
   -0.2629    2.3295    3.0666 H   0  0  0  0  0  0  0  0  0  0  0  0
  1  2  2  3
  1  5  1  0
  1  6  1  0
  2  3  1  0
  3  7  1  0
  4  8  1  0
  8  9  1  0
  8 12  1  0
  8 13  1  0
  9 10  1  0
 10 11  2  3
 11 14  1  0
 11 15  1  0
M  RAD  1   3   2
M  END
>  <reaction>  (9) 
rmg_rxn_15647

>  <mol_properties>  (9) 
{"0": {"label": "*1", "atom_type": "Cs"}, "1": {"label": "*0", "atom_type": "N3d"}, "3": {"label": "*2", "atom_type": "H0"}, "7": {"label": "*3", "atom_type": "Cs"}, "8": {"label": "*4", "atom_type": "O2s"}}

>  <type>  (9) 
unop_5

>  <geom_source>  (9) 
Heuristics

$$$$

     RDKit          3D

 15 13  0  0  0  0  0  0  0  0999 V2000
    2.1220    0.1670   -0.1964 C   0  0  0  0  0  0  0  0  0  0  0  0
    2.1220   -1.1701   -0.7682 N   0  0  0  0  0  0  0  0  0  0  0  0
    2.1220   -1.1701   -1.9975 N   0  0  0  0  0  2  0  0  0  0  0  0
    1.0671    0.2726    0.5727 H   0  0  0  0  0  0  0  0  0  0  0  0
    3.0011    0.2550    0.4445 H   0  0  0  0  0  0  0  0  0  0  0  0
    2.1220    0.9429   -0.9653 H   0  0  0  0  0  0  0  0  0  0  0  0
    2.1220   -2.1547   -2.2962 H   0  0  0  0  0  0  0  0  0  0  0  0
    0.0149    0.3779    1.3398 C   0  0  0  0  0  0  0  0  0  0  0  0
   -1.0984    0.1613    0.4953 O   0  0  0  0  0  0  0  0  0  0  0  0
   -2.1685    0.8994    0.9412 N   0  0  0  0  0  0  0  0  0  0  0  0
   -3.1908    0.7383    0.2161 C   0  0  0  0  0  0  0  0  0  0  0  0
    0.3096    1.4297    1.3357 H   0  0  0  0  0  0  0  0  0  0  0  0
   -0.2040    0.0642    2.3629 H   0  0  0  0  0  0  0  0  0  0  0  0
   -4.0787    1.2867    0.5011 H   0  0  0  0  0  0  0  0  0  0  0  0
   -3.1953    0.0854   -0.6540 H   0  0  0  0  0  0  0  0  0  0  0  0
  1  2  2  3
  1  5  1  0
  1  6  1  0
  2  3  1  0
  3  7  1  0
  4  8  1  0
  8  9  1  0
  8 12  1  0
  8 13  1  0
  9 10  1  0
 10 11  2  3
 11 14  1  0
 11 15  1  0
M  RAD  1   3   2
M  END
>  <reaction>  (10) 
rmg_rxn_15647

>  <mol_properties>  (10) 
{"0": {"label": "*1", "atom_type": "Cs"}, "1": {"label": "*0", "atom_type": "N3d"}, "3": {"label": "*2", "atom_type": "H0"}, "7": {"label": "*3", "atom_type": "Cs"}, "8": {"label": "*4", "atom_type": "O2s"}}

>  <type>  (10) 
unop_6

>  <geom_source>  (10) 
Heuristics

$$$$

     RDKit          3D

 15 13  0  0  0  0  0  0  0  0999 V2000
    1.6762    1.3396    0.3242 C   0  0  0  0  0  0  0  0  0  0  0  0
    2.3816    0.3904   -0.1167 N   0  0  0  0  0  0  0  0  0  0  0  0
    2.2134   -0.8471   -0.2614 N   0  0  0  0  0  2  0  0  0  0  0  0
    0.3116   -1.4393    0.0734 H   0  0  0  0  0  0  0  0  0  0  0  0
    2.1730    2.2677    0.5490 H   0  0  0  0  0  0  0  0  0  0  0  0
    0.5961    1.2712    0.4426 H   0  0  0  0  0  0  0  0  0  0  0  0
    2.7446   -1.2372   -1.0346 H   0  0  0  0  0  0  0  0  0  0  0  0
   -0.7294   -1.6816    0.3503 C   0  0  0  0  0  0  0  0  0  0  0  0
   -1.6928   -0.8068   -0.1854 O   0  0  0  0  0  0  0  0  0  0  0  0
   -1.4480    0.5012    0.1680 N   0  0  0  0  0  0  0  0  0  0  0  0
   -2.2773    1.3560   -0.2403 C   0  0  0  0  0  0  0  0  0  0  0  0
   -0.5739   -1.5722    1.4061 H   0  0  0  0  0  0  0  0  0  0  0  0
   -1.0165   -2.6838    0.0607 H   0  0  0  0  0  0  0  0  0  0  0  0
   -2.0878    2.3808    0.0276 H   0  0  0  0  0  0  0  0  0  0  0  0
   -3.1546    1.1208   -0.8351 H   0  0  0  0  0  0  0  0  0  0  0  0
  1  2  2  3
  1  5  1  0
  1  6  1  0
  2  3  1  0
  3  7  1  0
  4  8  1  0
  8  9  1  0
  8 12  1  0
  8 13  1  0
  9 10  1  0
 10 11  2  3
 11 14  1  0
 11 15  1  0
M  RAD  1   3   2
M  END
>  <reaction>  (11) 
rmg_rxn_15647

>  <mol_properties>  (11) 
{"0": {"label": "*1", "atom_type": "Cs"}, "1": {"label": "*0", "atom_type": "N3d"}, "3": {"label": "*2", "atom_type": "H0"}, "7": {"label": "*3", "atom_type": "Cs"}, "8": {"label": "*4", "atom_type": "O2s"}}

>  <type>  (11) 
unop_7

>  <geom_source>  (11) 
Heuristics

$$$$

     RDKit          3D

 15 13  0  0  0  0  0  0  0  0999 V2000
    1.4877   -0.5194   -1.0644 C   0  0  0  0  0  0  0  0  0  0  0  0
    1.4877   -1.8565   -1.6362 N   0  0  0  0  0  0  0  0  0  0  0  0
    1.4877   -1.8565   -2.8656 N   0  0  0  0  0  2  0  0  0  0  0  0
    0.4327   -0.4138   -0.2954 H   0  0  0  0  0  0  0  0  0  0  0  0
    2.3668   -0.4314   -0.4235 H   0  0  0  0  0  0  0  0  0  0  0  0
    1.4877    0.2565   -1.8333 H   0  0  0  0  0  0  0  0  0  0  0  0
    1.4877   -2.8411   -3.1643 H   0  0  0  0  0  0  0  0  0  0  0  0
   -0.6195   -0.3085    0.4717 C   0  0  0  0  0  0  0  0  0  0  0  0
   -0.5771    1.0013    1.0028 O   0  0  0  0  0  0  0  0  0  0  0  0
   -1.6569    1.2011    1.8292 N   0  0  0  0  0  0  0  0  0  0  0  0
   -1.6629    2.3615    2.3295 C   0  0  0  0  0  0  0  0  0  0  0  0
   -0.5731   -1.0547    1.2681 H   0  0  0  0  0  0  0  0  0  0  0  0
   -1.5252   -0.4613   -0.1194 H   0  0  0  0  0  0  0  0  0  0  0  0
   -2.4830    2.5988    2.9938 H   0  0  0  0  0  0  0  0  0  0  0  0
   -0.8905    3.0967    2.1139 H   0  0  0  0  0  0  0  0  0  0  0  0
  1  2  2  3
  1  5  1  0
  1  6  1  0
  2  3  1  0
  3  7  1  0
  4  8  1  0
  8  9  1  0
  8 12  1  0
  8 13  1  0
  9 10  1  0
 10 11  2  3
 11 14  1  0
 11 15  1  0
M  RAD  1   3   2
M  END
>  <reaction>  (12) 
rmg_rxn_15647

>  <mol_properties>  (12) 
{"0": {"label": "*1", "atom_type": "Cs"}, "1": {"label": "*0", "atom_type": "N3d"}, "3": {"label": "*2", "atom_type": "H0"}, "7": {"label": "*3", "atom_type": "Cs"}, "8": {"label": "*4", "atom_type": "O2s"}}

>  <type>  (12) 
unop_8

>  <geom_source>  (12) 
Heuristics

$$$$

     RDKit          3D

 15 13  0  0  0  0  0  0  0  0999 V2000
   -1.6790   -0.7807   -0.6682 C   0  0  0  0  0  0  0  0  0  0  0  0
   -2.1593    0.2105    0.0607 N   0  0  0  0  0  0  0  0  0  0  0  0
   -1.6981    1.2934    0.4217 N   0  0  0  0  0  2  0  0  0  0  0  0
   -0.5637   -1.3208   -0.0401 H   0  0  0  0  0  0  0  0  0  0  0  0
   -2.3465   -1.6313   -0.7511 H   0  0  0  0  0  0  0  0  0  0  0  0
   -1.1703   -0.5169   -1.5996 H   0  0  0  0  0  0  0  0  0  0  0  0
   -0.6720    1.4085    0.3394 H   0  0  0  0  0  0  0  0  0  0  0  0
    0.5468   -1.6497    0.4687 C   0  0  0  0  0  0  0  0  0  0  0  0
    1.5409   -0.8051   -0.0432 O   0  0  0  0  0  0  0  0  0  0  0  0
    1.1862    0.5280    0.0399 N   0  0  0  0  0  0  0  0  0  0  0  0
    2.0779    1.3664   -0.2587 C   0  0  0  0  0  0  0  0  0  0  0  0
    0.8044   -2.6567    0.1574 H   0  0  0  0  0  0  0  0  0  0  0  0
    0.4490   -1.5667    1.5524 H   0  0  0  0  0  0  0  0  0  0  0  0
    1.8020    2.4056   -0.2145 H   0  0  0  0  0  0  0  0  0  0  0  0
    3.0873    1.1002   -0.5548 H   0  0  0  0  0  0  0  0  0  0  0  0
  1  2  2  3
  1  5  1  0
  1  6  1  0
  2  3  1  0
  3  7  1  0
  4  8  1  0
  8  9  1  0
  8 12  1  0
  8 13  1  0
  9 10  1  0
 10 11  2  3
 11 14  1  0
 11 15  1  0
M  RAD  1   3   2
M  END
>  <reaction>  (13) 
rmg_rxn_15647

>  <mol_properties>  (13) 
{"0": {"label": "*1", "atom_type": "Cs"}, "1": {"label": "*0", "atom_type": "N3d"}, "3": {"label": "*2", "atom_type": "H0"}, "7": {"label": "*3", "atom_type": "Cs"}, "8": {"label": "*4", "atom_type": "O2s"}}

>  <type>  (13) 
unop_9

>  <geom_source>  (13) 
Heuristics

$$$$

     RDKit          3D

 15 13  0  0  0  0  0  0  0  0999 V2000
    1.9923   -0.2664   -0.2740 C   0  0  0  0  0  0  0  0  0  0  0  0
    1.9923   -1.6035   -0.8458 N   0  0  0  0  0  0  0  0  0  0  0  0
    1.9923   -1.6035   -2.0752 N   0  0  0  0  0  2  0  0  0  0  0  0
    0.9374   -0.1608    0.4950 H   0  0  0  0  0  0  0  0  0  0  0  0
    2.8714   -0.1784    0.3668 H   0  0  0  0  0  0  0  0  0  0  0  0
    1.9923    0.5095   -1.0429 H   0  0  0  0  0  0  0  0  0  0  0  0
    1.9923   -2.5881   -2.3739 H   0  0  0  0  0  0  0  0  0  0  0  0
   -0.1148   -0.0555    1.2621 C   0  0  0  0  0  0  0  0  0  0  0  0
   -1.1499    0.4280    0.4288 O   0  0  0  0  0  0  0  0  0  0  0  0
   -1.9197    1.3305    1.1228 N   0  0  0  0  0  0  0  0  0  0  0  0
   -2.8612    1.7920    0.4175 C   0  0  0  0  0  0  0  0  0  0  0  0
    0.5368    0.7584    1.5880 H   0  0  0  0  0  0  0  0  0  0  0  0
   -0.5238   -0.5677    2.1359 H   0  0  0  0  0  0  0  0  0  0  0  0
   -3.5151    2.5111    0.8922 H   0  0  0  0  0  0  0  0  0  0  0  0
   -3.0204    1.4923   -0.6162 H   0  0  0  0  0  0  0  0  0  0  0  0
  1  2  2  3
  1  5  1  0
  1  6  1  0
  2  3  1  0
  3  7  1  0
  4  8  1  0
  8  9  1  0
  8 12  1  0
  8 13  1  0
  9 10  1  0
 10 11  2  3
 11 14  1  0
 11 15  1  0
M  RAD  1   3   2
M  END
>  <reaction>  (14) 
rmg_rxn_15647

>  <mol_properties>  (14) 
{"0": {"label": "*1", "atom_type": "Cs"}, "1": {"label": "*0", "atom_type": "N3d"}, "3": {"label": "*2", "atom_type": "H0"}, "7": {"label": "*3", "atom_type": "Cs"}, "8": {"label": "*4", "atom_type": "O2s"}}

>  <type>  (14) 
unop_10

>  <geom_source>  (14) 
Heuristics

$$$$

     RDKit          3D

 15 13  0  0  0  0  0  0  0  0999 V2000
   -1.6730    1.3466    0.3087 C   0  0  0  0  0  0  0  0  0  0  0  0
   -2.3824    0.3940   -0.1179 N   0  0  0  0  0  0  0  0  0  0  0  0
   -2.2188   -0.8461   -0.2449 N   0  0  0  0  0  2  0  0  0  0  0  0
   -0.3179   -1.4346    0.0773 H   0  0  0  0  0  0  0  0  0  0  0  0
   -2.1657    2.2800    0.5202 H   0  0  0  0  0  0  0  0  0  0  0  0
   -0.5930    1.2757    0.4278 H   0  0  0  0  0  0  0  0  0  0  0  0
   -2.7524   -1.2454   -1.0118 H   0  0  0  0  0  0  0  0  0  0  0  0
    0.7240   -1.6825    0.3430 C   0  0  0  0  0  0  0  0  0  0  0  0
    1.6878   -0.8084   -0.1927 O   0  0  0  0  0  0  0  0  0  0  0  0
    1.4534    0.4979    0.1736 N   0  0  0  0  0  0  0  0  0  0  0  0
    2.2867    1.3506   -0.2312 C   0  0  0  0  0  0  0  0  0  0  0  0
    1.0053   -2.6845    0.0478 H   0  0  0  0  0  0  0  0  0  0  0  0
    0.5690   -1.5761    1.3986 H   0  0  0  0  0  0  0  0  0  0  0  0
    2.1065    2.3741    0.0477 H   0  0  0  0  0  0  0  0  0  0  0  0
    3.1599    1.1143   -0.8316 H   0  0  0  0  0  0  0  0  0  0  0  0
  1  2  2  3
  1  5  1  0
  1  6  1  0
  2  3  1  0
  3  7  1  0
  4  8  1  0
  8  9  1  0
  8 12  1  0
  8 13  1  0
  9 10  1  0
 10 11  2  3
 11 14  1  0
 11 15  1  0
M  RAD  1   3   2
M  END
>  <reaction>  (15) 
rmg_rxn_15647

>  <mol_properties>  (15) 
{"0": {"label": "*1", "atom_type": "Cs"}, "1": {"label": "*0", "atom_type": "N3d"}, "3": {"label": "*2", "atom_type": "H0"}, "7": {"label": "*3", "atom_type": "Cs"}, "8": {"label": "*4", "atom_type": "O2s"}}

>  <type>  (15) 
unop_11

>  <geom_source>  (15) 
Heuristics

$$$$

     RDKit          3D

 15 13  0  0  0  0  0  0  0  0999 V2000
    1.7824   -0.5355   -0.5304 C   0  0  0  0  0  0  0  0  0  0  0  0
    1.7824   -1.8726   -1.1022 N   0  0  0  0  0  0  0  0  0  0  0  0
    1.7824   -1.8726   -2.3316 N   0  0  0  0  0  2  0  0  0  0  0  0
    0.7275   -0.4299    0.2386 H   0  0  0  0  0  0  0  0  0  0  0  0
    2.6615   -0.4475    0.1104 H   0  0  0  0  0  0  0  0  0  0  0  0
    1.7824    0.2404   -1.2993 H   0  0  0  0  0  0  0  0  0  0  0  0
    1.7824   -2.8572   -2.6303 H   0  0  0  0  0  0  0  0  0  0  0  0
   -0.3247   -0.3246    1.0057 C   0  0  0  0  0  0  0  0  0  0  0  0
   -1.0869    0.7378    0.4672 O   0  0  0  0  0  0  0  0  0  0  0  0
   -1.6505    1.4667    1.4868 N   0  0  0  0  0  0  0  0  0  0  0  0
   -2.3436    2.4305    1.0539 C   0  0  0  0  0  0  0  0  0  0  0  0
    0.4855    0.0545    1.6327 H   0  0  0  0  0  0  0  0  0  0  0  0
   -0.9537   -0.9994    1.5906 H   0  0  0  0  0  0  0  0  0  0  0  0
   -2.8227    3.0550    1.7960 H   0  0  0  0  0  0  0  0  0  0  0  0
   -2.4632    2.6361   -0.0077 H   0  0  0  0  0  0  0  0  0  0  0  0
  1  2  2  3
  1  5  1  0
  1  6  1  0
  2  3  1  0
  3  7  1  0
  4  8  1  0
  8  9  1  0
  8 12  1  0
  8 13  1  0
  9 10  1  0
 10 11  2  3
 11 14  1  0
 11 15  1  0
M  RAD  1   3   2
M  END
>  <reaction>  (16) 
rmg_rxn_15647

>  <mol_properties>  (16) 
{"0": {"label": "*1", "atom_type": "Cs"}, "1": {"label": "*0", "atom_type": "N3d"}, "3": {"label": "*2", "atom_type": "H0"}, "7": {"label": "*3", "atom_type": "Cs"}, "8": {"label": "*4", "atom_type": "O2s"}}

>  <type>  (16) 
unop_12

>  <geom_source>  (16) 
Heuristics

$$$$

     RDKit          3D

 15 13  0  0  0  0  0  0  0  0999 V2000
    1.1388    0.2655   -1.5179 C   0  0  0  0  0  0  0  0  0  0  0  0
    1.1388   -1.0716   -2.0897 N   0  0  0  0  0  0  0  0  0  0  0  0
    1.1388   -1.0716   -3.3190 N   0  0  0  0  0  2  0  0  0  0  0  0
    0.0839    0.3711   -0.7488 H   0  0  0  0  0  0  0  0  0  0  0  0
    2.0179    0.3535   -0.8770 H   0  0  0  0  0  0  0  0  0  0  0  0
    1.1388    1.0414   -2.2868 H   0  0  0  0  0  0  0  0  0  0  0  0
    1.1388   -2.0562   -3.6177 H   0  0  0  0  0  0  0  0  0  0  0  0
   -0.9683    0.4764    0.0183 C   0  0  0  0  0  0  0  0  0  0  0  0
   -0.5508    0.0547    1.3018 O   0  0  0  0  0  0  0  0  0  0  0  0
   -1.1380    0.8433    2.2621 N   0  0  0  0  0  0  0  0  0  0  0  0
   -0.7941    0.5038    3.4297 C   0  0  0  0  0  0  0  0  0  0  0  0
   -2.0513    0.3842   -0.0902 H   0  0  0  0  0  0  0  0  0  0  0  0
   -0.6694    1.5101   -0.1698 H   0  0  0  0  0  0  0  0  0  0  0  0
   -1.2145    1.0774    4.2449 H   0  0  0  0  0  0  0  0  0  0  0  0
   -0.1112   -0.3206    3.6233 H   0  0  0  0  0  0  0  0  0  0  0  0
  1  2  2  3
  1  5  1  0
  1  6  1  0
  2  3  1  0
  3  7  1  0
  4  8  1  0
  8  9  1  0
  8 12  1  0
  8 13  1  0
  9 10  1  0
 10 11  2  3
 11 14  1  0
 11 15  1  0
M  RAD  1   3   2
M  END
>  <reaction>  (17) 
rmg_rxn_15647

>  <mol_properties>  (17) 
{"0": {"label": "*1", "atom_type": "Cs"}, "1": {"label": "*0", "atom_type": "N3d"}, "3": {"label": "*2", "atom_type": "H0"}, "7": {"label": "*3", "atom_type": "Cs"}, "8": {"label": "*4", "atom_type": "O2s"}}

>  <type>  (17) 
unop_13

>  <geom_source>  (17) 
Heuristics

$$$$

     RDKit          3D

 15 13  0  0  0  0  0  0  0  0999 V2000
    1.4076   -0.9314    0.6915 C   0  0  0  0  0  3  0  0  0  0  0  0
    2.2918   -0.2148    0.0493 N   0  0  0  0  0  0  0  0  0  0  0  0
    2.1862    0.9721   -0.3647 N   0  0  0  0  0  0  0  0  0  0  0  0
    0.2516   -1.0602   -0.0800 H   0  0  0  0  0  0  0  0  0  0  0  0
    1.6866   -1.9729    0.8009 H   0  0  0  0  0  0  0  0  0  0  0  0
    0.9121   -0.4966    1.5632 H   0  0  0  0  0  0  0  0  0  0  0  0
    3.0906    1.3508   -0.6421 H   0  0  0  0  0  0  0  0  0  0  0  0
   -0.8193   -1.1490   -0.7263 C   0  0  0  0  0  0  0  0  0  0  0  0
   -1.8921   -0.6903    0.0472 O   0  0  0  0  0  0  0  0  0  0  0  0
   -2.0100    0.6218    0.3613 N   0  0  0  0  0  0  0  0  0  0  0  0
   -1.1645    1.4883    0.0140 C   0  0  0  0  0  0  0  0  0  0  0  0
   -1.0164   -2.2005   -0.9111 H   0  0  0  0  0  0  0  0  0  0  0  0
   -0.6930   -0.5922   -1.6571 H   0  0  0  0  0  0  0  0  0  0  0  0
   -1.3821    2.4938    0.3316 H   0  0  0  0  0  0  0  0  0  0  0  0
   -0.2456    1.3293   -0.5437 H   0  0  0  0  0  0  0  0  0  0  0  0
  1  2  1  0
  1  5  1  0
  1  6  1  0
  2  3  2  3
  3  7  1  0
  4  8  1  0
  8  9  1  0
  8 12  1  0
  8 13  1  0
  9 10  1  0
 10 11  2  3
 11 14  1  0
 11 15  1  0
M  RAD  1   1   2
M  END
>  <reaction>  (18) 
rmg_rxn_15647

>  <mol_properties>  (18) 
{"0": {"label": "*1", "atom_type": "Cs"}, "1": {"label": "*0", "atom_type": "N3d"}, "3": {"label": "*2", "atom_type": "H0"}, "7": {"label": "*3", "atom_type": "Cs"}, "8": {"label": "*4", "atom_type": "O2s"}}

>  <type>  (18) 
unop_14

>  <geom_source>  (18) 
Heuristics

$$$$

     RDKit          3D

 15 13  0  0  0  0  0  0  0  0999 V2000
    2.0966    0.6301   -0.3553 C   0  0  0  0  0  0  0  0  0  0  0  0
    2.0966   -0.7070   -0.9271 N   0  0  0  0  0  0  0  0  0  0  0  0
    2.0966   -0.7070   -2.1564 N   0  0  0  0  0  2  0  0  0  0  0  0
    1.0417    0.7357    0.4138 H   0  0  0  0  0  0  0  0  0  0  0  0
    2.9758    0.7181    0.2856 H   0  0  0  0  0  0  0  0  0  0  0  0
    2.0966    1.4060   -1.1242 H   0  0  0  0  0  0  0  0  0  0  0  0
    2.0966   -1.6916   -2.4551 H   0  0  0  0  0  0  0  0  0  0  0  0
   -0.0105    0.8410    1.1809 C   0  0  0  0  0  0  0  0  0  0  0  0
   -0.9865   -0.0094    0.6118 O   0  0  0  0  0  0  0  0  0  0  0  0
   -2.2312    0.3343    1.0822 N   0  0  0  0  0  0  0  0  0  0  0  0
   -3.1396   -0.4001    0.6004 C   0  0  0  0  0  0  0  0  0  0  0  0
   -0.1942    1.8831    0.9096 H   0  0  0  0  0  0  0  0  0  0  0  0
    0.0053    0.7445    2.2688 H   0  0  0  0  0  0  0  0  0  0  0  0
   -4.1516   -0.1935    0.9220 H   0  0  0  0  0  0  0  0  0  0  0  0
   -2.9322   -1.2037   -0.1031 H   0  0  0  0  0  0  0  0  0  0  0  0
  1  2  2  3
  1  5  1  0
  1  6  1  0
  2  3  1  0
  3  7  1  0
  4  8  1  0
  8  9  1  0
  8 12  1  0
  8 13  1  0
  9 10  1  0
 10 11  2  3
 11 14  1  0
 11 15  1  0
M  RAD  1   3   2
M  END
>  <reaction>  (19) 
rmg_rxn_15647

>  <mol_properties>  (19) 
{"0": {"label": "*1", "atom_type": "Cs"}, "1": {"label": "*0", "atom_type": "N3d"}, "3": {"label": "*2", "atom_type": "H0"}, "7": {"label": "*3", "atom_type": "Cs"}, "8": {"label": "*4", "atom_type": "O2s"}}

>  <type>  (19) 
unop_15

>  <geom_source>  (19) 
Heuristics

$$$$

     RDKit          3D

 15 13  0  0  0  0  0  0  0  0999 V2000
    1.2840    0.6892   -1.4176 C   0  0  0  0  0  0  0  0  0  0  0  0
    1.2840   -0.6479   -1.9894 N   0  0  0  0  0  0  0  0  0  0  0  0
    1.2840   -0.6479   -3.2188 N   0  0  0  0  0  2  0  0  0  0  0  0
    0.2290    0.7948   -0.6486 H   0  0  0  0  0  0  0  0  0  0  0  0
    2.1631    0.7772   -0.7767 H   0  0  0  0  0  0  0  0  0  0  0  0
    1.2840    1.4651   -2.1865 H   0  0  0  0  0  0  0  0  0  0  0  0
    1.2840   -1.6324   -3.5175 H   0  0  0  0  0  0  0  0  0  0  0  0
   -0.8231    0.9002    0.1185 C   0  0  0  0  0  0  0  0  0  0  0  0
   -0.6785   -0.1004    1.1072 O   0  0  0  0  0  0  0  0  0  0  0  0
   -1.2474    0.3253    2.2836 N   0  0  0  0  0  0  0  0  0  0  0  0
   -1.1429   -0.5379    3.2005 C   0  0  0  0  0  0  0  0  0  0  0  0
   -1.8778    1.1073   -0.0763 H   0  0  0  0  0  0  0  0  0  0  0  0
   -0.3196    1.8218    0.4187 H   0  0  0  0  0  0  0  0  0  0  0  0
   -1.5671   -0.2785    4.1613 H   0  0  0  0  0  0  0  0  0  0  0  0
   -0.6544   -1.4980    3.0487 H   0  0  0  0  0  0  0  0  0  0  0  0
  1  2  2  3
  1  5  1  0
  1  6  1  0
  2  3  1  0
  3  7  1  0
  4  8  1  0
  8  9  1  0
  8 12  1  0
  8 13  1  0
  9 10  1  0
 10 11  2  3
 11 14  1  0
 11 15  1  0
M  RAD  1   3   2
M  END
>  <reaction>  (20) 
rmg_rxn_15647

>  <mol_properties>  (20) 
{"0": {"label": "*1", "atom_type": "Cs"}, "1": {"label": "*0", "atom_type": "N3d"}, "3": {"label": "*2", "atom_type": "H0"}, "7": {"label": "*3", "atom_type": "Cs"}, "8": {"label": "*4", "atom_type": "O2s"}}

>  <type>  (20) 
unop_16

>  <geom_source>  (20) 
Heuristics

$$$$

     RDKit          3D

 15 13  0  0  0  0  0  0  0  0999 V2000
    1.5963   -0.5878   -0.8439 C   0  0  0  0  0  0  0  0  0  0  0  0
    1.5963   -1.9249   -1.4157 N   0  0  0  0  0  0  0  0  0  0  0  0
    1.5963   -1.9249   -2.6451 N   0  0  0  0  0  2  0  0  0  0  0  0
    0.5413   -0.4822   -0.0749 H   0  0  0  0  0  0  0  0  0  0  0  0
    2.4754   -0.4998   -0.2030 H   0  0  0  0  0  0  0  0  0  0  0  0
    1.5963    0.1881   -1.6128 H   0  0  0  0  0  0  0  0  0  0  0  0
    1.5963   -2.9094   -2.9438 H   0  0  0  0  0  0  0  0  0  0  0  0
   -0.5109   -0.3768    0.6922 C   0  0  0  0  0  0  0  0  0  0  0  0
   -0.8787    0.9880    0.6531 O   0  0  0  0  0  0  0  0  0  0  0  0
   -1.5507    1.3197    1.8051 N   0  0  0  0  0  0  0  0  0  0  0  0
   -1.9013    2.5337    1.8168 C   0  0  0  0  0  0  0  0  0  0  0  0
    0.1529   -0.5786    1.5360 H   0  0  0  0  0  0  0  0  0  0  0  0
   -1.3930   -1.0174    0.7605 H   0  0  0  0  0  0  0  0  0  0  0  0
   -2.4373    2.8751    2.6922 H   0  0  0  0  0  0  0  0  0  0  0  0
   -1.6833    3.2146    0.9968 H   0  0  0  0  0  0  0  0  0  0  0  0
  1  2  2  3
  1  5  1  0
  1  6  1  0
  2  3  1  0
  3  7  1  0
  4  8  1  0
  8  9  1  0
  8 12  1  0
  8 13  1  0
  9 10  1  0
 10 11  2  3
 11 14  1  0
 11 15  1  0
M  RAD  1   3   2
M  END
>  <reaction>  (21) 
rmg_rxn_15647

>  <mol_properties>  (21) 
{"0": {"label": "*1", "atom_type": "Cs"}, "1": {"label": "*0", "atom_type": "N3d"}, "3": {"label": "*2", "atom_type": "H0"}, "7": {"label": "*3", "atom_type": "Cs"}, "8": {"label": "*4", "atom_type": "O2s"}}

>  <type>  (21) 
unop_17

>  <geom_source>  (21) 
Heuristics

$$$$

     RDKit          3D

 15 13  0  0  0  0  0  0  0  0999 V2000
    1.8889    0.9422   -0.7147 C   0  0  0  0  0  0  0  0  0  0  0  0
    1.8889   -0.3948   -1.2865 N   0  0  0  0  0  0  0  0  0  0  0  0
    1.8889   -0.3948   -2.5159 N   0  0  0  0  0  2  0  0  0  0  0  0
    0.8340    1.0478    0.0544 H   0  0  0  0  0  0  0  0  0  0  0  0
    2.7681    1.0302   -0.0738 H   0  0  0  0  0  0  0  0  0  0  0  0
    1.8889    1.7182   -1.4836 H   0  0  0  0  0  0  0  0  0  0  0  0
    1.8889   -1.3794   -2.8145 H   0  0  0  0  0  0  0  0  0  0  0  0
   -0.2182    1.1532    0.8214 C   0  0  0  0  0  0  0  0  0  0  0  0
   -0.8781   -0.0949    0.7405 O   0  0  0  0  0  0  0  0  0  0  0  0
   -2.0069   -0.0736    1.5242 N   0  0  0  0  0  0  0  0  0  0  0  0
   -2.6325   -1.1707    1.4844 C   0  0  0  0  0  0  0  0  0  0  0  0
   -0.8608    1.9590    0.4597 H   0  0  0  0  0  0  0  0  0  0  0  0
    0.0913    1.3657    1.8472 H   0  0  0  0  0  0  0  0  0  0  0  0
   -3.5357   -1.2355    2.0764 H   0  0  0  0  0  0  0  0  0  0  0  0
   -2.2944   -2.0171    0.8904 H   0  0  0  0  0  0  0  0  0  0  0  0
  1  2  2  3
  1  5  1  0
  1  6  1  0
  2  3  1  0
  3  7  1  0
  4  8  1  0
  8  9  1  0
  8 12  1  0
  8 13  1  0
  9 10  1  0
 10 11  2  3
 11 14  1  0
 11 15  1  0
M  RAD  1   3   2
M  END
>  <reaction>  (22) 
rmg_rxn_15647

>  <mol_properties>  (22) 
{"0": {"label": "*1", "atom_type": "Cs"}, "1": {"label": "*0", "atom_type": "N3d"}, "3": {"label": "*2", "atom_type": "H0"}, "7": {"label": "*3", "atom_type": "Cs"}, "8": {"label": "*4", "atom_type": "O2s"}}

>  <type>  (22) 
unop_18

>  <geom_source>  (22) 
Heuristics

$$$$

     RDKit          3D

 15 13  0  0  0  0  0  0  0  0999 V2000
    1.2788   -0.4568   -0.9514 O   0  0  0  0  0  0  0  0  0  0  0  0
    1.7946    0.1970    0.1439 N   0  0  0  0  0  0  0  0  0  0  0  0
   -2.2480    0.8478    0.4868 N   0  0  0  0  0  0  0  0  0  0  0  0
   -1.3067    1.5662    0.8681 N   0  0  0  0  0  0  0  0  0  0  0  0
    0.1145   -1.2547   -0.8243 C   0  0  0  0  0  3  0  0  0  0  0  0
   -2.0613   -0.5697    0.3373 C   0  0  0  0  0  0  0  0  0  0  0  0
    2.8557    0.9257    0.0334 C   0  0  0  0  0  0  0  0  0  0  0  0
   -0.1524   -1.6758   -1.8153 H   0  0  0  0  0  0  0  0  0  0  0  0
    0.3043   -2.0860   -0.1133 H   0  0  0  0  0  0  0  0  0  0  0  0
   -0.9151   -0.4923   -0.3690 H   0  0  0  0  0  0  0  0  0  0  0  0
    3.2515    1.4345    0.9015 H   0  0  0  0  0  0  0  0  0  0  0  0
    3.3541    1.0325   -0.9219 H   0  0  0  0  0  0  0  0  0  0  0  0
   -1.8395   -1.0275    1.3246 H   0  0  0  0  0  0  0  0  0  0  0  0
   -2.9868   -1.0219   -0.0747 H   0  0  0  0  0  0  0  0  0  0  0  0
   -1.4438    2.5809    0.9742 H   0  0  0  0  0  0  0  0  0  0  0  0
  1  5  1  0
  1  2  1  0
  2  7  2  3
  3  6  1  0
  3  4  2  3
  4 15  1  0
  5  8  1  0
  5  9  1  0
  6 10  1  0
  6 13  1  0
  6 14  1  0
  7 11  1  0
  7 12  1  0
M  RAD  1   5   2
M  END
>  <reaction>  (23) 
rmg_rxn_15647

>  <mol_properties>  (23) 
{"0": {"label": "*1", "atom_type": "Cs"}, "1": {"label": "*0", "atom_type": "N3d"}, "3": {"label": "*2", "atom_type": "H0"}, "7": {"label": "*3", "atom_type": "Cs"}, "8": {"label": "*4", "atom_type": "O2s"}}

>  <type>  (23) 
unop_19

>  <geom_source>  (23) 
AutoTST

$$$$

     RDKit          3D

 15 13  0  0  0  0  0  0  0  0999 V2000
    1.5693    0.9587   -1.1238 C   0  0  0  0  0  0  0  0  0  0  0  0
    1.5693   -0.3784   -1.6956 N   0  0  0  0  0  0  0  0  0  0  0  0
    1.5693   -0.3784   -2.9249 N   0  0  0  0  0  2  0  0  0  0  0  0
    0.5143    1.0643   -0.3547 H   0  0  0  0  0  0  0  0  0  0  0  0
    2.4484    1.0467   -0.4829 H   0  0  0  0  0  0  0  0  0  0  0  0
    1.5693    1.7347   -1.8927 H   0  0  0  0  0  0  0  0  0  0  0  0
    1.5693   -1.3629   -3.2236 H   0  0  0  0  0  0  0  0  0  0  0  0
   -0.5379    1.1697    0.4124 C   0  0  0  0  0  0  0  0  0  0  0  0
   -0.7875   -0.1333    0.9017 O   0  0  0  0  0  0  0  0  0  0  0  0
   -1.5920   -0.0641    2.0138 N   0  0  0  0  0  0  0  0  0  0  0  0
   -1.8438   -1.2077    2.4888 C   0  0  0  0  0  0  0  0  0  0  0  0
   -1.4682    1.6627    0.1216 H   0  0  0  0  0  0  0  0  0  0  0  0
   -0.0220    1.7758    1.1605 H   0  0  0  0  0  0  0  0  0  0  0  0
   -2.4731   -1.2396    3.3682 H   0  0  0  0  0  0  0  0  0  0  0  0
   -1.4558   -2.1237    2.0484 H   0  0  0  0  0  0  0  0  0  0  0  0
  1  2  2  3
  1  5  1  0
  1  6  1  0
  2  3  1  0
  3  7  1  0
  4  8  1  0
  8  9  1  0
  8 12  1  0
  8 13  1  0
  9 10  1  0
 10 11  2  3
 11 14  1  0
 11 15  1  0
M  RAD  1   3   2
M  END
>  <reaction>  (24) 
rmg_rxn_15647

>  <mol_properties>  (24) 
{"0": {"label": "*1", "atom_type": "Cs"}, "1": {"label": "*0", "atom_type": "N3d"}, "3": {"label": "*2", "atom_type": "H0"}, "7": {"label": "*3", "atom_type": "Cs"}, "8": {"label": "*4", "atom_type": "O2s"}}

>  <type>  (24) 
unop_20

>  <geom_source>  (24) 
gaussian_log

$$$$
