
     RDKit          3D

  9  8  0  0  0  0  0  0  0  0999 V2000
   -1.2461    0.5037    0.0950 C   0  0  0  0  0  0  0  0  0  0  0  0
   -0.0155   -0.3334    0.0640 C   0  0  0  0  0  0  0  0  0  0  0  0
    1.0697    0.1457   -0.3733 N   0  0  0  0  0  0  0  0  0  0  0  0
    2.1001   -0.7834   -0.3224 O   0  0  0  0  0  0  0  0  0  0  0  0
   -2.0357    0.0440   -0.5039 H   0  0  0  0  0  0  0  0  0  0  0  0
   -1.6237    0.5897    1.1166 H   0  0  0  0  0  0  0  0  0  0  0  0
   -1.0397    1.4998   -0.2929 H   0  0  0  0  0  0  0  0  0  0  0  0
   -0.0537   -1.3634    0.4205 H   0  0  0  0  0  0  0  0  0  0  0  0
    2.8478   -0.2985   -0.6758 H   0  0  0  0  0  0  0  0  0  0  0  0
  1  2  1  0
  1  5  1  0
  1  6  1  0
  1  7  1  0
  2  3  2  3
  2  8  1  0
  3  4  1  0
  4  9  1  0
M  END
>  <reaction>  (1) 
rmg_rxn_16502

>  <mol_properties>  (1) 
{"0": {"label": "donator", "atom_type": "Cs"}, "4": {"label": "d_hydrogen", "atom_type": "H0"}}

>  <type>  (1) 
r1h

$$$$

     RDKit          3D

  7  6  0  0  0  0  0  0  0  0999 V2000
   -0.6441   -0.1356    0.0624 C   0  0  0  0  0  0  0  0  0  0  0  0
    0.8523    0.0148   -0.0333 C   0  0  0  0  0  0  0  0  0  0  0  0
    1.6700   -0.6077    0.6603 N   0  0  0  0  0  2  0  0  0  0  0  0
   -1.0940    0.8275    0.3091 H   0  0  0  0  0  0  0  0  0  0  0  0
   -0.9104   -0.8656    0.8237 H   0  0  0  0  0  0  0  0  0  0  0  0
   -1.0427   -0.4545   -0.9022 H   0  0  0  0  0  0  0  0  0  0  0  0
    1.2362    0.7308   -0.7748 H   0  0  0  0  0  0  0  0  0  0  0  0
  1  2  1  0
  1  4  1  0
  1  5  1  0
  1  6  1  0
  2  3  2  0
  2  7  1  0
M  RAD  1   3   2
M  END
>  <reaction>  (2) 
rmg_rxn_16502

>  <mol_properties>  (2) 
{"2": {"label": "acceptor", "atom_type": "N3d"}}

>  <type>  (2) 
r2

$$$$

     RDKit          3D

  8  7  0  0  0  0  0  0  0  0999 V2000
    0.9548    0.1194   -0.0790 C   0  0  0  0  0  0  0  0  0  0  0  0
   -0.4838   -0.2649    0.0193 C   0  0  0  0  0  0  0  0  0  0  0  0
   -0.8933   -1.1081    0.8664 N   0  0  0  0  0  0  0  0  0  0  0  0
    1.3360   -0.0983   -1.0800 H   0  0  0  0  0  0  0  0  0  0  0  0
    1.0698    1.1948    0.0786 H   0  0  0  0  0  0  0  0  0  0  0  0
    1.5426   -0.4219    0.6602 H   0  0  0  0  0  0  0  0  0  0  0  0
   -1.1575    0.2324   -0.6905 H   0  0  0  0  0  0  0  0  0  0  0  0
   -1.8989   -1.2455    0.7886 H   0  0  0  0  0  0  0  0  0  0  0  0
  1  2  1  0
  1  4  1  0
  1  5  1  0
  1  6  1  0
  2  3  2  3
  2  7  1  0
  3  8  1  0
M  END
>  <reaction>  (3) 
rmg_rxn_16502

>  <mol_properties>  (3) 
{"2": {"label": "acceptor", "atom_type": "N3d"}, "7": {"label": "a_hydrogen", "atom_type": "H0"}}

>  <type>  (3) 
r2h

$$$$

     RDKit          3D

 16 14  0  0  0  0  0  0  0  0999 V2000
    3.0171   -1.1160   -0.0082 C   0  0  0  0  0  0  0  0  0  0  0  0
    1.8013   -0.2388   -0.0421 C   0  0  0  0  0  0  0  0  0  0  0  0
    1.8521    0.9932    0.1814 N   0  0  0  0  0  0  0  0  0  0  0  0
    3.1480   -1.6002   -0.9784 H   0  0  0  0  0  0  0  0  0  0  0  0
    2.8809   -1.9050    0.7345 H   0  0  0  0  0  0  0  0  0  0  0  0
    3.9065   -0.5375    0.2330 H   0  0  0  0  0  0  0  0  0  0  0  0
    0.8475   -0.7340   -0.2741 H   0  0  0  0  0  0  0  0  0  0  0  0
   -0.6185    1.7258   -0.1277 C   0  0  0  0  0  3  0  0  0  0  0  0
   -1.4027    0.6189    0.3679 C   0  0  0  0  0  0  0  0  0  0  0  0
   -1.7795   -0.3189   -0.4195 N   0  0  0  0  0  0  0  0  0  0  0  0
   -2.4560   -1.3106    0.2711 O   0  0  0  0  0  0  0  0  0  0  0  0
    0.6608    1.4470    0.0851 H   0  0  0  0  0  0  0  0  0  0  0  0
   -0.6490    1.8629   -1.2050 H   0  0  0  0  0  0  0  0  0  0  0  0
   -0.7161    2.6485    0.4375 H   0  0  0  0  0  0  0  0  0  0  0  0
   -1.6372    0.5513    1.4303 H   0  0  0  0  0  0  0  0  0  0  0  0
   -2.7278   -1.9155   -0.4217 H   0  0  0  0  0  0  0  0  0  0  0  0
  1  2  1  0
  1  4  1  0
  1  5  1  0
  1  6  1  0
  2  3  2  3
  2  7  1  0
  3 12  1  0
  8  9  1  0
  8 13  1  0
  8 14  1  0
  9 10  2  3
  9 15  1  0
 10 11  1  0
 11 16  1  0
M  RAD  1   8   2
M  END
>  <reaction>  (4) 
rmg_rxn_16502

>  <mol_properties>  (4) 
{"1": {"label": "*0", "atom_type": "Cd"}, "2": {"label": "*1", "atom_type": "N3d"}, "7": {"label": "*3", "atom_type": "Cs"}, "8": {"label": "*4", "atom_type": "Cd"}, "11": {"label": "*2", "atom_type": "H0"}}

>  <type>  (4) 
ts

$$$$

     RDKit          3D

 16 14  0  0  0  0  0  0  0  0999 V2000
    3.0097   -1.1063    0.0193 C   0  0  0  0  0  0  0  0  0  0  0  0
    1.7534   -0.2988   -0.0152 C   0  0  0  0  0  0  0  0  0  0  0  0
    1.7530    0.9430    0.0030 N   0  0  0  0  0  0  0  0  0  0  0  0
    3.0612   -1.7291   -0.8723 H   0  0  0  0  0  0  0  0  0  0  0  0
    2.9941   -1.7608    0.8893 H   0  0  0  0  0  0  0  0  0  0  0  0
    3.8777   -0.4547    0.0639 H   0  0  0  0  0  0  0  0  0  0  0  0
    0.8312   -0.8974   -0.0581 H   0  0  0  0  0  0  0  0  0  0  0  0
   -0.6414    1.7696   -0.0923 C   0  0  0  0  0  3  0  0  0  0  0  0
   -1.3690    0.6443    0.3738 C   0  0  0  0  0  0  0  0  0  0  0  0
   -1.7694   -0.2650   -0.4484 N   0  0  0  0  0  0  0  0  0  0  0  0
   -2.4181   -1.3397    0.1588 O   0  0  0  0  0  0  0  0  0  0  0  0
    0.6464    1.4154   -0.0328 H   0  0  0  0  0  0  0  0  0  0  0  0
   -0.7339    1.9850   -1.1480 H   0  0  0  0  0  0  0  0  0  0  0  0
   -0.6300    2.6342    0.5553 H   0  0  0  0  0  0  0  0  0  0  0  0
   -1.5321    0.5268    1.4463 H   0  0  0  0  0  0  0  0  0  0  0  0
   -2.7053   -1.8954   -0.5786 H   0  0  0  0  0  0  0  0  0  0  0  0
  1  2  1  0
  1  4  1  0
  1  5  1  0
  1  6  1  0
  2  3  2  3
  2  7  1  0
  3 12  1  0
  8  9  1  0
  8 13  1  0
  8 14  1  0
  9 10  2  3
  9 15  1  0
 10 11  1  0
 11 16  1  0
M  RAD  1   8   2
M  END
>  <reaction>  (5) 
rmg_rxn_16502

>  <mol_properties>  (5) 
{"1": {"label": "*0", "atom_type": "Cd"}, "2": {"label": "*1", "atom_type": "N3d"}, "7": {"label": "*3", "atom_type": "Cs"}, "8": {"label": "*4", "atom_type": "Cd"}, "11": {"label": "*2", "atom_type": "H0"}}

>  <type>  (5) 
unop_1

>  <geom_source>  (5) 
crest_best.xyz

$$$$

     RDKit          3D

 16 14  0  0  0  0  0  0  0  0999 V2000
    1.5421    2.4353    2.8578 C   0  0  0  0  0  0  0  0  0  0  0  0
    0.8471    1.9283    1.6384 C   0  0  0  0  0  0  0  0  0  0  0  0
    1.1816    0.8448    1.0811 N   0  0  0  0  0  0  0  0  0  0  0  0
    1.9688    3.4231    2.6657 H   0  0  0  0  0  0  0  0  0  0  0  0
    2.3326    1.7488    3.1559 H   0  0  0  0  0  0  0  0  0  0  0  0
    0.8291    2.5504    3.6782 H   0  0  0  0  0  0  0  0  0  0  0  0
    0.0304    2.5574    1.2614 H   0  0  0  0  0  0  0  0  0  0  0  0
   -0.8570   -0.4866    0.3847 C   0  0  0  0  0  3  0  0  0  0  0  0
   -0.8570   -0.7061   -1.0877 C   0  0  0  0  0  0  0  0  0  0  0  0
   -0.8570   -1.8801   -1.5565 N   0  0  0  0  0  0  0  0  0  0  0  0
   -0.8570   -1.8801   -2.9449 O   0  0  0  0  0  0  0  0  0  0  0  0
    0.1983    0.2026    0.7452 H   0  0  0  0  0  0  0  0  0  0  0  0
   -1.7364    0.0878    0.6851 H   0  0  0  0  0  0  0  0  0  0  0  0
   -0.8570   -1.4389    0.9123 H   0  0  0  0  0  0  0  0  0  0  0  0
   -0.8570    0.1514   -1.7616 H   0  0  0  0  0  0  0  0  0  0  0  0
   -0.8570   -2.8138   -3.1624 H   0  0  0  0  0  0  0  0  0  0  0  0
  1  2  1  0
  1  4  1  0
  1  5  1  0
  1  6  1  0
  2  3  2  3
  2  7  1  0
  3 12  1  0
  8  9  1  0
  8 13  1  0
  8 14  1  0
  9 10  2  3
  9 15  1  0
 10 11  1  0
 11 16  1  0
M  RAD  1   8   2
M  END
>  <reaction>  (6) 
rmg_rxn_16502

>  <mol_properties>  (6) 
{"1": {"label": "*0", "atom_type": "Cd"}, "2": {"label": "*1", "atom_type": "N3d"}, "7": {"label": "*3", "atom_type": "Cs"}, "8": {"label": "*4", "atom_type": "Cd"}, "11": {"label": "*2", "atom_type": "H0"}}

>  <type>  (6) 
unop_2

>  <geom_source>  (6) 
Heuristics

$$$$

     RDKit          3D

 16 14  0  0  0  0  0  0  0  0999 V2000
    2.2055    2.7849    0.9893 C   0  0  0  0  0  0  0  0  0  0  0  0
    1.3213    1.6122    0.7246 C   0  0  0  0  0  0  0  0  0  0  0  0
    0.9513    0.8331    1.6479 N   0  0  0  0  0  0  0  0  0  0  0  0
    3.1237    2.7055    0.4017 H   0  0  0  0  0  0  0  0  0  0  0  0
    2.4541    2.8403    2.0477 H   0  0  0  0  0  0  0  0  0  0  0  0
    1.7093    3.7088    0.6814 H   0  0  0  0  0  0  0  0  0  0  0  0
    1.0165    1.4740   -0.3208 H   0  0  0  0  0  0  0  0  0  0  0  0
   -1.0873   -0.4983    0.9515 C   0  0  0  0  0  3  0  0  0  0  0  0
   -1.0873   -0.7178   -0.5209 C   0  0  0  0  0  0  0  0  0  0  0  0
   -1.0873   -1.8918   -0.9897 N   0  0  0  0  0  0  0  0  0  0  0  0
   -1.0873   -1.8918   -2.3781 O   0  0  0  0  0  0  0  0  0  0  0  0
   -0.0320    0.1909    1.3120 H   0  0  0  0  0  0  0  0  0  0  0  0
   -1.9667    0.0760    1.2519 H   0  0  0  0  0  0  0  0  0  0  0  0
   -1.0873   -1.4507    1.4791 H   0  0  0  0  0  0  0  0  0  0  0  0
   -1.0873    0.1397   -1.1948 H   0  0  0  0  0  0  0  0  0  0  0  0
   -1.0873   -2.8255   -2.5956 H   0  0  0  0  0  0  0  0  0  0  0  0
  1  2  1  0
  1  4  1  0
  1  5  1  0
  1  6  1  0
  2  3  2  3
  2  7  1  0
  3 12  1  0
  8  9  1  0
  8 13  1  0
  8 14  1  0
  9 10  2  3
  9 15  1  0
 10 11  1  0
 11 16  1  0
M  RAD  1   8   2
M  END
>  <reaction>  (7) 
rmg_rxn_16502

>  <mol_properties>  (7) 
{"1": {"label": "*0", "atom_type": "Cd"}, "2": {"label": "*1", "atom_type": "N3d"}, "7": {"label": "*3", "atom_type": "Cs"}, "8": {"label": "*4", "atom_type": "Cd"}, "11": {"label": "*2", "atom_type": "H0"}}

>  <type>  (7) 
unop_3

>  <geom_source>  (7) 
Heuristics

$$$$

     RDKit          3D

 16 14  0  0  0  0  0  0  0  0999 V2000
    1.9144    2.0049    3.0067 C   0  0  0  0  0  0  0  0  0  0  0  0
    0.8585    1.6822    2.0028 C   0  0  0  0  0  0  0  0  0  0  0  0
    1.1017    0.9823    0.9794 N   0  0  0  0  0  0  0  0  0  0  0  0
    2.0322    3.0879    3.0957 H   0  0  0  0  0  0  0  0  0  0  0  0
    2.8633    1.5582    2.7150 H   0  0  0  0  0  0  0  0  0  0  0  0
    1.6235    1.6341    3.9929 H   0  0  0  0  0  0  0  0  0  0  0  0
   -0.1377    2.0922    2.2133 H   0  0  0  0  0  0  0  0  0  0  0  0
   -0.9369   -0.3492    0.2830 C   0  0  0  0  0  3  0  0  0  0  0  0
   -0.9369   -0.5686   -1.1894 C   0  0  0  0  0  0  0  0  0  0  0  0
   -0.9369   -1.7427   -1.6582 N   0  0  0  0  0  0  0  0  0  0  0  0
   -0.9369   -1.7427   -3.0466 O   0  0  0  0  0  0  0  0  0  0  0  0
    0.1184    0.3401    0.6435 H   0  0  0  0  0  0  0  0  0  0  0  0
   -1.8163    0.2252    0.5834 H   0  0  0  0  0  0  0  0  0  0  0  0
   -0.9369   -1.3015    0.8106 H   0  0  0  0  0  0  0  0  0  0  0  0
   -0.9369    0.2889   -1.8633 H   0  0  0  0  0  0  0  0  0  0  0  0
   -0.9369   -2.6763   -3.2641 H   0  0  0  0  0  0  0  0  0  0  0  0
  1  2  1  0
  1  4  1  0
  1  5  1  0
  1  6  1  0
  2  3  2  3
  2  7  1  0
  3 12  1  0
  8  9  1  0
  8 13  1  0
  8 14  1  0
  9 10  2  3
  9 15  1  0
 10 11  1  0
 11 16  1  0
M  RAD  1   8   2
M  END
>  <reaction>  (8) 
rmg_rxn_16502

>  <mol_properties>  (8) 
{"1": {"label": "*0", "atom_type": "Cd"}, "2": {"label": "*1", "atom_type": "N3d"}, "7": {"label": "*3", "atom_type": "Cs"}, "8": {"label": "*4", "atom_type": "Cd"}, "11": {"label": "*2", "atom_type": "H0"}}

>  <type>  (8) 
unop_4

>  <geom_source>  (8) 
Heuristics

$$$$

     RDKit          3D

 16 14  0  0  0  0  0  0  0  0999 V2000
    2.9969    0.8795    1.9153 C   0  0  0  0  0  0  0  0  0  0  0  0
    1.7650    0.7845    1.0783 C   0  0  0  0  0  0  0  0  0  0  0  0
    0.7002    1.3910    1.3862 N   0  0  0  0  0  0  0  0  0  0  0  0
    3.2998   -0.1142    2.2552 H   0  0  0  0  0  0  0  0  0  0  0  0
    2.8207    1.5211    2.7768 H   0  0  0  0  0  0  0  0  0  0  0  0
    3.8247    1.2799    1.3244 H   0  0  0  0  0  0  0  0  0  0  0  0
    1.8471    0.1555    0.1825 H   0  0  0  0  0  0  0  0  0  0  0  0
   -1.3383    0.0595    0.6898 C   0  0  0  0  0  3  0  0  0  0  0  0
   -1.3383   -0.1600   -0.7826 C   0  0  0  0  0  0  0  0  0  0  0  0
   -1.3383   -1.3340   -1.2514 N   0  0  0  0  0  0  0  0  0  0  0  0
   -1.3383   -1.3340   -2.6398 O   0  0  0  0  0  0  0  0  0  0  0  0
   -0.2830    0.7488    1.0503 H   0  0  0  0  0  0  0  0  0  0  0  0
   -2.2177    0.6339    0.9902 H   0  0  0  0  0  0  0  0  0  0  0  0
   -1.3383   -0.8928    1.2174 H   0  0  0  0  0  0  0  0  0  0  0  0
   -1.3383    0.6976   -1.4565 H   0  0  0  0  0  0  0  0  0  0  0  0
   -1.3383   -2.2677   -2.8573 H   0  0  0  0  0  0  0  0  0  0  0  0
  1  2  1  0
  1  4  1  0
  1  5  1  0
  1  6  1  0
  2  3  2  3
  2  7  1  0
  3 12  1  0
  8  9  1  0
  8 13  1  0
  8 14  1  0
  9 10  2  3
  9 15  1  0
 10 11  1  0
 11 16  1  0
M  RAD  1   8   2
M  END
>  <reaction>  (9) 
rmg_rxn_16502

>  <mol_properties>  (9) 
{"1": {"label": "*0", "atom_type": "Cd"}, "2": {"label": "*1", "atom_type": "N3d"}, "7": {"label": "*3", "atom_type": "Cs"}, "8": {"label": "*4", "atom_type": "Cd"}, "11": {"label": "*2", "atom_type": "H0"}}

>  <type>  (9) 
unop_5

>  <geom_source>  (9) 
Heuristics

$$$$

     RDKit          3D

 16 14  0  0  0  0  0  0  0  0999 V2000
    2.1293    2.0152    2.8839 C   0  0  0  0  0  0  0  0  0  0  0  0
    1.0339    1.2556    2.2129 C   0  0  0  0  0  0  0  0  0  0  0  0
    1.0229    1.0628    0.9643 N   0  0  0  0  0  0  0  0  0  0  0  0
    1.7201    2.8810    3.4110 H   0  0  0  0  0  0  0  0  0  0  0  0
    2.8629    2.3479    2.1517 H   0  0  0  0  0  0  0  0  0  0  0  0
    2.6190    1.3884    3.6335 H   0  0  0  0  0  0  0  0  0  0  0  0
    0.2436    0.8782    2.8746 H   0  0  0  0  0  0  0  0  0  0  0  0
   -1.0157   -0.2687    0.2679 C   0  0  0  0  0  3  0  0  0  0  0  0
   -1.0157   -0.4881   -1.2045 C   0  0  0  0  0  0  0  0  0  0  0  0
   -1.0157   -1.6622   -1.6733 N   0  0  0  0  0  0  0  0  0  0  0  0
   -1.0157   -1.6622   -3.0617 O   0  0  0  0  0  0  0  0  0  0  0  0
    0.0396    0.4206    0.6284 H   0  0  0  0  0  0  0  0  0  0  0  0
   -1.8951    0.3057    0.5683 H   0  0  0  0  0  0  0  0  0  0  0  0
   -1.0157   -1.2210    0.7955 H   0  0  0  0  0  0  0  0  0  0  0  0
   -1.0157    0.3694   -1.8784 H   0  0  0  0  0  0  0  0  0  0  0  0
   -1.0157   -2.5958   -3.2792 H   0  0  0  0  0  0  0  0  0  0  0  0
  1  2  1  0
  1  4  1  0
  1  5  1  0
  1  6  1  0
  2  3  2  3
  2  7  1  0
  3 12  1  0
  8  9  1  0
  8 13  1  0
  8 14  1  0
  9 10  2  3
  9 15  1  0
 10 11  1  0
 11 16  1  0
M  RAD  1   8   2
M  END
>  <reaction>  (10) 
rmg_rxn_16502

>  <mol_properties>  (10) 
{"1": {"label": "*0", "atom_type": "Cd"}, "2": {"label": "*1", "atom_type": "N3d"}, "7": {"label": "*3", "atom_type": "Cs"}, "8": {"label": "*4", "atom_type": "Cd"}, "11": {"label": "*2", "atom_type": "H0"}}

>  <type>  (10) 
unop_6

>  <geom_source>  (10) 
Heuristics

$$$$

     RDKit          3D

 16 14  0  0  0  0  0  0  0  0999 V2000
    2.6410    0.8985    2.6124 C   0  0  0  0  0  0  0  0  0  0  0  0
    1.7466    0.6496    1.4440 C   0  0  0  0  0  0  0  0  0  0  0  0
    0.7780    1.4131    1.1699 N   0  0  0  0  0  0  0  0  0  0  0  0
    2.6211    0.0427    3.2920 H   0  0  0  0  0  0  0  0  0  0  0  0
    2.3269    1.7942    3.1455 H   0  0  0  0  0  0  0  0  0  0  0  0
    3.6750    1.0156    2.2781 H   0  0  0  0  0  0  0  0  0  0  0  0
    1.9867   -0.2369    0.8429 H   0  0  0  0  0  0  0  0  0  0  0  0
   -1.2605    0.0817    0.4735 C   0  0  0  0  0  3  0  0  0  0  0  0
   -1.2605   -0.1378   -0.9989 C   0  0  0  0  0  0  0  0  0  0  0  0
   -1.2605   -1.3118   -1.4677 N   0  0  0  0  0  0  0  0  0  0  0  0
   -1.2605   -1.3118   -2.8561 O   0  0  0  0  0  0  0  0  0  0  0  0
   -0.2052    0.7709    0.8340 H   0  0  0  0  0  0  0  0  0  0  0  0
   -2.1399    0.6561    0.7739 H   0  0  0  0  0  0  0  0  0  0  0  0
   -1.2605   -0.8706    1.0011 H   0  0  0  0  0  0  0  0  0  0  0  0
   -1.2605    0.7197   -1.6728 H   0  0  0  0  0  0  0  0  0  0  0  0
   -1.2605   -2.2455   -3.0736 H   0  0  0  0  0  0  0  0  0  0  0  0
  1  2  1  0
  1  4  1  0
  1  5  1  0
  1  6  1  0
  2  3  2  3
  2  7  1  0
  3 12  1  0
  8  9  1  0
  8 13  1  0
  8 14  1  0
  9 10  2  3
  9 15  1  0
 10 11  1  0
 11 16  1  0
M  RAD  1   8   2
M  END
>  <reaction>  (11) 
rmg_rxn_16502

>  <mol_properties>  (11) 
{"1": {"label": "*0", "atom_type": "Cd"}, "2": {"label": "*1", "atom_type": "N3d"}, "7": {"label": "*3", "atom_type": "Cs"}, "8": {"label": "*4", "atom_type": "Cd"}, "11": {"label": "*2", "atom_type": "H0"}}

>  <type>  (11) 
unop_7

>  <geom_source>  (11) 
Heuristics

$$$$

     RDKit          3D

 16 14  0  0  0  0  0  0  0  0999 V2000
    2.2183    1.3124    3.0251 C   0  0  0  0  0  0  0  0  0  0  0  0
    1.6045    0.6706    1.8258 C   0  0  0  0  0  0  0  0  0  0  0  0
    0.8937    1.3227    1.0098 N   0  0  0  0  0  0  0  0  0  0  0  0
    1.8726    0.8177    3.9364 H   0  0  0  0  0  0  0  0  0  0  0  0
    1.9592    2.3689    3.0635 H   0  0  0  0  0  0  0  0  0  0  0  0
    3.3055    1.2034    2.9966 H   0  0  0  0  0  0  0  0  0  0  0  0
    1.8116   -0.4002    1.7022 H   0  0  0  0  0  0  0  0  0  0  0  0
   -1.1448   -0.0087    0.3135 C   0  0  0  0  0  3  0  0  0  0  0  0
   -1.1448   -0.2282   -1.1589 C   0  0  0  0  0  0  0  0  0  0  0  0
   -1.1448   -1.4022   -1.6278 N   0  0  0  0  0  0  0  0  0  0  0  0
   -1.1448   -1.4022   -3.0161 O   0  0  0  0  0  0  0  0  0  0  0  0
   -0.0895    0.6805    0.6739 H   0  0  0  0  0  0  0  0  0  0  0  0
   -2.0242    0.5657    0.6139 H   0  0  0  0  0  0  0  0  0  0  0  0
   -1.1448   -0.9610    0.8410 H   0  0  0  0  0  0  0  0  0  0  0  0
   -1.1448    0.6293   -1.8329 H   0  0  0  0  0  0  0  0  0  0  0  0
   -1.1448   -2.3359   -3.2337 H   0  0  0  0  0  0  0  0  0  0  0  0
  1  2  1  0
  1  4  1  0
  1  5  1  0
  1  6  1  0
  2  3  2  3
  2  7  1  0
  3 12  1  0
  8  9  1  0
  8 13  1  0
  8 14  1  0
  9 10  2  3
  9 15  1  0
 10 11  1  0
 11 16  1  0
M  RAD  1   8   2
M  END
>  <reaction>  (12) 
rmg_rxn_16502

>  <mol_properties>  (12) 
{"1": {"label": "*0", "atom_type": "Cd"}, "2": {"label": "*1", "atom_type": "N3d"}, "7": {"label": "*3", "atom_type": "Cs"}, "8": {"label": "*4", "atom_type": "Cd"}, "11": {"label": "*2", "atom_type": "H0"}}

>  <type>  (12) 
unop_8

>  <geom_source>  (12) 
Heuristics

$$$$

     RDKit          3D

 16 14  0  0  0  0  0  0  0  0999 V2000
    1.4370    2.8978    2.3144 C   0  0  0  0  0  0  0  0  0  0  0  0
    0.9460    1.9790    1.2458 C   0  0  0  0  0  0  0  0  0  0  0  0
    1.1843    0.7385    1.2705 N   0  0  0  0  0  0  0  0  0  0  0  0
    2.0746    3.6731    1.8820 H   0  0  0  0  0  0  0  0  0  0  0  0
    1.9973    2.3416    3.0639 H   0  0  0  0  0  0  0  0  0  0  0  0
    0.5951    3.4069    2.7906 H   0  0  0  0  0  0  0  0  0  0  0  0
    0.3673    2.4522    0.4421 H   0  0  0  0  0  0  0  0  0  0  0  0
   -0.8542   -0.5929    0.5741 C   0  0  0  0  0  3  0  0  0  0  0  0
   -0.8542   -0.8124   -0.8983 C   0  0  0  0  0  0  0  0  0  0  0  0
   -0.8542   -1.9864   -1.3671 N   0  0  0  0  0  0  0  0  0  0  0  0
   -0.8542   -1.9864   -2.7555 O   0  0  0  0  0  0  0  0  0  0  0  0
    0.2011    0.0963    0.9346 H   0  0  0  0  0  0  0  0  0  0  0  0
   -1.7336   -0.0186    0.8745 H   0  0  0  0  0  0  0  0  0  0  0  0
   -0.8542   -1.5453    1.1017 H   0  0  0  0  0  0  0  0  0  0  0  0
   -0.8542    0.0451   -1.5722 H   0  0  0  0  0  0  0  0  0  0  0  0
   -0.8542   -2.9201   -2.9730 H   0  0  0  0  0  0  0  0  0  0  0  0
  1  2  1  0
  1  4  1  0
  1  5  1  0
  1  6  1  0
  2  3  2  3
  2  7  1  0
  3 12  1  0
  8  9  1  0
  8 13  1  0
  8 14  1  0
  9 10  2  3
  9 15  1  0
 10 11  1  0
 11 16  1  0
M  RAD  1   8   2
M  END
>  <reaction>  (13) 
rmg_rxn_16502

>  <mol_properties>  (13) 
{"1": {"label": "*0", "atom_type": "Cd"}, "2": {"label": "*1", "atom_type": "N3d"}, "7": {"label": "*3", "atom_type": "Cs"}, "8": {"label": "*4", "atom_type": "Cd"}, "11": {"label": "*2", "atom_type": "H0"}}

>  <type>  (13) 
unop_9

>  <geom_source>  (13) 
Heuristics

$$$$

     RDKit          3D

 16 14  0  0  0  0  0  0  0  0999 V2000
    3.0097   -1.1063    0.0193 C   0  0  0  0  0  0  0  0  0  0  0  0
    1.7534   -0.2988   -0.0152 C   0  0  0  0  0  0  0  0  0  0  0  0
    1.7530    0.9430    0.0030 N   0  0  0  0  0  0  0  0  0  0  0  0
    3.0612   -1.7291   -0.8723 H   0  0  0  0  0  0  0  0  0  0  0  0
    2.9941   -1.7608    0.8893 H   0  0  0  0  0  0  0  0  0  0  0  0
    3.8777   -0.4547    0.0639 H   0  0  0  0  0  0  0  0  0  0  0  0
    0.8312   -0.8974   -0.0581 H   0  0  0  0  0  0  0  0  0  0  0  0
   -0.6414    1.7696   -0.0923 C   0  0  0  0  0  3  0  0  0  0  0  0
   -1.3690    0.6443    0.3738 C   0  0  0  0  0  0  0  0  0  0  0  0
   -1.7694   -0.2650   -0.4484 N   0  0  0  0  0  0  0  0  0  0  0  0
   -2.4181   -1.3397    0.1588 O   0  0  0  0  0  0  0  0  0  0  0  0
    0.6464    1.4154   -0.0328 H   0  0  0  0  0  0  0  0  0  0  0  0
   -0.7339    1.9850   -1.1480 H   0  0  0  0  0  0  0  0  0  0  0  0
   -0.6300    2.6342    0.5553 H   0  0  0  0  0  0  0  0  0  0  0  0
   -1.5321    0.5268    1.4463 H   0  0  0  0  0  0  0  0  0  0  0  0
   -2.7053   -1.8954   -0.5786 H   0  0  0  0  0  0  0  0  0  0  0  0
  1  2  1  0
  1  4  1  0
  1  5  1  0
  1  6  1  0
  2  3  2  3
  2  7  1  0
  3 12  1  0
  8  9  1  0
  8 13  1  0
  8 14  1  0
  9 10  2  3
  9 15  1  0
 10 11  1  0
 11 16  1  0
M  RAD  1   8   2
M  END
>  <reaction>  (14) 
rmg_rxn_16502

>  <mol_properties>  (14) 
{"1": {"label": "*0", "atom_type": "Cd"}, "2": {"label": "*1", "atom_type": "N3d"}, "7": {"label": "*3", "atom_type": "Cs"}, "8": {"label": "*4", "atom_type": "Cd"}, "11": {"label": "*2", "atom_type": "H0"}}

>  <type>  (14) 
unop_10

>  <geom_source>  (14) 
Heuristics

$$$$

     RDKit          3D

 16 14  0  0  0  0  0  0  0  0999 V2000
    3.0806    1.3319    1.2059 C   0  0  0  0  0  0  0  0  0  0  0  0
    1.6739    1.0267    0.8119 C   0  0  0  0  0  0  0  0  0  0  0  0
    0.7004    1.2497    1.5858 N   0  0  0  0  0  0  0  0  0  0  0  0
    3.6877    0.4237    1.1711 H   0  0  0  0  0  0  0  0  0  0  0  0
    3.1100    1.7513    2.2100 H   0  0  0  0  0  0  0  0  0  0  0  0
    3.5250    2.0392    0.5010 H   0  0  0  0  0  0  0  0  0  0  0  0
    1.5440    0.5980   -0.1902 H   0  0  0  0  0  0  0  0  0  0  0  0
   -1.3381   -0.0818    0.8894 C   0  0  0  0  0  3  0  0  0  0  0  0
   -1.3381   -0.3012   -0.5830 C   0  0  0  0  0  0  0  0  0  0  0  0
   -1.3381   -1.4753   -1.0518 N   0  0  0  0  0  0  0  0  0  0  0  0
   -1.3381   -1.4753   -2.4402 O   0  0  0  0  0  0  0  0  0  0  0  0
   -0.2828    0.6075    1.2499 H   0  0  0  0  0  0  0  0  0  0  0  0
   -2.2175    0.4926    1.1898 H   0  0  0  0  0  0  0  0  0  0  0  0
   -1.3381   -1.0341    1.4170 H   0  0  0  0  0  0  0  0  0  0  0  0
   -1.3381    0.5563   -1.2569 H   0  0  0  0  0  0  0  0  0  0  0  0
   -1.3381   -2.4089   -2.6577 H   0  0  0  0  0  0  0  0  0  0  0  0
  1  2  1  0
  1  4  1  0
  1  5  1  0
  1  6  1  0
  2  3  2  3
  2  7  1  0
  3 12  1  0
  8  9  1  0
  8 13  1  0
  8 14  1  0
  9 10  2  3
  9 15  1  0
 10 11  1  0
 11 16  1  0
M  RAD  1   8   2
M  END
>  <reaction>  (15) 
rmg_rxn_16502

>  <mol_properties>  (15) 
{"1": {"label": "*0", "atom_type": "Cd"}, "2": {"label": "*1", "atom_type": "N3d"}, "7": {"label": "*3", "atom_type": "Cs"}, "8": {"label": "*4", "atom_type": "Cd"}, "11": {"label": "*2", "atom_type": "H0"}}

>  <type>  (15) 
unop_11

>  <geom_source>  (15) 
Heuristics

$$$$

     RDKit          3D

 16 14  0  0  0  0  0  0  0  0999 V2000
    1.6803    3.0657    1.5894 C   0  0  0  0  0  0  0  0  0  0  0  0
    1.1195    1.8564    0.9185 C   0  0  0  0  0  0  0  0  0  0  0  0
    1.0999    0.7272    1.4851 N   0  0  0  0  0  0  0  0  0  0  0  0
    2.4993    3.4806    0.9964 H   0  0  0  0  0  0  0  0  0  0  0  0
    2.0427    2.8130    2.5843 H   0  0  0  0  0  0  0  0  0  0  0  0
    0.9163    3.8437    1.6652 H   0  0  0  0  0  0  0  0  0  0  0  0
    0.7277    2.0143   -0.0945 H   0  0  0  0  0  0  0  0  0  0  0  0
   -0.9386   -0.6042    0.7888 C   0  0  0  0  0  3  0  0  0  0  0  0
   -0.9386   -0.8237   -0.6836 C   0  0  0  0  0  0  0  0  0  0  0  0
   -0.9386   -1.9977   -1.1525 N   0  0  0  0  0  0  0  0  0  0  0  0
   -0.9386   -1.9977   -2.5408 O   0  0  0  0  0  0  0  0  0  0  0  0
    0.1167    0.0850    1.1492 H   0  0  0  0  0  0  0  0  0  0  0  0
   -1.8180   -0.0298    1.0892 H   0  0  0  0  0  0  0  0  0  0  0  0
   -0.9386   -1.5565    1.3163 H   0  0  0  0  0  0  0  0  0  0  0  0
   -0.9386    0.0338   -1.3576 H   0  0  0  0  0  0  0  0  0  0  0  0
   -0.9386   -2.9314   -2.7584 H   0  0  0  0  0  0  0  0  0  0  0  0
  1  2  1  0
  1  4  1  0
  1  5  1  0
  1  6  1  0
  2  3  2  3
  2  7  1  0
  3 12  1  0
  8  9  1  0
  8 13  1  0
  8 14  1  0
  9 10  2  3
  9 15  1  0
 10 11  1  0
 11 16  1  0
M  RAD  1   8   2
M  END
>  <reaction>  (16) 
rmg_rxn_16502

>  <mol_properties>  (16) 
{"1": {"label": "*0", "atom_type": "Cd"}, "2": {"label": "*1", "atom_type": "N3d"}, "7": {"label": "*3", "atom_type": "Cs"}, "8": {"label": "*4", "atom_type": "Cd"}, "11": {"label": "*2", "atom_type": "H0"}}

>  <type>  (16) 
unop_12

>  <geom_source>  (16) 
Heuristics

$$$$

     RDKit          3D

 16 14  0  0  0  0  0  0  0  0999 V2000
    2.0021    1.8594    3.0284 C   0  0  0  0  0  0  0  0  0  0  0  0
    1.3487    0.8682    2.1241 C   0  0  0  0  0  0  0  0  0  0  0  0
    0.9884    1.1703    0.9514 N   0  0  0  0  0  0  0  0  0  0  0  0
    1.4132    1.9833    3.9408 H   0  0  0  0  0  0  0  0  0  0  0  0
    2.1032    2.8202    2.5269 H   0  0  0  0  0  0  0  0  0  0  0  0
    2.9885    1.5000    3.3324 H   0  0  0  0  0  0  0  0  0  0  0  0
    1.2035   -0.1350    2.5452 H   0  0  0  0  0  0  0  0  0  0  0  0
   -1.0501   -0.1611    0.2550 C   0  0  0  0  0  3  0  0  0  0  0  0
   -1.0501   -0.3806   -1.2174 C   0  0  0  0  0  0  0  0  0  0  0  0
   -1.0501   -1.5546   -1.6862 N   0  0  0  0  0  0  0  0  0  0  0  0
   -1.0501   -1.5546   -3.0746 O   0  0  0  0  0  0  0  0  0  0  0  0
    0.0052    0.5281    0.6155 H   0  0  0  0  0  0  0  0  0  0  0  0
   -1.9295    0.4133    0.5554 H   0  0  0  0  0  0  0  0  0  0  0  0
   -1.0501   -1.1134    0.7826 H   0  0  0  0  0  0  0  0  0  0  0  0
   -1.0501    0.4769   -1.8913 H   0  0  0  0  0  0  0  0  0  0  0  0
   -1.0501   -2.4883   -3.2921 H   0  0  0  0  0  0  0  0  0  0  0  0
  1  2  1  0
  1  4  1  0
  1  5  1  0
  1  6  1  0
  2  3  2  3
  2  7  1  0
  3 12  1  0
  8  9  1  0
  8 13  1  0
  8 14  1  0
  9 10  2  3
  9 15  1  0
 10 11  1  0
 11 16  1  0
M  RAD  1   8   2
M  END
>  <reaction>  (17) 
rmg_rxn_16502

>  <mol_properties>  (17) 
{"1": {"label": "*0", "atom_type": "Cd"}, "2": {"label": "*1", "atom_type": "N3d"}, "7": {"label": "*3", "atom_type": "Cs"}, "8": {"label": "*4", "atom_type": "Cd"}, "11": {"label": "*2", "atom_type": "H0"}}

>  <type>  (17) 
unop_13

>  <geom_source>  (17) 
Heuristics

$$$$

     RDKit          3D

 16 14  0  0  0  0  0  0  0  0999 V2000
    2.7780    2.0990    0.8248 C   0  0  0  0  0  0  0  0  0  0  0  0
    1.5138    1.3175    0.6898 C   0  0  0  0  0  0  0  0  0  0  0  0
    0.7946    1.0333    1.6889 N   0  0  0  0  0  0  0  0  0  0  0  0
    3.6230    1.5180    0.4466 H   0  0  0  0  0  0  0  0  0  0  0  0
    2.9525    2.3595    1.8672 H   0  0  0  0  0  0  0  0  0  0  0  0
    2.7241    3.0106    0.2241 H   0  0  0  0  0  0  0  0  0  0  0  0
    1.2534    1.0086   -0.3308 H   0  0  0  0  0  0  0  0  0  0  0  0
   -1.2440   -0.2981    0.9926 C   0  0  0  0  0  3  0  0  0  0  0  0
   -1.2440   -0.5176   -0.4798 C   0  0  0  0  0  0  0  0  0  0  0  0
   -1.2440   -1.6916   -0.9486 N   0  0  0  0  0  0  0  0  0  0  0  0
   -1.2440   -1.6916   -2.3370 O   0  0  0  0  0  0  0  0  0  0  0  0
   -0.1887    0.3911    1.3531 H   0  0  0  0  0  0  0  0  0  0  0  0
   -2.1234    0.2762    1.2930 H   0  0  0  0  0  0  0  0  0  0  0  0
   -1.2440   -1.2505    1.5202 H   0  0  0  0  0  0  0  0  0  0  0  0
   -1.2440    0.3399   -1.1537 H   0  0  0  0  0  0  0  0  0  0  0  0
   -1.2440   -2.6253   -2.5545 H   0  0  0  0  0  0  0  0  0  0  0  0
  1  2  1  0
  1  4  1  0
  1  5  1  0
  1  6  1  0
  2  3  2  3
  2  7  1  0
  3 12  1  0
  8  9  1  0
  8 13  1  0
  8 14  1  0
  9 10  2  3
  9 15  1  0
 10 11  1  0
 11 16  1  0
M  RAD  1   8   2
M  END
>  <reaction>  (18) 
rmg_rxn_16502

>  <mol_properties>  (18) 
{"1": {"label": "*0", "atom_type": "Cd"}, "2": {"label": "*1", "atom_type": "N3d"}, "7": {"label": "*3", "atom_type": "Cs"}, "8": {"label": "*4", "atom_type": "Cd"}, "11": {"label": "*2", "atom_type": "H0"}}

>  <type>  (18) 
unop_14

>  <geom_source>  (18) 
Heuristics

$$$$

     RDKit          3D

 16 14  0  0  0  0  0  0  0  0999 V2000
    2.2055    2.7849    0.9893 C   0  0  0  0  0  0  0  0  0  0  0  0
    1.3213    1.6122    0.7246 C   0  0  0  0  0  0  0  0  0  0  0  0
    0.9513    0.8331    1.6479 N   0  0  0  0  0  0  0  0  0  0  0  0
    3.1237    2.7055    0.4017 H   0  0  0  0  0  0  0  0  0  0  0  0
    2.4541    2.8403    2.0477 H   0  0  0  0  0  0  0  0  0  0  0  0
    1.7093    3.7088    0.6814 H   0  0  0  0  0  0  0  0  0  0  0  0
    1.0165    1.4740   -0.3207 H   0  0  0  0  0  0  0  0  0  0  0  0
   -1.0873   -0.4983    0.9515 C   0  0  0  0  0  3  0  0  0  0  0  0
   -1.0873   -0.7178   -0.5209 C   0  0  0  0  0  0  0  0  0  0  0  0
   -1.0873   -1.8918   -0.9897 N   0  0  0  0  0  0  0  0  0  0  0  0
   -1.0873   -1.8918   -2.3781 O   0  0  0  0  0  0  0  0  0  0  0  0
   -0.0320    0.1909    1.3120 H   0  0  0  0  0  0  0  0  0  0  0  0
   -1.9667    0.0761    1.2519 H   0  0  0  0  0  0  0  0  0  0  0  0
   -1.0873   -1.4506    1.4791 H   0  0  0  0  0  0  0  0  0  0  0  0
   -1.0873    0.1397   -1.1948 H   0  0  0  0  0  0  0  0  0  0  0  0
   -1.0873   -2.8255   -2.5956 H   0  0  0  0  0  0  0  0  0  0  0  0
  1  2  1  0
  1  4  1  0
  1  5  1  0
  1  6  1  0
  2  3  2  3
  2  7  1  0
  3 12  1  0
  8  9  1  0
  8 13  1  0
  8 14  1  0
  9 10  2  3
  9 15  1  0
 10 11  1  0
 11 16  1  0
M  RAD  1   8   2
M  END
>  <reaction>  (19) 
rmg_rxn_16502

>  <mol_properties>  (19) 
{"1": {"label": "*0", "atom_type": "Cd"}, "2": {"label": "*1", "atom_type": "N3d"}, "7": {"label": "*3", "atom_type": "Cs"}, "8": {"label": "*4", "atom_type": "Cd"}, "11": {"label": "*2", "atom_type": "H0"}}

>  <type>  (19) 
unop_15

>  <geom_source>  (19) 
gaussian_log

$$$$
