
     RDKit          3D

  9  8  0  0  0  0  0  0  0  0999 V2000
   -0.8818   -0.3578    0.1297 C   0  0  0  0  0  0  0  0  0  0  0  0
    0.6153   -0.3021   -0.1188 C   0  0  0  0  0  0  0  0  0  0  0  0
    1.5354   -1.7170    0.5545 S   0  0  0  0  0  0  0  0  0  0  0  0
   -1.1018   -0.3317    1.1984 H   0  0  0  0  0  0  0  0  0  0  0  0
   -1.3114   -1.2723   -0.2799 H   0  0  0  0  0  0  0  0  0  0  0  0
   -1.3767    0.4976   -0.3363 H   0  0  0  0  0  0  0  0  0  0  0  0
    1.0467    0.6194    0.2718 H   0  0  0  0  0  0  0  0  0  0  0  0
    0.8295   -0.3275   -1.1882 H   0  0  0  0  0  0  0  0  0  0  0  0
    1.2306   -1.5077    1.8423 H   0  0  0  0  0  0  0  0  0  0  0  0
  1  2  1  0
  1  4  1  0
  1  5  1  0
  1  6  1  0
  2  3  1  0
  2  7  1  0
  2  8  1  0
  3  9  1  0
M  END
>  <reaction>  (1) 
rmg_rxn_19

>  <mol_properties>  (1) 
{"2": {"label": "donator", "atom_type": "S2s"}, "8": {"label": "d_hydrogen", "atom_type": "H0"}}

>  <type>  (1) 
r1h

$$$$

     RDKit          3D

 14 13  0  0  0  0  0  0  0  0999 V2000
    2.5796   -0.5432    0.2329 C   0  0  0  0  0  3  0  0  0  0  0  0
    1.2594    0.0982    0.3029 C   0  0  0  0  0  0  0  0  0  0  0  0
   -0.0483   -1.0244    0.9576 S   0  0  0  0  0  0  0  0  0  0  0  0
   -0.0049   -2.3732   -0.2491 C   0  0  0  0  0  0  0  0  0  0  0  0
   -0.3891   -1.9781   -1.6653 C   0  0  0  0  0  0  0  0  0  0  0  0
    2.9359   -0.9798   -0.6903 H   0  0  0  0  0  0  0  0  0  0  0  0
    3.1327   -0.7454    1.1400 H   0  0  0  0  0  0  0  0  0  0  0  0
    0.9347    0.4858   -0.6621 H   0  0  0  0  0  0  0  0  0  0  0  0
    1.2442    0.9220    1.0193 H   0  0  0  0  0  0  0  0  0  0  0  0
    0.9819   -2.8380   -0.2257 H   0  0  0  0  0  0  0  0  0  0  0  0
   -0.7110   -3.1037    0.1493 H   0  0  0  0  0  0  0  0  0  0  0  0
    0.3274   -1.2737   -2.0913 H   0  0  0  0  0  0  0  0  0  0  0  0
   -0.4075   -2.8581   -2.3121 H   0  0  0  0  0  0  0  0  0  0  0  0
   -1.3749   -1.5123   -1.6865 H   0  0  0  0  0  0  0  0  0  0  0  0
  1  2  1  0
  1  6  1  0
  1  7  1  0
  2  3  1  0
  2  8  1  0
  2  9  1  0
  3  4  1  0
  4  5  1  0
  4 10  1  0
  4 11  1  0
  5 12  1  0
  5 13  1  0
  5 14  1  0
M  RAD  1   1   2
M  END
>  <reaction>  (2) 
rmg_rxn_19

>  <mol_properties>  (2) 
{"0": {"label": "acceptor", "atom_type": "Cs"}}

>  <type>  (2) 
r2

$$$$

     RDKit          3D

 15 14  0  0  0  0  0  0  0  0999 V2000
   -2.0554    0.0723   -0.4910 C   0  0  0  0  0  0  0  0  0  0  0  0
   -0.7461   -0.6266   -0.8178 C   0  0  0  0  0  0  0  0  0  0  0  0
    0.3249    0.2591   -1.9782 S   0  0  0  0  0  0  0  0  0  0  0  0
   -0.7172    0.3642   -3.4551 C   0  0  0  0  0  0  0  0  0  0  0  0
   -1.1375   -0.9737   -4.0409 C   0  0  0  0  0  0  0  0  0  0  0  0
   -2.7005    0.1427   -1.3684 H   0  0  0  0  0  0  0  0  0  0  0  0
   -2.6016   -0.4848    0.2733 H   0  0  0  0  0  0  0  0  0  0  0  0
   -1.8758    1.0825   -0.1213 H   0  0  0  0  0  0  0  0  0  0  0  0
   -0.1320   -0.7246    0.0789 H   0  0  0  0  0  0  0  0  0  0  0  0
   -0.9254   -1.6374   -1.1879 H   0  0  0  0  0  0  0  0  0  0  0  0
   -1.5873    0.9874   -3.2422 H   0  0  0  0  0  0  0  0  0  0  0  0
   -0.1021    0.9161   -4.1678 H   0  0  0  0  0  0  0  0  0  0  0  0
   -1.7876   -1.5224   -3.3574 H   0  0  0  0  0  0  0  0  0  0  0  0
   -0.2676   -1.5962   -4.2534 H   0  0  0  0  0  0  0  0  0  0  0  0
   -1.6916   -0.8229   -4.9700 H   0  0  0  0  0  0  0  0  0  0  0  0
  1  2  1  0
  1  6  1  0
  1  7  1  0
  1  8  1  0
  2  3  1  0
  2  9  1  0
  2 10  1  0
  3  4  1  0
  4  5  1  0
  4 11  1  0
  4 12  1  0
  5 13  1  0
  5 14  1  0
  5 15  1  0
M  END
>  <reaction>  (3) 
rmg_rxn_19

>  <mol_properties>  (3) 
{"0": {"label": "a_hydrogen", "atom_type": "H0"}, "1": {"label": "acceptor", "atom_type": "Cs"}}

>  <type>  (3) 
r2h

$$$$

     RDKit          3D

 23 21  0  0  0  0  0  0  0  0999 V2000
   -2.6649   -0.5567   -1.3335 C   0  0  0  0  0  0  0  0  0  0  0  0
   -2.2237   -0.9210    0.0737 C   0  0  0  0  0  0  0  0  0  0  0  0
   -1.7721    0.5068    1.0971 S   0  0  0  0  0  0  0  0  0  0  0  0
   -1.8530   -0.0742   -1.8812 H   0  0  0  0  0  0  0  0  0  0  0  0
   -3.5111    0.1308   -1.3148 H   0  0  0  0  0  0  0  0  0  0  0  0
   -2.9557   -1.4528   -1.8871 H   0  0  0  0  0  0  0  0  0  0  0  0
   -1.3814   -1.6116    0.0527 H   0  0  0  0  0  0  0  0  0  0  0  0
   -3.0369   -1.4061    0.6173 H   0  0  0  0  0  0  0  0  0  0  0  0
   -0.6680    0.9629    0.2514 H   0  0  0  0  0  0  0  0  0  0  0  0
    0.4971    1.5438   -0.5924 C   0  0  0  0  0  3  0  0  0  0  0  0
    1.1871    0.4682   -1.3622 C   0  0  0  0  0  0  0  0  0  0  0  0
    1.5028   -1.0921   -0.4835 S   0  0  0  0  0  0  0  0  0  0  0  0
    2.2339   -0.5148    1.0666 C   0  0  0  0  0  0  0  0  0  0  0  0
    3.5403    0.2461    0.9130 C   0  0  0  0  0  0  0  0  0  0  0  0
    1.0361    1.9761    0.2452 H   0  0  0  0  0  0  0  0  0  0  0  0
   -0.0710    2.2654   -1.1708 H   0  0  0  0  0  0  0  0  0  0  0  0
    2.1405    0.8521   -1.7431 H   0  0  0  0  0  0  0  0  0  0  0  0
    0.5992    0.1717   -2.2315 H   0  0  0  0  0  0  0  0  0  0  0  0
    1.4891    0.0668    1.6126 H   0  0  0  0  0  0  0  0  0  0  0  0
    2.3904   -1.4330    1.6351 H   0  0  0  0  0  0  0  0  0  0  0  0
    3.4013    1.1738    0.3546 H   0  0  0  0  0  0  0  0  0  0  0  0
    3.9409    0.5106    1.8939 H   0  0  0  0  0  0  0  0  0  0  0  0
    4.2825   -0.3550    0.3868 H   0  0  0  0  0  0  0  0  0  0  0  0
  1  2  1  0
  1  4  1  0
  1  5  1  0
  1  6  1  0
  2  3  1  0
  2  7  1  0
  2  8  1  0
  3  9  1  0
 10 11  1  0
 10 15  1  0
 10 16  1  0
 11 12  1  0
 11 17  1  0
 11 18  1  0
 12 13  1  0
 13 14  1  0
 13 19  1  0
 13 20  1  0
 14 21  1  0
 14 22  1  0
 14 23  1  0
M  RAD  1  10   2
M  END
>  <reaction>  (4) 
rmg_rxn_19

>  <mol_properties>  (4) 
{"1": {"label": "*0", "atom_type": "Cs"}, "2": {"label": "*1", "atom_type": "S2s"}, "8": {"label": "*2", "atom_type": "H0"}, "9": {"label": "*3", "atom_type": "Cs"}, "10": {"label": "*4", "atom_type": "Cs"}}

>  <type>  (4) 
ts

$$$$

     RDKit          3D

 23 21  0  0  0  0  0  0  0  0999 V2000
   -1.7891   -2.2542   -0.1247 C   0  0  0  0  0  0  0  0  0  0  0  0
   -1.7891   -2.2542    1.3940 C   0  0  0  0  0  0  0  0  0  0  0  0
   -1.7891   -0.5968    2.1390 S   0  0  0  0  0  1  0  0  0  0  0  0
   -0.8825   -1.7887   -0.5154 H   0  0  0  0  0  0  0  0  0  0  0  0
   -2.6451   -1.7030   -0.5148 H   0  0  0  0  0  0  0  0  0  0  0  0
   -1.8322   -3.2775   -0.5050 H   0  0  0  0  0  0  0  0  0  0  0  0
   -0.9459   -2.8203    1.7891 H   0  0  0  0  0  0  0  0  0  0  0  0
   -2.6967   -2.7212    1.7791 H   0  0  0  0  0  0  0  0  0  0  0  0
   -0.3794   -0.1148    1.5347 H   0  0  0  0  0  0  0  0  0  0  0  0
    0.7681    0.2776    1.0429 C   0  0  0  0  0  0  0  0  0  0  0  0
    0.5925    1.5119    0.1738 C   0  0  0  0  0  0  0  0  0  0  0  0
    0.4050    1.1806   -1.5963 S   0  0  0  0  0  0  0  0  0  0  0  0
    1.9619    0.3471   -1.9955 C   0  0  0  0  0  0  0  0  0  0  0  0
    3.2141    1.1703   -1.7425 C   0  0  0  0  0  0  0  0  0  0  0  0
    1.7039   -0.2379    0.8201 H   0  0  0  0  0  0  0  0  0  0  0  0
    0.7917    0.5578    2.0983 H   0  0  0  0  0  0  0  0  0  0  0  0
    1.4116    2.2164    0.3268 H   0  0  0  0  0  0  0  0  0  0  0  0
   -0.3270    2.0367    0.4383 H   0  0  0  0  0  0  0  0  0  0  0  0
    2.0091   -0.6068   -1.4677 H   0  0  0  0  0  0  0  0  0  0  0  0
    1.8667    0.1144   -3.0574 H   0  0  0  0  0  0  0  0  0  0  0  0
    3.3476    1.3780   -0.6795 H   0  0  0  0  0  0  0  0  0  0  0  0
    4.0989    0.6286   -2.0841 H   0  0  0  0  0  0  0  0  0  0  0  0
    3.1665    2.1237   -2.2701 H   0  0  0  0  0  0  0  0  0  0  0  0
  1  2  1  0
  1  4  1  0
  1  5  1  0
  1  6  1  0
  2  3  1  0
  2  7  1  0
  2  8  1  0
  9 10  1  0
 10 11  1  0
 10 15  1  0
 10 16  1  0
 11 12  1  0
 11 17  1  0
 11 18  1  0
 12 13  1  0
 13 14  1  0
 13 19  1  0
 13 20  1  0
 14 21  1  0
 14 22  1  0
 14 23  1  0
M  RAD  1   3   2
M  END
>  <reaction>  (5) 
rmg_rxn_19

>  <mol_properties>  (5) 
{"1": {"label": "*0", "atom_type": "Cs"}, "2": {"label": "*1", "atom_type": "S2s"}, "8": {"label": "*2", "atom_type": "H0"}, "9": {"label": "*3", "atom_type": "Cs"}, "10": {"label": "*4", "atom_type": "Cs"}}

>  <type>  (5) 
unop_1

>  <geom_source>  (5) 
Heuristics

$$$$

     RDKit          3D

 23 21  0  0  0  0  0  0  0  0999 V2000
   -2.2445   -0.9106   -0.8218 C   0  0  0  0  0  0  0  0  0  0  0  0
   -2.2445   -0.9106    0.6968 C   0  0  0  0  0  0  0  0  0  0  0  0
   -2.2445    0.7468    1.4418 S   0  0  0  0  0  1  0  0  0  0  0  0
   -1.3379   -0.4451   -1.2126 H   0  0  0  0  0  0  0  0  0  0  0  0
   -3.1005   -0.3594   -1.2119 H   0  0  0  0  0  0  0  0  0  0  0  0
   -2.2876   -1.9339   -1.2021 H   0  0  0  0  0  0  0  0  0  0  0  0
   -1.4012   -1.4767    1.0919 H   0  0  0  0  0  0  0  0  0  0  0  0
   -3.1521   -1.3776    1.0820 H   0  0  0  0  0  0  0  0  0  0  0  0
   -0.8347    1.2288    0.8376 H   0  0  0  0  0  0  0  0  0  0  0  0
    0.3128    1.6212    0.3457 C   0  0  0  0  0  0  0  0  0  0  0  0
    0.5853    0.9558   -0.9931 C   0  0  0  0  0  0  0  0  0  0  0  0
    1.0308   -0.7966   -0.8998 S   0  0  0  0  0  0  0  0  0  0  0  0
    2.5399   -0.7539    0.0996 C   0  0  0  0  0  0  0  0  0  0  0  0
    3.6830    0.0500   -0.4977 C   0  0  0  0  0  0  0  0  0  0  0  0
    1.2121    1.6603    0.9627 H   0  0  0  0  0  0  0  0  0  0  0  0
   -0.0267    2.6485    0.1959 H   0  0  0  0  0  0  0  0  0  0  0  0
    1.3532    1.4968   -1.5484 H   0  0  0  0  0  0  0  0  0  0  0  0
   -0.3135    0.9623   -1.6121 H   0  0  0  0  0  0  0  0  0  0  0  0
    2.3002   -0.4035    1.1049 H   0  0  0  0  0  0  0  0  0  0  0  0
    2.8200   -1.8046    0.1915 H   0  0  0  0  0  0  0  0  0  0  0  0
    3.4356    1.1111   -0.5592 H   0  0  0  0  0  0  0  0  0  0  0  0
    4.5763   -0.0426    0.1239 H   0  0  0  0  0  0  0  0  0  0  0  0
    3.9222   -0.3005   -1.5023 H   0  0  0  0  0  0  0  0  0  0  0  0
  1  2  1  0
  1  4  1  0
  1  5  1  0
  1  6  1  0
  2  3  1  0
  2  7  1  0
  2  8  1  0
  9 10  1  0
 10 11  1  0
 10 15  1  0
 10 16  1  0
 11 12  1  0
 11 17  1  0
 11 18  1  0
 12 13  1  0
 13 14  1  0
 13 19  1  0
 13 20  1  0
 14 21  1  0
 14 22  1  0
 14 23  1  0
M  RAD  1   3   2
M  END
>  <reaction>  (6) 
rmg_rxn_19

>  <mol_properties>  (6) 
{"1": {"label": "*0", "atom_type": "Cs"}, "2": {"label": "*1", "atom_type": "S2s"}, "8": {"label": "*2", "atom_type": "H0"}, "9": {"label": "*3", "atom_type": "Cs"}, "10": {"label": "*4", "atom_type": "Cs"}}

>  <type>  (6) 
unop_2

>  <geom_source>  (6) 
Heuristics

$$$$

     RDKit          3D

 23 21  0  0  0  0  0  0  0  0999 V2000
   -1.5868   -2.7015   -0.3528 C   0  0  0  0  0  0  0  0  0  0  0  0
   -1.5868   -2.7015    1.1658 C   0  0  0  0  0  0  0  0  0  0  0  0
   -1.5868   -1.0442    1.9108 S   0  0  0  0  0  1  0  0  0  0  0  0
   -0.6801   -2.2361   -0.7436 H   0  0  0  0  0  0  0  0  0  0  0  0
   -2.4427   -2.1503   -0.7429 H   0  0  0  0  0  0  0  0  0  0  0  0
   -1.6298   -3.7249   -0.7331 H   0  0  0  0  0  0  0  0  0  0  0  0
   -0.7435   -3.2676    1.5609 H   0  0  0  0  0  0  0  0  0  0  0  0
   -2.4944   -3.1686    1.5510 H   0  0  0  0  0  0  0  0  0  0  0  0
   -0.1770   -0.5621    1.3066 H   0  0  0  0  0  0  0  0  0  0  0  0
    0.9705   -0.1698    0.8147 C   0  0  0  0  0  0  0  0  0  0  0  0
    0.9838    1.3350    0.6023 C   0  0  0  0  0  0  0  0  0  0  0  0
    0.2487    1.8941   -0.9550 S   0  0  0  0  0  0  0  0  0  0  0  0
    1.2946    1.0762   -2.1860 C   0  0  0  0  0  0  0  0  0  0  0  0
    2.7656    1.4539   -2.1314 C   0  0  0  0  0  0  0  0  0  0  0  0
    1.5989   -0.6819    0.0841 H   0  0  0  0  0  0  0  0  0  0  0  0
    1.3552   -0.4155    1.8070 H   0  0  0  0  0  0  0  0  0  0  0  0
    1.9964    1.7322    0.6893 H   0  0  0  0  0  0  0  0  0  0  0  0
    0.3841    1.8332    1.3658 H   0  0  0  0  0  0  0  0  0  0  0  0
    1.1664   -0.0049   -2.1110 H   0  0  0  0  0  0  0  0  0  0  0  0
    0.8583    1.3789   -3.1394 H   0  0  0  0  0  0  0  0  0  0  0  0
    3.2289    1.1220   -1.2007 H   0  0  0  0  0  0  0  0  0  0  0  0
    3.3084    0.9826   -2.9538 H   0  0  0  0  0  0  0  0  0  0  0  0
    2.8933    2.5343   -2.2063 H   0  0  0  0  0  0  0  0  0  0  0  0
  1  2  1  0
  1  4  1  0
  1  5  1  0
  1  6  1  0
  2  3  1  0
  2  7  1  0
  2  8  1  0
  9 10  1  0
 10 11  1  0
 10 15  1  0
 10 16  1  0
 11 12  1  0
 11 17  1  0
 11 18  1  0
 12 13  1  0
 13 14  1  0
 13 19  1  0
 13 20  1  0
 14 21  1  0
 14 22  1  0
 14 23  1  0
M  RAD  1   3   2
M  END
>  <reaction>  (7) 
rmg_rxn_19

>  <mol_properties>  (7) 
{"1": {"label": "*0", "atom_type": "Cs"}, "2": {"label": "*1", "atom_type": "S2s"}, "8": {"label": "*2", "atom_type": "H0"}, "9": {"label": "*3", "atom_type": "Cs"}, "10": {"label": "*4", "atom_type": "Cs"}}

>  <type>  (7) 
unop_3

>  <geom_source>  (7) 
Heuristics

$$$$

     RDKit          3D

 23 21  0  0  0  0  0  0  0  0999 V2000
   -2.0209   -1.3960   -2.4110 C   0  0  0  0  0  0  0  0  0  0  0  0
   -2.0209   -1.3960   -0.8923 C   0  0  0  0  0  0  0  0  0  0  0  0
   -2.0209    0.2613   -0.1474 S   0  0  0  0  0  1  0  0  0  0  0  0
   -1.1143   -0.9306   -2.8018 H   0  0  0  0  0  0  0  0  0  0  0  0
   -2.8769   -0.8448   -2.8011 H   0  0  0  0  0  0  0  0  0  0  0  0
   -2.0640   -2.4194   -2.7913 H   0  0  0  0  0  0  0  0  0  0  0  0
   -1.1777   -1.9622   -0.4972 H   0  0  0  0  0  0  0  0  0  0  0  0
   -2.9285   -1.8631   -0.5072 H   0  0  0  0  0  0  0  0  0  0  0  0
   -0.6112    0.7433   -0.7516 H   0  0  0  0  0  0  0  0  0  0  0  0
    0.5363    1.1357   -1.2434 C   0  0  0  0  0  0  0  0  0  0  0  0
    1.6636    0.2268   -0.7823 C   0  0  0  0  0  0  0  0  0  0  0  0
    1.3376   -0.6782    0.7517 S   0  0  0  0  0  0  0  0  0  0  0  0
    1.0861    0.6641    1.9405 C   0  0  0  0  0  0  0  0  0  0  0  0
    2.2743    1.5945    2.1192 C   0  0  0  0  0  0  0  0  0  0  0  0
    0.3710    1.9547   -0.5414 H   0  0  0  0  0  0  0  0  0  0  0  0
    0.7791    1.5784   -2.2120 H   0  0  0  0  0  0  0  0  0  0  0  0
    2.5977    0.7826   -0.6847 H   0  0  0  0  0  0  0  0  0  0  0  0
    1.8421   -0.5615   -1.5155 H   0  0  0  0  0  0  0  0  0  0  0  0
    0.1890    1.2243    1.6715 H   0  0  0  0  0  0  0  0  0  0  0  0
    0.8643    0.1451    2.8745 H   0  0  0  0  0  0  0  0  0  0  0  0
    2.4853    2.1529    1.2056 H   0  0  0  0  0  0  0  0  0  0  0  0
    2.0704    2.3219    2.9080 H   0  0  0  0  0  0  0  0  0  0  0  0
    3.1706    1.0343    2.3878 H   0  0  0  0  0  0  0  0  0  0  0  0
  1  2  1  0
  1  4  1  0
  1  5  1  0
  1  6  1  0
  2  3  1  0
  2  7  1  0
  2  8  1  0
  9 10  1  0
 10 11  1  0
 10 15  1  0
 10 16  1  0
 11 12  1  0
 11 17  1  0
 11 18  1  0
 12 13  1  0
 13 14  1  0
 13 19  1  0
 13 20  1  0
 14 21  1  0
 14 22  1  0
 14 23  1  0
M  RAD  1   3   2
M  END
>  <reaction>  (8) 
rmg_rxn_19

>  <mol_properties>  (8) 
{"1": {"label": "*0", "atom_type": "Cs"}, "2": {"label": "*1", "atom_type": "S2s"}, "8": {"label": "*2", "atom_type": "H0"}, "9": {"label": "*3", "atom_type": "Cs"}, "10": {"label": "*4", "atom_type": "Cs"}}

>  <type>  (8) 
unop_4

>  <geom_source>  (8) 
Heuristics

$$$$

     RDKit          3D

 23 21  0  0  0  0  0  0  0  0999 V2000
   -1.2870   -3.0661   -0.9590 C   0  0  0  0  0  0  0  0  0  0  0  0
   -1.2870   -3.0661    0.5596 C   0  0  0  0  0  0  0  0  0  0  0  0
   -1.2870   -1.4087    1.3046 S   0  0  0  0  0  1  0  0  0  0  0  0
   -0.3804   -2.6007   -1.3498 H   0  0  0  0  0  0  0  0  0  0  0  0
   -2.1430   -2.5149   -1.3491 H   0  0  0  0  0  0  0  0  0  0  0  0
   -1.3301   -4.0895   -1.3393 H   0  0  0  0  0  0  0  0  0  0  0  0
   -0.4438   -3.6322    0.9548 H   0  0  0  0  0  0  0  0  0  0  0  0
   -2.1946   -3.5331    0.9448 H   0  0  0  0  0  0  0  0  0  0  0  0
    0.1227   -0.9267    0.7004 H   0  0  0  0  0  0  0  0  0  0  0  0
    1.2702   -0.5344    0.2086 C   0  0  0  0  0  0  0  0  0  0  0  0
    1.5964    0.8812    0.6550 C   0  0  0  0  0  0  0  0  0  0  0  0
    0.3252    2.1142    0.2780 S   0  0  0  0  0  0  0  0  0  0  0  0
    0.2354    2.0296   -1.5284 C   0  0  0  0  0  0  0  0  0  0  0  0
    1.5285    2.3670   -2.2519 C   0  0  0  0  0  0  0  0  0  0  0  0
    1.2152   -0.6076   -0.8789 H   0  0  0  0  0  0  0  0  0  0  0  0
    2.0463   -1.2256    0.5446 H   0  0  0  0  0  0  0  0  0  0  0  0
    2.5532    1.2088    0.2449 H   0  0  0  0  0  0  0  0  0  0  0  0
    1.6879    0.9269    1.7414 H   0  0  0  0  0  0  0  0  0  0  0  0
   -0.1347    1.0478   -1.8282 H   0  0  0  0  0  0  0  0  0  0  0  0
   -0.5434    2.7503   -1.7833 H   0  0  0  0  0  0  0  0  0  0  0  0
    2.3077    1.6327   -2.0406 H   0  0  0  0  0  0  0  0  0  0  0  0
    1.3677    2.3722   -3.3323 H   0  0  0  0  0  0  0  0  0  0  0  0
    1.8981    3.3482   -1.9519 H   0  0  0  0  0  0  0  0  0  0  0  0
  1  2  1  0
  1  4  1  0
  1  5  1  0
  1  6  1  0
  2  3  1  0
  2  7  1  0
  2  8  1  0
  9 10  1  0
 10 11  1  0
 10 15  1  0
 10 16  1  0
 11 12  1  0
 11 17  1  0
 11 18  1  0
 12 13  1  0
 13 14  1  0
 13 19  1  0
 13 20  1  0
 14 21  1  0
 14 22  1  0
 14 23  1  0
M  RAD  1   3   2
M  END
>  <reaction>  (9) 
rmg_rxn_19

>  <mol_properties>  (9) 
{"1": {"label": "*0", "atom_type": "Cs"}, "2": {"label": "*1", "atom_type": "S2s"}, "8": {"label": "*2", "atom_type": "H0"}, "9": {"label": "*3", "atom_type": "Cs"}, "10": {"label": "*4", "atom_type": "Cs"}}

>  <type>  (9) 
unop_5

>  <geom_source>  (9) 
Heuristics

$$$$

     RDKit          3D

 23 21  0  0  0  0  0  0  0  0999 V2000
   -1.8140   -1.9305   -2.5671 C   0  0  0  0  0  0  0  0  0  0  0  0
   -1.8140   -1.9305   -1.0485 C   0  0  0  0  0  0  0  0  0  0  0  0
   -1.8140   -0.2732   -0.3035 S   0  0  0  0  0  1  0  0  0  0  0  0
   -0.9073   -1.4651   -2.9579 H   0  0  0  0  0  0  0  0  0  0  0  0
   -2.6700   -1.3793   -2.9572 H   0  0  0  0  0  0  0  0  0  0  0  0
   -1.8571   -2.9539   -2.9474 H   0  0  0  0  0  0  0  0  0  0  0  0
   -0.9707   -2.4966   -0.6534 H   0  0  0  0  0  0  0  0  0  0  0  0
   -2.7216   -2.3976   -0.6633 H   0  0  0  0  0  0  0  0  0  0  0  0
   -0.4042    0.2089   -0.9077 H   0  0  0  0  0  0  0  0  0  0  0  0
    0.7433    0.6012   -1.3996 C   0  0  0  0  0  0  0  0  0  0  0  0
    1.8850    0.2499   -0.4600 C   0  0  0  0  0  0  0  0  0  0  0  0
    1.3837   -0.1778    1.2264 S   0  0  0  0  0  0  0  0  0  0  0  0
    0.5612    1.3386    1.7761 C   0  0  0  0  0  0  0  0  0  0  0  0
    1.4399    2.5785    1.7853 C   0  0  0  0  0  0  0  0  0  0  0  0
    0.2361    1.5157   -1.0874 H   0  0  0  0  0  0  0  0  0  0  0  0
    1.1220    0.7656   -2.4108 H   0  0  0  0  0  0  0  0  0  0  0  0
    2.6239    1.0523   -0.4270 H   0  0  0  0  0  0  0  0  0  0  0  0
    2.4059   -0.6428   -0.8100 H   0  0  0  0  0  0  0  0  0  0  0  0
   -0.3373    1.5017    1.1786 H   0  0  0  0  0  0  0  0  0  0  0  0
    0.2271    1.1005    2.7874 H   0  0  0  0  0  0  0  0  0  0  0  0
    1.7502    2.8556    0.7765 H   0  0  0  0  0  0  0  0  0  0  0  0
    0.8939    3.4264    2.2047 H   0  0  0  0  0  0  0  0  0  0  0  0
    2.3377    2.4150    2.3825 H   0  0  0  0  0  0  0  0  0  0  0  0
  1  2  1  0
  1  4  1  0
  1  5  1  0
  1  6  1  0
  2  3  1  0
  2  7  1  0
  2  8  1  0
  9 10  1  0
 10 11  1  0
 10 15  1  0
 10 16  1  0
 11 12  1  0
 11 17  1  0
 11 18  1  0
 12 13  1  0
 13 14  1  0
 13 19  1  0
 13 20  1  0
 14 21  1  0
 14 22  1  0
 14 23  1  0
M  RAD  1   3   2
M  END
>  <reaction>  (10) 
rmg_rxn_19

>  <mol_properties>  (10) 
{"1": {"label": "*0", "atom_type": "Cs"}, "2": {"label": "*1", "atom_type": "S2s"}, "8": {"label": "*2", "atom_type": "H0"}, "9": {"label": "*3", "atom_type": "Cs"}, "10": {"label": "*4", "atom_type": "Cs"}}

>  <type>  (10) 
unop_6

>  <geom_source>  (10) 
Heuristics

$$$$

     RDKit          3D

 23 21  0  0  0  0  0  0  0  0999 V2000
   -1.5483   -2.5118   -2.4213 C   0  0  0  0  0  0  0  0  0  0  0  0
   -1.5483   -2.5118   -0.9027 C   0  0  0  0  0  0  0  0  0  0  0  0
   -1.5483   -0.8544   -0.1577 S   0  0  0  0  0  1  0  0  0  0  0  0
   -0.6416   -2.0463   -2.8121 H   0  0  0  0  0  0  0  0  0  0  0  0
   -2.4042   -1.9606   -2.8114 H   0  0  0  0  0  0  0  0  0  0  0  0
   -1.5913   -3.5351   -2.8016 H   0  0  0  0  0  0  0  0  0  0  0  0
   -0.7050   -3.0779   -0.5075 H   0  0  0  0  0  0  0  0  0  0  0  0
   -2.4559   -2.9788   -0.5175 H   0  0  0  0  0  0  0  0  0  0  0  0
   -0.1385   -0.3724   -0.7619 H   0  0  0  0  0  0  0  0  0  0  0  0
    1.0090    0.0200   -1.2537 C   0  0  0  0  0  0  0  0  0  0  0  0
    1.9866    0.3640   -0.1422 C   0  0  0  0  0  0  0  0  0  0  0  0
    1.2404    0.5795    1.4933 S   0  0  0  0  0  0  0  0  0  0  0  0
    0.0977    1.9557    1.2129 C   0  0  0  0  0  0  0  0  0  0  0  0
    0.7509    3.2497    0.7564 C   0  0  0  0  0  0  0  0  0  0  0  0
    0.3129    0.8393   -1.4411 H   0  0  0  0  0  0  0  0  0  0  0  0
    1.5467   -0.1725   -2.1848 H   0  0  0  0  0  0  0  0  0  0  0  0
    2.5689    1.2515   -0.3957 H   0  0  0  0  0  0  0  0  0  0  0  0
    2.7000   -0.4489    0.0033 H   0  0  0  0  0  0  0  0  0  0  0  0
   -0.6814    1.6446    0.5150 H   0  0  0  0  0  0  0  0  0  0  0  0
   -0.3851    2.0934    2.1819 H   0  0  0  0  0  0  0  0  0  0  0  0
    1.2041    3.1418   -0.2305 H   0  0  0  0  0  0  0  0  0  0  0  0
    0.0068    4.0465    0.6899 H   0  0  0  0  0  0  0  0  0  0  0  0
    1.5295    3.5601    1.4541 H   0  0  0  0  0  0  0  0  0  0  0  0
  1  2  1  0
  1  4  1  0
  1  5  1  0
  1  6  1  0
  2  3  1  0
  2  7  1  0
  2  8  1  0
  9 10  1  0
 10 11  1  0
 10 15  1  0
 10 16  1  0
 11 12  1  0
 11 17  1  0
 11 18  1  0
 12 13  1  0
 13 14  1  0
 13 19  1  0
 13 20  1  0
 14 21  1  0
 14 22  1  0
 14 23  1  0
M  RAD  1   3   2
M  END
>  <reaction>  (11) 
rmg_rxn_19

>  <mol_properties>  (11) 
{"1": {"label": "*0", "atom_type": "Cs"}, "2": {"label": "*1", "atom_type": "S2s"}, "8": {"label": "*2", "atom_type": "H0"}, "9": {"label": "*3", "atom_type": "Cs"}, "10": {"label": "*4", "atom_type": "Cs"}}

>  <type>  (11) 
unop_7

>  <geom_source>  (11) 
Heuristics

$$$$

     RDKit          3D

 23 21  0  0  0  0  0  0  0  0999 V2000
   -1.9461   -1.7575   -0.1063 C   0  0  0  0  0  0  0  0  0  0  0  0
   -1.9461   -1.7575    1.4123 C   0  0  0  0  0  0  0  0  0  0  0  0
   -1.9461   -0.1001    2.1573 S   0  0  0  0  0  1  0  0  0  0  0  0
   -1.0395   -1.2921   -0.4971 H   0  0  0  0  0  0  0  0  0  0  0  0
   -2.8021   -1.2063   -0.4964 H   0  0  0  0  0  0  0  0  0  0  0  0
   -1.9892   -2.7808   -0.4866 H   0  0  0  0  0  0  0  0  0  0  0  0
   -1.1028   -2.3236    1.8074 H   0  0  0  0  0  0  0  0  0  0  0  0
   -2.8537   -2.2245    1.7975 H   0  0  0  0  0  0  0  0  0  0  0  0
   -0.5363    0.3819    1.5531 H   0  0  0  0  0  0  0  0  0  0  0  0
    0.6112    0.7743    1.0612 C   0  0  0  0  0  0  0  0  0  0  0  0
    0.4211    1.4509   -0.2862 C   0  0  0  0  0  0  0  0  0  0  0  0
    0.6225    0.3664   -1.7220 S   0  0  0  0  0  0  0  0  0  0  0  0
    2.3331   -0.1973   -1.5374 C   0  0  0  0  0  0  0  0  0  0  0  0
    3.3784    0.9056   -1.5586 C   0  0  0  0  0  0  0  0  0  0  0  0
    1.6382    0.4300    1.1940 H   0  0  0  0  0  0  0  0  0  0  0  0
    0.3932    1.4744    1.8707 H   0  0  0  0  0  0  0  0  0  0  0  0
    1.0826    2.3130   -0.3864 H   0  0  0  0  0  0  0  0  0  0  0  0
   -0.5994    1.8247   -0.3846 H   0  0  0  0  0  0  0  0  0  0  0  0
    2.4212   -0.8008   -0.6324 H   0  0  0  0  0  0  0  0  0  0  0  0
    2.4757   -0.8741   -2.3815 H   0  0  0  0  0  0  0  0  0  0  0  0
    3.2765    1.5691   -0.6982 H   0  0  0  0  0  0  0  0  0  0  0  0
    4.3823    0.4766   -1.5243 H   0  0  0  0  0  0  0  0  0  0  0  0
    3.2900    1.5085   -2.4630 H   0  0  0  0  0  0  0  0  0  0  0  0
  1  2  1  0
  1  4  1  0
  1  5  1  0
  1  6  1  0
  2  3  1  0
  2  7  1  0
  2  8  1  0
  9 10  1  0
 10 11  1  0
 10 15  1  0
 10 16  1  0
 11 12  1  0
 11 17  1  0
 11 18  1  0
 12 13  1  0
 13 14  1  0
 13 19  1  0
 13 20  1  0
 14 21  1  0
 14 22  1  0
 14 23  1  0
M  RAD  1   3   2
M  END
>  <reaction>  (12) 
rmg_rxn_19

>  <mol_properties>  (12) 
{"1": {"label": "*0", "atom_type": "Cs"}, "2": {"label": "*1", "atom_type": "S2s"}, "8": {"label": "*2", "atom_type": "H0"}, "9": {"label": "*3", "atom_type": "Cs"}, "10": {"label": "*4", "atom_type": "Cs"}}

>  <type>  (12) 
unop_8

>  <geom_source>  (12) 
Heuristics

$$$$

     RDKit          3D

 23 21  0  0  0  0  0  0  0  0999 V2000
   -2.1761   -0.9982   -2.0217 C   0  0  0  0  0  0  0  0  0  0  0  0
   -2.1761   -0.9982   -0.5030 C   0  0  0  0  0  0  0  0  0  0  0  0
   -2.1761    0.6592    0.2420 S   0  0  0  0  0  1  0  0  0  0  0  0
   -1.2695   -0.5328   -2.4124 H   0  0  0  0  0  0  0  0  0  0  0  0
   -3.0321   -0.4470   -2.4118 H   0  0  0  0  0  0  0  0  0  0  0  0
   -2.2192   -2.0216   -2.4019 H   0  0  0  0  0  0  0  0  0  0  0  0
   -1.3329   -1.5643   -0.1079 H   0  0  0  0  0  0  0  0  0  0  0  0
   -3.0837   -1.4652   -0.1179 H   0  0  0  0  0  0  0  0  0  0  0  0
   -0.7663    1.1412   -0.3623 H   0  0  0  0  0  0  0  0  0  0  0  0
    0.3812    1.5335   -0.8541 C   0  0  0  0  0  0  0  0  0  0  0  0
    1.3195    0.3542   -1.0495 C   0  0  0  0  0  0  0  0  0  0  0  0
    1.2209   -0.9221    0.2310 S   0  0  0  0  0  0  0  0  0  0  0  0
    1.6713   -0.0010    1.7233 C   0  0  0  0  0  0  0  0  0  0  0  0
    3.0590    0.6181    1.7012 C   0  0  0  0  0  0  0  0  0  0  0  0
    0.6384    2.1048    0.0394 H   0  0  0  0  0  0  0  0  0  0  0  0
    0.4444    2.2131   -1.7069 H   0  0  0  0  0  0  0  0  0  0  0  0
    2.3530    0.6903   -1.1486 H   0  0  0  0  0  0  0  0  0  0  0  0
    1.0735   -0.1807   -1.9683 H   0  0  0  0  0  0  0  0  0  0  0  0
    0.9104    0.7541    1.9276 H   0  0  0  0  0  0  0  0  0  0  0  0
    1.5980   -0.7443    2.5189 H   0  0  0  0  0  0  0  0  0  0  0  0
    3.1383    1.3937    0.9376 H   0  0  0  0  0  0  0  0  0  0  0  0
    3.2817    1.0828    2.6643 H   0  0  0  0  0  0  0  0  0  0  0  0
    3.8190   -0.1368    1.4969 H   0  0  0  0  0  0  0  0  0  0  0  0
  1  2  1  0
  1  4  1  0
  1  5  1  0
  1  6  1  0
  2  3  1  0
  2  7  1  0
  2  8  1  0
  9 10  1  0
 10 11  1  0
 10 15  1  0
 10 16  1  0
 11 12  1  0
 11 17  1  0
 11 18  1  0
 12 13  1  0
 13 14  1  0
 13 19  1  0
 13 20  1  0
 14 21  1  0
 14 22  1  0
 14 23  1  0
M  RAD  1   3   2
M  END
>  <reaction>  (13) 
rmg_rxn_19

>  <mol_properties>  (13) 
{"1": {"label": "*0", "atom_type": "Cs"}, "2": {"label": "*1", "atom_type": "S2s"}, "8": {"label": "*2", "atom_type": "H0"}, "9": {"label": "*3", "atom_type": "Cs"}, "10": {"label": "*4", "atom_type": "Cs"}}

>  <type>  (13) 
unop_9

>  <geom_source>  (13) 
Heuristics

$$$$

     RDKit          3D

 23 21  0  0  0  0  0  0  0  0999 V2000
   -2.1120   -1.2667   -0.3354 C   0  0  0  0  0  0  0  0  0  0  0  0
   -2.1120   -1.2667    1.1832 C   0  0  0  0  0  0  0  0  0  0  0  0
   -2.1120    0.3906    1.9282 S   0  0  0  0  0  1  0  0  0  0  0  0
   -1.2054   -0.8013   -0.7262 H   0  0  0  0  0  0  0  0  0  0  0  0
   -2.9680   -0.7155   -0.7255 H   0  0  0  0  0  0  0  0  0  0  0  0
   -2.1551   -2.2901   -0.7157 H   0  0  0  0  0  0  0  0  0  0  0  0
   -1.2687   -1.8329    1.5783 H   0  0  0  0  0  0  0  0  0  0  0  0
   -3.0196   -1.7338    1.5684 H   0  0  0  0  0  0  0  0  0  0  0  0
   -0.7022    0.8726    1.3240 H   0  0  0  0  0  0  0  0  0  0  0  0
    0.4453    1.2650    0.8321 C   0  0  0  0  0  0  0  0  0  0  0  0
    0.4193    1.2464   -0.6873 C   0  0  0  0  0  0  0  0  0  0  0  0
    0.8548   -0.3415   -1.4403 S   0  0  0  0  0  0  0  0  0  0  0  0
    2.5424   -0.5997   -0.8373 C   0  0  0  0  0  0  0  0  0  0  0  0
    3.5412    0.4701   -1.2468 C   0  0  0  0  0  0  0  0  0  0  0  0
    1.4556    1.1146    1.2162 H   0  0  0  0  0  0  0  0  0  0  0  0
    0.0932    2.2293    1.2051 H   0  0  0  0  0  0  0  0  0  0  0  0
    1.0575    2.0305   -1.0979 H   0  0  0  0  0  0  0  0  0  0  0  0
   -0.5904    1.4389   -1.0537 H   0  0  0  0  0  0  0  0  0  0  0  0
    2.5259   -0.7234    0.2468 H   0  0  0  0  0  0  0  0  0  0  0  0
    2.8238   -1.5658   -1.2596 H   0  0  0  0  0  0  0  0  0  0  0  0
    3.2982    1.4355   -0.7997 H   0  0  0  0  0  0  0  0  0  0  0  0
    4.5452    0.1981   -0.9136 H   0  0  0  0  0  0  0  0  0  0  0  0
    3.5573    0.5935   -2.3302 H   0  0  0  0  0  0  0  0  0  0  0  0
  1  2  1  0
  1  4  1  0
  1  5  1  0
  1  6  1  0
  2  3  1  0
  2  7  1  0
  2  8  1  0
  9 10  1  0
 10 11  1  0
 10 15  1  0
 10 16  1  0
 11 12  1  0
 11 17  1  0
 11 18  1  0
 12 13  1  0
 13 14  1  0
 13 19  1  0
 13 20  1  0
 14 21  1  0
 14 22  1  0
 14 23  1  0
M  RAD  1   3   2
M  END
>  <reaction>  (14) 
rmg_rxn_19

>  <mol_properties>  (14) 
{"1": {"label": "*0", "atom_type": "Cs"}, "2": {"label": "*1", "atom_type": "S2s"}, "8": {"label": "*2", "atom_type": "H0"}, "9": {"label": "*3", "atom_type": "Cs"}, "10": {"label": "*4", "atom_type": "Cs"}}

>  <type>  (14) 
unop_10

>  <geom_source>  (14) 
Heuristics

$$$$

     RDKit          3D

 23 21  0  0  0  0  0  0  0  0999 V2000
   -1.2838   -2.9893   -1.8711 C   0  0  0  0  0  0  0  0  0  0  0  0
   -1.2838   -2.9893   -0.3524 C   0  0  0  0  0  0  0  0  0  0  0  0
   -1.2838   -1.3320    0.3926 S   0  0  0  0  0  1  0  0  0  0  0  0
   -0.3771   -2.5239   -2.2618 H   0  0  0  0  0  0  0  0  0  0  0  0
   -2.1397   -2.4381   -2.2612 H   0  0  0  0  0  0  0  0  0  0  0  0
   -1.3268   -4.0127   -2.2514 H   0  0  0  0  0  0  0  0  0  0  0  0
   -0.4405   -3.5554    0.0427 H   0  0  0  0  0  0  0  0  0  0  0  0
   -2.1914   -3.4564    0.0327 H   0  0  0  0  0  0  0  0  0  0  0  0
    0.1260   -0.8499   -0.2117 H   0  0  0  0  0  0  0  0  0  0  0  0
    1.2735   -0.4576   -0.7035 C   0  0  0  0  0  0  0  0  0  0  0  0
    1.9527    0.5332    0.2275 C   0  0  0  0  0  0  0  0  0  0  0  0
    0.8308    1.4776    1.2894 S   0  0  0  0  0  0  0  0  0  0  0  0
   -0.1936    2.3524    0.0797 C   0  0  0  0  0  0  0  0  0  0  0  0
    0.5653    3.2862   -0.8486 C   0  0  0  0  0  0  0  0  0  0  0  0
    0.6533    0.0506   -1.4438 H   0  0  0  0  0  0  0  0  0  0  0  0
    2.0208   -1.0403   -1.2466 H   0  0  0  0  0  0  0  0  0  0  0  0
    2.5887    1.2212   -0.3319 H   0  0  0  0  0  0  0  0  0  0  0  0
    2.5999    0.0106    0.9338 H   0  0  0  0  0  0  0  0  0  0  0  0
   -0.7812    1.6299   -0.4890 H   0  0  0  0  0  0  0  0  0  0  0  0
   -0.8975    2.9155    0.6947 H   0  0  0  0  0  0  0  0  0  0  0  0
    1.2453    2.7354   -1.5007 H   0  0  0  0  0  0  0  0  0  0  0  0
   -0.1312    3.8326   -1.4883 H   0  0  0  0  0  0  0  0  0  0  0  0
    1.1525    4.0081   -0.2799 H   0  0  0  0  0  0  0  0  0  0  0  0
  1  2  1  0
  1  4  1  0
  1  5  1  0
  1  6  1  0
  2  3  1  0
  2  7  1  0
  2  8  1  0
  9 10  1  0
 10 11  1  0
 10 15  1  0
 10 16  1  0
 11 12  1  0
 11 17  1  0
 11 18  1  0
 12 13  1  0
 13 14  1  0
 13 19  1  0
 13 20  1  0
 14 21  1  0
 14 22  1  0
 14 23  1  0
M  RAD  1   3   2
M  END
>  <reaction>  (15) 
rmg_rxn_19

>  <mol_properties>  (15) 
{"1": {"label": "*0", "atom_type": "Cs"}, "2": {"label": "*1", "atom_type": "S2s"}, "8": {"label": "*2", "atom_type": "H0"}, "9": {"label": "*3", "atom_type": "Cs"}, "10": {"label": "*4", "atom_type": "Cs"}}

>  <type>  (15) 
unop_11

>  <geom_source>  (15) 
Heuristics

$$$$

     RDKit          3D

 23 21  0  0  0  0  0  0  0  0999 V2000
   -2.2680   -0.8133   -1.4506 C   0  0  0  0  0  0  0  0  0  0  0  0
   -2.2680   -0.8133    0.0680 C   0  0  0  0  0  0  0  0  0  0  0  0
   -2.2680    0.8440    0.8130 S   0  0  0  0  0  1  0  0  0  0  0  0
   -1.3614   -0.3479   -1.8414 H   0  0  0  0  0  0  0  0  0  0  0  0
   -3.1240   -0.2621   -1.8407 H   0  0  0  0  0  0  0  0  0  0  0  0
   -2.3111   -1.8367   -1.8309 H   0  0  0  0  0  0  0  0  0  0  0  0
   -1.4248   -1.3795    0.4631 H   0  0  0  0  0  0  0  0  0  0  0  0
   -3.1756   -1.2804    0.4532 H   0  0  0  0  0  0  0  0  0  0  0  0
   -0.8583    1.3260    0.2088 H   0  0  0  0  0  0  0  0  0  0  0  0
    0.2893    1.7184   -0.2831 C   0  0  0  0  0  0  0  0  0  0  0  0
    0.9147    0.6282   -1.1373 C   0  0  0  0  0  0  0  0  0  0  0  0
    1.1278   -0.9665   -0.3069 S   0  0  0  0  0  0  0  0  0  0  0  0
    2.2257   -0.5373    1.0674 C   0  0  0  0  0  0  0  0  0  0  0  0
    3.5753    0.0290    0.6583 C   0  0  0  0  0  0  0  0  0  0  0  0
    0.9379    1.9946    0.5500 H   0  0  0  0  0  0  0  0  0  0  0  0
    0.1216    2.6177   -0.8799 H   0  0  0  0  0  0  0  0  0  0  0  0
    1.8717    0.9549   -1.5476 H   0  0  0  0  0  0  0  0  0  0  0  0
    0.2719    0.3940   -1.9875 H   0  0  0  0  0  0  0  0  0  0  0  0
    1.7081    0.1410    1.7477 H   0  0  0  0  0  0  0  0  0  0  0  0
    2.3539   -1.4805    1.6012 H   0  0  0  0  0  0  0  0  0  0  0  0
    3.4689    0.9933    0.1586 H   0  0  0  0  0  0  0  0  0  0  0  0
    4.2036    0.1835    1.5383 H   0  0  0  0  0  0  0  0  0  0  0  0
    4.0922   -0.6492   -0.0217 H   0  0  0  0  0  0  0  0  0  0  0  0
  1  2  1  0
  1  4  1  0
  1  5  1  0
  1  6  1  0
  2  3  1  0
  2  7  1  0
  2  8  1  0
  9 10  1  0
 10 11  1  0
 10 15  1  0
 10 16  1  0
 11 12  1  0
 11 17  1  0
 11 18  1  0
 12 13  1  0
 13 14  1  0
 13 19  1  0
 13 20  1  0
 14 21  1  0
 14 22  1  0
 14 23  1  0
M  RAD  1   3   2
M  END
>  <reaction>  (16) 
rmg_rxn_19

>  <mol_properties>  (16) 
{"1": {"label": "*0", "atom_type": "Cs"}, "2": {"label": "*1", "atom_type": "S2s"}, "8": {"label": "*2", "atom_type": "H0"}, "9": {"label": "*3", "atom_type": "Cs"}, "10": {"label": "*4", "atom_type": "Cs"}}

>  <type>  (16) 
unop_12

>  <geom_source>  (16) 
Heuristics

$$$$

     RDKit          3D

 23 21  0  0  0  0  0  0  0  0999 V2000
   -2.2445   -0.9106   -0.8218 C   0  0  0  0  0  0  0  0  0  0  0  0
   -2.2445   -0.9106    0.6968 C   0  0  0  0  0  0  0  0  0  0  0  0
   -2.2445    0.7468    1.4418 S   0  0  0  0  0  1  0  0  0  0  0  0
   -1.3379   -0.4451   -1.2126 H   0  0  0  0  0  0  0  0  0  0  0  0
   -3.1005   -0.3594   -1.2119 H   0  0  0  0  0  0  0  0  0  0  0  0
   -2.2876   -1.9339   -1.2021 H   0  0  0  0  0  0  0  0  0  0  0  0
   -1.4012   -1.4767    1.0919 H   0  0  0  0  0  0  0  0  0  0  0  0
   -3.1521   -1.3776    1.0820 H   0  0  0  0  0  0  0  0  0  0  0  0
   -0.8347    1.2288    0.8376 H   0  0  0  0  0  0  0  0  0  0  0  0
    0.3128    1.6212    0.3457 C   0  0  0  0  0  0  0  0  0  0  0  0
    0.5853    0.9558   -0.9931 C   0  0  0  0  0  0  0  0  0  0  0  0
    1.0308   -0.7966   -0.8998 S   0  0  0  0  0  0  0  0  0  0  0  0
    2.5399   -0.7539    0.0996 C   0  0  0  0  0  0  0  0  0  0  0  0
    3.6830    0.0500   -0.4977 C   0  0  0  0  0  0  0  0  0  0  0  0
    1.2121    1.6603    0.9627 H   0  0  0  0  0  0  0  0  0  0  0  0
   -0.0267    2.6484    0.1960 H   0  0  0  0  0  0  0  0  0  0  0  0
    1.3532    1.4968   -1.5485 H   0  0  0  0  0  0  0  0  0  0  0  0
   -0.3135    0.9623   -1.6121 H   0  0  0  0  0  0  0  0  0  0  0  0
    2.3002   -0.4035    1.1049 H   0  0  0  0  0  0  0  0  0  0  0  0
    2.8200   -1.8046    0.1915 H   0  0  0  0  0  0  0  0  0  0  0  0
    3.4356    1.1111   -0.5592 H   0  0  0  0  0  0  0  0  0  0  0  0
    4.5763   -0.0426    0.1239 H   0  0  0  0  0  0  0  0  0  0  0  0
    3.9222   -0.3004   -1.5023 H   0  0  0  0  0  0  0  0  0  0  0  0
  1  2  1  0
  1  4  1  0
  1  5  1  0
  1  6  1  0
  2  3  1  0
  2  7  1  0
  2  8  1  0
  9 10  1  0
 10 11  1  0
 10 15  1  0
 10 16  1  0
 11 12  1  0
 11 17  1  0
 11 18  1  0
 12 13  1  0
 13 14  1  0
 13 19  1  0
 13 20  1  0
 14 21  1  0
 14 22  1  0
 14 23  1  0
M  RAD  1   3   2
M  END
>  <reaction>  (17) 
rmg_rxn_19

>  <mol_properties>  (17) 
{"1": {"label": "*0", "atom_type": "Cs"}, "2": {"label": "*1", "atom_type": "S2s"}, "8": {"label": "*2", "atom_type": "H0"}, "9": {"label": "*3", "atom_type": "Cs"}, "10": {"label": "*4", "atom_type": "Cs"}}

>  <type>  (17) 
unop_13

>  <geom_source>  (17) 
gaussian_log

$$$$
