
     RDKit          3D

  9  8  0  0  0  0  0  0  0  0999 V2000
   -1.5470   -0.0755   -0.1976 C   0  0  0  0  0  0  0  0  0  0  0  0
   -0.2885    0.4507    0.1749 O   0  0  0  0  0  0  0  0  0  0  0  0
   -0.1502    1.7216   -0.3294 N   0  0  0  0  0  0  0  0  0  0  0  0
    0.9626    2.2353   -0.0219 C   0  0  0  0  0  0  0  0  0  0  0  0
   -1.6392   -0.1356   -1.2844 H   0  0  0  0  0  0  0  0  0  0  0  0
   -2.3597    0.5337    0.2044 H   0  0  0  0  0  0  0  0  0  0  0  0
   -1.5879   -1.0750    0.2318 H   0  0  0  0  0  0  0  0  0  0  0  0
    1.1497    3.2381   -0.3820 H   0  0  0  0  0  0  0  0  0  0  0  0
    1.7060    1.7101    0.5739 H   0  0  0  0  0  0  0  0  0  0  0  0
  1  2  1  0
  1  5  1  0
  1  6  1  0
  1  7  1  0
  2  3  1  0
  3  4  2  3
  4  8  1  0
  4  9  1  0
M  END
>  <reaction>  (1) 
rmg_rxn_15707

>  <mol_properties>  (1) 
{"0": {"label": "donator", "atom_type": "Cs"}, "4": {"label": "d_hydrogen", "atom_type": "H0"}}

>  <type>  (1) 
r1h

$$$$

     RDKit          3D

 11 10  0  0  0  0  0  0  0  0999 V2000
   -1.9423    0.2880    0.5808 C   0  0  0  0  0  0  0  0  0  0  0  0
   -0.3826    1.1347    0.2736 S   0  0  0  0  0  0  0  0  0  0  0  0
   -0.0855    1.8779    1.9329 C   0  0  0  0  0  0  0  0  0  0  0  0
    0.1622    0.8686    2.9726 C   0  0  0  0  0  3  0  0  0  0  0  0
   -2.7113    0.9909    0.9035 H   0  0  0  0  0  0  0  0  0  0  0  0
   -1.8284   -0.5029    1.3208 H   0  0  0  0  0  0  0  0  0  0  0  0
   -2.2503   -0.1583   -0.3638 H   0  0  0  0  0  0  0  0  0  0  0  0
    0.7847    2.5160    1.7689 H   0  0  0  0  0  0  0  0  0  0  0  0
   -0.9380    2.5164    2.1676 H   0  0  0  0  0  0  0  0  0  0  0  0
    1.1155    0.3601    3.0172 H   0  0  0  0  0  0  0  0  0  0  0  0
   -0.6473    0.4888    3.5808 H   0  0  0  0  0  0  0  0  0  0  0  0
  1  2  1  0
  1  5  1  0
  1  6  1  0
  1  7  1  0
  2  3  1  0
  3  4  1  0
  3  8  1  0
  3  9  1  0
  4 10  1  0
  4 11  1  0
M  RAD  1   4   2
M  END
>  <reaction>  (2) 
rmg_rxn_15707

>  <mol_properties>  (2) 
{"3": {"label": "acceptor", "atom_type": "Cs"}}

>  <type>  (2) 
r2

$$$$

     RDKit          3D

 12 11  0  0  0  0  0  0  0  0999 V2000
    1.8075    0.1979    0.4695 C   0  0  0  0  0  0  0  0  0  0  0  0
    1.0072   -0.8859   -0.7259 S   0  0  0  0  0  0  0  0  0  0  0  0
   -0.7258   -0.6904   -0.2447 C   0  0  0  0  0  0  0  0  0  0  0  0
   -1.0856   -1.2776    1.1108 C   0  0  0  0  0  0  0  0  0  0  0  0
    1.7126   -0.1777    1.4878 H   0  0  0  0  0  0  0  0  0  0  0  0
    1.4024    1.2089    0.4095 H   0  0  0  0  0  0  0  0  0  0  0  0
    2.8647    0.2298    0.2095 H   0  0  0  0  0  0  0  0  0  0  0  0
   -1.2866   -1.1892   -1.0369 H   0  0  0  0  0  0  0  0  0  0  0  0
   -0.9814    0.3707   -0.2917 H   0  0  0  0  0  0  0  0  0  0  0  0
   -0.5492   -0.7768    1.9180 H   0  0  0  0  0  0  0  0  0  0  0  0
   -0.8418   -2.3397    1.1503 H   0  0  0  0  0  0  0  0  0  0  0  0
   -2.1545   -1.1604    1.3035 H   0  0  0  0  0  0  0  0  0  0  0  0
  1  2  1  0
  1  5  1  0
  1  6  1  0
  1  7  1  0
  2  3  1  0
  3  4  1  0
  3  8  1  0
  3  9  1  0
  4 10  1  0
  4 11  1  0
  4 12  1  0
M  END
>  <reaction>  (3) 
rmg_rxn_15707

>  <mol_properties>  (3) 
{"0": {"label": "a_hydrogen", "atom_type": "H0"}, "4": {"label": "acceptor", "atom_type": "Cs"}}

>  <type>  (3) 
r2h

$$$$

     RDKit          3D

 20 18  0  0  0  0  0  0  0  0999 V2000
   -2.1618    1.5769    0.0439 C   0  0  0  0  0  0  0  0  0  0  0  0
   -2.5618    0.3290   -0.4182 O   0  0  0  0  0  0  0  0  0  0  0  0
   -2.4788   -0.6112    0.5867 N   0  0  0  0  0  0  0  0  0  0  0  0
   -2.7831   -1.7657    0.1721 C   0  0  0  0  0  0  0  0  0  0  0  0
   -0.8326    1.5655    0.1737 H   0  0  0  0  0  0  0  0  0  0  0  0
   -2.5585    1.8153    1.0302 H   0  0  0  0  0  0  0  0  0  0  0  0
   -2.3967    2.3101   -0.7232 H   0  0  0  0  0  0  0  0  0  0  0  0
   -2.7520   -2.5640    0.9014 H   0  0  0  0  0  0  0  0  0  0  0  0
   -3.0655   -1.9638   -0.8593 H   0  0  0  0  0  0  0  0  0  0  0  0
    3.0726   -0.4657    1.1007 C   0  0  0  0  0  0  0  0  0  0  0  0
    2.5908   -0.2696   -0.6236 S   0  0  0  0  0  0  0  0  0  0  0  0
    0.8177    0.0980   -0.4271 C   0  0  0  0  0  0  0  0  0  0  0  0
    0.5223    1.4050    0.2439 C   0  0  0  0  0  3  0  0  0  0  0  0
    4.1163   -0.7772    1.1056 H   0  0  0  0  0  0  0  0  0  0  0  0
    2.4739   -1.2376    1.5860 H   0  0  0  0  0  0  0  0  0  0  0  0
    2.9853    0.4695    1.6527 H   0  0  0  0  0  0  0  0  0  0  0  0
    0.4276    0.0883   -1.4466 H   0  0  0  0  0  0  0  0  0  0  0  0
    0.3508   -0.7316    0.1065 H   0  0  0  0  0  0  0  0  0  0  0  0
    0.9214    2.2774   -0.2700 H   0  0  0  0  0  0  0  0  0  0  0  0
    0.7214    1.4316    1.3133 H   0  0  0  0  0  0  0  0  0  0  0  0
  1  2  1  0
  1  5  1  0
  1  6  1  0
  1  7  1  0
  2  3  1  0
  3  4  2  3
  4  8  1  0
  4  9  1  0
 10 11  1  0
 10 14  1  0
 10 15  1  0
 10 16  1  0
 11 12  1  0
 12 13  1  0
 12 17  1  0
 12 18  1  0
 13 19  1  0
 13 20  1  0
M  RAD  1  13   2
M  END
>  <reaction>  (4) 
rmg_rxn_15707

>  <mol_properties>  (4) 
{"0": {"label": "*1", "atom_type": "Cs"}, "1": {"label": "*0", "atom_type": "O2s"}, "4": {"label": "*2", "atom_type": "H0"}, "11": {"label": "*4", "atom_type": "Cs"}, "12": {"label": "*3", "atom_type": "Cs"}}

>  <type>  (4) 
ts

$$$$

     RDKit          3D

 20 18  0  0  0  0  0  0  0  0999 V2000
   -2.1154   -1.5719    0.2047 C   0  0  0  0  0  3  0  0  0  0  0  0
   -2.5985   -0.4153   -0.3796 O   0  0  0  0  0  0  0  0  0  0  0  0
   -2.5534    0.6680    0.4762 N   0  0  0  0  0  0  0  0  0  0  0  0
   -2.9365    1.7685   -0.0092 C   0  0  0  0  0  0  0  0  0  0  0  0
   -0.7784   -1.5294    0.1527 H   0  0  0  0  0  0  0  0  0  0  0  0
   -2.4353   -2.4136   -0.3987 H   0  0  0  0  0  0  0  0  0  0  0  0
   -2.3591   -1.6599    1.2605 H   0  0  0  0  0  0  0  0  0  0  0  0
   -2.9123    2.6172    0.6506 H   0  0  0  0  0  0  0  0  0  0  0  0
   -3.2840    1.9002   -1.0292 H   0  0  0  0  0  0  0  0  0  0  0  0
    3.1400    0.3611    1.1587 C   0  0  0  0  0  0  0  0  0  0  0  0
    2.6148    0.3127   -0.5775 S   0  0  0  0  0  0  0  0  0  0  0  0
    0.8033    0.0011   -0.3503 C   0  0  0  0  0  0  0  0  0  0  0  0
    0.5223   -1.3885    0.0997 C   0  0  0  0  0  0  0  0  0  0  0  0
    4.1775    0.6782    1.1593 H   0  0  0  0  0  0  0  0  0  0  0  0
    3.0576   -0.6270    1.6016 H   0  0  0  0  0  0  0  0  0  0  0  0
    2.5304    1.0793    1.7002 H   0  0  0  0  0  0  0  0  0  0  0  0
    0.4439    0.7490    0.3563 H   0  0  0  0  0  0  0  0  0  0  0  0
    0.3816    0.1979   -1.3349 H   0  0  0  0  0  0  0  0  0  0  0  0
    0.8614   -1.6016    1.1079 H   0  0  0  0  0  0  0  0  0  0  0  0
    0.8644   -2.1416   -0.6016 H   0  0  0  0  0  0  0  0  0  0  0  0
  1  2  1  0
  1  6  1  0
  1  7  1  0
  2  3  1  0
  3  4  2  3
  4  8  1  0
  4  9  1  0
  5 13  1  0
 10 11  1  0
 10 14  1  0
 10 15  1  0
 10 16  1  0
 11 12  1  0
 12 13  1  0
 12 17  1  0
 12 18  1  0
 13 19  1  0
 13 20  1  0
M  RAD  1   1   2
M  END
>  <reaction>  (5) 
rmg_rxn_15707

>  <mol_properties>  (5) 
{"0": {"label": "*1", "atom_type": "Cs"}, "1": {"label": "*0", "atom_type": "O2s"}, "4": {"label": "*2", "atom_type": "H0"}, "11": {"label": "*4", "atom_type": "Cs"}, "12": {"label": "*3", "atom_type": "Cs"}}

>  <type>  (5) 
unop_1

>  <geom_source>  (5) 
crest_best.xyz

$$$$

     RDKit          3D

 20 18  0  0  0  0  0  0  0  0999 V2000
   -1.6754    0.8424   -0.8122 C   0  0  0  0  0  0  0  0  0  0  0  0
   -1.6754    0.9003   -2.2251 O   0  0  0  0  0  0  0  0  0  0  0  0
   -1.6754   -0.3735   -2.7408 N   0  0  0  0  0  0  0  0  0  0  0  0
   -1.6754   -0.3735   -4.0044 C   0  0  0  0  0  0  0  0  0  0  0  0
   -0.6048    0.2303   -0.3681 H   0  0  0  0  0  0  0  0  0  0  0  0
   -2.5675    0.3322   -0.4421 H   0  0  0  0  0  0  0  0  0  0  0  0
   -1.6754    1.8773   -0.4744 H   0  0  0  0  0  0  0  0  0  0  0  0
   -1.6754   -1.3406   -4.4893 H   0  0  0  0  0  0  0  0  0  0  0  0
   -1.6754    0.5430   -4.5906 H   0  0  0  0  0  0  0  0  0  0  0  0
    0.6175   -0.6912    3.3685 C   0  0  0  0  0  0  0  0  0  0  0  0
    2.0629   -0.2535    2.3869 S   0  0  0  0  0  0  0  0  0  0  0  0
    1.2729    0.5465    0.9695 C   0  0  0  0  0  0  0  0  0  0  0  0
    0.4659   -0.3820    0.0761 C   0  0  0  0  0  3  0  0  0  0  0  0
    0.9856   -1.1044    4.3066 H   0  0  0  0  0  0  0  0  0  0  0  0
    0.0031   -1.4442    2.8760 H   0  0  0  0  0  0  0  0  0  0  0  0
    0.0151    0.1912    3.5879 H   0  0  0  0  0  0  0  0  0  0  0  0
    0.6565    1.3708    1.3354 H   0  0  0  0  0  0  0  0  0  0  0  0
    2.0993    0.9893    0.4110 H   0  0  0  0  0  0  0  0  0  0  0  0
   -0.3778   -0.8187    0.6125 H   0  0  0  0  0  0  0  0  0  0  0  0
    1.0869   -1.1963   -0.2984 H   0  0  0  0  0  0  0  0  0  0  0  0
  1  2  1  0
  1  5  1  0
  1  6  1  0
  1  7  1  0
  2  3  1  0
  3  4  2  3
  4  8  1  0
  4  9  1  0
 10 11  1  0
 10 14  1  0
 10 15  1  0
 10 16  1  0
 11 12  1  0
 12 13  1  0
 12 17  1  0
 12 18  1  0
 13 19  1  0
 13 20  1  0
M  RAD  1  13   2
M  END
>  <reaction>  (6) 
rmg_rxn_15707

>  <mol_properties>  (6) 
{"0": {"label": "*1", "atom_type": "Cs"}, "1": {"label": "*0", "atom_type": "O2s"}, "4": {"label": "*2", "atom_type": "H0"}, "11": {"label": "*4", "atom_type": "Cs"}, "12": {"label": "*3", "atom_type": "Cs"}}

>  <type>  (6) 
unop_2

>  <geom_source>  (6) 
Heuristics

$$$$

     RDKit          3D

 20 18  0  0  0  0  0  0  0  0999 V2000
   -2.1186    1.5699   -0.2138 C   0  0  0  0  0  3  0  0  0  0  0  0
   -2.5965    0.4138    0.3760 O   0  0  0  0  0  0  0  0  0  0  0  0
   -2.5419   -0.6744   -0.4730 N   0  0  0  0  0  0  0  0  0  0  0  0
   -2.9195   -1.7744    0.0178 C   0  0  0  0  0  0  0  0  0  0  0  0
   -0.7816    1.5346   -0.1576 H   0  0  0  0  0  0  0  0  0  0  0  0
   -2.4453    2.4131    0.3837 H   0  0  0  0  0  0  0  0  0  0  0  0
   -2.3598    1.6500   -1.2708 H   0  0  0  0  0  0  0  0  0  0  0  0
   -2.8878   -2.6268   -0.6369 H   0  0  0  0  0  0  0  0  0  0  0  0
   -3.2693   -1.9023    1.0376 H   0  0  0  0  0  0  0  0  0  0  0  0
    3.1286   -0.3771   -1.1601 C   0  0  0  0  0  0  0  0  0  0  0  0
    2.6112   -0.3052    0.5776 S   0  0  0  0  0  0  0  0  0  0  0  0
    0.7996    0.0078    0.3535 C   0  0  0  0  0  0  0  0  0  0  0  0
    0.5193    1.3964   -0.1001 C   0  0  0  0  0  0  0  0  0  0  0  0
    3.0365    0.6033   -1.6181 H   0  0  0  0  0  0  0  0  0  0  0  0
    2.5219   -1.1083   -1.6874 H   0  0  0  0  0  0  0  0  0  0  0  0
    4.1685   -0.6862   -1.1608 H   0  0  0  0  0  0  0  0  0  0  0  0
    0.4383   -0.7417   -0.3503 H   0  0  0  0  0  0  0  0  0  0  0  0
    0.3793   -0.1855    1.3393 H   0  0  0  0  0  0  0  0  0  0  0  0
    0.8613    1.6079   -1.1076 H   0  0  0  0  0  0  0  0  0  0  0  0
    0.8585    2.1512    0.6007 H   0  0  0  0  0  0  0  0  0  0  0  0
  1  2  1  0
  1  6  1  0
  1  7  1  0
  2  3  1  0
  3  4  2  3
  4  8  1  0
  4  9  1  0
  5 13  1  0
 10 11  1  0
 10 14  1  0
 10 15  1  0
 10 16  1  0
 11 12  1  0
 12 13  1  0
 12 17  1  0
 12 18  1  0
 13 19  1  0
 13 20  1  0
M  RAD  1   1   2
M  END
>  <reaction>  (7) 
rmg_rxn_15707

>  <mol_properties>  (7) 
{"0": {"label": "*1", "atom_type": "Cs"}, "1": {"label": "*0", "atom_type": "O2s"}, "4": {"label": "*2", "atom_type": "H0"}, "11": {"label": "*4", "atom_type": "Cs"}, "12": {"label": "*3", "atom_type": "Cs"}}

>  <type>  (7) 
unop_3

>  <geom_source>  (7) 
Heuristics

$$$$

     RDKit          3D

 20 18  0  0  0  0  0  0  0  0999 V2000
   -2.1177    1.5705    0.2110 C   0  0  0  0  0  3  0  0  0  0  0  0
   -2.5982    0.4145   -0.3768 O   0  0  0  0  0  0  0  0  0  0  0  0
   -2.5453   -0.6725    0.4738 N   0  0  0  0  0  0  0  0  0  0  0  0
   -2.9255   -1.7724   -0.0151 C   0  0  0  0  0  0  0  0  0  0  0  0
   -0.7807    1.5323    0.1556 H   0  0  0  0  0  0  0  0  0  0  0  0
   -2.3589    1.6531    1.2679 H   0  0  0  0  0  0  0  0  0  0  0  0
   -2.4422    2.4135   -0.3880 H   0  0  0  0  0  0  0  0  0  0  0  0
   -2.8951   -2.6239    0.6408 H   0  0  0  0  0  0  0  0  0  0  0  0
   -3.2763   -1.9011   -1.0343 H   0  0  0  0  0  0  0  0  0  0  0  0
    3.1325   -0.3716    1.1598 C   0  0  0  0  0  0  0  0  0  0  0  0
    2.6128   -0.3074   -0.5775 S   0  0  0  0  0  0  0  0  0  0  0  0
    0.8011    0.0044   -0.3527 C   0  0  0  0  0  0  0  0  0  0  0  0
    0.5201    1.3933    0.0995 C   0  0  0  0  0  0  0  0  0  0  0  0
    4.1718   -0.6829    1.1606 H   0  0  0  0  0  0  0  0  0  0  0  0
    2.5251   -1.0989    1.6916 H   0  0  0  0  0  0  0  0  0  0  0  0
    3.0432    0.6113    1.6130 H   0  0  0  0  0  0  0  0  0  0  0  0
    0.3806   -0.1903   -1.3382 H   0  0  0  0  0  0  0  0  0  0  0  0
    0.4406   -0.7446    0.3520 H   0  0  0  0  0  0  0  0  0  0  0  0
    0.8602    2.1475   -0.6016 H   0  0  0  0  0  0  0  0  0  0  0  0
    0.8610    1.6055    1.1072 H   0  0  0  0  0  0  0  0  0  0  0  0
  1  2  1  0
  1  6  1  0
  1  7  1  0
  2  3  1  0
  3  4  2  3
  4  8  1  0
  4  9  1  0
  5 13  1  0
 10 11  1  0
 10 14  1  0
 10 15  1  0
 10 16  1  0
 11 12  1  0
 12 13  1  0
 12 17  1  0
 12 18  1  0
 13 19  1  0
 13 20  1  0
M  RAD  1   1   2
M  END
>  <reaction>  (8) 
rmg_rxn_15707

>  <mol_properties>  (8) 
{"0": {"label": "*1", "atom_type": "Cs"}, "1": {"label": "*0", "atom_type": "O2s"}, "4": {"label": "*2", "atom_type": "H0"}, "11": {"label": "*4", "atom_type": "Cs"}, "12": {"label": "*3", "atom_type": "Cs"}}

>  <type>  (8) 
unop_4

>  <geom_source>  (8) 
Heuristics

$$$$

     RDKit          3D

 20 18  0  0  0  0  0  0  0  0999 V2000
    1.9339   -1.5184    0.6811 C   0  0  0  0  0  3  0  0  0  0  0  0
    2.5753   -0.3999    0.3381 O   0  0  0  0  0  0  0  0  0  0  0  0
    1.7903    0.5942   -0.1921 N   0  0  0  0  0  0  0  0  0  0  0  0
    2.4043    1.6637   -0.5198 C   0  0  0  0  0  0  0  0  0  0  0  0
   -2.3009    2.5476    1.1153 H   0  0  0  0  0  0  0  0  0  0  0  0
    0.8734   -1.6167    0.5477 H   0  0  0  0  0  0  0  0  0  0  0  0
    2.5669   -2.2763    1.0919 H   0  0  0  0  0  0  0  0  0  0  0  0
    1.8044    2.4518   -0.9364 H   0  0  0  0  0  0  0  0  0  0  0  0
    3.4714    1.8109   -0.4015 H   0  0  0  0  0  0  0  0  0  0  0  0
   -1.1109   -0.3964   -1.6663 C   0  0  0  0  0  0  0  0  0  0  0  0
   -1.6717   -0.9784   -0.0413 S   0  0  0  0  0  0  0  0  0  0  0  0
   -1.4460    0.5532    0.9279 C   0  0  0  0  0  0  0  0  0  0  0  0
   -2.4690    1.6070    0.5838 C   0  0  0  0  0  0  0  0  0  0  0  0
   -1.0606   -1.2679   -2.3105 H   0  0  0  0  0  0  0  0  0  0  0  0
   -0.1276    0.0530   -1.5554 H   0  0  0  0  0  0  0  0  0  0  0  0
   -1.8245    0.3176   -2.0668 H   0  0  0  0  0  0  0  0  0  0  0  0
   -1.5458    0.2403    1.9668 H   0  0  0  0  0  0  0  0  0  0  0  0
   -0.4281    0.8992    0.7459 H   0  0  0  0  0  0  0  0  0  0  0  0
   -3.4857    1.2611    0.7227 H   0  0  0  0  0  0  0  0  0  0  0  0
   -2.3341    2.0421   -0.3836 H   0  0  0  0  0  0  0  0  0  0  0  0
  1  2  1  0
  1  6  1  0
  1  7  1  0
  2  3  1  0
  3  4  2  3
  4  8  1  0
  4  9  1  0
  5 13  1  0
 10 11  1  0
 10 14  1  0
 10 15  1  0
 10 16  1  0
 11 12  1  0
 12 13  1  0
 12 17  1  0
 12 18  1  0
 13 19  1  0
 13 20  1  0
M  RAD  1   1   2
M  END
>  <reaction>  (9) 
rmg_rxn_15707

>  <mol_properties>  (9) 
{"0": {"label": "*1", "atom_type": "Cs"}, "1": {"label": "*0", "atom_type": "O2s"}, "4": {"label": "*2", "atom_type": "H0"}, "11": {"label": "*4", "atom_type": "Cs"}, "12": {"label": "*3", "atom_type": "Cs"}}

>  <type>  (9) 
unop_5

>  <geom_source>  (9) 
Heuristics

$$$$

     RDKit          3D

 20 18  0  0  0  0  0  0  0  0999 V2000
   -2.3210    0.8280    0.2601 C   0  0  0  0  0  0  0  0  0  0  0  0
   -2.3210    0.8859   -1.1528 O   0  0  0  0  0  0  0  0  0  0  0  0
   -2.3210   -0.3880   -1.6686 N   0  0  0  0  0  0  0  0  0  0  0  0
   -2.3210   -0.3880   -2.9322 C   0  0  0  0  0  0  0  0  0  0  0  0
   -1.2504    0.2158    0.7042 H   0  0  0  0  0  0  0  0  0  0  0  0
   -3.2131    0.3178    0.6302 H   0  0  0  0  0  0  0  0  0  0  0  0
   -2.3210    1.8629    0.5979 H   0  0  0  0  0  0  0  0  0  0  0  0
   -2.3210   -1.3551   -3.4170 H   0  0  0  0  0  0  0  0  0  0  0  0
   -2.3210    0.5285   -3.5183 H   0  0  0  0  0  0  0  0  0  0  0  0
    2.7909    0.7110    2.1010 C   0  0  0  0  0  0  0  0  0  0  0  0
    2.6116   -0.5913    0.8697 S   0  0  0  0  0  0  0  0  0  0  0  0
    0.9835   -0.1869    0.1920 C   0  0  0  0  0  0  0  0  0  0  0  0
   -0.1797   -0.3964    1.1483 C   0  0  0  0  0  3  0  0  0  0  0  0
    3.7941    0.6188    2.5151 H   0  0  0  0  0  0  0  0  0  0  0  0
    2.0708    0.6073    2.9119 H   0  0  0  0  0  0  0  0  0  0  0  0
    2.6915    1.6957    1.6424 H   0  0  0  0  0  0  0  0  0  0  0  0
    1.0068    0.8412   -0.1765 H   0  0  0  0  0  0  0  0  0  0  0  0
    0.8821   -0.8361   -0.6792 H   0  0  0  0  0  0  0  0  0  0  0  0
   -0.1059    0.2598    2.0167 H   0  0  0  0  0  0  0  0  0  0  0  0
   -0.2083   -1.4268    1.5042 H   0  0  0  0  0  0  0  0  0  0  0  0
  1  2  1  0
  1  5  1  0
  1  6  1  0
  1  7  1  0
  2  3  1  0
  3  4  2  3
  4  8  1  0
  4  9  1  0
 10 11  1  0
 10 14  1  0
 10 15  1  0
 10 16  1  0
 11 12  1  0
 12 13  1  0
 12 17  1  0
 12 18  1  0
 13 19  1  0
 13 20  1  0
M  RAD  1  13   2
M  END
>  <reaction>  (10) 
rmg_rxn_15707

>  <mol_properties>  (10) 
{"0": {"label": "*1", "atom_type": "Cs"}, "1": {"label": "*0", "atom_type": "O2s"}, "4": {"label": "*2", "atom_type": "H0"}, "11": {"label": "*4", "atom_type": "Cs"}, "12": {"label": "*3", "atom_type": "Cs"}}

>  <type>  (10) 
unop_6

>  <geom_source>  (10) 
Heuristics

$$$$

     RDKit          3D

 20 18  0  0  0  0  0  0  0  0999 V2000
    2.1186    1.5687   -0.2185 C   0  0  0  0  0  3  0  0  0  0  0  0
    2.5981    0.4150    0.3745 O   0  0  0  0  0  0  0  0  0  0  0  0
    2.5427   -0.6761   -0.4708 N   0  0  0  0  0  0  0  0  0  0  0  0
    2.9213   -1.7743    0.0232 C   0  0  0  0  0  0  0  0  0  0  0  0
    0.7816    1.5327   -0.1611 H   0  0  0  0  0  0  0  0  0  0  0  0
    2.3584    1.6456   -1.2761 H   0  0  0  0  0  0  0  0  0  0  0  0
    2.4452    2.4142    0.3758 H   0  0  0  0  0  0  0  0  0  0  0  0
    2.8893   -2.6289   -0.6287 H   0  0  0  0  0  0  0  0  0  0  0  0
    3.2726   -1.8987    1.0428 H   0  0  0  0  0  0  0  0  0  0  0  0
   -3.1226   -0.3890   -1.1626 C   0  0  0  0  0  0  0  0  0  0  0  0
   -2.6151   -0.2994    0.5773 S   0  0  0  0  0  0  0  0  0  0  0  0
   -0.8020    0.0107    0.3604 C   0  0  0  0  0  0  0  0  0  0  0  0
   -0.5194    1.3951   -0.1044 C   0  0  0  0  0  0  0  0  0  0  0  0
   -2.5143   -1.1271   -1.6782 H   0  0  0  0  0  0  0  0  0  0  0  0
   -3.0256    0.5862   -1.6306 H   0  0  0  0  0  0  0  0  0  0  0  0
   -4.1631   -0.6959   -1.1662 H   0  0  0  0  0  0  0  0  0  0  0  0
   -0.3865   -0.1739    1.3500 H   0  0  0  0  0  0  0  0  0  0  0  0
   -0.4376   -0.7451   -0.3351 H   0  0  0  0  0  0  0  0  0  0  0  0
   -0.8596    2.1562    0.5892 H   0  0  0  0  0  0  0  0  0  0  0  0
   -0.8591    1.5983   -1.1146 H   0  0  0  0  0  0  0  0  0  0  0  0
  1  2  1  0
  1  6  1  0
  1  7  1  0
  2  3  1  0
  3  4  2  3
  4  8  1  0
  4  9  1  0
  5 13  1  0
 10 11  1  0
 10 14  1  0
 10 15  1  0
 10 16  1  0
 11 12  1  0
 12 13  1  0
 12 17  1  0
 12 18  1  0
 13 19  1  0
 13 20  1  0
M  RAD  1   1   2
M  END
>  <reaction>  (11) 
rmg_rxn_15707

>  <mol_properties>  (11) 
{"0": {"label": "*1", "atom_type": "Cs"}, "1": {"label": "*0", "atom_type": "O2s"}, "4": {"label": "*2", "atom_type": "H0"}, "11": {"label": "*4", "atom_type": "Cs"}, "12": {"label": "*3", "atom_type": "Cs"}}

>  <type>  (11) 
unop_7

>  <geom_source>  (11) 
Heuristics

$$$$

     RDKit          3D

 20 18  0  0  0  0  0  0  0  0999 V2000
   -1.5584    1.2335   -0.8200 C   0  0  0  0  0  0  0  0  0  0  0  0
   -1.5584    1.2914   -2.2329 O   0  0  0  0  0  0  0  0  0  0  0  0
   -1.5584    0.0175   -2.7486 N   0  0  0  0  0  0  0  0  0  0  0  0
   -1.5584    0.0175   -4.0122 C   0  0  0  0  0  0  0  0  0  0  0  0
   -0.4878    0.6213   -0.3759 H   0  0  0  0  0  0  0  0  0  0  0  0
   -2.4505    0.7233   -0.4499 H   0  0  0  0  0  0  0  0  0  0  0  0
   -1.5584    2.2684   -0.4822 H   0  0  0  0  0  0  0  0  0  0  0  0
   -1.5584   -0.9496   -4.4970 H   0  0  0  0  0  0  0  0  0  0  0  0
   -1.5584    0.9340   -4.5984 H   0  0  0  0  0  0  0  0  0  0  0  0
    0.6477   -1.8350    2.8168 C   0  0  0  0  0  0  0  0  0  0  0  0
    1.9091   -0.5961    2.4728 S   0  0  0  0  0  0  0  0  0  0  0  0
    0.9737    0.5520    1.4336 C   0  0  0  0  0  0  0  0  0  0  0  0
    0.5829    0.0090    0.0683 C   0  0  0  0  0  3  0  0  0  0  0  0
    1.0819   -2.5407    3.5236 H   0  0  0  0  0  0  0  0  0  0  0  0
    0.3554   -2.3793    1.9194 H   0  0  0  0  0  0  0  0  0  0  0  0
   -0.2309   -1.3782    3.2742 H   0  0  0  0  0  0  0  0  0  0  0  0
    0.0936    0.8844    1.9890 H   0  0  0  0  0  0  0  0  0  0  0  0
    1.6290    1.4179    1.3258 H   0  0  0  0  0  0  0  0  0  0  0  0
   -0.0896   -0.8456    0.1560 H   0  0  0  0  0  0  0  0  0  0  0  0
    1.4643   -0.3097   -0.4890 H   0  0  0  0  0  0  0  0  0  0  0  0
  1  2  1  0
  1  5  1  0
  1  6  1  0
  1  7  1  0
  2  3  1  0
  3  4  2  3
  4  8  1  0
  4  9  1  0
 10 11  1  0
 10 14  1  0
 10 15  1  0
 10 16  1  0
 11 12  1  0
 12 13  1  0
 12 17  1  0
 12 18  1  0
 13 19  1  0
 13 20  1  0
M  RAD  1  13   2
M  END
>  <reaction>  (12) 
rmg_rxn_15707

>  <mol_properties>  (12) 
{"0": {"label": "*1", "atom_type": "Cs"}, "1": {"label": "*0", "atom_type": "O2s"}, "4": {"label": "*2", "atom_type": "H0"}, "11": {"label": "*4", "atom_type": "Cs"}, "12": {"label": "*3", "atom_type": "Cs"}}

>  <type>  (12) 
unop_8

>  <geom_source>  (12) 
Heuristics

$$$$

     RDKit          3D

 20 18  0  0  0  0  0  0  0  0999 V2000
   -1.6753    1.9435    0.0481 C   0  0  0  0  0  0  0  0  0  0  0  0
   -1.6753    2.0015   -1.3648 O   0  0  0  0  0  0  0  0  0  0  0  0
   -1.6753    0.7276   -1.8806 N   0  0  0  0  0  0  0  0  0  0  0  0
   -1.6753    0.7276   -3.1442 C   0  0  0  0  0  0  0  0  0  0  0  0
   -0.6047    1.3314    0.4922 H   0  0  0  0  0  0  0  0  0  0  0  0
   -2.5674    1.4334    0.4182 H   0  0  0  0  0  0  0  0  0  0  0  0
   -1.6753    2.9784    0.3859 H   0  0  0  0  0  0  0  0  0  0  0  0
   -1.6753   -0.2395   -3.6290 H   0  0  0  0  0  0  0  0  0  0  0  0
   -1.6753    1.6441   -3.7303 H   0  0  0  0  0  0  0  0  0  0  0  0
    2.9513   -1.3743    1.5687 C   0  0  0  0  0  0  0  0  0  0  0  0
    1.2346   -1.9185    1.5353 S   0  0  0  0  0  0  0  0  0  0  0  0
    0.5218   -0.7028    0.4009 C   0  0  0  0  0  0  0  0  0  0  0  0
    0.4660    0.7191    0.9363 C   0  0  0  0  0  3  0  0  0  0  0  0
    3.5029   -2.1039    2.1600 H   0  0  0  0  0  0  0  0  0  0  0  0
    3.0598   -0.3963    2.0364 H   0  0  0  0  0  0  0  0  0  0  0  0
    3.3711   -1.3510    0.5622 H   0  0  0  0  0  0  0  0  0  0  0  0
    1.0713   -0.7444   -0.5423 H   0  0  0  0  0  0  0  0  0  0  0  0
   -0.4846   -1.0741    0.2006 H   0  0  0  0  0  0  0  0  0  0  0  0
    1.4653    1.1149    1.1233 H   0  0  0  0  0  0  0  0  0  0  0  0
   -0.0944    0.7598    1.8709 H   0  0  0  0  0  0  0  0  0  0  0  0
  1  2  1  0
  1  5  1  0
  1  6  1  0
  1  7  1  0
  2  3  1  0
  3  4  2  3
  4  8  1  0
  4  9  1  0
 10 11  1  0
 10 14  1  0
 10 15  1  0
 10 16  1  0
 11 12  1  0
 12 13  1  0
 12 17  1  0
 12 18  1  0
 13 19  1  0
 13 20  1  0
M  RAD  1  13   2
M  END
>  <reaction>  (13) 
rmg_rxn_15707

>  <mol_properties>  (13) 
{"0": {"label": "*1", "atom_type": "Cs"}, "1": {"label": "*0", "atom_type": "O2s"}, "4": {"label": "*2", "atom_type": "H0"}, "11": {"label": "*4", "atom_type": "Cs"}, "12": {"label": "*3", "atom_type": "Cs"}}

>  <type>  (13) 
unop_9

>  <geom_source>  (13) 
Heuristics

$$$$

     RDKit          3D

 20 18  0  0  0  0  0  0  0  0999 V2000
   -1.9320    1.5186   -0.6727 C   0  0  0  0  0  3  0  0  0  0  0  0
   -2.5753    0.4003   -0.3329 O   0  0  0  0  0  0  0  0  0  0  0  0
   -1.7912   -0.5995    0.1882 N   0  0  0  0  0  0  0  0  0  0  0  0
   -2.4076   -1.6691    0.5111 C   0  0  0  0  0  0  0  0  0  0  0  0
    2.3083   -2.5692   -1.0526 H   0  0  0  0  0  0  0  0  0  0  0  0
   -0.8702    1.6118   -0.5468 H   0  0  0  0  0  0  0  0  0  0  0  0
   -2.5644    2.2806   -1.0767 H   0  0  0  0  0  0  0  0  0  0  0  0
   -1.8090   -2.4619    0.9205 H   0  0  0  0  0  0  0  0  0  0  0  0
   -3.4755   -1.8123    0.3948 H   0  0  0  0  0  0  0  0  0  0  0  0
    1.1042    0.4273    1.6577 C   0  0  0  0  0  0  0  0  0  0  0  0
    1.6695    0.9793    0.0236 S   0  0  0  0  0  0  0  0  0  0  0  0
    1.4510   -0.5712   -0.9167 C   0  0  0  0  0  0  0  0  0  0  0  0
    2.4778   -1.6135   -0.5512 C   0  0  0  0  0  0  0  0  0  0  0  0
    1.8220   -0.2710    2.0779 H   0  0  0  0  0  0  0  0  0  0  0  0
    0.1259   -0.0339    1.5506 H   0  0  0  0  0  0  0  0  0  0  0  0
    1.0412    1.3120    2.2825 H   0  0  0  0  0  0  0  0  0  0  0  0
    0.4342   -0.9174   -0.7292 H   0  0  0  0  0  0  0  0  0  0  0  0
    1.5507   -0.2778   -1.9613 H   0  0  0  0  0  0  0  0  0  0  0  0
    2.3471   -2.0292    0.4248 H   0  0  0  0  0  0  0  0  0  0  0  0
    3.4935   -1.2705   -0.7028 H   0  0  0  0  0  0  0  0  0  0  0  0
  1  2  1  0
  1  6  1  0
  1  7  1  0
  2  3  1  0
  3  4  2  3
  4  8  1  0
  4  9  1  0
  5 13  1  0
 10 11  1  0
 10 14  1  0
 10 15  1  0
 10 16  1  0
 11 12  1  0
 12 13  1  0
 12 17  1  0
 12 18  1  0
 13 19  1  0
 13 20  1  0
M  RAD  1   1   2
M  END
>  <reaction>  (14) 
rmg_rxn_15707

>  <mol_properties>  (14) 
{"0": {"label": "*1", "atom_type": "Cs"}, "1": {"label": "*0", "atom_type": "O2s"}, "4": {"label": "*2", "atom_type": "H0"}, "11": {"label": "*4", "atom_type": "Cs"}, "12": {"label": "*3", "atom_type": "Cs"}}

>  <type>  (14) 
unop_10

>  <geom_source>  (14) 
Heuristics

$$$$

     RDKit          3D

 20 18  0  0  0  0  0  0  0  0999 V2000
   -1.6822    1.4222   -0.6882 C   0  0  0  0  0  0  0  0  0  0  0  0
   -1.6822    1.4801   -2.1011 O   0  0  0  0  0  0  0  0  0  0  0  0
   -1.6822    0.2062   -2.6168 N   0  0  0  0  0  0  0  0  0  0  0  0
   -1.6822    0.2062   -3.8805 C   0  0  0  0  0  0  0  0  0  0  0  0
   -0.6116    0.8100   -0.2441 H   0  0  0  0  0  0  0  0  0  0  0  0
   -2.5743    0.9120   -0.3181 H   0  0  0  0  0  0  0  0  0  0  0  0
   -1.6822    2.4571   -0.3504 H   0  0  0  0  0  0  0  0  0  0  0  0
   -1.6822   -0.7608   -4.3653 H   0  0  0  0  0  0  0  0  0  0  0  0
   -1.6822    1.1227   -4.4666 H   0  0  0  0  0  0  0  0  0  0  0  0
    1.7031   -2.3222    1.9496 C   0  0  0  0  0  0  0  0  0  0  0  0
    1.9075   -0.6102    2.4707 S   0  0  0  0  0  0  0  0  0  0  0  0
    0.4445    0.1436    1.7194 C   0  0  0  0  0  0  0  0  0  0  0  0
    0.4591    0.1978    0.2001 C   0  0  0  0  0  3  0  0  0  0  0  0
    2.4935   -2.8960    2.4314 H   0  0  0  0  0  0  0  0  0  0  0  0
    1.8022   -2.4345    0.8704 H   0  0  0  0  0  0  0  0  0  0  0  0
    0.7387   -2.7147    2.2747 H   0  0  0  0  0  0  0  0  0  0  0  0
   -0.4418   -0.3809    2.0837 H   0  0  0  0  0  0  0  0  0  0  0  0
    0.4128    1.1516    2.1362 H   0  0  0  0  0  0  0  0  0  0  0  0
    0.4701   -0.8026   -0.2351 H   0  0  0  0  0  0  0  0  0  0  0  0
    1.3379    0.7333   -0.1604 H   0  0  0  0  0  0  0  0  0  0  0  0
  1  2  1  0
  1  5  1  0
  1  6  1  0
  1  7  1  0
  2  3  1  0
  3  4  2  3
  4  8  1  0
  4  9  1  0
 10 11  1  0
 10 14  1  0
 10 15  1  0
 10 16  1  0
 11 12  1  0
 12 13  1  0
 12 17  1  0
 12 18  1  0
 13 19  1  0
 13 20  1  0
M  RAD  1  13   2
M  END
>  <reaction>  (15) 
rmg_rxn_15707

>  <mol_properties>  (15) 
{"0": {"label": "*1", "atom_type": "Cs"}, "1": {"label": "*0", "atom_type": "O2s"}, "4": {"label": "*2", "atom_type": "H0"}, "11": {"label": "*4", "atom_type": "Cs"}, "12": {"label": "*3", "atom_type": "Cs"}}

>  <type>  (15) 
unop_11

>  <geom_source>  (15) 
Heuristics

$$$$

     RDKit          3D

 20 18  0  0  0  0  0  0  0  0999 V2000
   -1.9294    1.5203   -0.6736 C   0  0  0  0  0  3  0  0  0  0  0  0
   -2.5738    0.4026   -0.3333 O   0  0  0  0  0  0  0  0  0  0  0  0
   -1.7910   -0.5965    0.1909 N   0  0  0  0  0  0  0  0  0  0  0  0
   -2.4080   -1.6657    0.5139 C   0  0  0  0  0  0  0  0  0  0  0  0
    2.2902   -2.5712   -1.0635 H   0  0  0  0  0  0  0  0  0  0  0  0
   -0.8678    1.6134   -0.5453 H   0  0  0  0  0  0  0  0  0  0  0  0
   -2.5607    2.2819   -1.0800 H   0  0  0  0  0  0  0  0  0  0  0  0
   -1.8102   -2.4577    0.9260 H   0  0  0  0  0  0  0  0  0  0  0  0
   -3.4757   -1.8090    0.3959 H   0  0  0  0  0  0  0  0  0  0  0  0
    1.1092    0.4232    1.6586 C   0  0  0  0  0  0  0  0  0  0  0  0
    1.6739    0.9780    0.0252 S   0  0  0  0  0  0  0  0  0  0  0  0
    1.4459   -0.5684   -0.9198 C   0  0  0  0  0  0  0  0  0  0  0  0
    2.4647   -1.6193   -0.5562 C   0  0  0  0  0  0  0  0  0  0  0  0
    1.0485    1.3067    2.2854 H   0  0  0  0  0  0  0  0  0  0  0  0
    1.8261   -0.2773    2.0766 H   0  0  0  0  0  0  0  0  0  0  0  0
    0.1299   -0.0359    1.5515 H   0  0  0  0  0  0  0  0  0  0  0  0
    0.4265   -0.9083   -0.7345 H   0  0  0  0  0  0  0  0  0  0  0  0
    1.5489   -0.2724   -1.9633 H   0  0  0  0  0  0  0  0  0  0  0  0
    2.3289   -2.0370    0.4184 H   0  0  0  0  0  0  0  0  0  0  0  0
    3.4830   -1.2823   -0.7039 H   0  0  0  0  0  0  0  0  0  0  0  0
  1  2  1  0
  1  6  1  0
  1  7  1  0
  2  3  1  0
  3  4  2  3
  4  8  1  0
  4  9  1  0
  5 13  1  0
 10 11  1  0
 10 14  1  0
 10 15  1  0
 10 16  1  0
 11 12  1  0
 12 13  1  0
 12 17  1  0
 12 18  1  0
 13 19  1  0
 13 20  1  0
M  RAD  1   1   2
M  END
>  <reaction>  (16) 
rmg_rxn_15707

>  <mol_properties>  (16) 
{"0": {"label": "*1", "atom_type": "Cs"}, "1": {"label": "*0", "atom_type": "O2s"}, "4": {"label": "*2", "atom_type": "H0"}, "11": {"label": "*4", "atom_type": "Cs"}, "12": {"label": "*3", "atom_type": "Cs"}}

>  <type>  (16) 
unop_12

>  <geom_source>  (16) 
Heuristics

$$$$

     RDKit          3D

 20 18  0  0  0  0  0  0  0  0999 V2000
   -1.5222    1.8662   -0.3393 C   0  0  0  0  0  0  0  0  0  0  0  0
   -1.5222    1.9241   -1.7522 O   0  0  0  0  0  0  0  0  0  0  0  0
   -1.5222    0.6503   -2.2679 N   0  0  0  0  0  0  0  0  0  0  0  0
   -1.5222    0.6503   -3.5315 C   0  0  0  0  0  0  0  0  0  0  0  0
   -0.4516    1.2541    0.1048 H   0  0  0  0  0  0  0  0  0  0  0  0
   -2.4143    1.3560    0.0308 H   0  0  0  0  0  0  0  0  0  0  0  0
   -1.5222    2.9011   -0.0015 H   0  0  0  0  0  0  0  0  0  0  0  0
   -1.5222   -0.3168   -4.0163 H   0  0  0  0  0  0  0  0  0  0  0  0
   -1.5222    1.5668   -4.1177 H   0  0  0  0  0  0  0  0  0  0  0  0
    2.7956   -1.4858    1.8509 C   0  0  0  0  0  0  0  0  0  0  0  0
    1.0283   -1.6168    2.1731 S   0  0  0  0  0  0  0  0  0  0  0  0
    0.3593   -0.8507    0.6769 C   0  0  0  0  0  0  0  0  0  0  0  0
    0.6191    0.6418    0.5490 C   0  0  0  0  0  3  0  0  0  0  0  0
    3.3042   -2.0085    2.6598 H   0  0  0  0  0  0  0  0  0  0  0  0
    3.1327   -0.4498    1.8423 H   0  0  0  0  0  0  0  0  0  0  0  0
    3.0551   -1.9664    0.9068 H   0  0  0  0  0  0  0  0  0  0  0  0
    0.7443   -1.3907   -0.1912 H   0  0  0  0  0  0  0  0  0  0  0  0
   -0.7129   -1.0479    0.7258 H   0  0  0  0  0  0  0  0  0  0  0  0
    1.6863    0.8567    0.4781 H   0  0  0  0  0  0  0  0  0  0  0  0
    0.2221    1.1797    1.4105 H   0  0  0  0  0  0  0  0  0  0  0  0
  1  2  1  0
  1  5  1  0
  1  6  1  0
  1  7  1  0
  2  3  1  0
  3  4  2  3
  4  8  1  0
  4  9  1  0
 10 11  1  0
 10 14  1  0
 10 15  1  0
 10 16  1  0
 11 12  1  0
 12 13  1  0
 12 17  1  0
 12 18  1  0
 13 19  1  0
 13 20  1  0
M  RAD  1  13   2
M  END
>  <reaction>  (17) 
rmg_rxn_15707

>  <mol_properties>  (17) 
{"0": {"label": "*1", "atom_type": "Cs"}, "1": {"label": "*0", "atom_type": "O2s"}, "4": {"label": "*2", "atom_type": "H0"}, "11": {"label": "*4", "atom_type": "Cs"}, "12": {"label": "*3", "atom_type": "Cs"}}

>  <type>  (17) 
unop_13

>  <geom_source>  (17) 
Heuristics

$$$$

     RDKit          3D

 20 18  0  0  0  0  0  0  0  0999 V2000
   -2.1178    1.5701    0.2128 C   0  0  0  0  0  3  0  0  0  0  0  0
   -2.5993    0.4151   -0.3760 O   0  0  0  0  0  0  0  0  0  0  0  0
   -2.5448   -0.6734    0.4727 N   0  0  0  0  0  0  0  0  0  0  0  0
   -2.9270   -1.7722   -0.0171 C   0  0  0  0  0  0  0  0  0  0  0  0
   -0.7808    1.5313    0.1573 H   0  0  0  0  0  0  0  0  0  0  0  0
   -2.3588    1.6520    1.2698 H   0  0  0  0  0  0  0  0  0  0  0  0
   -2.4419    2.4138   -0.3854 H   0  0  0  0  0  0  0  0  0  0  0  0
   -2.8953   -2.6249    0.6372 H   0  0  0  0  0  0  0  0  0  0  0  0
   -3.2806   -1.8989   -1.0356 H   0  0  0  0  0  0  0  0  0  0  0  0
    3.1303   -0.3766    1.1608 C   0  0  0  0  0  0  0  0  0  0  0  0
    2.6145   -0.3050   -0.5776 S   0  0  0  0  0  0  0  0  0  0  0  0
    0.8022    0.0057   -0.3555 C   0  0  0  0  0  0  0  0  0  0  0  0
    0.5201    1.3928    0.1016 C   0  0  0  0  0  0  0  0  0  0  0  0
    2.5207   -1.1051    1.6885 H   0  0  0  0  0  0  0  0  0  0  0  0
    3.0414    0.6047    1.6177 H   0  0  0  0  0  0  0  0  0  0  0  0
    4.1691   -0.6893    1.1626 H   0  0  0  0  0  0  0  0  0  0  0  0
    0.3838   -0.1853   -1.3426 H   0  0  0  0  0  0  0  0  0  0  0  0
    0.4403   -0.7462    0.3456 H   0  0  0  0  0  0  0  0  0  0  0  0
    0.8606    2.1498   -0.5963 H   0  0  0  0  0  0  0  0  0  0  0  0
    0.8601    1.6014    1.1105 H   0  0  0  0  0  0  0  0  0  0  0  0
  1  2  1  0
  1  6  1  0
  1  7  1  0
  2  3  1  0
  3  4  2  3
  4  8  1  0
  4  9  1  0
  5 13  1  0
 10 11  1  0
 10 14  1  0
 10 15  1  0
 10 16  1  0
 11 12  1  0
 12 13  1  0
 12 17  1  0
 12 18  1  0
 13 19  1  0
 13 20  1  0
M  RAD  1   1   2
M  END
>  <reaction>  (18) 
rmg_rxn_15707

>  <mol_properties>  (18) 
{"0": {"label": "*1", "atom_type": "Cs"}, "1": {"label": "*0", "atom_type": "O2s"}, "4": {"label": "*2", "atom_type": "H0"}, "11": {"label": "*4", "atom_type": "Cs"}, "12": {"label": "*3", "atom_type": "Cs"}}

>  <type>  (18) 
unop_14

>  <geom_source>  (18) 
Heuristics

$$$$

     RDKit          3D

 20 18  0  0  0  0  0  0  0  0999 V2000
   -1.5438    1.6269   -0.6139 C   0  0  0  0  0  0  0  0  0  0  0  0
   -1.5438    1.6848   -2.0267 O   0  0  0  0  0  0  0  0  0  0  0  0
   -1.5438    0.4109   -2.5425 N   0  0  0  0  0  0  0  0  0  0  0  0
   -1.5438    0.4109   -3.8061 C   0  0  0  0  0  0  0  0  0  0  0  0
   -0.4732    1.0147   -0.1697 H   0  0  0  0  0  0  0  0  0  0  0  0
   -2.4359    1.1167   -0.2437 H   0  0  0  0  0  0  0  0  0  0  0  0
   -1.5438    2.6618   -0.2760 H   0  0  0  0  0  0  0  0  0  0  0  0
   -1.5438   -0.5562   -4.2909 H   0  0  0  0  0  0  0  0  0  0  0  0
   -1.5438    1.3274   -4.3922 H   0  0  0  0  0  0  0  0  0  0  0  0
    2.7761   -1.4716    1.9177 C   0  0  0  0  0  0  0  0  0  0  0  0
    1.1561   -1.0773    2.5993 S   0  0  0  0  0  0  0  0  0  0  0  0
    0.2073   -0.8269    1.0794 C   0  0  0  0  0  0  0  0  0  0  0  0
    0.5975    0.4025    0.2744 C   0  0  0  0  0  3  0  0  0  0  0  0
    3.4168   -1.7362    2.7578 H   0  0  0  0  0  0  0  0  0  0  0  0
    3.2183   -0.6213    1.3995 H   0  0  0  0  0  0  0  0  0  0  0  0
    2.7158   -2.3255    1.2418 H   0  0  0  0  0  0  0  0  0  0  0  0
    0.2804   -1.7318    0.4717 H   0  0  0  0  0  0  0  0  0  0  0  0
   -0.8284   -0.7500    1.4142 H   0  0  0  0  0  0  0  0  0  0  0  0
    1.6248    0.3339   -0.0865 H   0  0  0  0  0  0  0  0  0  0  0  0
    0.5109    1.3055    0.8794 H   0  0  0  0  0  0  0  0  0  0  0  0
  1  2  1  0
  1  5  1  0
  1  6  1  0
  1  7  1  0
  2  3  1  0
  3  4  2  3
  4  8  1  0
  4  9  1  0
 10 11  1  0
 10 14  1  0
 10 15  1  0
 10 16  1  0
 11 12  1  0
 12 13  1  0
 12 17  1  0
 12 18  1  0
 13 19  1  0
 13 20  1  0
M  RAD  1  13   2
M  END
>  <reaction>  (19) 
rmg_rxn_15707

>  <mol_properties>  (19) 
{"0": {"label": "*1", "atom_type": "Cs"}, "1": {"label": "*0", "atom_type": "O2s"}, "4": {"label": "*2", "atom_type": "H0"}, "11": {"label": "*4", "atom_type": "Cs"}, "12": {"label": "*3", "atom_type": "Cs"}}

>  <type>  (19) 
unop_15

>  <geom_source>  (19) 
Heuristics

$$$$

     RDKit          3D

 20 18  0  0  0  0  0  0  0  0999 V2000
   -2.1179   -1.5705    0.2116 C   0  0  0  0  0  3  0  0  0  0  0  0
   -2.5992   -0.4146   -0.3756 O   0  0  0  0  0  0  0  0  0  0  0  0
   -2.5423    0.6731    0.4739 N   0  0  0  0  0  0  0  0  0  0  0  0
   -2.9232    1.7729   -0.0148 C   0  0  0  0  0  0  0  0  0  0  0  0
   -0.7810   -1.5326    0.1536 H   0  0  0  0  0  0  0  0  0  0  0  0
   -2.4440   -2.4135   -0.3866 H   0  0  0  0  0  0  0  0  0  0  0  0
   -2.3571   -1.6529    1.2689 H   0  0  0  0  0  0  0  0  0  0  0  0
   -2.8895    2.6251    0.6401 H   0  0  0  0  0  0  0  0  0  0  0  0
   -3.2773    1.9010   -1.0330 H   0  0  0  0  0  0  0  0  0  0  0  0
    3.1308    0.3686    1.1610 C   0  0  0  0  0  0  0  0  0  0  0  0
    2.6123    0.3086   -0.5769 S   0  0  0  0  0  0  0  0  0  0  0  0
    0.8005   -0.0043   -0.3540 C   0  0  0  0  0  0  0  0  0  0  0  0
    0.5198   -1.3939    0.0959 C   0  0  0  0  0  0  0  0  0  0  0  0
    4.1686    0.6849    1.1635 H   0  0  0  0  0  0  0  0  0  0  0  0
    3.0459   -0.6163    1.6104 H   0  0  0  0  0  0  0  0  0  0  0  0
    2.5197    1.0911    1.6951 H   0  0  0  0  0  0  0  0  0  0  0  0
    0.4393    0.7435    0.3517 H   0  0  0  0  0  0  0  0  0  0  0  0
    0.3806    0.1919   -1.3394 H   0  0  0  0  0  0  0  0  0  0  0  0
    0.8619   -1.6081    1.1029 H   0  0  0  0  0  0  0  0  0  0  0  0
    0.8589   -2.1470   -0.6069 H   0  0  0  0  0  0  0  0  0  0  0  0
  1  2  1  0
  1  6  1  0
  1  7  1  0
  2  3  1  0
  3  4  2  3
  4  8  1  0
  4  9  1  0
  5 13  1  0
 10 11  1  0
 10 14  1  0
 10 15  1  0
 10 16  1  0
 11 12  1  0
 12 13  1  0
 12 17  1  0
 12 18  1  0
 13 19  1  0
 13 20  1  0
M  RAD  1   1   2
M  END
>  <reaction>  (20) 
rmg_rxn_15707

>  <mol_properties>  (20) 
{"0": {"label": "*1", "atom_type": "Cs"}, "1": {"label": "*0", "atom_type": "O2s"}, "4": {"label": "*2", "atom_type": "H0"}, "11": {"label": "*4", "atom_type": "Cs"}, "12": {"label": "*3", "atom_type": "Cs"}}

>  <type>  (20) 
unop_16

>  <geom_source>  (20) 
Heuristics

$$$$

     RDKit          3D

 20 18  0  0  0  0  0  0  0  0999 V2000
   -1.9423    0.5645   -0.5580 C   0  0  0  0  0  0  0  0  0  0  0  0
   -1.9424    0.6225   -1.9709 O   0  0  0  0  0  0  0  0  0  0  0  0
   -1.9424   -0.6514   -2.4866 N   0  0  0  0  0  0  0  0  0  0  0  0
   -1.9424   -0.6514   -3.7502 C   0  0  0  0  0  0  0  0  0  0  0  0
   -0.8718   -0.0476   -0.1139 H   0  0  0  0  0  0  0  0  0  0  0  0
   -2.8345    0.0543   -0.1879 H   0  0  0  0  0  0  0  0  0  0  0  0
   -1.9424    1.5994   -0.2202 H   0  0  0  0  0  0  0  0  0  0  0  0
   -1.9424   -1.6185   -4.2350 H   0  0  0  0  0  0  0  0  0  0  0  0
   -1.9424    0.2651   -4.3364 H   0  0  0  0  0  0  0  0  0  0  0  0
    1.2057    0.2960    3.3356 C   0  0  0  0  0  0  0  0  0  0  0  0
    2.3693   -0.0061    1.9942 S   0  0  0  0  0  0  0  0  0  0  0  0
    1.3216    0.3393    0.5603 C   0  0  0  0  0  0  0  0  0  0  0  0
    0.1989   -0.6599    0.3303 C   0  0  0  0  0  3  0  0  0  0  0  0
    1.7650    0.2057    4.2658 H   0  0  0  0  0  0  0  0  0  0  0  0
    0.3969   -0.4338    3.3456 H   0  0  0  0  0  0  0  0  0  0  0  0
    0.7932    1.3037    3.2724 H   0  0  0  0  0  0  0  0  0  0  0  0
    0.9288    1.3543    0.6541 H   0  0  0  0  0  0  0  0  0  0  0  0
    2.0100    0.3403   -0.2864 H   0  0  0  0  0  0  0  0  0  0  0  0
   -0.5113   -0.6601    1.1584 H   0  0  0  0  0  0  0  0  0  0  0  0
    0.5949   -1.6703    0.2239 H   0  0  0  0  0  0  0  0  0  0  0  0
  1  2  1  0
  1  5  1  0
  1  6  1  0
  1  7  1  0
  2  3  1  0
  3  4  2  3
  4  8  1  0
  4  9  1  0
 10 11  1  0
 10 14  1  0
 10 15  1  0
 10 16  1  0
 11 12  1  0
 12 13  1  0
 12 17  1  0
 12 18  1  0
 13 19  1  0
 13 20  1  0
M  RAD  1  13   2
M  END
>  <reaction>  (21) 
rmg_rxn_15707

>  <mol_properties>  (21) 
{"0": {"label": "*1", "atom_type": "Cs"}, "1": {"label": "*0", "atom_type": "O2s"}, "4": {"label": "*2", "atom_type": "H0"}, "11": {"label": "*4", "atom_type": "Cs"}, "12": {"label": "*3", "atom_type": "Cs"}}

>  <type>  (21) 
unop_17

>  <geom_source>  (21) 
Heuristics

$$$$

     RDKit          3D

 20 18  0  0  0  0  0  0  0  0999 V2000
   -2.1154   -1.5719    0.2047 C   0  0  0  0  0  3  0  0  0  0  0  0
   -2.5985   -0.4153   -0.3796 O   0  0  0  0  0  0  0  0  0  0  0  0
   -2.5534    0.6680    0.4762 N   0  0  0  0  0  0  0  0  0  0  0  0
   -2.9365    1.7685   -0.0092 C   0  0  0  0  0  0  0  0  0  0  0  0
   -0.7784   -1.5294    0.1527 H   0  0  0  0  0  0  0  0  0  0  0  0
   -2.4353   -2.4136   -0.3987 H   0  0  0  0  0  0  0  0  0  0  0  0
   -2.3591   -1.6599    1.2605 H   0  0  0  0  0  0  0  0  0  0  0  0
   -2.9123    2.6172    0.6506 H   0  0  0  0  0  0  0  0  0  0  0  0
   -3.2840    1.9002   -1.0292 H   0  0  0  0  0  0  0  0  0  0  0  0
    3.1400    0.3611    1.1587 C   0  0  0  0  0  0  0  0  0  0  0  0
    2.6148    0.3127   -0.5775 S   0  0  0  0  0  0  0  0  0  0  0  0
    0.8033    0.0011   -0.3503 C   0  0  0  0  0  0  0  0  0  0  0  0
    0.5223   -1.3885    0.0997 C   0  0  0  0  0  0  0  0  0  0  0  0
    4.1775    0.6782    1.1593 H   0  0  0  0  0  0  0  0  0  0  0  0
    3.0576   -0.6270    1.6016 H   0  0  0  0  0  0  0  0  0  0  0  0
    2.5304    1.0793    1.7002 H   0  0  0  0  0  0  0  0  0  0  0  0
    0.4439    0.7490    0.3563 H   0  0  0  0  0  0  0  0  0  0  0  0
    0.3816    0.1979   -1.3349 H   0  0  0  0  0  0  0  0  0  0  0  0
    0.8614   -1.6016    1.1079 H   0  0  0  0  0  0  0  0  0  0  0  0
    0.8644   -2.1416   -0.6016 H   0  0  0  0  0  0  0  0  0  0  0  0
  1  2  1  0
  1  6  1  0
  1  7  1  0
  2  3  1  0
  3  4  2  3
  4  8  1  0
  4  9  1  0
  5 13  1  0
 10 11  1  0
 10 14  1  0
 10 15  1  0
 10 16  1  0
 11 12  1  0
 12 13  1  0
 12 17  1  0
 12 18  1  0
 13 19  1  0
 13 20  1  0
M  RAD  1   1   2
M  END
>  <reaction>  (22) 
rmg_rxn_15707

>  <mol_properties>  (22) 
{"0": {"label": "*1", "atom_type": "Cs"}, "1": {"label": "*0", "atom_type": "O2s"}, "4": {"label": "*2", "atom_type": "H0"}, "11": {"label": "*4", "atom_type": "Cs"}, "12": {"label": "*3", "atom_type": "Cs"}}

>  <type>  (22) 
unop_18

>  <geom_source>  (22) 
Heuristics

$$$$

     RDKit          3D

 20 18  0  0  0  0  0  0  0  0999 V2000
   -1.9584    1.7494    0.3792 C   0  0  0  0  0  0  0  0  0  0  0  0
   -1.9584    1.8073   -1.0337 O   0  0  0  0  0  0  0  0  0  0  0  0
   -1.9584    0.5334   -1.5494 N   0  0  0  0  0  0  0  0  0  0  0  0
   -1.9584    0.5334   -2.8130 C   0  0  0  0  0  0  0  0  0  0  0  0
   -0.8878    1.1372    0.8233 H   0  0  0  0  0  0  0  0  0  0  0  0
   -2.8505    1.2392    0.7493 H   0  0  0  0  0  0  0  0  0  0  0  0
   -1.9584    2.7843    0.7170 H   0  0  0  0  0  0  0  0  0  0  0  0
   -1.9584   -0.4337   -3.2979 H   0  0  0  0  0  0  0  0  0  0  0  0
   -1.9584    1.4499   -3.3992 H   0  0  0  0  0  0  0  0  0  0  0  0
    3.1901   -0.8570    1.3420 C   0  0  0  0  0  0  0  0  0  0  0  0
    1.7153   -1.8099    0.9403 S   0  0  0  0  0  0  0  0  0  0  0  0
    0.6549   -0.5114    0.2601 C   0  0  0  0  0  0  0  0  0  0  0  0
    0.1829    0.5250    1.2675 C   0  0  0  0  0  3  0  0  0  0  0  0
    3.9434   -1.5674    1.6797 H   0  0  0  0  0  0  0  0  0  0  0  0
    3.0070   -0.1401    2.1417 H   0  0  0  0  0  0  0  0  0  0  0  0
    3.5694   -0.3382    0.4606 H   0  0  0  0  0  0  0  0  0  0  0  0
    1.1783   -0.0370   -0.5731 H   0  0  0  0  0  0  0  0  0  0  0  0
   -0.1966   -1.0479   -0.1617 H   0  0  0  0  0  0  0  0  0  0  0  0
    1.0200    1.0861    1.6852 H   0  0  0  0  0  0  0  0  0  0  0  0
   -0.3508    0.0499    2.0913 H   0  0  0  0  0  0  0  0  0  0  0  0
  1  2  1  0
  1  5  1  0
  1  6  1  0
  1  7  1  0
  2  3  1  0
  3  4  2  3
  4  8  1  0
  4  9  1  0
 10 11  1  0
 10 14  1  0
 10 15  1  0
 10 16  1  0
 11 12  1  0
 12 13  1  0
 12 17  1  0
 12 18  1  0
 13 19  1  0
 13 20  1  0
M  RAD  1  13   2
M  END
>  <reaction>  (23) 
rmg_rxn_15707

>  <mol_properties>  (23) 
{"0": {"label": "*1", "atom_type": "Cs"}, "1": {"label": "*0", "atom_type": "O2s"}, "4": {"label": "*2", "atom_type": "H0"}, "11": {"label": "*4", "atom_type": "Cs"}, "12": {"label": "*3", "atom_type": "Cs"}}

>  <type>  (23) 
unop_19

>  <geom_source>  (23) 
Heuristics

$$$$

     RDKit          3D

 20 18  0  0  0  0  0  0  0  0999 V2000
   -2.1986    0.5473   -0.1468 C   0  0  0  0  0  0  0  0  0  0  0  0
   -2.1986    0.6052   -1.5597 O   0  0  0  0  0  0  0  0  0  0  0  0
   -2.1986   -0.6687   -2.0754 N   0  0  0  0  0  0  0  0  0  0  0  0
   -2.1986   -0.6687   -3.3390 C   0  0  0  0  0  0  0  0  0  0  0  0
   -1.1280   -0.0649    0.2973 H   0  0  0  0  0  0  0  0  0  0  0  0
   -3.0907    0.0371    0.2233 H   0  0  0  0  0  0  0  0  0  0  0  0
   -2.1986    1.5822    0.1910 H   0  0  0  0  0  0  0  0  0  0  0  0
   -2.1986   -1.6357   -3.8239 H   0  0  0  0  0  0  0  0  0  0  0  0
   -2.1986    0.2478   -3.9252 H   0  0  0  0  0  0  0  0  0  0  0  0
    2.0240    0.8227    2.8337 C   0  0  0  0  0  0  0  0  0  0  0  0
    2.6141   -0.1033    1.4059 S   0  0  0  0  0  0  0  0  0  0  0  0
    1.1957    0.0589    0.2945 C   0  0  0  0  0  0  0  0  0  0  0  0
   -0.0573   -0.6771    0.7415 C   0  0  0  0  0  3  0  0  0  0  0  0
    2.8492    0.8700    3.5430 H   0  0  0  0  0  0  0  0  0  0  0  0
    1.1796    0.3325    3.3170 H   0  0  0  0  0  0  0  0  0  0  0  0
    1.7482    1.8393    2.5505 H   0  0  0  0  0  0  0  0  0  0  0  0
    0.9926    1.1217    0.1441 H   0  0  0  0  0  0  0  0  0  0  0  0
    1.5500   -0.3364   -0.6590 H   0  0  0  0  0  0  0  0  0  0  0  0
   -0.4381   -0.2812    1.6841 H   0  0  0  0  0  0  0  0  0  0  0  0
    0.1452   -1.7399    0.8780 H   0  0  0  0  0  0  0  0  0  0  0  0
  1  2  1  0
  1  5  1  0
  1  6  1  0
  1  7  1  0
  2  3  1  0
  3  4  2  3
  4  8  1  0
  4  9  1  0
 10 11  1  0
 10 14  1  0
 10 15  1  0
 10 16  1  0
 11 12  1  0
 12 13  1  0
 12 17  1  0
 12 18  1  0
 13 19  1  0
 13 20  1  0
M  RAD  1  13   2
M  END
>  <reaction>  (24) 
rmg_rxn_15707

>  <mol_properties>  (24) 
{"0": {"label": "*1", "atom_type": "Cs"}, "1": {"label": "*0", "atom_type": "O2s"}, "4": {"label": "*2", "atom_type": "H0"}, "11": {"label": "*4", "atom_type": "Cs"}, "12": {"label": "*3", "atom_type": "Cs"}}

>  <type>  (24) 
unop_20

>  <geom_source>  (24) 
Heuristics

$$$$

     RDKit          3D

 20 18  0  0  0  0  0  0  0  0999 V2000
   -1.6778    1.4273   -0.6878 C   0  0  0  0  0  0  0  0  0  0  0  0
   -1.6778    1.4852   -2.1007 O   0  0  0  0  0  0  0  0  0  0  0  0
   -1.6778    0.2113   -2.6164 N   0  0  0  0  0  0  0  0  0  0  0  0
   -1.6778    0.2113   -3.8800 C   0  0  0  0  0  0  0  0  0  0  0  0
   -0.6072    0.8151   -0.2437 H   0  0  0  0  0  0  0  0  0  0  0  0
   -2.5700    0.9171   -0.3177 H   0  0  0  0  0  0  0  0  0  0  0  0
   -1.6779    2.4622   -0.3500 H   0  0  0  0  0  0  0  0  0  0  0  0
   -1.6779   -0.7558   -4.3649 H   0  0  0  0  0  0  0  0  0  0  0  0
   -1.6778    1.1278   -4.4662 H   0  0  0  0  0  0  0  0  0  0  0  0
    2.6278   -1.7578    1.7593 C   0  0  0  0  0  0  0  0  0  0  0  0
    1.5620   -0.6158    2.6560 S   0  0  0  0  0  0  0  0  0  0  0  0
    0.1630   -0.5001    1.5147 C   0  0  0  0  0  0  0  0  0  0  0  0
    0.4634    0.2028    0.2005 C   0  0  0  0  0  3  0  0  0  0  0  0
    3.4749   -1.9757    2.4083 H   0  0  0  0  0  0  0  0  0  0  0  0
    3.0036   -1.3232    0.8336 H   0  0  0  0  0  0  0  0  0  0  0  0
    2.1041   -2.6901    1.5437 H   0  0  0  0  0  0  0  0  0  0  0  0
   -0.2267   -1.5056    1.3404 H   0  0  0  0  0  0  0  0  0  0  0  0
   -0.5996    0.0456    2.0729 H   0  0  0  0  0  0  0  0  0  0  0  0
    1.2099   -0.3400   -0.3812 H   0  0  0  0  0  0  0  0  0  0  0  0
    0.8397    1.2110    0.3771 H   0  0  0  0  0  0  0  0  0  0  0  0
  1  2  1  0
  1  5  1  0
  1  6  1  0
  1  7  1  0
  2  3  1  0
  3  4  2  3
  4  8  1  0
  4  9  1  0
 10 11  1  0
 10 14  1  0
 10 15  1  0
 10 16  1  0
 11 12  1  0
 12 13  1  0
 12 17  1  0
 12 18  1  0
 13 19  1  0
 13 20  1  0
M  RAD  1  13   2
M  END
>  <reaction>  (25) 
rmg_rxn_15707

>  <mol_properties>  (25) 
{"0": {"label": "*1", "atom_type": "Cs"}, "1": {"label": "*0", "atom_type": "O2s"}, "4": {"label": "*2", "atom_type": "H0"}, "11": {"label": "*4", "atom_type": "Cs"}, "12": {"label": "*3", "atom_type": "Cs"}}

>  <type>  (25) 
unop_21

>  <geom_source>  (25) 
Heuristics

$$$$

     RDKit          3D

 20 18  0  0  0  0  0  0  0  0999 V2000
   -2.2287    1.3091    0.4732 C   0  0  0  0  0  0  0  0  0  0  0  0
   -2.2287    1.3670   -0.9397 O   0  0  0  0  0  0  0  0  0  0  0  0
   -2.2287    0.0931   -1.4554 N   0  0  0  0  0  0  0  0  0  0  0  0
   -2.2287    0.0931   -2.7190 C   0  0  0  0  0  0  0  0  0  0  0  0
   -1.1581    0.6969    0.9173 H   0  0  0  0  0  0  0  0  0  0  0  0
   -3.1208    0.7989    0.8433 H   0  0  0  0  0  0  0  0  0  0  0  0
   -2.2287    2.3440    0.8110 H   0  0  0  0  0  0  0  0  0  0  0  0
   -2.2287   -0.8739   -3.2039 H   0  0  0  0  0  0  0  0  0  0  0  0
   -2.2287    1.0096   -3.3052 H   0  0  0  0  0  0  0  0  0  0  0  0
    3.2191    0.0026    1.4997 C   0  0  0  0  0  0  0  0  0  0  0  0
    2.2697   -1.2835    0.6696 S   0  0  0  0  0  0  0  0  0  0  0  0
    0.7900   -0.3545    0.2001 C   0  0  0  0  0  0  0  0  0  0  0  0
   -0.0874    0.0847    1.3615 C   0  0  0  0  0  3  0  0  0  0  0  0
    4.1876   -0.4294    1.7476 H   0  0  0  0  0  0  0  0  0  0  0  0
    2.7406    0.3318    2.4215 H   0  0  0  0  0  0  0  0  0  0  0  0
    3.3762    0.8568    0.8397 H   0  0  0  0  0  0  0  0  0  0  0  0
    1.0955    0.5021   -0.4052 H   0  0  0  0  0  0  0  0  0  0  0  0
    0.2410   -1.0305   -0.4576 H   0  0  0  0  0  0  0  0  0  0  0  0
    0.4386    0.7780    2.0194 H   0  0  0  0  0  0  0  0  0  0  0  0
   -0.4018   -0.7736    1.9561 H   0  0  0  0  0  0  0  0  0  0  0  0
  1  2  1  0
  1  5  1  0
  1  6  1  0
  1  7  1  0
  2  3  1  0
  3  4  2  3
  4  8  1  0
  4  9  1  0
 10 11  1  0
 10 14  1  0
 10 15  1  0
 10 16  1  0
 11 12  1  0
 12 13  1  0
 12 17  1  0
 12 18  1  0
 13 19  1  0
 13 20  1  0
M  RAD  1  13   2
M  END
>  <reaction>  (26) 
rmg_rxn_15707

>  <mol_properties>  (26) 
{"0": {"label": "*1", "atom_type": "Cs"}, "1": {"label": "*0", "atom_type": "O2s"}, "4": {"label": "*2", "atom_type": "H0"}, "11": {"label": "*4", "atom_type": "Cs"}, "12": {"label": "*3", "atom_type": "Cs"}}

>  <type>  (26) 
unop_22

>  <geom_source>  (26) 
Heuristics

$$$$

     RDKit          3D

 20 18  0  0  0  0  0  0  0  0999 V2000
   -1.9341    1.5194    0.6715 C   0  0  0  0  0  3  0  0  0  0  0  0
   -2.5755    0.4003    0.3304 O   0  0  0  0  0  0  0  0  0  0  0  0
   -1.7890   -0.5985   -0.1889 N   0  0  0  0  0  0  0  0  0  0  0  0
   -2.4027   -1.6696   -0.5117 C   0  0  0  0  0  0  0  0  0  0  0  0
    2.2959   -2.5742    1.0525 H   0  0  0  0  0  0  0  0  0  0  0  0
   -0.8720    1.6134    0.5485 H   0  0  0  0  0  0  0  0  0  0  0  0
   -2.5684    2.2811    1.0734 H   0  0  0  0  0  0  0  0  0  0  0  0
   -1.8018   -2.4612   -0.9201 H   0  0  0  0  0  0  0  0  0  0  0  0
   -3.4705   -1.8149   -0.3971 H   0  0  0  0  0  0  0  0  0  0  0  0
    1.1053    0.4341   -1.6553 C   0  0  0  0  0  0  0  0  0  0  0  0
    1.6729    0.9793   -0.0197 S   0  0  0  0  0  0  0  0  0  0  0  0
    1.4481   -0.5729    0.9165 C   0  0  0  0  0  0  0  0  0  0  0  0
    2.4680   -1.6206    0.5455 C   0  0  0  0  0  0  0  0  0  0  0  0
    0.1269   -0.0270   -1.5491 H   0  0  0  0  0  0  0  0  0  0  0  0
    1.8222   -0.2627   -2.0795 H   0  0  0  0  0  0  0  0  0  0  0  0
    1.0422    1.3215   -2.2763 H   0  0  0  0  0  0  0  0  0  0  0  0
    1.5520   -0.2830    1.9616 H   0  0  0  0  0  0  0  0  0  0  0  0
    0.4289   -0.9130    0.7304 H   0  0  0  0  0  0  0  0  0  0  0  0
    3.4857   -1.2820    0.6953 H   0  0  0  0  0  0  0  0  0  0  0  0
    2.3335   -2.0277   -0.4342 H   0  0  0  0  0  0  0  0  0  0  0  0
  1  2  1  0
  1  6  1  0
  1  7  1  0
  2  3  1  0
  3  4  2  3
  4  8  1  0
  4  9  1  0
  5 13  1  0
 10 11  1  0
 10 14  1  0
 10 15  1  0
 10 16  1  0
 11 12  1  0
 12 13  1  0
 12 17  1  0
 12 18  1  0
 13 19  1  0
 13 20  1  0
M  RAD  1   1   2
M  END
>  <reaction>  (27) 
rmg_rxn_15707

>  <mol_properties>  (27) 
{"0": {"label": "*1", "atom_type": "Cs"}, "1": {"label": "*0", "atom_type": "O2s"}, "4": {"label": "*2", "atom_type": "H0"}, "11": {"label": "*4", "atom_type": "Cs"}, "12": {"label": "*3", "atom_type": "Cs"}}

>  <type>  (27) 
unop_23

>  <geom_source>  (27) 
Heuristics

$$$$

     RDKit          3D

 20 18  0  0  0  0  0  0  0  0999 V2000
   -2.8162    0.3252    0.9160 S   0  0  0  0  0  0  0  0  0  0  0  0
    2.5656   -1.2632   -0.5001 O   0  0  0  0  0  0  0  0  0  0  0  0
    2.3784    0.0353   -0.0860 N   0  0  0  0  0  0  0  0  0  0  0  0
   -1.1742    0.1775    0.1348 C   0  0  0  0  0  0  0  0  0  0  0  0
   -0.5499   -1.1631    0.4870 C   0  0  0  0  0  0  0  0  0  0  0  0
   -3.1471    1.9864    0.2488 C   0  0  0  0  0  0  0  0  0  0  0  0
    1.4527   -2.0648   -0.8546 C   0  0  0  0  0  3  0  0  0  0  0  0
    3.3887    0.7727    0.2380 C   0  0  0  0  0  0  0  0  0  0  0  0
   -0.5122    0.9929    0.4960 H   0  0  0  0  0  0  0  0  0  0  0  0
   -1.2756    0.2526   -0.9687 H   0  0  0  0  0  0  0  0  0  0  0  0
   -0.4270   -1.2512    1.5874 H   0  0  0  0  0  0  0  0  0  0  0  0
   -1.1914   -1.9925    0.1207 H   0  0  0  0  0  0  0  0  0  0  0  0
    0.6141   -1.2559   -0.0727 H   0  0  0  0  0  0  0  0  0  0  0  0
   -3.1451    1.9596   -0.8608 H   0  0  0  0  0  0  0  0  0  0  0  0
   -4.1443    2.3245    0.5977 H   0  0  0  0  0  0  0  0  0  0  0  0
   -2.3792    2.7024    0.6088 H   0  0  0  0  0  0  0  0  0  0  0  0
    0.9367   -1.6235   -1.7329 H   0  0  0  0  0  0  0  0  0  0  0  0
    1.8008   -3.0867   -1.1099 H   0  0  0  0  0  0  0  0  0  0  0  0
    3.2287    1.7919    0.5619 H   0  0  0  0  0  0  0  0  0  0  0  0
    4.3965    0.3798    0.1884 H   0  0  0  0  0  0  0  0  0  0  0  0
  1  6  1  0
  1  4  1  0
  2  7  1  0
  2  3  1  0
  3  8  2  3
  4  5  1  0
  4  9  1  0
  4 10  1  0
  5 11  1  0
  5 12  1  0
  5 13  1  0
  6 14  1  0
  6 15  1  0
  6 16  1  0
  7 17  1  0
  7 18  1  0
  8 19  1  0
  8 20  1  0
M  RAD  1   7   2
M  END
>  <reaction>  (28) 
rmg_rxn_15707

>  <mol_properties>  (28) 
{"0": {"label": "*1", "atom_type": "Cs"}, "1": {"label": "*0", "atom_type": "O2s"}, "4": {"label": "*2", "atom_type": "H0"}, "11": {"label": "*4", "atom_type": "Cs"}, "12": {"label": "*3", "atom_type": "Cs"}}

>  <type>  (28) 
unop_24

>  <geom_source>  (28) 
AutoTST

$$$$

     RDKit          3D

 20 18  0  0  0  0  0  0  0  0999 V2000
   -2.3210    0.8280    0.2601 C   0  0  0  0  0  0  0  0  0  0  0  0
   -2.3210    0.8859   -1.1528 O   0  0  0  0  0  0  0  0  0  0  0  0
   -2.3210   -0.3880   -1.6686 N   0  0  0  0  0  0  0  0  0  0  0  0
   -2.3210   -0.3880   -2.9322 C   0  0  0  0  0  0  0  0  0  0  0  0
   -1.2504    0.2158    0.7042 H   0  0  0  0  0  0  0  0  0  0  0  0
   -3.2131    0.3178    0.6302 H   0  0  0  0  0  0  0  0  0  0  0  0
   -2.3210    1.8629    0.5979 H   0  0  0  0  0  0  0  0  0  0  0  0
   -2.3210   -1.3551   -3.4170 H   0  0  0  0  0  0  0  0  0  0  0  0
   -2.3210    0.5285   -3.5183 H   0  0  0  0  0  0  0  0  0  0  0  0
    2.7909    0.7110    2.1010 C   0  0  0  0  0  0  0  0  0  0  0  0
    2.6116   -0.5913    0.8697 S   0  0  0  0  0  0  0  0  0  0  0  0
    0.9835   -0.1869    0.1920 C   0  0  0  0  0  0  0  0  0  0  0  0
   -0.1797   -0.3964    1.1483 C   0  0  0  0  0  3  0  0  0  0  0  0
    3.7941    0.6188    2.5151 H   0  0  0  0  0  0  0  0  0  0  0  0
    2.0707    0.6073    2.9119 H   0  0  0  0  0  0  0  0  0  0  0  0
    2.6915    1.6957    1.6424 H   0  0  0  0  0  0  0  0  0  0  0  0
    1.0068    0.8412   -0.1765 H   0  0  0  0  0  0  0  0  0  0  0  0
    0.8821   -0.8361   -0.6792 H   0  0  0  0  0  0  0  0  0  0  0  0
   -0.1059    0.2598    2.0167 H   0  0  0  0  0  0  0  0  0  0  0  0
   -0.2083   -1.4268    1.5042 H   0  0  0  0  0  0  0  0  0  0  0  0
  1  2  1  0
  1  5  1  0
  1  6  1  0
  1  7  1  0
  2  3  1  0
  3  4  2  3
  4  8  1  0
  4  9  1  0
 10 11  1  0
 10 14  1  0
 10 15  1  0
 10 16  1  0
 11 12  1  0
 12 13  1  0
 12 17  1  0
 12 18  1  0
 13 19  1  0
 13 20  1  0
M  RAD  1  13   2
M  END
>  <reaction>  (29) 
rmg_rxn_15707

>  <mol_properties>  (29) 
{"0": {"label": "*1", "atom_type": "Cs"}, "1": {"label": "*0", "atom_type": "O2s"}, "4": {"label": "*2", "atom_type": "H0"}, "11": {"label": "*4", "atom_type": "Cs"}, "12": {"label": "*3", "atom_type": "Cs"}}

>  <type>  (29) 
unop_25

>  <geom_source>  (29) 
gaussian_log

$$$$
