
     RDKit          3D

 15 14  0  0  0  0  0  0  0  0999 V2000
   -2.0554    0.0723   -0.4910 C   0  0  0  0  0  0  0  0  0  0  0  0
   -0.7461   -0.6266   -0.8178 C   0  0  0  0  0  0  0  0  0  0  0  0
    0.3249    0.2591   -1.9782 S   0  0  0  0  0  0  0  0  0  0  0  0
   -0.7172    0.3642   -3.4551 C   0  0  0  0  0  0  0  0  0  0  0  0
   -1.1375   -0.9737   -4.0409 C   0  0  0  0  0  0  0  0  0  0  0  0
   -2.7005    0.1427   -1.3684 H   0  0  0  0  0  0  0  0  0  0  0  0
   -2.6016   -0.4848    0.2733 H   0  0  0  0  0  0  0  0  0  0  0  0
   -1.8758    1.0825   -0.1213 H   0  0  0  0  0  0  0  0  0  0  0  0
   -0.1320   -0.7246    0.0789 H   0  0  0  0  0  0  0  0  0  0  0  0
   -0.9254   -1.6374   -1.1879 H   0  0  0  0  0  0  0  0  0  0  0  0
   -1.5873    0.9874   -3.2422 H   0  0  0  0  0  0  0  0  0  0  0  0
   -0.1021    0.9161   -4.1678 H   0  0  0  0  0  0  0  0  0  0  0  0
   -1.7876   -1.5224   -3.3574 H   0  0  0  0  0  0  0  0  0  0  0  0
   -0.2676   -1.5962   -4.2534 H   0  0  0  0  0  0  0  0  0  0  0  0
   -1.6916   -0.8229   -4.9700 H   0  0  0  0  0  0  0  0  0  0  0  0
  1  2  1  0
  1  6  1  0
  1  7  1  0
  1  8  1  0
  2  3  1  0
  2  9  1  0
  2 10  1  0
  3  4  1  0
  4  5  1  0
  4 11  1  0
  4 12  1  0
  5 13  1  0
  5 14  1  0
  5 15  1  0
M  END
>  <reaction>  (1) 
rmg_rxn_304

>  <mol_properties>  (1) 
{"1": {"label": "donator", "atom_type": "Cs"}, "8": {"label": "d_hydrogen", "atom_type": "H0"}}

>  <type>  (1) 
r1h

$$$$

     RDKit          3D

 11 10  0  0  0  0  0  0  0  0999 V2000
   -1.2230    0.3768   -0.0849 C   0  0  0  0  0  0  0  0  0  0  0  0
   -0.0734   -0.5533    0.2746 C   0  0  0  0  0  0  0  0  0  0  0  0
   -0.0853   -1.8426   -0.5372 C   0  0  0  0  0  0  0  0  0  0  0  0
    0.0319   -1.6944   -1.8815 O   0  0  0  0  0  1  0  0  0  0  0  0
   -2.1874   -0.0885    0.1341 H   0  0  0  0  0  0  0  0  0  0  0  0
   -1.1670    1.3099    0.4765 H   0  0  0  0  0  0  0  0  0  0  0  0
   -1.2014    0.6189   -1.1483 H   0  0  0  0  0  0  0  0  0  0  0  0
    0.8834   -0.0518    0.1071 H   0  0  0  0  0  0  0  0  0  0  0  0
   -0.1104   -0.8149    1.3362 H   0  0  0  0  0  0  0  0  0  0  0  0
    0.6767   -2.5604   -0.1861 H   0  0  0  0  0  0  0  0  0  0  0  0
   -1.0401   -2.3871   -0.3877 H   0  0  0  0  0  0  0  0  0  0  0  0
  1  2  1  0
  1  5  1  0
  1  6  1  0
  1  7  1  0
  2  3  1  0
  2  8  1  0
  2  9  1  0
  3  4  1  0
  3 10  1  0
  3 11  1  0
M  RAD  1   4   2
M  END
>  <reaction>  (2) 
rmg_rxn_304

>  <mol_properties>  (2) 
{"3": {"label": "acceptor", "atom_type": "O2s"}}

>  <type>  (2) 
r2

$$$$

     RDKit          3D

 12 11  0  0  0  0  0  0  0  0999 V2000
   -1.4643   -0.2505   -0.5284 C   0  0  0  0  0  0  0  0  0  0  0  0
   -0.3946    0.4302    0.3143 C   0  0  0  0  0  0  0  0  0  0  0  0
   -0.5959    0.2382    1.8102 C   0  0  0  0  0  0  0  0  0  0  0  0
   -0.5633   -1.1190    2.2092 O   0  0  0  0  0  0  0  0  0  0  0  0
   -2.4511    0.1644   -0.3109 H   0  0  0  0  0  0  0  0  0  0  0  0
   -1.5019   -1.3198   -0.3181 H   0  0  0  0  0  0  0  0  0  0  0  0
   -1.2720   -0.1182   -1.5941 H   0  0  0  0  0  0  0  0  0  0  0  0
    0.5965    0.0515    0.0385 H   0  0  0  0  0  0  0  0  0  0  0  0
   -0.3776    1.5047    0.1078 H   0  0  0  0  0  0  0  0  0  0  0  0
   -1.5821    0.6048    2.1034 H   0  0  0  0  0  0  0  0  0  0  0  0
    0.1495    0.8220    2.3649 H   0  0  0  0  0  0  0  0  0  0  0  0
    0.3017   -1.4750    1.9997 H   0  0  0  0  0  0  0  0  0  0  0  0
  1  2  1  0
  1  5  1  0
  1  6  1  0
  1  7  1  0
  2  3  1  0
  2  8  1  0
  2  9  1  0
  3  4  1  0
  3 10  1  0
  3 11  1  0
  4 12  1  0
M  END
>  <reaction>  (3) 
rmg_rxn_304

>  <mol_properties>  (3) 
{"3": {"label": "acceptor", "atom_type": "O2s"}, "11": {"label": "a_hydrogen", "atom_type": "H0"}}

>  <type>  (3) 
r2h

$$$$

     RDKit          3D

 26 24  0  0  0  0  0  0  0  0999 V2000
   -2.6226   -2.2983   -1.7092 C   0  0  0  0  0  0  0  0  0  0  0  0
   -2.2481   -1.0991   -0.8490 C   0  0  0  0  0  0  0  0  0  0  0  0
   -1.4314   -1.4880    0.3798 C   0  0  0  0  0  0  0  0  0  0  0  0
   -0.2257   -2.0784    0.0468 O   0  0  0  0  0  1  0  0  0  0  0  0
   -3.2213   -3.0134   -1.1396 H   0  0  0  0  0  0  0  0  0  0  0  0
   -3.2031   -1.9954   -2.5821 H   0  0  0  0  0  0  0  0  0  0  0  0
   -1.7272   -2.8152   -2.0570 H   0  0  0  0  0  0  0  0  0  0  0  0
   -1.6718   -0.3823   -1.4411 H   0  0  0  0  0  0  0  0  0  0  0  0
   -3.1507   -0.5807   -0.5107 H   0  0  0  0  0  0  0  0  0  0  0  0
   -1.2359   -0.5753    0.9746 H   0  0  0  0  0  0  0  0  0  0  0  0
   -2.0168   -2.1569    1.0302 H   0  0  0  0  0  0  0  0  0  0  0  0
    2.8025   -0.8489    0.1976 C   0  0  0  0  0  0  0  0  0  0  0  0
    1.6102   -0.6601    1.1107 C   0  0  0  0  0  0  0  0  0  0  0  0
    0.9056    0.9472    1.2965 S   0  0  0  0  0  0  0  0  0  0  0  0
    0.6361    1.4577   -0.4237 C   0  0  0  0  0  0  0  0  0  0  0  0
    1.7527    2.3071   -1.0104 C   0  0  0  0  0  0  0  0  0  0  0  0
    3.6517   -0.2431    0.5210 H   0  0  0  0  0  0  0  0  0  0  0  0
    3.1010   -1.8980    0.2053 H   0  0  0  0  0  0  0  0  0  0  0  0
    2.5611   -0.5868   -0.8327 H   0  0  0  0  0  0  0  0  0  0  0  0
    0.7394   -1.3757    0.6512 H   0  0  0  0  0  0  0  0  0  0  0  0
    1.7878   -1.0347    2.1193 H   0  0  0  0  0  0  0  0  0  0  0  0
    0.4665    0.5495   -1.0043 H   0  0  0  0  0  0  0  0  0  0  0  0
   -0.3027    2.0127   -0.4166 H   0  0  0  0  0  0  0  0  0  0  0  0
    2.6984    1.7661   -1.0292 H   0  0  0  0  0  0  0  0  0  0  0  0
    1.8983    3.2163   -0.4261 H   0  0  0  0  0  0  0  0  0  0  0  0
    1.5041    2.5965   -2.0339 H   0  0  0  0  0  0  0  0  0  0  0  0
  1  2  1  0
  1  5  1  0
  1  6  1  0
  1  7  1  0
  2  3  1  0
  2  8  1  0
  2  9  1  0
  3  4  1  0
  3 10  1  0
  3 11  1  0
 12 13  1  0
 12 17  1  0
 12 18  1  0
 12 19  1  0
 13 14  1  0
 13 20  1  0
 13 21  1  0
 14 15  1  0
 15 16  1  0
 15 22  1  0
 15 23  1  0
 16 24  1  0
 16 25  1  0
 16 26  1  0
M  RAD  1   4   2
M  END
>  <reaction>  (4) 
rmg_rxn_304

>  <mol_properties>  (4) 
{"2": {"label": "*4", "atom_type": "Cs"}, "3": {"label": "*3", "atom_type": "O2s"}, "12": {"label": "*1", "atom_type": "Cs"}, "13": {"label": "*0", "atom_type": "S2s"}, "19": {"label": "*2", "atom_type": "H0"}}

>  <type>  (4) 
ts

$$$$

     RDKit          3D

 26 24  0  0  0  0  0  0  0  0999 V2000
    0.0486   -1.0385    2.1506 C   0  0  0  0  0  0  0  0  0  0  0  0
   -0.2801   -2.2465    1.2843 C   0  0  0  0  0  0  0  0  0  0  0  0
   -1.7304   -2.2798    0.8253 C   0  0  0  0  0  0  0  0  0  0  0  0
   -2.0944   -1.1602    0.0403 O   0  0  0  0  0  0  0  0  0  0  0  0
   -0.5474   -1.0445    3.0661 H   0  0  0  0  0  0  0  0  0  0  0  0
    1.1016   -1.0309    2.4357 H   0  0  0  0  0  0  0  0  0  0  0  0
   -0.1688   -0.1104    1.6211 H   0  0  0  0  0  0  0  0  0  0  0  0
    0.3711   -2.2634    0.4027 H   0  0  0  0  0  0  0  0  0  0  0  0
   -0.0745   -3.1714    1.8317 H   0  0  0  0  0  0  0  0  0  0  0  0
   -1.9287   -3.2129    0.2830 H   0  0  0  0  0  0  0  0  0  0  0  0
   -2.3958   -2.2575    1.6912 H   0  0  0  0  0  0  0  0  0  0  0  0
   -0.0404   -0.1146   -2.3389 C   0  0  0  0  0  0  0  0  0  0  0  0
   -0.0404   -0.1146   -0.8192 C   0  0  0  0  0  3  0  0  0  0  0  0
   -0.0404    1.5265   -0.0543 S   0  0  0  0  0  0  0  0  0  0  0  0
    1.5002    2.2404   -0.6829 C   0  0  0  0  0  0  0  0  0  0  0  0
    2.7611    1.4816   -0.3037 C   0  0  0  0  0  0  0  0  0  0  0  0
    0.8826    0.3090   -2.7383 H   0  0  0  0  0  0  0  0  0  0  0  0
   -0.1230   -1.1358   -2.7176 H   0  0  0  0  0  0  0  0  0  0  0  0
   -0.8761    0.4679   -2.7283 H   0  0  0  0  0  0  0  0  0  0  0  0
   -1.1339   -0.6712   -0.3616 H   0  0  0  0  0  0  0  0  0  0  0  0
    0.7958   -0.6972   -0.4291 H   0  0  0  0  0  0  0  0  0  0  0  0
    1.4290    2.3626   -1.7649 H   0  0  0  0  0  0  0  0  0  0  0  0
    1.5152    3.2436   -0.2536 H   0  0  0  0  0  0  0  0  0  0  0  0
    2.7823    0.4897   -0.7584 H   0  0  0  0  0  0  0  0  0  0  0  0
    2.8317    1.3595    0.7777 H   0  0  0  0  0  0  0  0  0  0  0  0
    3.6458    2.0200   -0.6506 H   0  0  0  0  0  0  0  0  0  0  0  0
  1  2  1  0
  1  5  1  0
  1  6  1  0
  1  7  1  0
  2  3  1  0
  2  8  1  0
  2  9  1  0
  3  4  1  0
  3 10  1  0
  3 11  1  0
  4 20  1  0
 12 13  1  0
 12 17  1  0
 12 18  1  0
 12 19  1  0
 13 14  1  0
 13 21  1  0
 14 15  1  0
 15 16  1  0
 15 22  1  0
 15 23  1  0
 16 24  1  0
 16 25  1  0
 16 26  1  0
M  RAD  1  13   2
M  END
>  <reaction>  (5) 
rmg_rxn_304

>  <mol_properties>  (5) 
{"2": {"label": "*4", "atom_type": "Cs"}, "3": {"label": "*3", "atom_type": "O2s"}, "12": {"label": "*1", "atom_type": "Cs"}, "13": {"label": "*0", "atom_type": "S2s"}, "19": {"label": "*2", "atom_type": "H0"}}

>  <type>  (5) 
unop_1

>  <geom_source>  (5) 
Heuristics

$$$$

     RDKit          3D

 26 24  0  0  0  0  0  0  0  0999 V2000
   -0.3690   -3.4197    0.2764 C   0  0  0  0  0  0  0  0  0  0  0  0
   -1.1343   -2.6351   -0.7803 C   0  0  0  0  0  0  0  0  0  0  0  0
   -2.2745   -1.8075   -0.2055 C   0  0  0  0  0  0  0  0  0  0  0  0
   -1.8443   -0.8351    0.7282 O   0  0  0  0  0  0  0  0  0  0  0  0
   -1.0246   -4.1348    0.7786 H   0  0  0  0  0  0  0  0  0  0  0  0
    0.4583   -3.9763   -0.1662 H   0  0  0  0  0  0  0  0  0  0  0  0
    0.0365   -2.7524    1.0375 H   0  0  0  0  0  0  0  0  0  0  0  0
   -0.4509   -1.9699   -1.3207 H   0  0  0  0  0  0  0  0  0  0  0  0
   -1.5510   -3.3159   -1.5287 H   0  0  0  0  0  0  0  0  0  0  0  0
   -2.8415   -1.3378   -1.0190 H   0  0  0  0  0  0  0  0  0  0  0  0
   -2.9639   -2.4533    0.3428 H   0  0  0  0  0  0  0  0  0  0  0  0
    0.2097    0.2105   -1.6510 C   0  0  0  0  0  0  0  0  0  0  0  0
    0.2097    0.2105   -0.1313 C   0  0  0  0  0  3  0  0  0  0  0  0
    0.2097    1.8516    0.6336 S   0  0  0  0  0  0  0  0  0  0  0  0
    1.7503    2.5655    0.0050 C   0  0  0  0  0  0  0  0  0  0  0  0
    3.0112    1.8066    0.3842 C   0  0  0  0  0  0  0  0  0  0  0  0
    1.1327    0.6340   -2.0505 H   0  0  0  0  0  0  0  0  0  0  0  0
    0.1271   -0.8107   -2.0297 H   0  0  0  0  0  0  0  0  0  0  0  0
   -0.6261    0.7929   -2.0404 H   0  0  0  0  0  0  0  0  0  0  0  0
   -0.8838   -0.3462    0.3262 H   0  0  0  0  0  0  0  0  0  0  0  0
    1.0459   -0.3722    0.2587 H   0  0  0  0  0  0  0  0  0  0  0  0
    1.6791    2.6877   -1.0771 H   0  0  0  0  0  0  0  0  0  0  0  0
    1.7653    3.5687    0.4343 H   0  0  0  0  0  0  0  0  0  0  0  0
    3.0324    0.8148   -0.0705 H   0  0  0  0  0  0  0  0  0  0  0  0
    3.0818    1.6846    1.4656 H   0  0  0  0  0  0  0  0  0  0  0  0
    3.8959    2.3450    0.0373 H   0  0  0  0  0  0  0  0  0  0  0  0
  1  2  1  0
  1  5  1  0
  1  6  1  0
  1  7  1  0
  2  3  1  0
  2  8  1  0
  2  9  1  0
  3  4  1  0
  3 10  1  0
  3 11  1  0
  4 20  1  0
 12 13  1  0
 12 17  1  0
 12 18  1  0
 12 19  1  0
 13 14  1  0
 13 21  1  0
 14 15  1  0
 15 16  1  0
 15 22  1  0
 15 23  1  0
 16 24  1  0
 16 25  1  0
 16 26  1  0
M  RAD  1  13   2
M  END
>  <reaction>  (6) 
rmg_rxn_304

>  <mol_properties>  (6) 
{"2": {"label": "*4", "atom_type": "Cs"}, "3": {"label": "*3", "atom_type": "O2s"}, "12": {"label": "*1", "atom_type": "Cs"}, "13": {"label": "*0", "atom_type": "S2s"}, "19": {"label": "*2", "atom_type": "H0"}}

>  <type>  (6) 
unop_2

>  <geom_source>  (6) 
Heuristics

$$$$

     RDKit          3D

 26 24  0  0  0  0  0  0  0  0999 V2000
   -0.8843    0.0868    2.2496 C   0  0  0  0  0  0  0  0  0  0  0  0
   -0.5427   -1.3580    1.9125 C   0  0  0  0  0  0  0  0  0  0  0  0
   -1.6443   -2.0720    1.1433 C   0  0  0  0  0  0  0  0  0  0  0  0
   -1.9384   -1.4683   -0.1022 O   0  0  0  0  0  0  0  0  0  0  0  0
   -1.7675    0.1368    2.8905 H   0  0  0  0  0  0  0  0  0  0  0  0
   -0.0616    0.5760    2.7731 H   0  0  0  0  0  0  0  0  0  0  0  0
   -1.1002    0.6559    1.3449 H   0  0  0  0  0  0  0  0  0  0  0  0
    0.3821   -1.3968    1.3252 H   0  0  0  0  0  0  0  0  0  0  0  0
   -0.3450   -1.9232    2.8283 H   0  0  0  0  0  0  0  0  0  0  0  0
   -1.3804   -3.1284    1.0079 H   0  0  0  0  0  0  0  0  0  0  0  0
   -2.5769   -2.0385    1.7110 H   0  0  0  0  0  0  0  0  0  0  0  0
    0.1156   -0.4227   -2.4814 C   0  0  0  0  0  0  0  0  0  0  0  0
    0.1156   -0.4227   -0.9617 C   0  0  0  0  0  3  0  0  0  0  0  0
    0.1156    1.2183   -0.1968 S   0  0  0  0  0  0  0  0  0  0  0  0
    1.6562    1.9323   -0.8254 C   0  0  0  0  0  0  0  0  0  0  0  0
    2.9171    1.1734   -0.4462 C   0  0  0  0  0  0  0  0  0  0  0  0
    1.0386    0.0008   -2.8808 H   0  0  0  0  0  0  0  0  0  0  0  0
    0.0330   -1.4439   -2.8601 H   0  0  0  0  0  0  0  0  0  0  0  0
   -0.7201    0.1597   -2.8708 H   0  0  0  0  0  0  0  0  0  0  0  0
   -0.9779   -0.9794   -0.5041 H   0  0  0  0  0  0  0  0  0  0  0  0
    0.9518   -1.0054   -0.5716 H   0  0  0  0  0  0  0  0  0  0  0  0
    1.5850    2.0545   -1.9074 H   0  0  0  0  0  0  0  0  0  0  0  0
    1.6712    2.9354   -0.3961 H   0  0  0  0  0  0  0  0  0  0  0  0
    2.9383    0.1816   -0.9009 H   0  0  0  0  0  0  0  0  0  0  0  0
    2.9878    1.0514    0.6352 H   0  0  0  0  0  0  0  0  0  0  0  0
    3.8018    1.7118   -0.7931 H   0  0  0  0  0  0  0  0  0  0  0  0
  1  2  1  0
  1  5  1  0
  1  6  1  0
  1  7  1  0
  2  3  1  0
  2  8  1  0
  2  9  1  0
  3  4  1  0
  3 10  1  0
  3 11  1  0
  4 20  1  0
 12 13  1  0
 12 17  1  0
 12 18  1  0
 12 19  1  0
 13 14  1  0
 13 21  1  0
 14 15  1  0
 15 16  1  0
 15 22  1  0
 15 23  1  0
 16 24  1  0
 16 25  1  0
 16 26  1  0
M  RAD  1  13   2
M  END
>  <reaction>  (7) 
rmg_rxn_304

>  <mol_properties>  (7) 
{"2": {"label": "*4", "atom_type": "Cs"}, "3": {"label": "*3", "atom_type": "O2s"}, "12": {"label": "*1", "atom_type": "Cs"}, "13": {"label": "*0", "atom_type": "S2s"}, "19": {"label": "*2", "atom_type": "H0"}}

>  <type>  (7) 
unop_3

>  <geom_source>  (7) 
Heuristics

$$$$

     RDKit          3D

 26 24  0  0  0  0  0  0  0  0999 V2000
   -3.4395   -2.5867   -0.7090 C   0  0  0  0  0  0  0  0  0  0  0  0
   -2.9080   -1.1750   -0.9149 C   0  0  0  0  0  0  0  0  0  0  0  0
   -2.2787   -0.5815    0.3369 C   0  0  0  0  0  0  0  0  0  0  0  0
   -1.1695   -1.3217    0.8100 O   0  0  0  0  0  0  0  0  0  0  0  0
   -4.2277   -2.5975    0.0474 H   0  0  0  0  0  0  0  0  0  0  0  0
   -3.8553   -2.9916   -1.6327 H   0  0  0  0  0  0  0  0  0  0  0  0
   -2.6469   -3.2542   -0.3695 H   0  0  0  0  0  0  0  0  0  0  0  0
   -2.1661   -1.1683   -1.7219 H   0  0  0  0  0  0  0  0  0  0  0  0
   -3.7151   -0.5107   -1.2385 H   0  0  0  0  0  0  0  0  0  0  0  0
   -1.9965    0.4629    0.1532 H   0  0  0  0  0  0  0  0  0  0  0  0
   -3.0023   -0.5852    1.1551 H   0  0  0  0  0  0  0  0  0  0  0  0
    0.8845   -0.2761   -1.5692 C   0  0  0  0  0  0  0  0  0  0  0  0
    0.8845   -0.2761   -0.0495 C   0  0  0  0  0  3  0  0  0  0  0  0
    0.8845    1.3650    0.7154 S   0  0  0  0  0  0  0  0  0  0  0  0
    2.4250    2.0789    0.0868 C   0  0  0  0  0  0  0  0  0  0  0  0
    3.6860    1.3201    0.4660 C   0  0  0  0  0  0  0  0  0  0  0  0
    1.8075    0.1475   -1.9686 H   0  0  0  0  0  0  0  0  0  0  0  0
    0.8019   -1.2972   -1.9479 H   0  0  0  0  0  0  0  0  0  0  0  0
    0.0487    0.3064   -1.9586 H   0  0  0  0  0  0  0  0  0  0  0  0
   -0.2090   -0.8327    0.4081 H   0  0  0  0  0  0  0  0  0  0  0  0
    1.7207   -0.8587    0.3406 H   0  0  0  0  0  0  0  0  0  0  0  0
    2.3539    2.2012   -0.9952 H   0  0  0  0  0  0  0  0  0  0  0  0
    2.4401    3.0821    0.5161 H   0  0  0  0  0  0  0  0  0  0  0  0
    3.7072    0.3282    0.0113 H   0  0  0  0  0  0  0  0  0  0  0  0
    3.7566    1.1980    1.5474 H   0  0  0  0  0  0  0  0  0  0  0  0
    4.5707    1.8585    0.1191 H   0  0  0  0  0  0  0  0  0  0  0  0
  1  2  1  0
  1  5  1  0
  1  6  1  0
  1  7  1  0
  2  3  1  0
  2  8  1  0
  2  9  1  0
  3  4  1  0
  3 10  1  0
  3 11  1  0
  4 20  1  0
 12 13  1  0
 12 17  1  0
 12 18  1  0
 12 19  1  0
 13 14  1  0
 13 21  1  0
 14 15  1  0
 15 16  1  0
 15 22  1  0
 15 23  1  0
 16 24  1  0
 16 25  1  0
 16 26  1  0
M  RAD  1  13   2
M  END
>  <reaction>  (8) 
rmg_rxn_304

>  <mol_properties>  (8) 
{"2": {"label": "*4", "atom_type": "Cs"}, "3": {"label": "*3", "atom_type": "O2s"}, "12": {"label": "*1", "atom_type": "Cs"}, "13": {"label": "*0", "atom_type": "S2s"}, "19": {"label": "*2", "atom_type": "H0"}}

>  <type>  (8) 
unop_4

>  <geom_source>  (8) 
Heuristics

$$$$

     RDKit          3D

 26 24  0  0  0  0  0  0  0  0999 V2000
   -2.6925    0.5456    1.5819 C   0  0  0  0  0  0  0  0  0  0  0  0
   -1.4781   -0.2967    1.9476 C   0  0  0  0  0  0  0  0  0  0  0  0
   -1.5270   -1.7037    1.3705 C   0  0  0  0  0  0  0  0  0  0  0  0
   -1.5724   -1.7268   -0.0436 O   0  0  0  0  0  0  0  0  0  0  0  0
   -3.6073    0.0990    1.9782 H   0  0  0  0  0  0  0  0  0  0  0  0
   -2.6098    1.5555    1.9861 H   0  0  0  0  0  0  0  0  0  0  0  0
   -2.8027    0.6185    0.4996 H   0  0  0  0  0  0  0  0  0  0  0  0
   -0.5624    0.1967    1.6017 H   0  0  0  0  0  0  0  0  0  0  0  0
   -1.3876   -0.3773    3.0351 H   0  0  0  0  0  0  0  0  0  0  0  0
   -0.6746   -2.2880    1.7393 H   0  0  0  0  0  0  0  0  0  0  0  0
   -2.4371   -2.2100    1.6998 H   0  0  0  0  0  0  0  0  0  0  0  0
    0.4815   -0.6812   -2.4228 C   0  0  0  0  0  0  0  0  0  0  0  0
    0.4815   -0.6812   -0.9031 C   0  0  0  0  0  3  0  0  0  0  0  0
    0.4815    0.9599   -0.1382 S   0  0  0  0  0  0  0  0  0  0  0  0
    2.0221    1.6738   -0.7668 C   0  0  0  0  0  0  0  0  0  0  0  0
    3.2830    0.9149   -0.3876 C   0  0  0  0  0  0  0  0  0  0  0  0
    1.4045   -0.2577   -2.8222 H   0  0  0  0  0  0  0  0  0  0  0  0
    0.3990   -1.7024   -2.8015 H   0  0  0  0  0  0  0  0  0  0  0  0
   -0.3542   -0.0988   -2.8122 H   0  0  0  0  0  0  0  0  0  0  0  0
   -0.6119   -1.2379   -0.4455 H   0  0  0  0  0  0  0  0  0  0  0  0
    1.3177   -1.2639   -0.5130 H   0  0  0  0  0  0  0  0  0  0  0  0
    1.9510    1.7960   -1.8488 H   0  0  0  0  0  0  0  0  0  0  0  0
    2.0372    2.6770   -0.3375 H   0  0  0  0  0  0  0  0  0  0  0  0
    3.3042   -0.0769   -0.8422 H   0  0  0  0  0  0  0  0  0  0  0  0
    3.3537    0.7929    0.6938 H   0  0  0  0  0  0  0  0  0  0  0  0
    4.1678    1.4533   -0.7345 H   0  0  0  0  0  0  0  0  0  0  0  0
  1  2  1  0
  1  5  1  0
  1  6  1  0
  1  7  1  0
  2  3  1  0
  2  8  1  0
  2  9  1  0
  3  4  1  0
  3 10  1  0
  3 11  1  0
  4 20  1  0
 12 13  1  0
 12 17  1  0
 12 18  1  0
 12 19  1  0
 13 14  1  0
 13 21  1  0
 14 15  1  0
 15 16  1  0
 15 22  1  0
 15 23  1  0
 16 24  1  0
 16 25  1  0
 16 26  1  0
M  RAD  1  13   2
M  END
>  <reaction>  (9) 
rmg_rxn_304

>  <mol_properties>  (9) 
{"2": {"label": "*4", "atom_type": "Cs"}, "3": {"label": "*3", "atom_type": "O2s"}, "12": {"label": "*1", "atom_type": "Cs"}, "13": {"label": "*0", "atom_type": "S2s"}, "19": {"label": "*2", "atom_type": "H0"}}

>  <type>  (9) 
unop_5

>  <geom_source>  (9) 
Heuristics

$$$$

     RDKit          3D

 26 24  0  0  0  0  0  0  0  0999 V2000
   -3.9250   -1.8427   -0.3622 C   0  0  0  0  0  0  0  0  0  0  0  0
   -3.1421   -0.5378   -0.3139 C   0  0  0  0  0  0  0  0  0  0  0  0
   -2.0792   -0.5150    0.7746 C   0  0  0  0  0  0  0  0  0  0  0  0
   -1.0974   -1.5219    0.6186 O   0  0  0  0  0  0  0  0  0  0  0  0
   -4.4626   -2.0070    0.5745 H   0  0  0  0  0  0  0  0  0  0  0  0
   -4.6560   -1.8356   -1.1719 H   0  0  0  0  0  0  0  0  0  0  0  0
   -3.2566   -2.6910   -0.5126 H   0  0  0  0  0  0  0  0  0  0  0  0
   -2.6622   -0.3531   -1.2819 H   0  0  0  0  0  0  0  0  0  0  0  0
   -3.8206    0.3040   -0.1455 H   0  0  0  0  0  0  0  0  0  0  0  0
   -1.6119    0.4768    0.8189 H   0  0  0  0  0  0  0  0  0  0  0  0
   -2.5383   -0.7035    1.7476 H   0  0  0  0  0  0  0  0  0  0  0  0
    0.9566   -0.4763   -1.7606 C   0  0  0  0  0  0  0  0  0  0  0  0
    0.9566   -0.4763   -0.2408 C   0  0  0  0  0  3  0  0  0  0  0  0
    0.9566    1.1647    0.5241 S   0  0  0  0  0  0  0  0  0  0  0  0
    2.4972    1.8787   -0.1045 C   0  0  0  0  0  0  0  0  0  0  0  0
    3.7581    1.1198    0.2747 C   0  0  0  0  0  0  0  0  0  0  0  0
    1.8796   -0.0528   -2.1600 H   0  0  0  0  0  0  0  0  0  0  0  0
    0.8740   -1.4975   -2.1392 H   0  0  0  0  0  0  0  0  0  0  0  0
    0.1209    0.1061   -2.1500 H   0  0  0  0  0  0  0  0  0  0  0  0
   -0.1368   -1.0330    0.2167 H   0  0  0  0  0  0  0  0  0  0  0  0
    1.7928   -1.0590    0.1492 H   0  0  0  0  0  0  0  0  0  0  0  0
    2.4260    2.0009   -1.1866 H   0  0  0  0  0  0  0  0  0  0  0  0
    2.5123    2.8818    0.3247 H   0  0  0  0  0  0  0  0  0  0  0  0
    3.7793    0.1280   -0.1800 H   0  0  0  0  0  0  0  0  0  0  0  0
    3.8288    0.9978    1.3561 H   0  0  0  0  0  0  0  0  0  0  0  0
    4.6429    1.6582   -0.0722 H   0  0  0  0  0  0  0  0  0  0  0  0
  1  2  1  0
  1  5  1  0
  1  6  1  0
  1  7  1  0
  2  3  1  0
  2  8  1  0
  2  9  1  0
  3  4  1  0
  3 10  1  0
  3 11  1  0
  4 20  1  0
 12 13  1  0
 12 17  1  0
 12 18  1  0
 12 19  1  0
 13 14  1  0
 13 21  1  0
 14 15  1  0
 15 16  1  0
 15 22  1  0
 15 23  1  0
 16 24  1  0
 16 25  1  0
 16 26  1  0
M  RAD  1  13   2
M  END
>  <reaction>  (10) 
rmg_rxn_304

>  <mol_properties>  (10) 
{"2": {"label": "*4", "atom_type": "Cs"}, "3": {"label": "*3", "atom_type": "O2s"}, "12": {"label": "*1", "atom_type": "Cs"}, "13": {"label": "*0", "atom_type": "S2s"}, "19": {"label": "*2", "atom_type": "H0"}}

>  <type>  (10) 
unop_6

>  <geom_source>  (10) 
Heuristics

$$$$

     RDKit          3D

 26 24  0  0  0  0  0  0  0  0999 V2000
   -4.0832   -1.1581    0.1179 C   0  0  0  0  0  0  0  0  0  0  0  0
   -3.0357   -0.1125    0.4750 C   0  0  0  0  0  0  0  0  0  0  0  0
   -1.8172   -0.6973    1.1738 C   0  0  0  0  0  0  0  0  0  0  0  0
   -1.1260   -1.6503    0.3888 O   0  0  0  0  0  0  0  0  0  0  0  0
   -4.4677   -1.6443    1.0174 H   0  0  0  0  0  0  0  0  0  0  0  0
   -4.9271   -0.7091   -0.4077 H   0  0  0  0  0  0  0  0  0  0  0  0
   -3.6565   -1.9330   -0.5197 H   0  0  0  0  0  0  0  0  0  0  0  0
   -2.7075    0.4128   -0.4294 H   0  0  0  0  0  0  0  0  0  0  0  0
   -3.4702    0.6500    1.1285 H   0  0  0  0  0  0  0  0  0  0  0  0
   -1.1421    0.1101    1.4845 H   0  0  0  0  0  0  0  0  0  0  0  0
   -2.1253   -1.2307    2.0758 H   0  0  0  0  0  0  0  0  0  0  0  0
    0.9279   -0.6047   -1.9904 C   0  0  0  0  0  0  0  0  0  0  0  0
    0.9279   -0.6047   -0.4707 C   0  0  0  0  0  3  0  0  0  0  0  0
    0.9279    1.0363    0.2942 S   0  0  0  0  0  0  0  0  0  0  0  0
    2.4685    1.7503   -0.3344 C   0  0  0  0  0  0  0  0  0  0  0  0
    3.7295    0.9914    0.0448 C   0  0  0  0  0  0  0  0  0  0  0  0
    1.8510   -0.1812   -2.3898 H   0  0  0  0  0  0  0  0  0  0  0  0
    0.8454   -1.6259   -2.3691 H   0  0  0  0  0  0  0  0  0  0  0  0
    0.0922   -0.0223   -2.3798 H   0  0  0  0  0  0  0  0  0  0  0  0
   -0.1655   -1.1614   -0.0131 H   0  0  0  0  0  0  0  0  0  0  0  0
    1.7641   -1.1874   -0.0806 H   0  0  0  0  0  0  0  0  0  0  0  0
    2.3974    1.8725   -1.4164 H   0  0  0  0  0  0  0  0  0  0  0  0
    2.4836    2.7534    0.0949 H   0  0  0  0  0  0  0  0  0  0  0  0
    3.7507   -0.0004   -0.4098 H   0  0  0  0  0  0  0  0  0  0  0  0
    3.8001    0.8694    1.1263 H   0  0  0  0  0  0  0  0  0  0  0  0
    4.6142    1.5298   -0.3021 H   0  0  0  0  0  0  0  0  0  0  0  0
  1  2  1  0
  1  5  1  0
  1  6  1  0
  1  7  1  0
  2  3  1  0
  2  8  1  0
  2  9  1  0
  3  4  1  0
  3 10  1  0
  3 11  1  0
  4 20  1  0
 12 13  1  0
 12 17  1  0
 12 18  1  0
 12 19  1  0
 13 14  1  0
 13 21  1  0
 14 15  1  0
 15 16  1  0
 15 22  1  0
 15 23  1  0
 16 24  1  0
 16 25  1  0
 16 26  1  0
M  RAD  1  13   2
M  END
>  <reaction>  (11) 
rmg_rxn_304

>  <mol_properties>  (11) 
{"2": {"label": "*4", "atom_type": "Cs"}, "3": {"label": "*3", "atom_type": "O2s"}, "12": {"label": "*1", "atom_type": "Cs"}, "13": {"label": "*0", "atom_type": "S2s"}, "19": {"label": "*2", "atom_type": "H0"}}

>  <type>  (11) 
unop_7

>  <geom_source>  (11) 
Heuristics

$$$$

     RDKit          3D

 26 24  0  0  0  0  0  0  0  0999 V2000
    0.3392   -2.0373    1.6571 C   0  0  0  0  0  0  0  0  0  0  0  0
   -0.3876   -2.6913    0.4901 C   0  0  0  0  0  0  0  0  0  0  0  0
   -1.8660   -2.3367    0.4284 C   0  0  0  0  0  0  0  0  0  0  0  0
   -2.1025   -0.9503    0.2724 O   0  0  0  0  0  0  0  0  0  0  0  0
   -0.0806   -2.3685    2.6097 H   0  0  0  0  0  0  0  0  0  0  0  0
    1.4008   -2.2884    1.6528 H   0  0  0  0  0  0  0  0  0  0  0  0
    0.2446   -0.9518    1.6141 H   0  0  0  0  0  0  0  0  0  0  0  0
    0.0860   -2.4022   -0.4553 H   0  0  0  0  0  0  0  0  0  0  0  0
   -0.3006   -3.7802    0.5531 H   0  0  0  0  0  0  0  0  0  0  0  0
   -2.3525   -2.9044   -0.3747 H   0  0  0  0  0  0  0  0  0  0  0  0
   -2.3546   -2.6122    1.3656 H   0  0  0  0  0  0  0  0  0  0  0  0
   -0.0485    0.0953   -2.1068 C   0  0  0  0  0  0  0  0  0  0  0  0
   -0.0485    0.0953   -0.5871 C   0  0  0  0  0  3  0  0  0  0  0  0
   -0.0485    1.7364    0.1778 S   0  0  0  0  0  0  0  0  0  0  0  0
    1.4921    2.4503   -0.4508 C   0  0  0  0  0  0  0  0  0  0  0  0
    2.7530    1.6914   -0.0715 C   0  0  0  0  0  0  0  0  0  0  0  0
    0.8745    0.5188   -2.5062 H   0  0  0  0  0  0  0  0  0  0  0  0
   -0.1311   -0.9259   -2.4855 H   0  0  0  0  0  0  0  0  0  0  0  0
   -0.8842    0.6777   -2.4962 H   0  0  0  0  0  0  0  0  0  0  0  0
   -1.1420   -0.4614   -0.1295 H   0  0  0  0  0  0  0  0  0  0  0  0
    0.7877   -0.4874   -0.1970 H   0  0  0  0  0  0  0  0  0  0  0  0
    1.4209    2.5725   -1.5328 H   0  0  0  0  0  0  0  0  0  0  0  0
    1.5071    3.4535   -0.0215 H   0  0  0  0  0  0  0  0  0  0  0  0
    2.7742    0.6996   -0.5262 H   0  0  0  0  0  0  0  0  0  0  0  0
    2.8237    1.5694    1.0099 H   0  0  0  0  0  0  0  0  0  0  0  0
    3.6377    2.2298   -0.4185 H   0  0  0  0  0  0  0  0  0  0  0  0
  1  2  1  0
  1  5  1  0
  1  6  1  0
  1  7  1  0
  2  3  1  0
  2  8  1  0
  2  9  1  0
  3  4  1  0
  3 10  1  0
  3 11  1  0
  4 20  1  0
 12 13  1  0
 12 17  1  0
 12 18  1  0
 12 19  1  0
 13 14  1  0
 13 21  1  0
 14 15  1  0
 15 16  1  0
 15 22  1  0
 15 23  1  0
 16 24  1  0
 16 25  1  0
 16 26  1  0
M  RAD  1  13   2
M  END
>  <reaction>  (12) 
rmg_rxn_304

>  <mol_properties>  (12) 
{"2": {"label": "*4", "atom_type": "Cs"}, "3": {"label": "*3", "atom_type": "O2s"}, "12": {"label": "*1", "atom_type": "Cs"}, "13": {"label": "*0", "atom_type": "S2s"}, "19": {"label": "*2", "atom_type": "H0"}}

>  <type>  (12) 
unop_8

>  <geom_source>  (12) 
Heuristics

$$$$

     RDKit          3D

 26 24  0  0  0  0  0  0  0  0999 V2000
   -2.5523   -3.2976   -0.7520 C   0  0  0  0  0  0  0  0  0  0  0  0
   -2.3786   -1.8498   -1.1897 C   0  0  0  0  0  0  0  0  0  0  0  0
   -2.3901   -0.8659   -0.0291 C   0  0  0  0  0  0  0  0  0  0  0  0
   -1.3507   -1.0902    0.9045 O   0  0  0  0  0  0  0  0  0  0  0  0
   -3.5161   -3.4401   -0.2579 H   0  0  0  0  0  0  0  0  0  0  0  0
   -2.5087   -3.9767   -1.6048 H   0  0  0  0  0  0  0  0  0  0  0  0
   -1.7732   -3.5857   -0.0456 H   0  0  0  0  0  0  0  0  0  0  0  0
   -1.4384   -1.7359   -1.7417 H   0  0  0  0  0  0  0  0  0  0  0  0
   -3.1752   -1.5668   -1.8845 H   0  0  0  0  0  0  0  0  0  0  0  0
   -2.3512    0.1620   -0.4112 H   0  0  0  0  0  0  0  0  0  0  0  0
   -3.3182   -0.9690    0.5374 H   0  0  0  0  0  0  0  0  0  0  0  0
    0.7032   -0.0446   -1.4747 C   0  0  0  0  0  0  0  0  0  0  0  0
    0.7032   -0.0446    0.0450 C   0  0  0  0  0  3  0  0  0  0  0  0
    0.7032    1.5965    0.8099 S   0  0  0  0  0  0  0  0  0  0  0  0
    2.2438    2.3104    0.1813 C   0  0  0  0  0  0  0  0  0  0  0  0
    3.5047    1.5515    0.5605 C   0  0  0  0  0  0  0  0  0  0  0  0
    1.6262    0.3790   -1.8741 H   0  0  0  0  0  0  0  0  0  0  0  0
    0.6207   -1.0658   -1.8534 H   0  0  0  0  0  0  0  0  0  0  0  0
   -0.1325    0.5379   -1.8641 H   0  0  0  0  0  0  0  0  0  0  0  0
   -0.3902   -0.6012    0.5026 H   0  0  0  0  0  0  0  0  0  0  0  0
    1.5394   -0.6273    0.4351 H   0  0  0  0  0  0  0  0  0  0  0  0
    2.1727    2.4326   -0.9007 H   0  0  0  0  0  0  0  0  0  0  0  0
    2.2589    3.3136    0.6106 H   0  0  0  0  0  0  0  0  0  0  0  0
    3.5259    0.5597    0.1058 H   0  0  0  0  0  0  0  0  0  0  0  0
    3.5754    1.4295    1.6419 H   0  0  0  0  0  0  0  0  0  0  0  0
    4.3895    2.0899    0.2136 H   0  0  0  0  0  0  0  0  0  0  0  0
  1  2  1  0
  1  5  1  0
  1  6  1  0
  1  7  1  0
  2  3  1  0
  2  8  1  0
  2  9  1  0
  3  4  1  0
  3 10  1  0
  3 11  1  0
  4 20  1  0
 12 13  1  0
 12 17  1  0
 12 18  1  0
 12 19  1  0
 13 14  1  0
 13 21  1  0
 14 15  1  0
 15 16  1  0
 15 22  1  0
 15 23  1  0
 16 24  1  0
 16 25  1  0
 16 26  1  0
M  RAD  1  13   2
M  END
>  <reaction>  (13) 
rmg_rxn_304

>  <mol_properties>  (13) 
{"2": {"label": "*4", "atom_type": "Cs"}, "3": {"label": "*3", "atom_type": "O2s"}, "12": {"label": "*1", "atom_type": "Cs"}, "13": {"label": "*0", "atom_type": "S2s"}, "19": {"label": "*2", "atom_type": "H0"}}

>  <type>  (13) 
unop_9

>  <geom_source>  (13) 
Heuristics

$$$$

     RDKit          3D

 26 24  0  0  0  0  0  0  0  0999 V2000
    0.1988   -2.8330    0.9942 C   0  0  0  0  0  0  0  0  0  0  0  0
   -0.6952   -2.7745   -0.2368 C   0  0  0  0  0  0  0  0  0  0  0  0
   -2.0672   -2.1801    0.0448 C   0  0  0  0  0  0  0  0  0  0  0  0
   -2.0131   -0.8477    0.5180 O   0  0  0  0  0  0  0  0  0  0  0  0
   -0.2430   -3.4700    1.7639 H   0  0  0  0  0  0  0  0  0  0  0  0
    1.1828   -3.2355    0.7497 H   0  0  0  0  0  0  0  0  0  0  0  0
    0.3328   -1.8400    1.4242 H   0  0  0  0  0  0  0  0  0  0  0  0
   -0.2094   -2.1871   -1.0247 H   0  0  0  0  0  0  0  0  0  0  0  0
   -0.8366   -3.7781   -0.6494 H   0  0  0  0  0  0  0  0  0  0  0  0
   -2.6939   -2.2460   -0.8535 H   0  0  0  0  0  0  0  0  0  0  0  0
   -2.5651   -2.7494    0.8329 H   0  0  0  0  0  0  0  0  0  0  0  0
    0.0409    0.1979   -1.8612 C   0  0  0  0  0  0  0  0  0  0  0  0
    0.0409    0.1979   -0.3415 C   0  0  0  0  0  3  0  0  0  0  0  0
    0.0409    1.8390    0.4234 S   0  0  0  0  0  0  0  0  0  0  0  0
    1.5815    2.5529   -0.2052 C   0  0  0  0  0  0  0  0  0  0  0  0
    2.8424    1.7941    0.1740 C   0  0  0  0  0  0  0  0  0  0  0  0
    0.9639    0.6215   -2.2606 H   0  0  0  0  0  0  0  0  0  0  0  0
   -0.0417   -0.8233   -2.2399 H   0  0  0  0  0  0  0  0  0  0  0  0
   -0.7948    0.7804   -2.2506 H   0  0  0  0  0  0  0  0  0  0  0  0
   -1.0526   -0.3587    0.1161 H   0  0  0  0  0  0  0  0  0  0  0  0
    0.8771   -0.3847    0.0485 H   0  0  0  0  0  0  0  0  0  0  0  0
    1.5103    2.6751   -1.2872 H   0  0  0  0  0  0  0  0  0  0  0  0
    1.5965    3.5561    0.2241 H   0  0  0  0  0  0  0  0  0  0  0  0
    2.8636    0.8022   -0.2807 H   0  0  0  0  0  0  0  0  0  0  0  0
    2.9131    1.6720    1.2554 H   0  0  0  0  0  0  0  0  0  0  0  0
    3.7271    2.3325   -0.1729 H   0  0  0  0  0  0  0  0  0  0  0  0
  1  2  1  0
  1  5  1  0
  1  6  1  0
  1  7  1  0
  2  3  1  0
  2  8  1  0
  2  9  1  0
  3  4  1  0
  3 10  1  0
  3 11  1  0
  4 20  1  0
 12 13  1  0
 12 17  1  0
 12 18  1  0
 12 19  1  0
 13 14  1  0
 13 21  1  0
 14 15  1  0
 15 16  1  0
 15 22  1  0
 15 23  1  0
 16 24  1  0
 16 25  1  0
 16 26  1  0
M  RAD  1  13   2
M  END
>  <reaction>  (14) 
rmg_rxn_304

>  <mol_properties>  (14) 
{"2": {"label": "*4", "atom_type": "Cs"}, "3": {"label": "*3", "atom_type": "O2s"}, "12": {"label": "*1", "atom_type": "Cs"}, "13": {"label": "*0", "atom_type": "S2s"}, "19": {"label": "*2", "atom_type": "H0"}}

>  <type>  (14) 
unop_10

>  <geom_source>  (14) 
Heuristics

$$$$

     RDKit          3D

 26 24  0  0  0  0  0  0  0  0999 V2000
   -3.8791   -0.3447    0.6911 C   0  0  0  0  0  0  0  0  0  0  0  0
   -2.5342    0.0402    1.2920 C   0  0  0  0  0  0  0  0  0  0  0  0
   -1.5716   -1.1322    1.4105 C   0  0  0  0  0  0  0  0  0  0  0  0
   -1.2565   -1.7252    0.1650 O   0  0  0  0  0  0  0  0  0  0  0  0
   -4.3886   -1.0786    1.3198 H   0  0  0  0  0  0  0  0  0  0  0  0
   -4.5317    0.5239    0.5930 H   0  0  0  0  0  0  0  0  0  0  0  0
   -3.7502   -0.7887   -0.2965 H   0  0  0  0  0  0  0  0  0  0  0  0
   -2.0647    0.8246    0.6872 H   0  0  0  0  0  0  0  0  0  0  0  0
   -2.6744    0.4683    2.2892 H   0  0  0  0  0  0  0  0  0  0  0  0
   -0.6584   -0.8141    1.9291 H   0  0  0  0  0  0  0  0  0  0  0  0
   -2.0251   -1.9278    2.0058 H   0  0  0  0  0  0  0  0  0  0  0  0
    0.7975   -0.6796   -2.2142 C   0  0  0  0  0  0  0  0  0  0  0  0
    0.7975   -0.6796   -0.6945 C   0  0  0  0  0  3  0  0  0  0  0  0
    0.7975    0.9615    0.0704 S   0  0  0  0  0  0  0  0  0  0  0  0
    2.3381    1.6754   -0.5582 C   0  0  0  0  0  0  0  0  0  0  0  0
    3.5990    0.9166   -0.1790 C   0  0  0  0  0  0  0  0  0  0  0  0
    1.7205   -0.2560   -2.6136 H   0  0  0  0  0  0  0  0  0  0  0  0
    0.7149   -1.7008   -2.5929 H   0  0  0  0  0  0  0  0  0  0  0  0
   -0.0382   -0.0971   -2.6036 H   0  0  0  0  0  0  0  0  0  0  0  0
   -0.2960   -1.2362   -0.2369 H   0  0  0  0  0  0  0  0  0  0  0  0
    1.6337   -1.2622   -0.3044 H   0  0  0  0  0  0  0  0  0  0  0  0
    2.2669    1.7976   -1.6402 H   0  0  0  0  0  0  0  0  0  0  0  0
    2.3531    2.6786   -0.1289 H   0  0  0  0  0  0  0  0  0  0  0  0
    3.6202   -0.0753   -0.6336 H   0  0  0  0  0  0  0  0  0  0  0  0
    3.6697    0.7945    0.9024 H   0  0  0  0  0  0  0  0  0  0  0  0
    4.4837    1.4550   -0.5259 H   0  0  0  0  0  0  0  0  0  0  0  0
  1  2  1  0
  1  5  1  0
  1  6  1  0
  1  7  1  0
  2  3  1  0
  2  8  1  0
  2  9  1  0
  3  4  1  0
  3 10  1  0
  3 11  1  0
  4 20  1  0
 12 13  1  0
 12 17  1  0
 12 18  1  0
 12 19  1  0
 13 14  1  0
 13 21  1  0
 14 15  1  0
 15 16  1  0
 15 22  1  0
 15 23  1  0
 16 24  1  0
 16 25  1  0
 16 26  1  0
M  RAD  1  13   2
M  END
>  <reaction>  (15) 
rmg_rxn_304

>  <mol_properties>  (15) 
{"2": {"label": "*4", "atom_type": "Cs"}, "3": {"label": "*3", "atom_type": "O2s"}, "12": {"label": "*1", "atom_type": "Cs"}, "13": {"label": "*0", "atom_type": "S2s"}, "19": {"label": "*2", "atom_type": "H0"}}

>  <type>  (15) 
unop_11

>  <geom_source>  (15) 
Heuristics

$$$$

     RDKit          3D

 26 24  0  0  0  0  0  0  0  0999 V2000
   -1.3825   -3.6406   -0.3799 C   0  0  0  0  0  0  0  0  0  0  0  0
   -1.7147   -2.3493   -1.1148 C   0  0  0  0  0  0  0  0  0  0  0  0
   -2.3960   -1.3140   -0.2321 C   0  0  0  0  0  0  0  0  0  0  0  0
   -1.6052   -0.9114    0.8701 O   0  0  0  0  0  0  0  0  0  0  0  0
   -2.2916   -4.1225   -0.0130 H   0  0  0  0  0  0  0  0  0  0  0  0
   -0.8687   -4.3468   -1.0336 H   0  0  0  0  0  0  0  0  0  0  0  0
   -0.7426   -3.4438    0.4808 H   0  0  0  0  0  0  0  0  0  0  0  0
   -0.8013   -1.9116   -1.5341 H   0  0  0  0  0  0  0  0  0  0  0  0
   -2.3707   -2.5566   -1.9656 H   0  0  0  0  0  0  0  0  0  0  0  0
   -2.6897   -0.4453   -0.8347 H   0  0  0  0  0  0  0  0  0  0  0  0
   -3.3065   -1.7345    0.2004 H   0  0  0  0  0  0  0  0  0  0  0  0
    0.4488    0.1342   -1.5091 C   0  0  0  0  0  0  0  0  0  0  0  0
    0.4488    0.1342    0.0107 C   0  0  0  0  0  3  0  0  0  0  0  0
    0.4488    1.7753    0.7756 S   0  0  0  0  0  0  0  0  0  0  0  0
    1.9893    2.4892    0.1470 C   0  0  0  0  0  0  0  0  0  0  0  0
    3.2503    1.7303    0.5262 C   0  0  0  0  0  0  0  0  0  0  0  0
    1.3718    0.5578   -1.9085 H   0  0  0  0  0  0  0  0  0  0  0  0
    0.3662   -0.8870   -1.8877 H   0  0  0  0  0  0  0  0  0  0  0  0
   -0.3870    0.7166   -1.8985 H   0  0  0  0  0  0  0  0  0  0  0  0
   -0.6447   -0.4224    0.4682 H   0  0  0  0  0  0  0  0  0  0  0  0
    1.2850   -0.4485    0.4007 H   0  0  0  0  0  0  0  0  0  0  0  0
    1.9182    2.6114   -0.9351 H   0  0  0  0  0  0  0  0  0  0  0  0
    2.0044    3.4924    0.5762 H   0  0  0  0  0  0  0  0  0  0  0  0
    3.2715    0.7385    0.0715 H   0  0  0  0  0  0  0  0  0  0  0  0
    3.3209    1.6083    1.6076 H   0  0  0  0  0  0  0  0  0  0  0  0
    4.1350    2.2687    0.1792 H   0  0  0  0  0  0  0  0  0  0  0  0
  1  2  1  0
  1  5  1  0
  1  6  1  0
  1  7  1  0
  2  3  1  0
  2  8  1  0
  2  9  1  0
  3  4  1  0
  3 10  1  0
  3 11  1  0
  4 20  1  0
 12 13  1  0
 12 17  1  0
 12 18  1  0
 12 19  1  0
 13 14  1  0
 13 21  1  0
 14 15  1  0
 15 16  1  0
 15 22  1  0
 15 23  1  0
 16 24  1  0
 16 25  1  0
 16 26  1  0
M  RAD  1  13   2
M  END
>  <reaction>  (16) 
rmg_rxn_304

>  <mol_properties>  (16) 
{"2": {"label": "*4", "atom_type": "Cs"}, "3": {"label": "*3", "atom_type": "O2s"}, "12": {"label": "*1", "atom_type": "Cs"}, "13": {"label": "*0", "atom_type": "S2s"}, "19": {"label": "*2", "atom_type": "H0"}}

>  <type>  (16) 
unop_12

>  <geom_source>  (16) 
Heuristics

$$$$

     RDKit          3D

 26 24  0  0  0  0  0  0  0  0999 V2000
    1.5237   -0.3845    0.4185 S   0  0  0  0  0  0  0  0  0  0  0  0
   -1.6717    0.1396   -0.6994 O   0  0  0  0  0  0  0  0  0  0  0  0
   -3.5061   -0.1030    0.8335 C   0  0  0  0  0  0  0  0  0  0  0  0
   -2.0736   -0.5016    0.4774 C   0  0  0  0  0  0  0  0  0  0  0  0
    3.2004    0.1674   -0.0490 C   0  0  0  0  0  0  0  0  0  0  0  0
   -3.6153    1.3814    1.1755 C   0  0  0  0  0  0  0  0  0  0  0  0
    4.1879   -0.1900    1.0513 C   0  0  0  0  0  0  0  0  0  0  0  0
    0.7604   -0.8470   -2.2054 C   0  0  0  0  0  0  0  0  0  0  0  0
    0.7041    0.2019   -1.1056 C   0  0  0  0  0  3  0  0  0  0  0  0
   -4.1801   -0.3364   -0.0192 H   0  0  0  0  0  0  0  0  0  0  0  0
   -3.8395   -0.6990    1.7104 H   0  0  0  0  0  0  0  0  0  0  0  0
   -1.3856   -0.2319    1.3088 H   0  0  0  0  0  0  0  0  0  0  0  0
   -2.0321   -1.6024    0.3274 H   0  0  0  0  0  0  0  0  0  0  0  0
    3.2039    1.2684   -0.1967 H   0  0  0  0  0  0  0  0  0  0  0  0
    3.5139   -0.3272   -0.9918 H   0  0  0  0  0  0  0  0  0  0  0  0
   -3.3268    2.0040    0.3022 H   0  0  0  0  0  0  0  0  0  0  0  0
   -2.9581    1.6288    2.0363 H   0  0  0  0  0  0  0  0  0  0  0  0
   -4.6640    1.6224    1.4496 H   0  0  0  0  0  0  0  0  0  0  0  0
    4.2073   -1.2899    1.2052 H   0  0  0  0  0  0  0  0  0  0  0  0
    3.8996    0.3086    2.0010 H   0  0  0  0  0  0  0  0  0  0  0  0
    5.2055    0.1489    0.7640 H   0  0  0  0  0  0  0  0  0  0  0  0
    1.8089   -1.0285   -2.5191 H   0  0  0  0  0  0  0  0  0  0  0  0
    0.3122   -1.7968   -1.8457 H   0  0  0  0  0  0  0  0  0  0  0  0
    0.1813   -0.4896   -3.0819 H   0  0  0  0  0  0  0  0  0  0  0  0
    1.1156    1.1732   -1.4537 H   0  0  0  0  0  0  0  0  0  0  0  0
   -0.5716   -0.2170   -0.8937 H   0  0  0  0  0  0  0  0  0  0  0  0
  1  9  1  0
  1  5  1  0
  2  4  1  0
  2 26  1  0
  3  6  1  0
  3  4  1  0
  3 10  1  0
  3 11  1  0
  4 12  1  0
  4 13  1  0
  5  7  1  0
  5 14  1  0
  5 15  1  0
  6 16  1  0
  6 17  1  0
  6 18  1  0
  7 19  1  0
  7 20  1  0
  7 21  1  0
  8  9  1  0
  8 22  1  0
  8 23  1  0
  8 24  1  0
  9 25  1  0
M  RAD  1   9   2
M  END
>  <reaction>  (17) 
rmg_rxn_304

>  <mol_properties>  (17) 
{"2": {"label": "*4", "atom_type": "Cs"}, "3": {"label": "*3", "atom_type": "O2s"}, "12": {"label": "*1", "atom_type": "Cs"}, "13": {"label": "*0", "atom_type": "S2s"}, "19": {"label": "*2", "atom_type": "H0"}}

>  <type>  (17) 
unop_13

>  <geom_source>  (17) 
AutoTST

$$$$

     RDKit          3D

 26 24  0  0  0  0  0  0  0  0999 V2000
   -0.3690   -3.4197    0.2764 C   0  0  0  0  0  0  0  0  0  0  0  0
   -1.1343   -2.6351   -0.7803 C   0  0  0  0  0  0  0  0  0  0  0  0
   -2.2744   -1.8075   -0.2055 C   0  0  0  0  0  0  0  0  0  0  0  0
   -1.8443   -0.8351    0.7282 O   0  0  0  0  0  0  0  0  0  0  0  0
   -1.0246   -4.1348    0.7786 H   0  0  0  0  0  0  0  0  0  0  0  0
    0.4583   -3.9763   -0.1662 H   0  0  0  0  0  0  0  0  0  0  0  0
    0.0365   -2.7524    1.0375 H   0  0  0  0  0  0  0  0  0  0  0  0
   -0.4509   -1.9699   -1.3207 H   0  0  0  0  0  0  0  0  0  0  0  0
   -1.5510   -3.3159   -1.5287 H   0  0  0  0  0  0  0  0  0  0  0  0
   -2.8415   -1.3378   -1.0190 H   0  0  0  0  0  0  0  0  0  0  0  0
   -2.9639   -2.4533    0.3428 H   0  0  0  0  0  0  0  0  0  0  0  0
    0.2097    0.2105   -1.6510 C   0  0  0  0  0  0  0  0  0  0  0  0
    0.2097    0.2105   -0.1313 C   0  0  0  0  0  3  0  0  0  0  0  0
    0.2097    1.8516    0.6336 S   0  0  0  0  0  0  0  0  0  0  0  0
    1.7503    2.5655    0.0050 C   0  0  0  0  0  0  0  0  0  0  0  0
    3.0112    1.8066    0.3842 C   0  0  0  0  0  0  0  0  0  0  0  0
    1.1327    0.6341   -2.0505 H   0  0  0  0  0  0  0  0  0  0  0  0
    0.1271   -0.8107   -2.0297 H   0  0  0  0  0  0  0  0  0  0  0  0
   -0.6260    0.7929   -2.0404 H   0  0  0  0  0  0  0  0  0  0  0  0
   -0.8838   -0.3462    0.3262 H   0  0  0  0  0  0  0  0  0  0  0  0
    1.0459   -0.3722    0.2587 H   0  0  0  0  0  0  0  0  0  0  0  0
    1.6791    2.6877   -1.0771 H   0  0  0  0  0  0  0  0  0  0  0  0
    1.7653    3.5687    0.4343 H   0  0  0  0  0  0  0  0  0  0  0  0
    3.0324    0.8148   -0.0705 H   0  0  0  0  0  0  0  0  0  0  0  0
    3.0819    1.6846    1.4656 H   0  0  0  0  0  0  0  0  0  0  0  0
    3.8959    2.3450    0.0373 H   0  0  0  0  0  0  0  0  0  0  0  0
  1  2  1  0
  1  5  1  0
  1  6  1  0
  1  7  1  0
  2  3  1  0
  2  8  1  0
  2  9  1  0
  3  4  1  0
  3 10  1  0
  3 11  1  0
  4 20  1  0
 12 13  1  0
 12 17  1  0
 12 18  1  0
 12 19  1  0
 13 14  1  0
 13 21  1  0
 14 15  1  0
 15 16  1  0
 15 22  1  0
 15 23  1  0
 16 24  1  0
 16 25  1  0
 16 26  1  0
M  RAD  1  13   2
M  END
>  <reaction>  (18) 
rmg_rxn_304

>  <mol_properties>  (18) 
{"2": {"label": "*4", "atom_type": "Cs"}, "3": {"label": "*3", "atom_type": "O2s"}, "12": {"label": "*1", "atom_type": "Cs"}, "13": {"label": "*0", "atom_type": "S2s"}, "19": {"label": "*2", "atom_type": "H0"}}

>  <type>  (18) 
unop_14

>  <geom_source>  (18) 
gaussian_log

$$$$
