
     RDKit          3D

 15 14  0  0  0  0  0  0  0  0999 V2000
   -1.2811   -0.4129    1.0228 C   0  0  0  0  0  0  0  0  0  0  0  0
   -1.0023   -0.5809   -0.4650 C   0  0  0  0  0  0  0  0  0  0  0  0
   -2.0576    0.0568   -1.3449 C   0  0  0  0  0  0  0  0  0  0  0  0
   -2.0663    1.4464   -1.1307 O   0  0  0  0  0  0  0  0  0  0  0  0
   -3.0424    2.1072   -1.8849 C   0  0  0  0  0  0  0  0  0  0  0  0
   -2.2382   -0.8657    1.2935 H   0  0  0  0  0  0  0  0  0  0  0  0
   -1.3219    0.6426    1.2914 H   0  0  0  0  0  0  0  0  0  0  0  0
   -0.5042   -0.8881    1.6236 H   0  0  0  0  0  0  0  0  0  0  0  0
   -0.0316   -0.1460   -0.7167 H   0  0  0  0  0  0  0  0  0  0  0  0
   -0.9494   -1.6429   -0.7203 H   0  0  0  0  0  0  0  0  0  0  0  0
   -1.8518   -0.1570   -2.4041 H   0  0  0  0  0  0  0  0  0  0  0  0
   -3.0491   -0.3636   -1.1124 H   0  0  0  0  0  0  0  0  0  0  0  0
   -4.0521    1.7545   -1.6343 H   0  0  0  0  0  0  0  0  0  0  0  0
   -2.8850    1.9634   -2.9626 H   0  0  0  0  0  0  0  0  0  0  0  0
   -2.9730    3.1700   -1.6570 H   0  0  0  0  0  0  0  0  0  0  0  0
  1  2  1  0
  1  6  1  0
  1  7  1  0
  1  8  1  0
  2  3  1  0
  2  9  1  0
  2 10  1  0
  3  4  1  0
  3 11  1  0
  3 12  1  0
  4  5  1  0
  5 13  1  0
  5 14  1  0
  5 15  1  0
M  END
>  <reaction>  (1) 
rmg_rxn_669

>  <mol_properties>  (1) 
{"4": {"label": "donator", "atom_type": "Cs"}, "12": {"label": "d_hydrogen", "atom_type": "H0"}}

>  <type>  (1) 
r1h

$$$$

     RDKit          3D

 14 13  0  0  0  0  0  0  0  0999 V2000
    2.5796   -0.5432    0.2329 C   0  0  0  0  0  3  0  0  0  0  0  0
    1.2594    0.0982    0.3029 C   0  0  0  0  0  0  0  0  0  0  0  0
   -0.0483   -1.0244    0.9576 S   0  0  0  0  0  0  0  0  0  0  0  0
   -0.0049   -2.3732   -0.2491 C   0  0  0  0  0  0  0  0  0  0  0  0
   -0.3891   -1.9781   -1.6653 C   0  0  0  0  0  0  0  0  0  0  0  0
    2.9359   -0.9798   -0.6903 H   0  0  0  0  0  0  0  0  0  0  0  0
    3.1327   -0.7454    1.1400 H   0  0  0  0  0  0  0  0  0  0  0  0
    0.9347    0.4858   -0.6621 H   0  0  0  0  0  0  0  0  0  0  0  0
    1.2442    0.9220    1.0193 H   0  0  0  0  0  0  0  0  0  0  0  0
    0.9819   -2.8380   -0.2257 H   0  0  0  0  0  0  0  0  0  0  0  0
   -0.7110   -3.1037    0.1493 H   0  0  0  0  0  0  0  0  0  0  0  0
    0.3274   -1.2737   -2.0913 H   0  0  0  0  0  0  0  0  0  0  0  0
   -0.4075   -2.8581   -2.3121 H   0  0  0  0  0  0  0  0  0  0  0  0
   -1.3749   -1.5123   -1.6865 H   0  0  0  0  0  0  0  0  0  0  0  0
  1  2  1  0
  1  6  1  0
  1  7  1  0
  2  3  1  0
  2  8  1  0
  2  9  1  0
  3  4  1  0
  4  5  1  0
  4 10  1  0
  4 11  1  0
  5 12  1  0
  5 13  1  0
  5 14  1  0
M  RAD  1   1   2
M  END
>  <reaction>  (2) 
rmg_rxn_669

>  <mol_properties>  (2) 
{"0": {"label": "acceptor", "atom_type": "Cs"}}

>  <type>  (2) 
r2

$$$$

     RDKit          3D

 15 14  0  0  0  0  0  0  0  0999 V2000
   -2.0554    0.0723   -0.4910 C   0  0  0  0  0  0  0  0  0  0  0  0
   -0.7461   -0.6266   -0.8178 C   0  0  0  0  0  0  0  0  0  0  0  0
    0.3249    0.2591   -1.9782 S   0  0  0  0  0  0  0  0  0  0  0  0
   -0.7172    0.3642   -3.4551 C   0  0  0  0  0  0  0  0  0  0  0  0
   -1.1375   -0.9737   -4.0409 C   0  0  0  0  0  0  0  0  0  0  0  0
   -2.7005    0.1427   -1.3684 H   0  0  0  0  0  0  0  0  0  0  0  0
   -2.6016   -0.4848    0.2733 H   0  0  0  0  0  0  0  0  0  0  0  0
   -1.8758    1.0825   -0.1213 H   0  0  0  0  0  0  0  0  0  0  0  0
   -0.1320   -0.7246    0.0789 H   0  0  0  0  0  0  0  0  0  0  0  0
   -0.9254   -1.6374   -1.1879 H   0  0  0  0  0  0  0  0  0  0  0  0
   -1.5873    0.9874   -3.2422 H   0  0  0  0  0  0  0  0  0  0  0  0
   -0.1021    0.9161   -4.1678 H   0  0  0  0  0  0  0  0  0  0  0  0
   -1.7876   -1.5224   -3.3574 H   0  0  0  0  0  0  0  0  0  0  0  0
   -0.2676   -1.5962   -4.2534 H   0  0  0  0  0  0  0  0  0  0  0  0
   -1.6916   -0.8229   -4.9700 H   0  0  0  0  0  0  0  0  0  0  0  0
  1  2  1  0
  1  6  1  0
  1  7  1  0
  1  8  1  0
  2  3  1  0
  2  9  1  0
  2 10  1  0
  3  4  1  0
  4  5  1  0
  4 11  1  0
  4 12  1  0
  5 13  1  0
  5 14  1  0
  5 15  1  0
M  END
>  <reaction>  (3) 
rmg_rxn_669

>  <mol_properties>  (3) 
{"0": {"label": "acceptor", "atom_type": "Cs"}, "14": {"label": "a_hydrogen", "atom_type": "H0"}}

>  <type>  (3) 
r2h

$$$$

     RDKit          3D

 29 27  0  0  0  0  0  0  0  0999 V2000
   -0.2757    2.0389    0.3182 C   0  0  0  0  0  3  0  0  0  0  0  0
    0.3313    1.1149   -0.7021 C   0  0  0  0  0  0  0  0  0  0  0  0
    1.6736    0.0596   -0.1005 S   0  0  0  0  0  0  0  0  0  0  0  0
    2.9543    1.2688    0.3186 C   0  0  0  0  0  0  0  0  0  0  0  0
    3.4649    2.0952   -0.8498 C   0  0  0  0  0  0  0  0  0  0  0  0
    0.4040    2.4426    1.0648 H   0  0  0  0  0  0  0  0  0  0  0  0
   -0.9053    2.8148   -0.1159 H   0  0  0  0  0  0  0  0  0  0  0  0
    0.6858    1.6623   -1.5802 H   0  0  0  0  0  0  0  0  0  0  0  0
   -0.4180    0.4078   -1.0698 H   0  0  0  0  0  0  0  0  0  0  0  0
    2.5960    1.9131    1.1231 H   0  0  0  0  0  0  0  0  0  0  0  0
    3.7578    0.6602    0.7368 H   0  0  0  0  0  0  0  0  0  0  0  0
    2.6853    2.7458   -1.2488 H   0  0  0  0  0  0  0  0  0  0  0  0
    4.2907    2.7335   -0.5278 H   0  0  0  0  0  0  0  0  0  0  0  0
    3.8184    1.4528   -1.6570 H   0  0  0  0  0  0  0  0  0  0  0  0
   -1.2002   -2.5010   -1.0769 C   0  0  0  0  0  0  0  0  0  0  0  0
   -1.5968   -2.7963    0.3637 C   0  0  0  0  0  0  0  0  0  0  0  0
   -1.4528   -1.6006    1.2802 C   0  0  0  0  0  0  0  0  0  0  0  0
   -2.3551   -0.5884    0.8696 O   0  0  0  0  0  0  0  0  0  0  0  0
   -2.2123    0.5988    1.5479 C   0  0  0  0  0  0  0  0  0  0  0  0
   -0.1574   -2.1793   -1.1368 H   0  0  0  0  0  0  0  0  0  0  0  0
   -1.8251   -1.7115   -1.4962 H   0  0  0  0  0  0  0  0  0  0  0  0
   -1.3120   -3.3868   -1.7038 H   0  0  0  0  0  0  0  0  0  0  0  0
   -2.6310   -3.1482    0.4050 H   0  0  0  0  0  0  0  0  0  0  0  0
   -0.9726   -3.5987    0.7659 H   0  0  0  0  0  0  0  0  0  0  0  0
   -1.6774   -1.8807    2.3180 H   0  0  0  0  0  0  0  0  0  0  0  0
   -0.4263   -1.2141    1.2502 H   0  0  0  0  0  0  0  0  0  0  0  0
   -1.2160    1.2902    1.0451 H   0  0  0  0  0  0  0  0  0  0  0  0
   -1.9832    0.4787    2.6125 H   0  0  0  0  0  0  0  0  0  0  0  0
   -3.0860    1.2260    1.3780 H   0  0  0  0  0  0  0  0  0  0  0  0
  1  2  1  0
  1  6  1  0
  1  7  1  0
  2  3  1  0
  2  8  1  0
  2  9  1  0
  3  4  1  0
  4  5  1  0
  4 10  1  0
  4 11  1  0
  5 12  1  0
  5 13  1  0
  5 14  1  0
 15 16  1  0
 15 20  1  0
 15 21  1  0
 15 22  1  0
 16 17  1  0
 16 23  1  0
 16 24  1  0
 17 18  1  0
 17 25  1  0
 17 26  1  0
 18 19  1  0
 19 27  1  0
 19 28  1  0
 19 29  1  0
M  RAD  1   1   2
M  END
>  <reaction>  (4) 
rmg_rxn_669

>  <mol_properties>  (4) 
{"0": {"label": "*3", "atom_type": "Cs"}, "1": {"label": "*4", "atom_type": "Cs"}, "17": {"label": "*0", "atom_type": "O2s"}, "18": {"label": "*1", "atom_type": "Cs"}, "26": {"label": "*2", "atom_type": "H0"}}

>  <type>  (4) 
ts

$$$$

     RDKit          3D

 29 27  0  0  0  0  0  0  0  0999 V2000
    0.4357    1.0626    0.9759 C   0  0  0  0  0  0  0  0  0  0  0  0
   -0.0960    2.2472    0.1863 C   0  0  0  0  0  0  0  0  0  0  0  0
   -0.2129    1.9845   -1.6013 S   0  0  0  0  0  0  0  0  0  0  0  0
    1.5088    1.6509   -2.0513 C   0  0  0  0  0  0  0  0  0  0  0  0
    2.4820    2.7776   -1.7462 C   0  0  0  0  0  0  0  0  0  0  0  0
    1.4748    0.8471    0.7217 H   0  0  0  0  0  0  0  0  0  0  0  0
    0.3974    1.2735    2.0469 H   0  0  0  0  0  0  0  0  0  0  0  0
    0.4936    3.1440    0.3839 H   0  0  0  0  0  0  0  0  0  0  0  0
   -1.1215    2.4737    0.4828 H   0  0  0  0  0  0  0  0  0  0  0  0
    1.8323    0.7190   -1.5847 H   0  0  0  0  0  0  0  0  0  0  0  0
    1.4648    1.4657   -3.1258 H   0  0  0  0  0  0  0  0  0  0  0  0
    2.5698    2.9496   -0.6721 H   0  0  0  0  0  0  0  0  0  0  0  0
    3.4777    2.5297   -2.1207 H   0  0  0  0  0  0  0  0  0  0  0  0
    2.1584    3.7087   -2.2125 H   0  0  0  0  0  0  0  0  0  0  0  0
   -0.2887   -3.7694   -0.3299 C   0  0  0  0  0  0  0  0  0  0  0  0
   -0.2887   -3.7694    1.1930 C   0  0  0  0  0  0  0  0  0  0  0  0
   -0.2887   -2.3768    1.7890 C   0  0  0  0  0  0  0  0  0  0  0  0
   -1.4738   -1.7134    1.4249 O   0  0  0  0  0  0  0  0  0  0  0  0
   -1.5346   -0.4023    1.9101 C   0  0  0  0  0  3  0  0  0  0  0  0
    0.5936   -3.2557   -0.7196 H   0  0  0  0  0  0  0  0  0  0  0  0
   -1.1712   -3.2595   -0.7163 H   0  0  0  0  0  0  0  0  0  0  0  0
   -0.2838   -4.7874   -0.7222 H   0  0  0  0  0  0  0  0  0  0  0  0
   -1.1629   -4.3075    1.5686 H   0  0  0  0  0  0  0  0  0  0  0  0
    0.5930   -4.2955    1.5692 H   0  0  0  0  0  0  0  0  0  0  0  0
   -0.2119   -2.4305    2.8851 H   0  0  0  0  0  0  0  0  0  0  0  0
    0.5836   -1.8098    1.4268 H   0  0  0  0  0  0  0  0  0  0  0  0
   -0.5459    0.3328    1.4413 H   0  0  0  0  0  0  0  0  0  0  0  0
   -1.4926   -0.3761    3.0075 H   0  0  0  0  0  0  0  0  0  0  0  0
   -2.4803    0.0279    1.5829 H   0  0  0  0  0  0  0  0  0  0  0  0
  1  2  1  0
  1  6  1  0
  1  7  1  0
  1 27  1  0
  2  3  1  0
  2  8  1  0
  2  9  1  0
  3  4  1  0
  4  5  1  0
  4 10  1  0
  4 11  1  0
  5 12  1  0
  5 13  1  0
  5 14  1  0
 15 16  1  0
 15 20  1  0
 15 21  1  0
 15 22  1  0
 16 17  1  0
 16 23  1  0
 16 24  1  0
 17 18  1  0
 17 25  1  0
 17 26  1  0
 18 19  1  0
 19 28  1  0
 19 29  1  0
M  RAD  1  19   2
M  END
>  <reaction>  (5) 
rmg_rxn_669

>  <mol_properties>  (5) 
{"0": {"label": "*3", "atom_type": "Cs"}, "1": {"label": "*4", "atom_type": "Cs"}, "17": {"label": "*0", "atom_type": "O2s"}, "18": {"label": "*1", "atom_type": "Cs"}, "26": {"label": "*2", "atom_type": "H0"}}

>  <type>  (5) 
unop_1

>  <geom_source>  (5) 
Heuristics

$$$$

     RDKit          3D

 29 27  0  0  0  0  0  0  0  0999 V2000
   -0.3310    2.1737    0.4098 C   0  0  0  0  0  0  0  0  0  0  0  0
    0.0950    1.6950   -0.9683 C   0  0  0  0  0  0  0  0  0  0  0  0
    1.0184    0.1377   -0.9853 S   0  0  0  0  0  0  0  0  0  0  0  0
    2.4712    0.5445    0.0157 C   0  0  0  0  0  0  0  0  0  0  0  0
    3.3305    1.6734   -0.5289 C   0  0  0  0  0  0  0  0  0  0  0  0
    0.5312    2.4280    1.0285 H   0  0  0  0  0  0  0  0  0  0  0  0
   -0.9491    3.0703    0.3248 H   0  0  0  0  0  0  0  0  0  0  0  0
    0.6695    2.4637   -1.4879 H   0  0  0  0  0  0  0  0  0  0  0  0
   -0.7796    1.4848   -1.5861 H   0  0  0  0  0  0  0  0  0  0  0  0
    2.1596    0.7512    1.0410 H   0  0  0  0  0  0  0  0  0  0  0  0
    3.0378   -0.3878    0.0414 H   0  0  0  0  0  0  0  0  0  0  0  0
    2.7928    2.6230   -0.5236 H   0  0  0  0  0  0  0  0  0  0  0  0
    4.2242    1.7996    0.0861 H   0  0  0  0  0  0  0  0  0  0  0  0
    3.6415    1.4665   -1.5535 H   0  0  0  0  0  0  0  0  0  0  0  0
   -1.0554   -2.6582   -0.8961 C   0  0  0  0  0  0  0  0  0  0  0  0
   -1.0554   -2.6582    0.6268 C   0  0  0  0  0  0  0  0  0  0  0  0
   -1.0554   -1.2657    1.2229 C   0  0  0  0  0  0  0  0  0  0  0  0
   -2.2405   -0.6022    0.8587 O   0  0  0  0  0  0  0  0  0  0  0  0
   -2.3013    0.7089    1.3439 C   0  0  0  0  0  3  0  0  0  0  0  0
   -0.1730   -2.1446   -1.2858 H   0  0  0  0  0  0  0  0  0  0  0  0
   -1.9379   -2.1483   -1.2825 H   0  0  0  0  0  0  0  0  0  0  0  0
   -1.0505   -3.6762   -1.2884 H   0  0  0  0  0  0  0  0  0  0  0  0
   -1.9295   -3.1964    1.0025 H   0  0  0  0  0  0  0  0  0  0  0  0
   -0.1737   -3.1844    1.0031 H   0  0  0  0  0  0  0  0  0  0  0  0
   -0.9786   -1.3194    2.3190 H   0  0  0  0  0  0  0  0  0  0  0  0
   -0.1830   -0.6986    0.8607 H   0  0  0  0  0  0  0  0  0  0  0  0
   -1.3126    1.4440    0.8752 H   0  0  0  0  0  0  0  0  0  0  0  0
   -2.2593    0.7350    2.4414 H   0  0  0  0  0  0  0  0  0  0  0  0
   -3.2469    1.1390    1.0168 H   0  0  0  0  0  0  0  0  0  0  0  0
  1  2  1  0
  1  6  1  0
  1  7  1  0
  1 27  1  0
  2  3  1  0
  2  8  1  0
  2  9  1  0
  3  4  1  0
  4  5  1  0
  4 10  1  0
  4 11  1  0
  5 12  1  0
  5 13  1  0
  5 14  1  0
 15 16  1  0
 15 20  1  0
 15 21  1  0
 15 22  1  0
 16 17  1  0
 16 23  1  0
 16 24  1  0
 17 18  1  0
 17 25  1  0
 17 26  1  0
 18 19  1  0
 19 28  1  0
 19 29  1  0
M  RAD  1  19   2
M  END
>  <reaction>  (6) 
rmg_rxn_669

>  <mol_properties>  (6) 
{"0": {"label": "*3", "atom_type": "Cs"}, "1": {"label": "*4", "atom_type": "Cs"}, "17": {"label": "*0", "atom_type": "O2s"}, "18": {"label": "*1", "atom_type": "Cs"}, "26": {"label": "*2", "atom_type": "H0"}}

>  <type>  (6) 
unop_2

>  <geom_source>  (6) 
Heuristics

$$$$

     RDKit          3D

 29 27  0  0  0  0  0  0  0  0999 V2000
    0.7287    0.7318    0.7390 C   0  0  0  0  0  0  0  0  0  0  0  0
    0.3132    2.1889    0.6219 C   0  0  0  0  0  0  0  0  0  0  0  0
   -0.5765    2.6108   -0.8975 S   0  0  0  0  0  0  0  0  0  0  0  0
    0.6363    2.1982   -2.1770 C   0  0  0  0  0  0  0  0  0  0  0  0
    1.9418    2.9722   -2.0978 C   0  0  0  0  0  0  0  0  0  0  0  0
    1.4633    0.4635   -0.0221 H   0  0  0  0  0  0  0  0  0  0  0  0
    1.1841    0.5451    1.7141 H   0  0  0  0  0  0  0  0  0  0  0  0
    1.1740    2.8502    0.7344 H   0  0  0  0  0  0  0  0  0  0  0  0
   -0.3894    2.4500    1.4149 H   0  0  0  0  0  0  0  0  0  0  0  0
    0.8197    1.1224   -2.1704 H   0  0  0  0  0  0  0  0  0  0  0  0
    0.1160    2.4225   -3.1096 H   0  0  0  0  0  0  0  0  0  0  0  0
    2.4958    2.7290   -1.1896 H   0  0  0  0  0  0  0  0  0  0  0  0
    2.5812    2.7243   -2.9479 H   0  0  0  0  0  0  0  0  0  0  0  0
    1.7581    4.0472   -2.1043 H   0  0  0  0  0  0  0  0  0  0  0  0
    0.0043   -4.1002   -0.5668 C   0  0  0  0  0  0  0  0  0  0  0  0
    0.0043   -4.1002    0.9561 C   0  0  0  0  0  0  0  0  0  0  0  0
    0.0043   -2.7076    1.5522 C   0  0  0  0  0  0  0  0  0  0  0  0
   -1.1808   -2.0442    1.1880 O   0  0  0  0  0  0  0  0  0  0  0  0
   -1.2415   -0.7331    1.6732 C   0  0  0  0  0  3  0  0  0  0  0  0
    0.8867   -3.5865   -0.9565 H   0  0  0  0  0  0  0  0  0  0  0  0
   -0.8782   -3.5903   -0.9532 H   0  0  0  0  0  0  0  0  0  0  0  0
    0.0092   -5.1182   -0.9591 H   0  0  0  0  0  0  0  0  0  0  0  0
   -0.8698   -4.6383    1.3317 H   0  0  0  0  0  0  0  0  0  0  0  0
    0.8860   -4.6263    1.3324 H   0  0  0  0  0  0  0  0  0  0  0  0
    0.0811   -2.7613    2.6482 H   0  0  0  0  0  0  0  0  0  0  0  0
    0.8767   -2.1406    1.1900 H   0  0  0  0  0  0  0  0  0  0  0  0
   -0.2529    0.0020    1.2044 H   0  0  0  0  0  0  0  0  0  0  0  0
   -1.1995   -0.7069    2.7707 H   0  0  0  0  0  0  0  0  0  0  0  0
   -2.1872   -0.3029    1.3461 H   0  0  0  0  0  0  0  0  0  0  0  0
  1  2  1  0
  1  6  1  0
  1  7  1  0
  1 27  1  0
  2  3  1  0
  2  8  1  0
  2  9  1  0
  3  4  1  0
  4  5  1  0
  4 10  1  0
  4 11  1  0
  5 12  1  0
  5 13  1  0
  5 14  1  0
 15 16  1  0
 15 20  1  0
 15 21  1  0
 15 22  1  0
 16 17  1  0
 16 23  1  0
 16 24  1  0
 17 18  1  0
 17 25  1  0
 17 26  1  0
 18 19  1  0
 19 28  1  0
 19 29  1  0
M  RAD  1  19   2
M  END
>  <reaction>  (7) 
rmg_rxn_669

>  <mol_properties>  (7) 
{"0": {"label": "*3", "atom_type": "Cs"}, "1": {"label": "*4", "atom_type": "Cs"}, "17": {"label": "*0", "atom_type": "O2s"}, "18": {"label": "*1", "atom_type": "Cs"}, "26": {"label": "*2", "atom_type": "H0"}}

>  <type>  (7) 
unop_3

>  <geom_source>  (7) 
Heuristics

$$$$

     RDKit          3D

 29 27  0  0  0  0  0  0  0  0999 V2000
   -0.0309    1.8911   -1.0873 C   0  0  0  0  0  0  0  0  0  0  0  0
    1.3148    1.3117   -0.6836 C   0  0  0  0  0  0  0  0  0  0  0  0
    1.2838    0.2601    0.7900 S   0  0  0  0  0  0  0  0  0  0  0  0
    0.6843    1.4019    2.0609 C   0  0  0  0  0  0  0  0  0  0  0  0
    1.5647    2.6176    2.2987 C   0  0  0  0  0  0  0  0  0  0  0  0
   -0.4085    2.5858   -0.3351 H   0  0  0  0  0  0  0  0  0  0  0  0
    0.0603    2.4423   -2.0258 H   0  0  0  0  0  0  0  0  0  0  0  0
    2.0556    2.1018   -0.5506 H   0  0  0  0  0  0  0  0  0  0  0  0
    1.6957    0.6520   -1.4650 H   0  0  0  0  0  0  0  0  0  0  0  0
   -0.3388    1.7009    1.8272 H   0  0  0  0  0  0  0  0  0  0  0  0
    0.6340    0.7858    2.9602 H   0  0  0  0  0  0  0  0  0  0  0  0
    1.5938    3.2672    1.4223 H   0  0  0  0  0  0  0  0  0  0  0  0
    1.1774    3.2085    3.1317 H   0  0  0  0  0  0  0  0  0  0  0  0
    2.5871    2.3183    2.5320 H   0  0  0  0  0  0  0  0  0  0  0  0
   -0.7553   -2.9408   -2.3931 C   0  0  0  0  0  0  0  0  0  0  0  0
   -0.7553   -2.9408   -0.8702 C   0  0  0  0  0  0  0  0  0  0  0  0
   -0.7553   -1.5483   -0.2741 C   0  0  0  0  0  0  0  0  0  0  0  0
   -1.9404   -0.8848   -0.6383 O   0  0  0  0  0  0  0  0  0  0  0  0
   -2.0012    0.4263   -0.1531 C   0  0  0  0  0  3  0  0  0  0  0  0
    0.1271   -2.4272   -2.7828 H   0  0  0  0  0  0  0  0  0  0  0  0
   -1.6378   -2.4309   -2.7795 H   0  0  0  0  0  0  0  0  0  0  0  0
   -0.7504   -3.9588   -2.7854 H   0  0  0  0  0  0  0  0  0  0  0  0
   -1.6294   -3.4790   -0.4946 H   0  0  0  0  0  0  0  0  0  0  0  0
    0.1264   -3.4670   -0.4939 H   0  0  0  0  0  0  0  0  0  0  0  0
   -0.6785   -1.6020    0.8219 H   0  0  0  0  0  0  0  0  0  0  0  0
    0.1170   -0.9812   -0.6363 H   0  0  0  0  0  0  0  0  0  0  0  0
   -1.0125    1.1614   -0.6219 H   0  0  0  0  0  0  0  0  0  0  0  0
   -1.9592    0.4524    0.9444 H   0  0  0  0  0  0  0  0  0  0  0  0
   -2.9468    0.8564   -0.4803 H   0  0  0  0  0  0  0  0  0  0  0  0
  1  2  1  0
  1  6  1  0
  1  7  1  0
  1 27  1  0
  2  3  1  0
  2  8  1  0
  2  9  1  0
  3  4  1  0
  4  5  1  0
  4 10  1  0
  4 11  1  0
  5 12  1  0
  5 13  1  0
  5 14  1  0
 15 16  1  0
 15 20  1  0
 15 21  1  0
 15 22  1  0
 16 17  1  0
 16 23  1  0
 16 24  1  0
 17 18  1  0
 17 25  1  0
 17 26  1  0
 18 19  1  0
 19 28  1  0
 19 29  1  0
M  RAD  1  19   2
M  END
>  <reaction>  (8) 
rmg_rxn_669

>  <mol_properties>  (8) 
{"0": {"label": "*3", "atom_type": "Cs"}, "1": {"label": "*4", "atom_type": "Cs"}, "17": {"label": "*0", "atom_type": "O2s"}, "18": {"label": "*1", "atom_type": "Cs"}, "26": {"label": "*2", "atom_type": "H0"}}

>  <type>  (8) 
unop_4

>  <geom_source>  (8) 
Heuristics

$$$$

     RDKit          3D

 29 27  0  0  0  0  0  0  0  0999 V2000
    1.0805    0.5211    0.1576 C   0  0  0  0  0  0  0  0  0  0  0  0
    1.0017    1.9413    0.6926 C   0  0  0  0  0  0  0  0  0  0  0  0
   -0.5720    2.7852    0.3934 S   0  0  0  0  0  0  0  0  0  0  0  0
   -0.6654    2.7885   -1.4148 C   0  0  0  0  0  0  0  0  0  0  0  0
    0.4674    3.5208   -2.1148 C   0  0  0  0  0  0  0  0  0  0  0  0
    1.0297    0.5014   -0.9323 H   0  0  0  0  0  0  0  0  0  0  0  0
    2.0257    0.0583    0.4499 H   0  0  0  0  0  0  0  0  0  0  0  0
    1.8200    2.5503    0.3047 H   0  0  0  0  0  0  0  0  0  0  0  0
    1.0953    1.9450    1.7798 H   0  0  0  0  0  0  0  0  0  0  0  0
   -0.7485    1.7621   -1.7762 H   0  0  0  0  0  0  0  0  0  0  0  0
   -1.6201    3.2737   -1.6243 H   0  0  0  0  0  0  0  0  0  0  0  0
    1.4256    3.0253   -1.9498 H   0  0  0  0  0  0  0  0  0  0  0  0
    0.2930    3.5459   -3.1928 H   0  0  0  0  0  0  0  0  0  0  0  0
    0.5502    4.5463   -1.7533 H   0  0  0  0  0  0  0  0  0  0  0  0
    0.3561   -4.3109   -1.1482 C   0  0  0  0  0  0  0  0  0  0  0  0
    0.3561   -4.3109    0.3747 C   0  0  0  0  0  0  0  0  0  0  0  0
    0.3561   -2.9183    0.9708 C   0  0  0  0  0  0  0  0  0  0  0  0
   -0.8289   -2.2549    0.6066 O   0  0  0  0  0  0  0  0  0  0  0  0
   -0.8897   -0.9438    1.0918 C   0  0  0  0  0  3  0  0  0  0  0  0
    1.2385   -3.7973   -1.5379 H   0  0  0  0  0  0  0  0  0  0  0  0
   -0.5263   -3.8010   -1.5346 H   0  0  0  0  0  0  0  0  0  0  0  0
    0.3610   -5.3289   -1.5405 H   0  0  0  0  0  0  0  0  0  0  0  0
   -0.5180   -4.8491    0.7504 H   0  0  0  0  0  0  0  0  0  0  0  0
    1.2378   -4.8370    0.7510 H   0  0  0  0  0  0  0  0  0  0  0  0
    0.4329   -2.9720    2.0668 H   0  0  0  0  0  0  0  0  0  0  0  0
    1.2285   -2.3513    0.6086 H   0  0  0  0  0  0  0  0  0  0  0  0
    0.0990   -0.2087    0.6230 H   0  0  0  0  0  0  0  0  0  0  0  0
   -0.8477   -0.9177    2.1893 H   0  0  0  0  0  0  0  0  0  0  0  0
   -1.8354   -0.5136    0.7647 H   0  0  0  0  0  0  0  0  0  0  0  0
  1  2  1  0
  1  6  1  0
  1  7  1  0
  1 27  1  0
  2  3  1  0
  2  8  1  0
  2  9  1  0
  3  4  1  0
  4  5  1  0
  4 10  1  0
  4 11  1  0
  5 12  1  0
  5 13  1  0
  5 14  1  0
 15 16  1  0
 15 20  1  0
 15 21  1  0
 15 22  1  0
 16 17  1  0
 16 23  1  0
 16 24  1  0
 17 18  1  0
 17 25  1  0
 17 26  1  0
 18 19  1  0
 19 28  1  0
 19 29  1  0
M  RAD  1  19   2
M  END
>  <reaction>  (9) 
rmg_rxn_669

>  <mol_properties>  (9) 
{"0": {"label": "*3", "atom_type": "Cs"}, "1": {"label": "*4", "atom_type": "Cs"}, "17": {"label": "*0", "atom_type": "O2s"}, "18": {"label": "*1", "atom_type": "Cs"}, "26": {"label": "*2", "atom_type": "H0"}}

>  <type>  (9) 
unop_5

>  <geom_source>  (9) 
Heuristics

$$$$

     RDKit          3D

 29 27  0  0  0  0  0  0  0  0999 V2000
    0.2901    1.4802   -1.2627 C   0  0  0  0  0  0  0  0  0  0  0  0
    1.5005    1.4096   -0.3464 C   0  0  0  0  0  0  0  0  0  0  0  0
    1.1694    0.7562    1.3093 S   0  0  0  0  0  0  0  0  0  0  0  0
   -0.0380    1.9420    1.9531 C   0  0  0  0  0  0  0  0  0  0  0  0
    0.4553    3.3768    2.0410 C   0  0  0  0  0  0  0  0  0  0  0  0
   -0.4491    2.1933   -0.8938 H   0  0  0  0  0  0  0  0  0  0  0  0
    0.5895    1.8059   -2.2613 H   0  0  0  0  0  0  0  0  0  0  0  0
    1.9835    2.3846   -0.2624 H   0  0  0  0  0  0  0  0  0  0  0  0
    2.2460    0.7235   -0.7517 H   0  0  0  0  0  0  0  0  0  0  0  0
   -0.9561    1.8804    1.3665 H   0  0  0  0  0  0  0  0  0  0  0  0
   -0.2738    1.5583    2.9471 H   0  0  0  0  0  0  0  0  0  0  0  0
    0.6574    3.7910    1.0518 H   0  0  0  0  0  0  0  0  0  0  0  0
   -0.3005    4.0088    2.5127 H   0  0  0  0  0  0  0  0  0  0  0  0
    1.3729    3.4378    2.6272 H   0  0  0  0  0  0  0  0  0  0  0  0
   -0.4343   -3.3518   -2.5685 C   0  0  0  0  0  0  0  0  0  0  0  0
   -0.4343   -3.3518   -1.0456 C   0  0  0  0  0  0  0  0  0  0  0  0
   -0.4343   -1.9592   -0.4495 C   0  0  0  0  0  0  0  0  0  0  0  0
   -1.6194   -1.2957   -0.8137 O   0  0  0  0  0  0  0  0  0  0  0  0
   -1.6802    0.0154   -0.3285 C   0  0  0  0  0  3  0  0  0  0  0  0
    0.4480   -2.8381   -2.9582 H   0  0  0  0  0  0  0  0  0  0  0  0
   -1.3168   -2.8419   -2.9549 H   0  0  0  0  0  0  0  0  0  0  0  0
   -0.4294   -4.3697   -2.9608 H   0  0  0  0  0  0  0  0  0  0  0  0
   -1.3084   -3.8899   -0.6700 H   0  0  0  0  0  0  0  0  0  0  0  0
    0.4474   -3.8779   -0.6693 H   0  0  0  0  0  0  0  0  0  0  0  0
   -0.3575   -2.0129    0.6465 H   0  0  0  0  0  0  0  0  0  0  0  0
    0.4380   -1.3921   -0.8117 H   0  0  0  0  0  0  0  0  0  0  0  0
   -0.6915    0.7505   -0.7973 H   0  0  0  0  0  0  0  0  0  0  0  0
   -1.6382    0.0415    0.7690 H   0  0  0  0  0  0  0  0  0  0  0  0
   -2.6259    0.4455   -0.6556 H   0  0  0  0  0  0  0  0  0  0  0  0
  1  2  1  0
  1  6  1  0
  1  7  1  0
  1 27  1  0
  2  3  1  0
  2  8  1  0
  2  9  1  0
  3  4  1  0
  4  5  1  0
  4 10  1  0
  4 11  1  0
  5 12  1  0
  5 13  1  0
  5 14  1  0
 15 16  1  0
 15 20  1  0
 15 21  1  0
 15 22  1  0
 16 17  1  0
 16 23  1  0
 16 24  1  0
 17 18  1  0
 17 25  1  0
 17 26  1  0
 18 19  1  0
 19 28  1  0
 19 29  1  0
M  RAD  1  19   2
M  END
>  <reaction>  (10) 
rmg_rxn_669

>  <mol_properties>  (10) 
{"0": {"label": "*3", "atom_type": "Cs"}, "1": {"label": "*4", "atom_type": "Cs"}, "17": {"label": "*0", "atom_type": "O2s"}, "18": {"label": "*1", "atom_type": "Cs"}, "26": {"label": "*2", "atom_type": "H0"}}

>  <type>  (10) 
unop_6

>  <geom_source>  (10) 
Heuristics

$$$$

     RDKit          3D

 29 27  0  0  0  0  0  0  0  0999 V2000
    0.6803    1.0263   -1.1617 C   0  0  0  0  0  0  0  0  0  0  0  0
    1.5402    1.5645   -0.0301 C   0  0  0  0  0  0  0  0  0  0  0  0
    0.7917    1.4607    1.6153 S   0  0  0  0  0  0  0  0  0  0  0  0
   -0.6975    2.4721    1.4216 C   0  0  0  0  0  0  0  0  0  0  0  0
   -0.4439    3.9232    1.0480 C   0  0  0  0  0  0  0  0  0  0  0  0
   -0.2218    1.6252   -1.2975 H   0  0  0  0  0  0  0  0  0  0  0  0
    1.2343    1.0505   -2.1027 H   0  0  0  0  0  0  0  0  0  0  0  0
    1.8439    2.5940   -0.2267 H   0  0  0  0  0  0  0  0  0  0  0  0
    2.4563    0.9791    0.0643 H   0  0  0  0  0  0  0  0  0  0  0  0
   -1.3690    1.9965    0.7049 H   0  0  0  0  0  0  0  0  0  0  0  0
   -1.1827    2.4087    2.3970 H   0  0  0  0  0  0  0  0  0  0  0  0
    0.0043    4.0079    0.0565 H   0  0  0  0  0  0  0  0  0  0  0  0
   -1.3835    4.4798    1.0314 H   0  0  0  0  0  0  0  0  0  0  0  0
    0.2274    4.3982    1.7643 H   0  0  0  0  0  0  0  0  0  0  0  0
   -0.0441   -3.8057   -2.4675 C   0  0  0  0  0  0  0  0  0  0  0  0
   -0.0441   -3.8057   -0.9446 C   0  0  0  0  0  0  0  0  0  0  0  0
   -0.0441   -2.4131   -0.3485 C   0  0  0  0  0  0  0  0  0  0  0  0
   -1.2291   -1.7497   -0.7127 O   0  0  0  0  0  0  0  0  0  0  0  0
   -1.2899   -0.4386   -0.2275 C   0  0  0  0  0  3  0  0  0  0  0  0
    0.8383   -3.2920   -2.8572 H   0  0  0  0  0  0  0  0  0  0  0  0
   -0.9265   -3.2958   -2.8539 H   0  0  0  0  0  0  0  0  0  0  0  0
   -0.0392   -4.8237   -2.8598 H   0  0  0  0  0  0  0  0  0  0  0  0
   -0.9182   -4.3438   -0.5690 H   0  0  0  0  0  0  0  0  0  0  0  0
    0.8376   -4.3318   -0.5683 H   0  0  0  0  0  0  0  0  0  0  0  0
    0.0327   -2.4668    0.7475 H   0  0  0  0  0  0  0  0  0  0  0  0
    0.8283   -1.8461   -0.7107 H   0  0  0  0  0  0  0  0  0  0  0  0
   -0.3013    0.2965   -0.6963 H   0  0  0  0  0  0  0  0  0  0  0  0
   -1.2479   -0.4124    0.8700 H   0  0  0  0  0  0  0  0  0  0  0  0
   -2.2356   -0.0084   -0.5547 H   0  0  0  0  0  0  0  0  0  0  0  0
  1  2  1  0
  1  6  1  0
  1  7  1  0
  1 27  1  0
  2  3  1  0
  2  8  1  0
  2  9  1  0
  3  4  1  0
  4  5  1  0
  4 10  1  0
  4 11  1  0
  5 12  1  0
  5 13  1  0
  5 14  1  0
 15 16  1  0
 15 20  1  0
 15 21  1  0
 15 22  1  0
 16 17  1  0
 16 23  1  0
 16 24  1  0
 17 18  1  0
 17 25  1  0
 17 26  1  0
 18 19  1  0
 19 28  1  0
 19 29  1  0
M  RAD  1  19   2
M  END
>  <reaction>  (11) 
rmg_rxn_669

>  <mol_properties>  (11) 
{"0": {"label": "*3", "atom_type": "Cs"}, "1": {"label": "*4", "atom_type": "Cs"}, "17": {"label": "*0", "atom_type": "O2s"}, "18": {"label": "*1", "atom_type": "Cs"}, "26": {"label": "*2", "atom_type": "H0"}}

>  <type>  (11) 
unop_7

>  <geom_source>  (11) 
Heuristics

$$$$

     RDKit          3D

 29 27  0  0  0  0  0  0  0  0999 V2000
    0.1667    1.4608    1.0218 C   0  0  0  0  0  0  0  0  0  0  0  0
   -0.2297    2.1366   -0.2804 C   0  0  0  0  0  0  0  0  0  0  0  0
    0.2447    1.2424   -1.7816 S   0  0  0  0  0  0  0  0  0  0  0  0
    2.0478    1.1751   -1.6318 C   0  0  0  0  0  0  0  0  0  0  0  0
    2.7390    2.5277   -1.5828 C   0  0  0  0  0  0  0  0  0  0  0  0
    1.2513    1.4135    1.1332 H   0  0  0  0  0  0  0  0  0  0  0  0
   -0.2259    2.0204    1.8737 H   0  0  0  0  0  0  0  0  0  0  0  0
    0.1599    3.1550   -0.3257 H   0  0  0  0  0  0  0  0  0  0  0  0
   -1.3157    2.2120   -0.3557 H   0  0  0  0  0  0  0  0  0  0  0  0
    2.3181    0.5673   -0.7667 H   0  0  0  0  0  0  0  0  0  0  0  0
    2.3610    0.6187   -2.5169 H   0  0  0  0  0  0  0  0  0  0  0  0
    2.4688    3.0818   -0.6823 H   0  0  0  0  0  0  0  0  0  0  0  0
    3.8235    2.3986   -1.5750 H   0  0  0  0  0  0  0  0  0  0  0  0
    2.4685    3.1347   -2.4475 H   0  0  0  0  0  0  0  0  0  0  0  0
   -0.5577   -3.3712   -0.2840 C   0  0  0  0  0  0  0  0  0  0  0  0
   -0.5577   -3.3712    1.2389 C   0  0  0  0  0  0  0  0  0  0  0  0
   -0.5577   -1.9786    1.8349 C   0  0  0  0  0  0  0  0  0  0  0  0
   -1.7427   -1.3151    1.4708 O   0  0  0  0  0  0  0  0  0  0  0  0
   -1.8035   -0.0040    1.9560 C   0  0  0  0  0  3  0  0  0  0  0  0
    0.3247   -2.8575   -0.6737 H   0  0  0  0  0  0  0  0  0  0  0  0
   -1.4401   -2.8613   -0.6704 H   0  0  0  0  0  0  0  0  0  0  0  0
   -0.5527   -4.3892   -0.6763 H   0  0  0  0  0  0  0  0  0  0  0  0
   -1.4318   -3.9093    1.6145 H   0  0  0  0  0  0  0  0  0  0  0  0
    0.3241   -3.8973    1.6151 H   0  0  0  0  0  0  0  0  0  0  0  0
   -0.4808   -2.0323    2.9310 H   0  0  0  0  0  0  0  0  0  0  0  0
    0.3147   -1.4116    1.4727 H   0  0  0  0  0  0  0  0  0  0  0  0
   -0.8148    0.7310    1.4872 H   0  0  0  0  0  0  0  0  0  0  0  0
   -1.7615    0.0221    3.0534 H   0  0  0  0  0  0  0  0  0  0  0  0
   -2.7492    0.4261    1.6288 H   0  0  0  0  0  0  0  0  0  0  0  0
  1  2  1  0
  1  6  1  0
  1  7  1  0
  1 27  1  0
  2  3  1  0
  2  8  1  0
  2  9  1  0
  3  4  1  0
  4  5  1  0
  4 10  1  0
  4 11  1  0
  5 12  1  0
  5 13  1  0
  5 14  1  0
 15 16  1  0
 15 20  1  0
 15 21  1  0
 15 22  1  0
 16 17  1  0
 16 23  1  0
 16 24  1  0
 17 18  1  0
 17 25  1  0
 17 26  1  0
 18 19  1  0
 19 28  1  0
 19 29  1  0
M  RAD  1  19   2
M  END
>  <reaction>  (12) 
rmg_rxn_669

>  <mol_properties>  (12) 
{"0": {"label": "*3", "atom_type": "Cs"}, "1": {"label": "*4", "atom_type": "Cs"}, "17": {"label": "*0", "atom_type": "O2s"}, "18": {"label": "*1", "atom_type": "Cs"}, "26": {"label": "*2", "atom_type": "H0"}}

>  <type>  (12) 
unop_8

>  <geom_source>  (12) 
Heuristics

$$$$

     RDKit          3D

 29 27  0  0  0  0  0  0  0  0999 V2000
   -0.2665    2.1814   -0.7043 C   0  0  0  0  0  0  0  0  0  0  0  0
    0.9629    1.3294   -0.9731 C   0  0  0  0  0  0  0  0  0  0  0  0
    1.2504    0.0021    0.2243 S   0  0  0  0  0  0  0  0  0  0  0  0
    1.4483    0.9206    1.7720 C   0  0  0  0  0  0  0  0  0  0  0  0
    2.6044    1.9069    1.7899 C   0  0  0  0  0  0  0  0  0  0  0  0
   -0.1656    2.7468    0.2237 H   0  0  0  0  0  0  0  0  0  0  0  0
   -0.4123    2.9015   -1.5125 H   0  0  0  0  0  0  0  0  0  0  0  0
    1.8577    1.9493   -1.0502 H   0  0  0  0  0  0  0  0  0  0  0  0
    0.8620    0.8036   -1.9239 H   0  0  0  0  0  0  0  0  0  0  0  0
    0.5090    1.4161    2.0231 H   0  0  0  0  0  0  0  0  0  0  0  0
    1.6014    0.1401    2.5191 H   0  0  0  0  0  0  0  0  0  0  0  0
    2.4485    2.7181    1.0767 H   0  0  0  0  0  0  0  0  0  0  0  0
    2.7035    2.3562    2.7805 H   0  0  0  0  0  0  0  0  0  0  0  0
    3.5429    1.4114    1.5389 H   0  0  0  0  0  0  0  0  0  0  0  0
   -0.9909   -2.6506   -2.0101 C   0  0  0  0  0  0  0  0  0  0  0  0
   -0.9909   -2.6506   -0.4872 C   0  0  0  0  0  0  0  0  0  0  0  0
   -0.9909   -1.2580    0.1089 C   0  0  0  0  0  0  0  0  0  0  0  0
   -2.1760   -0.5946   -0.2553 O   0  0  0  0  0  0  0  0  0  0  0  0
   -2.2367    0.7165    0.2299 C   0  0  0  0  0  3  0  0  0  0  0  0
   -0.1085   -2.1370   -2.3998 H   0  0  0  0  0  0  0  0  0  0  0  0
   -1.8734   -2.1407   -2.3965 H   0  0  0  0  0  0  0  0  0  0  0  0
   -0.9860   -3.6686   -2.4024 H   0  0  0  0  0  0  0  0  0  0  0  0
   -1.8650   -3.1888   -0.1116 H   0  0  0  0  0  0  0  0  0  0  0  0
   -0.1092   -3.1768   -0.1109 H   0  0  0  0  0  0  0  0  0  0  0  0
   -0.9141   -1.3117    1.2049 H   0  0  0  0  0  0  0  0  0  0  0  0
   -0.1185   -0.6910   -0.2533 H   0  0  0  0  0  0  0  0  0  0  0  0
   -1.2481    1.4516   -0.2389 H   0  0  0  0  0  0  0  0  0  0  0  0
   -2.1947    0.7426    1.3274 H   0  0  0  0  0  0  0  0  0  0  0  0
   -3.1824    1.1467   -0.0972 H   0  0  0  0  0  0  0  0  0  0  0  0
  1  2  1  0
  1  6  1  0
  1  7  1  0
  1 27  1  0
  2  3  1  0
  2  8  1  0
  2  9  1  0
  3  4  1  0
  4  5  1  0
  4 10  1  0
  4 11  1  0
  5 12  1  0
  5 13  1  0
  5 14  1  0
 15 16  1  0
 15 20  1  0
 15 21  1  0
 15 22  1  0
 16 17  1  0
 16 23  1  0
 16 24  1  0
 17 18  1  0
 17 25  1  0
 17 26  1  0
 18 19  1  0
 19 28  1  0
 19 29  1  0
M  RAD  1  19   2
M  END
>  <reaction>  (13) 
rmg_rxn_669

>  <mol_properties>  (13) 
{"0": {"label": "*3", "atom_type": "Cs"}, "1": {"label": "*4", "atom_type": "Cs"}, "17": {"label": "*0", "atom_type": "O2s"}, "18": {"label": "*1", "atom_type": "Cs"}, "26": {"label": "*2", "atom_type": "H0"}}

>  <type>  (13) 
unop_9

>  <geom_source>  (13) 
Heuristics

$$$$

     RDKit          3D

 29 27  0  0  0  0  0  0  0  0999 V2000
   -0.1125    1.8653    0.8386 C   0  0  0  0  0  0  0  0  0  0  0  0
   -0.1584    1.9323   -0.6790 C   0  0  0  0  0  0  0  0  0  0  0  0
    0.6944    0.5810   -1.5304 S   0  0  0  0  0  0  0  0  0  0  0  0
    2.3964    0.7743   -0.9438 C   0  0  0  0  0  0  0  0  0  0  0  0
    3.0456    2.1055   -1.2844 C   0  0  0  0  0  0  0  0  0  0  0  0
    0.9057    1.9837    1.2130 H   0  0  0  0  0  0  0  0  0  0  0  0
   -0.7159    2.6664    1.2714 H   0  0  0  0  0  0  0  0  0  0  0  0
    0.2256    2.8883   -1.0390 H   0  0  0  0  0  0  0  0  0  0  0  0
   -1.1875    1.8535   -1.0332 H   0  0  0  0  0  0  0  0  0  0  0  0
    2.4342    0.5854    0.1303 H   0  0  0  0  0  0  0  0  0  0  0  0
    2.9316   -0.0454   -1.4260 H   0  0  0  0  0  0  0  0  0  0  0  0
    2.5479    2.9339   -0.7774 H   0  0  0  0  0  0  0  0  0  0  0  0
    4.0912    2.1088   -0.9684 H   0  0  0  0  0  0  0  0  0  0  0  0
    3.0076    2.2939   -2.3579 H   0  0  0  0  0  0  0  0  0  0  0  0
   -0.8369   -2.9667   -0.4672 C   0  0  0  0  0  0  0  0  0  0  0  0
   -0.8369   -2.9667    1.0557 C   0  0  0  0  0  0  0  0  0  0  0  0
   -0.8369   -1.5741    1.6517 C   0  0  0  0  0  0  0  0  0  0  0  0
   -2.0219   -0.9106    1.2876 O   0  0  0  0  0  0  0  0  0  0  0  0
   -2.0827    0.4005    1.7728 C   0  0  0  0  0  3  0  0  0  0  0  0
    0.0455   -2.4530   -0.8569 H   0  0  0  0  0  0  0  0  0  0  0  0
   -1.7193   -2.4568   -0.8536 H   0  0  0  0  0  0  0  0  0  0  0  0
   -0.8320   -3.9846   -0.8595 H   0  0  0  0  0  0  0  0  0  0  0  0
   -1.7110   -3.5048    1.4313 H   0  0  0  0  0  0  0  0  0  0  0  0
    0.0448   -3.4928    1.4319 H   0  0  0  0  0  0  0  0  0  0  0  0
   -0.7601   -1.6278    2.7478 H   0  0  0  0  0  0  0  0  0  0  0  0
    0.0355   -1.0070    1.2895 H   0  0  0  0  0  0  0  0  0  0  0  0
   -1.0941    1.1355    1.3040 H   0  0  0  0  0  0  0  0  0  0  0  0
   -2.0407    0.4266    2.8702 H   0  0  0  0  0  0  0  0  0  0  0  0
   -3.0284    0.8306    1.4456 H   0  0  0  0  0  0  0  0  0  0  0  0
  1  2  1  0
  1  6  1  0
  1  7  1  0
  1 27  1  0
  2  3  1  0
  2  8  1  0
  2  9  1  0
  3  4  1  0
  4  5  1  0
  4 10  1  0
  4 11  1  0
  5 12  1  0
  5 13  1  0
  5 14  1  0
 15 16  1  0
 15 20  1  0
 15 21  1  0
 15 22  1  0
 16 17  1  0
 16 23  1  0
 16 24  1  0
 17 18  1  0
 17 25  1  0
 17 26  1  0
 18 19  1  0
 19 28  1  0
 19 29  1  0
M  RAD  1  19   2
M  END
>  <reaction>  (14) 
rmg_rxn_669

>  <mol_properties>  (14) 
{"0": {"label": "*3", "atom_type": "Cs"}, "1": {"label": "*4", "atom_type": "Cs"}, "17": {"label": "*0", "atom_type": "O2s"}, "18": {"label": "*1", "atom_type": "Cs"}, "26": {"label": "*2", "atom_type": "H0"}}

>  <type>  (14) 
unop_10

>  <geom_source>  (14) 
Heuristics

$$$$

     RDKit          3D

 29 27  0  0  0  0  0  0  0  0999 V2000
    1.0488    0.6412   -0.6808 C   0  0  0  0  0  0  0  0  0  0  0  0
    1.4368    1.7252    0.3112 C   0  0  0  0  0  0  0  0  0  0  0  0
    0.1125    2.2478    1.4299 S   0  0  0  0  0  0  0  0  0  0  0  0
   -1.1378    2.8691    0.2770 C   0  0  0  0  0  0  0  0  0  0  0  0
   -0.6892    4.0338   -0.5901 C   0  0  0  0  0  0  0  0  0  0  0  0
    0.2978    0.9973   -1.3880 H   0  0  0  0  0  0  0  0  0  0  0  0
    1.9207    0.3276   -1.2592 H   0  0  0  0  0  0  0  0  0  0  0  0
    1.8432    2.5975   -0.2033 H   0  0  0  0  0  0  0  0  0  0  0  0
    2.2172    1.3651    0.9836 H   0  0  0  0  0  0  0  0  0  0  0  0
   -1.5074    2.0458   -0.3365 H   0  0  0  0  0  0  0  0  0  0  0  0
   -1.9612    3.1718    0.9259 H   0  0  0  0  0  0  0  0  0  0  0  0
    0.1072    3.7382   -1.2751 H   0  0  0  0  0  0  0  0  0  0  0  0
   -1.5225    4.3988   -1.1945 H   0  0  0  0  0  0  0  0  0  0  0  0
   -0.3198    4.8563    0.0234 H   0  0  0  0  0  0  0  0  0  0  0  0
    0.3244   -4.1907   -1.9867 C   0  0  0  0  0  0  0  0  0  0  0  0
    0.3244   -4.1907   -0.4638 C   0  0  0  0  0  0  0  0  0  0  0  0
    0.3244   -2.7982    0.1323 C   0  0  0  0  0  0  0  0  0  0  0  0
   -0.8606   -2.1347   -0.2318 O   0  0  0  0  0  0  0  0  0  0  0  0
   -0.9214   -0.8236    0.2533 C   0  0  0  0  0  3  0  0  0  0  0  0
    1.2068   -3.6771   -2.3764 H   0  0  0  0  0  0  0  0  0  0  0  0
   -0.5580   -3.6808   -2.3731 H   0  0  0  0  0  0  0  0  0  0  0  0
    0.3293   -5.2087   -2.3790 H   0  0  0  0  0  0  0  0  0  0  0  0
   -0.5497   -4.7289   -0.0881 H   0  0  0  0  0  0  0  0  0  0  0  0
    1.2062   -4.7169   -0.0875 H   0  0  0  0  0  0  0  0  0  0  0  0
    0.4013   -2.8519    1.2284 H   0  0  0  0  0  0  0  0  0  0  0  0
    1.1968   -2.2311   -0.2299 H   0  0  0  0  0  0  0  0  0  0  0  0
    0.0673   -0.0885   -0.2154 H   0  0  0  0  0  0  0  0  0  0  0  0
   -0.8794   -0.7975    1.3508 H   0  0  0  0  0  0  0  0  0  0  0  0
   -1.8671   -0.3935   -0.0738 H   0  0  0  0  0  0  0  0  0  0  0  0
  1  2  1  0
  1  6  1  0
  1  7  1  0
  1 27  1  0
  2  3  1  0
  2  8  1  0
  2  9  1  0
  3  4  1  0
  4  5  1  0
  4 10  1  0
  4 11  1  0
  5 12  1  0
  5 13  1  0
  5 14  1  0
 15 16  1  0
 15 20  1  0
 15 21  1  0
 15 22  1  0
 16 17  1  0
 16 23  1  0
 16 24  1  0
 17 18  1  0
 17 25  1  0
 17 26  1  0
 18 19  1  0
 19 28  1  0
 19 29  1  0
M  RAD  1  19   2
M  END
>  <reaction>  (15) 
rmg_rxn_669

>  <mol_properties>  (15) 
{"0": {"label": "*3", "atom_type": "Cs"}, "1": {"label": "*4", "atom_type": "Cs"}, "17": {"label": "*0", "atom_type": "O2s"}, "18": {"label": "*1", "atom_type": "Cs"}, "26": {"label": "*2", "atom_type": "H0"}}

>  <type>  (15) 
unop_11

>  <geom_source>  (15) 
Heuristics

$$$$

     RDKit          3D

 29 27  0  0  0  0  0  0  0  0999 V2000
   -0.3874    2.2891   -0.1658 C   0  0  0  0  0  0  0  0  0  0  0  0
    0.5055    1.4741   -1.0867 C   0  0  0  0  0  0  0  0  0  0  0  0
    1.1741   -0.0427   -0.3583 S   0  0  0  0  0  0  0  0  0  0  0  0
    2.1298    0.5951    1.0410 C   0  0  0  0  0  0  0  0  0  0  0  0
    3.2575    1.5435    0.6692 C   0  0  0  0  0  0  0  0  0  0  0  0
    0.1713    2.6863    0.6834 H   0  0  0  0  0  0  0  0  0  0  0  0
   -0.8121    3.1389   -0.7048 H   0  0  0  0  0  0  0  0  0  0  0  0
    1.3242    2.0822   -1.4749 H   0  0  0  0  0  0  0  0  0  0  0  0
   -0.0597    1.1198   -1.9503 H   0  0  0  0  0  0  0  0  0  0  0  0
    1.4536    1.0569    1.7624 H   0  0  0  0  0  0  0  0  0  0  0  0
    2.5280   -0.3039    1.5144 H   0  0  0  0  0  0  0  0  0  0  0  0
    2.8748    2.4669    0.2313 H   0  0  0  0  0  0  0  0  0  0  0  0
    3.8318    1.8157    1.5576 H   0  0  0  0  0  0  0  0  0  0  0  0
    3.9330    1.0817   -0.0518 H   0  0  0  0  0  0  0  0  0  0  0  0
   -1.1118   -2.5429   -1.4716 C   0  0  0  0  0  0  0  0  0  0  0  0
   -1.1118   -2.5429    0.0513 C   0  0  0  0  0  0  0  0  0  0  0  0
   -1.1118   -1.1503    0.6474 C   0  0  0  0  0  0  0  0  0  0  0  0
   -2.2968   -0.4868    0.2832 O   0  0  0  0  0  0  0  0  0  0  0  0
   -2.3576    0.8243    0.7684 C   0  0  0  0  0  3  0  0  0  0  0  0
   -0.2294   -2.0292   -1.8613 H   0  0  0  0  0  0  0  0  0  0  0  0
   -1.9942   -2.0330   -1.8580 H   0  0  0  0  0  0  0  0  0  0  0  0
   -1.1068   -3.5609   -1.8639 H   0  0  0  0  0  0  0  0  0  0  0  0
   -1.9859   -3.0810    0.4269 H   0  0  0  0  0  0  0  0  0  0  0  0
   -0.2300   -3.0690    0.4276 H   0  0  0  0  0  0  0  0  0  0  0  0
   -1.0349   -1.2040    1.7434 H   0  0  0  0  0  0  0  0  0  0  0  0
   -0.2394   -0.5833    0.2852 H   0  0  0  0  0  0  0  0  0  0  0  0
   -1.3689    1.5593    0.2996 H   0  0  0  0  0  0  0  0  0  0  0  0
   -2.3156    0.8504    1.8659 H   0  0  0  0  0  0  0  0  0  0  0  0
   -3.3033    1.2544    0.4413 H   0  0  0  0  0  0  0  0  0  0  0  0
  1  2  1  0
  1  6  1  0
  1  7  1  0
  1 27  1  0
  2  3  1  0
  2  8  1  0
  2  9  1  0
  3  4  1  0
  4  5  1  0
  4 10  1  0
  4 11  1  0
  5 12  1  0
  5 13  1  0
  5 14  1  0
 15 16  1  0
 15 20  1  0
 15 21  1  0
 15 22  1  0
 16 17  1  0
 16 23  1  0
 16 24  1  0
 17 18  1  0
 17 25  1  0
 17 26  1  0
 18 19  1  0
 19 28  1  0
 19 29  1  0
M  RAD  1  19   2
M  END
>  <reaction>  (16) 
rmg_rxn_669

>  <mol_properties>  (16) 
{"0": {"label": "*3", "atom_type": "Cs"}, "1": {"label": "*4", "atom_type": "Cs"}, "17": {"label": "*0", "atom_type": "O2s"}, "18": {"label": "*1", "atom_type": "Cs"}, "26": {"label": "*2", "atom_type": "H0"}}

>  <type>  (16) 
unop_12

>  <geom_source>  (16) 
Heuristics

$$$$

     RDKit          3D

 29 27  0  0  0  0  0  0  0  0999 V2000
    1.9439    0.1577    1.0791 S   0  0  0  0  0  0  0  0  0  0  0  0
   -2.5578    0.4132   -1.0722 O   0  0  0  0  0  0  0  0  0  0  0  0
   -3.9002   -0.8432    0.4752 C   0  0  0  0  0  0  0  0  0  0  0  0
   -2.5161   -0.6457   -0.1453 C   0  0  0  0  0  0  0  0  0  0  0  0
    3.5159    1.0231    0.7247 C   0  0  0  0  0  0  0  0  0  0  0  0
    1.9122   -0.8709   -0.4323 C   0  0  0  0  0  0  0  0  0  0  0  0
   -4.3289    0.3638    1.3074 C   0  0  0  0  0  0  0  0  0  0  0  0
    4.6967    0.2327    1.2727 C   0  0  0  0  0  0  0  0  0  0  0  0
    1.2120   -0.1318   -1.5636 C   0  0  0  0  0  0  0  0  0  0  0  0
   -1.2681    0.5542   -1.6023 C   0  0  0  0  0  3  0  0  0  0  0  0
   -3.8788   -1.7412    1.1299 H   0  0  0  0  0  0  0  0  0  0  0  0
   -4.6465   -1.0205   -0.3294 H   0  0  0  0  0  0  0  0  0  0  0  0
    3.4861    2.0139    1.2249 H   0  0  0  0  0  0  0  0  0  0  0  0
    3.6464    1.1957   -0.3641 H   0  0  0  0  0  0  0  0  0  0  0  0
    2.9359   -1.1650   -0.7451 H   0  0  0  0  0  0  0  0  0  0  0  0
    1.3438   -1.7976   -0.2082 H   0  0  0  0  0  0  0  0  0  0  0  0
   -1.7820   -0.4374    0.6688 H   0  0  0  0  0  0  0  0  0  0  0  0
   -2.2315   -1.5960   -0.6549 H   0  0  0  0  0  0  0  0  0  0  0  0
    5.6383    0.7882    1.0787 H   0  0  0  0  0  0  0  0  0  0  0  0
    4.5854    0.0910    2.3686 H   0  0  0  0  0  0  0  0  0  0  0  0
    4.7626   -0.7603    0.7816 H   0  0  0  0  0  0  0  0  0  0  0  0
    1.1652   -0.7831   -2.4615 H   0  0  0  0  0  0  0  0  0  0  0  0
    1.7639    0.7951   -1.8245 H   0  0  0  0  0  0  0  0  0  0  0  0
    0.0057    0.1762   -1.2078 H   0  0  0  0  0  0  0  0  0  0  0  0
   -3.6008    0.5467    2.1261 H   0  0  0  0  0  0  0  0  0  0  0  0
   -4.4001    1.2704    0.6698 H   0  0  0  0  0  0  0  0  0  0  0  0
   -5.3255    0.1691    1.7564 H   0  0  0  0  0  0  0  0  0  0  0  0
   -1.3072    0.4436   -2.7058 H   0  0  0  0  0  0  0  0  0  0  0  0
   -0.8704    1.5583   -1.3469 H   0  0  0  0  0  0  0  0  0  0  0  0
  1  5  1  0
  1  6  1  0
  2 10  1  0
  2  4  1  0
  3  7  1  0
  3  4  1  0
  3 11  1  0
  3 12  1  0
  4 17  1  0
  4 18  1  0
  5  8  1  0
  5 13  1  0
  5 14  1  0
  6  9  1  0
  6 15  1  0
  6 16  1  0
  7 25  1  0
  7 26  1  0
  7 27  1  0
  8 19  1  0
  8 20  1  0
  8 21  1  0
  9 22  1  0
  9 23  1  0
  9 24  1  0
 10 28  1  0
 10 29  1  0
M  RAD  1  10   2
M  END
>  <reaction>  (17) 
rmg_rxn_669

>  <mol_properties>  (17) 
{"0": {"label": "*3", "atom_type": "Cs"}, "1": {"label": "*4", "atom_type": "Cs"}, "17": {"label": "*0", "atom_type": "O2s"}, "18": {"label": "*1", "atom_type": "Cs"}, "26": {"label": "*2", "atom_type": "H0"}}

>  <type>  (17) 
unop_13

>  <geom_source>  (17) 
AutoTST

$$$$

     RDKit          3D

 29 27  0  0  0  0  0  0  0  0999 V2000
   -0.3310    2.1737    0.4098 C   0  0  0  0  0  0  0  0  0  0  0  0
    0.0950    1.6950   -0.9683 C   0  0  0  0  0  0  0  0  0  0  0  0
    1.0184    0.1377   -0.9853 S   0  0  0  0  0  0  0  0  0  0  0  0
    2.4712    0.5445    0.0158 C   0  0  0  0  0  0  0  0  0  0  0  0
    3.3305    1.6734   -0.5289 C   0  0  0  0  0  0  0  0  0  0  0  0
    0.5312    2.4280    1.0285 H   0  0  0  0  0  0  0  0  0  0  0  0
   -0.9491    3.0703    0.3248 H   0  0  0  0  0  0  0  0  0  0  0  0
    0.6694    2.4637   -1.4878 H   0  0  0  0  0  0  0  0  0  0  0  0
   -0.7796    1.4848   -1.5861 H   0  0  0  0  0  0  0  0  0  0  0  0
    2.1596    0.7512    1.0410 H   0  0  0  0  0  0  0  0  0  0  0  0
    3.0378   -0.3878    0.0414 H   0  0  0  0  0  0  0  0  0  0  0  0
    2.7928    2.6230   -0.5236 H   0  0  0  0  0  0  0  0  0  0  0  0
    4.2242    1.7996    0.0861 H   0  0  0  0  0  0  0  0  0  0  0  0
    3.6415    1.4665   -1.5535 H   0  0  0  0  0  0  0  0  0  0  0  0
   -1.0554   -2.6582   -0.8961 C   0  0  0  0  0  0  0  0  0  0  0  0
   -1.0554   -2.6582    0.6268 C   0  0  0  0  0  0  0  0  0  0  0  0
   -1.0554   -1.2657    1.2229 C   0  0  0  0  0  0  0  0  0  0  0  0
   -2.2405   -0.6022    0.8588 O   0  0  0  0  0  0  0  0  0  0  0  0
   -2.3013    0.7089    1.3439 C   0  0  0  0  0  3  0  0  0  0  0  0
   -0.1730   -2.1446   -1.2858 H   0  0  0  0  0  0  0  0  0  0  0  0
   -1.9379   -2.1483   -1.2825 H   0  0  0  0  0  0  0  0  0  0  0  0
   -1.0505   -3.6762   -1.2884 H   0  0  0  0  0  0  0  0  0  0  0  0
   -1.9295   -3.1964    1.0025 H   0  0  0  0  0  0  0  0  0  0  0  0
   -0.1737   -3.1844    1.0031 H   0  0  0  0  0  0  0  0  0  0  0  0
   -0.9786   -1.3194    2.3190 H   0  0  0  0  0  0  0  0  0  0  0  0
   -0.1830   -0.6986    0.8607 H   0  0  0  0  0  0  0  0  0  0  0  0
   -1.3126    1.4440    0.8751 H   0  0  0  0  0  0  0  0  0  0  0  0
   -2.2593    0.7350    2.4414 H   0  0  0  0  0  0  0  0  0  0  0  0
   -3.2469    1.1390    1.0168 H   0  0  0  0  0  0  0  0  0  0  0  0
  1  2  1  0
  1  6  1  0
  1  7  1  0
  1 27  1  0
  2  3  1  0
  2  8  1  0
  2  9  1  0
  3  4  1  0
  4  5  1  0
  4 10  1  0
  4 11  1  0
  5 12  1  0
  5 13  1  0
  5 14  1  0
 15 16  1  0
 15 20  1  0
 15 21  1  0
 15 22  1  0
 16 17  1  0
 16 23  1  0
 16 24  1  0
 17 18  1  0
 17 25  1  0
 17 26  1  0
 18 19  1  0
 19 28  1  0
 19 29  1  0
M  RAD  1  19   2
M  END
>  <reaction>  (18) 
rmg_rxn_669

>  <mol_properties>  (18) 
{"0": {"label": "*3", "atom_type": "Cs"}, "1": {"label": "*4", "atom_type": "Cs"}, "17": {"label": "*0", "atom_type": "O2s"}, "18": {"label": "*1", "atom_type": "Cs"}, "26": {"label": "*2", "atom_type": "H0"}}

>  <type>  (18) 
unop_14

>  <geom_source>  (18) 
gaussian_log

$$$$
