
     RDKit          3D

  5  4  0  0  0  0  0  0  0  0999 V2000
   -0.4583    0.0384    0.1517 N   0  0  0  0  0  0  0  0  0  0  0  0
    0.7454   -0.3487    0.5322 N   0  0  0  0  0  0  0  0  0  0  0  0
    0.7566   -1.0388    1.5193 O   0  0  0  0  0  0  0  0  0  0  0  0
   -1.2688   -0.2521    0.6850 H   0  0  0  0  0  0  0  0  0  0  0  0
   -0.5137    0.6154   -0.6670 H   0  0  0  0  0  0  0  0  0  0  0  0
  1  2  1  0
  1  4  1  0
  1  5  1  0
  2  3  2  0
M  END
>  <reaction>  (1) 
rmg_rxn_15576

>  <mol_properties>  (1) 
{"0": {"label": "donator", "atom_type": "N3s"}, "3": {"label": "d_hydrogen", "atom_type": "H0"}}

>  <type>  (1) 
r1h

$$$$

     RDKit          3D

  8  7  0  0  0  0  0  0  0  0999 V2000
    1.7077   -0.1964   -0.0607 C   0  0  0  0  0  3  0  0  0  0  0  0
    0.4209   -0.4565    0.2808 O   0  0  0  0  0  0  0  0  0  0  0  0
   -0.4607    0.4385   -0.2968 N   0  0  0  0  0  0  0  0  0  0  0  0
   -1.6584    0.1416   -0.0244 C   0  0  0  0  0  0  0  0  0  0  0  0
    2.4163   -0.7685    0.5170 H   0  0  0  0  0  0  0  0  0  0  0  0
    1.9214    0.7645   -0.5045 H   0  0  0  0  0  0  0  0  0  0  0  0
   -2.4185    0.7953   -0.4307 H   0  0  0  0  0  0  0  0  0  0  0  0
   -1.9286   -0.7185    0.5831 H   0  0  0  0  0  0  0  0  0  0  0  0
  1  2  1  0
  1  5  1  0
  1  6  1  0
  2  3  1  0
  3  4  2  3
  4  7  1  0
  4  8  1  0
M  RAD  1   1   2
M  END
>  <reaction>  (2) 
rmg_rxn_15576

>  <mol_properties>  (2) 
{"0": {"label": "acceptor", "atom_type": "Cs"}}

>  <type>  (2) 
r2

$$$$

     RDKit          3D

  9  8  0  0  0  0  0  0  0  0999 V2000
   -1.5470   -0.0755   -0.1976 C   0  0  0  0  0  0  0  0  0  0  0  0
   -0.2885    0.4507    0.1749 O   0  0  0  0  0  0  0  0  0  0  0  0
   -0.1502    1.7216   -0.3294 N   0  0  0  0  0  0  0  0  0  0  0  0
    0.9626    2.2353   -0.0219 C   0  0  0  0  0  0  0  0  0  0  0  0
   -1.6392   -0.1356   -1.2844 H   0  0  0  0  0  0  0  0  0  0  0  0
   -2.3597    0.5337    0.2044 H   0  0  0  0  0  0  0  0  0  0  0  0
   -1.5879   -1.0750    0.2318 H   0  0  0  0  0  0  0  0  0  0  0  0
    1.1497    3.2381   -0.3820 H   0  0  0  0  0  0  0  0  0  0  0  0
    1.7060    1.7101    0.5739 H   0  0  0  0  0  0  0  0  0  0  0  0
  1  2  1  0
  1  5  1  0
  1  6  1  0
  1  7  1  0
  2  3  1  0
  3  4  2  3
  4  8  1  0
  4  9  1  0
M  END
>  <reaction>  (3) 
rmg_rxn_15576

>  <mol_properties>  (3) 
{"0": {"label": "a_hydrogen", "atom_type": "H0"}, "1": {"label": "acceptor", "atom_type": "Cs"}}

>  <type>  (3) 
r2h

$$$$

     RDKit          3D

 13 11  0  0  0  0  0  0  0  0999 V2000
    0.6433   -1.2316    1.0924 N   0  0  0  0  0  0  0  0  0  0  0  0
   -0.0350   -2.2495    0.6934 N   0  0  0  0  0  0  0  0  0  0  0  0
   -0.0664   -2.5092   -0.4836 O   0  0  0  0  0  0  0  0  0  0  0  0
    0.8699   -0.3488    0.1916 H   0  0  0  0  0  0  0  0  0  0  0  0
    0.4324   -0.9757    2.0502 H   0  0  0  0  0  0  0  0  0  0  0  0
    0.9281    0.5979   -0.7625 C   0  0  0  0  0  3  0  0  0  0  0  0
   -0.2574    1.2933   -0.7625 O   0  0  0  0  0  0  0  0  0  0  0  0
   -0.3544    2.1027    0.3562 N   0  0  0  0  0  0  0  0  0  0  0  0
   -1.4576    2.7174    0.3817 C   0  0  0  0  0  0  0  0  0  0  0  0
    1.0291    0.0729   -1.7062 H   0  0  0  0  0  0  0  0  0  0  0  0
    1.7886    1.1934   -0.4553 H   0  0  0  0  0  0  0  0  0  0  0  0
   -1.6201    3.3798    1.2216 H   0  0  0  0  0  0  0  0  0  0  0  0
   -2.2133    2.6000   -0.3910 H   0  0  0  0  0  0  0  0  0  0  0  0
  1  2  1  0
  1  4  1  0
  1  5  1  0
  2  3  2  0
  6  7  1  0
  6 10  1  0
  6 11  1  0
  7  8  1  0
  8  9  2  3
  9 12  1  0
  9 13  1  0
M  RAD  1   6   2
M  END
>  <reaction>  (4) 
rmg_rxn_15576

>  <mol_properties>  (4) 
{"0": {"label": "*1", "atom_type": "N3s"}, "1": {"label": "*0", "atom_type": "N3d"}, "3": {"label": "*2", "atom_type": "H0"}, "5": {"label": "*3", "atom_type": "Cs"}, "6": {"label": "*4", "atom_type": "O2s"}}

>  <type>  (4) 
ts

$$$$

     RDKit          3D

 13 11  0  0  0  0  0  0  0  0999 V2000
    1.4031   -1.1716   -0.0773 N   0  0  0  0  0  0  0  0  0  0  0  0
    1.9206   -0.0864    0.2636 N   0  0  0  0  0  0  0  0  0  0  0  0
    1.5149    1.0226   -0.0068 O   0  0  0  0  0  1  0  0  0  0  0  0
    0.1264   -1.3410   -0.3511 H   0  0  0  0  0  0  0  0  0  0  0  0
    1.8775   -1.9815    0.3131 H   0  0  0  0  0  0  0  0  0  0  0  0
   -1.1307   -1.3561   -0.4661 C   0  0  0  0  0  0  0  0  0  0  0  0
   -1.6501   -0.4725    0.4807 O   0  0  0  0  0  0  0  0  0  0  0  0
   -1.3973    0.8542    0.4120 N   0  0  0  0  0  0  0  0  0  0  0  0
   -0.7718    1.3809   -0.5533 C   0  0  0  0  0  0  0  0  0  0  0  0
   -1.5098   -2.3379   -0.2007 H   0  0  0  0  0  0  0  0  0  0  0  0
   -1.3701   -1.0927   -1.4979 H   0  0  0  0  0  0  0  0  0  0  0  0
   -0.6316    2.4447   -0.4872 H   0  0  0  0  0  0  0  0  0  0  0  0
   -0.4445    0.8916   -1.4667 H   0  0  0  0  0  0  0  0  0  0  0  0
  1  2  2  3
  1  5  1  0
  2  3  1  0
  4  6  1  0
  6  7  1  0
  6 10  1  0
  6 11  1  0
  7  8  1  0
  8  9  2  3
  9 12  1  0
  9 13  1  0
M  RAD  1   3   2
M  END
>  <reaction>  (5) 
rmg_rxn_15576

>  <mol_properties>  (5) 
{"0": {"label": "*1", "atom_type": "N3s"}, "1": {"label": "*0", "atom_type": "N3d"}, "3": {"label": "*2", "atom_type": "H0"}, "5": {"label": "*3", "atom_type": "Cs"}, "6": {"label": "*4", "atom_type": "O2s"}}

>  <type>  (5) 
unop_1

>  <geom_source>  (5) 
crest_best.xyz

$$$$

     RDKit          3D

 13 11  0  0  0  0  0  0  0  0999 V2000
    0.5669   -1.5666    1.0007 N   0  0  0  0  0  0  0  0  0  0  0  0
    0.5669   -2.7694    0.4560 N   0  0  0  0  0  0  0  0  0  0  0  0
    0.5669   -2.7694   -0.7485 O   0  0  0  0  0  0  0  0  0  0  0  0
    0.5669   -0.5840    0.2855 H   0  0  0  0  0  0  0  0  0  0  0  0
    0.5669   -1.5203    2.0028 H   0  0  0  0  0  0  0  0  0  0  0  0
    0.5669    0.4722   -0.4833 C   0  0  0  0  0  3  0  0  0  0  0  0
   -0.6119    1.1827   -0.1586 O   0  0  0  0  0  0  0  0  0  0  0  0
   -0.3621    2.5337   -0.1911 N   0  0  0  0  0  0  0  0  0  0  0  0
   -1.3891    3.2128    0.0932 C   0  0  0  0  0  0  0  0  0  0  0  0
    0.9105    0.7243   -1.4890 H   0  0  0  0  0  0  0  0  0  0  0  0
    1.3607    0.6826    0.2370 H   0  0  0  0  0  0  0  0  0  0  0  0
   -1.2754    4.2886    0.0895 H   0  0  0  0  0  0  0  0  0  0  0  0
   -2.3468    2.7552    0.3319 H   0  0  0  0  0  0  0  0  0  0  0  0
  1  2  1  0
  1  4  1  0
  1  5  1  0
  2  3  2  0
  6  7  1  0
  6 10  1  0
  6 11  1  0
  7  8  1  0
  8  9  2  3
  9 12  1  0
  9 13  1  0
M  RAD  1   6   2
M  END
>  <reaction>  (6) 
rmg_rxn_15576

>  <mol_properties>  (6) 
{"0": {"label": "*1", "atom_type": "N3s"}, "1": {"label": "*0", "atom_type": "N3d"}, "3": {"label": "*2", "atom_type": "H0"}, "5": {"label": "*3", "atom_type": "Cs"}, "6": {"label": "*4", "atom_type": "O2s"}}

>  <type>  (6) 
unop_2

>  <geom_source>  (6) 
Heuristics

$$$$

     RDKit          3D

 13 11  0  0  0  0  0  0  0  0999 V2000
    0.4847   -0.9094    1.9974 N   0  0  0  0  0  0  0  0  0  0  0  0
    0.4847   -2.1122    1.4526 N   0  0  0  0  0  0  0  0  0  0  0  0
    0.4847   -2.1122    0.2481 O   0  0  0  0  0  0  0  0  0  0  0  0
    0.4847    0.0732    1.2822 H   0  0  0  0  0  0  0  0  0  0  0  0
    0.4847   -0.8630    2.9995 H   0  0  0  0  0  0  0  0  0  0  0  0
    0.4847    1.1295    0.5134 C   0  0  0  0  0  3  0  0  0  0  0  0
   -0.1958    0.7457   -0.6652 O   0  0  0  0  0  0  0  0  0  0  0  0
   -0.6084    1.8654   -1.3471 N   0  0  0  0  0  0  0  0  0  0  0  0
   -1.2236    1.5726   -2.4113 C   0  0  0  0  0  0  0  0  0  0  0  0
    1.3713    1.7223    0.2773 H   0  0  0  0  0  0  0  0  0  0  0  0
   -0.1707    1.7006    1.1747 H   0  0  0  0  0  0  0  0  0  0  0  0
   -1.5823    2.4009   -3.0076 H   0  0  0  0  0  0  0  0  0  0  0  0
   -1.3928    0.5453   -2.7268 H   0  0  0  0  0  0  0  0  0  0  0  0
  1  2  1  0
  1  4  1  0
  1  5  1  0
  2  3  2  0
  6  7  1  0
  6 10  1  0
  6 11  1  0
  7  8  1  0
  8  9  2  3
  9 12  1  0
  9 13  1  0
M  RAD  1   6   2
M  END
>  <reaction>  (7) 
rmg_rxn_15576

>  <mol_properties>  (7) 
{"0": {"label": "*1", "atom_type": "N3s"}, "1": {"label": "*0", "atom_type": "N3d"}, "3": {"label": "*2", "atom_type": "H0"}, "5": {"label": "*3", "atom_type": "Cs"}, "6": {"label": "*4", "atom_type": "O2s"}}

>  <type>  (7) 
unop_3

>  <geom_source>  (7) 
Heuristics

$$$$

     RDKit          3D

 13 11  0  0  0  0  0  0  0  0999 V2000
    0.2474   -1.6937    0.8899 N   0  0  0  0  0  0  0  0  0  0  0  0
    0.2474   -2.8966    0.3452 N   0  0  0  0  0  0  0  0  0  0  0  0
    0.2474   -2.8966   -0.8593 O   0  0  0  0  0  0  0  0  0  0  0  0
    0.2474   -0.7111    0.1747 H   0  0  0  0  0  0  0  0  0  0  0  0
    0.2474   -1.6474    1.8920 H   0  0  0  0  0  0  0  0  0  0  0  0
    0.2474    0.3451   -0.5940 C   0  0  0  0  0  3  0  0  0  0  0  0
   -0.4332    1.3487    0.1334 O   0  0  0  0  0  0  0  0  0  0  0  0
   -0.0063    2.5887   -0.2777 N   0  0  0  0  0  0  0  0  0  0  0  0
   -0.5880    3.5212    0.3458 C   0  0  0  0  0  0  0  0  0  0  0  0
    0.0428    0.4311   -1.6636 H   0  0  0  0  0  0  0  0  0  0  0  0
    1.3247    0.4011   -0.4229 H   0  0  0  0  0  0  0  0  0  0  0  0
   -0.3069    4.5314    0.0797 H   0  0  0  0  0  0  0  0  0  0  0  0
   -1.3357    3.3356    1.1139 H   0  0  0  0  0  0  0  0  0  0  0  0
  1  2  1  0
  1  4  1  0
  1  5  1  0
  2  3  2  0
  6  7  1  0
  6 10  1  0
  6 11  1  0
  7  8  1  0
  8  9  2  3
  9 12  1  0
  9 13  1  0
M  RAD  1   6   2
M  END
>  <reaction>  (8) 
rmg_rxn_15576

>  <mol_properties>  (8) 
{"0": {"label": "*1", "atom_type": "N3s"}, "1": {"label": "*0", "atom_type": "N3d"}, "3": {"label": "*2", "atom_type": "H0"}, "5": {"label": "*3", "atom_type": "Cs"}, "6": {"label": "*4", "atom_type": "O2s"}}

>  <type>  (8) 
unop_4

>  <geom_source>  (8) 
Heuristics

$$$$

     RDKit          3D

 13 11  0  0  0  0  0  0  0  0999 V2000
   -0.7703   -1.1080    1.6653 N   0  0  0  0  0  0  0  0  0  0  0  0
   -0.7703   -2.3109    1.1205 N   0  0  0  0  0  0  0  0  0  0  0  0
   -0.7703   -2.3109   -0.0840 O   0  0  0  0  0  0  0  0  0  0  0  0
   -0.7703   -0.1254    0.9500 H   0  0  0  0  0  0  0  0  0  0  0  0
   -0.7703   -1.0617    2.6673 H   0  0  0  0  0  0  0  0  0  0  0  0
   -0.7703    0.9308    0.1813 C   0  0  0  0  0  3  0  0  0  0  0  0
    0.4084    0.8403   -0.5946 O   0  0  0  0  0  0  0  0  0  0  0  0
    0.8781    2.1016   -0.8723 N   0  0  0  0  0  0  0  0  0  0  0  0
    1.9339    2.0724   -1.5660 C   0  0  0  0  0  0  0  0  0  0  0  0
   -0.5746    1.4313    1.1323 H   0  0  0  0  0  0  0  0  0  0  0  0
   -1.5535    1.4673   -0.3591 H   0  0  0  0  0  0  0  0  0  0  0  0
    2.3684    3.0279   -1.8280 H   0  0  0  0  0  0  0  0  0  0  0  0
    2.3957    1.1428   -1.8916 H   0  0  0  0  0  0  0  0  0  0  0  0
  1  2  1  0
  1  4  1  0
  1  5  1  0
  2  3  2  0
  6  7  1  0
  6 10  1  0
  6 11  1  0
  7  8  1  0
  8  9  2  3
  9 12  1  0
  9 13  1  0
M  RAD  1   6   2
M  END
>  <reaction>  (9) 
rmg_rxn_15576

>  <mol_properties>  (9) 
{"0": {"label": "*1", "atom_type": "N3s"}, "1": {"label": "*0", "atom_type": "N3d"}, "3": {"label": "*2", "atom_type": "H0"}, "5": {"label": "*3", "atom_type": "Cs"}, "6": {"label": "*4", "atom_type": "O2s"}}

>  <type>  (9) 
unop_5

>  <geom_source>  (9) 
Heuristics

$$$$

     RDKit          3D

 13 11  0  0  0  0  0  0  0  0999 V2000
    0.0000   -1.7304    0.9004 N   0  0  0  0  0  0  0  0  0  0  0  0
    0.0000   -2.9332    0.3556 N   0  0  0  0  0  0  0  0  0  0  0  0
    0.0000   -2.9332   -0.8489 O   0  0  0  0  0  0  0  0  0  0  0  0
    0.0000   -0.7478    0.1852 H   0  0  0  0  0  0  0  0  0  0  0  0
    0.0000   -1.6841    1.9025 H   0  0  0  0  0  0  0  0  0  0  0  0
    0.0000    0.3084   -0.5836 C   0  0  0  0  0  3  0  0  0  0  0  0
    0.0000    1.4194    0.2913 O   0  0  0  0  0  0  0  0  0  0  0  0
   -0.0000    2.5838   -0.4387 N   0  0  0  0  0  0  0  0  0  0  0  0
   -0.0000    3.6077    0.3017 C   0  0  0  0  0  0  0  0  0  0  0  0
   -0.8921    0.3075   -1.2139 H   0  0  0  0  0  0  0  0  0  0  0  0
    0.8921    0.3075   -1.2139 H   0  0  0  0  0  0  0  0  0  0  0  0
   -0.0000    4.5673   -0.1978 H   0  0  0  0  0  0  0  0  0  0  0  0
    0.0000    3.5456    1.3878 H   0  0  0  0  0  0  0  0  0  0  0  0
  1  2  1  0
  1  4  1  0
  1  5  1  0
  2  3  2  0
  6  7  1  0
  6 10  1  0
  6 11  1  0
  7  8  1  0
  8  9  2  3
  9 12  1  0
  9 13  1  0
M  RAD  1   6   2
M  END
>  <reaction>  (10) 
rmg_rxn_15576

>  <mol_properties>  (10) 
{"0": {"label": "*1", "atom_type": "N3s"}, "1": {"label": "*0", "atom_type": "N3d"}, "3": {"label": "*2", "atom_type": "H0"}, "5": {"label": "*3", "atom_type": "Cs"}, "6": {"label": "*4", "atom_type": "O2s"}}

>  <type>  (10) 
unop_6

>  <geom_source>  (10) 
Heuristics

$$$$

     RDKit          3D

 13 11  0  0  0  0  0  0  0  0999 V2000
   -0.7846   -1.3536    1.2881 N   0  0  0  0  0  0  0  0  0  0  0  0
   -0.7846   -2.5564    0.7433 N   0  0  0  0  0  0  0  0  0  0  0  0
   -0.7846   -2.5564   -0.4612 O   0  0  0  0  0  0  0  0  0  0  0  0
   -0.7846   -0.3709    0.5729 H   0  0  0  0  0  0  0  0  0  0  0  0
   -0.7846   -1.3072    2.2902 H   0  0  0  0  0  0  0  0  0  0  0  0
   -0.7846    0.6853   -0.1959 C   0  0  0  0  0  3  0  0  0  0  0  0
    0.5765    0.9953   -0.4215 O   0  0  0  0  0  0  0  0  0  0  0  0
    0.7478    2.3589   -0.4178 N   0  0  0  0  0  0  0  0  0  0  0  0
    1.9521    2.6861   -0.6162 C   0  0  0  0  0  0  0  0  0  0  0  0
   -1.1150    1.0608    0.7752 H   0  0  0  0  0  0  0  0  0  0  0  0
   -1.4161    1.1033   -0.9830 H   0  0  0  0  0  0  0  0  0  0  0  0
    2.1710    3.7454   -0.6281 H   0  0  0  0  0  0  0  0  0  0  0  0
    2.7411    1.9529   -0.7691 H   0  0  0  0  0  0  0  0  0  0  0  0
  1  2  1  0
  1  4  1  0
  1  5  1  0
  2  3  2  0
  6  7  1  0
  6 10  1  0
  6 11  1  0
  7  8  1  0
  8  9  2  3
  9 12  1  0
  9 13  1  0
M  RAD  1   6   2
M  END
>  <reaction>  (11) 
rmg_rxn_15576

>  <mol_properties>  (11) 
{"0": {"label": "*1", "atom_type": "N3s"}, "1": {"label": "*0", "atom_type": "N3d"}, "3": {"label": "*2", "atom_type": "H0"}, "5": {"label": "*3", "atom_type": "Cs"}, "6": {"label": "*4", "atom_type": "O2s"}}

>  <type>  (11) 
unop_7

>  <geom_source>  (11) 
Heuristics

$$$$

     RDKit          3D

 13 11  0  0  0  0  0  0  0  0999 V2000
    1.4022   -1.1722    0.0776 N   0  0  0  0  0  0  0  0  0  0  0  0
    1.9201   -0.0873   -0.2636 N   0  0  0  0  0  0  0  0  0  0  0  0
    1.5146    1.0220    0.0063 O   0  0  0  0  0  1  0  0  0  0  0  0
    0.1253   -1.3413    0.3508 H   0  0  0  0  0  0  0  0  0  0  0  0
    1.8768   -1.9823   -0.3121 H   0  0  0  0  0  0  0  0  0  0  0  0
   -1.1319   -1.3560    0.4653 C   0  0  0  0  0  0  0  0  0  0  0  0
   -1.6507   -0.4711   -0.4807 O   0  0  0  0  0  0  0  0  0  0  0  0
   -1.3960    0.8552   -0.4115 N   0  0  0  0  0  0  0  0  0  0  0  0
   -0.7694    1.3806    0.5538 C   0  0  0  0  0  0  0  0  0  0  0  0
   -1.3711   -1.0934    1.4973 H   0  0  0  0  0  0  0  0  0  0  0  0
   -1.5115   -2.3373    0.1990 H   0  0  0  0  0  0  0  0  0  0  0  0
   -0.6280    2.4443    0.4882 H   0  0  0  0  0  0  0  0  0  0  0  0
   -0.4433    0.8906    1.4671 H   0  0  0  0  0  0  0  0  0  0  0  0
  1  2  2  3
  1  5  1  0
  2  3  1  0
  4  6  1  0
  6  7  1  0
  6 10  1  0
  6 11  1  0
  7  8  1  0
  8  9  2  3
  9 12  1  0
  9 13  1  0
M  RAD  1   3   2
M  END
>  <reaction>  (12) 
rmg_rxn_15576

>  <mol_properties>  (12) 
{"0": {"label": "*1", "atom_type": "N3s"}, "1": {"label": "*0", "atom_type": "N3d"}, "3": {"label": "*2", "atom_type": "H0"}, "5": {"label": "*3", "atom_type": "Cs"}, "6": {"label": "*4", "atom_type": "O2s"}}

>  <type>  (12) 
unop_8

>  <geom_source>  (12) 
Heuristics

$$$$

     RDKit          3D

 13 11  0  0  0  0  0  0  0  0999 V2000
   -0.5669   -1.5666    1.0007 N   0  0  0  0  0  0  0  0  0  0  0  0
   -0.5669   -2.7694    0.4560 N   0  0  0  0  0  0  0  0  0  0  0  0
   -0.5669   -2.7694   -0.7485 O   0  0  0  0  0  0  0  0  0  0  0  0
   -0.5669   -0.5840    0.2855 H   0  0  0  0  0  0  0  0  0  0  0  0
   -0.5669   -1.5203    2.0028 H   0  0  0  0  0  0  0  0  0  0  0  0
   -0.5669    0.4722   -0.4833 C   0  0  0  0  0  3  0  0  0  0  0  0
    0.6119    1.1827   -0.1586 O   0  0  0  0  0  0  0  0  0  0  0  0
    0.3621    2.5337   -0.1911 N   0  0  0  0  0  0  0  0  0  0  0  0
    1.3891    3.2128    0.0932 C   0  0  0  0  0  0  0  0  0  0  0  0
   -1.3607    0.6826    0.2370 H   0  0  0  0  0  0  0  0  0  0  0  0
   -0.9105    0.7243   -1.4890 H   0  0  0  0  0  0  0  0  0  0  0  0
    1.2754    4.2886    0.0895 H   0  0  0  0  0  0  0  0  0  0  0  0
    2.3468    2.7552    0.3319 H   0  0  0  0  0  0  0  0  0  0  0  0
  1  2  1  0
  1  4  1  0
  1  5  1  0
  2  3  2  0
  6  7  1  0
  6 10  1  0
  6 11  1  0
  7  8  1  0
  8  9  2  3
  9 12  1  0
  9 13  1  0
M  RAD  1   6   2
M  END
>  <reaction>  (13) 
rmg_rxn_15576

>  <mol_properties>  (13) 
{"0": {"label": "*1", "atom_type": "N3s"}, "1": {"label": "*0", "atom_type": "N3d"}, "3": {"label": "*2", "atom_type": "H0"}, "5": {"label": "*3", "atom_type": "Cs"}, "6": {"label": "*4", "atom_type": "O2s"}}

>  <type>  (13) 
unop_9

>  <geom_source>  (13) 
Heuristics

$$$$

     RDKit          3D

 13 11  0  0  0  0  0  0  0  0999 V2000
    0.7846   -1.3536    1.2881 N   0  0  0  0  0  0  0  0  0  0  0  0
    0.7846   -2.5564    0.7433 N   0  0  0  0  0  0  0  0  0  0  0  0
    0.7846   -2.5564   -0.4612 O   0  0  0  0  0  0  0  0  0  0  0  0
    0.7846   -0.3709    0.5729 H   0  0  0  0  0  0  0  0  0  0  0  0
    0.7846   -1.3072    2.2902 H   0  0  0  0  0  0  0  0  0  0  0  0
    0.7846    0.6853   -0.1959 C   0  0  0  0  0  3  0  0  0  0  0  0
   -0.5765    0.9953   -0.4215 O   0  0  0  0  0  0  0  0  0  0  0  0
   -0.7478    2.3589   -0.4179 N   0  0  0  0  0  0  0  0  0  0  0  0
   -1.9521    2.6861   -0.6162 C   0  0  0  0  0  0  0  0  0  0  0  0
    1.4161    1.1033   -0.9830 H   0  0  0  0  0  0  0  0  0  0  0  0
    1.1150    1.0608    0.7752 H   0  0  0  0  0  0  0  0  0  0  0  0
   -2.1710    3.7454   -0.6281 H   0  0  0  0  0  0  0  0  0  0  0  0
   -2.7411    1.9529   -0.7690 H   0  0  0  0  0  0  0  0  0  0  0  0
  1  2  1  0
  1  4  1  0
  1  5  1  0
  2  3  2  0
  6  7  1  0
  6 10  1  0
  6 11  1  0
  7  8  1  0
  8  9  2  3
  9 12  1  0
  9 13  1  0
M  RAD  1   6   2
M  END
>  <reaction>  (14) 
rmg_rxn_15576

>  <mol_properties>  (14) 
{"0": {"label": "*1", "atom_type": "N3s"}, "1": {"label": "*0", "atom_type": "N3d"}, "3": {"label": "*2", "atom_type": "H0"}, "5": {"label": "*3", "atom_type": "Cs"}, "6": {"label": "*4", "atom_type": "O2s"}}

>  <type>  (14) 
unop_10

>  <geom_source>  (14) 
Heuristics

$$$$

     RDKit          3D

 13 11  0  0  0  0  0  0  0  0999 V2000
    1.4031   -1.1716   -0.0773 N   0  0  0  0  0  0  0  0  0  0  0  0
    1.9206   -0.0864    0.2636 N   0  0  0  0  0  0  0  0  0  0  0  0
    1.5149    1.0226   -0.0068 O   0  0  0  0  0  1  0  0  0  0  0  0
    0.1264   -1.3410   -0.3511 H   0  0  0  0  0  0  0  0  0  0  0  0
    1.8775   -1.9815    0.3131 H   0  0  0  0  0  0  0  0  0  0  0  0
   -1.1307   -1.3561   -0.4661 C   0  0  0  0  0  0  0  0  0  0  0  0
   -1.6501   -0.4725    0.4807 O   0  0  0  0  0  0  0  0  0  0  0  0
   -1.3973    0.8542    0.4120 N   0  0  0  0  0  0  0  0  0  0  0  0
   -0.7718    1.3809   -0.5533 C   0  0  0  0  0  0  0  0  0  0  0  0
   -1.5098   -2.3379   -0.2007 H   0  0  0  0  0  0  0  0  0  0  0  0
   -1.3701   -1.0927   -1.4979 H   0  0  0  0  0  0  0  0  0  0  0  0
   -0.6316    2.4447   -0.4872 H   0  0  0  0  0  0  0  0  0  0  0  0
   -0.4445    0.8916   -1.4667 H   0  0  0  0  0  0  0  0  0  0  0  0
  1  2  2  3
  1  5  1  0
  2  3  1  0
  4  6  1  0
  6  7  1  0
  6 10  1  0
  6 11  1  0
  7  8  1  0
  8  9  2  3
  9 12  1  0
  9 13  1  0
M  RAD  1   3   2
M  END
>  <reaction>  (15) 
rmg_rxn_15576

>  <mol_properties>  (15) 
{"0": {"label": "*1", "atom_type": "N3s"}, "1": {"label": "*0", "atom_type": "N3d"}, "3": {"label": "*2", "atom_type": "H0"}, "5": {"label": "*3", "atom_type": "Cs"}, "6": {"label": "*4", "atom_type": "O2s"}}

>  <type>  (15) 
unop_11

>  <geom_source>  (15) 
Heuristics

$$$$

     RDKit          3D

 13 11  0  0  0  0  0  0  0  0999 V2000
   -0.4847   -0.9094    1.9974 N   0  0  0  0  0  0  0  0  0  0  0  0
   -0.4847   -2.1122    1.4526 N   0  0  0  0  0  0  0  0  0  0  0  0
   -0.4847   -2.1122    0.2481 O   0  0  0  0  0  0  0  0  0  0  0  0
   -0.4847    0.0732    1.2822 H   0  0  0  0  0  0  0  0  0  0  0  0
   -0.4847   -0.8630    2.9995 H   0  0  0  0  0  0  0  0  0  0  0  0
   -0.4848    1.1295    0.5134 C   0  0  0  0  0  3  0  0  0  0  0  0
    0.1958    0.7457   -0.6652 O   0  0  0  0  0  0  0  0  0  0  0  0
    0.6084    1.8654   -1.3471 N   0  0  0  0  0  0  0  0  0  0  0  0
    1.2236    1.5726   -2.4113 C   0  0  0  0  0  0  0  0  0  0  0  0
    0.1707    1.7006    1.1747 H   0  0  0  0  0  0  0  0  0  0  0  0
   -1.3713    1.7223    0.2773 H   0  0  0  0  0  0  0  0  0  0  0  0
    1.5823    2.4009   -3.0075 H   0  0  0  0  0  0  0  0  0  0  0  0
    1.3928    0.5453   -2.7269 H   0  0  0  0  0  0  0  0  0  0  0  0
  1  2  1  0
  1  4  1  0
  1  5  1  0
  2  3  2  0
  6  7  1  0
  6 10  1  0
  6 11  1  0
  7  8  1  0
  8  9  2  3
  9 12  1  0
  9 13  1  0
M  RAD  1   6   2
M  END
>  <reaction>  (16) 
rmg_rxn_15576

>  <mol_properties>  (16) 
{"0": {"label": "*1", "atom_type": "N3s"}, "1": {"label": "*0", "atom_type": "N3d"}, "3": {"label": "*2", "atom_type": "H0"}, "5": {"label": "*3", "atom_type": "Cs"}, "6": {"label": "*4", "atom_type": "O2s"}}

>  <type>  (16) 
unop_12

>  <geom_source>  (16) 
Heuristics

$$$$

     RDKit          3D

 13 11  0  0  0  0  0  0  0  0999 V2000
    0.7703   -1.1080    1.6653 N   0  0  0  0  0  0  0  0  0  0  0  0
    0.7703   -2.3109    1.1205 N   0  0  0  0  0  0  0  0  0  0  0  0
    0.7703   -2.3109   -0.0840 O   0  0  0  0  0  0  0  0  0  0  0  0
    0.7703   -0.1254    0.9500 H   0  0  0  0  0  0  0  0  0  0  0  0
    0.7703   -1.0617    2.6674 H   0  0  0  0  0  0  0  0  0  0  0  0
    0.7703    0.9308    0.1813 C   0  0  0  0  0  3  0  0  0  0  0  0
   -0.4084    0.8403   -0.5946 O   0  0  0  0  0  0  0  0  0  0  0  0
   -0.8781    2.1016   -0.8723 N   0  0  0  0  0  0  0  0  0  0  0  0
   -1.9339    2.0724   -1.5660 C   0  0  0  0  0  0  0  0  0  0  0  0
    1.5535    1.4673   -0.3591 H   0  0  0  0  0  0  0  0  0  0  0  0
    0.5746    1.4313    1.1323 H   0  0  0  0  0  0  0  0  0  0  0  0
   -2.3684    3.0279   -1.8281 H   0  0  0  0  0  0  0  0  0  0  0  0
   -2.3958    1.1428   -1.8916 H   0  0  0  0  0  0  0  0  0  0  0  0
  1  2  1  0
  1  4  1  0
  1  5  1  0
  2  3  2  0
  6  7  1  0
  6 10  1  0
  6 11  1  0
  7  8  1  0
  8  9  2  3
  9 12  1  0
  9 13  1  0
M  RAD  1   6   2
M  END
>  <reaction>  (17) 
rmg_rxn_15576

>  <mol_properties>  (17) 
{"0": {"label": "*1", "atom_type": "N3s"}, "1": {"label": "*0", "atom_type": "N3d"}, "3": {"label": "*2", "atom_type": "H0"}, "5": {"label": "*3", "atom_type": "Cs"}, "6": {"label": "*4", "atom_type": "O2s"}}

>  <type>  (17) 
unop_13

>  <geom_source>  (17) 
Heuristics

$$$$

     RDKit          3D

 13 11  0  0  0  0  0  0  0  0999 V2000
   -0.2473   -1.6937    0.8899 N   0  0  0  0  0  0  0  0  0  0  0  0
   -0.2473   -2.8966    0.3452 N   0  0  0  0  0  0  0  0  0  0  0  0
   -0.2473   -2.8966   -0.8593 O   0  0  0  0  0  0  0  0  0  0  0  0
   -0.2473   -0.7111    0.1747 H   0  0  0  0  0  0  0  0  0  0  0  0
   -0.2473   -1.6474    1.8920 H   0  0  0  0  0  0  0  0  0  0  0  0
   -0.2473    0.3451   -0.5940 C   0  0  0  0  0  3  0  0  0  0  0  0
    0.4332    1.3487    0.1334 O   0  0  0  0  0  0  0  0  0  0  0  0
    0.0063    2.5887   -0.2777 N   0  0  0  0  0  0  0  0  0  0  0  0
    0.5880    3.5212    0.3458 C   0  0  0  0  0  0  0  0  0  0  0  0
   -1.3247    0.4011   -0.4229 H   0  0  0  0  0  0  0  0  0  0  0  0
   -0.0428    0.4311   -1.6636 H   0  0  0  0  0  0  0  0  0  0  0  0
    0.3068    4.5314    0.0798 H   0  0  0  0  0  0  0  0  0  0  0  0
    1.3357    3.3356    1.1139 H   0  0  0  0  0  0  0  0  0  0  0  0
  1  2  1  0
  1  4  1  0
  1  5  1  0
  2  3  2  0
  6  7  1  0
  6 10  1  0
  6 11  1  0
  7  8  1  0
  8  9  2  3
  9 12  1  0
  9 13  1  0
M  RAD  1   6   2
M  END
>  <reaction>  (18) 
rmg_rxn_15576

>  <mol_properties>  (18) 
{"0": {"label": "*1", "atom_type": "N3s"}, "1": {"label": "*0", "atom_type": "N3d"}, "3": {"label": "*2", "atom_type": "H0"}, "5": {"label": "*3", "atom_type": "Cs"}, "6": {"label": "*4", "atom_type": "O2s"}}

>  <type>  (18) 
unop_14

>  <geom_source>  (18) 
Heuristics

$$$$

     RDKit          3D

 13 11  0  0  0  0  0  0  0  0999 V2000
   -0.0000   -0.8324    2.1342 N   0  0  0  0  0  0  0  0  0  0  0  0
   -0.0000   -2.0352    1.5894 N   0  0  0  0  0  0  0  0  0  0  0  0
   -0.0000   -2.0352    0.3849 O   0  0  0  0  0  0  0  0  0  0  0  0
   -0.0000    0.1502    1.4190 H   0  0  0  0  0  0  0  0  0  0  0  0
   -0.0000   -0.7861    3.1363 H   0  0  0  0  0  0  0  0  0  0  0  0
   -0.0000    1.2064    0.6502 C   0  0  0  0  0  3  0  0  0  0  0  0
   -0.0000    0.7154   -0.6759 O   0  0  0  0  0  0  0  0  0  0  0  0
    0.0000    1.7680   -1.5595 N   0  0  0  0  0  0  0  0  0  0  0  0
    0.0000    1.3781   -2.7615 C   0  0  0  0  0  0  0  0  0  0  0  0
    0.8921    1.8059    0.8448 H   0  0  0  0  0  0  0  0  0  0  0  0
   -0.8921    1.8059    0.8448 H   0  0  0  0  0  0  0  0  0  0  0  0
    0.0000    2.1484   -3.5210 H   0  0  0  0  0  0  0  0  0  0  0  0
   -0.0000    0.3255   -3.0362 H   0  0  0  0  0  0  0  0  0  0  0  0
  1  2  1  0
  1  4  1  0
  1  5  1  0
  2  3  2  0
  6  7  1  0
  6 10  1  0
  6 11  1  0
  7  8  1  0
  8  9  2  3
  9 12  1  0
  9 13  1  0
M  RAD  1   6   2
M  END
>  <reaction>  (19) 
rmg_rxn_15576

>  <mol_properties>  (19) 
{"0": {"label": "*1", "atom_type": "N3s"}, "1": {"label": "*0", "atom_type": "N3d"}, "3": {"label": "*2", "atom_type": "H0"}, "5": {"label": "*3", "atom_type": "Cs"}, "6": {"label": "*4", "atom_type": "O2s"}}

>  <type>  (19) 
unop_15

>  <geom_source>  (19) 
Heuristics

$$$$

     RDKit          3D

 13 11  0  0  0  0  0  0  0  0999 V2000
    0.4847   -0.9094    1.9974 N   0  0  0  0  0  0  0  0  0  0  0  0
    0.4847   -2.1122    1.4526 N   0  0  0  0  0  0  0  0  0  0  0  0
    0.4847   -2.1122    0.2481 O   0  0  0  0  0  0  0  0  0  0  0  0
    0.4847    0.0732    1.2822 H   0  0  0  0  0  0  0  0  0  0  0  0
    0.4847   -0.8630    2.9995 H   0  0  0  0  0  0  0  0  0  0  0  0
    0.4847    1.1295    0.5134 C   0  0  0  0  0  3  0  0  0  0  0  0
   -0.1958    0.7457   -0.6652 O   0  0  0  0  0  0  0  0  0  0  0  0
   -0.6084    1.8654   -1.3471 N   0  0  0  0  0  0  0  0  0  0  0  0
   -1.2236    1.5726   -2.4113 C   0  0  0  0  0  0  0  0  0  0  0  0
    1.3713    1.7223    0.2773 H   0  0  0  0  0  0  0  0  0  0  0  0
   -0.1708    1.7006    1.1747 H   0  0  0  0  0  0  0  0  0  0  0  0
   -1.5823    2.4009   -3.0076 H   0  0  0  0  0  0  0  0  0  0  0  0
   -1.3928    0.5453   -2.7269 H   0  0  0  0  0  0  0  0  0  0  0  0
  1  2  1  0
  1  4  1  0
  1  5  1  0
  2  3  2  0
  6  7  1  0
  6 10  1  0
  6 11  1  0
  7  8  1  0
  8  9  2  3
  9 12  1  0
  9 13  1  0
M  RAD  1   6   2
M  END
>  <reaction>  (20) 
rmg_rxn_15576

>  <mol_properties>  (20) 
{"0": {"label": "*1", "atom_type": "N3s"}, "1": {"label": "*0", "atom_type": "N3d"}, "3": {"label": "*2", "atom_type": "H0"}, "5": {"label": "*3", "atom_type": "Cs"}, "6": {"label": "*4", "atom_type": "O2s"}}

>  <type>  (20) 
unop_16

>  <geom_source>  (20) 
gaussian_log

$$$$
