
     RDKit          3D

 14 14  0  0  0  0  0  0  0  0999 V2000
   -1.1778    0.2241    0.1818 C   0  0  0  0  0  0  0  0  0  0  0  0
   -0.5633   -1.1636    0.0678 C   0  0  0  0  0  0  0  0  0  0  0  0
    0.6943   -1.1996    0.7146 O   0  0  0  0  0  0  0  0  0  0  0  0
    1.5547   -0.2288    0.2011 C   0  0  0  0  0  0  0  0  0  0  0  0
    1.0729    1.0696    0.3698 O   0  0  0  0  0  0  0  0  0  0  0  0
   -0.1607    1.2493   -0.2989 C   0  0  0  0  0  0  0  0  0  0  0  0
   -2.0927    0.2866   -0.4117 H   0  0  0  0  0  0  0  0  0  0  0  0
   -1.4303    0.4248    1.2248 H   0  0  0  0  0  0  0  0  0  0  0  0
   -1.1822   -1.9235    0.5431 H   0  0  0  0  0  0  0  0  0  0  0  0
   -0.4389   -1.4347   -0.9919 H   0  0  0  0  0  0  0  0  0  0  0  0
    1.7250   -0.4207   -0.8742 H   0  0  0  0  0  0  0  0  0  0  0  0
    2.4896   -0.3010    0.7524 H   0  0  0  0  0  0  0  0  0  0  0  0
   -0.0080    1.1481   -1.3844 H   0  0  0  0  0  0  0  0  0  0  0  0
   -0.4826    2.2695   -0.0942 H   0  0  0  0  0  0  0  0  0  0  0  0
  1  2  1  0
  1  6  1  0
  1  7  1  0
  1  8  1  0
  2  3  1  0
  2  9  1  0
  2 10  1  0
  3  4  1  0
  4  5  1  0
  4 11  1  0
  4 12  1  0
  5  6  1  0
  6 13  1  0
  6 14  1  0
M  END
>  <reaction>  (1) 
rmg_rxn_188

>  <mol_properties>  (1) 
{"0": {"label": "donator", "atom_type": "Cs"}, "6": {"label": "d_hydrogen", "atom_type": "H0"}}

>  <type>  (1) 
r1h

$$$$

     RDKit          3D

  9  8  0  0  0  0  0  0  0  0999 V2000
    1.3246   -0.8124   -0.0809 C   0  0  0  0  0  2  0  0  0  0  0  0
    0.4082    0.3080    0.1518 C   0  0  0  0  0  0  0  0  0  0  0  0
   -1.0545   -0.0277   -0.1520 C   0  0  0  0  0  0  0  0  0  0  0  0
    2.3933   -0.9471    0.0203 H   0  0  0  0  0  0  0  0  0  0  0  0
    0.4898    0.6406    1.1970 H   0  0  0  0  0  0  0  0  0  0  0  0
    0.7134    1.1680   -0.4624 H   0  0  0  0  0  0  0  0  0  0  0  0
   -1.4014   -0.8515    0.4727 H   0  0  0  0  0  0  0  0  0  0  0  0
   -1.1767   -0.3214   -1.1952 H   0  0  0  0  0  0  0  0  0  0  0  0
   -1.6915    0.8372    0.0370 H   0  0  0  0  0  0  0  0  0  0  0  0
  1  2  1  0
  1  4  1  0
  2  3  1  0
  2  5  1  0
  2  6  1  0
  3  7  1  0
  3  8  1  0
  3  9  1  0
M  RAD  1   1   3
M  END
>  <reaction>  (2) 
rmg_rxn_188

>  <mol_properties>  (2) 
{"0": {"label": "acceptor", "atom_type": "Cs"}}

>  <type>  (2) 
r2

$$$$

     RDKit          3D

 10  9  0  0  0  0  0  0  0  0999 V2000
    1.4352    0.2660   -0.1351 C   0  0  0  0  0  3  0  0  0  0  0  0
    0.2236   -0.3243    0.4850 C   0  0  0  0  0  0  0  0  0  0  0  0
   -0.8893    0.6872    0.7364 C   0  0  0  0  0  0  0  0  0  0  0  0
    2.3577   -0.2958   -0.1940 H   0  0  0  0  0  0  0  0  0  0  0  0
    1.3935    1.2286   -0.6287 H   0  0  0  0  0  0  0  0  0  0  0  0
   -0.1633   -1.1318   -0.1556 H   0  0  0  0  0  0  0  0  0  0  0  0
    0.4945   -0.8215    1.4240 H   0  0  0  0  0  0  0  0  0  0  0  0
   -1.1991    1.1627   -0.1967 H   0  0  0  0  0  0  0  0  0  0  0  0
   -1.7660    0.2103    1.1768 H   0  0  0  0  0  0  0  0  0  0  0  0
   -0.5545    1.4732    1.4159 H   0  0  0  0  0  0  0  0  0  0  0  0
  1  2  1  0
  1  4  1  0
  1  5  1  0
  2  3  1  0
  2  6  1  0
  2  7  1  0
  3  8  1  0
  3  9  1  0
  3 10  1  0
M  RAD  1   1   2
M  END
>  <reaction>  (3) 
rmg_rxn_188

>  <mol_properties>  (3) 
{"0": {"label": "acceptor", "atom_type": "Cs"}, "9": {"label": "a_hydrogen", "atom_type": "H0"}}

>  <type>  (3) 
r2h

$$$$

     RDKit          3D

 23 22  0  0  0  0  0  0  0  0999 V2000
   -0.9055   -2.2175    1.0576 C   0  0  0  0  0  2  0  0  0  0  0  0
   -0.0892   -3.4417    0.9238 C   0  0  0  0  0  0  0  0  0  0  0  0
    1.2831   -3.2028    0.2975 C   0  0  0  0  0  0  0  0  0  0  0  0
   -1.9523   -2.1954    1.3398 H   0  0  0  0  0  0  0  0  0  0  0  0
    0.0428   -3.9039    1.9132 H   0  0  0  0  0  0  0  0  0  0  0  0
   -0.6371   -4.1847    0.3288 H   0  0  0  0  0  0  0  0  0  0  0  0
    1.8580   -2.4830    0.8833 H   0  0  0  0  0  0  0  0  0  0  0  0
    1.1838   -2.8096   -0.7158 H   0  0  0  0  0  0  0  0  0  0  0  0
    1.8554   -4.1295    0.2454 H   0  0  0  0  0  0  0  0  0  0  0  0
    0.1695    0.1895    0.6624 C   0  0  0  0  0  0  0  0  0  0  0  0
    0.7296    0.2108   -0.7391 C   0  0  0  0  0  0  0  0  0  0  0  0
    0.9982    1.5479   -1.1372 O   0  0  0  0  0  0  0  0  0  0  0  0
   -0.1399    2.3469   -1.0191 C   0  0  0  0  0  0  0  0  0  0  0  0
   -0.6150    2.4304    0.2904 O   0  0  0  0  0  0  0  0  0  0  0  0
   -0.9891    1.1502    0.7788 C   0  0  0  0  0  0  0  0  0  0  0  0
   -0.3228   -1.0055    0.8821 H   0  0  0  0  0  0  0  0  0  0  0  0
    0.9276    0.3371    1.4303 H   0  0  0  0  0  0  0  0  0  0  0  0
    1.6697   -0.3323   -0.8156 H   0  0  0  0  0  0  0  0  0  0  0  0
    0.0095   -0.2414   -1.4381 H   0  0  0  0  0  0  0  0  0  0  0  0
   -0.9369    1.9501   -1.6743 H   0  0  0  0  0  0  0  0  0  0  0  0
    0.1389    3.3526   -1.3261 H   0  0  0  0  0  0  0  0  0  0  0  0
   -1.8458    0.7759    0.1977 H   0  0  0  0  0  0  0  0  0  0  0  0
   -1.3076    1.2885    1.8106 H   0  0  0  0  0  0  0  0  0  0  0  0
  1  2  1  0
  1  4  1  0
  2  3  1  0
  2  5  1  0
  2  6  1  0
  3  7  1  0
  3  8  1  0
  3  9  1  0
 10 11  1  0
 10 15  1  0
 10 16  1  0
 10 17  1  0
 11 12  1  0
 11 18  1  0
 11 19  1  0
 12 13  1  0
 13 14  1  0
 13 20  1  0
 13 21  1  0
 14 15  1  0
 15 22  1  0
 15 23  1  0
M  RAD  1   1   3
M  END
>  <reaction>  (4) 
rmg_rxn_188

>  <mol_properties>  (4) 
{"0": {"label": "*3", "atom_type": "Cs"}, "1": {"label": "*4", "atom_type": "Cs"}, "9": {"label": "*1", "atom_type": "Cs"}, "10": {"label": "*0", "atom_type": "Cs"}, "15": {"label": "*2", "atom_type": "H0"}}

>  <type>  (4) 
ts

$$$$

     RDKit          3D

 23 22  0  0  0  0  0  0  0  0999 V2000
    0.0231   -2.1796    0.7984 C   0  0  0  0  0  3  0  0  0  0  0  0
    1.0645   -2.7898    1.6610 C   0  0  0  0  0  0  0  0  0  0  0  0
    0.5391   -3.2638    3.0116 C   0  0  0  0  0  0  0  0  0  0  0  0
   -1.0283   -2.3479    0.9937 H   0  0  0  0  0  0  0  0  0  0  0  0
    1.5265   -3.6406    1.1369 H   0  0  0  0  0  0  0  0  0  0  0  0
    1.8847   -2.0775    1.8094 H   0  0  0  0  0  0  0  0  0  0  0  0
   -0.2520   -4.0054    2.8813 H   0  0  0  0  0  0  0  0  0  0  0  0
    0.1244   -2.4307    3.5821 H   0  0  0  0  0  0  0  0  0  0  0  0
    1.3313   -3.7200    3.6069 H   0  0  0  0  0  0  0  0  0  0  0  0
    0.2969    0.2493   -0.1136 C   0  0  0  0  0  3  0  0  0  0  0  0
    0.2969    0.2493   -1.6357 C   0  0  0  0  0  0  0  0  0  0  0  0
    0.2969    1.5757   -2.1278 O   0  0  0  0  0  0  0  0  0  0  0  0
   -0.7859    2.3000   -1.6285 C   0  0  0  0  0  0  0  0  0  0  0  0
   -0.7746    2.4063   -0.2374 O   0  0  0  0  0  0  0  0  0  0  0  0
   -0.8425    1.1325    0.3745 C   0  0  0  0  0  0  0  0  0  0  0  0
    0.1593   -0.9711    0.3446 H   0  0  0  0  0  0  0  0  0  0  0  0
    1.2462    0.6478    0.2494 H   0  0  0  0  0  0  0  0  0  0  0  0
    1.1826   -0.2362   -2.0430 H   0  0  0  0  0  0  0  0  0  0  0  0
   -0.5906   -0.2820   -2.0124 H   0  0  0  0  0  0  0  0  0  0  0  0
   -1.7285    1.8219   -1.9527 H   0  0  0  0  0  0  0  0  0  0  0  0
   -0.7136    3.3081   -2.0304 H   0  0  0  0  0  0  0  0  0  0  0  0
   -1.8102    0.6634    0.1392 H   0  0  0  0  0  0  0  0  0  0  0  0
   -0.7973    1.2985    1.4499 H   0  0  0  0  0  0  0  0  0  0  0  0
  1  2  1  0
  1  4  1  0
  1 16  1  0
  2  3  1  0
  2  5  1  0
  2  6  1  0
  3  7  1  0
  3  8  1  0
  3  9  1  0
 10 11  1  0
 10 15  1  0
 10 17  1  0
 11 12  1  0
 11 18  1  0
 11 19  1  0
 12 13  1  0
 13 14  1  0
 13 20  1  0
 13 21  1  0
 14 15  1  0
 15 22  1  0
 15 23  1  0
M  RAD  2   1   2  10   2
M  END
>  <reaction>  (5) 
rmg_rxn_188

>  <mol_properties>  (5) 
{"0": {"label": "*3", "atom_type": "Cs"}, "1": {"label": "*4", "atom_type": "Cs"}, "9": {"label": "*1", "atom_type": "Cs"}, "10": {"label": "*0", "atom_type": "Cs"}, "15": {"label": "*2", "atom_type": "H0"}}

>  <type>  (5) 
unop_1

>  <geom_source>  (5) 
Heuristics

$$$$

     RDKit          3D

 23 22  0  0  0  0  0  0  0  0999 V2000
    0.0311   -1.9724    1.2209 C   0  0  0  0  0  3  0  0  0  0  0  0
    0.5411   -3.1349    0.4531 C   0  0  0  0  0  0  0  0  0  0  0  0
    0.9568   -4.3115    1.3293 C   0  0  0  0  0  0  0  0  0  0  0  0
   -0.2939   -2.0843    2.2474 H   0  0  0  0  0  0  0  0  0  0  0  0
   -0.2266   -3.4721   -0.2602 H   0  0  0  0  0  0  0  0  0  0  0  0
    1.3838   -2.8216   -0.1746 H   0  0  0  0  0  0  0  0  0  0  0  0
    0.1162   -4.6621    1.9320 H   0  0  0  0  0  0  0  0  0  0  0  0
    1.7592   -4.0244    2.0114 H   0  0  0  0  0  0  0  0  0  0  0  0
    1.3093   -5.1494    0.7262 H   0  0  0  0  0  0  0  0  0  0  0  0
    0.3049    0.4565    0.3088 C   0  0  0  0  0  3  0  0  0  0  0  0
    0.3049    0.4565   -1.2132 C   0  0  0  0  0  0  0  0  0  0  0  0
    0.3049    1.7829   -1.7053 O   0  0  0  0  0  0  0  0  0  0  0  0
   -0.7779    2.5072   -1.2060 C   0  0  0  0  0  0  0  0  0  0  0  0
   -0.7666    2.6135    0.1851 O   0  0  0  0  0  0  0  0  0  0  0  0
   -0.8345    1.3398    0.7969 C   0  0  0  0  0  0  0  0  0  0  0  0
    0.1673   -0.7638    0.7671 H   0  0  0  0  0  0  0  0  0  0  0  0
    1.2542    0.8551    0.6718 H   0  0  0  0  0  0  0  0  0  0  0  0
    1.1907   -0.0290   -1.6205 H   0  0  0  0  0  0  0  0  0  0  0  0
   -0.5826   -0.0747   -1.5899 H   0  0  0  0  0  0  0  0  0  0  0  0
   -1.7205    2.0292   -1.5302 H   0  0  0  0  0  0  0  0  0  0  0  0
   -0.7056    3.5154   -1.6080 H   0  0  0  0  0  0  0  0  0  0  0  0
   -1.8022    0.8707    0.5616 H   0  0  0  0  0  0  0  0  0  0  0  0
   -0.7892    1.5058    1.8724 H   0  0  0  0  0  0  0  0  0  0  0  0
  1  2  1  0
  1  4  1  0
  1 16  1  0
  2  3  1  0
  2  5  1  0
  2  6  1  0
  3  7  1  0
  3  8  1  0
  3  9  1  0
 10 11  1  0
 10 15  1  0
 10 17  1  0
 11 12  1  0
 11 18  1  0
 11 19  1  0
 12 13  1  0
 13 14  1  0
 13 20  1  0
 13 21  1  0
 14 15  1  0
 15 22  1  0
 15 23  1  0
M  RAD  2   1   2  10   2
M  END
>  <reaction>  (6) 
rmg_rxn_188

>  <mol_properties>  (6) 
{"0": {"label": "*3", "atom_type": "Cs"}, "1": {"label": "*4", "atom_type": "Cs"}, "9": {"label": "*1", "atom_type": "Cs"}, "10": {"label": "*0", "atom_type": "Cs"}, "15": {"label": "*2", "atom_type": "H0"}}

>  <type>  (6) 
unop_2

>  <geom_source>  (6) 
Heuristics

$$$$

     RDKit          3D

 23 22  0  0  0  0  0  0  0  0999 V2000
    0.1751   -2.1959    0.7524 C   0  0  0  0  0  3  0  0  0  0  0  0
    0.7714   -2.5919    2.0518 C   0  0  0  0  0  0  0  0  0  0  0  0
   -0.1966   -3.3315    2.9687 C   0  0  0  0  0  0  0  0  0  0  0  0
   -0.7345   -2.6609    0.3941 H   0  0  0  0  0  0  0  0  0  0  0  0
    1.6541   -3.2258    1.8755 H   0  0  0  0  0  0  0  0  0  0  0  0
    1.1649   -1.7052    2.5628 H   0  0  0  0  0  0  0  0  0  0  0  0
   -0.5669   -4.2403    2.4894 H   0  0  0  0  0  0  0  0  0  0  0  0
   -1.0587   -2.7067    3.2098 H   0  0  0  0  0  0  0  0  0  0  0  0
    0.2851   -3.6186    3.9045 H   0  0  0  0  0  0  0  0  0  0  0  0
    0.4489    0.2330   -0.1597 C   0  0  0  0  0  3  0  0  0  0  0  0
    0.4489    0.2330   -1.6817 C   0  0  0  0  0  0  0  0  0  0  0  0
    0.4489    1.5594   -2.1738 O   0  0  0  0  0  0  0  0  0  0  0  0
   -0.6339    2.2837   -1.6745 C   0  0  0  0  0  0  0  0  0  0  0  0
   -0.6226    2.3900   -0.2834 O   0  0  0  0  0  0  0  0  0  0  0  0
   -0.6905    1.1163    0.3284 C   0  0  0  0  0  0  0  0  0  0  0  0
    0.3113   -0.9873    0.2986 H   0  0  0  0  0  0  0  0  0  0  0  0
    1.3982    0.6315    0.2033 H   0  0  0  0  0  0  0  0  0  0  0  0
    1.3347   -0.2525   -2.0890 H   0  0  0  0  0  0  0  0  0  0  0  0
   -0.4386   -0.2982   -2.0584 H   0  0  0  0  0  0  0  0  0  0  0  0
   -1.5765    1.8056   -1.9987 H   0  0  0  0  0  0  0  0  0  0  0  0
   -0.5616    3.2919   -2.0765 H   0  0  0  0  0  0  0  0  0  0  0  0
   -1.6582    0.6471    0.0931 H   0  0  0  0  0  0  0  0  0  0  0  0
   -0.6452    1.2823    1.4039 H   0  0  0  0  0  0  0  0  0  0  0  0
  1  2  1  0
  1  4  1  0
  1 16  1  0
  2  3  1  0
  2  5  1  0
  2  6  1  0
  3  7  1  0
  3  8  1  0
  3  9  1  0
 10 11  1  0
 10 15  1  0
 10 17  1  0
 11 12  1  0
 11 18  1  0
 11 19  1  0
 12 13  1  0
 13 14  1  0
 13 20  1  0
 13 21  1  0
 14 15  1  0
 15 22  1  0
 15 23  1  0
M  RAD  2   1   2  10   2
M  END
>  <reaction>  (7) 
rmg_rxn_188

>  <mol_properties>  (7) 
{"0": {"label": "*3", "atom_type": "Cs"}, "1": {"label": "*4", "atom_type": "Cs"}, "9": {"label": "*1", "atom_type": "Cs"}, "10": {"label": "*0", "atom_type": "Cs"}, "15": {"label": "*2", "atom_type": "H0"}}

>  <type>  (7) 
unop_3

>  <geom_source>  (7) 
Heuristics

$$$$

     RDKit          3D

 23 22  0  0  0  0  0  0  0  0999 V2000
    0.4947   -2.0581    1.1101 C   0  0  0  0  0  3  0  0  0  0  0  0
   -0.7062   -2.8637    0.7791 C   0  0  0  0  0  0  0  0  0  0  0  0
   -0.9574   -4.0134    1.7486 C   0  0  0  0  0  0  0  0  0  0  0  0
    0.9389   -2.1028    2.0963 H   0  0  0  0  0  0  0  0  0  0  0  0
   -1.5935   -2.2124    0.7571 H   0  0  0  0  0  0  0  0  0  0  0  0
   -0.6211   -3.2502   -0.2434 H   0  0  0  0  0  0  0  0  0  0  0  0
   -1.0852   -3.6408    2.7672 H   0  0  0  0  0  0  0  0  0  0  0  0
   -0.1174   -4.7105    1.7516 H   0  0  0  0  0  0  0  0  0  0  0  0
   -1.8569   -4.5690    1.4797 H   0  0  0  0  0  0  0  0  0  0  0  0
    0.7685    0.3709    0.1980 C   0  0  0  0  0  3  0  0  0  0  0  0
    0.7685    0.3709   -1.3240 C   0  0  0  0  0  0  0  0  0  0  0  0
    0.7685    1.6972   -1.8161 O   0  0  0  0  0  0  0  0  0  0  0  0
   -0.3143    2.4216   -1.3168 C   0  0  0  0  0  0  0  0  0  0  0  0
   -0.3030    2.5278    0.0742 O   0  0  0  0  0  0  0  0  0  0  0  0
   -0.3709    1.2541    0.6861 C   0  0  0  0  0  0  0  0  0  0  0  0
    0.6310   -0.8495    0.6563 H   0  0  0  0  0  0  0  0  0  0  0  0
    1.7179    0.7694    0.5610 H   0  0  0  0  0  0  0  0  0  0  0  0
    1.6543   -0.1147   -1.7314 H   0  0  0  0  0  0  0  0  0  0  0  0
   -0.1190   -0.1604   -1.7007 H   0  0  0  0  0  0  0  0  0  0  0  0
   -1.2569    1.9435   -1.6410 H   0  0  0  0  0  0  0  0  0  0  0  0
   -0.2420    3.4297   -1.7188 H   0  0  0  0  0  0  0  0  0  0  0  0
   -1.3385    0.7850    0.4508 H   0  0  0  0  0  0  0  0  0  0  0  0
   -0.3256    1.4201    1.7616 H   0  0  0  0  0  0  0  0  0  0  0  0
  1  2  1  0
  1  4  1  0
  1 16  1  0
  2  3  1  0
  2  5  1  0
  2  6  1  0
  3  7  1  0
  3  8  1  0
  3  9  1  0
 10 11  1  0
 10 15  1  0
 10 17  1  0
 11 12  1  0
 11 18  1  0
 11 19  1  0
 12 13  1  0
 13 14  1  0
 13 20  1  0
 13 21  1  0
 14 15  1  0
 15 22  1  0
 15 23  1  0
M  RAD  2   1   2  10   2
M  END
>  <reaction>  (8) 
rmg_rxn_188

>  <mol_properties>  (8) 
{"0": {"label": "*3", "atom_type": "Cs"}, "1": {"label": "*4", "atom_type": "Cs"}, "9": {"label": "*1", "atom_type": "Cs"}, "10": {"label": "*0", "atom_type": "Cs"}, "15": {"label": "*2", "atom_type": "H0"}}

>  <type>  (8) 
unop_4

>  <geom_source>  (8) 
Heuristics

$$$$

     RDKit          3D

 23 22  0  0  0  0  0  0  0  0999 V2000
    0.2511   -2.1454    0.7831 C   0  0  0  0  0  3  0  0  0  0  0  0
    0.2212   -2.4108    2.2424 C   0  0  0  0  0  0  0  0  0  0  0  0
   -0.2217   -3.8259    2.5976 C   0  0  0  0  0  0  0  0  0  0  0  0
    0.2608   -2.9604    0.0706 H   0  0  0  0  0  0  0  0  0  0  0  0
    1.2184   -2.2284    2.6717 H   0  0  0  0  0  0  0  0  0  0  0  0
   -0.4308   -1.6811    2.7369 H   0  0  0  0  0  0  0  0  0  0  0  0
    0.4429   -4.5652    2.1452 H   0  0  0  0  0  0  0  0  0  0  0  0
   -1.2326   -4.0200    2.2344 H   0  0  0  0  0  0  0  0  0  0  0  0
   -0.2140   -3.9843    3.6769 H   0  0  0  0  0  0  0  0  0  0  0  0
    0.5249    0.2835   -0.1289 C   0  0  0  0  0  3  0  0  0  0  0  0
    0.5249    0.2835   -1.6510 C   0  0  0  0  0  0  0  0  0  0  0  0
    0.5249    1.6099   -2.1431 O   0  0  0  0  0  0  0  0  0  0  0  0
   -0.5579    2.3342   -1.6438 C   0  0  0  0  0  0  0  0  0  0  0  0
   -0.5466    2.4405   -0.2527 O   0  0  0  0  0  0  0  0  0  0  0  0
   -0.6145    1.1668    0.3592 C   0  0  0  0  0  0  0  0  0  0  0  0
    0.3874   -0.9369    0.3293 H   0  0  0  0  0  0  0  0  0  0  0  0
    1.4743    0.6820    0.2341 H   0  0  0  0  0  0  0  0  0  0  0  0
    1.4107   -0.2020   -2.0583 H   0  0  0  0  0  0  0  0  0  0  0  0
   -0.3626   -0.2477   -2.0277 H   0  0  0  0  0  0  0  0  0  0  0  0
   -1.5005    1.8561   -1.9680 H   0  0  0  0  0  0  0  0  0  0  0  0
   -0.4856    3.3423   -2.0457 H   0  0  0  0  0  0  0  0  0  0  0  0
   -1.5821    0.6976    0.1239 H   0  0  0  0  0  0  0  0  0  0  0  0
   -0.5692    1.3328    1.4346 H   0  0  0  0  0  0  0  0  0  0  0  0
  1  2  1  0
  1  4  1  0
  1 16  1  0
  2  3  1  0
  2  5  1  0
  2  6  1  0
  3  7  1  0
  3  8  1  0
  3  9  1  0
 10 11  1  0
 10 15  1  0
 10 17  1  0
 11 12  1  0
 11 18  1  0
 11 19  1  0
 12 13  1  0
 13 14  1  0
 13 20  1  0
 13 21  1  0
 14 15  1  0
 15 22  1  0
 15 23  1  0
M  RAD  2   1   2  10   2
M  END
>  <reaction>  (9) 
rmg_rxn_188

>  <mol_properties>  (9) 
{"0": {"label": "*3", "atom_type": "Cs"}, "1": {"label": "*4", "atom_type": "Cs"}, "9": {"label": "*1", "atom_type": "Cs"}, "10": {"label": "*0", "atom_type": "Cs"}, "15": {"label": "*2", "atom_type": "H0"}}

>  <type>  (9) 
unop_5

>  <geom_source>  (9) 
Heuristics

$$$$

     RDKit          3D

 23 22  0  0  0  0  0  0  0  0999 V2000
    0.4987   -2.1277    0.9564 C   0  0  0  0  0  3  0  0  0  0  0  0
   -0.8469   -2.6929    1.2222 C   0  0  0  0  0  0  0  0  0  0  0  0
   -0.8682   -3.7150    2.3535 C   0  0  0  0  0  0  0  0  0  0  0  0
    1.2895   -2.2073    1.6914 H   0  0  0  0  0  0  0  0  0  0  0  0
   -1.5491   -1.8792    1.4604 H   0  0  0  0  0  0  0  0  0  0  0  0
   -1.2457   -3.1433    0.3055 H   0  0  0  0  0  0  0  0  0  0  0  0
   -0.5117   -3.2699    3.2849 H   0  0  0  0  0  0  0  0  0  0  0  0
   -0.2237   -4.5651    2.1221 H   0  0  0  0  0  0  0  0  0  0  0  0
   -1.8768   -4.0928    2.5271 H   0  0  0  0  0  0  0  0  0  0  0  0
    0.7725    0.3012    0.0443 C   0  0  0  0  0  3  0  0  0  0  0  0
    0.7725    0.3012   -1.4777 C   0  0  0  0  0  0  0  0  0  0  0  0
    0.7725    1.6276   -1.9698 O   0  0  0  0  0  0  0  0  0  0  0  0
   -0.3103    2.3519   -1.4705 C   0  0  0  0  0  0  0  0  0  0  0  0
   -0.2990    2.4582   -0.0795 O   0  0  0  0  0  0  0  0  0  0  0  0
   -0.3669    1.1845    0.5324 C   0  0  0  0  0  0  0  0  0  0  0  0
    0.6350   -0.9192    0.5026 H   0  0  0  0  0  0  0  0  0  0  0  0
    1.7219    0.6997    0.4073 H   0  0  0  0  0  0  0  0  0  0  0  0
    1.6583   -0.1843   -1.8851 H   0  0  0  0  0  0  0  0  0  0  0  0
   -0.1150   -0.2300   -1.8545 H   0  0  0  0  0  0  0  0  0  0  0  0
   -1.2529    1.8738   -1.7947 H   0  0  0  0  0  0  0  0  0  0  0  0
   -0.2380    3.3600   -1.8725 H   0  0  0  0  0  0  0  0  0  0  0  0
   -1.3346    0.7153    0.2971 H   0  0  0  0  0  0  0  0  0  0  0  0
   -0.3216    1.3505    1.6079 H   0  0  0  0  0  0  0  0  0  0  0  0
  1  2  1  0
  1  4  1  0
  1 16  1  0
  2  3  1  0
  2  5  1  0
  2  6  1  0
  3  7  1  0
  3  8  1  0
  3  9  1  0
 10 11  1  0
 10 15  1  0
 10 17  1  0
 11 12  1  0
 11 18  1  0
 11 19  1  0
 12 13  1  0
 13 14  1  0
 13 20  1  0
 13 21  1  0
 14 15  1  0
 15 22  1  0
 15 23  1  0
M  RAD  2   1   2  10   2
M  END
>  <reaction>  (10) 
rmg_rxn_188

>  <mol_properties>  (10) 
{"0": {"label": "*3", "atom_type": "Cs"}, "1": {"label": "*4", "atom_type": "Cs"}, "9": {"label": "*1", "atom_type": "Cs"}, "10": {"label": "*0", "atom_type": "Cs"}, "15": {"label": "*2", "atom_type": "H0"}}

>  <type>  (10) 
unop_6

>  <geom_source>  (10) 
Heuristics

$$$$

     RDKit          3D

 23 22  0  0  0  0  0  0  0  0999 V2000
    0.4115   -2.1696    0.8317 C   0  0  0  0  0  3  0  0  0  0  0  0
   -0.7396   -2.5326    1.6943 C   0  0  0  0  0  0  0  0  0  0  0  0
   -0.4070   -3.5841    2.7473 C   0  0  0  0  0  0  0  0  0  0  0  0
    1.4256   -2.3986    1.1336 H   0  0  0  0  0  0  0  0  0  0  0  0
   -1.1242   -1.6314    2.1961 H   0  0  0  0  0  0  0  0  0  0  0  0
   -1.5726   -2.8796    1.0714 H   0  0  0  0  0  0  0  0  0  0  0  0
    0.3947   -3.2366    3.4025 H   0  0  0  0  0  0  0  0  0  0  0  0
   -0.0757   -4.5128    2.2788 H   0  0  0  0  0  0  0  0  0  0  0  0
   -1.2742   -3.8099    3.3694 H   0  0  0  0  0  0  0  0  0  0  0  0
    0.6853    0.2594   -0.0803 C   0  0  0  0  0  3  0  0  0  0  0  0
    0.6853    0.2594   -1.6023 C   0  0  0  0  0  0  0  0  0  0  0  0
    0.6853    1.5857   -2.0944 O   0  0  0  0  0  0  0  0  0  0  0  0
   -0.3975    2.3101   -1.5951 C   0  0  0  0  0  0  0  0  0  0  0  0
   -0.3862    2.4163   -0.2041 O   0  0  0  0  0  0  0  0  0  0  0  0
   -0.4541    1.1426    0.4078 C   0  0  0  0  0  0  0  0  0  0  0  0
    0.5477   -0.9610    0.3779 H   0  0  0  0  0  0  0  0  0  0  0  0
    1.6346    0.6579    0.2827 H   0  0  0  0  0  0  0  0  0  0  0  0
    1.5710   -0.2262   -2.0097 H   0  0  0  0  0  0  0  0  0  0  0  0
   -0.2022   -0.2719   -1.9791 H   0  0  0  0  0  0  0  0  0  0  0  0
   -1.3401    1.8320   -1.9193 H   0  0  0  0  0  0  0  0  0  0  0  0
   -0.3252    3.3182   -1.9971 H   0  0  0  0  0  0  0  0  0  0  0  0
   -1.4218    0.6735    0.1725 H   0  0  0  0  0  0  0  0  0  0  0  0
   -0.4089    1.3086    1.4833 H   0  0  0  0  0  0  0  0  0  0  0  0
  1  2  1  0
  1  4  1  0
  1 16  1  0
  2  3  1  0
  2  5  1  0
  2  6  1  0
  3  7  1  0
  3  8  1  0
  3  9  1  0
 10 11  1  0
 10 15  1  0
 10 17  1  0
 11 12  1  0
 11 18  1  0
 11 19  1  0
 12 13  1  0
 13 14  1  0
 13 20  1  0
 13 21  1  0
 14 15  1  0
 15 22  1  0
 15 23  1  0
M  RAD  2   1   2  10   2
M  END
>  <reaction>  (11) 
rmg_rxn_188

>  <mol_properties>  (11) 
{"0": {"label": "*3", "atom_type": "Cs"}, "1": {"label": "*4", "atom_type": "Cs"}, "9": {"label": "*1", "atom_type": "Cs"}, "10": {"label": "*0", "atom_type": "Cs"}, "15": {"label": "*2", "atom_type": "H0"}}

>  <type>  (11) 
unop_7

>  <geom_source>  (11) 
Heuristics

$$$$

     RDKit          3D

 23 22  0  0  0  0  0  0  0  0999 V2000
   -0.0760   -2.1135    0.9250 C   0  0  0  0  0  3  0  0  0  0  0  0
    1.1100   -2.9641    1.1908 C   0  0  0  0  0  0  0  0  0  0  0  0
    1.1451   -3.5406    2.6020 C   0  0  0  0  0  0  0  0  0  0  0  0
   -0.9513   -2.1671    1.5598 H   0  0  0  0  0  0  0  0  0  0  0  0
    1.1422   -3.7908    0.4645 H   0  0  0  0  0  0  0  0  0  0  0  0
    2.0252   -2.3915    0.9993 H   0  0  0  0  0  0  0  0  0  0  0  0
    0.2583   -4.1481    2.7948 H   0  0  0  0  0  0  0  0  0  0  0  0
    1.1717   -2.7436    3.3474 H   0  0  0  0  0  0  0  0  0  0  0  0
    2.0225   -4.1717    2.7504 H   0  0  0  0  0  0  0  0  0  0  0  0
    0.1977    0.3154    0.0130 C   0  0  0  0  0  3  0  0  0  0  0  0
    0.1977    0.3154   -1.5091 C   0  0  0  0  0  0  0  0  0  0  0  0
    0.1977    1.6418   -2.0012 O   0  0  0  0  0  0  0  0  0  0  0  0
   -0.8851    2.3661   -1.5019 C   0  0  0  0  0  0  0  0  0  0  0  0
   -0.8738    2.4724   -0.1108 O   0  0  0  0  0  0  0  0  0  0  0  0
   -0.9417    1.1986    0.5011 C   0  0  0  0  0  0  0  0  0  0  0  0
    0.0602   -0.9050    0.4712 H   0  0  0  0  0  0  0  0  0  0  0  0
    1.1471    0.7139    0.3760 H   0  0  0  0  0  0  0  0  0  0  0  0
    1.0835   -0.1701   -1.9164 H   0  0  0  0  0  0  0  0  0  0  0  0
   -0.6898   -0.2159   -1.8858 H   0  0  0  0  0  0  0  0  0  0  0  0
   -1.8276    1.8880   -1.8261 H   0  0  0  0  0  0  0  0  0  0  0  0
   -0.8128    3.3742   -1.9038 H   0  0  0  0  0  0  0  0  0  0  0  0
   -1.9093    0.7295    0.2658 H   0  0  0  0  0  0  0  0  0  0  0  0
   -0.8964    1.3646    1.5765 H   0  0  0  0  0  0  0  0  0  0  0  0
  1  2  1  0
  1  4  1  0
  1 16  1  0
  2  3  1  0
  2  5  1  0
  2  6  1  0
  3  7  1  0
  3  8  1  0
  3  9  1  0
 10 11  1  0
 10 15  1  0
 10 17  1  0
 11 12  1  0
 11 18  1  0
 11 19  1  0
 12 13  1  0
 13 14  1  0
 13 20  1  0
 13 21  1  0
 14 15  1  0
 15 22  1  0
 15 23  1  0
M  RAD  2   1   2  10   2
M  END
>  <reaction>  (12) 
rmg_rxn_188

>  <mol_properties>  (12) 
{"0": {"label": "*3", "atom_type": "Cs"}, "1": {"label": "*4", "atom_type": "Cs"}, "9": {"label": "*1", "atom_type": "Cs"}, "10": {"label": "*0", "atom_type": "Cs"}, "15": {"label": "*2", "atom_type": "H0"}}

>  <type>  (12) 
unop_8

>  <geom_source>  (12) 
Heuristics

$$$$

     RDKit          3D

 23 22  0  0  0  0  0  0  0  0999 V2000
    0.3875   -1.9894    1.2352 C   0  0  0  0  0  3  0  0  0  0  0  0
   -0.3684   -3.0092    0.4674 C   0  0  0  0  0  0  0  0  0  0  0  0
   -0.5533   -4.3249    1.2156 C   0  0  0  0  0  0  0  0  0  0  0  0
    0.5068   -2.0774    2.3076 H   0  0  0  0  0  0  0  0  0  0  0  0
   -1.3572   -2.6090    0.1954 H   0  0  0  0  0  0  0  0  0  0  0  0
    0.1296   -3.1929   -0.4920 H   0  0  0  0  0  0  0  0  0  0  0  0
   -1.0847   -4.1647    2.1562 H   0  0  0  0  0  0  0  0  0  0  0  0
    0.4117   -4.7777    1.4508 H   0  0  0  0  0  0  0  0  0  0  0  0
   -1.1270   -5.0398    0.6240 H   0  0  0  0  0  0  0  0  0  0  0  0
    0.6613    0.4395    0.3232 C   0  0  0  0  0  3  0  0  0  0  0  0
    0.6613    0.4395   -1.1989 C   0  0  0  0  0  0  0  0  0  0  0  0
    0.6613    1.7659   -1.6910 O   0  0  0  0  0  0  0  0  0  0  0  0
   -0.4215    2.4902   -1.1916 C   0  0  0  0  0  0  0  0  0  0  0  0
   -0.4102    2.5965    0.1994 O   0  0  0  0  0  0  0  0  0  0  0  0
   -0.4781    1.3228    0.8113 C   0  0  0  0  0  0  0  0  0  0  0  0
    0.5237   -0.7808    0.7814 H   0  0  0  0  0  0  0  0  0  0  0  0
    1.6106    0.8380    0.6862 H   0  0  0  0  0  0  0  0  0  0  0  0
    1.5470   -0.0460   -1.6062 H   0  0  0  0  0  0  0  0  0  0  0  0
   -0.2262   -0.0917   -1.5756 H   0  0  0  0  0  0  0  0  0  0  0  0
   -1.3641    2.0121   -1.5159 H   0  0  0  0  0  0  0  0  0  0  0  0
   -0.3492    3.4984   -1.5936 H   0  0  0  0  0  0  0  0  0  0  0  0
   -1.4458    0.8537    0.5760 H   0  0  0  0  0  0  0  0  0  0  0  0
   -0.4329    1.4888    1.8867 H   0  0  0  0  0  0  0  0  0  0  0  0
  1  2  1  0
  1  4  1  0
  1 16  1  0
  2  3  1  0
  2  5  1  0
  2  6  1  0
  3  7  1  0
  3  8  1  0
  3  9  1  0
 10 11  1  0
 10 15  1  0
 10 17  1  0
 11 12  1  0
 11 18  1  0
 11 19  1  0
 12 13  1  0
 13 14  1  0
 13 20  1  0
 13 21  1  0
 14 15  1  0
 15 22  1  0
 15 23  1  0
M  RAD  2   1   2  10   2
M  END
>  <reaction>  (13) 
rmg_rxn_188

>  <mol_properties>  (13) 
{"0": {"label": "*3", "atom_type": "Cs"}, "1": {"label": "*4", "atom_type": "Cs"}, "9": {"label": "*1", "atom_type": "Cs"}, "10": {"label": "*0", "atom_type": "Cs"}, "15": {"label": "*2", "atom_type": "H0"}}

>  <type>  (13) 
unop_9

>  <geom_source>  (13) 
Heuristics

$$$$

     RDKit          3D

 23 22  0  0  0  0  0  0  0  0999 V2000
   -0.0754   -2.0343    1.0850 C   0  0  0  0  0  3  0  0  0  0  0  0
    0.9161   -3.0870    0.7541 C   0  0  0  0  0  0  0  0  0  0  0  0
    1.3146   -3.9485    1.9474 C   0  0  0  0  0  0  0  0  0  0  0  0
   -0.6650   -2.0919    1.9911 H   0  0  0  0  0  0  0  0  0  0  0  0
    0.5149   -3.7363   -0.0393 H   0  0  0  0  0  0  0  0  0  0  0  0
    1.8081   -2.6279    0.3116 H   0  0  0  0  0  0  0  0  0  0  0  0
    0.4414   -4.4458    2.3753 H   0  0  0  0  0  0  0  0  0  0  0  0
    1.7696   -3.3406    2.7316 H   0  0  0  0  0  0  0  0  0  0  0  0
    2.0308   -4.7188    1.6583 H   0  0  0  0  0  0  0  0  0  0  0  0
    0.1984    0.3947    0.1729 C   0  0  0  0  0  3  0  0  0  0  0  0
    0.1984    0.3947   -1.3491 C   0  0  0  0  0  0  0  0  0  0  0  0
    0.1984    1.7210   -1.8412 O   0  0  0  0  0  0  0  0  0  0  0  0
   -0.8844    2.4454   -1.3419 C   0  0  0  0  0  0  0  0  0  0  0  0
   -0.8732    2.5516    0.0492 O   0  0  0  0  0  0  0  0  0  0  0  0
   -0.9410    1.2779    0.6611 C   0  0  0  0  0  0  0  0  0  0  0  0
    0.0608   -0.8257    0.6312 H   0  0  0  0  0  0  0  0  0  0  0  0
    1.1477    0.7932    0.5360 H   0  0  0  0  0  0  0  0  0  0  0  0
    1.0841   -0.0909   -1.7564 H   0  0  0  0  0  0  0  0  0  0  0  0
   -0.6892   -0.1366   -1.7258 H   0  0  0  0  0  0  0  0  0  0  0  0
   -1.8270    1.9673   -1.6661 H   0  0  0  0  0  0  0  0  0  0  0  0
   -0.8122    3.4535   -1.7439 H   0  0  0  0  0  0  0  0  0  0  0  0
   -1.9087    0.8088    0.4258 H   0  0  0  0  0  0  0  0  0  0  0  0
   -0.8958    1.4439    1.7365 H   0  0  0  0  0  0  0  0  0  0  0  0
  1  2  1  0
  1  4  1  0
  1 16  1  0
  2  3  1  0
  2  5  1  0
  2  6  1  0
  3  7  1  0
  3  8  1  0
  3  9  1  0
 10 11  1  0
 10 15  1  0
 10 17  1  0
 11 12  1  0
 11 18  1  0
 11 19  1  0
 12 13  1  0
 13 14  1  0
 13 20  1  0
 13 21  1  0
 14 15  1  0
 15 22  1  0
 15 23  1  0
M  RAD  2   1   2  10   2
M  END
>  <reaction>  (14) 
rmg_rxn_188

>  <mol_properties>  (14) 
{"0": {"label": "*3", "atom_type": "Cs"}, "1": {"label": "*4", "atom_type": "Cs"}, "9": {"label": "*1", "atom_type": "Cs"}, "10": {"label": "*0", "atom_type": "Cs"}, "15": {"label": "*2", "atom_type": "H0"}}

>  <type>  (14) 
unop_10

>  <geom_source>  (14) 
Heuristics

$$$$

     RDKit          3D

 23 22  0  0  0  0  0  0  0  0999 V2000
    0.2903   -2.1636    0.7804 C   0  0  0  0  0  3  0  0  0  0  0  0
   -0.3792   -2.4169    2.0799 C   0  0  0  0  0  0  0  0  0  0  0  0
    0.0520   -3.7188    2.7463 C   0  0  0  0  0  0  0  0  0  0  0  0
    1.1982   -2.6886    0.5119 H   0  0  0  0  0  0  0  0  0  0  0  0
   -0.1818   -1.5795    2.7667 H   0  0  0  0  0  0  0  0  0  0  0  0
   -1.4669   -2.4114    1.9418 H   0  0  0  0  0  0  0  0  0  0  0  0
    1.1289   -3.7232    2.9280 H   0  0  0  0  0  0  0  0  0  0  0  0
   -0.1828   -4.5764    2.1132 H   0  0  0  0  0  0  0  0  0  0  0  0
   -0.4502   -3.8585    3.7046 H   0  0  0  0  0  0  0  0  0  0  0  0
    0.5641    0.2653   -0.1316 C   0  0  0  0  0  3  0  0  0  0  0  0
    0.5641    0.2653   -1.6536 C   0  0  0  0  0  0  0  0  0  0  0  0
    0.5641    1.5917   -2.1458 O   0  0  0  0  0  0  0  0  0  0  0  0
   -0.5187    2.3160   -1.6464 C   0  0  0  0  0  0  0  0  0  0  0  0
   -0.5074    2.4223   -0.2554 O   0  0  0  0  0  0  0  0  0  0  0  0
   -0.5753    1.1486    0.3565 C   0  0  0  0  0  0  0  0  0  0  0  0
    0.4266   -0.9550    0.3266 H   0  0  0  0  0  0  0  0  0  0  0  0
    1.5135    0.6638    0.2314 H   0  0  0  0  0  0  0  0  0  0  0  0
    1.4499   -0.2202   -2.0610 H   0  0  0  0  0  0  0  0  0  0  0  0
   -0.3234   -0.2659   -2.0304 H   0  0  0  0  0  0  0  0  0  0  0  0
   -1.4613    1.8379   -1.9706 H   0  0  0  0  0  0  0  0  0  0  0  0
   -0.4464    3.3242   -2.0484 H   0  0  0  0  0  0  0  0  0  0  0  0
   -1.5430    0.6795    0.1212 H   0  0  0  0  0  0  0  0  0  0  0  0
   -0.5300    1.3146    1.4320 H   0  0  0  0  0  0  0  0  0  0  0  0
  1  2  1  0
  1  4  1  0
  1 16  1  0
  2  3  1  0
  2  5  1  0
  2  6  1  0
  3  7  1  0
  3  8  1  0
  3  9  1  0
 10 11  1  0
 10 15  1  0
 10 17  1  0
 11 12  1  0
 11 18  1  0
 11 19  1  0
 12 13  1  0
 13 14  1  0
 13 20  1  0
 13 21  1  0
 14 15  1  0
 15 22  1  0
 15 23  1  0
M  RAD  2   1   2  10   2
M  END
>  <reaction>  (15) 
rmg_rxn_188

>  <mol_properties>  (15) 
{"0": {"label": "*3", "atom_type": "Cs"}, "1": {"label": "*4", "atom_type": "Cs"}, "9": {"label": "*1", "atom_type": "Cs"}, "10": {"label": "*0", "atom_type": "Cs"}, "15": {"label": "*2", "atom_type": "H0"}}

>  <type>  (15) 
unop_11

>  <geom_source>  (15) 
Heuristics

$$$$

     RDKit          3D

 23 22  0  0  0  0  0  0  0  0999 V2000
    0.2092   -1.9544    1.2792 C   0  0  0  0  0  3  0  0  0  0  0  0
    0.0795   -3.1048    0.3516 C   0  0  0  0  0  0  0  0  0  0  0  0
    0.2101   -4.4606    1.0369 C   0  0  0  0  0  0  0  0  0  0  0  0
    0.0929   -2.0865    2.3474 H   0  0  0  0  0  0  0  0  0  0  0  0
   -0.8915   -3.0557   -0.1647 H   0  0  0  0  0  0  0  0  0  0  0  0
    0.8236   -3.0189   -0.4492 H   0  0  0  0  0  0  0  0  0  0  0  0
   -0.5511   -4.5786    1.8111 H   0  0  0  0  0  0  0  0  0  0  0  0
    1.1875   -4.5641    1.5118 H   0  0  0  0  0  0  0  0  0  0  0  0
    0.0924   -5.2779    0.3239 H   0  0  0  0  0  0  0  0  0  0  0  0
    0.4830    0.4745    0.3672 C   0  0  0  0  0  3  0  0  0  0  0  0
    0.4830    0.4745   -1.1549 C   0  0  0  0  0  0  0  0  0  0  0  0
    0.4830    1.8009   -1.6470 O   0  0  0  0  0  0  0  0  0  0  0  0
   -0.5998    2.5252   -1.1476 C   0  0  0  0  0  0  0  0  0  0  0  0
   -0.5885    2.6315    0.2434 O   0  0  0  0  0  0  0  0  0  0  0  0
   -0.6564    1.3578    0.8553 C   0  0  0  0  0  0  0  0  0  0  0  0
    0.3454   -0.7458    0.8254 H   0  0  0  0  0  0  0  0  0  0  0  0
    1.4323    0.8730    0.7302 H   0  0  0  0  0  0  0  0  0  0  0  0
    1.3688   -0.0110   -1.5622 H   0  0  0  0  0  0  0  0  0  0  0  0
   -0.4045   -0.0567   -1.5316 H   0  0  0  0  0  0  0  0  0  0  0  0
   -1.5424    2.0471   -1.4718 H   0  0  0  0  0  0  0  0  0  0  0  0
   -0.5275    3.5334   -1.5496 H   0  0  0  0  0  0  0  0  0  0  0  0
   -1.6241    0.8887    0.6200 H   0  0  0  0  0  0  0  0  0  0  0  0
   -0.6111    1.5238    1.9307 H   0  0  0  0  0  0  0  0  0  0  0  0
  1  2  1  0
  1  4  1  0
  1 16  1  0
  2  3  1  0
  2  5  1  0
  2  6  1  0
  3  7  1  0
  3  8  1  0
  3  9  1  0
 10 11  1  0
 10 15  1  0
 10 17  1  0
 11 12  1  0
 11 18  1  0
 11 19  1  0
 12 13  1  0
 13 14  1  0
 13 20  1  0
 13 21  1  0
 14 15  1  0
 15 22  1  0
 15 23  1  0
M  RAD  2   1   2  10   2
M  END
>  <reaction>  (16) 
rmg_rxn_188

>  <mol_properties>  (16) 
{"0": {"label": "*3", "atom_type": "Cs"}, "1": {"label": "*4", "atom_type": "Cs"}, "9": {"label": "*1", "atom_type": "Cs"}, "10": {"label": "*0", "atom_type": "Cs"}, "15": {"label": "*2", "atom_type": "H0"}}

>  <type>  (16) 
unop_12

>  <geom_source>  (16) 
Heuristics

$$$$

     RDKit          3D

 23 22  0  0  0  0  0  0  0  0999 V2000
   -2.3391   -0.6601   -1.0216 O   0  0  0  0  0  0  0  0  0  0  0  0
   -1.9656    1.4782   -0.1722 O   0  0  0  0  0  0  0  0  0  0  0  0
    2.5931    0.2991   -0.8038 C   0  0  0  0  0  0  0  0  0  0  0  0
   -1.6222   -1.2830    0.0245 C   0  0  0  0  0  0  0  0  0  0  0  0
   -1.2246    0.9937    0.9288 C   0  0  0  0  0  0  0  0  0  0  0  0
    3.0775   -0.2265    0.5414 C   0  0  0  0  0  0  0  0  0  0  0  0
   -2.9456    0.5233   -0.5359 C   0  0  0  0  0  0  0  0  0  0  0  0
   -0.5639   -0.3389    0.5878 C   0  0  0  0  0  0  0  0  0  0  0  0
    1.2969   -0.3849   -1.2105 C   0  0  0  0  0  2  0  0  0  0  0  0
    3.3675    0.1011   -1.5754 H   0  0  0  0  0  0  0  0  0  0  0  0
    2.4267    1.3956   -0.7372 H   0  0  0  0  0  0  0  0  0  0  0  0
    3.2530   -1.3223    0.4860 H   0  0  0  0  0  0  0  0  0  0  0  0
    2.3266   -0.0144    1.3322 H   0  0  0  0  0  0  0  0  0  0  0  0
    4.0308    0.2733    0.8140 H   0  0  0  0  0  0  0  0  0  0  0  0
   -1.1123   -2.1817   -0.3799 H   0  0  0  0  0  0  0  0  0  0  0  0
   -2.3140   -1.6231    0.8288 H   0  0  0  0  0  0  0  0  0  0  0  0
   -1.8748    0.8917    1.8277 H   0  0  0  0  0  0  0  0  0  0  0  0
   -0.4295    1.7281    1.1730 H   0  0  0  0  0  0  0  0  0  0  0  0
   -3.6516    0.3134    0.3030 H   0  0  0  0  0  0  0  0  0  0  0  0
   -3.5568    0.9553   -1.3546 H   0  0  0  0  0  0  0  0  0  0  0  0
   -0.0829   -0.7801    1.4870 H   0  0  0  0  0  0  0  0  0  0  0  0
    0.9849   -0.0378   -2.2180 H   0  0  0  0  0  0  0  0  0  0  0  0
    0.3260   -0.0999   -0.3252 H   0  0  0  0  0  0  0  0  0  0  0  0
  1  4  1  0
  1  7  1  0
  2  5  1  0
  2  7  1  0
  3  9  1  0
  3  6  1  0
  3 10  1  0
  3 11  1  0
  4  8  1  0
  4 15  1  0
  4 16  1  0
  5  8  1  0
  5 17  1  0
  5 18  1  0
  6 12  1  0
  6 13  1  0
  6 14  1  0
  7 19  1  0
  7 20  1  0
  8 21  1  0
  8 23  1  0
  9 22  1  0
M  RAD  1   9   3
M  END
>  <reaction>  (17) 
rmg_rxn_188

>  <mol_properties>  (17) 
{"0": {"label": "*3", "atom_type": "Cs"}, "1": {"label": "*4", "atom_type": "Cs"}, "9": {"label": "*1", "atom_type": "Cs"}, "10": {"label": "*0", "atom_type": "Cs"}, "15": {"label": "*2", "atom_type": "H0"}}

>  <type>  (17) 
unop_13

>  <geom_source>  (17) 
AutoTST

$$$$

     RDKit          3D

 23 22  0  0  0  0  0  0  0  0999 V2000
    0.0311   -1.9724    1.2209 C   0  0  0  0  0  3  0  0  0  0  0  0
    0.5411   -3.1349    0.4531 C   0  0  0  0  0  0  0  0  0  0  0  0
    0.9568   -4.3115    1.3293 C   0  0  0  0  0  0  0  0  0  0  0  0
   -0.2939   -2.0843    2.2474 H   0  0  0  0  0  0  0  0  0  0  0  0
   -0.2266   -3.4722   -0.2602 H   0  0  0  0  0  0  0  0  0  0  0  0
    1.3838   -2.8216   -0.1746 H   0  0  0  0  0  0  0  0  0  0  0  0
    0.1162   -4.6621    1.9320 H   0  0  0  0  0  0  0  0  0  0  0  0
    1.7592   -4.0244    2.0114 H   0  0  0  0  0  0  0  0  0  0  0  0
    1.3093   -5.1494    0.7262 H   0  0  0  0  0  0  0  0  0  0  0  0
    0.3049    0.4566    0.3088 C   0  0  0  0  0  3  0  0  0  0  0  0
    0.3049    0.4566   -1.2132 C   0  0  0  0  0  0  0  0  0  0  0  0
    0.3049    1.7829   -1.7053 O   0  0  0  0  0  0  0  0  0  0  0  0
   -0.7779    2.5072   -1.2060 C   0  0  0  0  0  0  0  0  0  0  0  0
   -0.7666    2.6135    0.1851 O   0  0  0  0  0  0  0  0  0  0  0  0
   -0.8345    1.3398    0.7969 C   0  0  0  0  0  0  0  0  0  0  0  0
    0.1673   -0.7638    0.7671 H   0  0  0  0  0  0  0  0  0  0  0  0
    1.2542    0.8550    0.6718 H   0  0  0  0  0  0  0  0  0  0  0  0
    1.1907   -0.0290   -1.6205 H   0  0  0  0  0  0  0  0  0  0  0  0
   -0.5826   -0.0747   -1.5899 H   0  0  0  0  0  0  0  0  0  0  0  0
   -1.7205    2.0292   -1.5302 H   0  0  0  0  0  0  0  0  0  0  0  0
   -0.7056    3.5154   -1.6080 H   0  0  0  0  0  0  0  0  0  0  0  0
   -1.8022    0.8707    0.5616 H   0  0  0  0  0  0  0  0  0  0  0  0
   -0.7892    1.5058    1.8724 H   0  0  0  0  0  0  0  0  0  0  0  0
  1  2  1  0
  1  4  1  0
  1 16  1  0
  2  3  1  0
  2  5  1  0
  2  6  1  0
  3  7  1  0
  3  8  1  0
  3  9  1  0
 10 11  1  0
 10 15  1  0
 10 17  1  0
 11 12  1  0
 11 18  1  0
 11 19  1  0
 12 13  1  0
 13 14  1  0
 13 20  1  0
 13 21  1  0
 14 15  1  0
 15 22  1  0
 15 23  1  0
M  RAD  2   1   2  10   2
M  END
>  <reaction>  (18) 
rmg_rxn_188

>  <mol_properties>  (18) 
{"0": {"label": "*3", "atom_type": "Cs"}, "1": {"label": "*4", "atom_type": "Cs"}, "9": {"label": "*1", "atom_type": "Cs"}, "10": {"label": "*0", "atom_type": "Cs"}, "15": {"label": "*2", "atom_type": "H0"}}

>  <type>  (18) 
unop_14

>  <geom_source>  (18) 
gaussian_log

$$$$
