
     RDKit          3D

 18 17  0  0  0  0  0  0  0  0999 V2000
    2.2026   -0.7213   -0.2612 C   0  0  0  0  0  0  0  0  0  0  0  0
    1.5384    0.2638    0.6915 C   0  0  0  0  0  0  0  0  0  0  0  0
    2.2584    1.5946    0.7694 C   0  0  0  0  0  0  0  0  0  0  0  0
    2.2212    2.2185   -0.4893 O   0  0  0  0  0  0  0  0  0  0  0  0
    2.8988    3.4488   -0.5204 C   0  0  0  0  0  0  0  0  0  0  0  0
    2.7981    4.0296   -1.9118 C   0  0  0  0  0  0  0  0  0  0  0  0
    3.2294   -0.9309    0.0486 H   0  0  0  0  0  0  0  0  0  0  0  0
    2.2338   -0.3181   -1.2734 H   0  0  0  0  0  0  0  0  0  0  0  0
    1.6610   -1.6680   -0.2875 H   0  0  0  0  0  0  0  0  0  0  0  0
    1.4990   -0.1566    1.7002 H   0  0  0  0  0  0  0  0  0  0  0  0
    0.5055    0.4455    0.3835 H   0  0  0  0  0  0  0  0  0  0  0  0
    3.3038    1.4410    1.0808 H   0  0  0  0  0  0  0  0  0  0  0  0
    1.7844    2.2410    1.5226 H   0  0  0  0  0  0  0  0  0  0  0  0
    2.4596    4.1376    0.2164 H   0  0  0  0  0  0  0  0  0  0  0  0
    3.9524    3.3035   -0.2397 H   0  0  0  0  0  0  0  0  0  0  0  0
    1.7543    4.1869   -2.1856 H   0  0  0  0  0  0  0  0  0  0  0  0
    3.2472    3.3545   -2.6411 H   0  0  0  0  0  0  0  0  0  0  0  0
    3.3178    4.9878   -1.9600 H   0  0  0  0  0  0  0  0  0  0  0  0
  1  2  1  0
  1  7  1  0
  1  8  1  0
  1  9  1  0
  2  3  1  0
  2 10  1  0
  2 11  1  0
  3  4  1  0
  3 12  1  0
  3 13  1  0
  4  5  1  0
  5  6  1  0
  5 14  1  0
  5 15  1  0
  6 16  1  0
  6 17  1  0
  6 18  1  0
M  END
>  <reaction>  (1) 
rmg_rxn_227

>  <mol_properties>  (1) 
{"0": {"label": "donator", "atom_type": "Cs"}, "6": {"label": "d_hydrogen", "atom_type": "H0"}}

>  <type>  (1) 
r1h

$$$$

     RDKit          3D

  9  8  0  0  0  0  0  0  0  0999 V2000
    1.3246   -0.8124   -0.0809 C   0  0  0  0  0  2  0  0  0  0  0  0
    0.4082    0.3080    0.1518 C   0  0  0  0  0  0  0  0  0  0  0  0
   -1.0545   -0.0277   -0.1520 C   0  0  0  0  0  0  0  0  0  0  0  0
    2.3933   -0.9471    0.0203 H   0  0  0  0  0  0  0  0  0  0  0  0
    0.4898    0.6406    1.1970 H   0  0  0  0  0  0  0  0  0  0  0  0
    0.7134    1.1680   -0.4624 H   0  0  0  0  0  0  0  0  0  0  0  0
   -1.4014   -0.8515    0.4727 H   0  0  0  0  0  0  0  0  0  0  0  0
   -1.1767   -0.3214   -1.1952 H   0  0  0  0  0  0  0  0  0  0  0  0
   -1.6915    0.8372    0.0370 H   0  0  0  0  0  0  0  0  0  0  0  0
  1  2  1  0
  1  4  1  0
  2  3  1  0
  2  5  1  0
  2  6  1  0
  3  7  1  0
  3  8  1  0
  3  9  1  0
M  RAD  1   1   3
M  END
>  <reaction>  (2) 
rmg_rxn_227

>  <mol_properties>  (2) 
{"0": {"label": "acceptor", "atom_type": "Cs"}}

>  <type>  (2) 
r2

$$$$

     RDKit          3D

 10  9  0  0  0  0  0  0  0  0999 V2000
    1.4352    0.2660   -0.1351 C   0  0  0  0  0  3  0  0  0  0  0  0
    0.2236   -0.3243    0.4850 C   0  0  0  0  0  0  0  0  0  0  0  0
   -0.8893    0.6872    0.7364 C   0  0  0  0  0  0  0  0  0  0  0  0
    2.3577   -0.2958   -0.1940 H   0  0  0  0  0  0  0  0  0  0  0  0
    1.3935    1.2286   -0.6287 H   0  0  0  0  0  0  0  0  0  0  0  0
   -0.1633   -1.1318   -0.1556 H   0  0  0  0  0  0  0  0  0  0  0  0
    0.4945   -0.8215    1.4240 H   0  0  0  0  0  0  0  0  0  0  0  0
   -1.1991    1.1627   -0.1967 H   0  0  0  0  0  0  0  0  0  0  0  0
   -1.7660    0.2103    1.1768 H   0  0  0  0  0  0  0  0  0  0  0  0
   -0.5545    1.4732    1.4159 H   0  0  0  0  0  0  0  0  0  0  0  0
  1  2  1  0
  1  4  1  0
  1  5  1  0
  2  3  1  0
  2  6  1  0
  2  7  1  0
  3  8  1  0
  3  9  1  0
  3 10  1  0
M  RAD  1   1   2
M  END
>  <reaction>  (3) 
rmg_rxn_227

>  <mol_properties>  (3) 
{"0": {"label": "acceptor", "atom_type": "Cs"}, "9": {"label": "a_hydrogen", "atom_type": "H0"}}

>  <type>  (3) 
r2h

$$$$

     RDKit          3D

 27 25  0  0  0  0  0  0  0  0999 V2000
   -1.4696    0.7578    2.2212 C   0  0  0  0  0  2  0  0  0  0  0  0
   -2.3010   -0.2088    1.4708 C   0  0  0  0  0  0  0  0  0  0  0  0
   -2.4039    0.0968   -0.0234 C   0  0  0  0  0  0  0  0  0  0  0  0
   -1.5110    0.9059    3.2949 H   0  0  0  0  0  0  0  0  0  0  0  0
   -1.8909   -1.2235    1.5966 H   0  0  0  0  0  0  0  0  0  0  0  0
   -3.3065   -0.2483    1.9089 H   0  0  0  0  0  0  0  0  0  0  0  0
   -1.4151    0.1252   -0.4836 H   0  0  0  0  0  0  0  0  0  0  0  0
   -2.8739    1.0681   -0.1874 H   0  0  0  0  0  0  0  0  0  0  0  0
   -3.0004   -0.6605   -0.5349 H   0  0  0  0  0  0  0  0  0  0  0  0
    0.4326    2.0621    0.8737 C   0  0  0  0  0  0  0  0  0  0  0  0
    1.6633    1.1925    0.9462 C   0  0  0  0  0  0  0  0  0  0  0  0
    1.4295   -0.2229    0.4550 C   0  0  0  0  0  0  0  0  0  0  0  0
    1.0248   -0.1915   -0.8914 O   0  0  0  0  0  0  0  0  0  0  0  0
    0.7060   -1.4620   -1.4021 C   0  0  0  0  0  0  0  0  0  0  0  0
    0.2265   -1.3102   -2.8266 C   0  0  0  0  0  0  0  0  0  0  0  0
   -0.5097    1.4580    1.5501 H   0  0  0  0  0  0  0  0  0  0  0  0
    0.0162    2.1592   -0.1263 H   0  0  0  0  0  0  0  0  0  0  0  0
    0.5359    3.0290    1.3627 H   0  0  0  0  0  0  0  0  0  0  0  0
    2.0210    1.1333    1.9778 H   0  0  0  0  0  0  0  0  0  0  0  0
    2.4726    1.6388    0.3573 H   0  0  0  0  0  0  0  0  0  0  0  0
    0.6528   -0.7048    1.0673 H   0  0  0  0  0  0  0  0  0  0  0  0
    2.3484   -0.8175    0.5579 H   0  0  0  0  0  0  0  0  0  0  0  0
    1.5881   -2.1169   -1.3566 H   0  0  0  0  0  0  0  0  0  0  0  0
   -0.0757   -1.9264   -0.7823 H   0  0  0  0  0  0  0  0  0  0  0  0
    0.9990   -0.8498   -3.4435 H   0  0  0  0  0  0  0  0  0  0  0  0
   -0.6643   -0.6816   -2.8635 H   0  0  0  0  0  0  0  0  0  0  0  0
   -0.0199   -2.2857   -3.2486 H   0  0  0  0  0  0  0  0  0  0  0  0
  1  2  1  0
  1  4  1  0
  2  3  1  0
  2  5  1  0
  2  6  1  0
  3  7  1  0
  3  8  1  0
  3  9  1  0
 10 11  1  0
 10 16  1  0
 10 17  1  0
 10 18  1  0
 11 12  1  0
 11 19  1  0
 11 20  1  0
 12 13  1  0
 12 21  1  0
 12 22  1  0
 13 14  1  0
 14 15  1  0
 14 23  1  0
 14 24  1  0
 15 25  1  0
 15 26  1  0
 15 27  1  0
M  RAD  1   1   3
M  END
>  <reaction>  (4) 
rmg_rxn_227

>  <mol_properties>  (4) 
{"0": {"label": "*3", "atom_type": "Cs"}, "1": {"label": "*4", "atom_type": "Cs"}, "9": {"label": "*1", "atom_type": "Cs"}, "10": {"label": "*0", "atom_type": "Cs"}, "15": {"label": "*2", "atom_type": "H0"}}

>  <type>  (4) 
ts

$$$$

     RDKit          3D

 27 25  0  0  0  0  0  0  0  0999 V2000
   -1.7782    0.5168    1.2009 C   0  0  0  0  0  3  0  0  0  0  0  0
   -2.6997    1.2868    2.0719 C   0  0  0  0  0  0  0  0  0  0  0  0
   -4.1594    0.8655    1.9415 C   0  0  0  0  0  0  0  0  0  0  0  0
   -2.1537   -0.0478    0.3569 H   0  0  0  0  0  0  0  0  0  0  0  0
   -2.3787    1.2000    3.1168 H   0  0  0  0  0  0  0  0  0  0  0  0
   -2.6141    2.3602    1.8430 H   0  0  0  0  0  0  0  0  0  0  0  0
   -4.2880   -0.1828    2.2175 H   0  0  0  0  0  0  0  0  0  0  0  0
   -4.5069    0.9848    0.9130 H   0  0  0  0  0  0  0  0  0  0  0  0
   -4.8040    1.4661    2.5849 H   0  0  0  0  0  0  0  0  0  0  0  0
    0.3355    1.6424    0.1640 C   0  0  0  0  0  3  0  0  0  0  0  0
    1.6053    0.9352    0.6183 C   0  0  0  0  0  0  0  0  0  0  0  0
    1.6449   -0.5277    0.2265 C   0  0  0  0  0  0  0  0  0  0  0  0
    1.6459   -0.6347   -1.1748 O   0  0  0  0  0  0  0  0  0  0  0  0
    1.6459   -1.9633   -1.6312 C   0  0  0  0  0  0  0  0  0  0  0  0
    1.6459   -1.9633   -3.1423 C   0  0  0  0  0  0  0  0  0  0  0  0
   -0.7268    1.0767    0.6851 H   0  0  0  0  0  0  0  0  0  0  0  0
    0.2382    1.6022   -0.9209 H   0  0  0  0  0  0  0  0  0  0  0  0
    0.3395    2.6903    0.4677 H   0  0  0  0  0  0  0  0  0  0  0  0
    1.7005    0.9945    1.7061 H   0  0  0  0  0  0  0  0  0  0  0  0
    2.4829    1.4315    0.1961 H   0  0  0  0  0  0  0  0  0  0  0  0
    0.7710   -1.0541    0.6419 H   0  0  0  0  0  0  0  0  0  0  0  0
    2.5433   -1.0090    0.6400 H   0  0  0  0  0  0  0  0  0  0  0  0
    2.5307   -2.4920   -1.2468 H   0  0  0  0  0  0  0  0  0  0  0  0
    0.7609   -2.4915   -1.2467 H   0  0  0  0  0  0  0  0  0  0  0  0
    2.5300   -1.4518   -3.5244 H   0  0  0  0  0  0  0  0  0  0  0  0
    0.7611   -1.4529   -3.5244 H   0  0  0  0  0  0  0  0  0  0  0  0
    1.6465   -2.9868   -3.5204 H   0  0  0  0  0  0  0  0  0  0  0  0
  1  2  1  0
  1  4  1  0
  1 16  1  0
  2  3  1  0
  2  5  1  0
  2  6  1  0
  3  7  1  0
  3  8  1  0
  3  9  1  0
 10 11  1  0
 10 17  1  0
 10 18  1  0
 11 12  1  0
 11 19  1  0
 11 20  1  0
 12 13  1  0
 12 21  1  0
 12 22  1  0
 13 14  1  0
 14 15  1  0
 14 23  1  0
 14 24  1  0
 15 25  1  0
 15 26  1  0
 15 27  1  0
M  RAD  2   1   2  10   2
M  END
>  <reaction>  (5) 
rmg_rxn_227

>  <mol_properties>  (5) 
{"0": {"label": "*3", "atom_type": "Cs"}, "1": {"label": "*4", "atom_type": "Cs"}, "9": {"label": "*1", "atom_type": "Cs"}, "10": {"label": "*0", "atom_type": "Cs"}, "15": {"label": "*2", "atom_type": "H0"}}

>  <type>  (5) 
unop_1

>  <geom_source>  (5) 
Heuristics

$$$$

     RDKit          3D

 27 25  0  0  0  0  0  0  0  0999 V2000
   -2.0124    0.8450    1.0189 C   0  0  0  0  0  3  0  0  0  0  0  0
   -1.9466    0.1777    2.3423 C   0  0  0  0  0  0  0  0  0  0  0  0
   -3.3022   -0.2930    2.8578 C   0  0  0  0  0  0  0  0  0  0  0  0
   -2.9510    1.2223    0.6334 H   0  0  0  0  0  0  0  0  0  0  0  0
   -1.2516   -0.6690    2.2944 H   0  0  0  0  0  0  0  0  0  0  0  0
   -1.5002    0.8624    3.0797 H   0  0  0  0  0  0  0  0  0  0  0  0
   -3.7474   -1.0191    2.1751 H   0  0  0  0  0  0  0  0  0  0  0  0
   -3.9947    0.5464    2.9500 H   0  0  0  0  0  0  0  0  0  0  0  0
   -3.2118   -0.7623    3.8385 H   0  0  0  0  0  0  0  0  0  0  0  0
    0.1012    1.9707   -0.0180 C   0  0  0  0  0  3  0  0  0  0  0  0
    1.3711    1.2635    0.4364 C   0  0  0  0  0  0  0  0  0  0  0  0
    1.4107   -0.1995    0.0445 C   0  0  0  0  0  0  0  0  0  0  0  0
    1.4116   -0.3064   -1.3567 O   0  0  0  0  0  0  0  0  0  0  0  0
    1.4116   -1.6350   -1.8131 C   0  0  0  0  0  0  0  0  0  0  0  0
    1.4116   -1.6350   -3.3243 C   0  0  0  0  0  0  0  0  0  0  0  0
   -0.9610    1.4050    0.5031 H   0  0  0  0  0  0  0  0  0  0  0  0
    0.0040    1.9305   -1.1028 H   0  0  0  0  0  0  0  0  0  0  0  0
    0.1053    3.0186    0.2857 H   0  0  0  0  0  0  0  0  0  0  0  0
    1.4662    1.3228    1.5241 H   0  0  0  0  0  0  0  0  0  0  0  0
    2.2487    1.7598    0.0141 H   0  0  0  0  0  0  0  0  0  0  0  0
    0.5367   -0.7258    0.4600 H   0  0  0  0  0  0  0  0  0  0  0  0
    2.3091   -0.6808    0.4581 H   0  0  0  0  0  0  0  0  0  0  0  0
    2.2965   -2.1638   -1.4287 H   0  0  0  0  0  0  0  0  0  0  0  0
    0.5267   -2.1633   -1.4286 H   0  0  0  0  0  0  0  0  0  0  0  0
    2.2958   -1.1235   -3.7064 H   0  0  0  0  0  0  0  0  0  0  0  0
    0.5268   -1.1247   -3.7064 H   0  0  0  0  0  0  0  0  0  0  0  0
    1.4122   -2.6586   -3.7023 H   0  0  0  0  0  0  0  0  0  0  0  0
  1  2  1  0
  1  4  1  0
  1 16  1  0
  2  3  1  0
  2  5  1  0
  2  6  1  0
  3  7  1  0
  3  8  1  0
  3  9  1  0
 10 11  1  0
 10 17  1  0
 10 18  1  0
 11 12  1  0
 11 19  1  0
 11 20  1  0
 12 13  1  0
 12 21  1  0
 12 22  1  0
 13 14  1  0
 14 15  1  0
 14 23  1  0
 14 24  1  0
 15 25  1  0
 15 26  1  0
 15 27  1  0
M  RAD  2   1   2  10   2
M  END
>  <reaction>  (6) 
rmg_rxn_227

>  <mol_properties>  (6) 
{"0": {"label": "*3", "atom_type": "Cs"}, "1": {"label": "*4", "atom_type": "Cs"}, "9": {"label": "*1", "atom_type": "Cs"}, "10": {"label": "*0", "atom_type": "Cs"}, "15": {"label": "*2", "atom_type": "H0"}}

>  <type>  (6) 
unop_2

>  <geom_source>  (6) 
Heuristics

$$$$

     RDKit          3D

 27 25  0  0  0  0  0  0  0  0999 V2000
   -1.7326    0.5621    1.3158 C   0  0  0  0  0  3  0  0  0  0  0  0
   -2.9541    1.3547    1.6001 C   0  0  0  0  0  0  0  0  0  0  0  0
   -4.2325    0.5237    1.6149 C   0  0  0  0  0  0  0  0  0  0  0  0
   -1.8003   -0.4201    0.8657 H   0  0  0  0  0  0  0  0  0  0  0  0
   -2.8394    1.8793    2.5560 H   0  0  0  0  0  0  0  0  0  0  0  0
   -3.0561    2.1570    0.8532 H   0  0  0  0  0  0  0  0  0  0  0  0
   -4.1864   -0.2474    2.3861 H   0  0  0  0  0  0  0  0  0  0  0  0
   -4.3827    0.0263    0.6543 H   0  0  0  0  0  0  0  0  0  0  0  0
   -5.1070    1.1458    1.8106 H   0  0  0  0  0  0  0  0  0  0  0  0
    0.3810    1.6878    0.2789 C   0  0  0  0  0  3  0  0  0  0  0  0
    1.6509    0.9805    0.7332 C   0  0  0  0  0  0  0  0  0  0  0  0
    1.6905   -0.4824    0.3414 C   0  0  0  0  0  0  0  0  0  0  0  0
    1.6914   -0.5893   -1.0599 O   0  0  0  0  0  0  0  0  0  0  0  0
    1.6914   -1.9180   -1.5163 C   0  0  0  0  0  0  0  0  0  0  0  0
    1.6914   -1.9180   -3.0274 C   0  0  0  0  0  0  0  0  0  0  0  0
   -0.6812    1.1221    0.8000 H   0  0  0  0  0  0  0  0  0  0  0  0
    0.2838    1.6475   -0.8060 H   0  0  0  0  0  0  0  0  0  0  0  0
    0.3851    2.7356    0.5826 H   0  0  0  0  0  0  0  0  0  0  0  0
    1.7460    1.0399    1.8210 H   0  0  0  0  0  0  0  0  0  0  0  0
    2.5285    1.4769    0.3110 H   0  0  0  0  0  0  0  0  0  0  0  0
    0.8165   -1.0087    0.7568 H   0  0  0  0  0  0  0  0  0  0  0  0
    2.5889   -0.9637    0.7549 H   0  0  0  0  0  0  0  0  0  0  0  0
    2.5763   -2.4467   -1.1318 H   0  0  0  0  0  0  0  0  0  0  0  0
    0.8065   -2.4462   -1.1317 H   0  0  0  0  0  0  0  0  0  0  0  0
    2.5756   -1.4065   -3.4095 H   0  0  0  0  0  0  0  0  0  0  0  0
    0.8066   -1.4076   -3.4095 H   0  0  0  0  0  0  0  0  0  0  0  0
    1.6920   -2.9415   -3.4055 H   0  0  0  0  0  0  0  0  0  0  0  0
  1  2  1  0
  1  4  1  0
  1 16  1  0
  2  3  1  0
  2  5  1  0
  2  6  1  0
  3  7  1  0
  3  8  1  0
  3  9  1  0
 10 11  1  0
 10 17  1  0
 10 18  1  0
 11 12  1  0
 11 19  1  0
 11 20  1  0
 12 13  1  0
 12 21  1  0
 12 22  1  0
 13 14  1  0
 14 15  1  0
 14 23  1  0
 14 24  1  0
 15 25  1  0
 15 26  1  0
 15 27  1  0
M  RAD  2   1   2  10   2
M  END
>  <reaction>  (7) 
rmg_rxn_227

>  <mol_properties>  (7) 
{"0": {"label": "*3", "atom_type": "Cs"}, "1": {"label": "*4", "atom_type": "Cs"}, "9": {"label": "*1", "atom_type": "Cs"}, "10": {"label": "*0", "atom_type": "Cs"}, "15": {"label": "*2", "atom_type": "H0"}}

>  <type>  (7) 
unop_3

>  <geom_source>  (7) 
Heuristics

$$$$

     RDKit          3D

 27 25  0  0  0  0  0  0  0  0999 V2000
   -1.9141    0.9923    1.4744 C   0  0  0  0  0  3  0  0  0  0  0  0
   -2.2243   -0.4337    1.2076 C   0  0  0  0  0  0  0  0  0  0  0  0
   -3.6942   -0.6916    0.8946 C   0  0  0  0  0  0  0  0  0  0  0  0
   -2.6998    1.6943    1.7230 H   0  0  0  0  0  0  0  0  0  0  0  0
   -1.5985   -0.8000    0.3851 H   0  0  0  0  0  0  0  0  0  0  0  0
   -1.9295   -1.0446    2.0746 H   0  0  0  0  0  0  0  0  0  0  0  0
   -4.0044   -0.1430    0.0033 H   0  0  0  0  0  0  0  0  0  0  0  0
   -4.3292   -0.3691    1.7226 H   0  0  0  0  0  0  0  0  0  0  0  0
   -3.8823   -1.7521    0.7214 H   0  0  0  0  0  0  0  0  0  0  0  0
    0.1995    2.1179    0.4374 C   0  0  0  0  0  3  0  0  0  0  0  0
    1.4694    1.4107    0.8918 C   0  0  0  0  0  0  0  0  0  0  0  0
    1.5090   -0.0523    0.4999 C   0  0  0  0  0  0  0  0  0  0  0  0
    1.5099   -0.1592   -0.9013 O   0  0  0  0  0  0  0  0  0  0  0  0
    1.5099   -1.4878   -1.3577 C   0  0  0  0  0  0  0  0  0  0  0  0
    1.5099   -1.4878   -2.8688 C   0  0  0  0  0  0  0  0  0  0  0  0
   -0.8627    1.5522    0.9586 H   0  0  0  0  0  0  0  0  0  0  0  0
    0.1023    2.0777   -0.6474 H   0  0  0  0  0  0  0  0  0  0  0  0
    0.2036    3.1658    0.7411 H   0  0  0  0  0  0  0  0  0  0  0  0
    1.5645    1.4700    1.9796 H   0  0  0  0  0  0  0  0  0  0  0  0
    2.3470    1.9070    0.4695 H   0  0  0  0  0  0  0  0  0  0  0  0
    0.6350   -0.5786    0.9154 H   0  0  0  0  0  0  0  0  0  0  0  0
    2.4074   -0.5335    0.9135 H   0  0  0  0  0  0  0  0  0  0  0  0
    2.3948   -2.0166   -0.9733 H   0  0  0  0  0  0  0  0  0  0  0  0
    0.6250   -2.0161   -0.9732 H   0  0  0  0  0  0  0  0  0  0  0  0
    2.3941   -0.9763   -3.2510 H   0  0  0  0  0  0  0  0  0  0  0  0
    0.6251   -0.9775   -3.2510 H   0  0  0  0  0  0  0  0  0  0  0  0
    1.5105   -2.5113   -3.2469 H   0  0  0  0  0  0  0  0  0  0  0  0
  1  2  1  0
  1  4  1  0
  1 16  1  0
  2  3  1  0
  2  5  1  0
  2  6  1  0
  3  7  1  0
  3  8  1  0
  3  9  1  0
 10 11  1  0
 10 17  1  0
 10 18  1  0
 11 12  1  0
 11 19  1  0
 11 20  1  0
 12 13  1  0
 12 21  1  0
 12 22  1  0
 13 14  1  0
 14 15  1  0
 14 23  1  0
 14 24  1  0
 15 25  1  0
 15 26  1  0
 15 27  1  0
M  RAD  2   1   2  10   2
M  END
>  <reaction>  (8) 
rmg_rxn_227

>  <mol_properties>  (8) 
{"0": {"label": "*3", "atom_type": "Cs"}, "1": {"label": "*4", "atom_type": "Cs"}, "9": {"label": "*1", "atom_type": "Cs"}, "10": {"label": "*0", "atom_type": "Cs"}, "15": {"label": "*2", "atom_type": "H0"}}

>  <type>  (8) 
unop_4

>  <geom_source>  (8) 
Heuristics

$$$$

     RDKit          3D

 27 25  0  0  0  0  0  0  0  0999 V2000
   -1.7248    0.5972    1.3399 C   0  0  0  0  0  3  0  0  0  0  0  0
   -3.0839    1.1121    1.0421 C   0  0  0  0  0  0  0  0  0  0  0  0
   -4.1696    0.5262    1.9383 C   0  0  0  0  0  0  0  0  0  0  0  0
   -1.5884   -0.3129    1.9102 H   0  0  0  0  0  0  0  0  0  0  0  0
   -3.0888    2.2059    1.1172 H   0  0  0  0  0  0  0  0  0  0  0  0
   -3.3356    0.9044   -0.0093 H   0  0  0  0  0  0  0  0  0  0  0  0
   -3.9793    0.7641    2.9865 H   0  0  0  0  0  0  0  0  0  0  0  0
   -4.2050   -0.5613    1.8441 H   0  0  0  0  0  0  0  0  0  0  0  0
   -5.1536    0.9176    1.6760 H   0  0  0  0  0  0  0  0  0  0  0  0
    0.3888    1.7228    0.3030 C   0  0  0  0  0  3  0  0  0  0  0  0
    1.6587    1.0156    0.7573 C   0  0  0  0  0  0  0  0  0  0  0  0
    1.6983   -0.4474    0.3655 C   0  0  0  0  0  0  0  0  0  0  0  0
    1.6993   -0.5543   -1.0358 O   0  0  0  0  0  0  0  0  0  0  0  0
    1.6993   -1.8829   -1.4921 C   0  0  0  0  0  0  0  0  0  0  0  0
    1.6993   -1.8829   -3.0033 C   0  0  0  0  0  0  0  0  0  0  0  0
   -0.6734    1.1571    0.8241 H   0  0  0  0  0  0  0  0  0  0  0  0
    0.2916    1.6826   -0.7819 H   0  0  0  0  0  0  0  0  0  0  0  0
    0.3929    2.7707    0.6067 H   0  0  0  0  0  0  0  0  0  0  0  0
    1.7539    1.0749    1.8451 H   0  0  0  0  0  0  0  0  0  0  0  0
    2.5363    1.5119    0.3351 H   0  0  0  0  0  0  0  0  0  0  0  0
    0.8243   -0.9737    0.7809 H   0  0  0  0  0  0  0  0  0  0  0  0
    2.5967   -0.9286    0.7790 H   0  0  0  0  0  0  0  0  0  0  0  0
    2.5841   -2.4117   -1.1077 H   0  0  0  0  0  0  0  0  0  0  0  0
    0.8143   -2.4112   -1.1076 H   0  0  0  0  0  0  0  0  0  0  0  0
    2.5834   -1.3714   -3.3854 H   0  0  0  0  0  0  0  0  0  0  0  0
    0.8144   -1.3726   -3.3854 H   0  0  0  0  0  0  0  0  0  0  0  0
    1.6999   -2.9064   -3.3814 H   0  0  0  0  0  0  0  0  0  0  0  0
  1  2  1  0
  1  4  1  0
  1 16  1  0
  2  3  1  0
  2  5  1  0
  2  6  1  0
  3  7  1  0
  3  8  1  0
  3  9  1  0
 10 11  1  0
 10 17  1  0
 10 18  1  0
 11 12  1  0
 11 19  1  0
 11 20  1  0
 12 13  1  0
 12 21  1  0
 12 22  1  0
 13 14  1  0
 14 15  1  0
 14 23  1  0
 14 24  1  0
 15 25  1  0
 15 26  1  0
 15 27  1  0
M  RAD  2   1   2  10   2
M  END
>  <reaction>  (9) 
rmg_rxn_227

>  <mol_properties>  (9) 
{"0": {"label": "*3", "atom_type": "Cs"}, "1": {"label": "*4", "atom_type": "Cs"}, "9": {"label": "*1", "atom_type": "Cs"}, "10": {"label": "*0", "atom_type": "Cs"}, "15": {"label": "*2", "atom_type": "H0"}}

>  <type>  (9) 
unop_5

>  <geom_source>  (9) 
Heuristics

$$$$

     RDKit          3D

 27 25  0  0  0  0  0  0  0  0999 V2000
   -1.8256    0.8621    1.5585 C   0  0  0  0  0  3  0  0  0  0  0  0
   -2.5176   -0.2472    0.8573 C   0  0  0  0  0  0  0  0  0  0  0  0
   -4.0102   -0.0076    0.6578 C   0  0  0  0  0  0  0  0  0  0  0  0
   -2.3847    1.5935    2.1281 H   0  0  0  0  0  0  0  0  0  0  0  0
   -2.0366   -0.4286   -0.1111 H   0  0  0  0  0  0  0  0  0  0  0  0
   -2.3763   -1.1840    1.4179 H   0  0  0  0  0  0  0  0  0  0  0  0
   -4.1839    0.8858    0.0551 H   0  0  0  0  0  0  0  0  0  0  0  0
   -4.5117    0.1347    1.6175 H   0  0  0  0  0  0  0  0  0  0  0  0
   -4.4832   -0.8521    0.1546 H   0  0  0  0  0  0  0  0  0  0  0  0
    0.2880    1.9877    0.5216 C   0  0  0  0  0  3  0  0  0  0  0  0
    1.5579    1.2805    0.9759 C   0  0  0  0  0  0  0  0  0  0  0  0
    1.5975   -0.1824    0.5841 C   0  0  0  0  0  0  0  0  0  0  0  0
    1.5984   -0.2894   -0.8172 O   0  0  0  0  0  0  0  0  0  0  0  0
    1.5984   -1.6180   -1.2735 C   0  0  0  0  0  0  0  0  0  0  0  0
    1.5984   -1.6180   -2.7847 C   0  0  0  0  0  0  0  0  0  0  0  0
   -0.7742    1.4220    1.0427 H   0  0  0  0  0  0  0  0  0  0  0  0
    0.1907    1.9475   -0.5633 H   0  0  0  0  0  0  0  0  0  0  0  0
    0.2920    3.0356    0.8253 H   0  0  0  0  0  0  0  0  0  0  0  0
    1.6530    1.3398    2.0637 H   0  0  0  0  0  0  0  0  0  0  0  0
    2.4355    1.7768    0.5537 H   0  0  0  0  0  0  0  0  0  0  0  0
    0.7235   -0.7088    0.9995 H   0  0  0  0  0  0  0  0  0  0  0  0
    2.4959   -0.6637    0.9976 H   0  0  0  0  0  0  0  0  0  0  0  0
    2.4833   -2.1467   -0.8891 H   0  0  0  0  0  0  0  0  0  0  0  0
    0.7135   -2.1462   -0.8890 H   0  0  0  0  0  0  0  0  0  0  0  0
    2.4825   -1.1065   -3.1668 H   0  0  0  0  0  0  0  0  0  0  0  0
    0.7136   -1.1076   -3.1668 H   0  0  0  0  0  0  0  0  0  0  0  0
    1.5990   -2.6415   -3.1628 H   0  0  0  0  0  0  0  0  0  0  0  0
  1  2  1  0
  1  4  1  0
  1 16  1  0
  2  3  1  0
  2  5  1  0
  2  6  1  0
  3  7  1  0
  3  8  1  0
  3  9  1  0
 10 11  1  0
 10 17  1  0
 10 18  1  0
 11 12  1  0
 11 19  1  0
 11 20  1  0
 12 13  1  0
 12 21  1  0
 12 22  1  0
 13 14  1  0
 14 15  1  0
 14 23  1  0
 14 24  1  0
 15 25  1  0
 15 26  1  0
 15 27  1  0
M  RAD  2   1   2  10   2
M  END
>  <reaction>  (10) 
rmg_rxn_227

>  <mol_properties>  (10) 
{"0": {"label": "*3", "atom_type": "Cs"}, "1": {"label": "*4", "atom_type": "Cs"}, "9": {"label": "*1", "atom_type": "Cs"}, "10": {"label": "*0", "atom_type": "Cs"}, "15": {"label": "*2", "atom_type": "H0"}}

>  <type>  (10) 
unop_6

>  <geom_source>  (10) 
Heuristics

$$$$

     RDKit          3D

 27 25  0  0  0  0  0  0  0  0999 V2000
   -1.7572    0.7031    1.5427 C   0  0  0  0  0  3  0  0  0  0  0  0
   -2.8106    0.1200    0.6760 C   0  0  0  0  0  0  0  0  0  0  0  0
   -4.1974    0.7045    0.9215 C   0  0  0  0  0  0  0  0  0  0  0  0
   -2.0161    1.2428    2.4447 H   0  0  0  0  0  0  0  0  0  0  0  0
   -2.5339    0.2469   -0.3774 H   0  0  0  0  0  0  0  0  0  0  0  0
   -2.8493   -0.9702    0.8239 H   0  0  0  0  0  0  0  0  0  0  0  0
   -4.2068    1.7787    0.7276 H   0  0  0  0  0  0  0  0  0  0  0  0
   -4.5052    0.5500    1.9579 H   0  0  0  0  0  0  0  0  0  0  0  0
   -4.9437    0.2380    0.2771 H   0  0  0  0  0  0  0  0  0  0  0  0
    0.3564    1.8288    0.5058 C   0  0  0  0  0  3  0  0  0  0  0  0
    1.6263    1.1215    0.9601 C   0  0  0  0  0  0  0  0  0  0  0  0
    1.6659   -0.3414    0.5683 C   0  0  0  0  0  0  0  0  0  0  0  0
    1.6669   -0.4483   -0.8330 O   0  0  0  0  0  0  0  0  0  0  0  0
    1.6669   -1.7770   -1.2894 C   0  0  0  0  0  0  0  0  0  0  0  0
    1.6669   -1.7770   -2.8005 C   0  0  0  0  0  0  0  0  0  0  0  0
   -0.7058    1.2631    1.0269 H   0  0  0  0  0  0  0  0  0  0  0  0
    0.2592    1.7885   -0.5791 H   0  0  0  0  0  0  0  0  0  0  0  0
    0.3605    2.8766    0.8095 H   0  0  0  0  0  0  0  0  0  0  0  0
    1.7214    1.1809    2.0479 H   0  0  0  0  0  0  0  0  0  0  0  0
    2.5039    1.6179    0.5379 H   0  0  0  0  0  0  0  0  0  0  0  0
    0.7919   -0.8677    0.9837 H   0  0  0  0  0  0  0  0  0  0  0  0
    2.5643   -0.8227    0.9818 H   0  0  0  0  0  0  0  0  0  0  0  0
    2.5517   -2.3057   -0.9050 H   0  0  0  0  0  0  0  0  0  0  0  0
    0.7819   -2.3052   -0.9049 H   0  0  0  0  0  0  0  0  0  0  0  0
    2.5510   -1.2655   -3.1826 H   0  0  0  0  0  0  0  0  0  0  0  0
    0.7820   -1.2666   -3.1826 H   0  0  0  0  0  0  0  0  0  0  0  0
    1.6674   -2.8005   -3.1786 H   0  0  0  0  0  0  0  0  0  0  0  0
  1  2  1  0
  1  4  1  0
  1 16  1  0
  2  3  1  0
  2  5  1  0
  2  6  1  0
  3  7  1  0
  3  8  1  0
  3  9  1  0
 10 11  1  0
 10 17  1  0
 10 18  1  0
 11 12  1  0
 11 19  1  0
 11 20  1  0
 12 13  1  0
 12 21  1  0
 12 22  1  0
 13 14  1  0
 14 15  1  0
 14 23  1  0
 14 24  1  0
 15 25  1  0
 15 26  1  0
 15 27  1  0
M  RAD  2   1   2  10   2
M  END
>  <reaction>  (11) 
rmg_rxn_227

>  <mol_properties>  (11) 
{"0": {"label": "*3", "atom_type": "Cs"}, "1": {"label": "*4", "atom_type": "Cs"}, "9": {"label": "*1", "atom_type": "Cs"}, "10": {"label": "*0", "atom_type": "Cs"}, "15": {"label": "*2", "atom_type": "H0"}}

>  <type>  (11) 
unop_7

>  <geom_source>  (11) 
Heuristics

$$$$

     RDKit          3D

 27 25  0  0  0  0  0  0  0  0999 V2000
   -1.8580    0.5576    1.0711 C   0  0  0  0  0  3  0  0  0  0  0  0
   -2.3977    1.0108    2.3765 C   0  0  0  0  0  0  0  0  0  0  0  0
   -3.9069    0.8374    2.5076 C   0  0  0  0  0  0  0  0  0  0  0  0
   -2.5101    0.4211    0.2178 H   0  0  0  0  0  0  0  0  0  0  0  0
   -1.8895    0.4800    3.1903 H   0  0  0  0  0  0  0  0  0  0  0  0
   -2.1432    2.0702    2.5339 H   0  0  0  0  0  0  0  0  0  0  0  0
   -4.1876   -0.2133    2.4130 H   0  0  0  0  0  0  0  0  0  0  0  0
   -4.4303    1.3940    1.7273 H   0  0  0  0  0  0  0  0  0  0  0  0
   -4.2646    1.1972    3.4734 H   0  0  0  0  0  0  0  0  0  0  0  0
    0.2557    1.6833    0.0342 C   0  0  0  0  0  3  0  0  0  0  0  0
    1.5256    0.9760    0.4885 C   0  0  0  0  0  0  0  0  0  0  0  0
    1.5651   -0.4869    0.0967 C   0  0  0  0  0  0  0  0  0  0  0  0
    1.5661   -0.5938   -1.3046 O   0  0  0  0  0  0  0  0  0  0  0  0
    1.5661   -1.9225   -1.7610 C   0  0  0  0  0  0  0  0  0  0  0  0
    1.5661   -1.9225   -3.2721 C   0  0  0  0  0  0  0  0  0  0  0  0
   -0.8065    1.1175    0.5553 H   0  0  0  0  0  0  0  0  0  0  0  0
    0.1584    1.6430   -1.0507 H   0  0  0  0  0  0  0  0  0  0  0  0
    0.2597    2.7311    0.3379 H   0  0  0  0  0  0  0  0  0  0  0  0
    1.6207    1.0354    1.5763 H   0  0  0  0  0  0  0  0  0  0  0  0
    2.4031    1.4723    0.0663 H   0  0  0  0  0  0  0  0  0  0  0  0
    0.6912   -1.0133    0.5121 H   0  0  0  0  0  0  0  0  0  0  0  0
    2.4636   -0.9682    0.5102 H   0  0  0  0  0  0  0  0  0  0  0  0
    2.4510   -2.4512   -1.3766 H   0  0  0  0  0  0  0  0  0  0  0  0
    0.6812   -2.4507   -1.3765 H   0  0  0  0  0  0  0  0  0  0  0  0
    2.4502   -1.4110   -3.6542 H   0  0  0  0  0  0  0  0  0  0  0  0
    0.6813   -1.4121   -3.6542 H   0  0  0  0  0  0  0  0  0  0  0  0
    1.5667   -2.9460   -3.6502 H   0  0  0  0  0  0  0  0  0  0  0  0
  1  2  1  0
  1  4  1  0
  1 16  1  0
  2  3  1  0
  2  5  1  0
  2  6  1  0
  3  7  1  0
  3  8  1  0
  3  9  1  0
 10 11  1  0
 10 17  1  0
 10 18  1  0
 11 12  1  0
 11 19  1  0
 11 20  1  0
 12 13  1  0
 12 21  1  0
 12 22  1  0
 13 14  1  0
 14 15  1  0
 14 23  1  0
 14 24  1  0
 15 25  1  0
 15 26  1  0
 15 27  1  0
M  RAD  2   1   2  10   2
M  END
>  <reaction>  (12) 
rmg_rxn_227

>  <mol_properties>  (12) 
{"0": {"label": "*3", "atom_type": "Cs"}, "1": {"label": "*4", "atom_type": "Cs"}, "9": {"label": "*1", "atom_type": "Cs"}, "10": {"label": "*0", "atom_type": "Cs"}, "15": {"label": "*2", "atom_type": "H0"}}

>  <type>  (12) 
unop_8

>  <geom_source>  (12) 
Heuristics

$$$$

     RDKit          3D

 27 25  0  0  0  0  0  0  0  0999 V2000
   -1.9920    1.0420    1.3160 C   0  0  0  0  0  3  0  0  0  0  0  0
   -2.0023   -0.4066    1.6360 C   0  0  0  0  0  0  0  0  0  0  0  0
   -3.3849   -1.0431    1.5447 C   0  0  0  0  0  0  0  0  0  0  0  0
   -2.9072    1.6201    1.3294 H   0  0  0  0  0  0  0  0  0  0  0  0
   -1.3043   -0.9353    0.9760 H   0  0  0  0  0  0  0  0  0  0  0  0
   -1.6008   -0.5642    2.6488 H   0  0  0  0  0  0  0  0  0  0  0  0
   -3.7884   -0.9540    0.5344 H   0  0  0  0  0  0  0  0  0  0  0  0
   -4.0829   -0.5534    2.2271 H   0  0  0  0  0  0  0  0  0  0  0  0
   -3.3511   -2.1025    1.8031 H   0  0  0  0  0  0  0  0  0  0  0  0
    0.1216    2.1677    0.2790 C   0  0  0  0  0  3  0  0  0  0  0  0
    1.3915    1.4604    0.7334 C   0  0  0  0  0  0  0  0  0  0  0  0
    1.4311   -0.0025    0.3415 C   0  0  0  0  0  0  0  0  0  0  0  0
    1.4320   -0.1095   -1.0597 O   0  0  0  0  0  0  0  0  0  0  0  0
    1.4320   -1.4381   -1.5161 C   0  0  0  0  0  0  0  0  0  0  0  0
    1.4320   -1.4381   -3.0272 C   0  0  0  0  0  0  0  0  0  0  0  0
   -0.9406    1.6019    0.8002 H   0  0  0  0  0  0  0  0  0  0  0  0
    0.0244    2.1274   -0.8058 H   0  0  0  0  0  0  0  0  0  0  0  0
    0.1257    3.2155    0.5827 H   0  0  0  0  0  0  0  0  0  0  0  0
    1.4866    1.5198    1.8212 H   0  0  0  0  0  0  0  0  0  0  0  0
    2.2691    1.9567    0.3111 H   0  0  0  0  0  0  0  0  0  0  0  0
    0.5571   -0.5289    0.7570 H   0  0  0  0  0  0  0  0  0  0  0  0
    2.3295   -0.4838    0.7551 H   0  0  0  0  0  0  0  0  0  0  0  0
    2.3169   -1.9668   -1.1317 H   0  0  0  0  0  0  0  0  0  0  0  0
    0.5471   -1.9663   -1.1316 H   0  0  0  0  0  0  0  0  0  0  0  0
    2.3162   -0.9266   -3.4094 H   0  0  0  0  0  0  0  0  0  0  0  0
    0.5472   -0.9277   -3.4094 H   0  0  0  0  0  0  0  0  0  0  0  0
    1.4326   -2.4616   -3.4053 H   0  0  0  0  0  0  0  0  0  0  0  0
  1  2  1  0
  1  4  1  0
  1 16  1  0
  2  3  1  0
  2  5  1  0
  2  6  1  0
  3  7  1  0
  3  8  1  0
  3  9  1  0
 10 11  1  0
 10 17  1  0
 10 18  1  0
 11 12  1  0
 11 19  1  0
 11 20  1  0
 12 13  1  0
 12 21  1  0
 12 22  1  0
 13 14  1  0
 14 15  1  0
 14 23  1  0
 14 24  1  0
 15 25  1  0
 15 26  1  0
 15 27  1  0
M  RAD  2   1   2  10   2
M  END
>  <reaction>  (13) 
rmg_rxn_227

>  <mol_properties>  (13) 
{"0": {"label": "*3", "atom_type": "Cs"}, "1": {"label": "*4", "atom_type": "Cs"}, "9": {"label": "*1", "atom_type": "Cs"}, "10": {"label": "*0", "atom_type": "Cs"}, "15": {"label": "*2", "atom_type": "H0"}}

>  <type>  (13) 
unop_9

>  <geom_source>  (13) 
Heuristics

$$$$

     RDKit          3D

 27 25  0  0  0  0  0  0  0  0999 V2000
   -1.9466    0.6806    0.9970 C   0  0  0  0  0  3  0  0  0  0  0  0
   -2.1249    0.6077    2.4680 C   0  0  0  0  0  0  0  0  0  0  0  0
   -3.5718    0.3926    2.8986 C   0  0  0  0  0  0  0  0  0  0  0  0
   -2.7887    0.8729    0.3444 H   0  0  0  0  0  0  0  0  0  0  0  0
   -1.4920   -0.1885    2.8774 H   0  0  0  0  0  0  0  0  0  0  0  0
   -1.7457    1.5309    2.9324 H   0  0  0  0  0  0  0  0  0  0  0  0
   -3.9610   -0.5462    2.5002 H   0  0  0  0  0  0  0  0  0  0  0  0
   -4.2093    1.2002    2.5324 H   0  0  0  0  0  0  0  0  0  0  0  0
   -3.6612    0.3616    3.9854 H   0  0  0  0  0  0  0  0  0  0  0  0
    0.1670    1.8062   -0.0399 C   0  0  0  0  0  3  0  0  0  0  0  0
    1.4369    1.0990    0.4144 C   0  0  0  0  0  0  0  0  0  0  0  0
    1.4765   -0.3640    0.0225 C   0  0  0  0  0  0  0  0  0  0  0  0
    1.4774   -0.4709   -1.3787 O   0  0  0  0  0  0  0  0  0  0  0  0
    1.4774   -1.7995   -1.8351 C   0  0  0  0  0  0  0  0  0  0  0  0
    1.4774   -1.7995   -3.3462 C   0  0  0  0  0  0  0  0  0  0  0  0
   -0.8952    1.2405    0.4812 H   0  0  0  0  0  0  0  0  0  0  0  0
    0.0698    1.7660   -1.1248 H   0  0  0  0  0  0  0  0  0  0  0  0
    0.1711    2.8541    0.2637 H   0  0  0  0  0  0  0  0  0  0  0  0
    1.5320    1.1583    1.5022 H   0  0  0  0  0  0  0  0  0  0  0  0
    2.3145    1.5953   -0.0079 H   0  0  0  0  0  0  0  0  0  0  0  0
    0.6025   -0.8903    0.4380 H   0  0  0  0  0  0  0  0  0  0  0  0
    2.3749   -0.8452    0.4361 H   0  0  0  0  0  0  0  0  0  0  0  0
    2.3623   -2.3282   -1.4507 H   0  0  0  0  0  0  0  0  0  0  0  0
    0.5925   -2.3278   -1.4506 H   0  0  0  0  0  0  0  0  0  0  0  0
    2.3616   -1.2880   -3.7284 H   0  0  0  0  0  0  0  0  0  0  0  0
    0.5926   -1.2892   -3.7284 H   0  0  0  0  0  0  0  0  0  0  0  0
    1.4780   -2.8230   -3.7243 H   0  0  0  0  0  0  0  0  0  0  0  0
  1  2  1  0
  1  4  1  0
  1 16  1  0
  2  3  1  0
  2  5  1  0
  2  6  1  0
  3  7  1  0
  3  8  1  0
  3  9  1  0
 10 11  1  0
 10 17  1  0
 10 18  1  0
 11 12  1  0
 11 19  1  0
 11 20  1  0
 12 13  1  0
 12 21  1  0
 12 22  1  0
 13 14  1  0
 14 15  1  0
 14 23  1  0
 14 24  1  0
 15 25  1  0
 15 26  1  0
 15 27  1  0
M  RAD  2   1   2  10   2
M  END
>  <reaction>  (14) 
rmg_rxn_227

>  <mol_properties>  (14) 
{"0": {"label": "*3", "atom_type": "Cs"}, "1": {"label": "*4", "atom_type": "Cs"}, "9": {"label": "*1", "atom_type": "Cs"}, "10": {"label": "*0", "atom_type": "Cs"}, "15": {"label": "*2", "atom_type": "H0"}}

>  <type>  (14) 
unop_10

>  <geom_source>  (14) 
Heuristics

$$$$

     RDKit          3D

 27 25  0  0  0  0  0  0  0  0999 V2000
   -1.7277    0.5883    1.4357 C   0  0  0  0  0  3  0  0  0  0  0  0
   -3.0253    0.5997    0.7167 C   0  0  0  0  0  0  0  0  0  0  0  0
   -4.2016    1.0330    1.5847 C   0  0  0  0  0  0  0  0  0  0  0  0
   -1.6925    0.5843    2.5177 H   0  0  0  0  0  0  0  0  0  0  0  0
   -2.9533    1.2485   -0.1643 H   0  0  0  0  0  0  0  0  0  0  0  0
   -3.2303   -0.4019    0.3084 H   0  0  0  0  0  0  0  0  0  0  0  0
   -4.0553    2.0475    1.9601 H   0  0  0  0  0  0  0  0  0  0  0  0
   -4.3120    0.3712    2.4464 H   0  0  0  0  0  0  0  0  0  0  0  0
   -5.1369    1.0117    1.0237 H   0  0  0  0  0  0  0  0  0  0  0  0
    0.3859    1.7140    0.3988 C   0  0  0  0  0  3  0  0  0  0  0  0
    1.6558    1.0067    0.8532 C   0  0  0  0  0  0  0  0  0  0  0  0
    1.6954   -0.4562    0.4613 C   0  0  0  0  0  0  0  0  0  0  0  0
    1.6964   -0.5631   -0.9399 O   0  0  0  0  0  0  0  0  0  0  0  0
    1.6964   -1.8917   -1.3963 C   0  0  0  0  0  0  0  0  0  0  0  0
    1.6964   -1.8917   -2.9075 C   0  0  0  0  0  0  0  0  0  0  0  0
   -0.6763    1.1483    0.9199 H   0  0  0  0  0  0  0  0  0  0  0  0
    0.2887    1.6738   -0.6860 H   0  0  0  0  0  0  0  0  0  0  0  0
    0.3900    2.7619    0.7025 H   0  0  0  0  0  0  0  0  0  0  0  0
    1.7510    1.0661    1.9409 H   0  0  0  0  0  0  0  0  0  0  0  0
    2.5334    1.5031    0.4309 H   0  0  0  0  0  0  0  0  0  0  0  0
    0.8214   -0.9825    0.8768 H   0  0  0  0  0  0  0  0  0  0  0  0
    2.5938   -0.9375    0.8749 H   0  0  0  0  0  0  0  0  0  0  0  0
    2.5812   -2.4205   -1.0119 H   0  0  0  0  0  0  0  0  0  0  0  0
    0.8114   -2.4200   -1.0118 H   0  0  0  0  0  0  0  0  0  0  0  0
    2.5805   -1.3803   -3.2896 H   0  0  0  0  0  0  0  0  0  0  0  0
    0.8116   -1.3814   -3.2896 H   0  0  0  0  0  0  0  0  0  0  0  0
    1.6970   -2.9153   -3.2855 H   0  0  0  0  0  0  0  0  0  0  0  0
  1  2  1  0
  1  4  1  0
  1 16  1  0
  2  3  1  0
  2  5  1  0
  2  6  1  0
  3  7  1  0
  3  8  1  0
  3  9  1  0
 10 11  1  0
 10 17  1  0
 10 18  1  0
 11 12  1  0
 11 19  1  0
 11 20  1  0
 12 13  1  0
 12 21  1  0
 12 22  1  0
 13 14  1  0
 14 15  1  0
 14 23  1  0
 14 24  1  0
 15 25  1  0
 15 26  1  0
 15 27  1  0
M  RAD  2   1   2  10   2
M  END
>  <reaction>  (15) 
rmg_rxn_227

>  <mol_properties>  (15) 
{"0": {"label": "*3", "atom_type": "Cs"}, "1": {"label": "*4", "atom_type": "Cs"}, "9": {"label": "*1", "atom_type": "Cs"}, "10": {"label": "*0", "atom_type": "Cs"}, "15": {"label": "*2", "atom_type": "H0"}}

>  <type>  (15) 
unop_11

>  <geom_source>  (15) 
Heuristics

$$$$

     RDKit          3D

 27 25  0  0  0  0  0  0  0  0999 V2000
   -2.0299    0.9861    1.1403 C   0  0  0  0  0  3  0  0  0  0  0  0
   -1.9025   -0.1848    2.0423 C   0  0  0  0  0  0  0  0  0  0  0  0
   -3.2275   -0.8829    2.3289 C   0  0  0  0  0  0  0  0  0  0  0  0
   -2.9903    1.4573    0.9743 H   0  0  0  0  0  0  0  0  0  0  0  0
   -1.1880   -0.9007    1.6191 H   0  0  0  0  0  0  0  0  0  0  0  0
   -1.4494    0.1301    2.9949 H   0  0  0  0  0  0  0  0  0  0  0  0
   -3.6767   -1.2586    1.4076 H   0  0  0  0  0  0  0  0  0  0  0  0
   -3.9379   -0.1925    2.7889 H   0  0  0  0  0  0  0  0  0  0  0  0
   -3.0923   -1.7262    3.0075 H   0  0  0  0  0  0  0  0  0  0  0  0
    0.0837    2.1118    0.1034 C   0  0  0  0  0  3  0  0  0  0  0  0
    1.3536    1.4045    0.5577 C   0  0  0  0  0  0  0  0  0  0  0  0
    1.3932   -0.0584    0.1658 C   0  0  0  0  0  0  0  0  0  0  0  0
    1.3942   -0.1653   -1.2354 O   0  0  0  0  0  0  0  0  0  0  0  0
    1.3942   -1.4940   -1.6918 C   0  0  0  0  0  0  0  0  0  0  0  0
    1.3942   -1.4940   -3.2029 C   0  0  0  0  0  0  0  0  0  0  0  0
   -0.9785    1.5461    0.6245 H   0  0  0  0  0  0  0  0  0  0  0  0
   -0.0135    2.0715   -0.9815 H   0  0  0  0  0  0  0  0  0  0  0  0
    0.0878    3.1596    0.4071 H   0  0  0  0  0  0  0  0  0  0  0  0
    1.4488    1.4639    1.6455 H   0  0  0  0  0  0  0  0  0  0  0  0
    2.2312    1.9009    0.1354 H   0  0  0  0  0  0  0  0  0  0  0  0
    0.5192   -0.5847    0.5813 H   0  0  0  0  0  0  0  0  0  0  0  0
    2.2916   -0.5397    0.5794 H   0  0  0  0  0  0  0  0  0  0  0  0
    2.2790   -2.0227   -1.3074 H   0  0  0  0  0  0  0  0  0  0  0  0
    0.5092   -2.0222   -1.3073 H   0  0  0  0  0  0  0  0  0  0  0  0
    2.2783   -0.9825   -3.5851 H   0  0  0  0  0  0  0  0  0  0  0  0
    0.5094   -0.9836   -3.5851 H   0  0  0  0  0  0  0  0  0  0  0  0
    1.3948   -2.5175   -3.5810 H   0  0  0  0  0  0  0  0  0  0  0  0
  1  2  1  0
  1  4  1  0
  1 16  1  0
  2  3  1  0
  2  5  1  0
  2  6  1  0
  3  7  1  0
  3  8  1  0
  3  9  1  0
 10 11  1  0
 10 17  1  0
 10 18  1  0
 11 12  1  0
 11 19  1  0
 11 20  1  0
 12 13  1  0
 12 21  1  0
 12 22  1  0
 13 14  1  0
 14 15  1  0
 14 23  1  0
 14 24  1  0
 15 25  1  0
 15 26  1  0
 15 27  1  0
M  RAD  2   1   2  10   2
M  END
>  <reaction>  (16) 
rmg_rxn_227

>  <mol_properties>  (16) 
{"0": {"label": "*3", "atom_type": "Cs"}, "1": {"label": "*4", "atom_type": "Cs"}, "9": {"label": "*1", "atom_type": "Cs"}, "10": {"label": "*0", "atom_type": "Cs"}, "15": {"label": "*2", "atom_type": "H0"}}

>  <type>  (16) 
unop_12

>  <geom_source>  (16) 
Heuristics

$$$$

     RDKit          3D

 27 25  0  0  0  0  0  0  0  0999 V2000
   -2.0837    0.7400   -0.9599 O   0  0  0  0  0  0  0  0  0  0  0  0
   -0.0273   -0.4237   -0.5060 C   0  0  0  0  0  0  0  0  0  0  0  0
    3.7971   -0.6403   -0.0832 C   0  0  0  0  0  0  0  0  0  0  0  0
   -1.5505   -0.4315   -0.3759 C   0  0  0  0  0  0  0  0  0  0  0  0
   -3.4712    0.8376   -0.6999 C   0  0  0  0  0  0  0  0  0  0  0  0
    3.3055   -1.4740    1.0951 C   0  0  0  0  0  0  0  0  0  0  0  0
   -3.7197    1.7385    0.5047 C   0  0  0  0  0  0  0  0  0  0  0  0
    2.6445   -0.2425   -0.9943 C   0  0  0  0  0  2  0  0  0  0  0  0
    0.6039    0.7107    0.2945 C   0  0  0  0  0  0  0  0  0  0  0  0
    4.5392   -1.2247   -0.6678 H   0  0  0  0  0  0  0  0  0  0  0  0
    4.2908    0.2794    0.2955 H   0  0  0  0  0  0  0  0  0  0  0  0
    0.2571   -0.3192   -1.5751 H   0  0  0  0  0  0  0  0  0  0  0  0
    0.3765   -1.3892   -0.1335 H   0  0  0  0  0  0  0  0  0  0  0  0
   -3.9716   -0.1488   -0.5494 H   0  0  0  0  0  0  0  0  0  0  0  0
   -3.9538    1.3032   -1.5851 H   0  0  0  0  0  0  0  0  0  0  0  0
   -1.8183   -0.5111    0.7030 H   0  0  0  0  0  0  0  0  0  0  0  0
   -1.9380   -1.3284   -0.9096 H   0  0  0  0  0  0  0  0  0  0  0  0
    2.8229   -2.4069    0.7332 H   0  0  0  0  0  0  0  0  0  0  0  0
    4.1662   -1.7471    1.7413 H   0  0  0  0  0  0  0  0  0  0  0  0
    2.5764   -0.8944    1.7007 H   0  0  0  0  0  0  0  0  0  0  0  0
   -3.2585    2.7346    0.3355 H   0  0  0  0  0  0  0  0  0  0  0  0
   -3.2846    1.2877    1.4209 H   0  0  0  0  0  0  0  0  0  0  0  0
   -4.8121    1.8689    0.6554 H   0  0  0  0  0  0  0  0  0  0  0  0
    2.1543   -1.1417   -1.4249 H   0  0  0  0  0  0  0  0  0  0  0  0
    1.7251    0.5072   -0.3030 H   0  0  0  0  0  0  0  0  0  0  0  0
    0.3592    0.6162    1.3739 H   0  0  0  0  0  0  0  0  0  0  0  0
    0.2708    1.6995   -0.0862 H   0  0  0  0  0  0  0  0  0  0  0  0
  1  5  1  0
  1  4  1  0
  2  9  1  0
  2  4  1  0
  2 12  1  0
  2 13  1  0
  3  8  1  0
  3  6  1  0
  3 10  1  0
  3 11  1  0
  4 16  1  0
  4 17  1  0
  5  7  1  0
  5 14  1  0
  5 15  1  0
  6 18  1  0
  6 19  1  0
  6 20  1  0
  7 21  1  0
  7 22  1  0
  7 23  1  0
  8 24  1  0
  9 25  1  0
  9 26  1  0
  9 27  1  0
M  RAD  1   8   3
M  END
>  <reaction>  (17) 
rmg_rxn_227

>  <mol_properties>  (17) 
{"0": {"label": "*3", "atom_type": "Cs"}, "1": {"label": "*4", "atom_type": "Cs"}, "9": {"label": "*1", "atom_type": "Cs"}, "10": {"label": "*0", "atom_type": "Cs"}, "15": {"label": "*2", "atom_type": "H0"}}

>  <type>  (17) 
unop_13

>  <geom_source>  (17) 
AutoTST

$$$$

     RDKit          3D

 27 25  0  0  0  0  0  0  0  0999 V2000
   -2.0124    0.8450    1.0190 C   0  0  0  0  0  3  0  0  0  0  0  0
   -1.9466    0.1777    2.3423 C   0  0  0  0  0  0  0  0  0  0  0  0
   -3.3022   -0.2930    2.8578 C   0  0  0  0  0  0  0  0  0  0  0  0
   -2.9510    1.2223    0.6334 H   0  0  0  0  0  0  0  0  0  0  0  0
   -1.2516   -0.6690    2.2944 H   0  0  0  0  0  0  0  0  0  0  0  0
   -1.5002    0.8624    3.0797 H   0  0  0  0  0  0  0  0  0  0  0  0
   -3.7474   -1.0191    2.1751 H   0  0  0  0  0  0  0  0  0  0  0  0
   -3.9947    0.5464    2.9500 H   0  0  0  0  0  0  0  0  0  0  0  0
   -3.2118   -0.7623    3.8385 H   0  0  0  0  0  0  0  0  0  0  0  0
    0.1012    1.9707   -0.0180 C   0  0  0  0  0  3  0  0  0  0  0  0
    1.3711    1.2634    0.4364 C   0  0  0  0  0  0  0  0  0  0  0  0
    1.4107   -0.1995    0.0445 C   0  0  0  0  0  0  0  0  0  0  0  0
    1.4116   -0.3064   -1.3567 O   0  0  0  0  0  0  0  0  0  0  0  0
    1.4116   -1.6350   -1.8131 C   0  0  0  0  0  0  0  0  0  0  0  0
    1.4116   -1.6350   -3.3243 C   0  0  0  0  0  0  0  0  0  0  0  0
   -0.9610    1.4050    0.5031 H   0  0  0  0  0  0  0  0  0  0  0  0
    0.0040    1.9305   -1.1028 H   0  0  0  0  0  0  0  0  0  0  0  0
    0.1053    3.0186    0.2857 H   0  0  0  0  0  0  0  0  0  0  0  0
    1.4662    1.3228    1.5241 H   0  0  0  0  0  0  0  0  0  0  0  0
    2.2487    1.7598    0.0141 H   0  0  0  0  0  0  0  0  0  0  0  0
    0.5367   -0.7258    0.4600 H   0  0  0  0  0  0  0  0  0  0  0  0
    2.3091   -0.6808    0.4581 H   0  0  0  0  0  0  0  0  0  0  0  0
    2.2965   -2.1638   -1.4287 H   0  0  0  0  0  0  0  0  0  0  0  0
    0.5267   -2.1633   -1.4286 H   0  0  0  0  0  0  0  0  0  0  0  0
    2.2957   -1.1235   -3.7064 H   0  0  0  0  0  0  0  0  0  0  0  0
    0.5268   -1.1247   -3.7064 H   0  0  0  0  0  0  0  0  0  0  0  0
    1.4122   -2.6585   -3.7023 H   0  0  0  0  0  0  0  0  0  0  0  0
  1  2  1  0
  1  4  1  0
  1 16  1  0
  2  3  1  0
  2  5  1  0
  2  6  1  0
  3  7  1  0
  3  8  1  0
  3  9  1  0
 10 11  1  0
 10 17  1  0
 10 18  1  0
 11 12  1  0
 11 19  1  0
 11 20  1  0
 12 13  1  0
 12 21  1  0
 12 22  1  0
 13 14  1  0
 14 15  1  0
 14 23  1  0
 14 24  1  0
 15 25  1  0
 15 26  1  0
 15 27  1  0
M  RAD  2   1   2  10   2
M  END
>  <reaction>  (18) 
rmg_rxn_227

>  <mol_properties>  (18) 
{"0": {"label": "*3", "atom_type": "Cs"}, "1": {"label": "*4", "atom_type": "Cs"}, "9": {"label": "*1", "atom_type": "Cs"}, "10": {"label": "*0", "atom_type": "Cs"}, "15": {"label": "*2", "atom_type": "H0"}}

>  <type>  (18) 
unop_14

>  <geom_source>  (18) 
gaussian_log

$$$$
