
     RDKit          3D

  6  5  0  0  0  0  0  0  0  0999 V2000
   -0.4547   -0.0097   -0.0070 C   0  0  0  0  0  0  0  0  0  0  0  0
    0.8695   -0.1987   -0.6218 N   0  0  0  0  0  0  0  0  0  0  0  0
    1.0322   -1.2809   -1.0969 O   0  0  0  0  0  0  0  0  0  0  0  0
   -0.2820    0.2687    1.0347 H   0  0  0  0  0  0  0  0  0  0  0  0
   -1.0716   -0.9051   -0.0916 H   0  0  0  0  0  0  0  0  0  0  0  0
   -0.9130    0.8487   -0.5026 H   0  0  0  0  0  0  0  0  0  0  0  0
  1  2  1  0
  1  4  1  0
  1  5  1  0
  1  6  1  0
  2  3  2  0
M  END
>  <reaction>  (1) 
rmg_rxn_16527

>  <mol_properties>  (1) 
{"0": {"label": "donator", "atom_type": "Cs"}, "3": {"label": "d_hydrogen", "atom_type": "H0"}}

>  <type>  (1) 
r1h

$$$$

     RDKit          3D

  7  6  0  0  0  0  0  0  0  0999 V2000
   -0.6441   -0.1356    0.0624 C   0  0  0  0  0  0  0  0  0  0  0  0
    0.8523    0.0148   -0.0333 C   0  0  0  0  0  0  0  0  0  0  0  0
    1.6700   -0.6077    0.6603 N   0  0  0  0  0  2  0  0  0  0  0  0
   -1.0940    0.8275    0.3091 H   0  0  0  0  0  0  0  0  0  0  0  0
   -0.9104   -0.8656    0.8237 H   0  0  0  0  0  0  0  0  0  0  0  0
   -1.0427   -0.4545   -0.9022 H   0  0  0  0  0  0  0  0  0  0  0  0
    1.2362    0.7308   -0.7748 H   0  0  0  0  0  0  0  0  0  0  0  0
  1  2  1  0
  1  4  1  0
  1  5  1  0
  1  6  1  0
  2  3  2  0
  2  7  1  0
M  RAD  1   3   2
M  END
>  <reaction>  (2) 
rmg_rxn_16527

>  <mol_properties>  (2) 
{"2": {"label": "acceptor", "atom_type": "N3d"}}

>  <type>  (2) 
r2

$$$$

     RDKit          3D

  8  7  0  0  0  0  0  0  0  0999 V2000
    0.9548    0.1194   -0.0790 C   0  0  0  0  0  0  0  0  0  0  0  0
   -0.4838   -0.2649    0.0193 C   0  0  0  0  0  0  0  0  0  0  0  0
   -0.8933   -1.1081    0.8664 N   0  0  0  0  0  0  0  0  0  0  0  0
    1.3360   -0.0983   -1.0800 H   0  0  0  0  0  0  0  0  0  0  0  0
    1.0698    1.1948    0.0786 H   0  0  0  0  0  0  0  0  0  0  0  0
    1.5426   -0.4219    0.6602 H   0  0  0  0  0  0  0  0  0  0  0  0
   -1.1575    0.2324   -0.6905 H   0  0  0  0  0  0  0  0  0  0  0  0
   -1.8989   -1.2455    0.7886 H   0  0  0  0  0  0  0  0  0  0  0  0
  1  2  1  0
  1  4  1  0
  1  5  1  0
  1  6  1  0
  2  3  2  3
  2  7  1  0
  3  8  1  0
M  END
>  <reaction>  (3) 
rmg_rxn_16527

>  <mol_properties>  (3) 
{"0": {"label": "a_hydrogen", "atom_type": "H0"}, "3": {"label": "acceptor", "atom_type": "N3d"}}

>  <type>  (3) 
r2h

$$$$

     RDKit          3D

 13 11  0  0  0  0  0  0  0  0999 V2000
    1.4649    0.6973   -0.3744 C   0  0  0  0  0  0  0  0  0  0  0  0
    1.1868   -0.4993   -1.0374 N   0  0  0  0  0  0  0  0  0  0  0  0
    0.5856   -0.6437   -2.0780 O   0  0  0  0  0  0  0  0  0  0  0  0
    0.4898    1.0591    0.2432 H   0  0  0  0  0  0  0  0  0  0  0  0
    1.6802    1.5102   -1.0703 H   0  0  0  0  0  0  0  0  0  0  0  0
    2.2501    0.5429    0.3595 H   0  0  0  0  0  0  0  0  0  0  0  0
   -2.4405   -0.4183    1.7295 C   0  0  0  0  0  0  0  0  0  0  0  0
   -1.1643    0.0125    1.0640 C   0  0  0  0  0  0  0  0  0  0  0  0
   -0.7649    1.1918    1.0212 N   0  0  0  0  0  2  0  0  0  0  0  0
   -3.0894   -0.9013    0.9965 H   0  0  0  0  0  0  0  0  0  0  0  0
   -2.9564    0.4333    2.1677 H   0  0  0  0  0  0  0  0  0  0  0  0
   -2.2193   -1.1518    2.5074 H   0  0  0  0  0  0  0  0  0  0  0  0
   -0.5699   -0.7914    0.5894 H   0  0  0  0  0  0  0  0  0  0  0  0
  1  2  1  0
  1  4  1  0
  1  5  1  0
  1  6  1  0
  2  3  2  0
  7  8  1  0
  7 10  1  0
  7 11  1  0
  7 12  1  0
  8  9  2  0
  8 13  1  0
M  RAD  1   9   2
M  END
>  <reaction>  (4) 
rmg_rxn_16527

>  <mol_properties>  (4) 
{"0": {"label": "*1", "atom_type": "Cs"}, "1": {"label": "*0", "atom_type": "N3d"}, "3": {"label": "*2", "atom_type": "H0"}, "7": {"label": "*4", "atom_type": "Cd"}, "8": {"label": "*3", "atom_type": "N3d"}}

>  <type>  (4) 
ts

$$$$

     RDKit          3D

 13 11  0  0  0  0  0  0  0  0999 V2000
    1.1169    1.1498   -0.2980 C   0  0  0  0  0  0  0  0  0  0  0  0
    1.7517    0.1674    0.2418 N   0  0  0  0  0  0  0  0  0  0  0  0
    1.7842   -1.0437    0.0400 O   0  0  0  0  0  1  0  0  0  0  0  0
   -0.2495    1.1057   -0.0172 H   0  0  0  0  0  0  0  0  0  0  0  0
    0.9641    1.1495   -1.3824 H   0  0  0  0  0  0  0  0  0  0  0  0
    1.3183    2.1165    0.1457 H   0  0  0  0  0  0  0  0  0  0  0  0
   -1.4862   -1.3194   -0.1489 C   0  0  0  0  0  0  0  0  0  0  0  0
   -1.9946    0.0653    0.0881 C   0  0  0  0  0  0  0  0  0  0  0  0
   -1.3899    1.1535    0.1387 N   0  0  0  0  0  0  0  0  0  0  0  0
   -1.8105   -1.9647    0.6663 H   0  0  0  0  0  0  0  0  0  0  0  0
   -0.4012   -1.3648   -0.2251 H   0  0  0  0  0  0  0  0  0  0  0  0
   -1.9255   -1.7073   -1.0679 H   0  0  0  0  0  0  0  0  0  0  0  0
   -3.0751    0.1195    0.2343 H   0  0  0  0  0  0  0  0  0  0  0  0
  1  2  2  3
  1  5  1  0
  1  6  1  0
  2  3  1  0
  4  9  1  0
  7  8  1  0
  7 10  1  0
  7 11  1  0
  7 12  1  0
  8  9  2  3
  8 13  1  0
M  RAD  1   3   2
M  END
>  <reaction>  (5) 
rmg_rxn_16527

>  <mol_properties>  (5) 
{"0": {"label": "*1", "atom_type": "Cs"}, "1": {"label": "*0", "atom_type": "N3d"}, "3": {"label": "*2", "atom_type": "H0"}, "7": {"label": "*4", "atom_type": "Cd"}, "8": {"label": "*3", "atom_type": "N3d"}}

>  <type>  (5) 
unop_1

>  <geom_source>  (5) 
crest_best.xyz

$$$$

     RDKit          3D

 13 11  0  0  0  0  0  0  0  0999 V2000
    1.0074    0.1432   -0.8499 C   0  0  0  0  0  0  0  0  0  0  0  0
    1.0074   -1.2026   -1.4467 N   0  0  0  0  0  0  0  0  0  0  0  0
    1.0074   -1.2026   -2.6398 O   0  0  0  0  0  1  0  0  0  0  0  0
   -0.0486    0.2146   -0.0773 H   0  0  0  0  0  0  0  0  0  0  0  0
    1.0074    0.9236   -1.6116 H   0  0  0  0  0  0  0  0  0  0  0  0
    1.8874    0.2027   -0.2061 H   0  0  0  0  0  0  0  0  0  0  0  0
   -1.4555    1.4773    2.6939 C   0  0  0  0  0  0  0  0  0  0  0  0
   -0.7038    0.5106    1.8409 C   0  0  0  0  0  0  0  0  0  0  0  0
   -1.0330    0.2811    0.6429 N   0  0  0  0  0  0  0  0  0  0  0  0
   -1.8448    0.9733    3.5823 H   0  0  0  0  0  0  0  0  0  0  0  0
   -2.2794    1.9156    2.1335 H   0  0  0  0  0  0  0  0  0  0  0  0
   -0.7888    2.2696    3.0438 H   0  0  0  0  0  0  0  0  0  0  0  0
    0.1493    0.0159    2.3229 H   0  0  0  0  0  0  0  0  0  0  0  0
  1  2  2  3
  1  5  1  0
  1  6  1  0
  2  3  1  0
  4  9  1  0
  7  8  1  0
  7 10  1  0
  7 11  1  0
  7 12  1  0
  8  9  2  3
  8 13  1  0
M  RAD  1   3   2
M  END
>  <reaction>  (6) 
rmg_rxn_16527

>  <mol_properties>  (6) 
{"0": {"label": "*1", "atom_type": "Cs"}, "1": {"label": "*0", "atom_type": "N3d"}, "3": {"label": "*2", "atom_type": "H0"}, "7": {"label": "*4", "atom_type": "Cd"}, "8": {"label": "*3", "atom_type": "N3d"}}

>  <type>  (6) 
unop_2

>  <geom_source>  (6) 
Heuristics

$$$$

     RDKit          3D

 13 11  0  0  0  0  0  0  0  0999 V2000
    1.2355    0.7910   -0.6682 C   0  0  0  0  0  0  0  0  0  0  0  0
    1.2355   -0.5548   -1.2650 N   0  0  0  0  0  0  0  0  0  0  0  0
    1.2355   -0.5548   -2.4581 O   0  0  0  0  0  1  0  0  0  0  0  0
    0.1795    0.8624    0.1044 H   0  0  0  0  0  0  0  0  0  0  0  0
    1.2355    1.5714   -1.4299 H   0  0  0  0  0  0  0  0  0  0  0  0
    2.1155    0.8505   -0.0243 H   0  0  0  0  0  0  0  0  0  0  0  0
   -1.9681   -0.3588    2.4993 C   0  0  0  0  0  0  0  0  0  0  0  0
   -1.1003   -0.2059    1.2949 C   0  0  0  0  0  0  0  0  0  0  0  0
   -0.8048    0.9289    0.8246 N   0  0  0  0  0  0  0  0  0  0  0  0
   -2.8522   -0.9530    2.2546 H   0  0  0  0  0  0  0  0  0  0  0  0
   -2.2765    0.6172    2.8701 H   0  0  0  0  0  0  0  0  0  0  0  0
   -1.4313   -0.8957    3.2856 H   0  0  0  0  0  0  0  0  0  0  0  0
   -0.7388   -1.1412    0.8486 H   0  0  0  0  0  0  0  0  0  0  0  0
  1  2  2  3
  1  5  1  0
  1  6  1  0
  2  3  1  0
  4  9  1  0
  7  8  1  0
  7 10  1  0
  7 11  1  0
  7 12  1  0
  8  9  2  3
  8 13  1  0
M  RAD  1   3   2
M  END
>  <reaction>  (7) 
rmg_rxn_16527

>  <mol_properties>  (7) 
{"0": {"label": "*1", "atom_type": "Cs"}, "1": {"label": "*0", "atom_type": "N3d"}, "3": {"label": "*2", "atom_type": "H0"}, "7": {"label": "*4", "atom_type": "Cd"}, "8": {"label": "*3", "atom_type": "N3d"}}

>  <type>  (7) 
unop_3

>  <geom_source>  (7) 
Heuristics

$$$$

     RDKit          3D

 13 11  0  0  0  0  0  0  0  0999 V2000
    1.1109   -0.0109   -0.7335 C   0  0  0  0  0  0  0  0  0  0  0  0
    1.1109   -1.3567   -1.3303 N   0  0  0  0  0  0  0  0  0  0  0  0
    1.1109   -1.3567   -2.5234 O   0  0  0  0  0  1  0  0  0  0  0  0
    0.0549    0.0605    0.0391 H   0  0  0  0  0  0  0  0  0  0  0  0
    1.1109    0.7696   -1.4953 H   0  0  0  0  0  0  0  0  0  0  0  0
    1.9909    0.0486   -0.0897 H   0  0  0  0  0  0  0  0  0  0  0  0
   -1.8324    1.7023    2.3465 C   0  0  0  0  0  0  0  0  0  0  0  0
   -0.7284    0.9089    1.7312 C   0  0  0  0  0  0  0  0  0  0  0  0
   -0.9294    0.1271    0.7592 N   0  0  0  0  0  0  0  0  0  0  0  0
   -1.9274    1.4573    3.4074 H   0  0  0  0  0  0  0  0  0  0  0  0
   -2.7738    1.4975    1.8397 H   0  0  0  0  0  0  0  0  0  0  0  0
   -1.6091    2.7705    2.2852 H   0  0  0  0  0  0  0  0  0  0  0  0
    0.2640    1.0504    2.1782 H   0  0  0  0  0  0  0  0  0  0  0  0
  1  2  2  3
  1  5  1  0
  1  6  1  0
  2  3  1  0
  4  9  1  0
  7  8  1  0
  7 10  1  0
  7 11  1  0
  7 12  1  0
  8  9  2  3
  8 13  1  0
M  RAD  1   3   2
M  END
>  <reaction>  (8) 
rmg_rxn_16527

>  <mol_properties>  (8) 
{"0": {"label": "*1", "atom_type": "Cs"}, "1": {"label": "*0", "atom_type": "N3d"}, "3": {"label": "*2", "atom_type": "H0"}, "7": {"label": "*4", "atom_type": "Cd"}, "8": {"label": "*3", "atom_type": "N3d"}}

>  <type>  (8) 
unop_4

>  <geom_source>  (8) 
Heuristics

$$$$

     RDKit          3D

 13 11  0  0  0  0  0  0  0  0999 V2000
    1.5607    0.3272   -0.1429 C   0  0  0  0  0  0  0  0  0  0  0  0
    1.5607   -1.0186   -0.7397 N   0  0  0  0  0  0  0  0  0  0  0  0
    1.5607   -1.0186   -1.9328 O   0  0  0  0  0  1  0  0  0  0  0  0
    0.5047    0.3986    0.6297 H   0  0  0  0  0  0  0  0  0  0  0  0
    1.5607    1.1077   -0.9047 H   0  0  0  0  0  0  0  0  0  0  0  0
    2.4407    0.3867    0.5009 H   0  0  0  0  0  0  0  0  0  0  0  0
   -2.8156    0.9761    1.0360 C   0  0  0  0  0  0  0  0  0  0  0  0
   -1.5399    0.2851    0.6866 C   0  0  0  0  0  0  0  0  0  0  0  0
   -0.4797    0.4652    1.3498 N   0  0  0  0  0  0  0  0  0  0  0  0
   -3.1632    1.5765    0.1914 H   0  0  0  0  0  0  0  0  0  0  0  0
   -2.6735    1.6170    1.9044 H   0  0  0  0  0  0  0  0  0  0  0  0
   -3.5970    0.2417    1.2475 H   0  0  0  0  0  0  0  0  0  0  0  0
   -1.5858   -0.3862   -0.1806 H   0  0  0  0  0  0  0  0  0  0  0  0
  1  2  2  3
  1  5  1  0
  1  6  1  0
  2  3  1  0
  4  9  1  0
  7  8  1  0
  7 10  1  0
  7 11  1  0
  7 12  1  0
  8  9  2  3
  8 13  1  0
M  RAD  1   3   2
M  END
>  <reaction>  (9) 
rmg_rxn_16527

>  <mol_properties>  (9) 
{"0": {"label": "*1", "atom_type": "Cs"}, "1": {"label": "*0", "atom_type": "N3d"}, "3": {"label": "*2", "atom_type": "H0"}, "7": {"label": "*4", "atom_type": "Cd"}, "8": {"label": "*3", "atom_type": "N3d"}}

>  <type>  (9) 
unop_5

>  <geom_source>  (9) 
Heuristics

$$$$

     RDKit          3D

 13 11  0  0  0  0  0  0  0  0999 V2000
    1.2057   -0.0496   -0.6502 C   0  0  0  0  0  0  0  0  0  0  0  0
    1.2057   -1.3954   -1.2470 N   0  0  0  0  0  0  0  0  0  0  0  0
    1.2057   -1.3954   -2.4401 O   0  0  0  0  0  1  0  0  0  0  0  0
    0.1497    0.0218    0.1224 H   0  0  0  0  0  0  0  0  0  0  0  0
    1.2057    0.7308   -1.4120 H   0  0  0  0  0  0  0  0  0  0  0  0
    2.0857    0.0099   -0.0064 H   0  0  0  0  0  0  0  0  0  0  0  0
   -2.0263    1.5634    2.3327 C   0  0  0  0  0  0  0  0  0  0  0  0
   -0.9136    1.2196    1.3996 C   0  0  0  0  0  0  0  0  0  0  0  0
   -0.8347    0.0883    0.8425 N   0  0  0  0  0  0  0  0  0  0  0  0
   -1.6265    1.8336    3.3135 H   0  0  0  0  0  0  0  0  0  0  0  0
   -2.7072    0.7205    2.4367 H   0  0  0  0  0  0  0  0  0  0  0  0
   -2.5748    2.4330    1.9619 H   0  0  0  0  0  0  0  0  0  0  0  0
   -0.1731    2.0122    1.2315 H   0  0  0  0  0  0  0  0  0  0  0  0
  1  2  2  3
  1  5  1  0
  1  6  1  0
  2  3  1  0
  4  9  1  0
  7  8  1  0
  7 10  1  0
  7 11  1  0
  7 12  1  0
  8  9  2  3
  8 13  1  0
M  RAD  1   3   2
M  END
>  <reaction>  (10) 
rmg_rxn_16527

>  <mol_properties>  (10) 
{"0": {"label": "*1", "atom_type": "Cs"}, "1": {"label": "*0", "atom_type": "N3d"}, "3": {"label": "*2", "atom_type": "H0"}, "7": {"label": "*4", "atom_type": "Cd"}, "8": {"label": "*3", "atom_type": "N3d"}}

>  <type>  (10) 
unop_6

>  <geom_source>  (10) 
Heuristics

$$$$

     RDKit          3D

 13 11  0  0  0  0  0  0  0  0999 V2000
    1.4858    0.0746   -0.1927 C   0  0  0  0  0  0  0  0  0  0  0  0
    1.4858   -1.2711   -0.7895 N   0  0  0  0  0  0  0  0  0  0  0  0
    1.4858   -1.2711   -1.9826 O   0  0  0  0  0  1  0  0  0  0  0  0
    0.4298    0.1460    0.5799 H   0  0  0  0  0  0  0  0  0  0  0  0
    1.4858    0.8551   -0.9545 H   0  0  0  0  0  0  0  0  0  0  0  0
    2.3659    0.1341    0.4511 H   0  0  0  0  0  0  0  0  0  0  0  0
   -2.5109    1.6220    1.2530 C   0  0  0  0  0  0  0  0  0  0  0  0
   -1.5567    0.6397    0.6601 C   0  0  0  0  0  0  0  0  0  0  0  0
   -0.5545    0.2126    1.3000 N   0  0  0  0  0  0  0  0  0  0  0  0
   -2.5526    2.5254    0.6391 H   0  0  0  0  0  0  0  0  0  0  0  0
   -2.2056    1.8830    2.2648 H   0  0  0  0  0  0  0  0  0  0  0  0
   -3.5203    1.2033    1.2722 H   0  0  0  0  0  0  0  0  0  0  0  0
   -1.7840    0.3158   -0.3638 H   0  0  0  0  0  0  0  0  0  0  0  0
  1  2  2  3
  1  5  1  0
  1  6  1  0
  2  3  1  0
  4  9  1  0
  7  8  1  0
  7 10  1  0
  7 11  1  0
  7 12  1  0
  8  9  2  3
  8 13  1  0
M  RAD  1   3   2
M  END
>  <reaction>  (11) 
rmg_rxn_16527

>  <mol_properties>  (11) 
{"0": {"label": "*1", "atom_type": "Cs"}, "1": {"label": "*0", "atom_type": "N3d"}, "3": {"label": "*2", "atom_type": "H0"}, "7": {"label": "*4", "atom_type": "Cd"}, "8": {"label": "*3", "atom_type": "N3d"}}

>  <type>  (11) 
unop_7

>  <geom_source>  (11) 
Heuristics

$$$$

     RDKit          3D

 13 11  0  0  0  0  0  0  0  0999 V2000
    1.3599   -0.0797   -0.3474 C   0  0  0  0  0  0  0  0  0  0  0  0
    1.3599   -1.4254   -0.9442 N   0  0  0  0  0  0  0  0  0  0  0  0
    1.3599   -1.4254   -2.1374 O   0  0  0  0  0  1  0  0  0  0  0  0
    0.3039   -0.0083    0.4251 H   0  0  0  0  0  0  0  0  0  0  0  0
    1.3599    0.7008   -1.1092 H   0  0  0  0  0  0  0  0  0  0  0  0
    2.2399   -0.0202    0.2964 H   0  0  0  0  0  0  0  0  0  0  0  0
   -2.1200    1.8973    1.7468 C   0  0  0  0  0  0  0  0  0  0  0  0
   -1.4540    0.9848    0.7717 C   0  0  0  0  0  0  0  0  0  0  0  0
   -0.6804    0.0583    1.1453 N   0  0  0  0  0  0  0  0  0  0  0  0
   -1.8408    2.9345    1.5445 H   0  0  0  0  0  0  0  0  0  0  0  0
   -1.8365    1.6357    2.7647 H   0  0  0  0  0  0  0  0  0  0  0  0
   -3.2062    1.8338    1.6419 H   0  0  0  0  0  0  0  0  0  0  0  0
   -1.6809    1.1727   -0.2856 H   0  0  0  0  0  0  0  0  0  0  0  0
  1  2  2  3
  1  5  1  0
  1  6  1  0
  2  3  1  0
  4  9  1  0
  7  8  1  0
  7 10  1  0
  7 11  1  0
  7 12  1  0
  8  9  2  3
  8 13  1  0
M  RAD  1   3   2
M  END
>  <reaction>  (12) 
rmg_rxn_16527

>  <mol_properties>  (12) 
{"0": {"label": "*1", "atom_type": "Cs"}, "1": {"label": "*0", "atom_type": "N3d"}, "3": {"label": "*2", "atom_type": "H0"}, "7": {"label": "*4", "atom_type": "Cd"}, "8": {"label": "*3", "atom_type": "N3d"}}

>  <type>  (12) 
unop_8

>  <geom_source>  (12) 
Heuristics

$$$$

     RDKit          3D

 13 11  0  0  0  0  0  0  0  0999 V2000
    0.9882    0.3892   -0.9020 C   0  0  0  0  0  0  0  0  0  0  0  0
    0.9882   -0.9566   -1.4988 N   0  0  0  0  0  0  0  0  0  0  0  0
    0.9882   -0.9566   -2.6919 O   0  0  0  0  0  1  0  0  0  0  0  0
   -0.0678    0.4606   -0.1294 H   0  0  0  0  0  0  0  0  0  0  0  0
    0.9882    1.1696   -1.6637 H   0  0  0  0  0  0  0  0  0  0  0  0
    1.8682    0.4487   -0.2582 H   0  0  0  0  0  0  0  0  0  0  0  0
   -1.3097    0.8628    2.9650 C   0  0  0  0  0  0  0  0  0  0  0  0
   -0.7811    0.1494    1.7656 C   0  0  0  0  0  0  0  0  0  0  0  0
   -1.0521    0.5271    0.5908 N   0  0  0  0  0  0  0  0  0  0  0  0
   -1.9010    0.1797    3.5803 H   0  0  0  0  0  0  0  0  0  0  0  0
   -1.9268    1.7068    2.6621 H   0  0  0  0  0  0  0  0  0  0  0  0
   -0.4842    1.2180    3.5872 H   0  0  0  0  0  0  0  0  0  0  0  0
   -0.1445   -0.7204    1.9729 H   0  0  0  0  0  0  0  0  0  0  0  0
  1  2  2  3
  1  5  1  0
  1  6  1  0
  2  3  1  0
  4  9  1  0
  7  8  1  0
  7 10  1  0
  7 11  1  0
  7 12  1  0
  8  9  2  3
  8 13  1  0
M  RAD  1   3   2
M  END
>  <reaction>  (13) 
rmg_rxn_16527

>  <mol_properties>  (13) 
{"0": {"label": "*1", "atom_type": "Cs"}, "1": {"label": "*0", "atom_type": "N3d"}, "3": {"label": "*2", "atom_type": "H0"}, "7": {"label": "*4", "atom_type": "Cd"}, "8": {"label": "*3", "atom_type": "N3d"}}

>  <type>  (13) 
unop_9

>  <geom_source>  (13) 
Heuristics

$$$$

     RDKit          3D

 13 11  0  0  0  0  0  0  0  0999 V2000
    1.1169    1.1498   -0.2980 C   0  0  0  0  0  0  0  0  0  0  0  0
    1.7517    0.1674    0.2418 N   0  0  0  0  0  0  0  0  0  0  0  0
    1.7842   -1.0437    0.0400 O   0  0  0  0  0  1  0  0  0  0  0  0
   -0.2495    1.1057   -0.0172 H   0  0  0  0  0  0  0  0  0  0  0  0
    0.9641    1.1495   -1.3824 H   0  0  0  0  0  0  0  0  0  0  0  0
    1.3183    2.1165    0.1457 H   0  0  0  0  0  0  0  0  0  0  0  0
   -1.4862   -1.3194   -0.1489 C   0  0  0  0  0  0  0  0  0  0  0  0
   -1.9946    0.0653    0.0881 C   0  0  0  0  0  0  0  0  0  0  0  0
   -1.3899    1.1535    0.1387 N   0  0  0  0  0  0  0  0  0  0  0  0
   -1.8105   -1.9647    0.6663 H   0  0  0  0  0  0  0  0  0  0  0  0
   -0.4012   -1.3648   -0.2251 H   0  0  0  0  0  0  0  0  0  0  0  0
   -1.9255   -1.7073   -1.0679 H   0  0  0  0  0  0  0  0  0  0  0  0
   -3.0751    0.1195    0.2343 H   0  0  0  0  0  0  0  0  0  0  0  0
  1  2  2  3
  1  5  1  0
  1  6  1  0
  2  3  1  0
  4  9  1  0
  7  8  1  0
  7 10  1  0
  7 11  1  0
  7 12  1  0
  8  9  2  3
  8 13  1  0
M  RAD  1   3   2
M  END
>  <reaction>  (14) 
rmg_rxn_16527

>  <mol_properties>  (14) 
{"0": {"label": "*1", "atom_type": "Cs"}, "1": {"label": "*0", "atom_type": "N3d"}, "3": {"label": "*2", "atom_type": "H0"}, "7": {"label": "*4", "atom_type": "Cd"}, "8": {"label": "*3", "atom_type": "N3d"}}

>  <type>  (14) 
unop_10

>  <geom_source>  (14) 
Heuristics

$$$$

     RDKit          3D

 13 11  0  0  0  0  0  0  0  0999 V2000
    1.5428    0.5968   -0.2302 C   0  0  0  0  0  0  0  0  0  0  0  0
    1.5428   -0.7490   -0.8270 N   0  0  0  0  0  0  0  0  0  0  0  0
    1.5428   -0.7490   -2.0202 O   0  0  0  0  0  1  0  0  0  0  0  0
    0.4868    0.6682    0.5423 H   0  0  0  0  0  0  0  0  0  0  0  0
    1.5428    1.3772   -0.9920 H   0  0  0  0  0  0  0  0  0  0  0  0
    2.4228    0.6563    0.4136 H   0  0  0  0  0  0  0  0  0  0  0  0
   -2.8487    0.1978    1.2443 C   0  0  0  0  0  0  0  0  0  0  0  0
   -1.4297    0.0023    0.8255 C   0  0  0  0  0  0  0  0  0  0  0  0
   -0.4976    0.7347    1.2625 N   0  0  0  0  0  0  0  0  0  0  0  0
   -3.4758    0.3966    0.3715 H   0  0  0  0  0  0  0  0  0  0  0  0
   -2.9258    1.0275    1.9447 H   0  0  0  0  0  0  0  0  0  0  0  0
   -3.2330   -0.7123    1.7119 H   0  0  0  0  0  0  0  0  0  0  0  0
   -1.2527   -0.8164    0.1161 H   0  0  0  0  0  0  0  0  0  0  0  0
  1  2  2  3
  1  5  1  0
  1  6  1  0
  2  3  1  0
  4  9  1  0
  7  8  1  0
  7 10  1  0
  7 11  1  0
  7 12  1  0
  8  9  2  3
  8 13  1  0
M  RAD  1   3   2
M  END
>  <reaction>  (15) 
rmg_rxn_16527

>  <mol_properties>  (15) 
{"0": {"label": "*1", "atom_type": "Cs"}, "1": {"label": "*0", "atom_type": "N3d"}, "3": {"label": "*2", "atom_type": "H0"}, "7": {"label": "*4", "atom_type": "Cd"}, "8": {"label": "*3", "atom_type": "N3d"}}

>  <type>  (15) 
unop_11

>  <geom_source>  (15) 
Heuristics

$$$$

     RDKit          3D

 13 11  0  0  0  0  0  0  0  0999 V2000
    1.0711    0.6366   -0.8407 C   0  0  0  0  0  0  0  0  0  0  0  0
    1.0711   -0.7091   -1.4375 N   0  0  0  0  0  0  0  0  0  0  0  0
    1.0711   -0.7091   -2.6306 O   0  0  0  0  0  1  0  0  0  0  0  0
    0.0151    0.7081   -0.0681 H   0  0  0  0  0  0  0  0  0  0  0  0
    1.0711    1.4171   -1.6025 H   0  0  0  0  0  0  0  0  0  0  0  0
    1.9511    0.6962   -0.1969 H   0  0  0  0  0  0  0  0  0  0  0  0
   -1.4945    0.1411    2.9190 C   0  0  0  0  0  0  0  0  0  0  0  0
   -0.9268   -0.1025    1.5605 C   0  0  0  0  0  0  0  0  0  0  0  0
   -0.9692    0.7746    0.6520 N   0  0  0  0  0  0  0  0  0  0  0  0
   -2.2667   -0.5992    3.1435 H   0  0  0  0  0  0  0  0  0  0  0  0
   -1.9206    1.1411    2.9775 H   0  0  0  0  0  0  0  0  0  0  0  0
   -0.7165    0.0301    3.6786 H   0  0  0  0  0  0  0  0  0  0  0  0
   -0.4727   -1.0897    1.4058 H   0  0  0  0  0  0  0  0  0  0  0  0
  1  2  2  3
  1  5  1  0
  1  6  1  0
  2  3  1  0
  4  9  1  0
  7  8  1  0
  7 10  1  0
  7 11  1  0
  7 12  1  0
  8  9  2  3
  8 13  1  0
M  RAD  1   3   2
M  END
>  <reaction>  (16) 
rmg_rxn_16527

>  <mol_properties>  (16) 
{"0": {"label": "*1", "atom_type": "Cs"}, "1": {"label": "*0", "atom_type": "N3d"}, "3": {"label": "*2", "atom_type": "H0"}, "7": {"label": "*4", "atom_type": "Cd"}, "8": {"label": "*3", "atom_type": "N3d"}}

>  <type>  (16) 
unop_12

>  <geom_source>  (16) 
Heuristics

$$$$

     RDKit          3D

 13 11  0  0  0  0  0  0  0  0999 V2000
    1.2496   -0.0986   -0.5358 C   0  0  0  0  0  0  0  0  0  0  0  0
    1.2496   -1.4443   -1.1326 N   0  0  0  0  0  0  0  0  0  0  0  0
    1.2496   -1.4443   -2.3257 O   0  0  0  0  0  1  0  0  0  0  0  0
    0.1936   -0.0272    0.2368 H   0  0  0  0  0  0  0  0  0  0  0  0
    1.2496    0.6819   -1.2976 H   0  0  0  0  0  0  0  0  0  0  0  0
    2.1296   -0.0391    0.1080 H   0  0  0  0  0  0  0  0  0  0  0  0
   -1.9057    1.7486    2.2421 C   0  0  0  0  0  0  0  0  0  0  0  0
   -1.2263    1.2236    1.0215 C   0  0  0  0  0  0  0  0  0  0  0  0
   -0.7907    0.0394    0.9569 N   0  0  0  0  0  0  0  0  0  0  0  0
   -1.3680    2.6181    2.6288 H   0  0  0  0  0  0  0  0  0  0  0  0
   -1.9527    0.9785    3.0100 H   0  0  0  0  0  0  0  0  0  0  0  0
   -2.9170    2.0828    1.9969 H   0  0  0  0  0  0  0  0  0  0  0  0
   -1.1317    1.9326    0.1889 H   0  0  0  0  0  0  0  0  0  0  0  0
  1  2  2  3
  1  5  1  0
  1  6  1  0
  2  3  1  0
  4  9  1  0
  7  8  1  0
  7 10  1  0
  7 11  1  0
  7 12  1  0
  8  9  2  3
  8 13  1  0
M  RAD  1   3   2
M  END
>  <reaction>  (17) 
rmg_rxn_16527

>  <mol_properties>  (17) 
{"0": {"label": "*1", "atom_type": "Cs"}, "1": {"label": "*0", "atom_type": "N3d"}, "3": {"label": "*2", "atom_type": "H0"}, "7": {"label": "*4", "atom_type": "Cd"}, "8": {"label": "*3", "atom_type": "N3d"}}

>  <type>  (17) 
unop_13

>  <geom_source>  (17) 
Heuristics

$$$$

     RDKit          3D

 13 11  0  0  0  0  0  0  0  0999 V2000
    1.4203    0.7787   -0.4334 C   0  0  0  0  0  0  0  0  0  0  0  0
    1.4203   -0.5670   -1.0302 N   0  0  0  0  0  0  0  0  0  0  0  0
    1.4203   -0.5670   -2.2233 O   0  0  0  0  0  1  0  0  0  0  0  0
    0.3643    0.8501    0.3392 H   0  0  0  0  0  0  0  0  0  0  0  0
    1.4203    1.5592   -1.1952 H   0  0  0  0  0  0  0  0  0  0  0  0
    2.3003    0.8382    0.2104 H   0  0  0  0  0  0  0  0  0  0  0  0
   -2.5218   -0.3492    1.8322 C   0  0  0  0  0  0  0  0  0  0  0  0
   -1.2723   -0.1652    1.0372 C   0  0  0  0  0  0  0  0  0  0  0  0
   -0.6201    0.9167    1.0593 N   0  0  0  0  0  0  0  0  0  0  0  0
   -3.3580   -0.5899    1.1708 H   0  0  0  0  0  0  0  0  0  0  0  0
   -2.7500    0.5552    2.3934 H   0  0  0  0  0  0  0  0  0  0  0  0
   -2.4097   -1.1893    2.5224 H   0  0  0  0  0  0  0  0  0  0  0  0
   -0.9609   -1.0289    0.4357 H   0  0  0  0  0  0  0  0  0  0  0  0
  1  2  2  3
  1  5  1  0
  1  6  1  0
  2  3  1  0
  4  9  1  0
  7  8  1  0
  7 10  1  0
  7 11  1  0
  7 12  1  0
  8  9  2  3
  8 13  1  0
M  RAD  1   3   2
M  END
>  <reaction>  (18) 
rmg_rxn_16527

>  <mol_properties>  (18) 
{"0": {"label": "*1", "atom_type": "Cs"}, "1": {"label": "*0", "atom_type": "N3d"}, "3": {"label": "*2", "atom_type": "H0"}, "7": {"label": "*4", "atom_type": "Cd"}, "8": {"label": "*3", "atom_type": "N3d"}}

>  <type>  (18) 
unop_14

>  <geom_source>  (18) 
Heuristics

$$$$

     RDKit          3D

 13 11  0  0  0  0  0  0  0  0999 V2000
    1.2355    0.7910   -0.6682 C   0  0  0  0  0  0  0  0  0  0  0  0
    1.2355   -0.5548   -1.2650 N   0  0  0  0  0  0  0  0  0  0  0  0
    1.2355   -0.5548   -2.4581 O   0  0  0  0  0  1  0  0  0  0  0  0
    0.1795    0.8624    0.1044 H   0  0  0  0  0  0  0  0  0  0  0  0
    1.2355    1.5715   -1.4299 H   0  0  0  0  0  0  0  0  0  0  0  0
    2.1155    0.8505   -0.0244 H   0  0  0  0  0  0  0  0  0  0  0  0
   -1.9681   -0.3588    2.4994 C   0  0  0  0  0  0  0  0  0  0  0  0
   -1.1003   -0.2059    1.2949 C   0  0  0  0  0  0  0  0  0  0  0  0
   -0.8048    0.9289    0.8246 N   0  0  0  0  0  0  0  0  0  0  0  0
   -2.8522   -0.9530    2.2546 H   0  0  0  0  0  0  0  0  0  0  0  0
   -2.2765    0.6171    2.8701 H   0  0  0  0  0  0  0  0  0  0  0  0
   -1.4313   -0.8957    3.2856 H   0  0  0  0  0  0  0  0  0  0  0  0
   -0.7388   -1.1412    0.8486 H   0  0  0  0  0  0  0  0  0  0  0  0
  1  2  2  3
  1  5  1  0
  1  6  1  0
  2  3  1  0
  4  9  1  0
  7  8  1  0
  7 10  1  0
  7 11  1  0
  7 12  1  0
  8  9  2  3
  8 13  1  0
M  RAD  1   3   2
M  END
>  <reaction>  (19) 
rmg_rxn_16527

>  <mol_properties>  (19) 
{"0": {"label": "*1", "atom_type": "Cs"}, "1": {"label": "*0", "atom_type": "N3d"}, "3": {"label": "*2", "atom_type": "H0"}, "7": {"label": "*4", "atom_type": "Cd"}, "8": {"label": "*3", "atom_type": "N3d"}}

>  <type>  (19) 
unop_15

>  <geom_source>  (19) 
gaussian_log

$$$$
