
     RDKit          3D

  5  4  0  0  0  0  0  0  0  0999 V2000
   -0.4583    0.0384    0.1517 N   0  0  0  0  0  0  0  0  0  0  0  0
    0.7454   -0.3487    0.5322 N   0  0  0  0  0  0  0  0  0  0  0  0
    0.7566   -1.0388    1.5193 O   0  0  0  0  0  0  0  0  0  0  0  0
   -1.2688   -0.2521    0.6850 H   0  0  0  0  0  0  0  0  0  0  0  0
   -0.5137    0.6154   -0.6670 H   0  0  0  0  0  0  0  0  0  0  0  0
  1  2  1  0
  1  4  1  0
  1  5  1  0
  2  3  2  0
M  END
>  <reaction>  (1) 
rmg_rxn_1540

>  <mol_properties>  (1) 
{"0": {"label": "donator", "atom_type": "N3s"}, "3": {"label": "d_hydrogen", "atom_type": "H0"}}

>  <type>  (1) 
r1h

$$$$

     RDKit          3D

 14 13  0  0  0  0  0  0  0  0999 V2000
    2.6694    0.2813   -0.6046 C   0  0  0  0  0  3  0  0  0  0  0  0
    1.5626   -0.5075   -0.0103 C   0  0  0  0  0  0  0  0  0  0  0  0
    0.5522   -0.8487   -0.9278 O   0  0  0  0  0  0  0  0  0  0  0  0
    0.9505   -1.8204   -1.8682 C   0  0  0  0  0  0  0  0  0  0  0  0
   -0.2101   -2.1029   -2.7930 C   0  0  0  0  0  0  0  0  0  0  0  0
    2.4666    0.9443   -1.4355 H   0  0  0  0  0  0  0  0  0  0  0  0
    3.6339    0.3312   -0.1179 H   0  0  0  0  0  0  0  0  0  0  0  0
    1.0573    0.0741    0.7733 H   0  0  0  0  0  0  0  0  0  0  0  0
    1.9580   -1.4106    0.4809 H   0  0  0  0  0  0  0  0  0  0  0  0
    1.8195   -1.4649   -2.4379 H   0  0  0  0  0  0  0  0  0  0  0  0
    1.2587   -2.7372   -1.3440 H   0  0  0  0  0  0  0  0  0  0  0  0
   -0.5051   -1.1971   -3.3238 H   0  0  0  0  0  0  0  0  0  0  0  0
    0.0686   -2.8601   -3.5276 H   0  0  0  0  0  0  0  0  0  0  0  0
   -1.0699   -2.4661   -2.2289 H   0  0  0  0  0  0  0  0  0  0  0  0
  1  2  1  0
  1  6  1  0
  1  7  1  0
  2  3  1  0
  2  8  1  0
  2  9  1  0
  3  4  1  0
  4  5  1  0
  4 10  1  0
  4 11  1  0
  5 12  1  0
  5 13  1  0
  5 14  1  0
M  RAD  1   1   2
M  END
>  <reaction>  (2) 
rmg_rxn_1540

>  <mol_properties>  (2) 
{"0": {"label": "acceptor", "atom_type": "Cs"}}

>  <type>  (2) 
r2

$$$$

     RDKit          3D

 15 14  0  0  0  0  0  0  0  0999 V2000
    2.4145    0.0817    0.4065 C   0  0  0  0  0  0  0  0  0  0  0  0
    1.1257   -0.2220   -0.3219 C   0  0  0  0  0  0  0  0  0  0  0  0
    1.0983   -1.5879   -0.6512 O   0  0  0  0  0  0  0  0  0  0  0  0
   -0.0685   -1.9694   -1.3352 C   0  0  0  0  0  0  0  0  0  0  0  0
    0.0024   -3.4478   -1.6403 C   0  0  0  0  0  0  0  0  0  0  0  0
    3.2736   -0.1534   -0.2229 H   0  0  0  0  0  0  0  0  0  0  0  0
    2.4581    1.1389    0.6728 H   0  0  0  0  0  0  0  0  0  0  0  0
    2.4855   -0.5095    1.3201 H   0  0  0  0  0  0  0  0  0  0  0  0
    0.2597    0.0294    0.3083 H   0  0  0  0  0  0  0  0  0  0  0  0
    1.0482    0.3858   -1.2356 H   0  0  0  0  0  0  0  0  0  0  0  0
   -0.9535   -1.7457   -0.7211 H   0  0  0  0  0  0  0  0  0  0  0  0
   -0.1650   -1.3894   -2.2650 H   0  0  0  0  0  0  0  0  0  0  0  0
    0.0831   -4.0247   -0.7183 H   0  0  0  0  0  0  0  0  0  0  0  0
   -0.8950   -3.7674   -2.1724 H   0  0  0  0  0  0  0  0  0  0  0  0
    0.8712   -3.6686   -2.2613 H   0  0  0  0  0  0  0  0  0  0  0  0
  1  2  1  0
  1  6  1  0
  1  7  1  0
  1  8  1  0
  2  3  1  0
  2  9  1  0
  2 10  1  0
  3  4  1  0
  4  5  1  0
  4 11  1  0
  4 12  1  0
  5 13  1  0
  5 14  1  0
  5 15  1  0
M  END
>  <reaction>  (3) 
rmg_rxn_1540

>  <mol_properties>  (3) 
{"0": {"label": "a_hydrogen", "atom_type": "H0"}, "1": {"label": "acceptor", "atom_type": "Cs"}}

>  <type>  (3) 
r2h

$$$$

     RDKit          3D

 19 17  0  0  0  0  0  0  0  0999 V2000
    0.3905   -0.4696    2.0784 N   0  0  0  0  0  0  0  0  0  0  0  0
    1.4236   -1.2343    1.9780 N   0  0  0  0  0  0  0  0  0  0  0  0
    2.5080   -0.7297    1.8234 O   0  0  0  0  0  0  0  0  0  0  0  0
    0.5315    0.6595    1.5826 H   0  0  0  0  0  0  0  0  0  0  0  0
   -0.4789   -0.9683    1.9290 H   0  0  0  0  0  0  0  0  0  0  0  0
    0.7127    1.7759    0.8110 C   0  0  0  0  0  3  0  0  0  0  0  0
    0.6164    1.2823   -0.5943 C   0  0  0  0  0  0  0  0  0  0  0  0
   -0.6338    0.6683   -0.7836 O   0  0  0  0  0  0  0  0  0  0  0  0
   -0.8145    0.1697   -2.0888 C   0  0  0  0  0  0  0  0  0  0  0  0
   -2.1716   -0.4877   -2.1774 C   0  0  0  0  0  0  0  0  0  0  0  0
   -0.1158    2.4015    1.1377 H   0  0  0  0  0  0  0  0  0  0  0  0
    1.6896    2.1515    1.0990 H   0  0  0  0  0  0  0  0  0  0  0  0
    1.4294    0.5741   -0.8065 H   0  0  0  0  0  0  0  0  0  0  0  0
    0.7327    2.1260   -1.2964 H   0  0  0  0  0  0  0  0  0  0  0  0
   -0.7365    0.9910   -2.8152 H   0  0  0  0  0  0  0  0  0  0  0  0
   -0.0199   -0.5518   -2.3252 H   0  0  0  0  0  0  0  0  0  0  0  0
   -2.9605    0.2295   -1.9483 H   0  0  0  0  0  0  0  0  0  0  0  0
   -2.3372   -0.8752   -3.1836 H   0  0  0  0  0  0  0  0  0  0  0  0
   -2.2432   -1.3173   -1.4730 H   0  0  0  0  0  0  0  0  0  0  0  0
  1  2  1  0
  1  4  1  0
  1  5  1  0
  2  3  2  0
  6  7  1  0
  6 11  1  0
  6 12  1  0
  7  8  1  0
  7 13  1  0
  7 14  1  0
  8  9  1  0
  9 10  1  0
  9 15  1  0
  9 16  1  0
 10 17  1  0
 10 18  1  0
 10 19  1  0
M  RAD  1   6   2
M  END
>  <reaction>  (4) 
rmg_rxn_1540

>  <mol_properties>  (4) 
{"0": {"label": "*1", "atom_type": "N3s"}, "1": {"label": "*0", "atom_type": "N3d"}, "3": {"label": "*2", "atom_type": "H0"}, "5": {"label": "*3", "atom_type": "Cs"}, "6": {"label": "*4", "atom_type": "Cs"}}

>  <type>  (4) 
ts

$$$$

     RDKit          3D

 19 17  0  0  0  0  0  0  0  0999 V2000
    1.5826   -0.2263    0.6279 N   0  0  0  0  0  0  0  0  0  0  0  0
    2.5814   -0.8307    0.1870 N   0  0  0  0  0  0  0  0  0  0  0  0
    3.4387   -0.3756   -0.5335 O   0  0  0  0  0  0  0  0  0  0  0  0
    1.0383    0.8140    0.2479 H   0  0  0  0  0  0  0  0  0  0  0  0
    0.9300   -0.7938    1.1598 H   0  0  0  0  0  0  0  0  0  0  0  0
    0.2595    1.7920   -0.1148 C   0  0  0  0  0  3  0  0  0  0  0  0
   -1.0397    1.1231   -0.4826 C   0  0  0  0  0  0  0  0  0  0  0  0
   -1.3604    0.1879    0.5355 O   0  0  0  0  0  0  0  0  0  0  0  0
   -2.6689   -0.3312    0.4807 C   0  0  0  0  0  0  0  0  0  0  0  0
   -2.9117   -1.2913   -0.6827 C   0  0  0  0  0  0  0  0  0  0  0  0
    0.1725    2.4250    0.7601 H   0  0  0  0  0  0  0  0  0  0  0  0
    0.7192    2.3082   -0.9476 H   0  0  0  0  0  0  0  0  0  0  0  0
   -0.9409    0.6117   -1.4512 H   0  0  0  0  0  0  0  0  0  0  0  0
   -1.8578    1.8596   -0.5716 H   0  0  0  0  0  0  0  0  0  0  0  0
   -2.7958   -0.8607    1.4292 H   0  0  0  0  0  0  0  0  0  0  0  0
   -3.3981    0.4925    0.4397 H   0  0  0  0  0  0  0  0  0  0  0  0
   -3.8898   -1.7511   -0.5733 H   0  0  0  0  0  0  0  0  0  0  0  0
   -2.8813   -0.7680   -1.6352 H   0  0  0  0  0  0  0  0  0  0  0  0
   -2.1542   -2.0714   -0.6876 H   0  0  0  0  0  0  0  0  0  0  0  0
  1  2  1  0
  1  4  1  0
  1  5  1  0
  2  3  2  0
  6  7  1  0
  6 11  1  0
  6 12  1  0
  7  8  1  0
  7 13  1  0
  7 14  1  0
  8  9  1  0
  9 10  1  0
  9 15  1  0
  9 16  1  0
 10 17  1  0
 10 18  1  0
 10 19  1  0
M  RAD  1   6   2
M  END
>  <reaction>  (5) 
rmg_rxn_1540

>  <mol_properties>  (5) 
{"0": {"label": "*1", "atom_type": "N3s"}, "1": {"label": "*0", "atom_type": "N3d"}, "3": {"label": "*2", "atom_type": "H0"}, "5": {"label": "*3", "atom_type": "Cs"}, "6": {"label": "*4", "atom_type": "Cs"}}

>  <type>  (5) 
unop_1

>  <geom_source>  (5) 
crest_best.xyz

$$$$

     RDKit          3D

 19 17  0  0  0  0  0  0  0  0999 V2000
    1.1443   -1.3976    0.3512 N   0  0  0  0  0  0  0  0  0  0  0  0
    1.1443   -2.6004   -0.1936 N   0  0  0  0  0  0  0  0  0  0  0  0
    1.1443   -2.6004   -1.3981 O   0  0  0  0  0  0  0  0  0  0  0  0
    1.1443   -0.4150   -0.3641 H   0  0  0  0  0  0  0  0  0  0  0  0
    1.1443   -1.3512    1.3532 H   0  0  0  0  0  0  0  0  0  0  0  0
    1.1443    0.6431   -1.1342 C   0  0  0  0  0  3  0  0  0  0  0  0
   -0.0814    1.4876   -0.8736 C   0  0  0  0  0  0  0  0  0  0  0  0
   -0.5971    1.1652    0.3934 O   0  0  0  0  0  0  0  0  0  0  0  0
   -1.7453    1.9032    0.7283 C   0  0  0  0  0  0  0  0  0  0  0  0
   -2.2162    1.4824    2.1011 C   0  0  0  0  0  0  0  0  0  0  0  0
    1.9065    0.8321   -0.3774 H   0  0  0  0  0  0  0  0  0  0  0  0
    1.5628    0.8766   -2.1144 H   0  0  0  0  0  0  0  0  0  0  0  0
   -0.8438    1.3071   -1.6459 H   0  0  0  0  0  0  0  0  0  0  0  0
    0.1730    2.5572   -0.9139 H   0  0  0  0  0  0  0  0  0  0  0  0
   -1.5172    2.9793    0.7133 H   0  0  0  0  0  0  0  0  0  0  0  0
   -2.5340    1.7293   -0.0187 H   0  0  0  0  0  0  0  0  0  0  0  0
   -1.4404    1.6680    2.8447 H   0  0  0  0  0  0  0  0  0  0  0  0
   -3.1087    2.0433    2.3830 H   0  0  0  0  0  0  0  0  0  0  0  0
   -2.4567    0.4188    2.1132 H   0  0  0  0  0  0  0  0  0  0  0  0
  1  2  1  0
  1  4  1  0
  1  5  1  0
  2  3  2  0
  6  7  1  0
  6 11  1  0
  6 12  1  0
  7  8  1  0
  7 13  1  0
  7 14  1  0
  8  9  1  0
  9 10  1  0
  9 15  1  0
  9 16  1  0
 10 17  1  0
 10 18  1  0
 10 19  1  0
M  RAD  1   6   2
M  END
>  <reaction>  (6) 
rmg_rxn_1540

>  <mol_properties>  (6) 
{"0": {"label": "*1", "atom_type": "N3s"}, "1": {"label": "*0", "atom_type": "N3d"}, "3": {"label": "*2", "atom_type": "H0"}, "5": {"label": "*3", "atom_type": "Cs"}, "6": {"label": "*4", "atom_type": "Cs"}}

>  <type>  (6) 
unop_2

>  <geom_source>  (6) 
Heuristics

$$$$

     RDKit          3D

 19 17  0  0  0  0  0  0  0  0999 V2000
    1.5808   -0.2280   -0.6243 N   0  0  0  0  0  0  0  0  0  0  0  0
    2.5817   -0.8310   -0.1861 N   0  0  0  0  0  0  0  0  0  0  0  0
    3.4413   -0.3742    0.5305 O   0  0  0  0  0  0  0  0  0  0  0  0
    1.0374    0.8134   -0.2460 H   0  0  0  0  0  0  0  0  0  0  0  0
    0.9270   -0.7965   -1.1537 H   0  0  0  0  0  0  0  0  0  0  0  0
    0.2589    1.7925    0.1145 C   0  0  0  0  0  3  0  0  0  0  0  0
   -1.0412    1.1249    0.4812 C   0  0  0  0  0  0  0  0  0  0  0  0
   -1.3605    0.1879   -0.5357 O   0  0  0  0  0  0  0  0  0  0  0  0
   -2.6687   -0.3323   -0.4809 C   0  0  0  0  0  0  0  0  0  0  0  0
   -2.9109   -1.2918    0.6832 C   0  0  0  0  0  0  0  0  0  0  0  0
    0.7178    2.3094    0.9473 H   0  0  0  0  0  0  0  0  0  0  0  0
    0.1736    2.4246   -0.7612 H   0  0  0  0  0  0  0  0  0  0  0  0
   -1.8591    1.8619    0.5673 H   0  0  0  0  0  0  0  0  0  0  0  0
   -0.9445    0.6154    1.4511 H   0  0  0  0  0  0  0  0  0  0  0  0
   -3.3987    0.4907   -0.4406 H   0  0  0  0  0  0  0  0  0  0  0  0
   -2.7950   -0.8624   -1.4291 H   0  0  0  0  0  0  0  0  0  0  0  0
   -2.1526   -2.0712    0.6887 H   0  0  0  0  0  0  0  0  0  0  0  0
   -2.8811   -0.7681    1.6355 H   0  0  0  0  0  0  0  0  0  0  0  0
   -3.8886   -1.7527    0.5738 H   0  0  0  0  0  0  0  0  0  0  0  0
  1  2  1  0
  1  4  1  0
  1  5  1  0
  2  3  2  0
  6  7  1  0
  6 11  1  0
  6 12  1  0
  7  8  1  0
  7 13  1  0
  7 14  1  0
  8  9  1  0
  9 10  1  0
  9 15  1  0
  9 16  1  0
 10 17  1  0
 10 18  1  0
 10 19  1  0
M  RAD  1   6   2
M  END
>  <reaction>  (7) 
rmg_rxn_1540

>  <mol_properties>  (7) 
{"0": {"label": "*1", "atom_type": "N3s"}, "1": {"label": "*0", "atom_type": "N3d"}, "3": {"label": "*2", "atom_type": "H0"}, "5": {"label": "*3", "atom_type": "Cs"}, "6": {"label": "*4", "atom_type": "Cs"}}

>  <type>  (7) 
unop_3

>  <geom_source>  (7) 
Heuristics

$$$$

     RDKit          3D

 19 17  0  0  0  0  0  0  0  0999 V2000
    1.1188   -0.3573    1.9982 N   0  0  0  0  0  0  0  0  0  0  0  0
    1.1188   -1.5602    1.4535 N   0  0  0  0  0  0  0  0  0  0  0  0
    1.1188   -1.5602    0.2490 O   0  0  0  0  0  0  0  0  0  0  0  0
    1.1188    0.6253    1.2830 H   0  0  0  0  0  0  0  0  0  0  0  0
    1.1188   -0.3110    3.0003 H   0  0  0  0  0  0  0  0  0  0  0  0
    1.1188    1.6833    0.5129 C   0  0  0  0  0  3  0  0  0  0  0  0
    0.4111    1.3901   -0.7897 C   0  0  0  0  0  0  0  0  0  0  0  0
   -0.7443    0.6363   -0.5219 O   0  0  0  0  0  0  0  0  0  0  0  0
   -1.4745    0.3122   -1.6781 C   0  0  0  0  0  0  0  0  0  0  0  0
   -2.6897   -0.4937   -1.2815 C   0  0  0  0  0  0  0  0  0  0  0  0
    0.4688    2.2479    1.1822 H   0  0  0  0  0  0  0  0  0  0  0  0
    2.0210    2.2689    0.3294 H   0  0  0  0  0  0  0  0  0  0  0  0
    1.0729    0.8335   -1.4698 H   0  0  0  0  0  0  0  0  0  0  0  0
    0.1385    2.3267   -1.2983 H   0  0  0  0  0  0  0  0  0  0  0  0
   -1.7770    1.2317   -2.2008 H   0  0  0  0  0  0  0  0  0  0  0  0
   -0.8426   -0.2615   -2.3723 H   0  0  0  0  0  0  0  0  0  0  0  0
   -3.3243    0.0797   -0.6049 H   0  0  0  0  0  0  0  0  0  0  0  0
   -3.2733   -0.7574   -2.1650 H   0  0  0  0  0  0  0  0  0  0  0  0
   -2.3905   -1.4127   -0.7763 H   0  0  0  0  0  0  0  0  0  0  0  0
  1  2  1  0
  1  4  1  0
  1  5  1  0
  2  3  2  0
  6  7  1  0
  6 11  1  0
  6 12  1  0
  7  8  1  0
  7 13  1  0
  7 14  1  0
  8  9  1  0
  9 10  1  0
  9 15  1  0
  9 16  1  0
 10 17  1  0
 10 18  1  0
 10 19  1  0
M  RAD  1   6   2
M  END
>  <reaction>  (8) 
rmg_rxn_1540

>  <mol_properties>  (8) 
{"0": {"label": "*1", "atom_type": "N3s"}, "1": {"label": "*0", "atom_type": "N3d"}, "3": {"label": "*2", "atom_type": "H0"}, "5": {"label": "*3", "atom_type": "Cs"}, "6": {"label": "*4", "atom_type": "Cs"}}

>  <type>  (8) 
unop_4

>  <geom_source>  (8) 
Heuristics

$$$$

     RDKit          3D

 19 17  0  0  0  0  0  0  0  0999 V2000
    1.5822   -0.2253   -0.6287 N   0  0  0  0  0  0  0  0  0  0  0  0
    2.5805   -0.8307   -0.1877 N   0  0  0  0  0  0  0  0  0  0  0  0
    3.4375   -0.3767    0.5339 O   0  0  0  0  0  0  0  0  0  0  0  0
    1.0381    0.8149   -0.2480 H   0  0  0  0  0  0  0  0  0  0  0  0
    0.9298   -0.7919   -1.1618 H   0  0  0  0  0  0  0  0  0  0  0  0
    0.2594    1.7926    0.1157 C   0  0  0  0  0  3  0  0  0  0  0  0
   -1.0398    1.1235    0.4831 C   0  0  0  0  0  0  0  0  0  0  0  0
   -1.3607    0.1892   -0.5358 O   0  0  0  0  0  0  0  0  0  0  0  0
   -2.6686   -0.3313   -0.4801 C   0  0  0  0  0  0  0  0  0  0  0  0
   -2.9089   -1.2935    0.6822 C   0  0  0  0  0  0  0  0  0  0  0  0
    0.7192    2.3081    0.9488 H   0  0  0  0  0  0  0  0  0  0  0  0
    0.1724    2.4262   -0.7588 H   0  0  0  0  0  0  0  0  0  0  0  0
   -1.8578    1.8599    0.5728 H   0  0  0  0  0  0  0  0  0  0  0  0
   -0.9409    0.6112    1.4513 H   0  0  0  0  0  0  0  0  0  0  0  0
   -3.3987    0.4916   -0.4369 H   0  0  0  0  0  0  0  0  0  0  0  0
   -2.7962   -0.8594   -1.4293 H   0  0  0  0  0  0  0  0  0  0  0  0
   -3.8865   -1.7545    0.5730 H   0  0  0  0  0  0  0  0  0  0  0  0
   -2.1502   -2.0725    0.6850 H   0  0  0  0  0  0  0  0  0  0  0  0
   -2.8783   -0.7716    1.6355 H   0  0  0  0  0  0  0  0  0  0  0  0
  1  2  1  0
  1  4  1  0
  1  5  1  0
  2  3  2  0
  6  7  1  0
  6 11  1  0
  6 12  1  0
  7  8  1  0
  7 13  1  0
  7 14  1  0
  8  9  1  0
  9 10  1  0
  9 15  1  0
  9 16  1  0
 10 17  1  0
 10 18  1  0
 10 19  1  0
M  RAD  1   6   2
M  END
>  <reaction>  (9) 
rmg_rxn_1540

>  <mol_properties>  (9) 
{"0": {"label": "*1", "atom_type": "N3s"}, "1": {"label": "*0", "atom_type": "N3d"}, "3": {"label": "*2", "atom_type": "H0"}, "5": {"label": "*3", "atom_type": "Cs"}, "6": {"label": "*4", "atom_type": "Cs"}}

>  <type>  (9) 
unop_5

>  <geom_source>  (9) 
Heuristics

$$$$

     RDKit          3D

 19 17  0  0  0  0  0  0  0  0999 V2000
    0.4004   -1.7296   -0.0090 N   0  0  0  0  0  0  0  0  0  0  0  0
    0.4004   -2.9324   -0.5538 N   0  0  0  0  0  0  0  0  0  0  0  0
    0.4004   -2.9324   -1.7583 O   0  0  0  0  0  0  0  0  0  0  0  0
    0.4004   -0.7470   -0.7242 H   0  0  0  0  0  0  0  0  0  0  0  0
    0.4004   -1.6832    0.9931 H   0  0  0  0  0  0  0  0  0  0  0  0
    0.4004    0.3111   -1.4943 C   0  0  0  0  0  3  0  0  0  0  0  0
   -0.3073    1.4605   -0.8149 C   0  0  0  0  0  0  0  0  0  0  0  0
   -0.1179    1.3565    0.5738 O   0  0  0  0  0  0  0  0  0  0  0  0
   -0.7426    2.3871    1.2967 C   0  0  0  0  0  0  0  0  0  0  0  0
   -0.4789    2.1825    2.7706 C   0  0  0  0  0  0  0  0  0  0  0  0
    1.4683    0.3363   -1.2746 H   0  0  0  0  0  0  0  0  0  0  0  0
    0.2669    0.3711   -2.5756 H   0  0  0  0  0  0  0  0  0  0  0  0
   -1.3820    1.4427   -1.0493 H   0  0  0  0  0  0  0  0  0  0  0  0
    0.0867    2.4220   -1.1762 H   0  0  0  0  0  0  0  0  0  0  0  0
   -0.3555    3.3632    0.9689 H   0  0  0  0  0  0  0  0  0  0  0  0
   -1.8242    2.3839    1.0958 H   0  0  0  0  0  0  0  0  0  0  0  0
    0.5926    2.2002    2.9730 H   0  0  0  0  0  0  0  0  0  0  0  0
   -0.9553    2.9726    3.3531 H   0  0  0  0  0  0  0  0  0  0  0  0
   -0.8752    1.2215    3.0999 H   0  0  0  0  0  0  0  0  0  0  0  0
  1  2  1  0
  1  4  1  0
  1  5  1  0
  2  3  2  0
  6  7  1  0
  6 11  1  0
  6 12  1  0
  7  8  1  0
  7 13  1  0
  7 14  1  0
  8  9  1  0
  9 10  1  0
  9 15  1  0
  9 16  1  0
 10 17  1  0
 10 18  1  0
 10 19  1  0
M  RAD  1   6   2
M  END
>  <reaction>  (10) 
rmg_rxn_1540

>  <mol_properties>  (10) 
{"0": {"label": "*1", "atom_type": "N3s"}, "1": {"label": "*0", "atom_type": "N3d"}, "3": {"label": "*2", "atom_type": "H0"}, "5": {"label": "*3", "atom_type": "Cs"}, "6": {"label": "*4", "atom_type": "Cs"}}

>  <type>  (10) 
unop_6

>  <geom_source>  (10) 
Heuristics

$$$$

     RDKit          3D

 19 17  0  0  0  0  0  0  0  0999 V2000
   -0.7138   -0.6359    2.4822 N   0  0  0  0  0  0  0  0  0  0  0  0
   -0.7138   -1.8387    1.9375 N   0  0  0  0  0  0  0  0  0  0  0  0
   -0.7138   -1.8387    0.7330 O   0  0  0  0  0  0  0  0  0  0  0  0
   -0.7138    0.3468    1.7670 H   0  0  0  0  0  0  0  0  0  0  0  0
   -0.7138   -0.5895    3.4843 H   0  0  0  0  0  0  0  0  0  0  0  0
   -0.7138    1.4048    0.9969 C   0  0  0  0  0  3  0  0  0  0  0  0
    0.5120    1.4164    0.1131 C   0  0  0  0  0  0  0  0  0  0  0  0
    0.2060    0.7769   -1.1003 O   0  0  0  0  0  0  0  0  0  0  0  0
    1.2898    0.7372   -1.9941 C   0  0  0  0  0  0  0  0  0  0  0  0
    0.8573    0.0330   -3.2592 C   0  0  0  0  0  0  0  0  0  0  0  0
   -1.5388    1.9286    0.5128 H   0  0  0  0  0  0  0  0  0  0  0  0
   -0.4996    1.8972    1.9468 H   0  0  0  0  0  0  0  0  0  0  0  0
    1.3479    0.9008    0.6086 H   0  0  0  0  0  0  0  0  0  0  0  0
    0.8375    2.4496   -0.0790 H   0  0  0  0  0  0  0  0  0  0  0  0
    1.6276    1.7596   -2.2197 H   0  0  0  0  0  0  0  0  0  0  0  0
    2.1381    0.2108   -1.5320 H   0  0  0  0  0  0  0  0  0  0  0  0
    0.0259    0.5623   -3.7260 H   0  0  0  0  0  0  0  0  0  0  0  0
    1.6843   -0.0099   -3.9697 H   0  0  0  0  0  0  0  0  0  0  0  0
    0.5361   -0.9856   -3.0388 H   0  0  0  0  0  0  0  0  0  0  0  0
  1  2  1  0
  1  4  1  0
  1  5  1  0
  2  3  2  0
  6  7  1  0
  6 11  1  0
  6 12  1  0
  7  8  1  0
  7 13  1  0
  7 14  1  0
  8  9  1  0
  9 10  1  0
  9 15  1  0
  9 16  1  0
 10 17  1  0
 10 18  1  0
 10 19  1  0
M  RAD  1   6   2
M  END
>  <reaction>  (11) 
rmg_rxn_1540

>  <mol_properties>  (11) 
{"0": {"label": "*1", "atom_type": "N3s"}, "1": {"label": "*0", "atom_type": "N3d"}, "3": {"label": "*2", "atom_type": "H0"}, "5": {"label": "*3", "atom_type": "Cs"}, "6": {"label": "*4", "atom_type": "Cs"}}

>  <type>  (11) 
unop_7

>  <geom_source>  (11) 
Heuristics

$$$$

     RDKit          3D

 19 17  0  0  0  0  0  0  0  0999 V2000
    1.5820    0.2289   -0.6256 N   0  0  0  0  0  0  0  0  0  0  0  0
    2.5831    0.8310   -0.1865 N   0  0  0  0  0  0  0  0  0  0  0  0
    3.4414    0.3733    0.5311 O   0  0  0  0  0  0  0  0  0  0  0  0
    1.0379   -0.8121   -0.2473 H   0  0  0  0  0  0  0  0  0  0  0  0
    0.9293    0.7979   -1.1558 H   0  0  0  0  0  0  0  0  0  0  0  0
    0.2597   -1.7910    0.1144 C   0  0  0  0  0  3  0  0  0  0  0  0
   -1.0400   -1.1235    0.4826 C   0  0  0  0  0  0  0  0  0  0  0  0
   -1.3628   -0.1895   -0.5359 O   0  0  0  0  0  0  0  0  0  0  0  0
   -2.6713    0.3295   -0.4792 C   0  0  0  0  0  0  0  0  0  0  0  0
   -2.9108    1.2935    0.6817 C   0  0  0  0  0  0  0  0  0  0  0  0
    0.1732   -2.4231   -0.7613 H   0  0  0  0  0  0  0  0  0  0  0  0
    0.7196   -2.3078    0.9467 H   0  0  0  0  0  0  0  0  0  0  0  0
   -0.9412   -0.6113    1.4509 H   0  0  0  0  0  0  0  0  0  0  0  0
   -1.8571   -1.8611    0.5728 H   0  0  0  0  0  0  0  0  0  0  0  0
   -2.8011    0.8556   -1.4292 H   0  0  0  0  0  0  0  0  0  0  0  0
   -3.4002   -0.4942   -0.4330 H   0  0  0  0  0  0  0  0  0  0  0  0
   -2.1540    2.0744    0.6808 H   0  0  0  0  0  0  0  0  0  0  0  0
   -3.8897    1.7520    0.5741 H   0  0  0  0  0  0  0  0  0  0  0  0
   -2.8763    0.7739    1.6360 H   0  0  0  0  0  0  0  0  0  0  0  0
  1  2  1  0
  1  4  1  0
  1  5  1  0
  2  3  2  0
  6  7  1  0
  6 11  1  0
  6 12  1  0
  7  8  1  0
  7 13  1  0
  7 14  1  0
  8  9  1  0
  9 10  1  0
  9 15  1  0
  9 16  1  0
 10 17  1  0
 10 18  1  0
 10 19  1  0
M  RAD  1   6   2
M  END
>  <reaction>  (12) 
rmg_rxn_1540

>  <mol_properties>  (12) 
{"0": {"label": "*1", "atom_type": "N3s"}, "1": {"label": "*0", "atom_type": "N3d"}, "3": {"label": "*2", "atom_type": "H0"}, "5": {"label": "*3", "atom_type": "Cs"}, "6": {"label": "*4", "atom_type": "Cs"}}

>  <type>  (12) 
unop_8

>  <geom_source>  (12) 
Heuristics

$$$$

     RDKit          3D

 19 17  0  0  0  0  0  0  0  0999 V2000
   -0.6098   -1.8713    0.1927 N   0  0  0  0  0  0  0  0  0  0  0  0
   -0.6098   -3.0741   -0.3520 N   0  0  0  0  0  0  0  0  0  0  0  0
   -0.6098   -3.0741   -1.5565 O   0  0  0  0  0  0  0  0  0  0  0  0
   -0.6098   -0.8887   -0.5225 H   0  0  0  0  0  0  0  0  0  0  0  0
   -0.6098   -1.8250    1.1948 H   0  0  0  0  0  0  0  0  0  0  0  0
   -0.6098    0.1694   -1.2926 C   0  0  0  0  0  3  0  0  0  0  0  0
   -0.6098    1.4304   -0.4598 C   0  0  0  0  0  0  0  0  0  0  0  0
    0.5410    1.4449    0.3467 O   0  0  0  0  0  0  0  0  0  0  0  0
    0.6313    2.5856    1.1626 C   0  0  0  0  0  0  0  0  0  0  0  0
    1.8968    2.5027    1.9842 C   0  0  0  0  0  0  0  0  0  0  0  0
    0.2751    0.1316   -1.9288 H   0  0  0  0  0  0  0  0  0  0  0  0
   -1.4960    0.1362   -1.9282 H   0  0  0  0  0  0  0  0  0  0  0  0
   -1.5103    1.4746    0.1706 H   0  0  0  0  0  0  0  0  0  0  0  0
   -0.6248    2.3191   -1.1081 H   0  0  0  0  0  0  0  0  0  0  0  0
    0.6359    3.4927    0.5400 H   0  0  0  0  0  0  0  0  0  0  0  0
   -0.2496    2.6482    1.8187 H   0  0  0  0  0  0  0  0  0  0  0  0
    2.7716    2.4555    1.3347 H   0  0  0  0  0  0  0  0  0  0  0  0
    1.9884    3.3798    2.6268 H   0  0  0  0  0  0  0  0  0  0  0  0
    1.8867    1.6116    2.6127 H   0  0  0  0  0  0  0  0  0  0  0  0
  1  2  1  0
  1  4  1  0
  1  5  1  0
  2  3  2  0
  6  7  1  0
  6 11  1  0
  6 12  1  0
  7  8  1  0
  7 13  1  0
  7 14  1  0
  8  9  1  0
  9 10  1  0
  9 15  1  0
  9 16  1  0
 10 17  1  0
 10 18  1  0
 10 19  1  0
M  RAD  1   6   2
M  END
>  <reaction>  (13) 
rmg_rxn_1540

>  <mol_properties>  (13) 
{"0": {"label": "*1", "atom_type": "N3s"}, "1": {"label": "*0", "atom_type": "N3d"}, "3": {"label": "*2", "atom_type": "H0"}, "5": {"label": "*3", "atom_type": "Cs"}, "6": {"label": "*4", "atom_type": "Cs"}}

>  <type>  (13) 
unop_9

>  <geom_source>  (13) 
Heuristics

$$$$

     RDKit          3D

 19 17  0  0  0  0  0  0  0  0999 V2000
    1.5827   -0.2238   -0.6304 N   0  0  0  0  0  0  0  0  0  0  0  0
    2.5796   -0.8306   -0.1881 N   0  0  0  0  0  0  0  0  0  0  0  0
    3.4358   -0.3780    0.5353 O   0  0  0  0  0  0  0  0  0  0  0  0
    1.0385    0.8159   -0.2486 H   0  0  0  0  0  0  0  0  0  0  0  0
    0.9303   -0.7896   -1.1645 H   0  0  0  0  0  0  0  0  0  0  0  0
    0.2594    1.7930    0.1160 C   0  0  0  0  0  3  0  0  0  0  0  0
   -1.0392    1.1231    0.4836 C   0  0  0  0  0  0  0  0  0  0  0  0
   -1.3599    0.1889   -0.5355 O   0  0  0  0  0  0  0  0  0  0  0  0
   -2.6679   -0.3315   -0.4804 C   0  0  0  0  0  0  0  0  0  0  0  0
   -2.9089   -1.2933    0.6821 C   0  0  0  0  0  0  0  0  0  0  0  0
    0.7194    2.3083    0.9492 H   0  0  0  0  0  0  0  0  0  0  0  0
    0.1718    2.4270   -0.7581 H   0  0  0  0  0  0  0  0  0  0  0  0
   -1.8576    1.8591    0.5738 H   0  0  0  0  0  0  0  0  0  0  0  0
   -0.9398    0.6106    1.4516 H   0  0  0  0  0  0  0  0  0  0  0  0
   -3.3979    0.4915   -0.4377 H   0  0  0  0  0  0  0  0  0  0  0  0
   -2.7951   -0.8598   -1.4295 H   0  0  0  0  0  0  0  0  0  0  0  0
   -2.8783   -0.7712    1.6353 H   0  0  0  0  0  0  0  0  0  0  0  0
   -3.8866   -1.7540    0.5727 H   0  0  0  0  0  0  0  0  0  0  0  0
   -2.1505   -2.0726    0.6854 H   0  0  0  0  0  0  0  0  0  0  0  0
  1  2  1  0
  1  4  1  0
  1  5  1  0
  2  3  2  0
  6  7  1  0
  6 11  1  0
  6 12  1  0
  7  8  1  0
  7 13  1  0
  7 14  1  0
  8  9  1  0
  9 10  1  0
  9 15  1  0
  9 16  1  0
 10 17  1  0
 10 18  1  0
 10 19  1  0
M  RAD  1   6   2
M  END
>  <reaction>  (14) 
rmg_rxn_1540

>  <mol_properties>  (14) 
{"0": {"label": "*1", "atom_type": "N3s"}, "1": {"label": "*0", "atom_type": "N3d"}, "3": {"label": "*2", "atom_type": "H0"}, "5": {"label": "*3", "atom_type": "Cs"}, "6": {"label": "*4", "atom_type": "Cs"}}

>  <type>  (14) 
unop_10

>  <geom_source>  (14) 
Heuristics

$$$$

     RDKit          3D

 19 17  0  0  0  0  0  0  0  0999 V2000
   -1.1962   -1.0165    2.1038 N   0  0  0  0  0  0  0  0  0  0  0  0
   -1.1962   -2.2193    1.5591 N   0  0  0  0  0  0  0  0  0  0  0  0
   -1.1962   -2.2193    0.3546 O   0  0  0  0  0  0  0  0  0  0  0  0
   -1.1962   -0.0339    1.3886 H   0  0  0  0  0  0  0  0  0  0  0  0
   -1.1962   -0.9702    3.1059 H   0  0  0  0  0  0  0  0  0  0  0  0
   -1.1962    1.0242    0.6185 C   0  0  0  0  0  3  0  0  0  0  0  0
    0.2192    1.4522    0.3069 C   0  0  0  0  0  0  0  0  0  0  0  0
    0.5724    0.9701   -0.9650 O   0  0  0  0  0  0  0  0  0  0  0  0
    1.8793    1.3192   -1.3463 C   0  0  0  0  0  0  0  0  0  0  0  0
    2.1568    0.7555   -2.7207 C   0  0  0  0  0  0  0  0  0  0  0  0
   -1.8885    1.4251   -0.1226 H   0  0  0  0  0  0  0  0  0  0  0  0
   -1.4930    1.3879    1.6035 H   0  0  0  0  0  0  0  0  0  0  0  0
    0.9148    1.0596    1.0634 H   0  0  0  0  0  0  0  0  0  0  0  0
    0.3027    2.5490    0.3289 H   0  0  0  0  0  0  0  0  0  0  0  0
    1.9891    2.4138   -1.3505 H   0  0  0  0  0  0  0  0  0  0  0  0
    2.6012    0.9245   -0.6161 H   0  0  0  0  0  0  0  0  0  0  0  0
    1.4509    1.1575   -3.4482 H   0  0  0  0  0  0  0  0  0  0  0  0
    3.1680    1.0145   -3.0383 H   0  0  0  0  0  0  0  0  0  0  0  0
    2.0626   -0.3309   -2.7142 H   0  0  0  0  0  0  0  0  0  0  0  0
  1  2  1  0
  1  4  1  0
  1  5  1  0
  2  3  2  0
  6  7  1  0
  6 11  1  0
  6 12  1  0
  7  8  1  0
  7 13  1  0
  7 14  1  0
  8  9  1  0
  9 10  1  0
  9 15  1  0
  9 16  1  0
 10 17  1  0
 10 18  1  0
 10 19  1  0
M  RAD  1   6   2
M  END
>  <reaction>  (15) 
rmg_rxn_1540

>  <mol_properties>  (15) 
{"0": {"label": "*1", "atom_type": "N3s"}, "1": {"label": "*0", "atom_type": "N3d"}, "3": {"label": "*2", "atom_type": "H0"}, "5": {"label": "*3", "atom_type": "Cs"}, "6": {"label": "*4", "atom_type": "Cs"}}

>  <type>  (15) 
unop_11

>  <geom_source>  (15) 
Heuristics

$$$$

     RDKit          3D

 19 17  0  0  0  0  0  0  0  0999 V2000
    1.5810   -0.2243    0.6284 N   0  0  0  0  0  0  0  0  0  0  0  0
    2.5790   -0.8307    0.1881 N   0  0  0  0  0  0  0  0  0  0  0  0
    3.4368   -0.3778   -0.5331 O   0  0  0  0  0  0  0  0  0  0  0  0
    1.0376    0.8160    0.2471 H   0  0  0  0  0  0  0  0  0  0  0  0
    0.9277   -0.7903    1.1611 H   0  0  0  0  0  0  0  0  0  0  0  0
    0.2590    1.7938   -0.1166 C   0  0  0  0  0  3  0  0  0  0  0  0
   -1.0403    1.1246   -0.4832 C   0  0  0  0  0  0  0  0  0  0  0  0
   -1.3607    0.1904    0.5359 O   0  0  0  0  0  0  0  0  0  0  0  0
   -2.6679   -0.3320    0.4796 C   0  0  0  0  0  0  0  0  0  0  0  0
   -2.9054   -1.2961   -0.6816 C   0  0  0  0  0  0  0  0  0  0  0  0
    0.1723    2.4278    0.7577 H   0  0  0  0  0  0  0  0  0  0  0  0
    0.7186    2.3090   -0.9500 H   0  0  0  0  0  0  0  0  0  0  0  0
   -0.9419    0.6124   -1.4515 H   0  0  0  0  0  0  0  0  0  0  0  0
   -1.8584    1.8610   -0.5726 H   0  0  0  0  0  0  0  0  0  0  0  0
   -2.7957   -0.8589    1.4294 H   0  0  0  0  0  0  0  0  0  0  0  0
   -3.3990    0.4898    0.4343 H   0  0  0  0  0  0  0  0  0  0  0  0
   -2.8743   -0.7757   -1.6356 H   0  0  0  0  0  0  0  0  0  0  0  0
   -2.1457   -2.0741   -0.6823 H   0  0  0  0  0  0  0  0  0  0  0  0
   -3.8825   -1.7584   -0.5729 H   0  0  0  0  0  0  0  0  0  0  0  0
  1  2  1  0
  1  4  1  0
  1  5  1  0
  2  3  2  0
  6  7  1  0
  6 11  1  0
  6 12  1  0
  7  8  1  0
  7 13  1  0
  7 14  1  0
  8  9  1  0
  9 10  1  0
  9 15  1  0
  9 16  1  0
 10 17  1  0
 10 18  1  0
 10 19  1  0
M  RAD  1   6   2
M  END
>  <reaction>  (16) 
rmg_rxn_1540

>  <mol_properties>  (16) 
{"0": {"label": "*1", "atom_type": "N3s"}, "1": {"label": "*0", "atom_type": "N3d"}, "3": {"label": "*2", "atom_type": "H0"}, "5": {"label": "*3", "atom_type": "Cs"}, "6": {"label": "*4", "atom_type": "Cs"}}

>  <type>  (16) 
unop_12

>  <geom_source>  (16) 
Heuristics

$$$$

     RDKit          3D

 19 17  0  0  0  0  0  0  0  0999 V2000
   -1.3794   -1.4255    1.5476 N   0  0  0  0  0  0  0  0  0  0  0  0
   -1.3794   -2.6283    1.0028 N   0  0  0  0  0  0  0  0  0  0  0  0
   -1.3794   -2.6283   -0.2017 O   0  0  0  0  0  0  0  0  0  0  0  0
   -1.3794   -0.4429    0.8323 H   0  0  0  0  0  0  0  0  0  0  0  0
   -1.3794   -1.3791    2.5496 H   0  0  0  0  0  0  0  0  0  0  0  0
   -1.3794    0.6152    0.0622 C   0  0  0  0  0  3  0  0  0  0  0  0
   -0.1537    1.4597    0.3228 C   0  0  0  0  0  0  0  0  0  0  0  0
    0.8057    1.1900   -0.6681 O   0  0  0  0  0  0  0  0  0  0  0  0
    1.9887    1.9321   -0.5102 C   0  0  0  0  0  0  0  0  0  0  0  0
    2.9476    1.5692   -1.6203 C   0  0  0  0  0  0  0  0  0  0  0  0
   -1.8004    0.8447   -0.9173 H   0  0  0  0  0  0  0  0  0  0  0  0
   -2.1397    0.8082    0.8207 H   0  0  0  0  0  0  0  0  0  0  0  0
    0.2615    1.2380    1.3172 H   0  0  0  0  0  0  0  0  0  0  0  0
   -0.4140    2.5286    0.3119 H   0  0  0  0  0  0  0  0  0  0  0  0
    1.7624    3.0084   -0.5344 H   0  0  0  0  0  0  0  0  0  0  0  0
    2.4378    1.7179    0.4709 H   0  0  0  0  0  0  0  0  0  0  0  0
    2.5091    1.7949   -2.5930 H   0  0  0  0  0  0  0  0  0  0  0  0
    3.8754    2.1343   -1.5182 H   0  0  0  0  0  0  0  0  0  0  0  0
    3.1842    0.5051   -1.5883 H   0  0  0  0  0  0  0  0  0  0  0  0
  1  2  1  0
  1  4  1  0
  1  5  1  0
  2  3  2  0
  6  7  1  0
  6 11  1  0
  6 12  1  0
  7  8  1  0
  7 13  1  0
  7 14  1  0
  8  9  1  0
  9 10  1  0
  9 15  1  0
  9 16  1  0
 10 17  1  0
 10 18  1  0
 10 19  1  0
M  RAD  1   6   2
M  END
>  <reaction>  (17) 
rmg_rxn_1540

>  <mol_properties>  (17) 
{"0": {"label": "*1", "atom_type": "N3s"}, "1": {"label": "*0", "atom_type": "N3d"}, "3": {"label": "*2", "atom_type": "H0"}, "5": {"label": "*3", "atom_type": "Cs"}, "6": {"label": "*4", "atom_type": "Cs"}}

>  <type>  (17) 
unop_13

>  <geom_source>  (17) 
Heuristics

$$$$

     RDKit          3D

 19 17  0  0  0  0  0  0  0  0999 V2000
    1.4663   -0.9888    0.9148 N   0  0  0  0  0  0  0  0  0  0  0  0
    1.4663   -2.1916    0.3701 N   0  0  0  0  0  0  0  0  0  0  0  0
    1.4663   -2.1916   -0.8344 O   0  0  0  0  0  0  0  0  0  0  0  0
    1.4663   -0.0062    0.1996 H   0  0  0  0  0  0  0  0  0  0  0  0
    1.4663   -0.9425    1.9169 H   0  0  0  0  0  0  0  0  0  0  0  0
    1.4663    1.0519   -0.5705 C   0  0  0  0  0  3  0  0  0  0  0  0
    0.0509    1.4800   -0.8821 C   0  0  0  0  0  0  0  0  0  0  0  0
   -0.8121    0.9455    0.0899 O   0  0  0  0  0  0  0  0  0  0  0  0
   -2.1589    1.2905   -0.1155 C   0  0  0  0  0  0  0  0  0  0  0  0
   -2.9970    0.6693    0.9777 C   0  0  0  0  0  0  0  0  0  0  0  0
    1.7666    1.4126    0.4139 H   0  0  0  0  0  0  0  0  0  0  0  0
    2.1557    1.4559   -1.3135 H   0  0  0  0  0  0  0  0  0  0  0  0
   -0.2458    1.1283   -1.8813 H   0  0  0  0  0  0  0  0  0  0  0  0
   -0.0259    2.5774   -0.8893 H   0  0  0  0  0  0  0  0  0  0  0  0
   -2.2708    2.3849   -0.1106 H   0  0  0  0  0  0  0  0  0  0  0  0
   -2.4907    0.9359   -1.1026 H   0  0  0  0  0  0  0  0  0  0  0  0
   -2.6786    1.0315    1.9558 H   0  0  0  0  0  0  0  0  0  0  0  0
   -4.0488    0.9241    0.8387 H   0  0  0  0  0  0  0  0  0  0  0  0
   -2.8984   -0.4167    0.9644 H   0  0  0  0  0  0  0  0  0  0  0  0
  1  2  1  0
  1  4  1  0
  1  5  1  0
  2  3  2  0
  6  7  1  0
  6 11  1  0
  6 12  1  0
  7  8  1  0
  7 13  1  0
  7 14  1  0
  8  9  1  0
  9 10  1  0
  9 15  1  0
  9 16  1  0
 10 17  1  0
 10 18  1  0
 10 19  1  0
M  RAD  1   6   2
M  END
>  <reaction>  (18) 
rmg_rxn_1540

>  <mol_properties>  (18) 
{"0": {"label": "*1", "atom_type": "N3s"}, "1": {"label": "*0", "atom_type": "N3d"}, "3": {"label": "*2", "atom_type": "H0"}, "5": {"label": "*3", "atom_type": "Cs"}, "6": {"label": "*4", "atom_type": "Cs"}}

>  <type>  (18) 
unop_14

>  <geom_source>  (18) 
Heuristics

$$$$

     RDKit          3D

 19 17  0  0  0  0  0  0  0  0999 V2000
    1.5826   -0.2263    0.6279 N   0  0  0  0  0  0  0  0  0  0  0  0
    2.5814   -0.8307    0.1870 N   0  0  0  0  0  0  0  0  0  0  0  0
    3.4387   -0.3756   -0.5335 O   0  0  0  0  0  0  0  0  0  0  0  0
    1.0383    0.8140    0.2479 H   0  0  0  0  0  0  0  0  0  0  0  0
    0.9300   -0.7938    1.1598 H   0  0  0  0  0  0  0  0  0  0  0  0
    0.2595    1.7920   -0.1148 C   0  0  0  0  0  3  0  0  0  0  0  0
   -1.0397    1.1231   -0.4826 C   0  0  0  0  0  0  0  0  0  0  0  0
   -1.3604    0.1879    0.5355 O   0  0  0  0  0  0  0  0  0  0  0  0
   -2.6689   -0.3312    0.4807 C   0  0  0  0  0  0  0  0  0  0  0  0
   -2.9117   -1.2913   -0.6827 C   0  0  0  0  0  0  0  0  0  0  0  0
    0.1725    2.4250    0.7601 H   0  0  0  0  0  0  0  0  0  0  0  0
    0.7192    2.3082   -0.9476 H   0  0  0  0  0  0  0  0  0  0  0  0
   -0.9409    0.6117   -1.4512 H   0  0  0  0  0  0  0  0  0  0  0  0
   -1.8578    1.8596   -0.5716 H   0  0  0  0  0  0  0  0  0  0  0  0
   -2.7958   -0.8607    1.4292 H   0  0  0  0  0  0  0  0  0  0  0  0
   -3.3981    0.4925    0.4397 H   0  0  0  0  0  0  0  0  0  0  0  0
   -3.8898   -1.7511   -0.5733 H   0  0  0  0  0  0  0  0  0  0  0  0
   -2.8813   -0.7680   -1.6352 H   0  0  0  0  0  0  0  0  0  0  0  0
   -2.1542   -2.0714   -0.6876 H   0  0  0  0  0  0  0  0  0  0  0  0
  1  2  1  0
  1  4  1  0
  1  5  1  0
  2  3  2  0
  6  7  1  0
  6 11  1  0
  6 12  1  0
  7  8  1  0
  7 13  1  0
  7 14  1  0
  8  9  1  0
  9 10  1  0
  9 15  1  0
  9 16  1  0
 10 17  1  0
 10 18  1  0
 10 19  1  0
M  RAD  1   6   2
M  END
>  <reaction>  (19) 
rmg_rxn_1540

>  <mol_properties>  (19) 
{"0": {"label": "*1", "atom_type": "N3s"}, "1": {"label": "*0", "atom_type": "N3d"}, "3": {"label": "*2", "atom_type": "H0"}, "5": {"label": "*3", "atom_type": "Cs"}, "6": {"label": "*4", "atom_type": "Cs"}}

>  <type>  (19) 
unop_15

>  <geom_source>  (19) 
Heuristics

$$$$

     RDKit          3D

 19 17  0  0  0  0  0  0  0  0999 V2000
   -0.0485   -0.3710    2.5828 N   0  0  0  0  0  0  0  0  0  0  0  0
   -0.0485   -1.5738    2.0380 N   0  0  0  0  0  0  0  0  0  0  0  0
   -0.0485   -1.5738    0.8335 O   0  0  0  0  0  0  0  0  0  0  0  0
   -0.0485    0.6117    1.8676 H   0  0  0  0  0  0  0  0  0  0  0  0
   -0.0485   -0.3246    3.5849 H   0  0  0  0  0  0  0  0  0  0  0  0
   -0.0485    1.6697    1.0975 C   0  0  0  0  0  3  0  0  0  0  0  0
    0.6592    1.3765   -0.2051 C   0  0  0  0  0  0  0  0  0  0  0  0
   -0.2052    0.6484   -1.0405 O   0  0  0  0  0  0  0  0  0  0  0  0
    0.3666    0.3263   -2.2832 C   0  0  0  0  0  0  0  0  0  0  0  0
   -0.6395   -0.4513   -3.0998 C   0  0  0  0  0  0  0  0  0  0  0  0
   -0.9517    2.2541    0.9185 H   0  0  0  0  0  0  0  0  0  0  0  0
    0.6048    2.2355    1.7635 H   0  0  0  0  0  0  0  0  0  0  0  0
    1.5779    0.7997   -0.0220 H   0  0  0  0  0  0  0  0  0  0  0  0
    0.9581    2.3127   -0.6994 H   0  0  0  0  0  0  0  0  0  0  0  0
    0.6609    1.2459   -2.8104 H   0  0  0  0  0  0  0  0  0  0  0  0
    1.2807   -0.2671   -2.1331 H   0  0  0  0  0  0  0  0  0  0  0  0
   -1.5403    0.1416   -3.2617 H   0  0  0  0  0  0  0  0  0  0  0  0
   -0.2168   -0.7130   -4.0710 H   0  0  0  0  0  0  0  0  0  0  0  0
   -0.9209   -1.3705   -2.5848 H   0  0  0  0  0  0  0  0  0  0  0  0
  1  2  1  0
  1  4  1  0
  1  5  1  0
  2  3  2  0
  6  7  1  0
  6 11  1  0
  6 12  1  0
  7  8  1  0
  7 13  1  0
  7 14  1  0
  8  9  1  0
  9 10  1  0
  9 15  1  0
  9 16  1  0
 10 17  1  0
 10 18  1  0
 10 19  1  0
M  RAD  1   6   2
M  END
>  <reaction>  (20) 
rmg_rxn_1540

>  <mol_properties>  (20) 
{"0": {"label": "*1", "atom_type": "N3s"}, "1": {"label": "*0", "atom_type": "N3d"}, "3": {"label": "*2", "atom_type": "H0"}, "5": {"label": "*3", "atom_type": "Cs"}, "6": {"label": "*4", "atom_type": "Cs"}}

>  <type>  (20) 
unop_16

>  <geom_source>  (20) 
Heuristics

$$$$

     RDKit          3D

 19 17  0  0  0  0  0  0  0  0999 V2000
    1.4271   -0.6128    1.4932 N   0  0  0  0  0  0  0  0  0  0  0  0
    1.4271   -1.8156    0.9485 N   0  0  0  0  0  0  0  0  0  0  0  0
    1.4271   -1.8156   -0.2560 O   0  0  0  0  0  0  0  0  0  0  0  0
    1.4271    0.3698    0.7780 H   0  0  0  0  0  0  0  0  0  0  0  0
    1.4271   -0.5664    2.4953 H   0  0  0  0  0  0  0  0  0  0  0  0
    1.4271    1.4279    0.0079 C   0  0  0  0  0  3  0  0  0  0  0  0
    0.2013    1.4395   -0.8759 C   0  0  0  0  0  0  0  0  0  0  0  0
   -0.8389    0.7564   -0.2228 O   0  0  0  0  0  0  0  0  0  0  0  0
   -2.0282    0.7133   -0.9703 C   0  0  0  0  0  0  0  0  0  0  0  0
   -3.0760   -0.0388   -0.1829 C   0  0  0  0  0  0  0  0  0  0  0  0
    1.2170    1.9182    0.9591 H   0  0  0  0  0  0  0  0  0  0  0  0
    2.2495    1.9538   -0.4796 H   0  0  0  0  0  0  0  0  0  0  0  0
    0.4186    0.9579   -1.8408 H   0  0  0  0  0  0  0  0  0  0  0  0
   -0.1066    2.4732   -1.0924 H   0  0  0  0  0  0  0  0  0  0  0  0
   -2.3715    1.7355   -1.1883 H   0  0  0  0  0  0  0  0  0  0  0  0
   -1.8462    0.2202   -1.9367 H   0  0  0  0  0  0  0  0  0  0  0  0
   -3.2678    0.4574    0.7691 H   0  0  0  0  0  0  0  0  0  0  0  0
   -4.0102   -0.0851   -0.7447 H   0  0  0  0  0  0  0  0  0  0  0  0
   -2.7428   -1.0570    0.0211 H   0  0  0  0  0  0  0  0  0  0  0  0
  1  2  1  0
  1  4  1  0
  1  5  1  0
  2  3  2  0
  6  7  1  0
  6 11  1  0
  6 12  1  0
  7  8  1  0
  7 13  1  0
  7 14  1  0
  8  9  1  0
  9 10  1  0
  9 15  1  0
  9 16  1  0
 10 17  1  0
 10 18  1  0
 10 19  1  0
M  RAD  1   6   2
M  END
>  <reaction>  (21) 
rmg_rxn_1540

>  <mol_properties>  (21) 
{"0": {"label": "*1", "atom_type": "N3s"}, "1": {"label": "*0", "atom_type": "N3d"}, "3": {"label": "*2", "atom_type": "H0"}, "5": {"label": "*3", "atom_type": "Cs"}, "6": {"label": "*4", "atom_type": "Cs"}}

>  <type>  (21) 
unop_17

>  <geom_source>  (21) 
Heuristics

$$$$

     RDKit          3D

 19 17  0  0  0  0  0  0  0  0999 V2000
   -1.2271   -1.7505    0.8874 N   0  0  0  0  0  0  0  0  0  0  0  0
   -1.2271   -2.9533    0.3427 N   0  0  0  0  0  0  0  0  0  0  0  0
   -1.2271   -2.9533   -0.8618 O   0  0  0  0  0  0  0  0  0  0  0  0
   -1.2271   -0.7679    0.1722 H   0  0  0  0  0  0  0  0  0  0  0  0
   -1.2271   -1.7042    1.8895 H   0  0  0  0  0  0  0  0  0  0  0  0
   -1.2271    0.2902   -0.5979 C   0  0  0  0  0  3  0  0  0  0  0  0
   -0.5194    1.4396    0.0815 C   0  0  0  0  0  0  0  0  0  0  0  0
    0.8513    1.3750   -0.2215 O   0  0  0  0  0  0  0  0  0  0  0  0
    1.5984    2.4087    0.3688 C   0  0  0  0  0  0  0  0  0  0  0  0
    3.0504    2.2476   -0.0178 C   0  0  0  0  0  0  0  0  0  0  0  0
   -1.0953    0.3458   -1.6790 H   0  0  0  0  0  0  0  0  0  0  0  0
   -2.2951    0.3198   -0.3764 H   0  0  0  0  0  0  0  0  0  0  0  0
   -0.6655    1.3909    1.1708 H   0  0  0  0  0  0  0  0  0  0  0  0
   -0.9338    2.4006   -0.2577 H   0  0  0  0  0  0  0  0  0  0  0  0
    1.2176    3.3850    0.0341 H   0  0  0  0  0  0  0  0  0  0  0  0
    1.4859    2.3754    1.4626 H   0  0  0  0  0  0  0  0  0  0  0  0
    3.1649    2.2952   -1.1012 H   0  0  0  0  0  0  0  0  0  0  0  0
    3.6510    3.0408    0.4301 H   0  0  0  0  0  0  0  0  0  0  0  0
    3.4330    1.2861    0.3265 H   0  0  0  0  0  0  0  0  0  0  0  0
  1  2  1  0
  1  4  1  0
  1  5  1  0
  2  3  2  0
  6  7  1  0
  6 11  1  0
  6 12  1  0
  7  8  1  0
  7 13  1  0
  7 14  1  0
  8  9  1  0
  9 10  1  0
  9 15  1  0
  9 16  1  0
 10 17  1  0
 10 18  1  0
 10 19  1  0
M  RAD  1   6   2
M  END
>  <reaction>  (22) 
rmg_rxn_1540

>  <mol_properties>  (22) 
{"0": {"label": "*1", "atom_type": "N3s"}, "1": {"label": "*0", "atom_type": "N3d"}, "3": {"label": "*2", "atom_type": "H0"}, "5": {"label": "*3", "atom_type": "Cs"}, "6": {"label": "*4", "atom_type": "Cs"}}

>  <type>  (22) 
unop_18

>  <geom_source>  (22) 
Heuristics

$$$$

     RDKit          3D

 19 17  0  0  0  0  0  0  0  0999 V2000
    0.6098   -0.2726    2.3892 N   0  0  0  0  0  0  0  0  0  0  0  0
    0.6098   -1.4754    1.8445 N   0  0  0  0  0  0  0  0  0  0  0  0
    0.6098   -1.4754    0.6400 O   0  0  0  0  0  0  0  0  0  0  0  0
    0.6098    0.7101    1.6740 H   0  0  0  0  0  0  0  0  0  0  0  0
    0.6098   -0.2262    3.3913 H   0  0  0  0  0  0  0  0  0  0  0  0
    0.6098    1.7681    0.9039 C   0  0  0  0  0  3  0  0  0  0  0  0
    0.6098    1.3633   -0.5520 C   0  0  0  0  0  0  0  0  0  0  0  0
   -0.5410    0.6003   -0.8137 O   0  0  0  0  0  0  0  0  0  0  0  0
   -0.6313    0.1746   -2.1500 C   0  0  0  0  0  0  0  0  0  0  0  0
   -1.8968   -0.6328   -2.3237 C   0  0  0  0  0  0  0  0  0  0  0  0
   -0.2751    2.3619    1.1354 H   0  0  0  0  0  0  0  0  0  0  0  0
    1.4960    2.3628    1.1309 H   0  0  0  0  0  0  0  0  0  0  0  0
    1.5103    0.7770   -0.7879 H   0  0  0  0  0  0  0  0  0  0  0  0
    0.6248    2.2533   -1.1984 H   0  0  0  0  0  0  0  0  0  0  0  0
   -0.6359    1.0458   -2.8218 H   0  0  0  0  0  0  0  0  0  0  0  0
    0.2496   -0.4306   -2.4112 H   0  0  0  0  0  0  0  0  0  0  0  0
   -2.7716   -0.0292   -2.0791 H   0  0  0  0  0  0  0  0  0  0  0  0
   -1.9884   -0.9747   -3.3558 H   0  0  0  0  0  0  0  0  0  0  0  0
   -1.8867   -1.5047   -1.6688 H   0  0  0  0  0  0  0  0  0  0  0  0
  1  2  1  0
  1  4  1  0
  1  5  1  0
  2  3  2  0
  6  7  1  0
  6 11  1  0
  6 12  1  0
  7  8  1  0
  7 13  1  0
  7 14  1  0
  8  9  1  0
  9 10  1  0
  9 15  1  0
  9 16  1  0
 10 17  1  0
 10 18  1  0
 10 19  1  0
M  RAD  1   6   2
M  END
>  <reaction>  (23) 
rmg_rxn_1540

>  <mol_properties>  (23) 
{"0": {"label": "*1", "atom_type": "N3s"}, "1": {"label": "*0", "atom_type": "N3d"}, "3": {"label": "*2", "atom_type": "H0"}, "5": {"label": "*3", "atom_type": "Cs"}, "6": {"label": "*4", "atom_type": "Cs"}}

>  <type>  (23) 
unop_19

>  <geom_source>  (23) 
Heuristics

$$$$

     RDKit          3D

 19 17  0  0  0  0  0  0  0  0999 V2000
    1.1188   -0.3573    1.9982 N   0  0  0  0  0  0  0  0  0  0  0  0
    1.1188   -1.5601    1.4535 N   0  0  0  0  0  0  0  0  0  0  0  0
    1.1188   -1.5601    0.2490 O   0  0  0  0  0  0  0  0  0  0  0  0
    1.1188    0.6253    1.2830 H   0  0  0  0  0  0  0  0  0  0  0  0
    1.1188   -0.3110    3.0003 H   0  0  0  0  0  0  0  0  0  0  0  0
    1.1188    1.6833    0.5129 C   0  0  0  0  0  3  0  0  0  0  0  0
    0.4112    1.3901   -0.7897 C   0  0  0  0  0  0  0  0  0  0  0  0
   -0.7443    0.6363   -0.5219 O   0  0  0  0  0  0  0  0  0  0  0  0
   -1.4745    0.3122   -1.6781 C   0  0  0  0  0  0  0  0  0  0  0  0
   -2.6897   -0.4937   -1.2815 C   0  0  0  0  0  0  0  0  0  0  0  0
    0.4688    2.2479    1.1822 H   0  0  0  0  0  0  0  0  0  0  0  0
    2.0210    2.2689    0.3294 H   0  0  0  0  0  0  0  0  0  0  0  0
    1.0729    0.8335   -1.4698 H   0  0  0  0  0  0  0  0  0  0  0  0
    0.1385    2.3267   -1.2983 H   0  0  0  0  0  0  0  0  0  0  0  0
   -1.7770    1.2317   -2.2008 H   0  0  0  0  0  0  0  0  0  0  0  0
   -0.8426   -0.2615   -2.3723 H   0  0  0  0  0  0  0  0  0  0  0  0
   -3.3243    0.0797   -0.6049 H   0  0  0  0  0  0  0  0  0  0  0  0
   -3.2733   -0.7574   -2.1650 H   0  0  0  0  0  0  0  0  0  0  0  0
   -2.3905   -1.4127   -0.7763 H   0  0  0  0  0  0  0  0  0  0  0  0
  1  2  1  0
  1  4  1  0
  1  5  1  0
  2  3  2  0
  6  7  1  0
  6 11  1  0
  6 12  1  0
  7  8  1  0
  7 13  1  0
  7 14  1  0
  8  9  1  0
  9 10  1  0
  9 15  1  0
  9 16  1  0
 10 17  1  0
 10 18  1  0
 10 19  1  0
M  RAD  1   6   2
M  END
>  <reaction>  (24) 
rmg_rxn_1540

>  <mol_properties>  (24) 
{"0": {"label": "*1", "atom_type": "N3s"}, "1": {"label": "*0", "atom_type": "N3d"}, "3": {"label": "*2", "atom_type": "H0"}, "5": {"label": "*3", "atom_type": "Cs"}, "6": {"label": "*4", "atom_type": "Cs"}}

>  <type>  (24) 
unop_20

>  <geom_source>  (24) 
gaussian_log

$$$$
