
     RDKit          3D

  3  2  0  0  0  0  0  0  0  0999 V2000
   -0.0007    0.6157    0.0000 S   0  0  0  0  0  0  0  0  0  0  0  0
   -0.9686   -0.3090    0.0000 H   0  0  0  0  0  0  0  0  0  0  0  0
    0.9693   -0.3067    0.0000 H   0  0  0  0  0  0  0  0  0  0  0  0
  1  2  1  0
  1  3  1  0
M  END
>  <reaction>  (1) 
rmg_rxn_15605

>  <mol_properties>  (1) 
{"0": {"label": "donator", "atom_type": "S2s"}, "1": {"label": "d_hydrogen", "atom_type": "H0"}}

>  <type>  (1) 
r1h

$$$$

     RDKit          3D

  8  7  0  0  0  0  0  0  0  0999 V2000
    1.7077   -0.1964   -0.0607 C   0  0  0  0  0  3  0  0  0  0  0  0
    0.4209   -0.4565    0.2808 O   0  0  0  0  0  0  0  0  0  0  0  0
   -0.4607    0.4385   -0.2968 N   0  0  0  0  0  0  0  0  0  0  0  0
   -1.6584    0.1416   -0.0244 C   0  0  0  0  0  0  0  0  0  0  0  0
    2.4163   -0.7685    0.5170 H   0  0  0  0  0  0  0  0  0  0  0  0
    1.9214    0.7645   -0.5045 H   0  0  0  0  0  0  0  0  0  0  0  0
   -2.4185    0.7953   -0.4307 H   0  0  0  0  0  0  0  0  0  0  0  0
   -1.9286   -0.7185    0.5831 H   0  0  0  0  0  0  0  0  0  0  0  0
  1  2  1  0
  1  5  1  0
  1  6  1  0
  2  3  1  0
  3  4  2  3
  4  7  1  0
  4  8  1  0
M  RAD  1   1   2
M  END
>  <reaction>  (2) 
rmg_rxn_15605

>  <mol_properties>  (2) 
{"0": {"label": "acceptor", "atom_type": "Cs"}}

>  <type>  (2) 
r2

$$$$

     RDKit          3D

  9  8  0  0  0  0  0  0  0  0999 V2000
   -1.5470   -0.0755   -0.1976 C   0  0  0  0  0  0  0  0  0  0  0  0
   -0.2885    0.4507    0.1749 O   0  0  0  0  0  0  0  0  0  0  0  0
   -0.1502    1.7216   -0.3294 N   0  0  0  0  0  0  0  0  0  0  0  0
    0.9626    2.2353   -0.0219 C   0  0  0  0  0  0  0  0  0  0  0  0
   -1.6392   -0.1356   -1.2844 H   0  0  0  0  0  0  0  0  0  0  0  0
   -2.3597    0.5337    0.2044 H   0  0  0  0  0  0  0  0  0  0  0  0
   -1.5879   -1.0750    0.2318 H   0  0  0  0  0  0  0  0  0  0  0  0
    1.1497    3.2381   -0.3820 H   0  0  0  0  0  0  0  0  0  0  0  0
    1.7060    1.7101    0.5739 H   0  0  0  0  0  0  0  0  0  0  0  0
  1  2  1  0
  1  5  1  0
  1  6  1  0
  1  7  1  0
  2  3  1  0
  3  4  2  3
  4  8  1  0
  4  9  1  0
M  END
>  <reaction>  (3) 
rmg_rxn_15605

>  <mol_properties>  (3) 
{"0": {"label": "a_hydrogen", "atom_type": "H0"}, "1": {"label": "acceptor", "atom_type": "Cs"}}

>  <type>  (3) 
r2h

$$$$

     RDKit          3D

 11  9  0  0  0  0  0  0  0  0999 V2000
    0.3793   -2.2190   -0.2090 S   0  0  0  0  0  0  0  0  0  0  0  0
    0.7863   -0.8374    0.1902 H   0  0  0  0  0  0  0  0  0  0  0  0
   -0.8931   -1.9484    0.1106 H   0  0  0  0  0  0  0  0  0  0  0  0
    1.0430    0.5811    0.5956 C   0  0  0  0  0  3  0  0  0  0  0  0
    0.4845    1.3909   -0.3407 O   0  0  0  0  0  0  0  0  0  0  0  0
   -0.8831    1.5270   -0.1331 N   0  0  0  0  0  0  0  0  0  0  0  0
   -1.4230    2.1602   -1.0824 C   0  0  0  0  0  0  0  0  0  0  0  0
    2.1250    0.6365    0.5483 H   0  0  0  0  0  0  0  0  0  0  0  0
    0.5681    0.6033    1.5723 H   0  0  0  0  0  0  0  0  0  0  0  0
   -2.4890    2.3266   -1.0015 H   0  0  0  0  0  0  0  0  0  0  0  0
   -0.8643    2.5241   -1.9408 H   0  0  0  0  0  0  0  0  0  0  0  0
  1  2  1  0
  1  3  1  0
  4  5  1  0
  4  8  1  0
  4  9  1  0
  5  6  1  0
  6  7  2  3
  7 10  1  0
  7 11  1  0
M  RAD  1   4   2
M  END
>  <reaction>  (4) 
rmg_rxn_15605

>  <mol_properties>  (4) 
{"0": {"label": "*1", "atom_type": "S2s"}, "1": {"label": "*2", "atom_type": "H0"}, "2": {"label": "*0", "atom_type": "H0"}, "3": {"label": "*3", "atom_type": "Cs"}, "4": {"label": "*4", "atom_type": "O2s"}}

>  <type>  (4) 
ts

$$$$

     RDKit          3D

 11  9  0  0  0  0  0  0  0  0999 V2000
   -2.3341    0.1036   -0.0024 S   0  0  0  0  0  1  0  0  0  0  0  0
    1.4825    2.3700    0.0017 H   0  0  0  0  0  0  0  0  0  0  0  0
   -2.9736   -1.0558    0.0851 H   0  0  0  0  0  0  0  0  0  0  0  0
    0.9789    1.4072   -0.0002 C   0  0  0  0  0  0  0  0  0  0  0  0
    2.0290    0.4496    0.0032 O   0  0  0  0  0  0  0  0  0  0  0  0
    1.7280   -0.8475    0.0005 N   0  0  0  0  0  0  0  0  0  0  0  0
    0.5859   -1.3527   -0.0042 C   0  0  0  0  0  0  0  0  0  0  0  0
    0.3584    1.3103   -0.8945 H   0  0  0  0  0  0  0  0  0  0  0  0
    0.3522    1.3100    0.8899 H   0  0  0  0  0  0  0  0  0  0  0  0
   -0.3786   -0.8099   -0.0069 H   0  0  0  0  0  0  0  0  0  0  0  0
    0.5340   -2.4281   -0.0059 H   0  0  0  0  0  0  0  0  0  0  0  0
  1  3  1  0
  2  4  1  0
  4  5  1  0
  4  8  1  0
  4  9  1  0
  5  6  1  0
  6  7  2  3
  7 10  1  0
  7 11  1  0
M  RAD  1   1   2
M  END
>  <reaction>  (5) 
rmg_rxn_15605

>  <mol_properties>  (5) 
{"0": {"label": "*1", "atom_type": "S2s"}, "1": {"label": "*2", "atom_type": "H0"}, "2": {"label": "*0", "atom_type": "H0"}, "3": {"label": "*3", "atom_type": "Cs"}, "4": {"label": "*4", "atom_type": "O2s"}}

>  <type>  (5) 
unop_1

>  <geom_source>  (5) 
crest_best.xyz

$$$$

     RDKit          3D

 11  9  0  0  0  0  0  0  0  0999 V2000
    0.6410   -2.4097   -0.7639 S   0  0  0  0  0  1  0  0  0  0  0  0
    0.6410   -0.8052   -0.6868 H   0  0  0  0  0  0  0  0  0  0  0  0
    0.6410   -2.4097   -2.1025 H   0  0  0  0  0  0  0  0  0  0  0  0
    0.6410    0.4996   -0.6241 C   0  0  0  0  0  0  0  0  0  0  0  0
   -0.5378    0.8499    0.0741 O   0  0  0  0  0  0  0  0  0  0  0  0
   -0.2880    1.9232    0.8953 N   0  0  0  0  0  0  0  0  0  0  0  0
   -1.3150    2.2743    1.5423 C   0  0  0  0  0  0  0  0  0  0  0  0
    0.9846    1.3263   -1.2500 H   0  0  0  0  0  0  0  0  0  0  0  0
    1.4348    0.2122    0.0690 H   0  0  0  0  0  0  0  0  0  0  0  0
   -1.2013    3.1150    2.2136 H   0  0  0  0  0  0  0  0  0  0  0  0
   -2.2727    1.7680    1.4417 H   0  0  0  0  0  0  0  0  0  0  0  0
  1  3  1  0
  2  4  1  0
  4  5  1  0
  4  8  1  0
  4  9  1  0
  5  6  1  0
  6  7  2  3
  7 10  1  0
  7 11  1  0
M  RAD  1   1   2
M  END
>  <reaction>  (6) 
rmg_rxn_15605

>  <mol_properties>  (6) 
{"0": {"label": "*1", "atom_type": "S2s"}, "1": {"label": "*2", "atom_type": "H0"}, "2": {"label": "*0", "atom_type": "H0"}, "3": {"label": "*3", "atom_type": "Cs"}, "4": {"label": "*4", "atom_type": "O2s"}}

>  <type>  (6) 
unop_2

>  <geom_source>  (6) 
Heuristics

$$$$

     RDKit          3D

 11  9  0  0  0  0  0  0  0  0999 V2000
   -2.3279   -0.0967    0.0021 S   0  0  0  0  0  1  0  0  0  0  0  0
    0.3383   -1.3810    0.8784 H   0  0  0  0  0  0  0  0  0  0  0  0
   -2.9760    1.0611    0.0213 H   0  0  0  0  0  0  0  0  0  0  0  0
    0.9597   -1.3942   -0.0245 C   0  0  0  0  0  0  0  0  0  0  0  0
    2.0200   -0.4637    0.0063 O   0  0  0  0  0  0  0  0  0  0  0  0
    1.7363    0.8399    0.0072 N   0  0  0  0  0  0  0  0  0  0  0  0
    0.5989    1.3555   -0.0063 C   0  0  0  0  0  0  0  0  0  0  0  0
    1.3649   -2.3668    0.1537 H   0  0  0  0  0  0  0  0  0  0  0  0
    0.3635   -1.3364   -0.9317 H   0  0  0  0  0  0  0  0  0  0  0  0
    0.5562    2.4312   -0.0055 H   0  0  0  0  0  0  0  0  0  0  0  0
   -0.3680    0.8180   -0.0165 H   0  0  0  0  0  0  0  0  0  0  0  0
  1  3  1  0
  2  4  1  0
  4  5  1  0
  4  8  1  0
  4  9  1  0
  5  6  1  0
  6  7  2  3
  7 10  1  0
  7 11  1  0
M  RAD  1   1   2
M  END
>  <reaction>  (7) 
rmg_rxn_15605

>  <mol_properties>  (7) 
{"0": {"label": "*1", "atom_type": "S2s"}, "1": {"label": "*2", "atom_type": "H0"}, "2": {"label": "*0", "atom_type": "H0"}, "3": {"label": "*3", "atom_type": "Cs"}, "4": {"label": "*4", "atom_type": "O2s"}}

>  <type>  (7) 
unop_3

>  <geom_source>  (7) 
Heuristics

$$$$

     RDKit          3D

 11  9  0  0  0  0  0  0  0  0999 V2000
    2.3290   -0.0980   -0.0012 S   0  0  0  0  0  1  0  0  0  0  0  0
   -0.3504   -1.3800   -0.8900 H   0  0  0  0  0  0  0  0  0  0  0  0
    2.9700    1.0639   -0.0058 H   0  0  0  0  0  0  0  0  0  0  0  0
   -0.9640   -1.3948    0.0191 C   0  0  0  0  0  0  0  0  0  0  0  0
   -2.0220   -0.4610   -0.0012 O   0  0  0  0  0  0  0  0  0  0  0  0
   -1.7345    0.8417   -0.0041 N   0  0  0  0  0  0  0  0  0  0  0  0
   -0.5958    1.3542    0.0006 C   0  0  0  0  0  0  0  0  0  0  0  0
   -0.3581   -1.3367    0.9201 H   0  0  0  0  0  0  0  0  0  0  0  0
   -1.3768   -2.3667   -0.1487 H   0  0  0  0  0  0  0  0  0  0  0  0
    0.3700    0.8142    0.0034 H   0  0  0  0  0  0  0  0  0  0  0  0
   -0.5501    2.4298   -0.0011 H   0  0  0  0  0  0  0  0  0  0  0  0
  1  3  1  0
  2  4  1  0
  4  5  1  0
  4  8  1  0
  4  9  1  0
  5  6  1  0
  6  7  2  3
  7 10  1  0
  7 11  1  0
M  RAD  1   1   2
M  END
>  <reaction>  (8) 
rmg_rxn_15605

>  <mol_properties>  (8) 
{"0": {"label": "*1", "atom_type": "S2s"}, "1": {"label": "*2", "atom_type": "H0"}, "2": {"label": "*0", "atom_type": "H0"}, "3": {"label": "*3", "atom_type": "Cs"}, "4": {"label": "*4", "atom_type": "O2s"}}

>  <type>  (8) 
unop_4

>  <geom_source>  (8) 
Heuristics

$$$$

     RDKit          3D

 11  9  0  0  0  0  0  0  0  0999 V2000
    2.3366   -0.1050    0.0024 S   0  0  0  0  0  1  0  0  0  0  0  0
   -0.3349   -1.3057   -0.9036 H   0  0  0  0  0  0  0  0  0  0  0  0
    2.9760    1.0559   -0.0621 H   0  0  0  0  0  0  0  0  0  0  0  0
   -0.9885   -1.4067    0.0006 C   0  0  0  0  0  0  0  0  0  0  0  0
   -2.0314   -0.4477   -0.0007 O   0  0  0  0  0  0  0  0  0  0  0  0
   -1.7272    0.8490    0.0004 N   0  0  0  0  0  0  0  0  0  0  0  0
   -0.5838    1.3514    0.0012 C   0  0  0  0  0  0  0  0  0  0  0  0
   -0.3429   -1.3068    0.8714 H   0  0  0  0  0  0  0  0  0  0  0  0
   -1.4864   -2.3708   -0.0033 H   0  0  0  0  0  0  0  0  0  0  0  0
   -0.5301    2.4267    0.0018 H   0  0  0  0  0  0  0  0  0  0  0  0
    0.3800    0.8075    0.0019 H   0  0  0  0  0  0  0  0  0  0  0  0
  1  3  1  0
  2  4  1  0
  4  5  1  0
  4  8  1  0
  4  9  1  0
  5  6  1  0
  6  7  2  3
  7 10  1  0
  7 11  1  0
M  RAD  1   1   2
M  END
>  <reaction>  (9) 
rmg_rxn_15605

>  <mol_properties>  (9) 
{"0": {"label": "*1", "atom_type": "S2s"}, "1": {"label": "*2", "atom_type": "H0"}, "2": {"label": "*0", "atom_type": "H0"}, "3": {"label": "*3", "atom_type": "Cs"}, "4": {"label": "*4", "atom_type": "O2s"}}

>  <type>  (9) 
unop_5

>  <geom_source>  (9) 
Heuristics

$$$$

     RDKit          3D

 11  9  0  0  0  0  0  0  0  0999 V2000
    2.3362   -0.1058    0.0013 S   0  0  0  0  0  1  0  0  0  0  0  0
   -0.3180   -1.3020   -0.8751 H   0  0  0  0  0  0  0  0  0  0  0  0
    2.9799    1.0543   -0.0073 H   0  0  0  0  0  0  0  0  0  0  0  0
   -0.9945   -1.4079   -0.0011 C   0  0  0  0  0  0  0  0  0  0  0  0
   -2.0319   -0.4463    0.0027 O   0  0  0  0  0  0  0  0  0  0  0  0
   -1.7254    0.8493    0.0015 N   0  0  0  0  0  0  0  0  0  0  0  0
   -0.5822    1.3520   -0.0029 C   0  0  0  0  0  0  0  0  0  0  0  0
   -0.3180   -1.3042    0.8370 H   0  0  0  0  0  0  0  0  0  0  0  0
   -1.4871   -2.3731   -0.0032 H   0  0  0  0  0  0  0  0  0  0  0  0
    0.3828    0.8101   -0.0052 H   0  0  0  0  0  0  0  0  0  0  0  0
   -0.5291    2.4274   -0.0038 H   0  0  0  0  0  0  0  0  0  0  0  0
  1  3  1  0
  2  4  1  0
  4  5  1  0
  4  8  1  0
  4  9  1  0
  5  6  1  0
  6  7  2  3
  7 10  1  0
  7 11  1  0
M  RAD  1   1   2
M  END
>  <reaction>  (10) 
rmg_rxn_15605

>  <mol_properties>  (10) 
{"0": {"label": "*1", "atom_type": "S2s"}, "1": {"label": "*2", "atom_type": "H0"}, "2": {"label": "*0", "atom_type": "H0"}, "3": {"label": "*3", "atom_type": "Cs"}, "4": {"label": "*4", "atom_type": "O2s"}}

>  <type>  (10) 
unop_6

>  <geom_source>  (10) 
Heuristics

$$$$

     RDKit          3D

 11  9  0  0  0  0  0  0  0  0999 V2000
    0.5481   -2.5367    0.5801 S   0  0  0  0  0  1  0  0  0  0  0  0
    0.5481   -0.9322    0.6571 H   0  0  0  0  0  0  0  0  0  0  0  0
    0.5481   -2.5367   -0.7586 H   0  0  0  0  0  0  0  0  0  0  0  0
    0.5481    0.3726    0.7198 C   0  0  0  0  0  0  0  0  0  0  0  0
   -0.1324    0.8121   -0.4392 O   0  0  0  0  0  0  0  0  0  0  0  0
   -0.5450    2.1120   -0.2691 N   0  0  0  0  0  0  0  0  0  0  0  0
   -1.1603    2.5506   -1.2819 C   0  0  0  0  0  0  0  0  0  0  0  0
    1.4346    0.9826    0.9073 H   0  0  0  0  0  0  0  0  0  0  0  0
   -0.1074    0.4034    1.5931 H   0  0  0  0  0  0  0  0  0  0  0  0
   -1.5189    3.5698   -1.2276 H   0  0  0  0  0  0  0  0  0  0  0  0
   -1.3295    1.9477   -2.1715 H   0  0  0  0  0  0  0  0  0  0  0  0
  1  3  1  0
  2  4  1  0
  4  5  1  0
  4  8  1  0
  4  9  1  0
  5  6  1  0
  6  7  2  3
  7 10  1  0
  7 11  1  0
M  RAD  1   1   2
M  END
>  <reaction>  (11) 
rmg_rxn_15605

>  <mol_properties>  (11) 
{"0": {"label": "*1", "atom_type": "S2s"}, "1": {"label": "*2", "atom_type": "H0"}, "2": {"label": "*0", "atom_type": "H0"}, "3": {"label": "*3", "atom_type": "Cs"}, "4": {"label": "*4", "atom_type": "O2s"}}

>  <type>  (11) 
unop_7

>  <geom_source>  (11) 
Heuristics

$$$$

     RDKit          3D

 11  9  0  0  0  0  0  0  0  0999 V2000
    2.3350   -0.1048    0.0005 S   0  0  0  0  0  1  0  0  0  0  0  0
   -0.3129   -1.3005   -0.8727 H   0  0  0  0  0  0  0  0  0  0  0  0
    2.9836    1.0525    0.0070 H   0  0  0  0  0  0  0  0  0  0  0  0
   -0.9906   -1.4076    0.0003 C   0  0  0  0  0  0  0  0  0  0  0  0
   -2.0303   -0.4484    0.0019 O   0  0  0  0  0  0  0  0  0  0  0  0
   -1.7267    0.8479    0.0008 N   0  0  0  0  0  0  0  0  0  0  0  0
   -0.5845    1.3532   -0.0021 C   0  0  0  0  0  0  0  0  0  0  0  0
   -1.4809   -2.3740   -0.0023 H   0  0  0  0  0  0  0  0  0  0  0  0
   -0.3157   -1.3019    0.8394 H   0  0  0  0  0  0  0  0  0  0  0  0
   -0.5342    2.4287   -0.0033 H   0  0  0  0  0  0  0  0  0  0  0  0
    0.3816    0.8136   -0.0033 H   0  0  0  0  0  0  0  0  0  0  0  0
  1  3  1  0
  2  4  1  0
  4  5  1  0
  4  8  1  0
  4  9  1  0
  5  6  1  0
  6  7  2  3
  7 10  1  0
  7 11  1  0
M  RAD  1   1   2
M  END
>  <reaction>  (12) 
rmg_rxn_15605

>  <mol_properties>  (12) 
{"0": {"label": "*1", "atom_type": "S2s"}, "1": {"label": "*2", "atom_type": "H0"}, "2": {"label": "*0", "atom_type": "H0"}, "3": {"label": "*3", "atom_type": "Cs"}, "4": {"label": "*4", "atom_type": "O2s"}}

>  <type>  (12) 
unop_8

>  <geom_source>  (12) 
Heuristics

$$$$

     RDKit          3D

 11  9  0  0  0  0  0  0  0  0999 V2000
    0.2797   -2.4433   -0.9516 S   0  0  0  0  0  1  0  0  0  0  0  0
    0.2797   -0.8388   -0.8745 H   0  0  0  0  0  0  0  0  0  0  0  0
    0.2797   -2.4433   -2.2902 H   0  0  0  0  0  0  0  0  0  0  0  0
    0.2797    0.4661   -0.8118 C   0  0  0  0  0  0  0  0  0  0  0  0
   -0.4009    0.7924    0.3840 O   0  0  0  0  0  0  0  0  0  0  0  0
    0.0260    2.0164    0.8405 N   0  0  0  0  0  0  0  0  0  0  0  0
   -0.5556    2.3525    1.9108 C   0  0  0  0  0  0  0  0  0  0  0  0
    0.0751    1.2033   -1.5915 H   0  0  0  0  0  0  0  0  0  0  0  0
    1.3571    0.4025   -0.6433 H   0  0  0  0  0  0  0  0  0  0  0  0
   -0.2745    3.3065    2.3364 H   0  0  0  0  0  0  0  0  0  0  0  0
   -1.3033    1.7265    2.3931 H   0  0  0  0  0  0  0  0  0  0  0  0
  1  3  1  0
  2  4  1  0
  4  5  1  0
  4  8  1  0
  4  9  1  0
  5  6  1  0
  6  7  2  3
  7 10  1  0
  7 11  1  0
M  RAD  1   1   2
M  END
>  <reaction>  (13) 
rmg_rxn_15605

>  <mol_properties>  (13) 
{"0": {"label": "*1", "atom_type": "S2s"}, "1": {"label": "*2", "atom_type": "H0"}, "2": {"label": "*0", "atom_type": "H0"}, "3": {"label": "*3", "atom_type": "Cs"}, "4": {"label": "*4", "atom_type": "O2s"}}

>  <type>  (13) 
unop_9

>  <geom_source>  (13) 
Heuristics

$$$$

     RDKit          3D

 11  9  0  0  0  0  0  0  0  0999 V2000
   -0.8710   -2.4764    0.1466 S   0  0  0  0  0  1  0  0  0  0  0  0
   -0.8710   -0.8720    0.2237 H   0  0  0  0  0  0  0  0  0  0  0  0
   -0.8710   -2.4764   -1.1920 H   0  0  0  0  0  0  0  0  0  0  0  0
   -0.8710    0.4329    0.2864 C   0  0  0  0  0  0  0  0  0  0  0  0
    0.3077    0.8485   -0.3750 O   0  0  0  0  0  0  0  0  0  0  0  0
    0.7774    2.0056    0.1989 N   0  0  0  0  0  0  0  0  0  0  0  0
    1.8332    2.4175   -0.3600 C   0  0  0  0  0  0  0  0  0  0  0  0
   -0.6753    0.2270    1.3411 H   0  0  0  0  0  0  0  0  0  0  0  0
   -1.6542    1.1896    0.2014 H   0  0  0  0  0  0  0  0  0  0  0  0
    2.2677    3.3263    0.0344 H   0  0  0  0  0  0  0  0  0  0  0  0
    2.2950    1.8970   -1.1962 H   0  0  0  0  0  0  0  0  0  0  0  0
  1  3  1  0
  2  4  1  0
  4  5  1  0
  4  8  1  0
  4  9  1  0
  5  6  1  0
  6  7  2  3
  7 10  1  0
  7 11  1  0
M  RAD  1   1   2
M  END
>  <reaction>  (14) 
rmg_rxn_15605

>  <mol_properties>  (14) 
{"0": {"label": "*1", "atom_type": "S2s"}, "1": {"label": "*2", "atom_type": "H0"}, "2": {"label": "*0", "atom_type": "H0"}, "3": {"label": "*3", "atom_type": "Cs"}, "4": {"label": "*4", "atom_type": "O2s"}}

>  <type>  (14) 
unop_10

>  <geom_source>  (14) 
Heuristics

$$$$

     RDKit          3D

 11  9  0  0  0  0  0  0  0  0999 V2000
    2.3297    0.0985    0.0024 S   0  0  0  0  0  1  0  0  0  0  0  0
   -0.3543    1.3841    0.8893 H   0  0  0  0  0  0  0  0  0  0  0  0
    2.9674   -1.0648   -0.0317 H   0  0  0  0  0  0  0  0  0  0  0  0
   -0.9662    1.3947   -0.0200 C   0  0  0  0  0  0  0  0  0  0  0  0
   -2.0230    0.4598    0.0002 O   0  0  0  0  0  0  0  0  0  0  0  0
   -1.7338   -0.8425    0.0043 N   0  0  0  0  0  0  0  0  0  0  0  0
   -0.5944   -1.3535    0.0008 C   0  0  0  0  0  0  0  0  0  0  0  0
   -0.3605    1.3394   -0.9210 H   0  0  0  0  0  0  0  0  0  0  0  0
   -1.3774    2.3656    0.1538 H   0  0  0  0  0  0  0  0  0  0  0  0
    0.3706   -0.8120   -0.0017 H   0  0  0  0  0  0  0  0  0  0  0  0
   -0.5471   -2.4290    0.0033 H   0  0  0  0  0  0  0  0  0  0  0  0
  1  3  1  0
  2  4  1  0
  4  5  1  0
  4  8  1  0
  4  9  1  0
  5  6  1  0
  6  7  2  3
  7 10  1  0
  7 11  1  0
M  RAD  1   1   2
M  END
>  <reaction>  (15) 
rmg_rxn_15605

>  <mol_properties>  (15) 
{"0": {"label": "*1", "atom_type": "S2s"}, "1": {"label": "*2", "atom_type": "H0"}, "2": {"label": "*0", "atom_type": "H0"}, "3": {"label": "*3", "atom_type": "Cs"}, "4": {"label": "*4", "atom_type": "O2s"}}

>  <type>  (15) 
unop_11

>  <geom_source>  (15) 
Heuristics

$$$$

     RDKit          3D

 11  9  0  0  0  0  0  0  0  0999 V2000
    0.0000   -2.4830   -0.9684 S   0  0  0  0  0  1  0  0  0  0  0  0
    0.0000   -0.8785   -0.8913 H   0  0  0  0  0  0  0  0  0  0  0  0
    0.0000   -2.4830   -2.3070 H   0  0  0  0  0  0  0  0  0  0  0  0
    0.0000    0.4264   -0.8286 C   0  0  0  0  0  0  0  0  0  0  0  0
    0.0000    0.7440    0.5493 O   0  0  0  0  0  0  0  0  0  0  0  0
   -0.0000    2.1089    0.7100 N   0  0  0  0  0  0  0  0  0  0  0  0
   -0.0000    2.4429    1.9287 C   0  0  0  0  0  0  0  0  0  0  0  0
   -0.8921    0.8206   -1.3204 H   0  0  0  0  0  0  0  0  0  0  0  0
    0.8921    0.8206   -1.3204 H   0  0  0  0  0  0  0  0  0  0  0  0
   -0.0000    3.5037    2.1406 H   0  0  0  0  0  0  0  0  0  0  0  0
    0.0000    1.7139    2.7362 H   0  0  0  0  0  0  0  0  0  0  0  0
  1  3  1  0
  2  4  1  0
  4  5  1  0
  4  8  1  0
  4  9  1  0
  5  6  1  0
  6  7  2  3
  7 10  1  0
  7 11  1  0
M  RAD  1   1   2
M  END
>  <reaction>  (16) 
rmg_rxn_15605

>  <mol_properties>  (16) 
{"0": {"label": "*1", "atom_type": "S2s"}, "1": {"label": "*2", "atom_type": "H0"}, "2": {"label": "*0", "atom_type": "H0"}, "3": {"label": "*3", "atom_type": "Cs"}, "4": {"label": "*4", "atom_type": "O2s"}}

>  <type>  (16) 
unop_12

>  <geom_source>  (16) 
Heuristics

$$$$

     RDKit          3D

 11  9  0  0  0  0  0  0  0  0999 V2000
   -2.3370    0.1067    0.0010 S   0  0  0  0  0  1  0  0  0  0  0  0
    0.3010    1.3020    0.8443 H   0  0  0  0  0  0  0  0  0  0  0  0
   -2.9804   -1.0525   -0.0448 H   0  0  0  0  0  0  0  0  0  0  0  0
    1.0011    1.4092   -0.0018 C   0  0  0  0  0  0  0  0  0  0  0  0
    2.0332    0.4444   -0.0016 O   0  0  0  0  0  0  0  0  0  0  0  0
    1.7240   -0.8500   -0.0001 N   0  0  0  0  0  0  0  0  0  0  0  0
    0.5805   -1.3523    0.0022 C   0  0  0  0  0  0  0  0  0  0  0  0
    0.3044    1.3007   -0.8163 H   0  0  0  0  0  0  0  0  0  0  0  0
    1.4901    2.3749   -0.0007 H   0  0  0  0  0  0  0  0  0  0  0  0
    0.5272   -2.4276    0.0037 H   0  0  0  0  0  0  0  0  0  0  0  0
   -0.3851   -0.8113    0.0028 H   0  0  0  0  0  0  0  0  0  0  0  0
  1  3  1  0
  2  4  1  0
  4  5  1  0
  4  8  1  0
  4  9  1  0
  5  6  1  0
  6  7  2  3
  7 10  1  0
  7 11  1  0
M  RAD  1   1   2
M  END
>  <reaction>  (17) 
rmg_rxn_15605

>  <mol_properties>  (17) 
{"0": {"label": "*1", "atom_type": "S2s"}, "1": {"label": "*2", "atom_type": "H0"}, "2": {"label": "*0", "atom_type": "H0"}, "3": {"label": "*3", "atom_type": "Cs"}, "4": {"label": "*4", "atom_type": "O2s"}}

>  <type>  (17) 
unop_13

>  <geom_source>  (17) 
Heuristics

$$$$

     RDKit          3D

 11  9  0  0  0  0  0  0  0  0999 V2000
   -2.3365    0.1061    0.0018 S   0  0  0  0  0  1  0  0  0  0  0  0
    0.3011    1.3014    0.8464 H   0  0  0  0  0  0  0  0  0  0  0  0
   -2.9810   -1.0507   -0.0769 H   0  0  0  0  0  0  0  0  0  0  0  0
    0.9990    1.4091   -0.0014 C   0  0  0  0  0  0  0  0  0  0  0  0
    2.0323    0.4456   -0.0031 O   0  0  0  0  0  0  0  0  0  0  0  0
    1.7247   -0.8492   -0.0007 N   0  0  0  0  0  0  0  0  0  0  0  0
    0.5818   -1.3529    0.0042 C   0  0  0  0  0  0  0  0  0  0  0  0
    1.4868    2.3755   -0.0020 H   0  0  0  0  0  0  0  0  0  0  0  0
    0.3006    1.2993   -0.8143 H   0  0  0  0  0  0  0  0  0  0  0  0
   -0.3845   -0.8132    0.0070 H   0  0  0  0  0  0  0  0  0  0  0  0
    0.5299   -2.4283    0.0065 H   0  0  0  0  0  0  0  0  0  0  0  0
  1  3  1  0
  2  4  1  0
  4  5  1  0
  4  8  1  0
  4  9  1  0
  5  6  1  0
  6  7  2  3
  7 10  1  0
  7 11  1  0
M  RAD  1   1   2
M  END
>  <reaction>  (18) 
rmg_rxn_15605

>  <mol_properties>  (18) 
{"0": {"label": "*1", "atom_type": "S2s"}, "1": {"label": "*2", "atom_type": "H0"}, "2": {"label": "*0", "atom_type": "H0"}, "3": {"label": "*3", "atom_type": "Cs"}, "4": {"label": "*4", "atom_type": "O2s"}}

>  <type>  (18) 
unop_14

>  <geom_source>  (18) 
Heuristics

$$$$

     RDKit          3D

 11  9  0  0  0  0  0  0  0  0999 V2000
   -0.8871   -2.4256   -0.3597 S   0  0  0  0  0  1  0  0  0  0  0  0
   -0.8871   -0.8211   -0.2826 H   0  0  0  0  0  0  0  0  0  0  0  0
   -0.8871   -2.4256   -1.6983 H   0  0  0  0  0  0  0  0  0  0  0  0
   -0.8871    0.4838   -0.2199 C   0  0  0  0  0  0  0  0  0  0  0  0
    0.4740    0.8667   -0.2015 O   0  0  0  0  0  0  0  0  0  0  0  0
    0.6452    1.9271    0.6557 N   0  0  0  0  0  0  0  0  0  0  0  0
    1.8495    2.3064    0.7062 C   0  0  0  0  0  0  0  0  0  0  0  0
   -1.2176    0.1680    0.7722 H   0  0  0  0  0  0  0  0  0  0  0  0
   -1.5187    1.3028   -0.5714 H   0  0  0  0  0  0  0  0  0  0  0  0
    2.0684    3.1395    1.3607 H   0  0  0  0  0  0  0  0  0  0  0  0
    2.6386    1.8308    0.1277 H   0  0  0  0  0  0  0  0  0  0  0  0
  1  3  1  0
  2  4  1  0
  4  5  1  0
  4  8  1  0
  4  9  1  0
  5  6  1  0
  6  7  2  3
  7 10  1  0
  7 11  1  0
M  RAD  1   1   2
M  END
>  <reaction>  (19) 
rmg_rxn_15605

>  <mol_properties>  (19) 
{"0": {"label": "*1", "atom_type": "S2s"}, "1": {"label": "*2", "atom_type": "H0"}, "2": {"label": "*0", "atom_type": "H0"}, "3": {"label": "*3", "atom_type": "Cs"}, "4": {"label": "*4", "atom_type": "O2s"}}

>  <type>  (19) 
unop_15

>  <geom_source>  (19) 
Heuristics

$$$$

     RDKit          3D

 11  9  0  0  0  0  0  0  0  0999 V2000
    2.3360    0.1045   -0.0010 S   0  0  0  0  0  1  0  0  0  0  0  0
   -0.3374    1.3052   -0.9069 H   0  0  0  0  0  0  0  0  0  0  0  0
    2.9767   -1.0559    0.0600 H   0  0  0  0  0  0  0  0  0  0  0  0
   -0.9865    1.4067    0.0006 C   0  0  0  0  0  0  0  0  0  0  0  0
   -2.0305    0.4488    0.0037 O   0  0  0  0  0  0  0  0  0  0  0  0
   -1.7277   -0.8482    0.0011 N   0  0  0  0  0  0  0  0  0  0  0  0
   -0.5851   -1.3522   -0.0046 C   0  0  0  0  0  0  0  0  0  0  0  0
   -1.4833    2.3713   -0.0008 H   0  0  0  0  0  0  0  0  0  0  0  0
   -0.3369    1.3057    0.8683 H   0  0  0  0  0  0  0  0  0  0  0  0
    0.3795   -0.8096   -0.0073 H   0  0  0  0  0  0  0  0  0  0  0  0
   -0.5329   -2.4276   -0.0063 H   0  0  0  0  0  0  0  0  0  0  0  0
  1  3  1  0
  2  4  1  0
  4  5  1  0
  4  8  1  0
  4  9  1  0
  5  6  1  0
  6  7  2  3
  7 10  1  0
  7 11  1  0
M  RAD  1   1   2
M  END
>  <reaction>  (20) 
rmg_rxn_15605

>  <mol_properties>  (20) 
{"0": {"label": "*1", "atom_type": "S2s"}, "1": {"label": "*2", "atom_type": "H0"}, "2": {"label": "*0", "atom_type": "H0"}, "3": {"label": "*3", "atom_type": "Cs"}, "4": {"label": "*4", "atom_type": "O2s"}}

>  <type>  (20) 
unop_16

>  <geom_source>  (20) 
Heuristics

$$$$

     RDKit          3D

 11  9  0  0  0  0  0  0  0  0999 V2000
   -0.6410   -2.4097   -0.7639 S   0  0  0  0  0  1  0  0  0  0  0  0
   -0.6410   -0.8052   -0.6868 H   0  0  0  0  0  0  0  0  0  0  0  0
   -0.6410   -2.4097   -2.1025 H   0  0  0  0  0  0  0  0  0  0  0  0
   -0.6410    0.4996   -0.6241 C   0  0  0  0  0  0  0  0  0  0  0  0
    0.5378    0.8499    0.0741 O   0  0  0  0  0  0  0  0  0  0  0  0
    0.2880    1.9232    0.8953 N   0  0  0  0  0  0  0  0  0  0  0  0
    1.3150    2.2743    1.5424 C   0  0  0  0  0  0  0  0  0  0  0  0
   -1.4348    0.2122    0.0690 H   0  0  0  0  0  0  0  0  0  0  0  0
   -0.9846    1.3263   -1.2500 H   0  0  0  0  0  0  0  0  0  0  0  0
    1.2013    3.1150    2.2136 H   0  0  0  0  0  0  0  0  0  0  0  0
    2.2727    1.7681    1.4417 H   0  0  0  0  0  0  0  0  0  0  0  0
  1  3  1  0
  2  4  1  0
  4  5  1  0
  4  8  1  0
  4  9  1  0
  5  6  1  0
  6  7  2  3
  7 10  1  0
  7 11  1  0
M  RAD  1   1   2
M  END
>  <reaction>  (21) 
rmg_rxn_15605

>  <mol_properties>  (21) 
{"0": {"label": "*1", "atom_type": "S2s"}, "1": {"label": "*2", "atom_type": "H0"}, "2": {"label": "*0", "atom_type": "H0"}, "3": {"label": "*3", "atom_type": "Cs"}, "4": {"label": "*4", "atom_type": "O2s"}}

>  <type>  (21) 
unop_17

>  <geom_source>  (21) 
Heuristics

$$$$

     RDKit          3D

 11  9  0  0  0  0  0  0  0  0999 V2000
   -2.3340   -0.1038    0.0005 S   0  0  0  0  0  1  0  0  0  0  0  0
    1.4826   -2.3699   -0.0002 H   0  0  0  0  0  0  0  0  0  0  0  0
   -2.9755    1.0577   -0.0115 H   0  0  0  0  0  0  0  0  0  0  0  0
    0.9790   -1.4071   -0.0004 C   0  0  0  0  0  0  0  0  0  0  0  0
    2.0290   -0.4495   -0.0000 O   0  0  0  0  0  0  0  0  0  0  0  0
    1.7279    0.8476    0.0002 N   0  0  0  0  0  0  0  0  0  0  0  0
    0.5857    1.3527    0.0001 C   0  0  0  0  0  0  0  0  0  0  0  0
    0.3558   -1.3101   -0.8928 H   0  0  0  0  0  0  0  0  0  0  0  0
    0.3550   -1.3101    0.8916 H   0  0  0  0  0  0  0  0  0  0  0  0
   -0.3789    0.8100   -0.0004 H   0  0  0  0  0  0  0  0  0  0  0  0
    0.5341    2.4281    0.0004 H   0  0  0  0  0  0  0  0  0  0  0  0
  1  3  1  0
  2  4  1  0
  4  5  1  0
  4  8  1  0
  4  9  1  0
  5  6  1  0
  6  7  2  3
  7 10  1  0
  7 11  1  0
M  RAD  1   1   2
M  END
>  <reaction>  (22) 
rmg_rxn_15605

>  <mol_properties>  (22) 
{"0": {"label": "*1", "atom_type": "S2s"}, "1": {"label": "*2", "atom_type": "H0"}, "2": {"label": "*0", "atom_type": "H0"}, "3": {"label": "*3", "atom_type": "Cs"}, "4": {"label": "*4", "atom_type": "O2s"}}

>  <type>  (22) 
unop_18

>  <geom_source>  (22) 
Heuristics

$$$$

     RDKit          3D

 11  9  0  0  0  0  0  0  0  0999 V2000
    0.8871   -2.4256   -0.3597 S   0  0  0  0  0  1  0  0  0  0  0  0
    0.8871   -0.8211   -0.2826 H   0  0  0  0  0  0  0  0  0  0  0  0
    0.8871   -2.4256   -1.6983 H   0  0  0  0  0  0  0  0  0  0  0  0
    0.8871    0.4838   -0.2199 C   0  0  0  0  0  0  0  0  0  0  0  0
   -0.4740    0.8667   -0.2015 O   0  0  0  0  0  0  0  0  0  0  0  0
   -0.6452    1.9272    0.6557 N   0  0  0  0  0  0  0  0  0  0  0  0
   -1.8495    2.3064    0.7062 C   0  0  0  0  0  0  0  0  0  0  0  0
    1.5187    1.3028   -0.5714 H   0  0  0  0  0  0  0  0  0  0  0  0
    1.2176    0.1680    0.7722 H   0  0  0  0  0  0  0  0  0  0  0  0
   -2.0684    3.1395    1.3607 H   0  0  0  0  0  0  0  0  0  0  0  0
   -2.6386    1.8308    0.1277 H   0  0  0  0  0  0  0  0  0  0  0  0
  1  3  1  0
  2  4  1  0
  4  5  1  0
  4  8  1  0
  4  9  1  0
  5  6  1  0
  6  7  2  3
  7 10  1  0
  7 11  1  0
M  RAD  1   1   2
M  END
>  <reaction>  (23) 
rmg_rxn_15605

>  <mol_properties>  (23) 
{"0": {"label": "*1", "atom_type": "S2s"}, "1": {"label": "*2", "atom_type": "H0"}, "2": {"label": "*0", "atom_type": "H0"}, "3": {"label": "*3", "atom_type": "Cs"}, "4": {"label": "*4", "atom_type": "O2s"}}

>  <type>  (23) 
unop_19

>  <geom_source>  (23) 
Heuristics

$$$$

     RDKit          3D

 11  9  0  0  0  0  0  0  0  0999 V2000
   -2.3341    0.1036   -0.0024 S   0  0  0  0  0  1  0  0  0  0  0  0
    1.4825    2.3700    0.0017 H   0  0  0  0  0  0  0  0  0  0  0  0
   -2.9736   -1.0558    0.0851 H   0  0  0  0  0  0  0  0  0  0  0  0
    0.9789    1.4072   -0.0002 C   0  0  0  0  0  0  0  0  0  0  0  0
    2.0290    0.4496    0.0032 O   0  0  0  0  0  0  0  0  0  0  0  0
    1.7280   -0.8475    0.0005 N   0  0  0  0  0  0  0  0  0  0  0  0
    0.5859   -1.3527   -0.0042 C   0  0  0  0  0  0  0  0  0  0  0  0
    0.3584    1.3103   -0.8945 H   0  0  0  0  0  0  0  0  0  0  0  0
    0.3522    1.3100    0.8899 H   0  0  0  0  0  0  0  0  0  0  0  0
   -0.3786   -0.8099   -0.0069 H   0  0  0  0  0  0  0  0  0  0  0  0
    0.5340   -2.4281   -0.0059 H   0  0  0  0  0  0  0  0  0  0  0  0
  1  3  1  0
  2  4  1  0
  4  5  1  0
  4  8  1  0
  4  9  1  0
  5  6  1  0
  6  7  2  3
  7 10  1  0
  7 11  1  0
M  RAD  1   1   2
M  END
>  <reaction>  (24) 
rmg_rxn_15605

>  <mol_properties>  (24) 
{"0": {"label": "*1", "atom_type": "S2s"}, "1": {"label": "*2", "atom_type": "H0"}, "2": {"label": "*0", "atom_type": "H0"}, "3": {"label": "*3", "atom_type": "Cs"}, "4": {"label": "*4", "atom_type": "O2s"}}

>  <type>  (24) 
unop_20

>  <geom_source>  (24) 
Heuristics

$$$$

     RDKit          3D

 11  9  0  0  0  0  0  0  0  0999 V2000
   -0.5481   -2.5367    0.5800 S   0  0  0  0  0  1  0  0  0  0  0  0
   -0.5481   -0.9322    0.6571 H   0  0  0  0  0  0  0  0  0  0  0  0
   -0.5481   -2.5367   -0.7586 H   0  0  0  0  0  0  0  0  0  0  0  0
   -0.5481    0.3726    0.7198 C   0  0  0  0  0  0  0  0  0  0  0  0
    0.1324    0.8121   -0.4392 O   0  0  0  0  0  0  0  0  0  0  0  0
    0.5451    2.1120   -0.2691 N   0  0  0  0  0  0  0  0  0  0  0  0
    1.1603    2.5506   -1.2819 C   0  0  0  0  0  0  0  0  0  0  0  0
    0.1074    0.4034    1.5931 H   0  0  0  0  0  0  0  0  0  0  0  0
   -1.4346    0.9826    0.9072 H   0  0  0  0  0  0  0  0  0  0  0  0
    1.5189    3.5698   -1.2275 H   0  0  0  0  0  0  0  0  0  0  0  0
    1.3294    1.9477   -2.1715 H   0  0  0  0  0  0  0  0  0  0  0  0
  1  3  1  0
  2  4  1  0
  4  5  1  0
  4  8  1  0
  4  9  1  0
  5  6  1  0
  6  7  2  3
  7 10  1  0
  7 11  1  0
M  RAD  1   1   2
M  END
>  <reaction>  (25) 
rmg_rxn_15605

>  <mol_properties>  (25) 
{"0": {"label": "*1", "atom_type": "S2s"}, "1": {"label": "*2", "atom_type": "H0"}, "2": {"label": "*0", "atom_type": "H0"}, "3": {"label": "*3", "atom_type": "Cs"}, "4": {"label": "*4", "atom_type": "O2s"}}

>  <type>  (25) 
unop_21

>  <geom_source>  (25) 
Heuristics

$$$$

     RDKit          3D

 11  9  0  0  0  0  0  0  0  0999 V2000
    0.8710   -2.4765    0.1466 S   0  0  0  0  0  1  0  0  0  0  0  0
    0.8710   -0.8720    0.2237 H   0  0  0  0  0  0  0  0  0  0  0  0
    0.8710   -2.4765   -1.1920 H   0  0  0  0  0  0  0  0  0  0  0  0
    0.8710    0.4329    0.2864 C   0  0  0  0  0  0  0  0  0  0  0  0
   -0.3077    0.8485   -0.3750 O   0  0  0  0  0  0  0  0  0  0  0  0
   -0.7774    2.0056    0.1989 N   0  0  0  0  0  0  0  0  0  0  0  0
   -1.8332    2.4175   -0.3600 C   0  0  0  0  0  0  0  0  0  0  0  0
    1.6542    1.1896    0.2014 H   0  0  0  0  0  0  0  0  0  0  0  0
    0.6753    0.2270    1.3411 H   0  0  0  0  0  0  0  0  0  0  0  0
   -2.2676    3.3263    0.0344 H   0  0  0  0  0  0  0  0  0  0  0  0
   -2.2951    1.8970   -1.1962 H   0  0  0  0  0  0  0  0  0  0  0  0
  1  3  1  0
  2  4  1  0
  4  5  1  0
  4  8  1  0
  4  9  1  0
  5  6  1  0
  6  7  2  3
  7 10  1  0
  7 11  1  0
M  RAD  1   1   2
M  END
>  <reaction>  (26) 
rmg_rxn_15605

>  <mol_properties>  (26) 
{"0": {"label": "*1", "atom_type": "S2s"}, "1": {"label": "*2", "atom_type": "H0"}, "2": {"label": "*0", "atom_type": "H0"}, "3": {"label": "*3", "atom_type": "Cs"}, "4": {"label": "*4", "atom_type": "O2s"}}

>  <type>  (26) 
unop_22

>  <geom_source>  (26) 
Heuristics

$$$$

     RDKit          3D

 11  9  0  0  0  0  0  0  0  0999 V2000
   -0.2797   -2.4433   -0.9516 S   0  0  0  0  0  1  0  0  0  0  0  0
   -0.2797   -0.8388   -0.8745 H   0  0  0  0  0  0  0  0  0  0  0  0
   -0.2797   -2.4433   -2.2902 H   0  0  0  0  0  0  0  0  0  0  0  0
   -0.2797    0.4661   -0.8118 C   0  0  0  0  0  0  0  0  0  0  0  0
    0.4009    0.7924    0.3840 O   0  0  0  0  0  0  0  0  0  0  0  0
   -0.0260    2.0164    0.8405 N   0  0  0  0  0  0  0  0  0  0  0  0
    0.5556    2.3525    1.9108 C   0  0  0  0  0  0  0  0  0  0  0  0
   -1.3571    0.4025   -0.6433 H   0  0  0  0  0  0  0  0  0  0  0  0
   -0.0751    1.2033   -1.5915 H   0  0  0  0  0  0  0  0  0  0  0  0
    0.2745    3.3065    2.3364 H   0  0  0  0  0  0  0  0  0  0  0  0
    1.3034    1.7265    2.3930 H   0  0  0  0  0  0  0  0  0  0  0  0
  1  3  1  0
  2  4  1  0
  4  5  1  0
  4  8  1  0
  4  9  1  0
  5  6  1  0
  6  7  2  3
  7 10  1  0
  7 11  1  0
M  RAD  1   1   2
M  END
>  <reaction>  (27) 
rmg_rxn_15605

>  <mol_properties>  (27) 
{"0": {"label": "*1", "atom_type": "S2s"}, "1": {"label": "*2", "atom_type": "H0"}, "2": {"label": "*0", "atom_type": "H0"}, "3": {"label": "*3", "atom_type": "Cs"}, "4": {"label": "*4", "atom_type": "O2s"}}

>  <type>  (27) 
unop_23

>  <geom_source>  (27) 
Heuristics

$$$$

     RDKit          3D

 11  9  0  0  0  0  0  0  0  0999 V2000
   -0.0000   -2.5658    0.7551 S   0  0  0  0  0  1  0  0  0  0  0  0
   -0.0000   -0.9613    0.8322 H   0  0  0  0  0  0  0  0  0  0  0  0
   -0.0000   -2.5658   -0.5835 H   0  0  0  0  0  0  0  0  0  0  0  0
   -0.0000    0.3436    0.8949 C   0  0  0  0  0  0  0  0  0  0  0  0
   -0.0000    0.7918   -0.4462 O   0  0  0  0  0  0  0  0  0  0  0  0
    0.0000    2.1658   -0.4753 N   0  0  0  0  0  0  0  0  0  0  0  0
    0.0000    2.6151   -1.6564 C   0  0  0  0  0  0  0  0  0  0  0  0
    0.8921    0.6888    1.4222 H   0  0  0  0  0  0  0  0  0  0  0  0
   -0.8921    0.6888    1.4222 H   0  0  0  0  0  0  0  0  0  0  0  0
    0.0000    3.6914   -1.7657 H   0  0  0  0  0  0  0  0  0  0  0  0
   -0.0000    1.9669   -2.5301 H   0  0  0  0  0  0  0  0  0  0  0  0
  1  3  1  0
  2  4  1  0
  4  5  1  0
  4  8  1  0
  4  9  1  0
  5  6  1  0
  6  7  2  3
  7 10  1  0
  7 11  1  0
M  RAD  1   1   2
M  END
>  <reaction>  (28) 
rmg_rxn_15605

>  <mol_properties>  (28) 
{"0": {"label": "*1", "atom_type": "S2s"}, "1": {"label": "*2", "atom_type": "H0"}, "2": {"label": "*0", "atom_type": "H0"}, "3": {"label": "*3", "atom_type": "Cs"}, "4": {"label": "*4", "atom_type": "O2s"}}

>  <type>  (28) 
unop_24

>  <geom_source>  (28) 
Heuristics

$$$$

     RDKit          3D

 11  9  0  0  0  0  0  0  0  0999 V2000
    2.3307   -0.0998    0.0001 S   0  0  0  0  0  1  0  0  0  0  0  0
   -0.3552   -1.3831    0.8884 H   0  0  0  0  0  0  0  0  0  0  0  0
    2.9662    1.0643    0.0444 H   0  0  0  0  0  0  0  0  0  0  0  0
   -0.9710   -1.3954   -0.0193 C   0  0  0  0  0  0  0  0  0  0  0  0
   -2.0249   -0.4570    0.0029 O   0  0  0  0  0  0  0  0  0  0  0  0
   -1.7319    0.8444    0.0040 N   0  0  0  0  0  0  0  0  0  0  0  0
   -0.5911    1.3521   -0.0023 C   0  0  0  0  0  0  0  0  0  0  0  0
   -1.3878   -2.3653    0.1497 H   0  0  0  0  0  0  0  0  0  0  0  0
   -0.3669   -1.3402   -0.9216 H   0  0  0  0  0  0  0  0  0  0  0  0
   -0.5409    2.4275   -0.0018 H   0  0  0  0  0  0  0  0  0  0  0  0
    0.3724    0.8081   -0.0062 H   0  0  0  0  0  0  0  0  0  0  0  0
  1  3  1  0
  2  4  1  0
  4  5  1  0
  4  8  1  0
  4  9  1  0
  5  6  1  0
  6  7  2  3
  7 10  1  0
  7 11  1  0
M  RAD  1   1   2
M  END
>  <reaction>  (29) 
rmg_rxn_15605

>  <mol_properties>  (29) 
{"0": {"label": "*1", "atom_type": "S2s"}, "1": {"label": "*2", "atom_type": "H0"}, "2": {"label": "*0", "atom_type": "H0"}, "3": {"label": "*3", "atom_type": "Cs"}, "4": {"label": "*4", "atom_type": "O2s"}}

>  <type>  (29) 
unop_25

>  <geom_source>  (29) 
Heuristics

$$$$

     RDKit          3D

 11  9  0  0  0  0  0  0  0  0999 V2000
    0.5481   -2.5367    0.5800 S   0  0  0  0  0  1  0  0  0  0  0  0
    0.5481   -0.9322    0.6571 H   0  0  0  0  0  0  0  0  0  0  0  0
    0.5481   -2.5367   -0.7586 H   0  0  0  0  0  0  0  0  0  0  0  0
    0.5481    0.3726    0.7198 C   0  0  0  0  0  0  0  0  0  0  0  0
   -0.1324    0.8121   -0.4392 O   0  0  0  0  0  0  0  0  0  0  0  0
   -0.5450    2.1120   -0.2691 N   0  0  0  0  0  0  0  0  0  0  0  0
   -1.1603    2.5506   -1.2819 C   0  0  0  0  0  0  0  0  0  0  0  0
    1.4346    0.9827    0.9073 H   0  0  0  0  0  0  0  0  0  0  0  0
   -0.1074    0.4034    1.5931 H   0  0  0  0  0  0  0  0  0  0  0  0
   -1.5189    3.5698   -1.2275 H   0  0  0  0  0  0  0  0  0  0  0  0
   -1.3295    1.9477   -2.1715 H   0  0  0  0  0  0  0  0  0  0  0  0
  1  3  1  0
  2  4  1  0
  4  5  1  0
  4  8  1  0
  4  9  1  0
  5  6  1  0
  6  7  2  3
  7 10  1  0
  7 11  1  0
M  RAD  1   1   2
M  END
>  <reaction>  (30) 
rmg_rxn_15605

>  <mol_properties>  (30) 
{"0": {"label": "*1", "atom_type": "S2s"}, "1": {"label": "*2", "atom_type": "H0"}, "2": {"label": "*0", "atom_type": "H0"}, "3": {"label": "*3", "atom_type": "Cs"}, "4": {"label": "*4", "atom_type": "O2s"}}

>  <type>  (30) 
unop_26

>  <geom_source>  (30) 
gaussian_log

$$$$
