
     RDKit          3D

 15 14  0  0  0  0  0  0  0  0999 V2000
   -2.0554    0.0723   -0.4910 C   0  0  0  0  0  0  0  0  0  0  0  0
   -0.7461   -0.6266   -0.8178 C   0  0  0  0  0  0  0  0  0  0  0  0
    0.3249    0.2591   -1.9782 S   0  0  0  0  0  0  0  0  0  0  0  0
   -0.7172    0.3642   -3.4551 C   0  0  0  0  0  0  0  0  0  0  0  0
   -1.1375   -0.9737   -4.0409 C   0  0  0  0  0  0  0  0  0  0  0  0
   -2.7005    0.1427   -1.3684 H   0  0  0  0  0  0  0  0  0  0  0  0
   -2.6016   -0.4848    0.2733 H   0  0  0  0  0  0  0  0  0  0  0  0
   -1.8758    1.0825   -0.1213 H   0  0  0  0  0  0  0  0  0  0  0  0
   -0.1320   -0.7246    0.0789 H   0  0  0  0  0  0  0  0  0  0  0  0
   -0.9254   -1.6374   -1.1879 H   0  0  0  0  0  0  0  0  0  0  0  0
   -1.5873    0.9874   -3.2422 H   0  0  0  0  0  0  0  0  0  0  0  0
   -0.1021    0.9161   -4.1678 H   0  0  0  0  0  0  0  0  0  0  0  0
   -1.7876   -1.5224   -3.3574 H   0  0  0  0  0  0  0  0  0  0  0  0
   -0.2676   -1.5962   -4.2534 H   0  0  0  0  0  0  0  0  0  0  0  0
   -1.6916   -0.8229   -4.9700 H   0  0  0  0  0  0  0  0  0  0  0  0
  1  2  1  0
  1  6  1  0
  1  7  1  0
  1  8  1  0
  2  3  1  0
  2  9  1  0
  2 10  1  0
  3  4  1  0
  4  5  1  0
  4 11  1  0
  4 12  1  0
  5 13  1  0
  5 14  1  0
  5 15  1  0
M  END
>  <reaction>  (1) 
rmg_rxn_499

>  <mol_properties>  (1) 
{"0": {"label": "donator", "atom_type": "Cs"}, "5": {"label": "d_hydrogen", "atom_type": "H0"}}

>  <type>  (1) 
r1h

$$$$

     RDKit          3D

 10  9  0  0  0  0  0  0  0  0999 V2000
    1.4352    0.2660   -0.1351 C   0  0  0  0  0  3  0  0  0  0  0  0
    0.2236   -0.3243    0.4850 C   0  0  0  0  0  0  0  0  0  0  0  0
   -0.8893    0.6872    0.7364 C   0  0  0  0  0  0  0  0  0  0  0  0
    2.3577   -0.2958   -0.1940 H   0  0  0  0  0  0  0  0  0  0  0  0
    1.3935    1.2286   -0.6287 H   0  0  0  0  0  0  0  0  0  0  0  0
   -0.1633   -1.1318   -0.1556 H   0  0  0  0  0  0  0  0  0  0  0  0
    0.4945   -0.8215    1.4240 H   0  0  0  0  0  0  0  0  0  0  0  0
   -1.1991    1.1627   -0.1967 H   0  0  0  0  0  0  0  0  0  0  0  0
   -1.7660    0.2103    1.1768 H   0  0  0  0  0  0  0  0  0  0  0  0
   -0.5545    1.4732    1.4159 H   0  0  0  0  0  0  0  0  0  0  0  0
  1  2  1  0
  1  4  1  0
  1  5  1  0
  2  3  1  0
  2  6  1  0
  2  7  1  0
  3  8  1  0
  3  9  1  0
  3 10  1  0
M  RAD  1   1   2
M  END
>  <reaction>  (2) 
rmg_rxn_499

>  <mol_properties>  (2) 
{"0": {"label": "acceptor", "atom_type": "Cs"}}

>  <type>  (2) 
r2

$$$$

     RDKit          3D

 11 10  0  0  0  0  0  0  0  0999 V2000
   -1.2710    0.1907   -0.2084 C   0  0  0  0  0  0  0  0  0  0  0  0
    0.0202   -0.6130   -0.2928 C   0  0  0  0  0  0  0  0  0  0  0  0
    0.1086   -1.6953    0.7756 C   0  0  0  0  0  0  0  0  0  0  0  0
   -1.3607    0.6851    0.7620 H   0  0  0  0  0  0  0  0  0  0  0  0
   -2.1429   -0.4567   -0.3299 H   0  0  0  0  0  0  0  0  0  0  0  0
   -1.3158    0.9602   -0.9809 H   0  0  0  0  0  0  0  0  0  0  0  0
    0.8757    0.0616   -0.1992 H   0  0  0  0  0  0  0  0  0  0  0  0
    0.0997   -1.0712   -1.2825 H   0  0  0  0  0  0  0  0  0  0  0  0
   -0.7198   -2.4022    0.6850 H   0  0  0  0  0  0  0  0  0  0  0  0
    1.0395   -2.2596    0.6989 H   0  0  0  0  0  0  0  0  0  0  0  0
    0.0624   -1.2603    1.7770 H   0  0  0  0  0  0  0  0  0  0  0  0
  1  2  1  0
  1  4  1  0
  1  5  1  0
  1  6  1  0
  2  3  1  0
  2  7  1  0
  2  8  1  0
  3  9  1  0
  3 10  1  0
  3 11  1  0
M  END
>  <reaction>  (3) 
rmg_rxn_499

>  <mol_properties>  (3) 
{"0": {"label": "acceptor", "atom_type": "Cs"}, "10": {"label": "a_hydrogen", "atom_type": "H0"}}

>  <type>  (3) 
r2h

$$$$

     RDKit          3D

 25 23  0  0  0  0  0  0  0  0999 V2000
    1.6336   -0.8128   -1.4108 C   0  0  0  0  0  0  0  0  0  0  0  0
    2.7933   -1.3750   -0.6293 C   0  0  0  0  0  0  0  0  0  0  0  0
    2.3958   -1.8620    0.7588 C   0  0  0  0  0  0  0  0  0  0  0  0
    1.8871   -0.4476   -2.4047 H   0  0  0  0  0  0  0  0  0  0  0  0
    0.7499   -1.4497   -1.4336 H   0  0  0  0  0  0  0  0  0  0  0  0
    3.2457   -2.2031   -1.1875 H   0  0  0  0  0  0  0  0  0  0  0  0
    3.5738   -0.6127   -0.5416 H   0  0  0  0  0  0  0  0  0  0  0  0
    1.6386   -2.6473    0.6935 H   0  0  0  0  0  0  0  0  0  0  0  0
    3.2520   -2.2685    1.2989 H   0  0  0  0  0  0  0  0  0  0  0  0
    1.9790   -1.0481    1.3562 H   0  0  0  0  0  0  0  0  0  0  0  0
    1.0793    1.5077   -0.1728 C   0  0  0  0  0  3  0  0  0  0  0  0
   -0.3764    1.8908   -0.1718 C   0  0  0  0  0  0  0  0  0  0  0  0
   -1.3966    1.1046    1.0988 S   0  0  0  0  0  0  0  0  0  0  0  0
   -1.3639   -0.6364    0.6074 C   0  0  0  0  0  0  0  0  0  0  0  0
   -2.0153   -0.9346   -0.7321 C   0  0  0  0  0  0  0  0  0  0  0  0
    1.2565    0.3034   -0.7659 H   0  0  0  0  0  0  0  0  0  0  0  0
    1.6893    2.1410   -0.8173 H   0  0  0  0  0  0  0  0  0  0  0  0
    1.5162    1.3972    0.8179 H   0  0  0  0  0  0  0  0  0  0  0  0
   -0.4884    2.9579    0.0452 H   0  0  0  0  0  0  0  0  0  0  0  0
   -0.8243    1.7343   -1.1560 H   0  0  0  0  0  0  0  0  0  0  0  0
   -0.3350   -0.9952    0.6312 H   0  0  0  0  0  0  0  0  0  0  0  0
   -1.8963   -1.1457    1.4125 H   0  0  0  0  0  0  0  0  0  0  0  0
   -1.4881   -0.4412   -1.5500 H   0  0  0  0  0  0  0  0  0  0  0  0
   -3.0523   -0.5977   -0.7454 H   0  0  0  0  0  0  0  0  0  0  0  0
   -1.9973   -2.0088   -0.9316 H   0  0  0  0  0  0  0  0  0  0  0  0
  1  2  1  0
  1  4  1  0
  1  5  1  0
  1 16  1  0
  2  3  1  0
  2  6  1  0
  2  7  1  0
  3  8  1  0
  3  9  1  0
  3 10  1  0
 11 12  1  0
 11 17  1  0
 11 18  1  0
 12 13  1  0
 12 19  1  0
 12 20  1  0
 13 14  1  0
 14 15  1  0
 14 21  1  0
 14 22  1  0
 15 23  1  0
 15 24  1  0
 15 25  1  0
M  RAD  1  11   2
M  END
>  <reaction>  (4) 
rmg_rxn_499

>  <mol_properties>  (4) 
{"0": {"label": "*1", "atom_type": "Cs"}, "1": {"label": "*0", "atom_type": "Cs"}, "10": {"label": "*3", "atom_type": "Cs"}, "11": {"label": "*4", "atom_type": "Cs"}, "15": {"label": "*2", "atom_type": "H0"}}

>  <type>  (4) 
ts

$$$$

     RDKit          3D

 25 23  0  0  0  0  0  0  0  0999 V2000
    1.0523   -1.4201   -0.3071 C   0  0  0  0  0  3  0  0  0  0  0  0
    2.2673   -1.5783   -1.2122 C   0  0  0  0  0  0  0  0  0  0  0  0
    3.3680   -0.5732   -0.8979 C   0  0  0  0  0  0  0  0  0  0  0  0
    0.2756   -2.1481   -0.5473 H   0  0  0  0  0  0  0  0  0  0  0  0
    1.3262   -1.5567    0.7419 H   0  0  0  0  0  0  0  0  0  0  0  0
    2.6630   -2.5932   -1.1162 H   0  0  0  0  0  0  0  0  0  0  0  0
    1.9606   -1.4677   -2.2560 H   0  0  0  0  0  0  0  0  0  0  0  0
    3.7148   -0.6831    0.1324 H   0  0  0  0  0  0  0  0  0  0  0  0
    4.2290   -0.7022   -1.5560 H   0  0  0  0  0  0  0  0  0  0  0  0
    3.0068    0.4513   -1.0163 H   0  0  0  0  0  0  0  0  0  0  0  0
    1.0014    0.9619    0.7849 C   0  0  0  0  0  0  0  0  0  0  0  0
   -0.2596    1.7208    0.4057 C   0  0  0  0  0  0  0  0  0  0  0  0
   -1.8002    1.0068    1.0342 S   0  0  0  0  0  0  0  0  0  0  0  0
   -1.8002   -0.6342    0.2694 C   0  0  0  0  0  0  0  0  0  0  0  0
   -1.8002   -0.6342   -1.2504 C   0  0  0  0  0  0  0  0  0  0  0  0
    1.0268   -0.2283    0.2392 H   0  0  0  0  0  0  0  0  0  0  0  0
    1.8861    1.5003    0.4379 H   0  0  0  0  0  0  0  0  0  0  0  0
    1.0720    0.8399    1.8663 H   0  0  0  0  0  0  0  0  0  0  0  0
   -0.2445    2.7239    0.8349 H   0  0  0  0  0  0  0  0  0  0  0  0
   -0.3307    1.8430   -0.6764 H   0  0  0  0  0  0  0  0  0  0  0  0
   -0.9640   -1.2169    0.6594 H   0  0  0  0  0  0  0  0  0  0  0  0
   -2.7114   -1.0981    0.6506 H   0  0  0  0  0  0  0  0  0  0  0  0
   -0.8771   -0.2107   -1.6498 H   0  0  0  0  0  0  0  0  0  0  0  0
   -2.6359   -0.0518   -1.6398 H   0  0  0  0  0  0  0  0  0  0  0  0
   -1.8827   -1.6554   -1.6290 H   0  0  0  0  0  0  0  0  0  0  0  0
  1  2  1  0
  1  4  1  0
  1  5  1  0
  2  3  1  0
  2  6  1  0
  2  7  1  0
  3  8  1  0
  3  9  1  0
  3 10  1  0
 11 12  1  0
 11 16  1  0
 11 17  1  0
 11 18  1  0
 12 13  1  0
 12 19  1  0
 12 20  1  0
 13 14  1  0
 14 15  1  0
 14 21  1  0
 14 22  1  0
 15 23  1  0
 15 24  1  0
 15 25  1  0
M  RAD  1   1   2
M  END
>  <reaction>  (5) 
rmg_rxn_499

>  <mol_properties>  (5) 
{"0": {"label": "*1", "atom_type": "Cs"}, "1": {"label": "*0", "atom_type": "Cs"}, "10": {"label": "*3", "atom_type": "Cs"}, "11": {"label": "*4", "atom_type": "Cs"}, "15": {"label": "*2", "atom_type": "H0"}}

>  <type>  (5) 
unop_1

>  <geom_source>  (5) 
Heuristics

$$$$

     RDKit          3D

 25 23  0  0  0  0  0  0  0  0999 V2000
    1.5732   -1.4806   -0.0792 C   0  0  0  0  0  3  0  0  0  0  0  0
    0.8272   -1.4869   -1.4073 C   0  0  0  0  0  0  0  0  0  0  0  0
    1.1127   -0.2481   -2.2466 C   0  0  0  0  0  0  0  0  0  0  0  0
    1.3561   -2.3750    0.5071 H   0  0  0  0  0  0  0  0  0  0  0  0
    2.6535   -1.4387   -0.2382 H   0  0  0  0  0  0  0  0  0  0  0  0
    1.1003   -2.3813   -1.9740 H   0  0  0  0  0  0  0  0  0  0  0  0
   -0.2478   -1.5602   -1.2206 H   0  0  0  0  0  0  0  0  0  0  0  0
    2.1784   -0.1673   -2.4739 H   0  0  0  0  0  0  0  0  0  0  0  0
    0.5699   -0.2708   -3.1930 H   0  0  0  0  0  0  0  0  0  0  0  0
    0.8197    0.6603   -1.7145 H   0  0  0  0  0  0  0  0  0  0  0  0
    1.5223    0.9014    1.0127 C   0  0  0  0  0  0  0  0  0  0  0  0
    0.2614    1.6603    0.6335 C   0  0  0  0  0  0  0  0  0  0  0  0
   -1.2792    0.9463    1.2621 S   0  0  0  0  0  0  0  0  0  0  0  0
   -1.2792   -0.6947    0.4972 C   0  0  0  0  0  0  0  0  0  0  0  0
   -1.2792   -0.6947   -1.0225 C   0  0  0  0  0  0  0  0  0  0  0  0
    1.5477   -0.2888    0.4671 H   0  0  0  0  0  0  0  0  0  0  0  0
    2.4070    1.4398    0.6658 H   0  0  0  0  0  0  0  0  0  0  0  0
    1.5929    0.7794    2.0941 H   0  0  0  0  0  0  0  0  0  0  0  0
    0.2764    2.6634    1.0628 H   0  0  0  0  0  0  0  0  0  0  0  0
    0.1902    1.7825   -0.4485 H   0  0  0  0  0  0  0  0  0  0  0  0
   -0.4430   -1.2774    0.8873 H   0  0  0  0  0  0  0  0  0  0  0  0
   -2.1904   -1.1586    0.8785 H   0  0  0  0  0  0  0  0  0  0  0  0
   -0.3562   -0.2712   -1.4219 H   0  0  0  0  0  0  0  0  0  0  0  0
   -2.1149   -0.1123   -1.4119 H   0  0  0  0  0  0  0  0  0  0  0  0
   -1.3618   -1.7159   -1.4012 H   0  0  0  0  0  0  0  0  0  0  0  0
  1  2  1  0
  1  4  1  0
  1  5  1  0
  2  3  1  0
  2  6  1  0
  2  7  1  0
  3  8  1  0
  3  9  1  0
  3 10  1  0
 11 12  1  0
 11 16  1  0
 11 17  1  0
 11 18  1  0
 12 13  1  0
 12 19  1  0
 12 20  1  0
 13 14  1  0
 14 15  1  0
 14 21  1  0
 14 22  1  0
 15 23  1  0
 15 24  1  0
 15 25  1  0
M  RAD  1   1   2
M  END
>  <reaction>  (6) 
rmg_rxn_499

>  <mol_properties>  (6) 
{"0": {"label": "*1", "atom_type": "Cs"}, "1": {"label": "*0", "atom_type": "Cs"}, "10": {"label": "*3", "atom_type": "Cs"}, "11": {"label": "*4", "atom_type": "Cs"}, "15": {"label": "*2", "atom_type": "H0"}}

>  <type>  (6) 
unop_2

>  <geom_source>  (6) 
Heuristics

$$$$

     RDKit          3D

 25 23  0  0  0  0  0  0  0  0999 V2000
    1.0205   -1.3062   -0.5257 C   0  0  0  0  0  3  0  0  0  0  0  0
    2.4525   -1.7539   -0.7893 C   0  0  0  0  0  0  0  0  0  0  0  0
    3.4393   -1.1919    0.2261 C   0  0  0  0  0  0  0  0  0  0  0  0
    0.3292   -1.7185   -1.2626 H   0  0  0  0  0  0  0  0  0  0  0  0
    0.6864   -1.6283    0.4636 H   0  0  0  0  0  0  0  0  0  0  0  0
    2.5004   -2.8463   -0.7773 H   0  0  0  0  0  0  0  0  0  0  0  0
    2.7507   -1.4463   -1.7954 H   0  0  0  0  0  0  0  0  0  0  0  0
    3.1814   -1.5104    1.2390 H   0  0  0  0  0  0  0  0  0  0  0  0
    4.4586   -1.5234    0.0208 H   0  0  0  0  0  0  0  0  0  0  0  0
    3.4337   -0.0993    0.2129 H   0  0  0  0  0  0  0  0  0  0  0  0
    0.9696    1.0758    0.5663 C   0  0  0  0  0  0  0  0  0  0  0  0
   -0.2914    1.8346    0.1870 C   0  0  0  0  0  0  0  0  0  0  0  0
   -1.8319    1.1207    0.8156 S   0  0  0  0  0  0  0  0  0  0  0  0
   -1.8319   -0.5204    0.0507 C   0  0  0  0  0  0  0  0  0  0  0  0
   -1.8319   -0.5204   -1.4690 C   0  0  0  0  0  0  0  0  0  0  0  0
    0.9950   -0.1144    0.0206 H   0  0  0  0  0  0  0  0  0  0  0  0
    1.8543    1.6142    0.2193 H   0  0  0  0  0  0  0  0  0  0  0  0
    1.0402    0.9537    1.6477 H   0  0  0  0  0  0  0  0  0  0  0  0
   -0.2763    2.8378    0.6163 H   0  0  0  0  0  0  0  0  0  0  0  0
   -0.3625    1.9568   -0.8950 H   0  0  0  0  0  0  0  0  0  0  0  0
   -0.9957   -1.1030    0.4408 H   0  0  0  0  0  0  0  0  0  0  0  0
   -2.7431   -0.9842    0.4320 H   0  0  0  0  0  0  0  0  0  0  0  0
   -0.9089   -0.0968   -1.8684 H   0  0  0  0  0  0  0  0  0  0  0  0
   -2.6677    0.0621   -1.8584 H   0  0  0  0  0  0  0  0  0  0  0  0
   -1.9145   -1.5416   -1.8477 H   0  0  0  0  0  0  0  0  0  0  0  0
  1  2  1  0
  1  4  1  0
  1  5  1  0
  2  3  1  0
  2  6  1  0
  2  7  1  0
  3  8  1  0
  3  9  1  0
  3 10  1  0
 11 12  1  0
 11 16  1  0
 11 17  1  0
 11 18  1  0
 12 13  1  0
 12 19  1  0
 12 20  1  0
 13 14  1  0
 14 15  1  0
 14 21  1  0
 14 22  1  0
 15 23  1  0
 15 24  1  0
 15 25  1  0
M  RAD  1   1   2
M  END
>  <reaction>  (7) 
rmg_rxn_499

>  <mol_properties>  (7) 
{"0": {"label": "*1", "atom_type": "Cs"}, "1": {"label": "*0", "atom_type": "Cs"}, "10": {"label": "*3", "atom_type": "Cs"}, "11": {"label": "*4", "atom_type": "Cs"}, "15": {"label": "*2", "atom_type": "H0"}}

>  <type>  (7) 
unop_3

>  <geom_source>  (7) 
Heuristics

$$$$

     RDKit          3D

 25 21  0  0  0  0  0  0  0  0999 V2000
    1.8384   -1.1745   -0.4615 C   0  0  0  0  0  0  0  0  0  0  0  0
    0.6446   -2.0062   -0.0102 C   0  0  0  0  0  0  0  0  0  0  0  0
   -0.5515   -1.8704   -0.9437 C   0  0  0  0  0  2  0  0  0  0  0  0
    2.6844   -1.2848    0.2190 H   0  0  0  0  0  0  0  0  0  0  0  0
    2.1695   -1.4753   -1.4585 H   0  0  0  0  0  0  0  0  0  0  0  0
    0.9375   -3.0577    0.0556 H   0  0  0  0  0  0  0  0  0  0  0  0
    0.3535   -1.7066    1.0004 H   0  0  0  0  0  0  0  0  0  0  0  0
   -0.2958   -2.1931   -1.9558 H   0  0  0  0  0  0  0  0  0  0  0  0
   -1.3958   -2.4727   -0.6041 H   0  0  0  0  0  0  0  0  0  0  0  0
   -0.8844   -0.8313   -1.0035 H   0  0  0  0  0  0  0  0  0  0  0  0
    1.7875    1.2074    0.6304 C   0  0  0  0  0  0  0  0  0  0  0  0
    0.5265    1.9663    0.2512 C   0  0  0  0  0  0  0  0  0  0  0  0
   -1.0141    1.2524    0.8798 S   0  0  0  0  0  0  0  0  0  0  0  0
   -1.0141   -0.3887    0.1149 C   0  0  0  0  0  3  0  0  0  0  0  0
   -1.0141   -0.3887   -1.4048 C   0  0  0  0  0  0  0  0  0  0  0  0
    1.8129    0.0172    0.0848 H   0  0  0  0  0  0  0  0  0  0  0  0
    2.6722    1.7458    0.2835 H   0  0  0  0  0  0  0  0  0  0  0  0
    1.8581    1.0854    1.7118 H   0  0  0  0  0  0  0  0  0  0  0  0
    0.5416    2.9695    0.6805 H   0  0  0  0  0  0  0  0  0  0  0  0
    0.4554    2.0885   -0.8308 H   0  0  0  0  0  0  0  0  0  0  0  0
   -0.1779   -0.9714    0.5050 H   0  0  0  0  0  0  0  0  0  0  0  0
   -1.9253   -0.8526    0.4962 H   0  0  0  0  0  0  0  0  0  0  0  0
   -0.0910    0.0349   -1.8042 H   0  0  0  0  0  0  0  0  0  0  0  0
   -1.8498    0.1937   -1.7942 H   0  0  0  0  0  0  0  0  0  0  0  0
   -1.0966   -1.4099   -1.7835 H   0  0  0  0  0  0  0  0  0  0  0  0
  1  2  2  3
  1  4  1  0
  1  5  1  0
  2  6  1  0
  2  7  1  0
  3  8  1  0
  3  9  1  0
 10 15  1  0
 11 12  1  0
 11 16  1  0
 11 17  1  0
 11 18  1  0
 12 13  1  0
 12 19  1  0
 12 20  1  0
 13 14  1  0
 14 21  1  0
 14 22  1  0
 15 23  1  0
 15 24  1  0
 15 25  1  0
M  RAD  2   3   3  14   2
M  END
>  <reaction>  (8) 
rmg_rxn_499

>  <mol_properties>  (8) 
{"0": {"label": "*1", "atom_type": "Cs"}, "1": {"label": "*0", "atom_type": "Cs"}, "10": {"label": "*3", "atom_type": "Cs"}, "11": {"label": "*4", "atom_type": "Cs"}, "15": {"label": "*2", "atom_type": "H0"}}

>  <type>  (8) 
unop_4

>  <geom_source>  (8) 
Heuristics

$$$$

     RDKit          3D

 25 23  0  0  0  0  0  0  0  0999 V2000
    1.1533   -1.1561   -0.7194 C   0  0  0  0  0  3  0  0  0  0  0  0
    2.4214   -1.9058   -0.3317 C   0  0  0  0  0  0  0  0  0  0  0  0
    2.5534   -2.0960    1.1739 C   0  0  0  0  0  0  0  0  0  0  0  0
    1.0766   -1.0298   -1.8006 H   0  0  0  0  0  0  0  0  0  0  0  0
    0.2634   -1.6925   -0.3811 H   0  0  0  0  0  0  0  0  0  0  0  0
    2.4320   -2.8821   -0.8242 H   0  0  0  0  0  0  0  0  0  0  0  0
    3.2938   -1.3645   -0.7081 H   0  0  0  0  0  0  0  0  0  0  0  0
    1.7077   -2.6621    1.5718 H   0  0  0  0  0  0  0  0  0  0  0  0
    3.4670   -2.6345    1.4317 H   0  0  0  0  0  0  0  0  0  0  0  0
    2.5763   -1.1325    1.6889 H   0  0  0  0  0  0  0  0  0  0  0  0
    1.1023    1.2259    0.3726 C   0  0  0  0  0  0  0  0  0  0  0  0
   -0.1586    1.9848   -0.0066 C   0  0  0  0  0  0  0  0  0  0  0  0
   -1.6992    1.2708    0.6219 S   0  0  0  0  0  0  0  0  0  0  0  0
   -1.6992   -0.3703   -0.1429 C   0  0  0  0  0  0  0  0  0  0  0  0
   -1.6992   -0.3703   -1.6627 C   0  0  0  0  0  0  0  0  0  0  0  0
    1.1278    0.0357   -0.1731 H   0  0  0  0  0  0  0  0  0  0  0  0
    1.9871    1.7643    0.0256 H   0  0  0  0  0  0  0  0  0  0  0  0
    1.1730    1.1039    1.4540 H   0  0  0  0  0  0  0  0  0  0  0  0
   -0.1435    2.9879    0.4226 H   0  0  0  0  0  0  0  0  0  0  0  0
   -0.2297    2.1070   -1.0887 H   0  0  0  0  0  0  0  0  0  0  0  0
   -0.8630   -0.9529    0.2471 H   0  0  0  0  0  0  0  0  0  0  0  0
   -2.6104   -0.8341    0.2383 H   0  0  0  0  0  0  0  0  0  0  0  0
   -0.7762    0.0533   -2.0621 H   0  0  0  0  0  0  0  0  0  0  0  0
   -2.5349    0.2122   -2.0521 H   0  0  0  0  0  0  0  0  0  0  0  0
   -1.7817   -1.3914   -2.0413 H   0  0  0  0  0  0  0  0  0  0  0  0
  1  2  1  0
  1  4  1  0
  1  5  1  0
  2  3  1  0
  2  6  1  0
  2  7  1  0
  3  8  1  0
  3  9  1  0
  3 10  1  0
 11 12  1  0
 11 16  1  0
 11 17  1  0
 11 18  1  0
 12 13  1  0
 12 19  1  0
 12 20  1  0
 13 14  1  0
 14 15  1  0
 14 21  1  0
 14 22  1  0
 15 23  1  0
 15 24  1  0
 15 25  1  0
M  RAD  1   1   2
M  END
>  <reaction>  (9) 
rmg_rxn_499

>  <mol_properties>  (9) 
{"0": {"label": "*1", "atom_type": "Cs"}, "1": {"label": "*0", "atom_type": "Cs"}, "10": {"label": "*3", "atom_type": "Cs"}, "11": {"label": "*4", "atom_type": "Cs"}, "15": {"label": "*2", "atom_type": "H0"}}

>  <type>  (9) 
unop_5

>  <geom_source>  (9) 
Heuristics

$$$$

     RDKit          3D

 25 23  0  0  0  0  0  0  0  0999 V2000
    1.7459   -1.0822   -0.6219 C   0  0  0  0  0  3  0  0  0  0  0  0
    1.0918   -2.1130    0.2892 C   0  0  0  0  0  0  0  0  0  0  0  0
   -0.3470   -2.4179   -0.1078 C   0  0  0  0  0  0  0  0  0  0  0  0
    2.7750   -0.8772   -0.3219 H   0  0  0  0  0  0  0  0  0  0  0  0
    1.7623   -1.4306   -1.6574 H   0  0  0  0  0  0  0  0  0  0  0  0
    1.6773   -3.0365    0.2733 H   0  0  0  0  0  0  0  0  0  0  0  0
    1.1162   -1.7538    1.3218 H   0  0  0  0  0  0  0  0  0  0  0  0
   -0.3965   -2.8084   -1.1272 H   0  0  0  0  0  0  0  0  0  0  0  0
   -0.7980   -3.1576    0.5558 H   0  0  0  0  0  0  0  0  0  0  0  0
   -0.9621   -1.5156   -0.0705 H   0  0  0  0  0  0  0  0  0  0  0  0
    1.6950    1.2998    0.4701 C   0  0  0  0  0  0  0  0  0  0  0  0
    0.4340    2.0586    0.0909 C   0  0  0  0  0  0  0  0  0  0  0  0
   -1.1066    1.3447    0.7195 S   0  0  0  0  0  0  0  0  0  0  0  0
   -1.1066   -0.2964   -0.0454 C   0  0  0  0  0  0  0  0  0  0  0  0
   -1.1066   -0.2964   -1.5652 C   0  0  0  0  0  0  0  0  0  0  0  0
    1.7204    0.1096   -0.0755 H   0  0  0  0  0  0  0  0  0  0  0  0
    2.5797    1.8382    0.1231 H   0  0  0  0  0  0  0  0  0  0  0  0
    1.7656    1.1777    1.5515 H   0  0  0  0  0  0  0  0  0  0  0  0
    0.4491    3.0618    0.5201 H   0  0  0  0  0  0  0  0  0  0  0  0
    0.3629    2.1808   -0.9912 H   0  0  0  0  0  0  0  0  0  0  0  0
   -0.2704   -0.8790    0.3446 H   0  0  0  0  0  0  0  0  0  0  0  0
   -2.0178   -0.7602    0.3359 H   0  0  0  0  0  0  0  0  0  0  0  0
   -0.1835    0.1272   -1.9646 H   0  0  0  0  0  0  0  0  0  0  0  0
   -1.9423    0.2861   -1.9546 H   0  0  0  0  0  0  0  0  0  0  0  0
   -1.1891   -1.3176   -1.9438 H   0  0  0  0  0  0  0  0  0  0  0  0
  1  2  1  0
  1  4  1  0
  1  5  1  0
  2  3  1  0
  2  6  1  0
  2  7  1  0
  3  8  1  0
  3  9  1  0
  3 10  1  0
 11 12  1  0
 11 16  1  0
 11 17  1  0
 11 18  1  0
 12 13  1  0
 12 19  1  0
 12 20  1  0
 13 14  1  0
 14 15  1  0
 14 21  1  0
 14 22  1  0
 15 23  1  0
 15 24  1  0
 15 25  1  0
M  RAD  1   1   2
M  END
>  <reaction>  (10) 
rmg_rxn_499

>  <mol_properties>  (10) 
{"0": {"label": "*1", "atom_type": "Cs"}, "1": {"label": "*0", "atom_type": "Cs"}, "10": {"label": "*3", "atom_type": "Cs"}, "11": {"label": "*4", "atom_type": "Cs"}, "15": {"label": "*2", "atom_type": "H0"}}

>  <type>  (10) 
unop_6

>  <geom_source>  (10) 
Heuristics

$$$$

     RDKit          3D

 25 23  0  0  0  0  0  0  0  0999 V2000
    1.5796   -1.0350   -0.7303 C   0  0  0  0  0  3  0  0  0  0  0  0
    1.6433   -2.1214    0.3356 C   0  0  0  0  0  0  0  0  0  0  0  0
    0.2831   -2.7461    0.6186 C   0  0  0  0  0  0  0  0  0  0  0  0
    2.5625   -0.6000   -0.9189 H   0  0  0  0  0  0  0  0  0  0  0  0
    1.2042   -1.4360   -1.6749 H   0  0  0  0  0  0  0  0  0  0  0  0
    2.3430   -2.9003    0.0201 H   0  0  0  0  0  0  0  0  0  0  0  0
    2.0503   -1.7014    1.2596 H   0  0  0  0  0  0  0  0  0  0  0  0
   -0.1332   -3.2011   -0.2835 H   0  0  0  0  0  0  0  0  0  0  0  0
    0.3490   -3.5213    1.3839 H   0  0  0  0  0  0  0  0  0  0  0  0
   -0.4282   -1.9927    0.9658 H   0  0  0  0  0  0  0  0  0  0  0  0
    1.5286    1.3470    0.3616 C   0  0  0  0  0  0  0  0  0  0  0  0
    0.2677    2.1059   -0.0176 C   0  0  0  0  0  0  0  0  0  0  0  0
   -1.2729    1.3919    0.6110 S   0  0  0  0  0  0  0  0  0  0  0  0
   -1.2729   -0.2492   -0.1539 C   0  0  0  0  0  0  0  0  0  0  0  0
   -1.2729   -0.2492   -1.6736 C   0  0  0  0  0  0  0  0  0  0  0  0
    1.5541    0.1568   -0.1840 H   0  0  0  0  0  0  0  0  0  0  0  0
    2.4134    1.8854    0.0147 H   0  0  0  0  0  0  0  0  0  0  0  0
    1.5993    1.2250    1.4430 H   0  0  0  0  0  0  0  0  0  0  0  0
    0.2828    3.1090    0.4117 H   0  0  0  0  0  0  0  0  0  0  0  0
    0.1966    2.2281   -1.0996 H   0  0  0  0  0  0  0  0  0  0  0  0
   -0.4367   -0.8318    0.2362 H   0  0  0  0  0  0  0  0  0  0  0  0
   -2.1841   -0.7130    0.2274 H   0  0  0  0  0  0  0  0  0  0  0  0
   -0.3498    0.1744   -2.0730 H   0  0  0  0  0  0  0  0  0  0  0  0
   -2.1086    0.3333   -2.0630 H   0  0  0  0  0  0  0  0  0  0  0  0
   -1.3554   -1.2703   -2.0523 H   0  0  0  0  0  0  0  0  0  0  0  0
  1  2  1  0
  1  4  1  0
  1  5  1  0
  2  3  1  0
  2  6  1  0
  2  7  1  0
  3  8  1  0
  3  9  1  0
  3 10  1  0
 11 12  1  0
 11 16  1  0
 11 17  1  0
 11 18  1  0
 12 13  1  0
 12 19  1  0
 12 20  1  0
 13 14  1  0
 14 15  1  0
 14 21  1  0
 14 22  1  0
 15 23  1  0
 15 24  1  0
 15 25  1  0
M  RAD  1   1   2
M  END
>  <reaction>  (11) 
rmg_rxn_499

>  <mol_properties>  (11) 
{"0": {"label": "*1", "atom_type": "Cs"}, "1": {"label": "*0", "atom_type": "Cs"}, "10": {"label": "*3", "atom_type": "Cs"}, "11": {"label": "*4", "atom_type": "Cs"}, "15": {"label": "*2", "atom_type": "H0"}}

>  <type>  (11) 
unop_7

>  <geom_source>  (11) 
Heuristics

$$$$

     RDKit          3D

 25 23  0  0  0  0  0  0  0  0999 V2000
    1.1922   -1.4889   -0.1494 C   0  0  0  0  0  3  0  0  0  0  0  0
    1.8675   -1.4480   -1.5142 C   0  0  0  0  0  0  0  0  0  0  0  0
    2.7589   -0.2255   -1.6914 C   0  0  0  0  0  0  0  0  0  0  0  0
    0.5586   -2.3709   -0.0416 H   0  0  0  0  0  0  0  0  0  0  0  0
    1.9338   -1.5095    0.6529 H   0  0  0  0  0  0  0  0  0  0  0  0
    2.4620   -2.3552   -1.6536 H   0  0  0  0  0  0  0  0  0  0  0  0
    1.1051   -1.4592   -2.2981 H   0  0  0  0  0  0  0  0  0  0  0  0
    3.5499   -0.2062   -0.9377 H   0  0  0  0  0  0  0  0  0  0  0  0
    3.2333   -0.2139   -2.6741 H   0  0  0  0  0  0  0  0  0  0  0  0
    2.1823    0.6968   -1.5873 H   0  0  0  0  0  0  0  0  0  0  0  0
    1.1412    0.8930    0.9425 C   0  0  0  0  0  0  0  0  0  0  0  0
   -0.1197    1.6519    0.5633 C   0  0  0  0  0  0  0  0  0  0  0  0
   -1.6603    0.9380    1.1919 S   0  0  0  0  0  0  0  0  0  0  0  0
   -1.6603   -0.7031    0.4270 C   0  0  0  0  0  0  0  0  0  0  0  0
   -1.6603   -0.7031   -1.0927 C   0  0  0  0  0  0  0  0  0  0  0  0
    1.1667   -0.2972    0.3969 H   0  0  0  0  0  0  0  0  0  0  0  0
    2.0260    1.4314    0.5956 H   0  0  0  0  0  0  0  0  0  0  0  0
    1.2119    0.7710    2.0239 H   0  0  0  0  0  0  0  0  0  0  0  0
   -0.1046    2.6551    0.9926 H   0  0  0  0  0  0  0  0  0  0  0  0
   -0.1908    1.7741   -0.5187 H   0  0  0  0  0  0  0  0  0  0  0  0
   -0.8241   -1.2858    0.8171 H   0  0  0  0  0  0  0  0  0  0  0  0
   -2.5715   -1.1670    0.8083 H   0  0  0  0  0  0  0  0  0  0  0  0
   -0.7372   -0.2795   -1.4921 H   0  0  0  0  0  0  0  0  0  0  0  0
   -2.4960   -0.1206   -1.4821 H   0  0  0  0  0  0  0  0  0  0  0  0
   -1.7428   -1.7243   -1.4714 H   0  0  0  0  0  0  0  0  0  0  0  0
  1  2  1  0
  1  4  1  0
  1  5  1  0
  2  3  1  0
  2  6  1  0
  2  7  1  0
  3  8  1  0
  3  9  1  0
  3 10  1  0
 11 12  1  0
 11 16  1  0
 11 17  1  0
 11 18  1  0
 12 13  1  0
 12 19  1  0
 12 20  1  0
 13 14  1  0
 14 15  1  0
 14 21  1  0
 14 22  1  0
 15 23  1  0
 15 24  1  0
 15 25  1  0
M  RAD  1   1   2
M  END
>  <reaction>  (12) 
rmg_rxn_499

>  <mol_properties>  (12) 
{"0": {"label": "*1", "atom_type": "Cs"}, "1": {"label": "*0", "atom_type": "Cs"}, "10": {"label": "*3", "atom_type": "Cs"}, "11": {"label": "*4", "atom_type": "Cs"}, "15": {"label": "*2", "atom_type": "H0"}}

>  <type>  (12) 
unop_8

>  <geom_source>  (12) 
Heuristics

$$$$

     RDKit          3D

 25 23  0  0  0  0  0  0  0  0999 V2000
    1.3816   -1.5099   -0.0743 C   0  0  0  0  0  3  0  0  0  0  0  0
    1.3391   -1.4133   -1.5940 C   0  0  0  0  0  0  0  0  0  0  0  0
    1.9444   -0.1168   -2.1166 C   0  0  0  0  0  0  0  0  0  0  0  0
    0.9440   -2.4444    0.2807 H   0  0  0  0  0  0  0  0  0  0  0  0
    2.4101   -1.4617    0.2916 H   0  0  0  0  0  0  0  0  0  0  0  0
    1.8714   -2.2644   -2.0278 H   0  0  0  0  0  0  0  0  0  0  0  0
    0.3034   -1.4950   -1.9351 H   0  0  0  0  0  0  0  0  0  0  0  0
    2.9906   -0.0247   -1.8151 H   0  0  0  0  0  0  0  0  0  0  0  0
    1.9048   -0.0661   -3.2060 H   0  0  0  0  0  0  0  0  0  0  0  0
    1.4102    0.7508   -1.7217 H   0  0  0  0  0  0  0  0  0  0  0  0
    1.3307    0.8721    1.0177 C   0  0  0  0  0  0  0  0  0  0  0  0
    0.0697    1.6310    0.6385 C   0  0  0  0  0  0  0  0  0  0  0  0
   -1.4709    0.9170    1.2670 S   0  0  0  0  0  0  0  0  0  0  0  0
   -1.4709   -0.7240    0.5022 C   0  0  0  0  0  0  0  0  0  0  0  0
   -1.4709   -0.7240   -1.0176 C   0  0  0  0  0  0  0  0  0  0  0  0
    1.3561   -0.3181    0.4720 H   0  0  0  0  0  0  0  0  0  0  0  0
    2.2154    1.4105    0.6707 H   0  0  0  0  0  0  0  0  0  0  0  0
    1.4013    0.7501    2.0991 H   0  0  0  0  0  0  0  0  0  0  0  0
    0.0848    2.6341    1.0677 H   0  0  0  0  0  0  0  0  0  0  0  0
   -0.0014    1.7532   -0.4436 H   0  0  0  0  0  0  0  0  0  0  0  0
   -0.6347   -1.3067    0.8922 H   0  0  0  0  0  0  0  0  0  0  0  0
   -2.3821   -1.1879    0.8834 H   0  0  0  0  0  0  0  0  0  0  0  0
   -0.5478   -0.3005   -1.4170 H   0  0  0  0  0  0  0  0  0  0  0  0
   -2.3066   -0.1416   -1.4070 H   0  0  0  0  0  0  0  0  0  0  0  0
   -1.5534   -1.7452   -1.3962 H   0  0  0  0  0  0  0  0  0  0  0  0
  1  2  1  0
  1  4  1  0
  1  5  1  0
  2  3  1  0
  2  6  1  0
  2  7  1  0
  3  8  1  0
  3  9  1  0
  3 10  1  0
 11 12  1  0
 11 16  1  0
 11 17  1  0
 11 18  1  0
 12 13  1  0
 12 19  1  0
 12 20  1  0
 13 14  1  0
 14 15  1  0
 14 21  1  0
 14 22  1  0
 15 23  1  0
 15 24  1  0
 15 25  1  0
M  RAD  1   1   2
M  END
>  <reaction>  (13) 
rmg_rxn_499

>  <mol_properties>  (13) 
{"0": {"label": "*1", "atom_type": "Cs"}, "1": {"label": "*0", "atom_type": "Cs"}, "10": {"label": "*3", "atom_type": "Cs"}, "11": {"label": "*4", "atom_type": "Cs"}, "15": {"label": "*2", "atom_type": "H0"}}

>  <type>  (13) 
unop_9

>  <geom_source>  (13) 
Heuristics

$$$$

     RDKit          3D

 25 23  0  0  0  0  0  0  0  0999 V2000
    1.3744   -1.0510   -0.7710 C   0  0  0  0  0  3  0  0  0  0  0  0
    2.1416   -2.0346    0.1034 C   0  0  0  0  0  0  0  0  0  0  0  0
    1.2542   -2.7173    1.1363 C   0  0  0  0  0  0  0  0  0  0  0  0
    2.0263   -0.5726   -1.5038 H   0  0  0  0  0  0  0  0  0  0  0  0
    0.5724   -1.5555   -1.3154 H   0  0  0  0  0  0  0  0  0  0  0  0
    2.6136   -2.7920   -0.5286 H   0  0  0  0  0  0  0  0  0  0  0  0
    2.9558   -1.5110    0.6121 H   0  0  0  0  0  0  0  0  0  0  0  0
    0.4485   -3.2744    0.6519 H   0  0  0  0  0  0  0  0  0  0  0  0
    1.8212   -3.4174    1.7523 H   0  0  0  0  0  0  0  0  0  0  0  0
    0.7934   -1.9833    1.8017 H   0  0  0  0  0  0  0  0  0  0  0  0
    1.3234    1.3310    0.3210 C   0  0  0  0  0  0  0  0  0  0  0  0
    0.0625    2.0898   -0.0582 C   0  0  0  0  0  0  0  0  0  0  0  0
   -1.4781    1.3759    0.5704 S   0  0  0  0  0  0  0  0  0  0  0  0
   -1.4781   -0.2652   -0.1945 C   0  0  0  0  0  0  0  0  0  0  0  0
   -1.4781   -0.2652   -1.7143 C   0  0  0  0  0  0  0  0  0  0  0  0
    1.3489    0.1407   -0.2246 H   0  0  0  0  0  0  0  0  0  0  0  0
    2.2081    1.8694   -0.0260 H   0  0  0  0  0  0  0  0  0  0  0  0
    1.3941    1.2089    1.4024 H   0  0  0  0  0  0  0  0  0  0  0  0
    0.0776    3.0930    0.3710 H   0  0  0  0  0  0  0  0  0  0  0  0
   -0.0087    2.2120   -1.1403 H   0  0  0  0  0  0  0  0  0  0  0  0
   -0.6419   -0.8478    0.1955 H   0  0  0  0  0  0  0  0  0  0  0  0
   -2.3893   -0.7291    0.1868 H   0  0  0  0  0  0  0  0  0  0  0  0
   -0.5551    0.1584   -2.1137 H   0  0  0  0  0  0  0  0  0  0  0  0
   -2.3138    0.3173   -2.1037 H   0  0  0  0  0  0  0  0  0  0  0  0
   -1.5607   -1.2864   -2.0929 H   0  0  0  0  0  0  0  0  0  0  0  0
  1  2  1  0
  1  4  1  0
  1  5  1  0
  2  3  1  0
  2  6  1  0
  2  7  1  0
  3  8  1  0
  3  9  1  0
  3 10  1  0
 11 12  1  0
 11 16  1  0
 11 17  1  0
 11 18  1  0
 12 13  1  0
 12 19  1  0
 12 20  1  0
 13 14  1  0
 14 15  1  0
 14 21  1  0
 14 22  1  0
 15 23  1  0
 15 24  1  0
 15 25  1  0
M  RAD  1   1   2
M  END
>  <reaction>  (14) 
rmg_rxn_499

>  <mol_properties>  (14) 
{"0": {"label": "*1", "atom_type": "Cs"}, "1": {"label": "*0", "atom_type": "Cs"}, "10": {"label": "*3", "atom_type": "Cs"}, "11": {"label": "*4", "atom_type": "Cs"}, "15": {"label": "*2", "atom_type": "H0"}}

>  <type>  (14) 
unop_10

>  <geom_source>  (14) 
Heuristics

$$$$

     RDKit          3D

 25 20  0  0  0  0  0  0  0  0999 V2000
    1.7336   -1.4030   -0.1537 C   0  0  0  0  0  3  0  0  0  0  0  0
    0.4866   -1.6431   -0.9952 C   0  0  0  0  0  3  0  0  0  0  0  0
    0.3370   -0.6315   -2.1243 C   0  0  0  0  0  2  0  0  0  0  0  0
    1.8232   -2.1368    0.6490 H   0  0  0  0  0  0  0  0  0  0  0  0
    2.6362   -1.4652   -0.7664 H   0  0  0  0  0  0  0  0  0  0  0  0
    0.5185   -2.6531   -1.4132 H   0  0  0  0  0  0  0  0  0  0  0  0
   -0.3981   -1.6060   -0.3536 H   0  0  0  0  0  0  0  0  0  0  0  0
    1.1957   -0.6694   -2.7990 H   0  0  0  0  0  0  0  0  0  0  0  0
   -0.5610   -0.8197   -2.7151 H   0  0  0  0  0  0  0  0  0  0  0  0
    0.2717    0.3859   -1.7311 H   0  0  0  0  0  0  0  0  0  0  0  0
    1.6826    0.9790    0.9382 C   0  0  0  0  0  0  0  0  0  0  0  0
    0.4217    1.7379    0.5590 C   0  0  0  0  0  0  0  0  0  0  0  0
   -1.1189    1.0239    1.1876 S   0  0  0  0  0  0  0  0  0  0  0  0
   -1.1189   -0.6172    0.4227 C   0  0  0  0  0  0  0  0  0  0  0  0
   -1.1189   -0.6172   -1.0970 C   0  0  0  0  0  3  0  0  0  0  0  0
    1.7081   -0.2112    0.3926 H   0  0  0  0  0  0  0  0  0  0  0  0
    2.5673    1.5174    0.5913 H   0  0  0  0  0  0  0  0  0  0  0  0
    1.7533    0.8570    2.0196 H   0  0  0  0  0  0  0  0  0  0  0  0
    0.4368    2.7410    0.9883 H   0  0  0  0  0  0  0  0  0  0  0  0
    0.3505    1.8601   -0.5230 H   0  0  0  0  0  0  0  0  0  0  0  0
   -0.2827   -1.1998    0.8128 H   0  0  0  0  0  0  0  0  0  0  0  0
   -2.0301   -1.0810    0.8040 H   0  0  0  0  0  0  0  0  0  0  0  0
   -0.1959   -0.1936   -1.4964 H   0  0  0  0  0  0  0  0  0  0  0  0
   -1.9546   -0.0347   -1.4864 H   0  0  0  0  0  0  0  0  0  0  0  0
   -1.2015   -1.6383   -1.4757 H   0  0  0  0  0  0  0  0  0  0  0  0
  1  4  1  0
  1  5  1  0
  1  2  1  0
  2  7  1  0
  2  6  1  0
  3  9  1  0
  3 23  1  0
 11 17  1  0
 11 12  1  0
 11 18  1  0
 11 16  1  0
 12 13  1  0
 12 19  1  0
 12 20  1  0
 13 14  1  0
 14 22  1  0
 14 15  1  0
 14 21  1  0
 15 25  1  0
 15 24  1  0
M  RAD  4   1   2   2   2   3   3  15   2
M  END
>  <reaction>  (15) 
rmg_rxn_499

>  <mol_properties>  (15) 
{"0": {"label": "*1", "atom_type": "Cs"}, "1": {"label": "*0", "atom_type": "Cs"}, "10": {"label": "*3", "atom_type": "Cs"}, "11": {"label": "*4", "atom_type": "Cs"}, "15": {"label": "*2", "atom_type": "H0"}}

>  <type>  (15) 
unop_11

>  <geom_source>  (15) 
Heuristics

$$$$

     RDKit          3D

 25 23  0  0  0  0  0  0  0  0999 V2000
    2.3466   -1.6930   -0.4586 S   0  0  0  0  0  0  0  0  0  0  0  0
   -3.0473    1.1655    0.8022 C   0  0  0  0  0  0  0  0  0  0  0  0
    3.5895   -0.5738   -1.1964 C   0  0  0  0  0  0  0  0  0  0  0  0
   -3.7738    0.8355   -0.4974 C   0  0  0  0  0  0  0  0  0  0  0  0
   -2.3122   -0.0539    1.3468 C   0  0  0  0  0  0  0  0  0  0  0  0
    0.9879   -0.4734   -0.4215 C   0  0  0  0  0  0  0  0  0  0  0  0
    4.3168    0.2135   -0.1143 C   0  0  0  0  0  0  0  0  0  0  0  0
   -0.2542   -1.1008    0.1876 C   0  0  0  0  0  3  0  0  0  0  0  0
   -2.3146    1.9798    0.6159 H   0  0  0  0  0  0  0  0  0  0  0  0
   -3.7833    1.5187    1.5562 H   0  0  0  0  0  0  0  0  0  0  0  0
    4.3298   -1.1937   -1.7446 H   0  0  0  0  0  0  0  0  0  0  0  0
    3.1213    0.1213   -1.9254 H   0  0  0  0  0  0  0  0  0  0  0  0
   -4.5251    0.0350   -0.3271 H   0  0  0  0  0  0  0  0  0  0  0  0
   -3.0496    0.5009   -1.2706 H   0  0  0  0  0  0  0  0  0  0  0  0
   -4.2978    1.7407   -0.8700 H   0  0  0  0  0  0  0  0  0  0  0  0
   -1.7854    0.2175    2.2858 H   0  0  0  0  0  0  0  0  0  0  0  0
   -3.0306   -0.8727    1.5650 H   0  0  0  0  0  0  0  0  0  0  0  0
   -1.4165   -0.4785    0.4620 H   0  0  0  0  0  0  0  0  0  0  0  0
    4.7977   -0.4816    0.6061 H   0  0  0  0  0  0  0  0  0  0  0  0
    5.1028    0.8450   -0.5793 H   0  0  0  0  0  0  0  0  0  0  0  0
    3.6101    0.8731    0.4303 H   0  0  0  0  0  0  0  0  0  0  0  0
    1.2795    0.4071    0.1870 H   0  0  0  0  0  0  0  0  0  0  0  0
    0.7526   -0.1405   -1.4542 H   0  0  0  0  0  0  0  0  0  0  0  0
   -0.0558   -1.4217    1.2323 H   0  0  0  0  0  0  0  0  0  0  0  0
   -0.5883   -1.9701   -0.4177 H   0  0  0  0  0  0  0  0  0  0  0  0
  1  6  1  0
  1  3  1  0
  2  4  1  0
  2  5  1  0
  2  9  1  0
  2 10  1  0
  3  7  1  0
  3 11  1  0
  3 12  1  0
  4 13  1  0
  4 14  1  0
  4 15  1  0
  5 16  1  0
  5 17  1  0
  5 18  1  0
  6  8  1  0
  6 22  1  0
  6 23  1  0
  7 19  1  0
  7 20  1  0
  7 21  1  0
  8 24  1  0
  8 25  1  0
M  RAD  1   8   2
M  END
>  <reaction>  (16) 
rmg_rxn_499

>  <mol_properties>  (16) 
{"0": {"label": "*1", "atom_type": "Cs"}, "1": {"label": "*0", "atom_type": "Cs"}, "10": {"label": "*3", "atom_type": "Cs"}, "11": {"label": "*4", "atom_type": "Cs"}, "15": {"label": "*2", "atom_type": "H0"}}

>  <type>  (16) 
unop_12

>  <geom_source>  (16) 
AutoTST

$$$$

     RDKit          3D

 25 23  0  0  0  0  0  0  0  0999 V2000
    1.5733   -1.4806   -0.0792 C   0  0  0  0  0  3  0  0  0  0  0  0
    0.8272   -1.4869   -1.4073 C   0  0  0  0  0  0  0  0  0  0  0  0
    1.1127   -0.2481   -2.2466 C   0  0  0  0  0  0  0  0  0  0  0  0
    1.3561   -2.3750    0.5071 H   0  0  0  0  0  0  0  0  0  0  0  0
    2.6535   -1.4387   -0.2382 H   0  0  0  0  0  0  0  0  0  0  0  0
    1.1003   -2.3813   -1.9740 H   0  0  0  0  0  0  0  0  0  0  0  0
   -0.2478   -1.5602   -1.2206 H   0  0  0  0  0  0  0  0  0  0  0  0
    2.1784   -0.1673   -2.4739 H   0  0  0  0  0  0  0  0  0  0  0  0
    0.5699   -0.2708   -3.1930 H   0  0  0  0  0  0  0  0  0  0  0  0
    0.8197    0.6603   -1.7145 H   0  0  0  0  0  0  0  0  0  0  0  0
    1.5223    0.9014    1.0127 C   0  0  0  0  0  0  0  0  0  0  0  0
    0.2614    1.6603    0.6335 C   0  0  0  0  0  0  0  0  0  0  0  0
   -1.2792    0.9463    1.2621 S   0  0  0  0  0  0  0  0  0  0  0  0
   -1.2792   -0.6947    0.4972 C   0  0  0  0  0  0  0  0  0  0  0  0
   -1.2792   -0.6947   -1.0225 C   0  0  0  0  0  0  0  0  0  0  0  0
    1.5477   -0.2888    0.4671 H   0  0  0  0  0  0  0  0  0  0  0  0
    2.4070    1.4398    0.6658 H   0  0  0  0  0  0  0  0  0  0  0  0
    1.5930    0.7794    2.0941 H   0  0  0  0  0  0  0  0  0  0  0  0
    0.2764    2.6634    1.0628 H   0  0  0  0  0  0  0  0  0  0  0  0
    0.1902    1.7825   -0.4485 H   0  0  0  0  0  0  0  0  0  0  0  0
   -0.4430   -1.2774    0.8872 H   0  0  0  0  0  0  0  0  0  0  0  0
   -2.1904   -1.1586    0.8785 H   0  0  0  0  0  0  0  0  0  0  0  0
   -0.3562   -0.2712   -1.4219 H   0  0  0  0  0  0  0  0  0  0  0  0
   -2.1149   -0.1123   -1.4119 H   0  0  0  0  0  0  0  0  0  0  0  0
   -1.3618   -1.7159   -1.4012 H   0  0  0  0  0  0  0  0  0  0  0  0
  1  2  1  0
  1  4  1  0
  1  5  1  0
  2  3  1  0
  2  6  1  0
  2  7  1  0
  3  8  1  0
  3  9  1  0
  3 10  1  0
 11 12  1  0
 11 16  1  0
 11 17  1  0
 11 18  1  0
 12 13  1  0
 12 19  1  0
 12 20  1  0
 13 14  1  0
 14 15  1  0
 14 21  1  0
 14 22  1  0
 15 23  1  0
 15 24  1  0
 15 25  1  0
M  RAD  1   1   2
M  END
>  <reaction>  (17) 
rmg_rxn_499

>  <mol_properties>  (17) 
{"0": {"label": "*1", "atom_type": "Cs"}, "1": {"label": "*0", "atom_type": "Cs"}, "10": {"label": "*3", "atom_type": "Cs"}, "11": {"label": "*4", "atom_type": "Cs"}, "15": {"label": "*2", "atom_type": "H0"}}

>  <type>  (17) 
unop_13

>  <geom_source>  (17) 
gaussian_log

$$$$
