
     RDKit          3D

  9  8  0  0  0  0  0  0  0  0999 V2000
   -1.2461    0.5037    0.0950 C   0  0  0  0  0  0  0  0  0  0  0  0
   -0.0155   -0.3334    0.0640 C   0  0  0  0  0  0  0  0  0  0  0  0
    1.0697    0.1457   -0.3733 N   0  0  0  0  0  0  0  0  0  0  0  0
    2.1001   -0.7834   -0.3224 O   0  0  0  0  0  0  0  0  0  0  0  0
   -2.0357    0.0440   -0.5039 H   0  0  0  0  0  0  0  0  0  0  0  0
   -1.6237    0.5897    1.1166 H   0  0  0  0  0  0  0  0  0  0  0  0
   -1.0397    1.4998   -0.2929 H   0  0  0  0  0  0  0  0  0  0  0  0
   -0.0537   -1.3634    0.4205 H   0  0  0  0  0  0  0  0  0  0  0  0
    2.8478   -0.2985   -0.6758 H   0  0  0  0  0  0  0  0  0  0  0  0
  1  2  1  0
  1  5  1  0
  1  6  1  0
  1  7  1  0
  2  3  2  3
  2  8  1  0
  3  4  1  0
  4  9  1  0
M  END
>  <reaction>  (1) 
rmg_rxn_60

>  <mol_properties>  (1) 
{"3": {"label": "donator", "atom_type": "O2s"}, "8": {"label": "d_hydrogen", "atom_type": "H0"}}

>  <type>  (1) 
r1h

$$$$

     RDKit          3D

 14 13  0  0  0  0  0  0  0  0999 V2000
    2.6194    0.1388   -0.2451 C   0  0  0  0  0  0  0  0  0  0  0  0
    1.2416   -0.4914   -0.3670 C   0  0  0  0  0  0  0  0  0  0  0  0
    0.9567   -1.8675    0.7732 S   0  0  0  0  0  0  0  0  0  0  0  0
    1.9992   -3.0673    0.1320 C   0  0  0  0  0  3  0  0  0  0  0  0
    2.1769   -4.3519    0.8615 C   0  0  0  0  0  0  0  0  0  0  0  0
    3.4009   -0.5920   -0.4552 H   0  0  0  0  0  0  0  0  0  0  0  0
    2.7219    0.9635   -0.9540 H   0  0  0  0  0  0  0  0  0  0  0  0
    2.7821    0.5262    0.7612 H   0  0  0  0  0  0  0  0  0  0  0  0
    1.0587   -0.8507   -1.3815 H   0  0  0  0  0  0  0  0  0  0  0  0
    0.4587    0.2313   -0.1333 H   0  0  0  0  0  0  0  0  0  0  0  0
    2.2677   -2.9922   -0.9152 H   0  0  0  0  0  0  0  0  0  0  0  0
    1.3745   -5.0711    0.6500 H   0  0  0  0  0  0  0  0  0  0  0  0
    3.1173   -4.8269    0.5747 H   0  0  0  0  0  0  0  0  0  0  0  0
    2.1945   -4.1971    1.9428 H   0  0  0  0  0  0  0  0  0  0  0  0
  1  2  1  0
  1  6  1  0
  1  7  1  0
  1  8  1  0
  2  3  1  0
  2  9  1  0
  2 10  1  0
  3  4  1  0
  4  5  1  0
  4 11  1  0
  5 12  1  0
  5 13  1  0
  5 14  1  0
M  RAD  1   4   2
M  END
>  <reaction>  (2) 
rmg_rxn_60

>  <mol_properties>  (2) 
{"3": {"label": "acceptor", "atom_type": "Cs"}}

>  <type>  (2) 
r2

$$$$

     RDKit          3D

 15 14  0  0  0  0  0  0  0  0999 V2000
   -2.0554    0.0723   -0.4910 C   0  0  0  0  0  0  0  0  0  0  0  0
   -0.7461   -0.6266   -0.8178 C   0  0  0  0  0  0  0  0  0  0  0  0
    0.3249    0.2591   -1.9782 S   0  0  0  0  0  0  0  0  0  0  0  0
   -0.7172    0.3642   -3.4551 C   0  0  0  0  0  0  0  0  0  0  0  0
   -1.1375   -0.9737   -4.0409 C   0  0  0  0  0  0  0  0  0  0  0  0
   -2.7005    0.1427   -1.3684 H   0  0  0  0  0  0  0  0  0  0  0  0
   -2.6016   -0.4848    0.2733 H   0  0  0  0  0  0  0  0  0  0  0  0
   -1.8758    1.0825   -0.1213 H   0  0  0  0  0  0  0  0  0  0  0  0
   -0.1320   -0.7246    0.0789 H   0  0  0  0  0  0  0  0  0  0  0  0
   -0.9254   -1.6374   -1.1879 H   0  0  0  0  0  0  0  0  0  0  0  0
   -1.5873    0.9874   -3.2422 H   0  0  0  0  0  0  0  0  0  0  0  0
   -0.1021    0.9161   -4.1678 H   0  0  0  0  0  0  0  0  0  0  0  0
   -1.7876   -1.5224   -3.3574 H   0  0  0  0  0  0  0  0  0  0  0  0
   -0.2676   -1.5962   -4.2534 H   0  0  0  0  0  0  0  0  0  0  0  0
   -1.6916   -0.8229   -4.9700 H   0  0  0  0  0  0  0  0  0  0  0  0
  1  2  1  0
  1  6  1  0
  1  7  1  0
  1  8  1  0
  2  3  1  0
  2  9  1  0
  2 10  1  0
  3  4  1  0
  4  5  1  0
  4 11  1  0
  4 12  1  0
  5 13  1  0
  5 14  1  0
  5 15  1  0
M  END
>  <reaction>  (3) 
rmg_rxn_60

>  <mol_properties>  (3) 
{"0": {"label": "a_hydrogen", "atom_type": "H0"}, "4": {"label": "acceptor", "atom_type": "Cs"}}

>  <type>  (3) 
r2h

$$$$

     RDKit          3D

 23 21  0  0  0  0  0  0  0  0999 V2000
    0.6046   -2.4616   -2.9458 C   0  0  0  0  0  0  0  0  0  0  0  0
   -0.1455   -2.5004   -1.6584 C   0  0  0  0  0  0  0  0  0  0  0  0
    0.0739   -1.6265   -0.7644 N   0  0  0  0  0  0  0  0  0  0  0  0
   -0.6231   -1.7103    0.3529 O   0  0  0  0  0  0  0  0  0  0  0  0
    1.1652   -3.3875   -3.0975 H   0  0  0  0  0  0  0  0  0  0  0  0
   -0.0798   -2.3576   -3.7919 H   0  0  0  0  0  0  0  0  0  0  0  0
    1.3014   -1.6244   -2.9496 H   0  0  0  0  0  0  0  0  0  0  0  0
   -0.8842   -3.2843   -1.4881 H   0  0  0  0  0  0  0  0  0  0  0  0
   -0.2050   -0.7325    1.0186 H   0  0  0  0  0  0  0  0  0  0  0  0
   -1.3033    1.3879   -1.0891 C   0  0  0  0  0  0  0  0  0  0  0  0
   -0.3626    2.2374   -0.2488 C   0  0  0  0  0  0  0  0  0  0  0  0
    1.0107    1.3315    0.5028 S   0  0  0  0  0  0  0  0  0  0  0  0
    0.2404    0.2860    1.6696 C   0  0  0  0  0  3  0  0  0  0  0  0
   -0.9250    0.7860    2.4916 C   0  0  0  0  0  0  0  0  0  0  0  0
   -1.7900    0.6178   -0.4905 H   0  0  0  0  0  0  0  0  0  0  0  0
   -2.0762    2.0209   -1.5306 H   0  0  0  0  0  0  0  0  0  0  0  0
   -0.7606    0.8833   -1.8874 H   0  0  0  0  0  0  0  0  0  0  0  0
   -0.8997    2.7715    0.5360 H   0  0  0  0  0  0  0  0  0  0  0  0
    0.1320    2.9897   -0.8651 H   0  0  0  0  0  0  0  0  0  0  0  0
    1.0361   -0.1567    2.2691 H   0  0  0  0  0  0  0  0  0  0  0  0
   -1.7732    1.0640    1.8657 H   0  0  0  0  0  0  0  0  0  0  0  0
   -1.2605   -0.0042    3.1642 H   0  0  0  0  0  0  0  0  0  0  0  0
   -0.6461    1.6532    3.0961 H   0  0  0  0  0  0  0  0  0  0  0  0
  1  2  1  0
  1  5  1  0
  1  6  1  0
  1  7  1  0
  2  3  2  3
  2  8  1  0
  3  4  1  0
  4  9  1  0
 10 11  1  0
 10 15  1  0
 10 16  1  0
 10 17  1  0
 11 12  1  0
 11 18  1  0
 11 19  1  0
 12 13  1  0
 13 14  1  0
 13 20  1  0
 14 21  1  0
 14 22  1  0
 14 23  1  0
M  RAD  1  13   2
M  END
>  <reaction>  (4) 
rmg_rxn_60

>  <mol_properties>  (4) 
{"2": {"label": "*0", "atom_type": "N3d"}, "3": {"label": "*1", "atom_type": "O2s"}, "8": {"label": "*2", "atom_type": "H0"}, "11": {"label": "*4", "atom_type": "S2s"}, "12": {"label": "*3", "atom_type": "Cs"}}

>  <type>  (4) 
ts

$$$$

     RDKit          3D

 23 21  0  0  0  0  0  0  0  0999 V2000
    0.0655   -2.8576   -2.9553 C   0  0  0  0  0  0  0  0  0  0  0  0
    0.0655   -2.8576   -1.4667 C   0  0  0  0  0  0  0  0  0  0  0  0
    0.0655   -1.7655   -0.8299 N   0  0  0  0  0  0  0  0  0  0  0  0
    0.0655   -1.9702    0.5433 O   0  0  0  0  0  0  0  0  0  0  0  0
    0.9449   -3.3814   -3.3371 H   0  0  0  0  0  0  0  0  0  0  0  0
   -0.8139   -3.3814   -3.3371 H   0  0  0  0  0  0  0  0  0  0  0  0
    0.0655   -1.8379   -3.3368 H   0  0  0  0  0  0  0  0  0  0  0  0
    0.0655   -3.8051   -0.9265 H   0  0  0  0  0  0  0  0  0  0  0  0
    0.0655   -0.9005    0.9667 H   0  0  0  0  0  0  0  0  0  0  0  0
   -0.8354    1.9698   -1.2195 C   0  0  0  0  0  0  0  0  0  0  0  0
   -0.3052    2.7051    0.0002 C   0  0  0  0  0  0  0  0  0  0  0  0
    0.9550    1.8113    0.9443 S   0  0  0  0  0  0  0  0  0  0  0  0
    0.0655    0.3171    1.4486 C   0  0  0  0  0  3  0  0  0  0  0  0
   -1.1637    0.5610    2.3084 C   0  0  0  0  0  0  0  0  0  0  0  0
   -1.3788    1.0667   -0.9365 H   0  0  0  0  0  0  0  0  0  0  0  0
   -1.5265    2.6074   -1.7752 H   0  0  0  0  0  0  0  0  0  0  0  0
   -0.0208    1.6801   -1.8841 H   0  0  0  0  0  0  0  0  0  0  0  0
   -1.1200    2.9951    0.6657 H   0  0  0  0  0  0  0  0  0  0  0  0
    0.1991    3.6256   -0.2988 H   0  0  0  0  0  0  0  0  0  0  0  0
    0.8117   -0.2541    2.0034 H   0  0  0  0  0  0  0  0  0  0  0  0
   -1.9378    1.0961    1.7558 H   0  0  0  0  0  0  0  0  0  0  0  0
   -1.5919   -0.3892    2.6351 H   0  0  0  0  0  0  0  0  0  0  0  0
   -0.9108    1.1488    3.1914 H   0  0  0  0  0  0  0  0  0  0  0  0
  1  2  1  0
  1  5  1  0
  1  6  1  0
  1  7  1  0
  2  3  2  3
  2  8  1  0
  3  4  1  0
  4  9  1  0
 10 11  1  0
 10 15  1  0
 10 16  1  0
 10 17  1  0
 11 12  1  0
 11 18  1  0
 11 19  1  0
 12 13  1  0
 13 14  1  0
 13 20  1  0
 14 21  1  0
 14 22  1  0
 14 23  1  0
M  RAD  1  13   2
M  END
>  <reaction>  (5) 
rmg_rxn_60

>  <mol_properties>  (5) 
{"2": {"label": "*0", "atom_type": "N3d"}, "3": {"label": "*1", "atom_type": "O2s"}, "8": {"label": "*2", "atom_type": "H0"}, "11": {"label": "*4", "atom_type": "S2s"}, "12": {"label": "*3", "atom_type": "Cs"}}

>  <type>  (5) 
unop_1

>  <geom_source>  (5) 
Heuristics

$$$$

     RDKit          3D

 23 21  0  0  0  0  0  0  0  0999 V2000
   -0.7743   -2.4667   -3.2650 C   0  0  0  0  0  0  0  0  0  0  0  0
   -0.7743   -2.4667   -1.7763 C   0  0  0  0  0  0  0  0  0  0  0  0
   -0.7743   -1.3746   -1.1395 N   0  0  0  0  0  0  0  0  0  0  0  0
   -0.7743   -1.5793    0.2337 O   0  0  0  0  0  0  0  0  0  0  0  0
    0.1051   -2.9905   -3.6468 H   0  0  0  0  0  0  0  0  0  0  0  0
   -1.6538   -2.9905   -3.6468 H   0  0  0  0  0  0  0  0  0  0  0  0
   -0.7743   -1.4470   -3.6464 H   0  0  0  0  0  0  0  0  0  0  0  0
   -0.7743   -3.4142   -1.2362 H   0  0  0  0  0  0  0  0  0  0  0  0
   -0.7743   -0.5096    0.6571 H   0  0  0  0  0  0  0  0  0  0  0  0
    2.1614    0.6587   -0.2896 C   0  0  0  0  0  0  0  0  0  0  0  0
    1.7530    1.8268    0.5925 C   0  0  0  0  0  0  0  0  0  0  0  0
    0.6734    1.3961    1.9808 S   0  0  0  0  0  0  0  0  0  0  0  0
   -0.7743    0.7080    1.1390 C   0  0  0  0  0  3  0  0  0  0  0  0
   -1.4840    1.6654    0.1959 C   0  0  0  0  0  0  0  0  0  0  0  0
    1.3023    0.2314   -0.8096 H   0  0  0  0  0  0  0  0  0  0  0  0
    2.8733    0.9887   -1.0494 H   0  0  0  0  0  0  0  0  0  0  0  0
    2.6265   -0.1314    0.3010 H   0  0  0  0  0  0  0  0  0  0  0  0
    1.2875    2.6175    0.0019 H   0  0  0  0  0  0  0  0  0  0  0  0
    2.6290    2.2670    1.0720 H   0  0  0  0  0  0  0  0  0  0  0  0
   -1.4361    0.4176    1.9566 H   0  0  0  0  0  0  0  0  0  0  0  0
   -0.8506    1.9349   -0.6509 H   0  0  0  0  0  0  0  0  0  0  0  0
   -2.3876    1.2013   -0.2055 H   0  0  0  0  0  0  0  0  0  0  0  0
   -1.7663    2.5833    0.7128 H   0  0  0  0  0  0  0  0  0  0  0  0
  1  2  1  0
  1  5  1  0
  1  6  1  0
  1  7  1  0
  2  3  2  3
  2  8  1  0
  3  4  1  0
  4  9  1  0
 10 11  1  0
 10 15  1  0
 10 16  1  0
 10 17  1  0
 11 12  1  0
 11 18  1  0
 11 19  1  0
 12 13  1  0
 13 14  1  0
 13 20  1  0
 14 21  1  0
 14 22  1  0
 14 23  1  0
M  RAD  1  13   2
M  END
>  <reaction>  (6) 
rmg_rxn_60

>  <mol_properties>  (6) 
{"2": {"label": "*0", "atom_type": "N3d"}, "3": {"label": "*1", "atom_type": "O2s"}, "8": {"label": "*2", "atom_type": "H0"}, "11": {"label": "*4", "atom_type": "S2s"}, "12": {"label": "*3", "atom_type": "Cs"}}

>  <type>  (6) 
unop_2

>  <geom_source>  (6) 
Heuristics

$$$$

     RDKit          3D

 23 21  0  0  0  0  0  0  0  0999 V2000
    0.5027   -2.7064   -3.0142 C   0  0  0  0  0  0  0  0  0  0  0  0
    0.5027   -2.7064   -1.5255 C   0  0  0  0  0  0  0  0  0  0  0  0
    0.5027   -1.6143   -0.8888 N   0  0  0  0  0  0  0  0  0  0  0  0
    0.5027   -1.8190    0.4844 O   0  0  0  0  0  0  0  0  0  0  0  0
    1.3821   -3.2302   -3.3960 H   0  0  0  0  0  0  0  0  0  0  0  0
   -0.3767   -3.2302   -3.3960 H   0  0  0  0  0  0  0  0  0  0  0  0
    0.5027   -1.6867   -3.3956 H   0  0  0  0  0  0  0  0  0  0  0  0
    0.5027   -3.6539   -0.9854 H   0  0  0  0  0  0  0  0  0  0  0  0
    0.5027   -0.7493    0.9078 H   0  0  0  0  0  0  0  0  0  0  0  0
   -2.0119    1.2215   -0.5522 C   0  0  0  0  0  0  0  0  0  0  0  0
   -1.2820    2.3080    0.2200 C   0  0  0  0  0  0  0  0  0  0  0  0
    0.4898    2.0197    0.4563 S   0  0  0  0  0  0  0  0  0  0  0  0
    0.5027    0.4683    1.3897 C   0  0  0  0  0  3  0  0  0  0  0  0
   -0.2069    0.5211    2.7325 C   0  0  0  0  0  0  0  0  0  0  0  0
   -2.0187    0.2779   -0.0042 H   0  0  0  0  0  0  0  0  0  0  0  0
   -3.0518    1.5101   -0.7205 H   0  0  0  0  0  0  0  0  0  0  0  0
   -1.5398    1.0474   -1.5198 H   0  0  0  0  0  0  0  0  0  0  0  0
   -1.7540    2.4825    1.1883 H   0  0  0  0  0  0  0  0  0  0  0  0
   -1.3207    3.2536   -0.3234 H   0  0  0  0  0  0  0  0  0  0  0  0
    1.5645    0.2575    1.5276 H   0  0  0  0  0  0  0  0  0  0  0  0
   -1.2782    0.6906    2.6118 H   0  0  0  0  0  0  0  0  0  0  0  0
   -0.0829   -0.4252    3.2638 H   0  0  0  0  0  0  0  0  0  0  0  0
    0.1944    1.3224    3.3539 H   0  0  0  0  0  0  0  0  0  0  0  0
  1  2  1  0
  1  5  1  0
  1  6  1  0
  1  7  1  0
  2  3  2  3
  2  8  1  0
  3  4  1  0
  4  9  1  0
 10 11  1  0
 10 15  1  0
 10 16  1  0
 10 17  1  0
 11 12  1  0
 11 18  1  0
 11 19  1  0
 12 13  1  0
 13 14  1  0
 13 20  1  0
 14 21  1  0
 14 22  1  0
 14 23  1  0
M  RAD  1  13   2
M  END
>  <reaction>  (7) 
rmg_rxn_60

>  <mol_properties>  (7) 
{"2": {"label": "*0", "atom_type": "N3d"}, "3": {"label": "*1", "atom_type": "O2s"}, "8": {"label": "*2", "atom_type": "H0"}, "11": {"label": "*4", "atom_type": "S2s"}, "12": {"label": "*3", "atom_type": "Cs"}}

>  <type>  (7) 
unop_3

>  <geom_source>  (7) 
Heuristics

$$$$

     RDKit          3D

 23 20  0  0  0  0  0  0  0  0999 V2000
   -0.4462   -1.5254   -3.8166 C   0  0  0  0  0  0  0  0  0  0  0  0
   -0.4462   -1.5254   -2.3280 C   0  0  0  0  0  0  0  0  0  0  0  0
   -0.4462   -0.4333   -1.6912 N   0  0  0  0  0  2  0  0  0  0  0  0
   -0.4462   -0.6380   -0.3180 O   0  0  0  0  0  1  0  0  0  0  0  0
    0.4332   -2.0493   -4.1984 H   0  0  0  0  0  0  0  0  0  0  0  0
   -1.3256   -2.0492   -4.1984 H   0  0  0  0  0  0  0  0  0  0  0  0
   -0.4462   -0.5057   -4.1981 H   0  0  0  0  0  0  0  0  0  0  0  0
   -0.4462   -2.4729   -1.7878 H   0  0  0  0  0  0  0  0  0  0  0  0
   -0.4462    0.4316    0.1054 H   0  0  0  0  0  0  0  0  0  0  0  0
    0.8495   -1.3424    0.7696 C   0  0  0  0  0  0  0  0  0  0  0  0
    1.0977   -0.3264    1.8722 C   0  0  0  0  0  0  0  0  0  0  0  0
   -0.2736    0.8139    2.1844 S   0  0  0  0  0  0  0  0  0  0  0  0
   -0.4462    1.6492    0.5873 C   0  0  0  0  0  3  0  0  0  0  0  0
    0.7830    2.4155    0.1273 C   0  0  0  0  0  0  0  0  0  0  0  0
    0.7462   -0.8587   -0.2032 H   0  0  0  0  0  0  0  0  0  0  0  0
    1.6876   -2.0395    0.7014 H   0  0  0  0  0  0  0  0  0  0  0  0
   -0.0602   -1.9120    0.9625 H   0  0  0  0  0  0  0  0  0  0  0  0
    2.0078    0.2439    1.6795 H   0  0  0  0  0  0  0  0  0  0  0  0
    1.2393   -0.8301    2.8299 H   0  0  0  0  0  0  0  0  0  0  0  0
   -1.2850    2.3304    0.7402 H   0  0  0  0  0  0  0  0  0  0  0  0
    1.6210    1.7449   -0.0701 H   0  0  0  0  0  0  0  0  0  0  0  0
    0.5691    2.9538   -0.7987 H   0  0  0  0  0  0  0  0  0  0  0  0
    1.0975    3.1367    0.8825 H   0  0  0  0  0  0  0  0  0  0  0  0
  1  2  1  0
  1  5  1  0
  1  6  1  0
  1  7  1  0
  2  3  2  0
  2  8  1  0
  4  9  1  0
 10 11  1  0
 10 15  1  0
 10 16  1  0
 10 17  1  0
 11 12  1  0
 11 18  1  0
 11 19  1  0
 12 13  1  0
 13 14  1  0
 13 20  1  0
 14 21  1  0
 14 22  1  0
 14 23  1  0
M  RAD  3   3   2   4   2  13   2
M  END
>  <reaction>  (8) 
rmg_rxn_60

>  <mol_properties>  (8) 
{"2": {"label": "*0", "atom_type": "N3d"}, "3": {"label": "*1", "atom_type": "O2s"}, "8": {"label": "*2", "atom_type": "H0"}, "11": {"label": "*4", "atom_type": "S2s"}, "12": {"label": "*3", "atom_type": "Cs"}}

>  <type>  (8) 
unop_4

>  <geom_source>  (8) 
Heuristics

$$$$

     RDKit          3D

 23 21  0  0  0  0  0  0  0  0999 V2000
    0.8528   -2.1855   -3.3129 C   0  0  0  0  0  0  0  0  0  0  0  0
    0.8528   -2.1855   -1.8243 C   0  0  0  0  0  0  0  0  0  0  0  0
    0.8528   -1.0934   -1.1875 N   0  0  0  0  0  0  0  0  0  0  0  0
    0.8528   -1.2981    0.1857 O   0  0  0  0  0  0  0  0  0  0  0  0
    1.7322   -2.7093   -3.6947 H   0  0  0  0  0  0  0  0  0  0  0  0
   -0.0266   -2.7093   -3.6947 H   0  0  0  0  0  0  0  0  0  0  0  0
    0.8528   -1.1658   -3.6943 H   0  0  0  0  0  0  0  0  0  0  0  0
    0.8528   -3.1330   -1.2841 H   0  0  0  0  0  0  0  0  0  0  0  0
    0.8528   -0.2284    0.6091 H   0  0  0  0  0  0  0  0  0  0  0  0
   -2.0584   -0.3909    0.5598 C   0  0  0  0  0  0  0  0  0  0  0  0
   -1.9602    1.0731    0.9557 C   0  0  0  0  0  0  0  0  0  0  0  0
   -0.4937    1.9360    0.3368 S   0  0  0  0  0  0  0  0  0  0  0  0
    0.8528    0.9892    1.0910 C   0  0  0  0  0  3  0  0  0  0  0  0
    0.8528    0.9719    2.6106 C   0  0  0  0  0  0  0  0  0  0  0  0
   -1.2568   -0.9805    1.0078 H   0  0  0  0  0  0  0  0  0  0  0  0
   -3.0060   -0.8129    0.9020 H   0  0  0  0  0  0  0  0  0  0  0  0
   -1.9987   -0.5064   -0.5230 H   0  0  0  0  0  0  0  0  0  0  0  0
   -2.0198    1.1890    2.0391 H   0  0  0  0  0  0  0  0  0  0  0  0
   -2.7919    1.6390    0.5328 H   0  0  0  0  0  0  0  0  0  0  0  0
    1.7543    1.4759    0.7152 H   0  0  0  0  0  0  0  0  0  0  0  0
   -0.0224    0.4523    3.0042 H   0  0  0  0  0  0  0  0  0  0  0  0
    1.7378    0.4516    2.9834 H   0  0  0  0  0  0  0  0  0  0  0  0
    0.8526    1.9861    3.0116 H   0  0  0  0  0  0  0  0  0  0  0  0
  1  2  1  0
  1  5  1  0
  1  6  1  0
  1  7  1  0
  2  3  2  3
  2  8  1  0
  3  4  1  0
  4  9  1  0
 10 11  1  0
 10 15  1  0
 10 16  1  0
 10 17  1  0
 11 12  1  0
 11 18  1  0
 11 19  1  0
 12 13  1  0
 13 14  1  0
 13 20  1  0
 14 21  1  0
 14 22  1  0
 14 23  1  0
M  RAD  1  13   2
M  END
>  <reaction>  (9) 
rmg_rxn_60

>  <mol_properties>  (9) 
{"2": {"label": "*0", "atom_type": "N3d"}, "3": {"label": "*1", "atom_type": "O2s"}, "8": {"label": "*2", "atom_type": "H0"}, "11": {"label": "*4", "atom_type": "S2s"}, "12": {"label": "*3", "atom_type": "Cs"}}

>  <type>  (9) 
unop_5

>  <geom_source>  (9) 
Heuristics

$$$$

     RDKit          3D

 23 20  0  0  0  0  0  0  0  0999 V2000
   -0.1098   -1.4111   -3.8595 C   0  0  0  0  0  0  0  0  0  0  0  0
   -0.1098   -1.4111   -2.3708 C   0  0  0  0  0  0  0  0  0  0  0  0
   -0.1098   -0.3190   -1.7340 N   0  0  0  0  0  2  0  0  0  0  0  0
   -0.1098   -0.5237   -0.3608 O   0  0  0  0  0  0  0  0  0  0  0  0
    0.7696   -1.9349   -4.2413 H   0  0  0  0  0  0  0  0  0  0  0  0
   -0.9892   -1.9349   -4.2413 H   0  0  0  0  0  0  0  0  0  0  0  0
   -0.1098   -0.3914   -4.2409 H   0  0  0  0  0  0  0  0  0  0  0  0
   -0.1098   -2.3586   -1.8307 H   0  0  0  0  0  0  0  0  0  0  0  0
   -0.1098    0.5460    0.0625 H   0  0  0  0  0  0  0  0  0  0  0  0
    0.4509   -1.4463    0.7542 C   0  0  0  0  0  3  0  0  0  0  0  0
    0.3765   -0.5932    2.0097 C   0  0  0  0  0  0  0  0  0  0  0  0
   -0.7791    0.7978    1.9219 S   0  0  0  0  0  0  0  0  0  0  0  0
   -0.1098    1.7636    0.5444 C   0  0  0  0  0  3  0  0  0  0  0  0
    1.3095    2.2686    0.7443 C   0  0  0  0  0  0  0  0  0  0  0  0
    0.8559   -0.8829   -0.0881 H   0  0  0  0  0  0  0  0  0  0  0  0
    1.1050   -2.3055    0.9184 H   0  0  0  0  0  0  0  0  0  0  0  0
   -0.5372   -1.8120    0.4728 H   0  0  0  0  0  0  0  0  0  0  0  0
    1.3651   -0.2270    2.2916 H   0  0  0  0  0  0  0  0  0  0  0  0
    0.0085   -1.1835    2.8505 H   0  0  0  0  0  0  0  0  0  0  0  0
   -0.8034    2.6012    0.4538 H   0  0  0  0  0  0  0  0  0  0  0  0
    2.0231    1.4446    0.7962 H   0  0  0  0  0  0  0  0  0  0  0  0
    1.6057    2.9064   -0.0914 H   0  0  0  0  0  0  0  0  0  0  0  0
    1.3914    2.8455    1.6662 H   0  0  0  0  0  0  0  0  0  0  0  0
  1  2  1  0
  1  5  1  0
  1  6  1  0
  1  7  1  0
  2  3  2  0
  2  8  1  0
  4  9  1  0
  4 15  1  0
 10 11  1  0
 10 16  1  0
 10 17  1  0
 11 12  1  0
 11 18  1  0
 11 19  1  0
 12 13  1  0
 13 14  1  0
 13 20  1  0
 14 21  1  0
 14 22  1  0
 14 23  1  0
M  CHG  2  10  -1  13   1
M  RAD  1   3   2
M  END
>  <reaction>  (10) 
rmg_rxn_60

>  <mol_properties>  (10) 
{"2": {"label": "*0", "atom_type": "N3d"}, "3": {"label": "*1", "atom_type": "O2s"}, "8": {"label": "*2", "atom_type": "H0"}, "11": {"label": "*4", "atom_type": "S2s"}, "12": {"label": "*3", "atom_type": "Cs"}}

>  <type>  (10) 
unop_6

>  <geom_source>  (10) 
Heuristics

$$$$

     RDKit          3D

 23 20  0  0  0  0  0  0  0  0999 V2000
    0.2539   -1.4222   -3.8192 C   0  0  0  0  0  0  0  0  0  0  0  0
    0.2539   -1.4222   -2.3305 C   0  0  0  0  0  0  0  0  0  0  0  0
    0.2539   -0.3301   -1.6938 N   0  0  0  0  0  2  0  0  0  0  0  0
    0.2539   -0.5348   -0.3206 O   0  0  0  0  0  0  0  0  0  0  0  0
    1.1333   -1.9460   -4.2010 H   0  0  0  0  0  0  0  0  0  0  0  0
   -0.6255   -1.9460   -4.2010 H   0  0  0  0  0  0  0  0  0  0  0  0
    0.2539   -0.4025   -4.2006 H   0  0  0  0  0  0  0  0  0  0  0  0
    0.2539   -2.3697   -1.7904 H   0  0  0  0  0  0  0  0  0  0  0  0
    0.2539    0.5349    0.1028 H   0  0  0  0  0  0  0  0  0  0  0  0
    0.0644   -1.4951    0.8658 C   0  0  0  0  0  3  0  0  0  0  0  0
   -0.4290   -0.5944    1.9860 C   0  0  0  0  0  0  0  0  0  0  0  0
   -1.1399    0.9803    1.4445 S   0  0  0  0  0  0  0  0  0  0  0  0
    0.2539    1.7525    0.5847 C   0  0  0  0  0  3  0  0  0  0  0  0
    1.4831    1.9964    1.4445 C   0  0  0  0  0  0  0  0  0  0  0  0
    0.9081   -1.0488    0.3367 H   0  0  0  0  0  0  0  0  0  0  0  0
    0.4006   -2.4525    1.2699 H   0  0  0  0  0  0  0  0  0  0  0  0
   -0.7278   -1.6843    0.1406 H   0  0  0  0  0  0  0  0  0  0  0  0
    0.3635   -0.4048    2.7118 H   0  0  0  0  0  0  0  0  0  0  0  0
   -1.2448   -1.0740    2.5295 H   0  0  0  0  0  0  0  0  0  0  0  0
   -0.1546    2.6988    0.2263 H   0  0  0  0  0  0  0  0  0  0  0  0
    1.9294    1.0583    1.7785 H   0  0  0  0  0  0  0  0  0  0  0  0
    2.2428    2.5360    0.8746 H   0  0  0  0  0  0  0  0  0  0  0  0
    1.2302    2.5841    2.3277 H   0  0  0  0  0  0  0  0  0  0  0  0
  1  2  1  0
  1  5  1  0
  1  6  1  0
  1  7  1  0
  2  3  2  0
  2  8  1  0
  4  9  1  0
  4 15  1  0
 10 11  1  0
 10 16  1  0
 10 17  1  0
 11 12  1  0
 11 18  1  0
 11 19  1  0
 12 13  1  0
 13 14  1  0
 13 20  1  0
 14 21  1  0
 14 22  1  0
 14 23  1  0
M  CHG  2  10  -1  13   1
M  RAD  1   3   2
M  END
>  <reaction>  (11) 
rmg_rxn_60

>  <mol_properties>  (11) 
{"2": {"label": "*0", "atom_type": "N3d"}, "3": {"label": "*1", "atom_type": "O2s"}, "8": {"label": "*2", "atom_type": "H0"}, "11": {"label": "*4", "atom_type": "S2s"}, "12": {"label": "*3", "atom_type": "Cs"}}

>  <type>  (11) 
unop_7

>  <geom_source>  (11) 
Heuristics

$$$$

     RDKit          3D

 23 21  0  0  0  0  0  0  0  0999 V2000
   -0.2761   -2.8345   -3.0029 C   0  0  0  0  0  0  0  0  0  0  0  0
   -0.2761   -2.8345   -1.5142 C   0  0  0  0  0  0  0  0  0  0  0  0
   -0.2761   -1.7424   -0.8774 N   0  0  0  0  0  0  0  0  0  0  0  0
   -0.2761   -1.9471    0.4958 O   0  0  0  0  0  0  0  0  0  0  0  0
    0.6034   -3.3583   -3.3847 H   0  0  0  0  0  0  0  0  0  0  0  0
   -1.1555   -3.3583   -3.3847 H   0  0  0  0  0  0  0  0  0  0  0  0
   -0.2761   -1.8148   -3.3843 H   0  0  0  0  0  0  0  0  0  0  0  0
   -0.2761   -3.7820   -0.9741 H   0  0  0  0  0  0  0  0  0  0  0  0
   -0.2761   -0.8775    0.9192 H   0  0  0  0  0  0  0  0  0  0  0  0
    0.4805    1.9895   -1.3135 C   0  0  0  0  0  0  0  0  0  0  0  0
    0.5105    2.6787    0.0406 C   0  0  0  0  0  0  0  0  0  0  0  0
    1.0025    1.6219    1.4260 S   0  0  0  0  0  0  0  0  0  0  0  0
   -0.2761    0.3401    1.4011 C   0  0  0  0  0  3  0  0  0  0  0  0
   -1.6954    0.8452    1.6010 C   0  0  0  0  0  0  0  0  0  0  0  0
   -0.2872    1.2148   -1.3506 H   0  0  0  0  0  0  0  0  0  0  0  0
    0.2552    2.7120   -2.1012 H   0  0  0  0  0  0  0  0  0  0  0  0
    1.4416    1.5242   -1.5350 H   0  0  0  0  0  0  0  0  0  0  0  0
   -0.4511    3.1444    0.2626 H   0  0  0  0  0  0  0  0  0  0  0  0
    1.2548    3.4766    0.0460 H   0  0  0  0  0  0  0  0  0  0  0  0
    0.0096   -0.3270    2.2160 H   0  0  0  0  0  0  0  0  0  0  0  0
   -2.0130    1.4821    0.7736 H   0  0  0  0  0  0  0  0  0  0  0  0
   -2.3921    0.0057    1.6542 H   0  0  0  0  0  0  0  0  0  0  0  0
   -1.7772    1.4223    2.5227 H   0  0  0  0  0  0  0  0  0  0  0  0
  1  2  1  0
  1  5  1  0
  1  6  1  0
  1  7  1  0
  2  3  2  3
  2  8  1  0
  3  4  1  0
  4  9  1  0
 10 11  1  0
 10 15  1  0
 10 16  1  0
 10 17  1  0
 11 12  1  0
 11 18  1  0
 11 19  1  0
 12 13  1  0
 13 14  1  0
 13 20  1  0
 14 21  1  0
 14 22  1  0
 14 23  1  0
M  RAD  1  13   2
M  END
>  <reaction>  (12) 
rmg_rxn_60

>  <mol_properties>  (12) 
{"2": {"label": "*0", "atom_type": "N3d"}, "3": {"label": "*1", "atom_type": "O2s"}, "8": {"label": "*2", "atom_type": "H0"}, "11": {"label": "*4", "atom_type": "S2s"}, "12": {"label": "*3", "atom_type": "Cs"}}

>  <type>  (12) 
unop_8

>  <geom_source>  (12) 
Heuristics

$$$$

     RDKit          3D

 23 21  0  0  0  0  0  0  0  0999 V2000
   -0.7244   -1.7692   -3.6847 C   0  0  0  0  0  0  0  0  0  0  0  0
   -0.7244   -1.7692   -2.1960 C   0  0  0  0  0  0  0  0  0  0  0  0
   -0.7244   -0.6771   -1.5592 N   0  0  0  0  0  0  0  0  0  0  0  0
   -0.7244   -0.8818   -0.1860 O   0  0  0  0  0  0  0  0  0  0  0  0
    0.1550   -2.2930   -4.0665 H   0  0  0  0  0  0  0  0  0  0  0  0
   -1.6038   -2.2930   -4.0665 H   0  0  0  0  0  0  0  0  0  0  0  0
   -0.7244   -0.7495   -4.0661 H   0  0  0  0  0  0  0  0  0  0  0  0
   -0.7244   -2.7167   -1.6559 H   0  0  0  0  0  0  0  0  0  0  0  0
   -0.7244    0.1879    0.2373 H   0  0  0  0  0  0  0  0  0  0  0  0
    1.4563   -1.0249    0.7236 C   0  0  0  0  0  0  0  0  0  0  0  0
    1.6920    0.2236    1.5574 C   0  0  0  0  0  0  0  0  0  0  0  0
    0.1942    0.9924    2.2238 S   0  0  0  0  0  0  0  0  0  0  0  0
   -0.7244    1.4055    0.7192 C   0  0  0  0  0  3  0  0  0  0  0  0
   -0.0147    2.3629   -0.2238 C   0  0  0  0  0  0  0  0  0  0  0  0
    0.9064   -0.7965   -0.1910 H   0  0  0  0  0  0  0  0  0  0  0  0
    2.4096   -1.4699    0.4302 H   0  0  0  0  0  0  0  0  0  0  0  0
    0.8862   -1.7661    1.2848 H   0  0  0  0  0  0  0  0  0  0  0  0
    2.2623    0.9656    0.9961 H   0  0  0  0  0  0  0  0  0  0  0  0
    2.2777   -0.0165    2.4462 H   0  0  0  0  0  0  0  0  0  0  0  0
   -1.6470    1.8524    1.0932 H   0  0  0  0  0  0  0  0  0  0  0  0
    0.8900    1.9165   -0.6398 H   0  0  0  0  0  0  0  0  0  0  0  0
   -0.6666    2.6227   -1.0608 H   0  0  0  0  0  0  0  0  0  0  0  0
    0.2678    3.2807    0.2931 H   0  0  0  0  0  0  0  0  0  0  0  0
  1  2  1  0
  1  5  1  0
  1  6  1  0
  1  7  1  0
  2  3  2  3
  2  8  1  0
  3  4  1  0
  4  9  1  0
 10 11  1  0
 10 15  1  0
 10 16  1  0
 10 17  1  0
 11 12  1  0
 11 18  1  0
 11 19  1  0
 12 13  1  0
 13 14  1  0
 13 20  1  0
 14 21  1  0
 14 22  1  0
 14 23  1  0
M  RAD  1  13   2
M  END
>  <reaction>  (13) 
rmg_rxn_60

>  <mol_properties>  (13) 
{"2": {"label": "*0", "atom_type": "N3d"}, "3": {"label": "*1", "atom_type": "O2s"}, "8": {"label": "*2", "atom_type": "H0"}, "11": {"label": "*4", "atom_type": "S2s"}, "12": {"label": "*3", "atom_type": "Cs"}}

>  <type>  (13) 
unop_9

>  <geom_source>  (13) 
Heuristics

$$$$

     RDKit          3D

 23 21  0  0  0  0  0  0  0  0999 V2000
   -0.5567   -2.7074   -3.1053 C   0  0  0  0  0  0  0  0  0  0  0  0
   -0.5567   -2.7074   -1.6167 C   0  0  0  0  0  0  0  0  0  0  0  0
   -0.5567   -1.6153   -0.9799 N   0  0  0  0  0  0  0  0  0  0  0  0
   -0.5567   -1.8200    0.3933 O   0  0  0  0  0  0  0  0  0  0  0  0
    0.3227   -3.2312   -3.4871 H   0  0  0  0  0  0  0  0  0  0  0  0
   -1.4362   -3.2312   -3.4871 H   0  0  0  0  0  0  0  0  0  0  0  0
   -0.5567   -1.6877   -3.4868 H   0  0  0  0  0  0  0  0  0  0  0  0
   -0.5567   -3.6549   -1.0765 H   0  0  0  0  0  0  0  0  0  0  0  0
   -0.5567   -0.7503    0.8167 H   0  0  0  0  0  0  0  0  0  0  0  0
    1.5714    1.5106   -0.9474 C   0  0  0  0  0  0  0  0  0  0  0  0
    1.2077    2.3904    0.2372 C   0  0  0  0  0  0  0  0  0  0  0  0
    0.8542    1.4982    1.7726 S   0  0  0  0  0  0  0  0  0  0  0  0
   -0.5567    0.4673    1.2986 C   0  0  0  0  0  3  0  0  0  0  0  0
   -1.7859    1.2336    0.8386 C   0  0  0  0  0  0  0  0  0  0  0  0
    0.7319    0.8831   -1.2515 H   0  0  0  0  0  0  0  0  0  0  0  0
    1.8478    2.1267   -1.8059 H   0  0  0  0  0  0  0  0  0  0  0  0
    2.4109    0.8581   -0.7046 H   0  0  0  0  0  0  0  0  0  0  0  0
    0.3677    3.0433   -0.0052 H   0  0  0  0  0  0  0  0  0  0  0  0
    2.0443    3.0395    0.5012 H   0  0  0  0  0  0  0  0  0  0  0  0
   -0.7782   -0.1011    2.2034 H   0  0  0  0  0  0  0  0  0  0  0  0
   -1.5946    1.7760   -0.0888 H   0  0  0  0  0  0  0  0  0  0  0  0
   -2.6129    0.5452    0.6509 H   0  0  0  0  0  0  0  0  0  0  0  0
   -2.1003    1.9549    1.5937 H   0  0  0  0  0  0  0  0  0  0  0  0
  1  2  1  0
  1  5  1  0
  1  6  1  0
  1  7  1  0
  2  3  2  3
  2  8  1  0
  3  4  1  0
  4  9  1  0
 10 11  1  0
 10 15  1  0
 10 16  1  0
 10 17  1  0
 11 12  1  0
 11 18  1  0
 11 19  1  0
 12 13  1  0
 13 14  1  0
 13 20  1  0
 14 21  1  0
 14 22  1  0
 14 23  1  0
M  RAD  1  13   2
M  END
>  <reaction>  (14) 
rmg_rxn_60

>  <mol_properties>  (14) 
{"2": {"label": "*0", "atom_type": "N3d"}, "3": {"label": "*1", "atom_type": "O2s"}, "8": {"label": "*2", "atom_type": "H0"}, "11": {"label": "*4", "atom_type": "S2s"}, "12": {"label": "*3", "atom_type": "Cs"}}

>  <type>  (14) 
unop_10

>  <geom_source>  (14) 
Heuristics

$$$$

     RDKit          3D

 23 20  0  0  0  0  0  0  0  0999 V2000
    0.6466   -1.6266   -3.6640 C   0  0  0  0  0  0  0  0  0  0  0  0
    0.6466   -1.6266   -2.1753 C   0  0  0  0  0  0  0  0  0  0  0  0
    0.6466   -0.5346   -1.5385 N   0  0  0  0  0  2  0  0  0  0  0  0
    0.6466   -0.7392   -0.1653 O   0  0  0  0  0  1  0  0  0  0  0  0
    1.5260   -2.1505   -4.0458 H   0  0  0  0  0  0  0  0  0  0  0  0
   -0.2328   -2.1505   -4.0458 H   0  0  0  0  0  0  0  0  0  0  0  0
    0.6466   -0.6069   -4.0454 H   0  0  0  0  0  0  0  0  0  0  0  0
    0.6466   -2.5742   -1.6352 H   0  0  0  0  0  0  0  0  0  0  0  0
    0.6466    0.3304    0.2580 H   0  0  0  0  0  0  0  0  0  0  0  0
   -0.7622   -1.3847    1.0162 C   0  0  0  0  0  0  0  0  0  0  0  0
   -1.3597   -0.1738    1.7136 C   0  0  0  0  0  0  0  0  0  0  0  0
   -1.1551    1.3946    0.8325 S   0  0  0  0  0  0  0  0  0  0  0  0
    0.6466    1.5480    0.7399 C   0  0  0  0  0  3  0  0  0  0  0  0
    1.3562    1.6008    2.0828 C   0  0  0  0  0  0  0  0  0  0  0  0
    0.3249   -1.3134    0.9534 H   0  0  0  0  0  0  0  0  0  0  0  0
   -0.9993   -2.2958    1.5699 H   0  0  0  0  0  0  0  0  0  0  0  0
   -1.1538   -1.4832    0.0032 H   0  0  0  0  0  0  0  0  0  0  0  0
   -0.9681   -0.0748    2.7273 H   0  0  0  0  0  0  0  0  0  0  0  0
   -2.4419   -0.2813    1.8039 H   0  0  0  0  0  0  0  0  0  0  0  0
    0.7998    2.4786    0.1909 H   0  0  0  0  0  0  0  0  0  0  0  0
    1.2480    0.6622    2.6289 H   0  0  0  0  0  0  0  0  0  0  0  0
    2.4249    1.7751    1.9397 H   0  0  0  0  0  0  0  0  0  0  0  0
    0.9547    2.4020    2.7042 H   0  0  0  0  0  0  0  0  0  0  0  0
  1  2  1  0
  1  5  1  0
  1  6  1  0
  1  7  1  0
  2  3  2  0
  2  8  1  0
  4  9  1  0
 10 11  1  0
 10 15  1  0
 10 16  1  0
 10 17  1  0
 11 12  1  0
 11 18  1  0
 11 19  1  0
 12 13  1  0
 13 14  1  0
 13 20  1  0
 14 21  1  0
 14 22  1  0
 14 23  1  0
M  RAD  3   3   2   4   2  13   2
M  END
>  <reaction>  (15) 
rmg_rxn_60

>  <mol_properties>  (15) 
{"2": {"label": "*0", "atom_type": "N3d"}, "3": {"label": "*1", "atom_type": "O2s"}, "8": {"label": "*2", "atom_type": "H0"}, "11": {"label": "*4", "atom_type": "S2s"}, "12": {"label": "*3", "atom_type": "Cs"}}

>  <type>  (15) 
unop_11

>  <geom_source>  (15) 
Heuristics

$$$$

     RDKit          3D

 23 21  0  0  0  0  0  0  0  0999 V2000
   -0.8528   -2.1202   -3.4780 C   0  0  0  0  0  0  0  0  0  0  0  0
   -0.8528   -2.1202   -1.9893 C   0  0  0  0  0  0  0  0  0  0  0  0
   -0.8528   -1.0281   -1.3525 N   0  0  0  0  0  0  0  0  0  0  0  0
   -0.8528   -1.2328    0.0207 O   0  0  0  0  0  0  0  0  0  0  0  0
    0.0266   -2.6440   -3.8598 H   0  0  0  0  0  0  0  0  0  0  0  0
   -1.7322   -2.6440   -3.8598 H   0  0  0  0  0  0  0  0  0  0  0  0
   -0.8528   -1.1005   -3.8594 H   0  0  0  0  0  0  0  0  0  0  0  0
   -0.8528   -3.0677   -1.4492 H   0  0  0  0  0  0  0  0  0  0  0  0
   -0.8528   -0.1631    0.4440 H   0  0  0  0  0  0  0  0  0  0  0  0
    2.0584   -0.3153    0.3688 C   0  0  0  0  0  0  0  0  0  0  0  0
    1.9602    1.0230    1.0820 C   0  0  0  0  0  0  0  0  0  0  0  0
    0.4937    1.2287    2.1238 S   0  0  0  0  0  0  0  0  0  0  0  0
   -0.8528    1.0545    0.9259 C   0  0  0  0  0  3  0  0  0  0  0  0
   -0.8528    2.0819   -0.1939 C   0  0  0  0  0  0  0  0  0  0  0  0
    1.2568   -0.4386   -0.3614 H   0  0  0  0  0  0  0  0  0  0  0  0
    3.0060   -0.3889   -0.1695 H   0  0  0  0  0  0  0  0  0  0  0  0
    1.9987   -1.1405    1.0792 H   0  0  0  0  0  0  0  0  0  0  0  0
    2.0198    1.8490    0.3714 H   0  0  0  0  0  0  0  0  0  0  0  0
    2.7919    1.1463    1.7777 H   0  0  0  0  0  0  0  0  0  0  0  0
   -1.7543    1.1522    1.5331 H   0  0  0  0  0  0  0  0  0  0  0  0
    0.0224    1.9723   -0.8365 H   0  0  0  0  0  0  0  0  0  0  0  0
   -1.7378    1.9576   -0.8218 H   0  0  0  0  0  0  0  0  0  0  0  0
   -0.8526    3.0958    0.2078 H   0  0  0  0  0  0  0  0  0  0  0  0
  1  2  1  0
  1  5  1  0
  1  6  1  0
  1  7  1  0
  2  3  2  3
  2  8  1  0
  3  4  1  0
  4  9  1  0
 10 11  1  0
 10 15  1  0
 10 16  1  0
 10 17  1  0
 11 12  1  0
 11 18  1  0
 11 19  1  0
 12 13  1  0
 13 14  1  0
 13 20  1  0
 14 21  1  0
 14 22  1  0
 14 23  1  0
M  RAD  1  13   2
M  END
>  <reaction>  (16) 
rmg_rxn_60

>  <mol_properties>  (16) 
{"2": {"label": "*0", "atom_type": "N3d"}, "3": {"label": "*1", "atom_type": "O2s"}, "8": {"label": "*2", "atom_type": "H0"}, "11": {"label": "*4", "atom_type": "S2s"}, "12": {"label": "*3", "atom_type": "Cs"}}

>  <type>  (16) 
unop_12

>  <geom_source>  (16) 
Heuristics

$$$$

     RDKit          3D

 23 21  0  0  0  0  0  0  0  0999 V2000
    1.8184    1.4468    0.3093 S   0  0  0  0  0  0  0  0  0  0  0  0
   -1.0148   -1.0856   -0.2595 O   0  0  0  0  0  0  0  0  0  0  0  0
   -2.3685   -1.0684   -0.0179 N   0  0  0  0  0  0  0  0  0  0  0  0
    0.6916    0.5529   -0.8183 C   0  0  0  0  0  3  0  0  0  0  0  0
    2.2191    0.0067    1.3577 C   0  0  0  0  0  0  0  0  0  0  0  0
    1.4643   -0.0617   -1.9770 C   0  0  0  0  0  0  0  0  0  0  0  0
    3.2351    0.4056    2.4171 C   0  0  0  0  0  0  0  0  0  0  0  0
   -4.6062   -0.2452   -0.3916 C   0  0  0  0  0  0  0  0  0  0  0  0
   -3.1403   -0.2550   -0.6617 C   0  0  0  0  0  0  0  0  0  0  0  0
   -0.0406    1.2821   -1.2244 H   0  0  0  0  0  0  0  0  0  0  0  0
    0.0348   -0.3606   -0.1964 H   0  0  0  0  0  0  0  0  0  0  0  0
    2.6440   -0.8101    0.7379 H   0  0  0  0  0  0  0  0  0  0  0  0
    1.2971   -0.3579    1.8585 H   0  0  0  0  0  0  0  0  0  0  0  0
    2.0179    0.7270   -2.5293 H   0  0  0  0  0  0  0  0  0  0  0  0
    2.1818   -0.8219   -1.6060 H   0  0  0  0  0  0  0  0  0  0  0  0
    0.7549   -0.5554   -2.6736 H   0  0  0  0  0  0  0  0  0  0  0  0
    4.1698    0.7627    1.9349 H   0  0  0  0  0  0  0  0  0  0  0  0
    3.4740   -0.4719    3.0542 H   0  0  0  0  0  0  0  0  0  0  0  0
    2.8218    1.2121    3.0592 H   0  0  0  0  0  0  0  0  0  0  0  0
   -5.0362   -1.2444   -0.6135 H   0  0  0  0  0  0  0  0  0  0  0  0
   -4.7905    0.0075    0.6737 H   0  0  0  0  0  0  0  0  0  0  0  0
   -5.1018    0.5125   -1.0340 H   0  0  0  0  0  0  0  0  0  0  0  0
   -2.7258    0.4220   -1.3994 H   0  0  0  0  0  0  0  0  0  0  0  0
  1  4  1  0
  1  5  1  0
  2  3  1  0
  2 11  1  0
  3  9  2  3
  4  6  1  0
  4 10  1  0
  5  7  1  0
  5 12  1  0
  5 13  1  0
  6 14  1  0
  6 15  1  0
  6 16  1  0
  7 17  1  0
  7 18  1  0
  7 19  1  0
  8  9  1  0
  8 20  1  0
  8 21  1  0
  8 22  1  0
  9 23  1  0
M  RAD  1   4   2
M  END
>  <reaction>  (17) 
rmg_rxn_60

>  <mol_properties>  (17) 
{"2": {"label": "*0", "atom_type": "N3d"}, "3": {"label": "*1", "atom_type": "O2s"}, "8": {"label": "*2", "atom_type": "H0"}, "11": {"label": "*4", "atom_type": "S2s"}, "12": {"label": "*3", "atom_type": "Cs"}}

>  <type>  (17) 
unop_13

>  <geom_source>  (17) 
AutoTST

$$$$

     RDKit          3D

 23 21  0  0  0  0  0  0  0  0999 V2000
   -0.7743   -2.4667   -3.2649 C   0  0  0  0  0  0  0  0  0  0  0  0
   -0.7743   -2.4667   -1.7763 C   0  0  0  0  0  0  0  0  0  0  0  0
   -0.7743   -1.3746   -1.1395 N   0  0  0  0  0  0  0  0  0  0  0  0
   -0.7743   -1.5793    0.2337 O   0  0  0  0  0  0  0  0  0  0  0  0
    0.1051   -2.9905   -3.6467 H   0  0  0  0  0  0  0  0  0  0  0  0
   -1.6538   -2.9905   -3.6467 H   0  0  0  0  0  0  0  0  0  0  0  0
   -0.7743   -1.4470   -3.6464 H   0  0  0  0  0  0  0  0  0  0  0  0
   -0.7743   -3.4142   -1.2362 H   0  0  0  0  0  0  0  0  0  0  0  0
   -0.7743   -0.5096    0.6571 H   0  0  0  0  0  0  0  0  0  0  0  0
    2.1614    0.6587   -0.2896 C   0  0  0  0  0  0  0  0  0  0  0  0
    1.7530    1.8268    0.5926 C   0  0  0  0  0  0  0  0  0  0  0  0
    0.6734    1.3962    1.9808 S   0  0  0  0  0  0  0  0  0  0  0  0
   -0.7743    0.7080    1.1390 C   0  0  0  0  0  3  0  0  0  0  0  0
   -1.4840    1.6654    0.1959 C   0  0  0  0  0  0  0  0  0  0  0  0
    1.3023    0.2314   -0.8096 H   0  0  0  0  0  0  0  0  0  0  0  0
    2.8733    0.9887   -1.0494 H   0  0  0  0  0  0  0  0  0  0  0  0
    2.6265   -0.1314    0.3010 H   0  0  0  0  0  0  0  0  0  0  0  0
    1.2875    2.6176    0.0019 H   0  0  0  0  0  0  0  0  0  0  0  0
    2.6290    2.2670    1.0720 H   0  0  0  0  0  0  0  0  0  0  0  0
   -1.4361    0.4176    1.9566 H   0  0  0  0  0  0  0  0  0  0  0  0
   -0.8506    1.9348   -0.6509 H   0  0  0  0  0  0  0  0  0  0  0  0
   -2.3876    1.2013   -0.2055 H   0  0  0  0  0  0  0  0  0  0  0  0
   -1.7663    2.5833    0.7127 H   0  0  0  0  0  0  0  0  0  0  0  0
  1  2  1  0
  1  5  1  0
  1  6  1  0
  1  7  1  0
  2  3  2  3
  2  8  1  0
  3  4  1  0
  4  9  1  0
 10 11  1  0
 10 15  1  0
 10 16  1  0
 10 17  1  0
 11 12  1  0
 11 18  1  0
 11 19  1  0
 12 13  1  0
 13 14  1  0
 13 20  1  0
 14 21  1  0
 14 22  1  0
 14 23  1  0
M  RAD  1  13   2
M  END
>  <reaction>  (18) 
rmg_rxn_60

>  <mol_properties>  (18) 
{"2": {"label": "*0", "atom_type": "N3d"}, "3": {"label": "*1", "atom_type": "O2s"}, "8": {"label": "*2", "atom_type": "H0"}, "11": {"label": "*4", "atom_type": "S2s"}, "12": {"label": "*3", "atom_type": "Cs"}}

>  <type>  (18) 
unop_14

>  <geom_source>  (18) 
gaussian_log

$$$$
