
     RDKit          3D

 14 13  0  0  0  0  0  0  0  0999 V2000
    1.8106   -0.5953    0.5577 C   0  0  0  0  0  0  0  0  0  0  0  0
    0.5197    0.2064    0.6554 C   0  0  0  0  0  0  0  0  0  0  0  0
   -0.5206   -0.2080   -0.3788 C   0  0  0  0  0  0  0  0  0  0  0  0
   -1.8114    0.5937   -0.2812 C   0  0  0  0  0  0  0  0  0  0  0  0
    2.2725   -0.4752   -0.4251 H   0  0  0  0  0  0  0  0  0  0  0  0
    1.6214   -1.6612    0.7052 H   0  0  0  0  0  0  0  0  0  0  0  0
    2.5364   -0.2784    1.3084 H   0  0  0  0  0  0  0  0  0  0  0  0
    0.0930    0.0950    1.6574 H   0  0  0  0  0  0  0  0  0  0  0  0
    0.7393    1.2723    0.5354 H   0  0  0  0  0  0  0  0  0  0  0  0
   -0.7402   -1.2739   -0.2588 H   0  0  0  0  0  0  0  0  0  0  0  0
   -0.0938   -0.0965   -1.3808 H   0  0  0  0  0  0  0  0  0  0  0  0
   -1.6222    1.6596   -0.4287 H   0  0  0  0  0  0  0  0  0  0  0  0
   -2.2734    0.4736    0.7017 H   0  0  0  0  0  0  0  0  0  0  0  0
   -2.5373    0.2768   -1.0318 H   0  0  0  0  0  0  0  0  0  0  0  0
  1  2  1  0
  1  5  1  0
  1  6  1  0
  1  7  1  0
  2  3  1  0
  2  8  1  0
  2  9  1  0
  3  4  1  0
  3 10  1  0
  3 11  1  0
  4 12  1  0
  4 13  1  0
  4 14  1  0
M  END
>  <reaction>  (1) 
rmg_rxn_85

>  <mol_properties>  (1) 
{"3": {"label": "donator", "atom_type": "Cs"}, "12": {"label": "d_hydrogen", "atom_type": "H0"}}

>  <type>  (1) 
r1h

$$$$

     RDKit          3D

  2  1  0  0  0  0  0  0  0  0999 V2000
    0.0000    0.0000    0.6715 S   0  0  0  0  0  1  0  0  0  0  0  0
    0.0000    0.0000   -0.6715 H   0  0  0  0  0  0  0  0  0  0  0  0
  1  2  1  0
M  RAD  1   1   2
M  END
>  <reaction>  (2) 
rmg_rxn_85

>  <mol_properties>  (2) 
{"0": {"label": "acceptor", "atom_type": "S2s"}}

>  <type>  (2) 
r2

$$$$

     RDKit          3D

  3  2  0  0  0  0  0  0  0  0999 V2000
   -0.0007    0.6157    0.0000 S   0  0  0  0  0  0  0  0  0  0  0  0
   -0.9686   -0.3090    0.0000 H   0  0  0  0  0  0  0  0  0  0  0  0
    0.9693   -0.3067    0.0000 H   0  0  0  0  0  0  0  0  0  0  0  0
  1  2  1  0
  1  3  1  0
M  END
>  <reaction>  (3) 
rmg_rxn_85

>  <mol_properties>  (3) 
{"0": {"label": "acceptor", "atom_type": "S2s"}, "2": {"label": "a_hydrogen", "atom_type": "H0"}}

>  <type>  (3) 
r2h

$$$$

     RDKit          3D

 16 14  0  0  0  0  0  0  0  0999 V2000
   -1.6461   -0.3141    1.5983 S   0  0  0  0  0  0  0  0  0  0  0  0
   -1.0446   -1.5075    1.6850 H   0  0  0  0  0  0  0  0  0  0  0  0
    0.8580   -0.4249   -2.8794 C   0  0  0  0  0  0  0  0  0  0  0  0
    0.9051   -0.4479   -1.3583 C   0  0  0  0  0  0  0  0  0  0  0  0
    0.8668    0.9488   -0.7470 C   0  0  0  0  0  0  0  0  0  0  0  0
    0.9448    0.9597    0.7433 C   0  0  0  0  0  3  0  0  0  0  0  0
    1.7053    0.1279   -3.2920 H   0  0  0  0  0  0  0  0  0  0  0  0
   -0.0566    0.0553   -3.2343 H   0  0  0  0  0  0  0  0  0  0  0  0
    0.8852   -1.4343   -3.2916 H   0  0  0  0  0  0  0  0  0  0  0  0
    0.0602   -1.0240   -0.9716 H   0  0  0  0  0  0  0  0  0  0  0  0
    1.8131   -0.9597   -1.0240 H   0  0  0  0  0  0  0  0  0  0  0  0
   -0.0381    1.4719   -1.0726 H   0  0  0  0  0  0  0  0  0  0  0  0
    1.7068    1.5391   -1.1428 H   0  0  0  0  0  0  0  0  0  0  0  0
    1.6430    0.2744    1.2168 H   0  0  0  0  0  0  0  0  0  0  0  0
   -0.3851    0.3316    1.2101 H   0  0  0  0  0  0  0  0  0  0  0  0
    0.8365    1.9129    1.2519 H   0  0  0  0  0  0  0  0  0  0  0  0
  1  2  1  0
  1 15  1  0
  3  4  1  0
  3  7  1  0
  3  8  1  0
  3  9  1  0
  4  5  1  0
  4 10  1  0
  4 11  1  0
  5  6  1  0
  5 12  1  0
  5 13  1  0
  6 14  1  0
  6 16  1  0
M  RAD  1   6   2
M  END
>  <reaction>  (4) 
rmg_rxn_85

>  <mol_properties>  (4) 
{"0": {"label": "*1", "atom_type": "S2s"}, "1": {"label": "*0", "atom_type": "H0"}, "4": {"label": "*4", "atom_type": "Cs"}, "5": {"label": "*3", "atom_type": "Cs"}, "14": {"label": "*2", "atom_type": "H0"}}

>  <type>  (4) 
ts

$$$$

     RDKit          3D

 16 14  0  0  0  0  0  0  0  0999 V2000
   -1.5075   -0.4158    1.8202 S   0  0  0  0  0  1  0  0  0  0  0  0
   -0.7697   -1.3262    2.4674 H   0  0  0  0  0  0  0  0  0  0  0  0
    0.8463   -0.4475   -2.8676 C   0  0  0  0  0  0  0  0  0  0  0  0
    0.8463   -0.4475   -1.3449 C   0  0  0  0  0  0  0  0  0  0  0  0
    0.8463    0.9549   -0.7475 C   0  0  0  0  0  0  0  0  0  0  0  0
    0.8463    0.9549    0.7752 C   0  0  0  0  0  0  0  0  0  0  0  0
    1.7278    0.0659   -3.2590 H   0  0  0  0  0  0  0  0  0  0  0  0
   -0.0352    0.0659   -3.2590 H   0  0  0  0  0  0  0  0  0  0  0  0
    0.8463   -1.4626   -3.2680 H   0  0  0  0  0  0  0  0  0  0  0  0
   -0.0287   -0.9934   -0.9776 H   0  0  0  0  0  0  0  0  0  0  0  0
    1.7213   -0.9934   -0.9776 H   0  0  0  0  0  0  0  0  0  0  0  0
   -0.0287    1.5008   -1.1148 H   0  0  0  0  0  0  0  0  0  0  0  0
    1.7213    1.5008   -1.1148 H   0  0  0  0  0  0  0  0  0  0  0  0
    1.7278    0.4416    1.1665 H   0  0  0  0  0  0  0  0  0  0  0  0
   -0.2115    0.3389    1.2448 H   0  0  0  0  0  0  0  0  0  0  0  0
    0.8463    1.9700    1.1756 H   0  0  0  0  0  0  0  0  0  0  0  0
  1  2  1  0
  3  4  1  0
  3  7  1  0
  3  8  1  0
  3  9  1  0
  4  5  1  0
  4 10  1  0
  4 11  1  0
  5  6  1  0
  5 12  1  0
  5 13  1  0
  6 14  1  0
  6 15  1  0
  6 16  1  0
M  RAD  1   1   2
M  END
>  <reaction>  (5) 
rmg_rxn_85

>  <mol_properties>  (5) 
{"0": {"label": "*1", "atom_type": "S2s"}, "1": {"label": "*0", "atom_type": "H0"}, "4": {"label": "*4", "atom_type": "Cs"}, "5": {"label": "*3", "atom_type": "Cs"}, "14": {"label": "*2", "atom_type": "H0"}}

>  <type>  (5) 
unop_1

>  <geom_source>  (5) 
Heuristics

$$$$

     RDKit          3D

 16 14  0  0  0  0  0  0  0  0999 V2000
   -1.4985   -0.4169    1.8391 S   0  0  0  0  0  1  0  0  0  0  0  0
   -1.5724   -1.2335    0.7810 H   0  0  0  0  0  0  0  0  0  0  0  0
    0.8553   -0.4485   -2.8487 C   0  0  0  0  0  0  0  0  0  0  0  0
    0.8553   -0.4485   -1.3260 C   0  0  0  0  0  0  0  0  0  0  0  0
    0.8553    0.9539   -0.7286 C   0  0  0  0  0  0  0  0  0  0  0  0
    0.8553    0.9539    0.7941 C   0  0  0  0  0  0  0  0  0  0  0  0
    1.7368    0.0648   -3.2401 H   0  0  0  0  0  0  0  0  0  0  0  0
   -0.0262    0.0648   -3.2401 H   0  0  0  0  0  0  0  0  0  0  0  0
    0.8553   -1.4636   -3.2491 H   0  0  0  0  0  0  0  0  0  0  0  0
   -0.0197   -0.9944   -0.9587 H   0  0  0  0  0  0  0  0  0  0  0  0
    1.7303   -0.9944   -0.9587 H   0  0  0  0  0  0  0  0  0  0  0  0
   -0.0197    1.4998   -1.0960 H   0  0  0  0  0  0  0  0  0  0  0  0
    1.7303    1.4998   -1.0960 H   0  0  0  0  0  0  0  0  0  0  0  0
    1.7368    0.4405    1.1854 H   0  0  0  0  0  0  0  0  0  0  0  0
   -0.2025    0.3378    1.2637 H   0  0  0  0  0  0  0  0  0  0  0  0
    0.8553    1.9690    1.1944 H   0  0  0  0  0  0  0  0  0  0  0  0
  1  2  1  0
  3  4  1  0
  3  7  1  0
  3  8  1  0
  3  9  1  0
  4  5  1  0
  4 10  1  0
  4 11  1  0
  5  6  1  0
  5 12  1  0
  5 13  1  0
  6 14  1  0
  6 15  1  0
  6 16  1  0
M  RAD  1   1   2
M  END
>  <reaction>  (6) 
rmg_rxn_85

>  <mol_properties>  (6) 
{"0": {"label": "*1", "atom_type": "S2s"}, "1": {"label": "*0", "atom_type": "H0"}, "4": {"label": "*4", "atom_type": "Cs"}, "5": {"label": "*3", "atom_type": "Cs"}, "14": {"label": "*2", "atom_type": "H0"}}

>  <type>  (6) 
unop_2

>  <geom_source>  (6) 
Heuristics

$$$$

     RDKit          3D

 16 14  0  0  0  0  0  0  0  0999 V2000
   -1.5065   -0.4215    1.8152 S   0  0  0  0  0  1  0  0  0  0  0  0
   -0.8634   -0.8207    2.9193 H   0  0  0  0  0  0  0  0  0  0  0  0
    0.8474   -0.4531   -2.8726 C   0  0  0  0  0  0  0  0  0  0  0  0
    0.8474   -0.4531   -1.3499 C   0  0  0  0  0  0  0  0  0  0  0  0
    0.8474    0.9493   -0.7526 C   0  0  0  0  0  0  0  0  0  0  0  0
    0.8474    0.9493    0.7701 C   0  0  0  0  0  0  0  0  0  0  0  0
    1.7289    0.0602   -3.2640 H   0  0  0  0  0  0  0  0  0  0  0  0
   -0.0342    0.0602   -3.2640 H   0  0  0  0  0  0  0  0  0  0  0  0
    0.8474   -1.4682   -3.2730 H   0  0  0  0  0  0  0  0  0  0  0  0
   -0.0277   -0.9990   -0.9826 H   0  0  0  0  0  0  0  0  0  0  0  0
    1.7224   -0.9990   -0.9826 H   0  0  0  0  0  0  0  0  0  0  0  0
   -0.0277    1.4951   -1.1199 H   0  0  0  0  0  0  0  0  0  0  0  0
    1.7224    1.4951   -1.1199 H   0  0  0  0  0  0  0  0  0  0  0  0
    1.7289    0.4359    1.1615 H   0  0  0  0  0  0  0  0  0  0  0  0
   -0.2105    0.3332    1.2398 H   0  0  0  0  0  0  0  0  0  0  0  0
    0.8474    1.9644    1.1705 H   0  0  0  0  0  0  0  0  0  0  0  0
  1  2  1  0
  3  4  1  0
  3  7  1  0
  3  8  1  0
  3  9  1  0
  4  5  1  0
  4 10  1  0
  4 11  1  0
  5  6  1  0
  5 12  1  0
  5 13  1  0
  6 14  1  0
  6 15  1  0
  6 16  1  0
M  RAD  1   1   2
M  END
>  <reaction>  (7) 
rmg_rxn_85

>  <mol_properties>  (7) 
{"0": {"label": "*1", "atom_type": "S2s"}, "1": {"label": "*0", "atom_type": "H0"}, "4": {"label": "*4", "atom_type": "Cs"}, "5": {"label": "*3", "atom_type": "Cs"}, "14": {"label": "*2", "atom_type": "H0"}}

>  <type>  (7) 
unop_3

>  <geom_source>  (7) 
Heuristics

$$$$

     RDKit          3D

 16 14  0  0  0  0  0  0  0  0999 V2000
   -1.4901   -0.4353    1.8340 S   0  0  0  0  0  1  0  0  0  0  0  0
   -2.3315    0.4146    1.2329 H   0  0  0  0  0  0  0  0  0  0  0  0
    0.8638   -0.4670   -2.8538 C   0  0  0  0  0  0  0  0  0  0  0  0
    0.8638   -0.4670   -1.3311 C   0  0  0  0  0  0  0  0  0  0  0  0
    0.8638    0.9354   -0.7337 C   0  0  0  0  0  0  0  0  0  0  0  0
    0.8638    0.9354    0.7890 C   0  0  0  0  0  0  0  0  0  0  0  0
    1.7453    0.0464   -3.2451 H   0  0  0  0  0  0  0  0  0  0  0  0
   -0.0177    0.0464   -3.2451 H   0  0  0  0  0  0  0  0  0  0  0  0
    0.8638   -1.4821   -3.2541 H   0  0  0  0  0  0  0  0  0  0  0  0
   -0.0112   -1.0128   -0.9638 H   0  0  0  0  0  0  0  0  0  0  0  0
    1.7388   -1.0128   -0.9638 H   0  0  0  0  0  0  0  0  0  0  0  0
   -0.0112    1.4813   -1.1010 H   0  0  0  0  0  0  0  0  0  0  0  0
    1.7388    1.4813   -1.1010 H   0  0  0  0  0  0  0  0  0  0  0  0
    1.7453    0.4221    1.1804 H   0  0  0  0  0  0  0  0  0  0  0  0
   -0.1940    0.3194    1.2586 H   0  0  0  0  0  0  0  0  0  0  0  0
    0.8638    1.9505    1.1894 H   0  0  0  0  0  0  0  0  0  0  0  0
  1  2  1  0
  3  4  1  0
  3  7  1  0
  3  8  1  0
  3  9  1  0
  4  5  1  0
  4 10  1  0
  4 11  1  0
  5  6  1  0
  5 12  1  0
  5 13  1  0
  6 14  1  0
  6 15  1  0
  6 16  1  0
M  RAD  1   1   2
M  END
>  <reaction>  (8) 
rmg_rxn_85

>  <mol_properties>  (8) 
{"0": {"label": "*1", "atom_type": "S2s"}, "1": {"label": "*0", "atom_type": "H0"}, "4": {"label": "*4", "atom_type": "Cs"}, "5": {"label": "*3", "atom_type": "Cs"}, "14": {"label": "*2", "atom_type": "H0"}}

>  <type>  (8) 
unop_4

>  <geom_source>  (8) 
Heuristics

$$$$

     RDKit          3D

 16 14  0  0  0  0  0  0  0  0999 V2000
   -1.5034   -0.4283    1.8133 S   0  0  0  0  0  1  0  0  0  0  0  0
   -1.1413   -0.2174    3.0847 H   0  0  0  0  0  0  0  0  0  0  0  0
    0.8505   -0.4599   -2.8745 C   0  0  0  0  0  0  0  0  0  0  0  0
    0.8505   -0.4599   -1.3518 C   0  0  0  0  0  0  0  0  0  0  0  0
    0.8505    0.9425   -0.7544 C   0  0  0  0  0  0  0  0  0  0  0  0
    0.8505    0.9425    0.7683 C   0  0  0  0  0  0  0  0  0  0  0  0
    1.7320    0.0535   -3.2659 H   0  0  0  0  0  0  0  0  0  0  0  0
   -0.0311    0.0535   -3.2659 H   0  0  0  0  0  0  0  0  0  0  0  0
    0.8505   -1.4750   -3.2749 H   0  0  0  0  0  0  0  0  0  0  0  0
   -0.0246   -1.0058   -0.9845 H   0  0  0  0  0  0  0  0  0  0  0  0
    1.7255   -1.0058   -0.9845 H   0  0  0  0  0  0  0  0  0  0  0  0
   -0.0246    1.4884   -1.1217 H   0  0  0  0  0  0  0  0  0  0  0  0
    1.7255    1.4884   -1.1217 H   0  0  0  0  0  0  0  0  0  0  0  0
    1.7320    0.4291    1.1596 H   0  0  0  0  0  0  0  0  0  0  0  0
   -0.2074    0.3265    1.2379 H   0  0  0  0  0  0  0  0  0  0  0  0
    0.8505    1.9576    1.1686 H   0  0  0  0  0  0  0  0  0  0  0  0
  1  2  1  0
  3  4  1  0
  3  7  1  0
  3  8  1  0
  3  9  1  0
  4  5  1  0
  4 10  1  0
  4 11  1  0
  5  6  1  0
  5 12  1  0
  5 13  1  0
  6 14  1  0
  6 15  1  0
  6 16  1  0
M  RAD  1   1   2
M  END
>  <reaction>  (9) 
rmg_rxn_85

>  <mol_properties>  (9) 
{"0": {"label": "*1", "atom_type": "S2s"}, "1": {"label": "*0", "atom_type": "H0"}, "4": {"label": "*4", "atom_type": "Cs"}, "5": {"label": "*3", "atom_type": "Cs"}, "14": {"label": "*2", "atom_type": "H0"}}

>  <type>  (9) 
unop_5

>  <geom_source>  (9) 
Heuristics

$$$$

     RDKit          3D

 16 14  0  0  0  0  0  0  0  0999 V2000
   -1.4913   -0.4384    1.8271 S   0  0  0  0  0  1  0  0  0  0  0  0
   -2.2160    0.6869    1.8501 H   0  0  0  0  0  0  0  0  0  0  0  0
    0.8625   -0.4700   -2.8607 C   0  0  0  0  0  0  0  0  0  0  0  0
    0.8625   -0.4700   -1.3380 C   0  0  0  0  0  0  0  0  0  0  0  0
    0.8625    0.9324   -0.7406 C   0  0  0  0  0  0  0  0  0  0  0  0
    0.8625    0.9324    0.7821 C   0  0  0  0  0  0  0  0  0  0  0  0
    1.7440    0.0434   -3.2520 H   0  0  0  0  0  0  0  0  0  0  0  0
   -0.0190    0.0434   -3.2520 H   0  0  0  0  0  0  0  0  0  0  0  0
    0.8625   -1.4851   -3.2610 H   0  0  0  0  0  0  0  0  0  0  0  0
   -0.0125   -1.0159   -0.9707 H   0  0  0  0  0  0  0  0  0  0  0  0
    1.7375   -1.0159   -0.9707 H   0  0  0  0  0  0  0  0  0  0  0  0
   -0.0125    1.4783   -1.1079 H   0  0  0  0  0  0  0  0  0  0  0  0
    1.7375    1.4783   -1.1079 H   0  0  0  0  0  0  0  0  0  0  0  0
    1.7440    0.4190    1.1735 H   0  0  0  0  0  0  0  0  0  0  0  0
   -0.1953    0.3164    1.2517 H   0  0  0  0  0  0  0  0  0  0  0  0
    0.8625    1.9475    1.1825 H   0  0  0  0  0  0  0  0  0  0  0  0
  1  2  1  0
  3  4  1  0
  3  7  1  0
  3  8  1  0
  3  9  1  0
  4  5  1  0
  4 10  1  0
  4 11  1  0
  5  6  1  0
  5 12  1  0
  5 13  1  0
  6 14  1  0
  6 15  1  0
  6 16  1  0
M  RAD  1   1   2
M  END
>  <reaction>  (10) 
rmg_rxn_85

>  <mol_properties>  (10) 
{"0": {"label": "*1", "atom_type": "S2s"}, "1": {"label": "*0", "atom_type": "H0"}, "4": {"label": "*4", "atom_type": "Cs"}, "5": {"label": "*3", "atom_type": "Cs"}, "14": {"label": "*2", "atom_type": "H0"}}

>  <type>  (10) 
unop_6

>  <geom_source>  (10) 
Heuristics

$$$$

     RDKit          3D

 16 14  0  0  0  0  0  0  0  0999 V2000
   -1.4946   -0.4380    1.8202 S   0  0  0  0  0  1  0  0  0  0  0  0
   -1.9222    0.6530    2.4674 H   0  0  0  0  0  0  0  0  0  0  0  0
    0.8592   -0.4696   -2.8676 C   0  0  0  0  0  0  0  0  0  0  0  0
    0.8592   -0.4696   -1.3449 C   0  0  0  0  0  0  0  0  0  0  0  0
    0.8592    0.9328   -0.7475 C   0  0  0  0  0  0  0  0  0  0  0  0
    0.8592    0.9328    0.7752 C   0  0  0  0  0  0  0  0  0  0  0  0
    1.7407    0.0437   -3.2590 H   0  0  0  0  0  0  0  0  0  0  0  0
   -0.0223    0.0437   -3.2590 H   0  0  0  0  0  0  0  0  0  0  0  0
    0.8592   -1.4847   -3.2680 H   0  0  0  0  0  0  0  0  0  0  0  0
   -0.0158   -1.0155   -0.9776 H   0  0  0  0  0  0  0  0  0  0  0  0
    1.7342   -1.0155   -0.9776 H   0  0  0  0  0  0  0  0  0  0  0  0
   -0.0158    1.4786   -1.1148 H   0  0  0  0  0  0  0  0  0  0  0  0
    1.7342    1.4786   -1.1148 H   0  0  0  0  0  0  0  0  0  0  0  0
    1.7407    0.4194    1.1665 H   0  0  0  0  0  0  0  0  0  0  0  0
   -0.1986    0.3167    1.2448 H   0  0  0  0  0  0  0  0  0  0  0  0
    0.8592    1.9479    1.1756 H   0  0  0  0  0  0  0  0  0  0  0  0
  1  2  1  0
  3  4  1  0
  3  7  1  0
  3  8  1  0
  3  9  1  0
  4  5  1  0
  4 10  1  0
  4 11  1  0
  5  6  1  0
  5 12  1  0
  5 13  1  0
  6 14  1  0
  6 15  1  0
  6 16  1  0
M  RAD  1   1   2
M  END
>  <reaction>  (11) 
rmg_rxn_85

>  <mol_properties>  (11) 
{"0": {"label": "*1", "atom_type": "S2s"}, "1": {"label": "*0", "atom_type": "H0"}, "4": {"label": "*4", "atom_type": "Cs"}, "5": {"label": "*3", "atom_type": "Cs"}, "14": {"label": "*2", "atom_type": "H0"}}

>  <type>  (11) 
unop_7

>  <geom_source>  (11) 
Heuristics

$$$$

     RDKit          3D

 16 14  0  0  0  0  0  0  0  0999 V2000
   -1.5062   -0.4128    1.8271 S   0  0  0  0  0  1  0  0  0  0  0  0
   -0.8852   -1.5984    1.8501 H   0  0  0  0  0  0  0  0  0  0  0  0
    0.8476   -0.4444   -2.8607 C   0  0  0  0  0  0  0  0  0  0  0  0
    0.8476   -0.4444   -1.3380 C   0  0  0  0  0  0  0  0  0  0  0  0
    0.8476    0.9580   -0.7406 C   0  0  0  0  0  0  0  0  0  0  0  0
    0.8476    0.9580    0.7821 C   0  0  0  0  0  0  0  0  0  0  0  0
    1.7291    0.0689   -3.2520 H   0  0  0  0  0  0  0  0  0  0  0  0
   -0.0339    0.0689   -3.2520 H   0  0  0  0  0  0  0  0  0  0  0  0
    0.8476   -1.4595   -3.2610 H   0  0  0  0  0  0  0  0  0  0  0  0
   -0.0274   -0.9903   -0.9707 H   0  0  0  0  0  0  0  0  0  0  0  0
    1.7226   -0.9903   -0.9707 H   0  0  0  0  0  0  0  0  0  0  0  0
   -0.0274    1.5038   -1.1079 H   0  0  0  0  0  0  0  0  0  0  0  0
    1.7226    1.5038   -1.1079 H   0  0  0  0  0  0  0  0  0  0  0  0
    1.7291    0.4446    1.1735 H   0  0  0  0  0  0  0  0  0  0  0  0
   -0.2102    0.3419    1.2517 H   0  0  0  0  0  0  0  0  0  0  0  0
    0.8476    1.9731    1.1825 H   0  0  0  0  0  0  0  0  0  0  0  0
  1  2  1  0
  3  4  1  0
  3  7  1  0
  3  8  1  0
  3  9  1  0
  4  5  1  0
  4 10  1  0
  4 11  1  0
  5  6  1  0
  5 12  1  0
  5 13  1  0
  6 14  1  0
  6 15  1  0
  6 16  1  0
M  RAD  1   1   2
M  END
>  <reaction>  (12) 
rmg_rxn_85

>  <mol_properties>  (12) 
{"0": {"label": "*1", "atom_type": "S2s"}, "1": {"label": "*0", "atom_type": "H0"}, "4": {"label": "*4", "atom_type": "Cs"}, "5": {"label": "*3", "atom_type": "Cs"}, "14": {"label": "*2", "atom_type": "H0"}}

>  <type>  (12) 
unop_8

>  <geom_source>  (12) 
Heuristics

$$$$

     RDKit          3D

 16 14  0  0  0  0  0  0  0  0999 V2000
   -1.4911   -0.4297    1.8391 S   0  0  0  0  0  1  0  0  0  0  0  0
   -2.2378   -0.0909    0.7810 H   0  0  0  0  0  0  0  0  0  0  0  0
    0.8627   -0.4613   -2.8487 C   0  0  0  0  0  0  0  0  0  0  0  0
    0.8627   -0.4613   -1.3260 C   0  0  0  0  0  0  0  0  0  0  0  0
    0.8627    0.9411   -0.7286 C   0  0  0  0  0  0  0  0  0  0  0  0
    0.8627    0.9411    0.7941 C   0  0  0  0  0  0  0  0  0  0  0  0
    1.7443    0.0521   -3.2401 H   0  0  0  0  0  0  0  0  0  0  0  0
   -0.0188    0.0521   -3.2401 H   0  0  0  0  0  0  0  0  0  0  0  0
    0.8627   -1.4764   -3.2491 H   0  0  0  0  0  0  0  0  0  0  0  0
   -0.0123   -1.0072   -0.9587 H   0  0  0  0  0  0  0  0  0  0  0  0
    1.7378   -1.0072   -0.9587 H   0  0  0  0  0  0  0  0  0  0  0  0
   -0.0123    1.4870   -1.0960 H   0  0  0  0  0  0  0  0  0  0  0  0
    1.7378    1.4870   -1.0960 H   0  0  0  0  0  0  0  0  0  0  0  0
    1.7443    0.4277    1.1854 H   0  0  0  0  0  0  0  0  0  0  0  0
   -0.1951    0.3251    1.2637 H   0  0  0  0  0  0  0  0  0  0  0  0
    0.8627    1.9562    1.1944 H   0  0  0  0  0  0  0  0  0  0  0  0
  1  2  1  0
  3  4  1  0
  3  7  1  0
  3  8  1  0
  3  9  1  0
  4  5  1  0
  4 10  1  0
  4 11  1  0
  5  6  1  0
  5 12  1  0
  5 13  1  0
  6 14  1  0
  6 15  1  0
  6 16  1  0
M  RAD  1   1   2
M  END
>  <reaction>  (13) 
rmg_rxn_85

>  <mol_properties>  (13) 
{"0": {"label": "*1", "atom_type": "S2s"}, "1": {"label": "*0", "atom_type": "H0"}, "4": {"label": "*4", "atom_type": "Cs"}, "5": {"label": "*3", "atom_type": "Cs"}, "14": {"label": "*2", "atom_type": "H0"}}

>  <type>  (13) 
unop_9

>  <geom_source>  (13) 
Heuristics

$$$$

     RDKit          3D

 16 14  0  0  0  0  0  0  0  0999 V2000
   -1.5029   -0.4132    1.8340 S   0  0  0  0  0  1  0  0  0  0  0  0
   -1.1790   -1.5645    1.2329 H   0  0  0  0  0  0  0  0  0  0  0  0
    0.8509   -0.4448   -2.8538 C   0  0  0  0  0  0  0  0  0  0  0  0
    0.8509   -0.4448   -1.3311 C   0  0  0  0  0  0  0  0  0  0  0  0
    0.8509    0.9576   -0.7337 C   0  0  0  0  0  0  0  0  0  0  0  0
    0.8509    0.9576    0.7890 C   0  0  0  0  0  0  0  0  0  0  0  0
    1.7324    0.0686   -3.2451 H   0  0  0  0  0  0  0  0  0  0  0  0
   -0.0306    0.0686   -3.2451 H   0  0  0  0  0  0  0  0  0  0  0  0
    0.8509   -1.4599   -3.2541 H   0  0  0  0  0  0  0  0  0  0  0  0
   -0.0241   -0.9907   -0.9638 H   0  0  0  0  0  0  0  0  0  0  0  0
    1.7259   -0.9907   -0.9638 H   0  0  0  0  0  0  0  0  0  0  0  0
   -0.0241    1.5035   -1.1010 H   0  0  0  0  0  0  0  0  0  0  0  0
    1.7259    1.5035   -1.1010 H   0  0  0  0  0  0  0  0  0  0  0  0
    1.7324    0.4442    1.1804 H   0  0  0  0  0  0  0  0  0  0  0  0
   -0.2069    0.3416    1.2586 H   0  0  0  0  0  0  0  0  0  0  0  0
    0.8509    1.9727    1.1894 H   0  0  0  0  0  0  0  0  0  0  0  0
  1  2  1  0
  3  4  1  0
  3  7  1  0
  3  8  1  0
  3  9  1  0
  4  5  1  0
  4 10  1  0
  4 11  1  0
  5  6  1  0
  5 12  1  0
  5 13  1  0
  6 14  1  0
  6 15  1  0
  6 16  1  0
M  RAD  1   1   2
M  END
>  <reaction>  (14) 
rmg_rxn_85

>  <mol_properties>  (14) 
{"0": {"label": "*1", "atom_type": "S2s"}, "1": {"label": "*0", "atom_type": "H0"}, "4": {"label": "*4", "atom_type": "Cs"}, "5": {"label": "*3", "atom_type": "Cs"}, "14": {"label": "*2", "atom_type": "H0"}}

>  <type>  (14) 
unop_10

>  <geom_source>  (14) 
Heuristics

$$$$

     RDKit          3D

 16 14  0  0  0  0  0  0  0  0999 V2000
   -1.4990   -0.4343    1.8152 S   0  0  0  0  0  1  0  0  0  0  0  0
   -1.5289    0.3220    2.9193 H   0  0  0  0  0  0  0  0  0  0  0  0
    0.8548   -0.4659   -2.8726 C   0  0  0  0  0  0  0  0  0  0  0  0
    0.8548   -0.4659   -1.3499 C   0  0  0  0  0  0  0  0  0  0  0  0
    0.8548    0.9365   -0.7526 C   0  0  0  0  0  0  0  0  0  0  0  0
    0.8548    0.9365    0.7701 C   0  0  0  0  0  0  0  0  0  0  0  0
    1.7363    0.0474   -3.2640 H   0  0  0  0  0  0  0  0  0  0  0  0
   -0.0267    0.0474   -3.2640 H   0  0  0  0  0  0  0  0  0  0  0  0
    0.8548   -1.4810   -3.2730 H   0  0  0  0  0  0  0  0  0  0  0  0
   -0.0202   -1.0118   -0.9826 H   0  0  0  0  0  0  0  0  0  0  0  0
    1.7298   -1.0118   -0.9826 H   0  0  0  0  0  0  0  0  0  0  0  0
   -0.0202    1.4823   -1.1199 H   0  0  0  0  0  0  0  0  0  0  0  0
    1.7298    1.4823   -1.1199 H   0  0  0  0  0  0  0  0  0  0  0  0
    1.7363    0.4231    1.1615 H   0  0  0  0  0  0  0  0  0  0  0  0
   -0.2030    0.3204    1.2398 H   0  0  0  0  0  0  0  0  0  0  0  0
    0.8548    1.9516    1.1705 H   0  0  0  0  0  0  0  0  0  0  0  0
  1  2  1  0
  3  4  1  0
  3  7  1  0
  3  8  1  0
  3  9  1  0
  4  5  1  0
  4 10  1  0
  4 11  1  0
  5  6  1  0
  5 12  1  0
  5 13  1  0
  6 14  1  0
  6 15  1  0
  6 16  1  0
M  RAD  1   1   2
M  END
>  <reaction>  (15) 
rmg_rxn_85

>  <mol_properties>  (15) 
{"0": {"label": "*1", "atom_type": "S2s"}, "1": {"label": "*0", "atom_type": "H0"}, "4": {"label": "*4", "atom_type": "Cs"}, "5": {"label": "*3", "atom_type": "Cs"}, "14": {"label": "*2", "atom_type": "H0"}}

>  <type>  (15) 
unop_11

>  <geom_source>  (15) 
Heuristics

$$$$

     RDKit          3D

 16 14  0  0  0  0  0  0  0  0999 V2000
   -1.4942   -0.4229    1.8409 S   0  0  0  0  0  1  0  0  0  0  0  0
   -1.9599   -0.6941    0.6156 H   0  0  0  0  0  0  0  0  0  0  0  0
    0.8596   -0.4545   -2.8469 C   0  0  0  0  0  0  0  0  0  0  0  0
    0.8596   -0.4545   -1.3242 C   0  0  0  0  0  0  0  0  0  0  0  0
    0.8596    0.9478   -0.7268 C   0  0  0  0  0  0  0  0  0  0  0  0
    0.8596    0.9478    0.7959 C   0  0  0  0  0  0  0  0  0  0  0  0
    1.7412    0.0588   -3.2382 H   0  0  0  0  0  0  0  0  0  0  0  0
   -0.0219    0.0588   -3.2382 H   0  0  0  0  0  0  0  0  0  0  0  0
    0.8596   -1.4696   -3.2472 H   0  0  0  0  0  0  0  0  0  0  0  0
   -0.0154   -1.0004   -0.9568 H   0  0  0  0  0  0  0  0  0  0  0  0
    1.7347   -1.0004   -0.9568 H   0  0  0  0  0  0  0  0  0  0  0  0
   -0.0154    1.4937   -1.0941 H   0  0  0  0  0  0  0  0  0  0  0  0
    1.7347    1.4937   -1.0941 H   0  0  0  0  0  0  0  0  0  0  0  0
    1.7412    0.4345    1.1873 H   0  0  0  0  0  0  0  0  0  0  0  0
   -0.1982    0.3318    1.2655 H   0  0  0  0  0  0  0  0  0  0  0  0
    0.8596    1.9629    1.1963 H   0  0  0  0  0  0  0  0  0  0  0  0
  1  2  1  0
  3  4  1  0
  3  7  1  0
  3  8  1  0
  3  9  1  0
  4  5  1  0
  4 10  1  0
  4 11  1  0
  5  6  1  0
  5 12  1  0
  5 13  1  0
  6 14  1  0
  6 15  1  0
  6 16  1  0
M  RAD  1   1   2
M  END
>  <reaction>  (16) 
rmg_rxn_85

>  <mol_properties>  (16) 
{"0": {"label": "*1", "atom_type": "S2s"}, "1": {"label": "*0", "atom_type": "H0"}, "4": {"label": "*4", "atom_type": "Cs"}, "5": {"label": "*3", "atom_type": "Cs"}, "14": {"label": "*2", "atom_type": "H0"}}

>  <type>  (16) 
unop_12

>  <geom_source>  (16) 
Heuristics

$$$$

     RDKit          3D

 16 14  0  0  0  0  0  0  0  0999 V2000
   -1.4986   -0.4169    1.8391 S   0  0  0  0  0  1  0  0  0  0  0  0
   -1.5724   -1.2335    0.7810 H   0  0  0  0  0  0  0  0  0  0  0  0
    0.8553   -0.4485   -2.8487 C   0  0  0  0  0  0  0  0  0  0  0  0
    0.8553   -0.4485   -1.3260 C   0  0  0  0  0  0  0  0  0  0  0  0
    0.8553    0.9539   -0.7286 C   0  0  0  0  0  0  0  0  0  0  0  0
    0.8553    0.9539    0.7941 C   0  0  0  0  0  0  0  0  0  0  0  0
    1.7368    0.0649   -3.2401 H   0  0  0  0  0  0  0  0  0  0  0  0
   -0.0262    0.0649   -3.2401 H   0  0  0  0  0  0  0  0  0  0  0  0
    0.8553   -1.4636   -3.2491 H   0  0  0  0  0  0  0  0  0  0  0  0
   -0.0197   -0.9944   -0.9587 H   0  0  0  0  0  0  0  0  0  0  0  0
    1.7303   -0.9944   -0.9587 H   0  0  0  0  0  0  0  0  0  0  0  0
   -0.0197    1.4998   -1.0959 H   0  0  0  0  0  0  0  0  0  0  0  0
    1.7303    1.4998   -1.0959 H   0  0  0  0  0  0  0  0  0  0  0  0
    1.7368    0.4405    1.1854 H   0  0  0  0  0  0  0  0  0  0  0  0
   -0.2025    0.3378    1.2637 H   0  0  0  0  0  0  0  0  0  0  0  0
    0.8553    1.9690    1.1944 H   0  0  0  0  0  0  0  0  0  0  0  0
  1  2  1  0
  3  4  1  0
  3  7  1  0
  3  8  1  0
  3  9  1  0
  4  5  1  0
  4 10  1  0
  4 11  1  0
  5  6  1  0
  5 12  1  0
  5 13  1  0
  6 14  1  0
  6 15  1  0
  6 16  1  0
M  RAD  1   1   2
M  END
>  <reaction>  (17) 
rmg_rxn_85

>  <mol_properties>  (17) 
{"0": {"label": "*1", "atom_type": "S2s"}, "1": {"label": "*0", "atom_type": "H0"}, "4": {"label": "*4", "atom_type": "Cs"}, "5": {"label": "*3", "atom_type": "Cs"}, "14": {"label": "*2", "atom_type": "H0"}}

>  <type>  (17) 
unop_13

>  <geom_source>  (17) 
gaussian_log

$$$$
