
     RDKit          3D

 18 17  0  0  0  0  0  0  0  0999 V2000
    2.2026   -0.7213   -0.2612 C   0  0  0  0  0  0  0  0  0  0  0  0
    1.5384    0.2638    0.6915 C   0  0  0  0  0  0  0  0  0  0  0  0
    2.2584    1.5946    0.7694 C   0  0  0  0  0  0  0  0  0  0  0  0
    2.2212    2.2185   -0.4893 O   0  0  0  0  0  0  0  0  0  0  0  0
    2.8988    3.4488   -0.5204 C   0  0  0  0  0  0  0  0  0  0  0  0
    2.7981    4.0296   -1.9118 C   0  0  0  0  0  0  0  0  0  0  0  0
    3.2294   -0.9309    0.0486 H   0  0  0  0  0  0  0  0  0  0  0  0
    2.2338   -0.3181   -1.2734 H   0  0  0  0  0  0  0  0  0  0  0  0
    1.6610   -1.6680   -0.2875 H   0  0  0  0  0  0  0  0  0  0  0  0
    1.4990   -0.1566    1.7002 H   0  0  0  0  0  0  0  0  0  0  0  0
    0.5055    0.4455    0.3835 H   0  0  0  0  0  0  0  0  0  0  0  0
    3.3038    1.4410    1.0808 H   0  0  0  0  0  0  0  0  0  0  0  0
    1.7844    2.2410    1.5226 H   0  0  0  0  0  0  0  0  0  0  0  0
    2.4596    4.1376    0.2164 H   0  0  0  0  0  0  0  0  0  0  0  0
    3.9524    3.3035   -0.2397 H   0  0  0  0  0  0  0  0  0  0  0  0
    1.7543    4.1869   -2.1856 H   0  0  0  0  0  0  0  0  0  0  0  0
    3.2472    3.3545   -2.6411 H   0  0  0  0  0  0  0  0  0  0  0  0
    3.3178    4.9878   -1.9600 H   0  0  0  0  0  0  0  0  0  0  0  0
  1  2  1  0
  1  7  1  0
  1  8  1  0
  1  9  1  0
  2  3  1  0
  2 10  1  0
  2 11  1  0
  3  4  1  0
  3 12  1  0
  3 13  1  0
  4  5  1  0
  5  6  1  0
  5 14  1  0
  5 15  1  0
  6 16  1  0
  6 17  1  0
  6 18  1  0
M  END
>  <reaction>  (1) 
rmg_rxn_291

>  <mol_properties>  (1) 
{"4": {"label": "donator", "atom_type": "Cs"}, "13": {"label": "d_hydrogen", "atom_type": "H0"}}

>  <type>  (1) 
r1h

$$$$

     RDKit          3D

 17 16  0  0  0  0  0  0  0  0999 V2000
    2.3128   -0.1525    1.1777 C   0  0  0  0  0  3  0  0  0  0  0  0
    1.7469    0.7266    0.1254 C   0  0  0  0  0  0  0  0  0  0  0  0
    1.6374    2.1830    0.5408 C   0  0  0  0  0  0  0  0  0  0  0  0
    2.9245    2.6874    0.7877 O   0  0  0  0  0  0  0  0  0  0  0  0
    2.9227    4.0197    1.2361 C   0  0  0  0  0  0  0  0  0  0  0  0
    4.3491    4.4603    1.4693 C   0  0  0  0  0  0  0  0  0  0  0  0
    2.1393   -1.2196    1.1557 H   0  0  0  0  0  0  0  0  0  0  0  0
    3.0313    0.2400    1.8838 H   0  0  0  0  0  0  0  0  0  0  0  0
    0.7555    0.3746   -0.1764 H   0  0  0  0  0  0  0  0  0  0  0  0
    2.3678    0.6841   -0.7826 H   0  0  0  0  0  0  0  0  0  0  0  0
    1.0170    2.2718    1.4449 H   0  0  0  0  0  0  0  0  0  0  0  0
    1.1499    2.7653   -0.2546 H   0  0  0  0  0  0  0  0  0  0  0  0
    2.4379    4.6655    0.4891 H   0  0  0  0  0  0  0  0  0  0  0  0
    2.3377    4.1015    2.1638 H   0  0  0  0  0  0  0  0  0  0  0  0
    4.9261    4.3920    0.5465 H   0  0  0  0  0  0  0  0  0  0  0  0
    4.3728    5.4939    1.8180 H   0  0  0  0  0  0  0  0  0  0  0  0
    4.8260    3.8299    2.2206 H   0  0  0  0  0  0  0  0  0  0  0  0
  1  2  1  0
  1  7  1  0
  1  8  1  0
  2  3  1  0
  2  9  1  0
  2 10  1  0
  3  4  1  0
  3 11  1  0
  3 12  1  0
  4  5  1  0
  5  6  1  0
  5 13  1  0
  5 14  1  0
  6 15  1  0
  6 16  1  0
  6 17  1  0
M  RAD  1   1   2
M  END
>  <reaction>  (2) 
rmg_rxn_291

>  <mol_properties>  (2) 
{"0": {"label": "acceptor", "atom_type": "Cs"}}

>  <type>  (2) 
r2

$$$$

     RDKit          3D

 18 17  0  0  0  0  0  0  0  0999 V2000
    2.2026   -0.7213   -0.2612 C   0  0  0  0  0  0  0  0  0  0  0  0
    1.5384    0.2638    0.6915 C   0  0  0  0  0  0  0  0  0  0  0  0
    2.2584    1.5946    0.7694 C   0  0  0  0  0  0  0  0  0  0  0  0
    2.2212    2.2185   -0.4893 O   0  0  0  0  0  0  0  0  0  0  0  0
    2.8988    3.4488   -0.5204 C   0  0  0  0  0  0  0  0  0  0  0  0
    2.7981    4.0296   -1.9118 C   0  0  0  0  0  0  0  0  0  0  0  0
    3.2294   -0.9309    0.0486 H   0  0  0  0  0  0  0  0  0  0  0  0
    2.2338   -0.3181   -1.2734 H   0  0  0  0  0  0  0  0  0  0  0  0
    1.6610   -1.6680   -0.2875 H   0  0  0  0  0  0  0  0  0  0  0  0
    1.4990   -0.1566    1.7002 H   0  0  0  0  0  0  0  0  0  0  0  0
    0.5055    0.4455    0.3835 H   0  0  0  0  0  0  0  0  0  0  0  0
    3.3038    1.4410    1.0808 H   0  0  0  0  0  0  0  0  0  0  0  0
    1.7844    2.2410    1.5226 H   0  0  0  0  0  0  0  0  0  0  0  0
    2.4596    4.1376    0.2164 H   0  0  0  0  0  0  0  0  0  0  0  0
    3.9524    3.3035   -0.2397 H   0  0  0  0  0  0  0  0  0  0  0  0
    1.7543    4.1869   -2.1856 H   0  0  0  0  0  0  0  0  0  0  0  0
    3.2472    3.3545   -2.6411 H   0  0  0  0  0  0  0  0  0  0  0  0
    3.3178    4.9878   -1.9600 H   0  0  0  0  0  0  0  0  0  0  0  0
  1  2  1  0
  1  7  1  0
  1  8  1  0
  1  9  1  0
  2  3  1  0
  2 10  1  0
  2 11  1  0
  3  4  1  0
  3 12  1  0
  3 13  1  0
  4  5  1  0
  5  6  1  0
  5 14  1  0
  5 15  1  0
  6 16  1  0
  6 17  1  0
  6 18  1  0
M  END
>  <reaction>  (3) 
rmg_rxn_291

>  <mol_properties>  (3) 
{"0": {"label": "acceptor", "atom_type": "Cs"}, "17": {"label": "a_hydrogen", "atom_type": "H0"}}

>  <type>  (3) 
r2h

$$$$

     RDKit          3D

 35 33  0  0  0  0  0  0  0  0999 V2000
    2.2313    0.4466    0.2442 C   0  0  0  0  0  3  0  0  0  0  0  0
    1.5817   -0.2862    1.3939 C   0  0  0  0  0  0  0  0  0  0  0  0
    0.9553    0.6297    2.4249 C   0  0  0  0  0  0  0  0  0  0  0  0
   -0.0571    1.3962    1.8246 O   0  0  0  0  0  0  0  0  0  0  0  0
   -0.6565    2.3139    2.7032 C   0  0  0  0  0  0  0  0  0  0  0  0
   -1.7243    3.0811    1.9582 C   0  0  0  0  0  0  0  0  0  0  0  0
    2.4700    1.4920    0.4313 H   0  0  0  0  0  0  0  0  0  0  0  0
    3.0572   -0.0804   -0.2292 H   0  0  0  0  0  0  0  0  0  0  0  0
    2.3139   -0.9119    1.9163 H   0  0  0  0  0  0  0  0  0  0  0  0
    0.8082   -0.9671    1.0199 H   0  0  0  0  0  0  0  0  0  0  0  0
    1.7232    1.2949    2.8498 H   0  0  0  0  0  0  0  0  0  0  0  0
    0.5372    0.0389    3.2531 H   0  0  0  0  0  0  0  0  0  0  0  0
   -1.0932    1.7817    3.5610 H   0  0  0  0  0  0  0  0  0  0  0  0
    0.1039    3.0017    3.1015 H   0  0  0  0  0  0  0  0  0  0  0  0
   -2.4894    2.4026    1.5788 H   0  0  0  0  0  0  0  0  0  0  0  0
   -2.2013    3.8050    2.6205 H   0  0  0  0  0  0  0  0  0  0  0  0
   -1.2908    3.6167    1.1128 H   0  0  0  0  0  0  0  0  0  0  0  0
   -1.3586   -3.4402   -2.4265 C   0  0  0  0  0  0  0  0  0  0  0  0
   -0.1080   -3.2650   -1.5754 C   0  0  0  0  0  0  0  0  0  0  0  0
    0.6144   -1.9602   -1.8374 C   0  0  0  0  0  0  0  0  0  0  0  0
   -0.2332   -0.8860   -1.5001 O   0  0  0  0  0  0  0  0  0  0  0  0
    0.3337    0.3643   -1.6839 C   0  0  0  0  0  0  0  0  0  0  0  0
   -0.6715    1.4516   -1.4544 C   0  0  0  0  0  0  0  0  0  0  0  0
   -1.1116   -3.4190   -3.4908 H   0  0  0  0  0  0  0  0  0  0  0  0
   -2.0729   -2.6402   -2.2323 H   0  0  0  0  0  0  0  0  0  0  0  0
   -1.8469   -4.3925   -2.2148 H   0  0  0  0  0  0  0  0  0  0  0  0
    0.5948   -4.0809   -1.7656 H   0  0  0  0  0  0  0  0  0  0  0  0
   -0.3667   -3.3113   -0.5142 H   0  0  0  0  0  0  0  0  0  0  0  0
    0.8996   -1.8854   -2.8976 H   0  0  0  0  0  0  0  0  0  0  0  0
    1.5357   -1.9076   -1.2434 H   0  0  0  0  0  0  0  0  0  0  0  0
    1.2810    0.4979   -0.7874 H   0  0  0  0  0  0  0  0  0  0  0  0
    0.8637    0.4358   -2.6435 H   0  0  0  0  0  0  0  0  0  0  0  0
   -1.0842    1.3694   -0.4497 H   0  0  0  0  0  0  0  0  0  0  0  0
   -1.4860    1.3962   -2.1822 H   0  0  0  0  0  0  0  0  0  0  0  0
   -0.1903    2.4266   -1.5465 H   0  0  0  0  0  0  0  0  0  0  0  0
  1  2  1  0
  1  7  1  0
  1  8  1  0
  2  3  1  0
  2  9  1  0
  2 10  1  0
  3  4  1  0
  3 11  1  0
  3 12  1  0
  4  5  1  0
  5  6  1  0
  5 13  1  0
  5 14  1  0
  6 15  1  0
  6 16  1  0
  6 17  1  0
 18 19  1  0
 18 24  1  0
 18 25  1  0
 18 26  1  0
 19 20  1  0
 19 27  1  0
 19 28  1  0
 20 21  1  0
 20 29  1  0
 20 30  1  0
 21 22  1  0
 22 23  1  0
 22 31  1  0
 22 32  1  0
 23 33  1  0
 23 34  1  0
 23 35  1  0
M  RAD  1   1   2
M  END
>  <reaction>  (4) 
rmg_rxn_291

>  <mol_properties>  (4) 
{"0": {"label": "*3", "atom_type": "Cs"}, "1": {"label": "*4", "atom_type": "Cs"}, "20": {"label": "*0", "atom_type": "O2s"}, "21": {"label": "*1", "atom_type": "Cs"}, "30": {"label": "*2", "atom_type": "H0"}}

>  <type>  (4) 
ts

$$$$

     RDKit          3D

 35 33  0  0  0  0  0  0  0  0999 V2000
   -0.3657    0.3439    0.4728 C   0  0  0  0  0  0  0  0  0  0  0  0
    0.8387    1.1468    0.9461 C   0  0  0  0  0  0  0  0  0  0  0  0
    0.5493    1.9870    2.1731 C   0  0  0  0  0  0  0  0  0  0  0  0
    0.2241    1.1435    3.2491 O   0  0  0  0  0  0  0  0  0  0  0  0
   -0.0954    1.8411    4.4258 C   0  0  0  0  0  0  0  0  0  0  0  0
   -0.4282    0.8448    5.5122 C   0  0  0  0  0  0  0  0  0  0  0  0
   -0.7047   -0.3390    1.2518 H   0  0  0  0  0  0  0  0  0  0  0  0
   -1.1988    1.0041    0.2191 H   0  0  0  0  0  0  0  0  0  0  0  0
    1.1795    1.8173    0.1523 H   0  0  0  0  0  0  0  0  0  0  0  0
    1.6712    0.4760    1.1732 H   0  0  0  0  0  0  0  0  0  0  0  0
   -0.2862    2.6759    1.9711 H   0  0  0  0  0  0  0  0  0  0  0  0
    1.4248    2.6015    2.4296 H   0  0  0  0  0  0  0  0  0  0  0  0
    0.7528    2.4724    4.7298 H   0  0  0  0  0  0  0  0  0  0  0  0
   -0.9487    2.5113    4.2442 H   0  0  0  0  0  0  0  0  0  0  0  0
    0.4220    0.1889    5.7026 H   0  0  0  0  0  0  0  0  0  0  0  0
   -0.6796    1.3648    6.4379 H   0  0  0  0  0  0  0  0  0  0  0  0
   -1.2789    0.2289    5.2183 H   0  0  0  0  0  0  0  0  0  0  0  0
    0.7273   -3.0377   -4.3833 C   0  0  0  0  0  0  0  0  0  0  0  0
    0.7273   -3.0377   -2.8604 C   0  0  0  0  0  0  0  0  0  0  0  0
    0.7273   -1.6446   -2.2649 C   0  0  0  0  0  0  0  0  0  0  0  0
   -0.4557   -0.9810   -2.6325 O   0  0  0  0  0  0  0  0  0  0  0  0
   -0.5264    0.3370   -2.1516 C   0  0  0  0  0  3  0  0  0  0  0  0
   -1.8297    0.9548   -2.6024 C   0  0  0  0  0  0  0  0  0  0  0  0
    1.6094   -2.5234   -4.7729 H   0  0  0  0  0  0  0  0  0  0  0  0
   -0.1554   -2.5280   -4.7694 H   0  0  0  0  0  0  0  0  0  0  0  0
    0.7328   -4.0556   -4.7760 H   0  0  0  0  0  0  0  0  0  0  0  0
    1.6088   -3.5642   -2.4841 H   0  0  0  0  0  0  0  0  0  0  0  0
   -0.1471   -3.5757   -2.4851 H   0  0  0  0  0  0  0  0  0  0  0  0
    1.6015   -1.0795   -2.6253 H   0  0  0  0  0  0  0  0  0  0  0  0
    0.8021   -1.6985   -1.1689 H   0  0  0  0  0  0  0  0  0  0  0  0
   -0.4457    0.3405   -0.8339 H   0  0  0  0  0  0  0  0  0  0  0  0
    0.3265    0.9200   -2.5295 H   0  0  0  0  0  0  0  0  0  0  0  0
   -2.6761    0.3854   -2.2168 H   0  0  0  0  0  0  0  0  0  0  0  0
   -1.8905    0.9667   -3.6913 H   0  0  0  0  0  0  0  0  0  0  0  0
   -1.9073    1.9808   -2.2394 H   0  0  0  0  0  0  0  0  0  0  0  0
  1  2  1  0
  1  7  1  0
  1  8  1  0
  1 31  1  0
  2  3  1  0
  2  9  1  0
  2 10  1  0
  3  4  1  0
  3 11  1  0
  3 12  1  0
  4  5  1  0
  5  6  1  0
  5 13  1  0
  5 14  1  0
  6 15  1  0
  6 16  1  0
  6 17  1  0
 18 19  1  0
 18 24  1  0
 18 25  1  0
 18 26  1  0
 19 20  1  0
 19 27  1  0
 19 28  1  0
 20 21  1  0
 20 29  1  0
 20 30  1  0
 21 22  1  0
 22 23  1  0
 22 32  1  0
 23 33  1  0
 23 34  1  0
 23 35  1  0
M  RAD  1  22   2
M  END
>  <reaction>  (5) 
rmg_rxn_291

>  <mol_properties>  (5) 
{"0": {"label": "*3", "atom_type": "Cs"}, "1": {"label": "*4", "atom_type": "Cs"}, "20": {"label": "*0", "atom_type": "O2s"}, "21": {"label": "*1", "atom_type": "Cs"}, "30": {"label": "*2", "atom_type": "H0"}}

>  <type>  (5) 
unop_1

>  <geom_source>  (5) 
Heuristics

$$$$

     RDKit          3D

 35 33  0  0  0  0  0  0  0  0999 V2000
   -0.3210    1.1537    0.4397 C   0  0  0  0  0  0  0  0  0  0  0  0
    0.5127   -0.0180    0.9408 C   0  0  0  0  0  0  0  0  0  0  0  0
    1.0079    0.1676    2.3605 C   0  0  0  0  0  0  0  0  0  0  0  0
   -0.0922    0.2354    3.2324 O   0  0  0  0  0  0  0  0  0  0  0  0
    0.2726    0.4433    4.5730 C   0  0  0  0  0  0  0  0  0  0  0  0
   -0.9783    0.5010    5.4189 C   0  0  0  0  0  0  0  0  0  0  0  0
   -1.2014    1.2971    1.0662 H   0  0  0  0  0  0  0  0  0  0  0  0
    0.2584    2.0802    0.4577 H   0  0  0  0  0  0  0  0  0  0  0  0
    1.3846   -0.1621    0.2968 H   0  0  0  0  0  0  0  0  0  0  0  0
   -0.0712   -0.9409    0.8947 H   0  0  0  0  0  0  0  0  0  0  0  0
    1.6031    1.0915    2.4355 H   0  0  0  0  0  0  0  0  0  0  0  0
    1.6633   -0.6677    2.6480 H   0  0  0  0  0  0  0  0  0  0  0  0
    0.9298   -0.3706    4.9135 H   0  0  0  0  0  0  0  0  0  0  0  0
    0.8427    1.3796    4.6653 H   0  0  0  0  0  0  0  0  0  0  0  0
   -1.5371   -0.4321    5.3388 H   0  0  0  0  0  0  0  0  0  0  0  0
   -0.7192    0.6616    6.4665 H   0  0  0  0  0  0  0  0  0  0  0  0
   -1.6233    1.3174    5.0920 H   0  0  0  0  0  0  0  0  0  0  0  0
    0.7719   -2.2278   -4.4164 C   0  0  0  0  0  0  0  0  0  0  0  0
    0.7719   -2.2278   -2.8935 C   0  0  0  0  0  0  0  0  0  0  0  0
    0.7719   -0.8347   -2.2980 C   0  0  0  0  0  0  0  0  0  0  0  0
   -0.4111   -0.1712   -2.6656 O   0  0  0  0  0  0  0  0  0  0  0  0
   -0.4818    1.1469   -2.1847 C   0  0  0  0  0  3  0  0  0  0  0  0
   -1.7851    1.7647   -2.6356 C   0  0  0  0  0  0  0  0  0  0  0  0
    1.6540   -1.7135   -4.8061 H   0  0  0  0  0  0  0  0  0  0  0  0
   -0.1108   -1.7181   -4.8025 H   0  0  0  0  0  0  0  0  0  0  0  0
    0.7774   -3.2457   -4.8091 H   0  0  0  0  0  0  0  0  0  0  0  0
    1.6535   -2.7543   -2.5173 H   0  0  0  0  0  0  0  0  0  0  0  0
   -0.1024   -2.7658   -2.5183 H   0  0  0  0  0  0  0  0  0  0  0  0
    1.6461   -0.2697   -2.6584 H   0  0  0  0  0  0  0  0  0  0  0  0
    0.8467   -0.8887   -1.2020 H   0  0  0  0  0  0  0  0  0  0  0  0
   -0.4011    1.1503   -0.8670 H   0  0  0  0  0  0  0  0  0  0  0  0
    0.3711    1.7299   -2.5626 H   0  0  0  0  0  0  0  0  0  0  0  0
   -2.6315    1.1953   -2.2499 H   0  0  0  0  0  0  0  0  0  0  0  0
   -1.8459    1.7765   -3.7244 H   0  0  0  0  0  0  0  0  0  0  0  0
   -1.8627    2.7907   -2.2725 H   0  0  0  0  0  0  0  0  0  0  0  0
  1  2  1  0
  1  7  1  0
  1  8  1  0
  1 31  1  0
  2  3  1  0
  2  9  1  0
  2 10  1  0
  3  4  1  0
  3 11  1  0
  3 12  1  0
  4  5  1  0
  5  6  1  0
  5 13  1  0
  5 14  1  0
  6 15  1  0
  6 16  1  0
  6 17  1  0
 18 19  1  0
 18 24  1  0
 18 25  1  0
 18 26  1  0
 19 20  1  0
 19 27  1  0
 19 28  1  0
 20 21  1  0
 20 29  1  0
 20 30  1  0
 21 22  1  0
 22 23  1  0
 22 32  1  0
 23 33  1  0
 23 34  1  0
 23 35  1  0
M  RAD  1  22   2
M  END
>  <reaction>  (6) 
rmg_rxn_291

>  <mol_properties>  (6) 
{"0": {"label": "*3", "atom_type": "Cs"}, "1": {"label": "*4", "atom_type": "Cs"}, "20": {"label": "*0", "atom_type": "O2s"}, "21": {"label": "*1", "atom_type": "Cs"}, "30": {"label": "*2", "atom_type": "H0"}}

>  <type>  (6) 
unop_2

>  <geom_source>  (6) 
Heuristics

$$$$

     RDKit          3D

 35 33  0  0  0  0  0  0  0  0999 V2000
   -0.2925    0.4129    0.4370 C   0  0  0  0  0  0  0  0  0  0  0  0
    0.3549    1.6951    0.9432 C   0  0  0  0  0  0  0  0  0  0  0  0
   -0.1214    2.0979    2.3238 C   0  0  0  0  0  0  0  0  0  0  0  0
    0.2482    1.1086    3.2510 O   0  0  0  0  0  0  0  0  0  0  0  0
   -0.1854    1.3824    4.5589 C   0  0  0  0  0  0  0  0  0  0  0  0
    0.2617    0.2619    5.4689 C   0  0  0  0  0  0  0  0  0  0  0  0
   -0.0718   -0.4204    1.1041 H   0  0  0  0  0  0  0  0  0  0  0  0
   -1.3787    0.5204    0.3818 H   0  0  0  0  0  0  0  0  0  0  0  0
    0.1397    2.5207    0.2592 H   0  0  0  0  0  0  0  0  0  0  0  0
    1.4417    1.5814    0.9704 H   0  0  0  0  0  0  0  0  0  0  0  0
   -1.2160    2.2221    2.3247 H   0  0  0  0  0  0  0  0  0  0  0  0
    0.3175    3.0645    2.6116 H   0  0  0  0  0  0  0  0  0  0  0  0
    0.2303    2.3426    4.8987 H   0  0  0  0  0  0  0  0  0  0  0  0
   -1.2809    1.4792    4.5779 H   0  0  0  0  0  0  0  0  0  0  0  0
    1.3487    0.1741    5.4614 H   0  0  0  0  0  0  0  0  0  0  0  0
   -0.0639    0.4534    6.4926 H   0  0  0  0  0  0  0  0  0  0  0  0
   -0.1624   -0.6882    5.1421 H   0  0  0  0  0  0  0  0  0  0  0  0
    0.8005   -2.9686   -4.4191 C   0  0  0  0  0  0  0  0  0  0  0  0
    0.8005   -2.9686   -2.8962 C   0  0  0  0  0  0  0  0  0  0  0  0
    0.8005   -1.5755   -2.3007 C   0  0  0  0  0  0  0  0  0  0  0  0
   -0.3825   -0.9120   -2.6683 O   0  0  0  0  0  0  0  0  0  0  0  0
   -0.4532    0.4061   -2.1874 C   0  0  0  0  0  3  0  0  0  0  0  0
   -1.7565    1.0239   -2.6382 C   0  0  0  0  0  0  0  0  0  0  0  0
    1.6826   -2.4543   -4.8087 H   0  0  0  0  0  0  0  0  0  0  0  0
   -0.0822   -2.4589   -4.8052 H   0  0  0  0  0  0  0  0  0  0  0  0
    0.8060   -3.9865   -4.8118 H   0  0  0  0  0  0  0  0  0  0  0  0
    1.6820   -3.4951   -2.5199 H   0  0  0  0  0  0  0  0  0  0  0  0
   -0.0739   -3.5066   -2.5209 H   0  0  0  0  0  0  0  0  0  0  0  0
    1.6747   -1.0105   -2.6611 H   0  0  0  0  0  0  0  0  0  0  0  0
    0.8753   -1.6295   -1.2046 H   0  0  0  0  0  0  0  0  0  0  0  0
   -0.3725    0.4095   -0.8697 H   0  0  0  0  0  0  0  0  0  0  0  0
    0.3997    0.9891   -2.5653 H   0  0  0  0  0  0  0  0  0  0  0  0
   -2.6029    0.4545   -2.2525 H   0  0  0  0  0  0  0  0  0  0  0  0
   -1.8173    1.0357   -3.7270 H   0  0  0  0  0  0  0  0  0  0  0  0
   -1.8341    2.0499   -2.2752 H   0  0  0  0  0  0  0  0  0  0  0  0
  1  2  1  0
  1  7  1  0
  1  8  1  0
  1 31  1  0
  2  3  1  0
  2  9  1  0
  2 10  1  0
  3  4  1  0
  3 11  1  0
  3 12  1  0
  4  5  1  0
  5  6  1  0
  5 13  1  0
  5 14  1  0
  6 15  1  0
  6 16  1  0
  6 17  1  0
 18 19  1  0
 18 24  1  0
 18 25  1  0
 18 26  1  0
 19 20  1  0
 19 27  1  0
 19 28  1  0
 20 21  1  0
 20 29  1  0
 20 30  1  0
 21 22  1  0
 22 23  1  0
 22 32  1  0
 23 33  1  0
 23 34  1  0
 23 35  1  0
M  RAD  1  22   2
M  END
>  <reaction>  (7) 
rmg_rxn_291

>  <mol_properties>  (7) 
{"0": {"label": "*3", "atom_type": "Cs"}, "1": {"label": "*4", "atom_type": "Cs"}, "20": {"label": "*0", "atom_type": "O2s"}, "21": {"label": "*1", "atom_type": "Cs"}, "30": {"label": "*2", "atom_type": "H0"}}

>  <type>  (7) 
unop_3

>  <geom_source>  (7) 
Heuristics

$$$$

     RDKit          3D

 35 33  0  0  0  0  0  0  0  0999 V2000
    0.7352    0.3903    0.7895 C   0  0  0  0  0  0  0  0  0  0  0  0
   -0.4022   -0.4098    1.4104 C   0  0  0  0  0  0  0  0  0  0  0  0
   -0.8353    0.1210    2.7616 C   0  0  0  0  0  0  0  0  0  0  0  0
   -1.3419    1.4231    2.6099 O   0  0  0  0  0  0  0  0  0  0  0  0
   -1.7371    2.0109    3.8231 C   0  0  0  0  0  0  0  0  0  0  0  0
   -2.2620    3.4009    3.5470 C   0  0  0  0  0  0  0  0  0  0  0  0
    0.4407    1.4294    0.6422 H   0  0  0  0  0  0  0  0  0  0  0  0
    1.6170    0.3794    1.4350 H   0  0  0  0  0  0  0  0  0  0  0  0
   -0.1014   -1.4531    1.5397 H   0  0  0  0  0  0  0  0  0  0  0  0
   -1.2684   -0.4102    0.7436 H   0  0  0  0  0  0  0  0  0  0  0  0
    0.0198    0.1301    3.4559 H   0  0  0  0  0  0  0  0  0  0  0  0
   -1.6046   -0.5322    3.1991 H   0  0  0  0  0  0  0  0  0  0  0  0
   -2.5125    1.3956    4.3031 H   0  0  0  0  0  0  0  0  0  0  0  0
   -0.8829    2.0528    4.5149 H   0  0  0  0  0  0  0  0  0  0  0  0
   -3.1175    3.3592    2.8721 H   0  0  0  0  0  0  0  0  0  0  0  0
   -2.5762    3.8779    4.4767 H   0  0  0  0  0  0  0  0  0  0  0  0
   -1.4891    4.0164    3.0853 H   0  0  0  0  0  0  0  0  0  0  0  0
    1.8281   -2.9912   -4.0667 C   0  0  0  0  0  0  0  0  0  0  0  0
    1.8281   -2.9912   -2.5438 C   0  0  0  0  0  0  0  0  0  0  0  0
    1.8281   -1.5981   -1.9482 C   0  0  0  0  0  0  0  0  0  0  0  0
    0.6451   -0.9345   -2.3158 O   0  0  0  0  0  0  0  0  0  0  0  0
    0.5744    0.3835   -1.8350 C   0  0  0  0  0  3  0  0  0  0  0  0
   -0.7289    1.0013   -2.2858 C   0  0  0  0  0  0  0  0  0  0  0  0
    2.7102   -2.4769   -4.4563 H   0  0  0  0  0  0  0  0  0  0  0  0
    0.9454   -2.4815   -4.4527 H   0  0  0  0  0  0  0  0  0  0  0  0
    1.8336   -4.0091   -4.4593 H   0  0  0  0  0  0  0  0  0  0  0  0
    2.7097   -3.5177   -2.1675 H   0  0  0  0  0  0  0  0  0  0  0  0
    0.9538   -3.5292   -2.1685 H   0  0  0  0  0  0  0  0  0  0  0  0
    2.7023   -1.0331   -2.3086 H   0  0  0  0  0  0  0  0  0  0  0  0
    1.9029   -1.6521   -0.8522 H   0  0  0  0  0  0  0  0  0  0  0  0
    0.6551    0.3869   -0.5173 H   0  0  0  0  0  0  0  0  0  0  0  0
    1.4273    0.9665   -2.2128 H   0  0  0  0  0  0  0  0  0  0  0  0
   -1.5753    0.4319   -1.9001 H   0  0  0  0  0  0  0  0  0  0  0  0
   -0.7897    1.0131   -3.3746 H   0  0  0  0  0  0  0  0  0  0  0  0
   -0.8065    2.0273   -1.9227 H   0  0  0  0  0  0  0  0  0  0  0  0
  1  2  1  0
  1  7  1  0
  1  8  1  0
  1 31  1  0
  2  3  1  0
  2  9  1  0
  2 10  1  0
  3  4  1  0
  3 11  1  0
  3 12  1  0
  4  5  1  0
  5  6  1  0
  5 13  1  0
  5 14  1  0
  6 15  1  0
  6 16  1  0
  6 17  1  0
 18 19  1  0
 18 24  1  0
 18 25  1  0
 18 26  1  0
 19 20  1  0
 19 27  1  0
 19 28  1  0
 20 21  1  0
 20 29  1  0
 20 30  1  0
 21 22  1  0
 22 23  1  0
 22 32  1  0
 23 33  1  0
 23 34  1  0
 23 35  1  0
M  RAD  1  22   2
M  END
>  <reaction>  (8) 
rmg_rxn_291

>  <mol_properties>  (8) 
{"0": {"label": "*3", "atom_type": "Cs"}, "1": {"label": "*4", "atom_type": "Cs"}, "20": {"label": "*0", "atom_type": "O2s"}, "21": {"label": "*1", "atom_type": "Cs"}, "30": {"label": "*2", "atom_type": "H0"}}

>  <type>  (8) 
unop_4

>  <geom_source>  (8) 
Heuristics

$$$$

     RDKit          3D

 35 33  0  0  0  0  0  0  0  0999 V2000
   -0.5822    0.3486    0.5363 C   0  0  0  0  0  0  0  0  0  0  0  0
   -0.6563    1.7668    1.0863 C   0  0  0  0  0  0  0  0  0  0  0  0
   -0.5753    1.8243    2.5981 C   0  0  0  0  0  0  0  0  0  0  0  0
    0.6729    1.3324    3.0166 O   0  0  0  0  0  0  0  0  0  0  0  0
    0.8239    1.3151    4.4131 C   0  0  0  0  0  0  0  0  0  0  0  0
    2.1923    0.7710    4.7522 C   0  0  0  0  0  0  0  0  0  0  0  0
    0.3557   -0.1276    0.8217 H   0  0  0  0  0  0  0  0  0  0  0  0
   -1.4009   -0.2628    0.9238 H   0  0  0  0  0  0  0  0  0  0  0  0
   -1.5939    2.2401    0.7816 H   0  0  0  0  0  0  0  0  0  0  0  0
    0.1536    2.3728    0.6720 H   0  0  0  0  0  0  0  0  0  0  0  0
   -1.3836    1.2225    3.0430 H   0  0  0  0  0  0  0  0  0  0  0  0
   -0.7073    2.8587    2.9479 H   0  0  0  0  0  0  0  0  0  0  0  0
    0.7038    2.3317    4.8162 H   0  0  0  0  0  0  0  0  0  0  0  0
    0.0391    0.6922    4.8672 H   0  0  0  0  0  0  0  0  0  0  0  0
    2.9713    1.3958    4.3140 H   0  0  0  0  0  0  0  0  0  0  0  0
    2.3329    0.7486    5.8340 H   0  0  0  0  0  0  0  0  0  0  0  0
    2.3068   -0.2427    4.3666 H   0  0  0  0  0  0  0  0  0  0  0  0
    0.5108   -3.0329   -4.3199 C   0  0  0  0  0  0  0  0  0  0  0  0
    0.5108   -3.0329   -2.7969 C   0  0  0  0  0  0  0  0  0  0  0  0
    0.5108   -1.6399   -2.2014 C   0  0  0  0  0  0  0  0  0  0  0  0
   -0.6722   -0.9763   -2.5690 O   0  0  0  0  0  0  0  0  0  0  0  0
   -0.7429    0.3418   -2.0881 C   0  0  0  0  0  3  0  0  0  0  0  0
   -2.0463    0.9596   -2.5390 C   0  0  0  0  0  0  0  0  0  0  0  0
    1.3929   -2.5186   -4.7095 H   0  0  0  0  0  0  0  0  0  0  0  0
   -0.3719   -2.5232   -4.7059 H   0  0  0  0  0  0  0  0  0  0  0  0
    0.5163   -4.0508   -4.7125 H   0  0  0  0  0  0  0  0  0  0  0  0
    1.3923   -3.5594   -2.4207 H   0  0  0  0  0  0  0  0  0  0  0  0
   -0.3636   -3.5709   -2.4217 H   0  0  0  0  0  0  0  0  0  0  0  0
    1.3850   -1.0748   -2.5618 H   0  0  0  0  0  0  0  0  0  0  0  0
    0.5856   -1.6938   -1.1054 H   0  0  0  0  0  0  0  0  0  0  0  0
   -0.6622    0.3452   -0.7704 H   0  0  0  0  0  0  0  0  0  0  0  0
    0.1099    0.9248   -2.4660 H   0  0  0  0  0  0  0  0  0  0  0  0
   -2.8926    0.3902   -2.1533 H   0  0  0  0  0  0  0  0  0  0  0  0
   -2.1071    0.9714   -3.6278 H   0  0  0  0  0  0  0  0  0  0  0  0
   -2.1239    1.9856   -2.1759 H   0  0  0  0  0  0  0  0  0  0  0  0
  1  2  1  0
  1  7  1  0
  1  8  1  0
  1 31  1  0
  2  3  1  0
  2  9  1  0
  2 10  1  0
  3  4  1  0
  3 11  1  0
  3 12  1  0
  4  5  1  0
  5  6  1  0
  5 13  1  0
  5 14  1  0
  6 15  1  0
  6 16  1  0
  6 17  1  0
 18 19  1  0
 18 24  1  0
 18 25  1  0
 18 26  1  0
 19 20  1  0
 19 27  1  0
 19 28  1  0
 20 21  1  0
 20 29  1  0
 20 30  1  0
 21 22  1  0
 22 23  1  0
 22 32  1  0
 23 33  1  0
 23 34  1  0
 23 35  1  0
M  RAD  1  22   2
M  END
>  <reaction>  (9) 
rmg_rxn_291

>  <mol_properties>  (9) 
{"0": {"label": "*3", "atom_type": "Cs"}, "1": {"label": "*4", "atom_type": "Cs"}, "20": {"label": "*0", "atom_type": "O2s"}, "21": {"label": "*1", "atom_type": "Cs"}, "30": {"label": "*2", "atom_type": "H0"}}

>  <type>  (9) 
unop_5

>  <geom_source>  (9) 
Heuristics

$$$$

     RDKit          3D

 35 33  0  0  0  0  0  0  0  0999 V2000
    0.4700   -0.0775    0.9153 C   0  0  0  0  0  0  0  0  0  0  0  0
   -0.9106   -0.1836    1.5493 C   0  0  0  0  0  0  0  0  0  0  0  0
   -1.0673    0.6811    2.7834 C   0  0  0  0  0  0  0  0  0  0  0  0
   -0.9303    2.0331    2.4251 O   0  0  0  0  0  0  0  0  0  0  0  0
   -1.0264    2.9105    3.5180 C   0  0  0  0  0  0  0  0  0  0  0  0
   -0.8650    4.3295    3.0240 C   0  0  0  0  0  0  0  0  0  0  0  0
    0.6775    0.9486    0.6118 H   0  0  0  0  0  0  0  0  0  0  0  0
    1.2470   -0.3828    1.6205 H   0  0  0  0  0  0  0  0  0  0  0  0
   -1.1143   -1.2190    1.8363 H   0  0  0  0  0  0  0  0  0  0  0  0
   -1.6788    0.1015    0.8258 H   0  0  0  0  0  0  0  0  0  0  0  0
   -0.3053    0.4128    3.5322 H   0  0  0  0  0  0  0  0  0  0  0  0
   -2.0519    0.5131    3.2442 H   0  0  0  0  0  0  0  0  0  0  0  0
   -1.9995    2.7850    4.0155 H   0  0  0  0  0  0  0  0  0  0  0  0
   -0.2504    2.6712    4.2600 H   0  0  0  0  0  0  0  0  0  0  0  0
   -1.6423    4.5723    2.2985 H   0  0  0  0  0  0  0  0  0  0  0  0
   -0.9368    5.0304    3.8572 H   0  0  0  0  0  0  0  0  0  0  0  0
    0.1058    4.4591    2.5444 H   0  0  0  0  0  0  0  0  0  0  0  0
    1.5629   -3.4590   -3.9408 C   0  0  0  0  0  0  0  0  0  0  0  0
    1.5629   -3.4590   -2.4179 C   0  0  0  0  0  0  0  0  0  0  0  0
    1.5629   -2.0660   -1.8224 C   0  0  0  0  0  0  0  0  0  0  0  0
    0.3799   -1.4024   -2.1900 O   0  0  0  0  0  0  0  0  0  0  0  0
    0.3092   -0.0843   -1.7091 C   0  0  0  0  0  3  0  0  0  0  0  0
   -0.9941    0.5335   -2.1599 C   0  0  0  0  0  0  0  0  0  0  0  0
    2.4450   -2.9447   -4.3304 H   0  0  0  0  0  0  0  0  0  0  0  0
    0.6802   -2.9493   -4.3269 H   0  0  0  0  0  0  0  0  0  0  0  0
    1.5684   -4.4769   -4.3335 H   0  0  0  0  0  0  0  0  0  0  0  0
    2.4445   -3.9855   -2.0416 H   0  0  0  0  0  0  0  0  0  0  0  0
    0.6886   -3.9970   -2.0426 H   0  0  0  0  0  0  0  0  0  0  0  0
    2.4371   -1.5009   -2.1828 H   0  0  0  0  0  0  0  0  0  0  0  0
    1.6377   -2.1199   -0.7263 H   0  0  0  0  0  0  0  0  0  0  0  0
    0.3899   -0.0809   -0.3914 H   0  0  0  0  0  0  0  0  0  0  0  0
    1.1621    0.4987   -2.0870 H   0  0  0  0  0  0  0  0  0  0  0  0
   -1.8405   -0.0359   -1.7742 H   0  0  0  0  0  0  0  0  0  0  0  0
   -1.0549    0.5453   -3.2487 H   0  0  0  0  0  0  0  0  0  0  0  0
   -1.0717    1.5595   -1.7969 H   0  0  0  0  0  0  0  0  0  0  0  0
  1  2  1  0
  1  7  1  0
  1  8  1  0
  1 31  1  0
  2  3  1  0
  2  9  1  0
  2 10  1  0
  3  4  1  0
  3 11  1  0
  3 12  1  0
  4  5  1  0
  5  6  1  0
  5 13  1  0
  5 14  1  0
  6 15  1  0
  6 16  1  0
  6 17  1  0
 18 19  1  0
 18 24  1  0
 18 25  1  0
 18 26  1  0
 19 20  1  0
 19 27  1  0
 19 28  1  0
 20 21  1  0
 20 29  1  0
 20 30  1  0
 21 22  1  0
 22 23  1  0
 22 32  1  0
 23 33  1  0
 23 34  1  0
 23 35  1  0
M  RAD  1  22   2
M  END
>  <reaction>  (10) 
rmg_rxn_291

>  <mol_properties>  (10) 
{"0": {"label": "*3", "atom_type": "Cs"}, "1": {"label": "*4", "atom_type": "Cs"}, "20": {"label": "*0", "atom_type": "O2s"}, "21": {"label": "*1", "atom_type": "Cs"}, "30": {"label": "*2", "atom_type": "H0"}}

>  <type>  (10) 
unop_6

>  <geom_source>  (10) 
Heuristics

$$$$

     RDKit          3D

 35 33  0  0  0  0  0  0  0  0999 V2000
   -0.0446   -0.2868    0.9539 C   0  0  0  0  0  0  0  0  0  0  0  0
   -1.2895    0.3298    1.5777 C   0  0  0  0  0  0  0  0  0  0  0  0
   -0.9842    1.2035    2.7771 C   0  0  0  0  0  0  0  0  0  0  0  0
   -0.1978    2.2949    2.3702 O   0  0  0  0  0  0  0  0  0  0  0  0
    0.1650    3.1443    3.4288 C   0  0  0  0  0  0  0  0  0  0  0  0
    1.0044    4.2766    2.8840 C   0  0  0  0  0  0  0  0  0  0  0  0
    0.6418    0.4889    0.6145 H   0  0  0  0  0  0  0  0  0  0  0  0
    0.4855   -0.9111    1.6776 H   0  0  0  0  0  0  0  0  0  0  0  0
   -1.9773   -0.4565    1.9009 H   0  0  0  0  0  0  0  0  0  0  0  0
   -1.8219    0.9315    0.8365 H   0  0  0  0  0  0  0  0  0  0  0  0
   -0.4485    0.6204    3.5429 H   0  0  0  0  0  0  0  0  0  0  0  0
   -1.9177    1.5635    3.2341 H   0  0  0  0  0  0  0  0  0  0  0  0
   -0.7372    3.5368    3.9210 H   0  0  0  0  0  0  0  0  0  0  0  0
    0.7271    2.5791    4.1868 H   0  0  0  0  0  0  0  0  0  0  0  0
    0.4430    4.8459    2.1424 H   0  0  0  0  0  0  0  0  0  0  0  0
    1.2981    4.9511    3.6898 H   0  0  0  0  0  0  0  0  0  0  0  0
    1.9068    3.8894    2.4096 H   0  0  0  0  0  0  0  0  0  0  0  0
    1.0484   -3.6683   -3.9023 C   0  0  0  0  0  0  0  0  0  0  0  0
    1.0484   -3.6683   -2.3794 C   0  0  0  0  0  0  0  0  0  0  0  0
    1.0484   -2.2753   -1.7838 C   0  0  0  0  0  0  0  0  0  0  0  0
   -0.1346   -1.6117   -2.1514 O   0  0  0  0  0  0  0  0  0  0  0  0
   -0.2053   -0.2936   -1.6705 C   0  0  0  0  0  3  0  0  0  0  0  0
   -1.5086    0.3242   -2.1214 C   0  0  0  0  0  0  0  0  0  0  0  0
    1.9305   -3.1540   -4.2919 H   0  0  0  0  0  0  0  0  0  0  0  0
    0.1657   -3.1587   -4.2883 H   0  0  0  0  0  0  0  0  0  0  0  0
    1.0539   -4.6862   -4.2949 H   0  0  0  0  0  0  0  0  0  0  0  0
    1.9299   -4.1948   -2.0031 H   0  0  0  0  0  0  0  0  0  0  0  0
    0.1740   -4.2063   -2.0041 H   0  0  0  0  0  0  0  0  0  0  0  0
    1.9226   -1.7102   -2.1442 H   0  0  0  0  0  0  0  0  0  0  0  0
    1.1232   -2.3292   -0.6878 H   0  0  0  0  0  0  0  0  0  0  0  0
   -0.1246   -0.2902   -0.3528 H   0  0  0  0  0  0  0  0  0  0  0  0
    0.6476    0.2894   -2.0484 H   0  0  0  0  0  0  0  0  0  0  0  0
   -2.3550   -0.2452   -1.7357 H   0  0  0  0  0  0  0  0  0  0  0  0
   -1.5694    0.3360   -3.2102 H   0  0  0  0  0  0  0  0  0  0  0  0
   -1.5862    1.3502   -1.7583 H   0  0  0  0  0  0  0  0  0  0  0  0
  1  2  1  0
  1  7  1  0
  1  8  1  0
  1 31  1  0
  2  3  1  0
  2  9  1  0
  2 10  1  0
  3  4  1  0
  3 11  1  0
  3 12  1  0
  4  5  1  0
  5  6  1  0
  5 13  1  0
  5 14  1  0
  6 15  1  0
  6 16  1  0
  6 17  1  0
 18 19  1  0
 18 24  1  0
 18 25  1  0
 18 26  1  0
 19 20  1  0
 19 27  1  0
 19 28  1  0
 20 21  1  0
 20 29  1  0
 20 30  1  0
 21 22  1  0
 22 23  1  0
 22 32  1  0
 23 33  1  0
 23 34  1  0
 23 35  1  0
M  RAD  1  22   2
M  END
>  <reaction>  (11) 
rmg_rxn_291

>  <mol_properties>  (11) 
{"0": {"label": "*3", "atom_type": "Cs"}, "1": {"label": "*4", "atom_type": "Cs"}, "20": {"label": "*0", "atom_type": "O2s"}, "21": {"label": "*1", "atom_type": "Cs"}, "30": {"label": "*2", "atom_type": "H0"}}

>  <type>  (11) 
unop_7

>  <geom_source>  (11) 
Heuristics

$$$$

     RDKit          3D

 35 33  0  0  0  0  0  0  0  0999 V2000
   -0.5625    0.4930    0.4826 C   0  0  0  0  0  0  0  0  0  0  0  0
    0.8851    0.6020    0.9428 C   0  0  0  0  0  0  0  0  0  0  0  0
    1.0607    1.5037    2.1475 C   0  0  0  0  0  0  0  0  0  0  0  0
    0.3671    0.9592    3.2418 O   0  0  0  0  0  0  0  0  0  0  0  0
    0.4453    1.7510    4.3996 C   0  0  0  0  0  0  0  0  0  0  0  0
   -0.3307    1.0780    5.5080 C   0  0  0  0  0  0  0  0  0  0  0  0
   -1.1904    0.0877    1.2760 H   0  0  0  0  0  0  0  0  0  0  0  0
   -0.9591    1.4738    0.2085 H   0  0  0  0  0  0  0  0  0  0  0  0
    1.5082    0.9954    0.1348 H   0  0  0  0  0  0  0  0  0  0  0  0
    1.2757   -0.3883    1.1906 H   0  0  0  0  0  0  0  0  0  0  0  0
    0.6766    2.5117    1.9244 H   0  0  0  0  0  0  0  0  0  0  0  0
    2.1276    1.6075    2.3938 H   0  0  0  0  0  0  0  0  0  0  0  0
    1.4973    1.8841    4.6928 H   0  0  0  0  0  0  0  0  0  0  0  0
    0.0367    2.7521    4.1972 H   0  0  0  0  0  0  0  0  0  0  0  0
    0.0824    0.0909    5.7187 H   0  0  0  0  0  0  0  0  0  0  0  0
   -0.2836    1.6758    6.4195 H   0  0  0  0  0  0  0  0  0  0  0  0
   -1.3771    0.9597    5.2245 H   0  0  0  0  0  0  0  0  0  0  0  0
    0.5304   -2.8885   -4.3735 C   0  0  0  0  0  0  0  0  0  0  0  0
    0.5304   -2.8885   -2.8506 C   0  0  0  0  0  0  0  0  0  0  0  0
    0.5304   -1.4955   -2.2551 C   0  0  0  0  0  0  0  0  0  0  0  0
   -0.6526   -0.8319   -2.6227 O   0  0  0  0  0  0  0  0  0  0  0  0
   -0.7233    0.4862   -2.1418 C   0  0  0  0  0  3  0  0  0  0  0  0
   -2.0266    1.1040   -2.5927 C   0  0  0  0  0  0  0  0  0  0  0  0
    1.4125   -2.3742   -4.7632 H   0  0  0  0  0  0  0  0  0  0  0  0
   -0.3523   -2.3788   -4.7596 H   0  0  0  0  0  0  0  0  0  0  0  0
    0.5359   -3.9064   -4.7662 H   0  0  0  0  0  0  0  0  0  0  0  0
    1.4120   -3.4150   -2.4744 H   0  0  0  0  0  0  0  0  0  0  0  0
   -0.3439   -3.4265   -2.4754 H   0  0  0  0  0  0  0  0  0  0  0  0
    1.4046   -0.9304   -2.6155 H   0  0  0  0  0  0  0  0  0  0  0  0
    0.6052   -1.5494   -1.1591 H   0  0  0  0  0  0  0  0  0  0  0  0
   -0.6426    0.4896   -0.8241 H   0  0  0  0  0  0  0  0  0  0  0  0
    0.1296    1.0692   -2.5197 H   0  0  0  0  0  0  0  0  0  0  0  0
   -2.8729    0.5346   -2.2070 H   0  0  0  0  0  0  0  0  0  0  0  0
   -2.0874    1.1158   -3.6815 H   0  0  0  0  0  0  0  0  0  0  0  0
   -2.1042    2.1300   -2.2296 H   0  0  0  0  0  0  0  0  0  0  0  0
  1  2  1  0
  1  7  1  0
  1  8  1  0
  1 31  1  0
  2  3  1  0
  2  9  1  0
  2 10  1  0
  3  4  1  0
  3 11  1  0
  3 12  1  0
  4  5  1  0
  5  6  1  0
  5 13  1  0
  5 14  1  0
  6 15  1  0
  6 16  1  0
  6 17  1  0
 18 19  1  0
 18 24  1  0
 18 25  1  0
 18 26  1  0
 19 20  1  0
 19 27  1  0
 19 28  1  0
 20 21  1  0
 20 29  1  0
 20 30  1  0
 21 22  1  0
 22 23  1  0
 22 32  1  0
 23 33  1  0
 23 34  1  0
 23 35  1  0
M  RAD  1  22   2
M  END
>  <reaction>  (12) 
rmg_rxn_291

>  <mol_properties>  (12) 
{"0": {"label": "*3", "atom_type": "Cs"}, "1": {"label": "*4", "atom_type": "Cs"}, "20": {"label": "*0", "atom_type": "O2s"}, "21": {"label": "*1", "atom_type": "Cs"}, "30": {"label": "*2", "atom_type": "H0"}}

>  <type>  (12) 
unop_8

>  <geom_source>  (12) 
Heuristics

$$$$

     RDKit          3D

 35 33  0  0  0  0  0  0  0  0999 V2000
    0.6291    0.9083    0.6242 C   0  0  0  0  0  0  0  0  0  0  0  0
    0.0487   -0.3710    1.2122 C   0  0  0  0  0  0  0  0  0  0  0  0
   -0.2785   -0.2537    2.6868 C   0  0  0  0  0  0  0  0  0  0  0  0
   -1.2766    0.7192    2.8664 O   0  0  0  0  0  0  0  0  0  0  0  0
   -1.6199    0.9217    4.2135 C   0  0  0  0  0  0  0  0  0  0  0  0
   -2.6938    1.9819    4.2924 C   0  0  0  0  0  0  0  0  0  0  0  0
   -0.0741    1.7346    0.7280 H   0  0  0  0  0  0  0  0  0  0  0  0
    1.5536    1.1878    1.1356 H   0  0  0  0  0  0  0  0  0  0  0  0
    0.7557   -1.1961    1.0893 H   0  0  0  0  0  0  0  0  0  0  0  0
   -0.8616   -0.6513    0.6759 H   0  0  0  0  0  0  0  0  0  0  0  0
    0.6239    0.0262    3.2531 H   0  0  0  0  0  0  0  0  0  0  0  0
   -0.6234   -1.2217    3.0790 H   0  0  0  0  0  0  0  0  0  0  0  0
   -1.9766   -0.0205    4.6555 H   0  0  0  0  0  0  0  0  0  0  0  0
   -0.7317    1.2309    4.7841 H   0  0  0  0  0  0  0  0  0  0  0  0
   -3.5800    1.6701    3.7385 H   0  0  0  0  0  0  0  0  0  0  0  0
   -2.9776    2.1560    5.3315 H   0  0  0  0  0  0  0  0  0  0  0  0
   -2.3358    2.9208    3.8687 H   0  0  0  0  0  0  0  0  0  0  0  0
    1.7220   -2.4732   -4.2320 C   0  0  0  0  0  0  0  0  0  0  0  0
    1.7220   -2.4732   -2.7091 C   0  0  0  0  0  0  0  0  0  0  0  0
    1.7220   -1.0802   -2.1135 C   0  0  0  0  0  0  0  0  0  0  0  0
    0.5390   -0.4166   -2.4811 O   0  0  0  0  0  0  0  0  0  0  0  0
    0.4683    0.9015   -2.0003 C   0  0  0  0  0  3  0  0  0  0  0  0
   -0.8350    1.5193   -2.4511 C   0  0  0  0  0  0  0  0  0  0  0  0
    2.6041   -1.9589   -4.6216 H   0  0  0  0  0  0  0  0  0  0  0  0
    0.8393   -1.9635   -4.6180 H   0  0  0  0  0  0  0  0  0  0  0  0
    1.7275   -3.4911   -4.6246 H   0  0  0  0  0  0  0  0  0  0  0  0
    2.6036   -2.9997   -2.3328 H   0  0  0  0  0  0  0  0  0  0  0  0
    0.8477   -3.0112   -2.3338 H   0  0  0  0  0  0  0  0  0  0  0  0
    2.5962   -0.5151   -2.4739 H   0  0  0  0  0  0  0  0  0  0  0  0
    1.7968   -1.1341   -1.0175 H   0  0  0  0  0  0  0  0  0  0  0  0
    0.5490    0.9049   -0.6826 H   0  0  0  0  0  0  0  0  0  0  0  0
    1.3212    1.4845   -2.3781 H   0  0  0  0  0  0  0  0  0  0  0  0
   -1.6814    0.9499   -2.0654 H   0  0  0  0  0  0  0  0  0  0  0  0
   -0.8958    1.5311   -3.5399 H   0  0  0  0  0  0  0  0  0  0  0  0
   -0.9126    2.5453   -2.0880 H   0  0  0  0  0  0  0  0  0  0  0  0
  1  2  1  0
  1  7  1  0
  1  8  1  0
  1 31  1  0
  2  3  1  0
  2  9  1  0
  2 10  1  0
  3  4  1  0
  3 11  1  0
  3 12  1  0
  4  5  1  0
  5  6  1  0
  5 13  1  0
  5 14  1  0
  6 15  1  0
  6 16  1  0
  6 17  1  0
 18 19  1  0
 18 24  1  0
 18 25  1  0
 18 26  1  0
 19 20  1  0
 19 27  1  0
 19 28  1  0
 20 21  1  0
 20 29  1  0
 20 30  1  0
 21 22  1  0
 22 23  1  0
 22 32  1  0
 23 33  1  0
 23 34  1  0
 23 35  1  0
M  RAD  1  22   2
M  END
>  <reaction>  (13) 
rmg_rxn_291

>  <mol_properties>  (13) 
{"0": {"label": "*3", "atom_type": "Cs"}, "1": {"label": "*4", "atom_type": "Cs"}, "20": {"label": "*0", "atom_type": "O2s"}, "21": {"label": "*1", "atom_type": "Cs"}, "30": {"label": "*2", "atom_type": "H0"}}

>  <type>  (13) 
unop_9

>  <geom_source>  (13) 
Heuristics

$$$$

     RDKit          3D

 35 33  0  0  0  0  0  0  0  0999 V2000
   -0.5949    0.8278    0.4594 C   0  0  0  0  0  0  0  0  0  0  0  0
    0.7171    0.2140    0.9298 C   0  0  0  0  0  0  0  0  0  0  0  0
    1.2341    0.8267    2.2153 C   0  0  0  0  0  0  0  0  0  0  0  0
    0.3186    0.5763    3.2517 O   0  0  0  0  0  0  0  0  0  0  0  0
    0.7008    1.1412    4.4799 C   0  0  0  0  0  0  0  0  0  0  0  0
   -0.3476    0.8145    5.5180 C   0  0  0  0  0  0  0  0  0  0  0  0
   -1.3742    0.6949    1.2098 H   0  0  0  0  0  0  0  0  0  0  0  0
   -0.4811    1.8997    0.2796 H   0  0  0  0  0  0  0  0  0  0  0  0
    1.4873    0.3397    0.1639 H   0  0  0  0  0  0  0  0  0  0  0  0
    0.5948   -0.8614    1.0825 H   0  0  0  0  0  0  0  0  0  0  0  0
    1.3692    1.9126    2.0888 H   0  0  0  0  0  0  0  0  0  0  0  0
    2.2162    0.4028    2.4717 H   0  0  0  0  0  0  0  0  0  0  0  0
    1.6809    0.7462    4.7858 H   0  0  0  0  0  0  0  0  0  0  0  0
    0.8100    2.2306    4.3734 H   0  0  0  0  0  0  0  0  0  0  0  0
   -0.4468   -0.2653    5.6342 H   0  0  0  0  0  0  0  0  0  0  0  0
   -0.0713    1.2434    6.4824 H   0  0  0  0  0  0  0  0  0  0  0  0
   -1.3164    1.2192    5.2232 H   0  0  0  0  0  0  0  0  0  0  0  0
    0.4981   -2.5538   -4.3967 C   0  0  0  0  0  0  0  0  0  0  0  0
    0.4981   -2.5538   -2.8738 C   0  0  0  0  0  0  0  0  0  0  0  0
    0.4981   -1.1607   -2.2783 C   0  0  0  0  0  0  0  0  0  0  0  0
   -0.6849   -0.4971   -2.6459 O   0  0  0  0  0  0  0  0  0  0  0  0
   -0.7556    0.8210   -2.1650 C   0  0  0  0  0  3  0  0  0  0  0  0
   -2.0589    1.4387   -2.6158 C   0  0  0  0  0  0  0  0  0  0  0  0
    1.3802   -2.0394   -4.7863 H   0  0  0  0  0  0  0  0  0  0  0  0
   -0.3846   -2.0441   -4.7828 H   0  0  0  0  0  0  0  0  0  0  0  0
    0.5036   -3.5716   -4.7894 H   0  0  0  0  0  0  0  0  0  0  0  0
    1.3796   -3.0802   -2.4975 H   0  0  0  0  0  0  0  0  0  0  0  0
   -0.3763   -3.0917   -2.4985 H   0  0  0  0  0  0  0  0  0  0  0  0
    1.3723   -0.5956   -2.6387 H   0  0  0  0  0  0  0  0  0  0  0  0
    0.5729   -1.2146   -1.1822 H   0  0  0  0  0  0  0  0  0  0  0  0
   -0.6749    0.8244   -0.8473 H   0  0  0  0  0  0  0  0  0  0  0  0
    0.0973    1.4039   -2.5429 H   0  0  0  0  0  0  0  0  0  0  0  0
   -2.9053    0.8693   -2.2301 H   0  0  0  0  0  0  0  0  0  0  0  0
   -2.1197    1.4506   -3.7046 H   0  0  0  0  0  0  0  0  0  0  0  0
   -2.1365    2.4648   -2.2528 H   0  0  0  0  0  0  0  0  0  0  0  0
  1  2  1  0
  1  7  1  0
  1  8  1  0
  1 31  1  0
  2  3  1  0
  2  9  1  0
  2 10  1  0
  3  4  1  0
  3 11  1  0
  3 12  1  0
  4  5  1  0
  5  6  1  0
  5 13  1  0
  5 14  1  0
  6 15  1  0
  6 16  1  0
  6 17  1  0
 18 19  1  0
 18 24  1  0
 18 25  1  0
 18 26  1  0
 19 20  1  0
 19 27  1  0
 19 28  1  0
 20 21  1  0
 20 29  1  0
 20 30  1  0
 21 22  1  0
 22 23  1  0
 22 32  1  0
 23 33  1  0
 23 34  1  0
 23 35  1  0
M  RAD  1  22   2
M  END
>  <reaction>  (14) 
rmg_rxn_291

>  <mol_properties>  (14) 
{"0": {"label": "*3", "atom_type": "Cs"}, "1": {"label": "*4", "atom_type": "Cs"}, "20": {"label": "*0", "atom_type": "O2s"}, "21": {"label": "*1", "atom_type": "Cs"}, "30": {"label": "*2", "atom_type": "H0"}}

>  <type>  (14) 
unop_10

>  <geom_source>  (14) 
Heuristics

$$$$

     RDKit          3D

 35 33  0  0  0  0  0  0  0  0999 V2000
   -0.5557   -0.1006    0.8305 C   0  0  0  0  0  0  0  0  0  0  0  0
   -1.3224    1.0740    1.4235 C   0  0  0  0  0  0  0  0  0  0  0  0
   -0.7567    1.5472    2.7469 C   0  0  0  0  0  0  0  0  0  0  0  0
    0.5510    2.0232    2.5508 O   0  0  0  0  0  0  0  0  0  0  0  0
    1.1702    2.4523    3.7366 C   0  0  0  0  0  0  0  0  0  0  0  0
    2.5636    2.9402    3.4139 C   0  0  0  0  0  0  0  0  0  0  0  0
    0.4854    0.1685    0.6520 H   0  0  0  0  0  0  0  0  0  0  0  0
   -0.5696   -0.9573    1.5088 H   0  0  0  0  0  0  0  0  0  0  0  0
   -2.3682    0.7980    1.5844 H   0  0  0  0  0  0  0  0  0  0  0  0
   -1.3206    1.9146    0.7248 H   0  0  0  0  0  0  0  0  0  0  0  0
   -0.7490    0.7185    3.4726 H   0  0  0  0  0  0  0  0  0  0  0  0
   -1.3869    2.3445    3.1677 H   0  0  0  0  0  0  0  0  0  0  0  0
    0.5788    3.2564    4.1990 H   0  0  0  0  0  0  0  0  0  0  0  0
    1.2106    1.6238    4.4591 H   0  0  0  0  0  0  0  0  0  0  0  0
    2.5238    3.7706    2.7082 H   0  0  0  0  0  0  0  0  0  0  0  0
    3.0649    3.2798    4.3216 H   0  0  0  0  0  0  0  0  0  0  0  0
    3.1556    2.1392    2.9698 H   0  0  0  0  0  0  0  0  0  0  0  0
    0.5373   -3.4821   -4.0257 C   0  0  0  0  0  0  0  0  0  0  0  0
    0.5373   -3.4821   -2.5028 C   0  0  0  0  0  0  0  0  0  0  0  0
    0.5373   -2.0891   -1.9073 C   0  0  0  0  0  0  0  0  0  0  0  0
   -0.6457   -1.4255   -2.2749 O   0  0  0  0  0  0  0  0  0  0  0  0
   -0.7164   -0.1074   -1.7940 C   0  0  0  0  0  3  0  0  0  0  0  0
   -2.0197    0.5104   -2.2448 C   0  0  0  0  0  0  0  0  0  0  0  0
    1.4194   -2.9678   -4.4153 H   0  0  0  0  0  0  0  0  0  0  0  0
   -0.3454   -2.9724   -4.4118 H   0  0  0  0  0  0  0  0  0  0  0  0
    0.5428   -4.5000   -4.4184 H   0  0  0  0  0  0  0  0  0  0  0  0
    1.4188   -4.0086   -2.1265 H   0  0  0  0  0  0  0  0  0  0  0  0
   -0.3371   -4.0201   -2.1275 H   0  0  0  0  0  0  0  0  0  0  0  0
    1.4115   -1.5240   -2.2677 H   0  0  0  0  0  0  0  0  0  0  0  0
    0.6121   -2.1430   -0.8112 H   0  0  0  0  0  0  0  0  0  0  0  0
   -0.6357   -0.1040   -0.4763 H   0  0  0  0  0  0  0  0  0  0  0  0
    0.1364    0.4756   -2.1718 H   0  0  0  0  0  0  0  0  0  0  0  0
   -2.8661   -0.0590   -1.8591 H   0  0  0  0  0  0  0  0  0  0  0  0
   -2.0805    0.5222   -3.3336 H   0  0  0  0  0  0  0  0  0  0  0  0
   -2.0973    1.5364   -1.8817 H   0  0  0  0  0  0  0  0  0  0  0  0
  1  2  1  0
  1  7  1  0
  1  8  1  0
  1 31  1  0
  2  3  1  0
  2  9  1  0
  2 10  1  0
  3  4  1  0
  3 11  1  0
  3 12  1  0
  4  5  1  0
  5  6  1  0
  5 13  1  0
  5 14  1  0
  6 15  1  0
  6 16  1  0
  6 17  1  0
 18 19  1  0
 18 24  1  0
 18 25  1  0
 18 26  1  0
 19 20  1  0
 19 27  1  0
 19 28  1  0
 20 21  1  0
 20 29  1  0
 20 30  1  0
 21 22  1  0
 22 23  1  0
 22 32  1  0
 23 33  1  0
 23 34  1  0
 23 35  1  0
M  RAD  1  22   2
M  END
>  <reaction>  (15) 
rmg_rxn_291

>  <mol_properties>  (15) 
{"0": {"label": "*3", "atom_type": "Cs"}, "1": {"label": "*4", "atom_type": "Cs"}, "20": {"label": "*0", "atom_type": "O2s"}, "21": {"label": "*1", "atom_type": "Cs"}, "30": {"label": "*2", "atom_type": "H0"}}

>  <type>  (15) 
unop_11

>  <geom_source>  (15) 
Heuristics

$$$$

     RDKit          3D

 35 33  0  0  0  0  0  0  0  0999 V2000
    0.1878    1.2172    0.4869 C   0  0  0  0  0  0  0  0  0  0  0  0
    0.3289   -0.1981    1.0311 C   0  0  0  0  0  0  0  0  0  0  0  0
    0.4330   -0.2477    2.5417 C   0  0  0  0  0  0  0  0  0  0  0  0
   -0.7549    0.2467    3.1068 O   0  0  0  0  0  0  0  0  0  0  0  0
   -0.7344    0.2713    4.5113 C   0  0  0  0  0  0  0  0  0  0  0  0
   -2.0514    0.8176    5.0120 C   0  0  0  0  0  0  0  0  0  0  0  0
   -0.7085    1.6953    0.8822 H   0  0  0  0  0  0  0  0  0  0  0  0
    1.0475    1.8304    0.7685 H   0  0  0  0  0  0  0  0  0  0  0  0
    1.2224   -0.6732    0.6167 H   0  0  0  0  0  0  0  0  0  0  0  0
   -0.5253   -0.8060    0.7218 H   0  0  0  0  0  0  0  0  0  0  0  0
    1.2893    0.3561    2.8815 H   0  0  0  0  0  0  0  0  0  0  0  0
    0.6071   -1.2803    2.8782 H   0  0  0  0  0  0  0  0  0  0  0  0
   -0.5657   -0.7432    4.9019 H   0  0  0  0  0  0  0  0  0  0  0  0
    0.0997    0.8963    4.8630 H   0  0  0  0  0  0  0  0  0  0  0  0
   -2.8779    0.1908    4.6753 H   0  0  0  0  0  0  0  0  0  0  0  0
   -2.0590    0.8456    6.1027 H   0  0  0  0  0  0  0  0  0  0  0  0
   -2.2124    1.8293    4.6380 H   0  0  0  0  0  0  0  0  0  0  0  0
    1.2808   -2.1643   -4.3693 C   0  0  0  0  0  0  0  0  0  0  0  0
    1.2808   -2.1643   -2.8464 C   0  0  0  0  0  0  0  0  0  0  0  0
    1.2808   -0.7713   -2.2508 C   0  0  0  0  0  0  0  0  0  0  0  0
    0.0978   -0.1077   -2.6184 O   0  0  0  0  0  0  0  0  0  0  0  0
    0.0270    1.2104   -2.1375 C   0  0  0  0  0  3  0  0  0  0  0  0
   -1.2763    1.8282   -2.5884 C   0  0  0  0  0  0  0  0  0  0  0  0
    2.1628   -1.6500   -4.7589 H   0  0  0  0  0  0  0  0  0  0  0  0
    0.3980   -1.6547   -4.7553 H   0  0  0  0  0  0  0  0  0  0  0  0
    1.2862   -3.1822   -4.7619 H   0  0  0  0  0  0  0  0  0  0  0  0
    2.1623   -2.6908   -2.4701 H   0  0  0  0  0  0  0  0  0  0  0  0
    0.4064   -2.7023   -2.4711 H   0  0  0  0  0  0  0  0  0  0  0  0
    2.1550   -0.2062   -2.6112 H   0  0  0  0  0  0  0  0  0  0  0  0
    1.3555   -0.8252   -1.1548 H   0  0  0  0  0  0  0  0  0  0  0  0
    0.1077    1.2138   -0.8199 H   0  0  0  0  0  0  0  0  0  0  0  0
    0.8799    1.7934   -2.5154 H   0  0  0  0  0  0  0  0  0  0  0  0
   -2.1226    1.2587   -2.2027 H   0  0  0  0  0  0  0  0  0  0  0  0
   -1.3371    1.8400   -3.6772 H   0  0  0  0  0  0  0  0  0  0  0  0
   -1.3539    2.8542   -2.2253 H   0  0  0  0  0  0  0  0  0  0  0  0
  1  2  1  0
  1  7  1  0
  1  8  1  0
  1 31  1  0
  2  3  1  0
  2  9  1  0
  2 10  1  0
  3  4  1  0
  3 11  1  0
  3 12  1  0
  4  5  1  0
  5  6  1  0
  5 13  1  0
  5 14  1  0
  6 15  1  0
  6 16  1  0
  6 17  1  0
 18 19  1  0
 18 24  1  0
 18 25  1  0
 18 26  1  0
 19 20  1  0
 19 27  1  0
 19 28  1  0
 20 21  1  0
 20 29  1  0
 20 30  1  0
 21 22  1  0
 22 23  1  0
 22 32  1  0
 23 33  1  0
 23 34  1  0
 23 35  1  0
M  RAD  1  22   2
M  END
>  <reaction>  (16) 
rmg_rxn_291

>  <mol_properties>  (16) 
{"0": {"label": "*3", "atom_type": "Cs"}, "1": {"label": "*4", "atom_type": "Cs"}, "20": {"label": "*0", "atom_type": "O2s"}, "21": {"label": "*1", "atom_type": "Cs"}, "30": {"label": "*2", "atom_type": "H0"}}

>  <type>  (16) 
unop_12

>  <geom_source>  (16) 
Heuristics

$$$$

     RDKit          3D

 35 33  0  0  0  0  0  0  0  0999 V2000
    3.5709   -0.8400   -0.1580 O   0  0  0  0  0  0  0  0  0  0  0  0
   -2.6726    0.6196   -0.0070 O   0  0  0  0  0  0  0  0  0  0  0  0
    1.9557    0.4814   -1.3770 C   0  0  0  0  0  0  0  0  0  0  0  0
   -3.7836   -1.0130    1.3611 C   0  0  0  0  0  0  0  0  0  0  0  0
    3.3350    0.4424   -0.7161 C   0  0  0  0  0  0  0  0  0  0  0  0
   -2.6694   -0.7426    0.3490 C   0  0  0  0  0  0  0  0  0  0  0  0
    3.7524   -0.7761    1.2437 C   0  0  0  0  0  0  0  0  0  0  0  0
    0.8300    0.3707   -0.3530 C   0  0  0  0  0  0  0  0  0  0  0  0
   -5.1680   -0.7855    0.7571 C   0  0  0  0  0  0  0  0  0  0  0  0
    5.1967   -0.4240    1.5897 C   0  0  0  0  0  0  0  0  0  0  0  0
   -2.2312    1.4452   -2.2102 C   0  0  0  0  0  0  0  0  0  0  0  0
   -1.6573    0.8059   -0.9571 C   0  0  0  0  0  3  0  0  0  0  0  0
    1.8687   -0.3496   -2.1099 H   0  0  0  0  0  0  0  0  0  0  0  0
    1.8441    1.4401   -1.9277 H   0  0  0  0  0  0  0  0  0  0  0  0
   -3.7113   -2.0670    1.7067 H   0  0  0  0  0  0  0  0  0  0  0  0
   -3.6527   -0.3504    2.2441 H   0  0  0  0  0  0  0  0  0  0  0  0
    3.4288    1.2937   -0.0000 H   0  0  0  0  0  0  0  0  0  0  0  0
    4.0986    0.6153   -1.5038 H   0  0  0  0  0  0  0  0  0  0  0  0
    3.0434   -0.0732    1.7393 H   0  0  0  0  0  0  0  0  0  0  0  0
    3.5350   -1.7817    1.6612 H   0  0  0  0  0  0  0  0  0  0  0  0
   -2.8290   -1.3921   -0.5443 H   0  0  0  0  0  0  0  0  0  0  0  0
   -1.6990   -1.0150    0.8257 H   0  0  0  0  0  0  0  0  0  0  0  0
    5.4447    0.5973    1.2324 H   0  0  0  0  0  0  0  0  0  0  0  0
    5.8885   -1.1528    1.1169 H   0  0  0  0  0  0  0  0  0  0  0  0
    5.3358   -0.4586    2.6908 H   0  0  0  0  0  0  0  0  0  0  0  0
    0.8764   -0.6070    0.1718 H   0  0  0  0  0  0  0  0  0  0  0  0
    0.9015    1.1924    0.3911 H   0  0  0  0  0  0  0  0  0  0  0  0
   -0.3042    0.4581   -0.9567 H   0  0  0  0  0  0  0  0  0  0  0  0
   -5.2848    0.2723    0.4393 H   0  0  0  0  0  0  0  0  0  0  0  0
   -5.3213   -1.4510   -0.1191 H   0  0  0  0  0  0  0  0  0  0  0  0
   -5.9456   -1.0139    1.5160 H   0  0  0  0  0  0  0  0  0  0  0  0
   -1.4239    1.5806   -2.9595 H   0  0  0  0  0  0  0  0  0  0  0  0
   -2.6724    2.4348   -1.9661 H   0  0  0  0  0  0  0  0  0  0  0  0
   -3.0157    0.7881   -2.6407 H   0  0  0  0  0  0  0  0  0  0  0  0
   -0.8642    1.4557   -0.5296 H   0  0  0  0  0  0  0  0  0  0  0  0
  1  7  1  0
  1  5  1  0
  2 12  1  0
  2  6  1  0
  3  8  1  0
  3  5  1  0
  3 13  1  0
  3 14  1  0
  4  9  1  0
  4  6  1  0
  4 15  1  0
  4 16  1  0
  5 17  1  0
  5 18  1  0
  6 21  1  0
  6 22  1  0
  7 10  1  0
  7 19  1  0
  7 20  1  0
  8 26  1  0
  8 27  1  0
  8 28  1  0
  9 29  1  0
  9 30  1  0
  9 31  1  0
 10 23  1  0
 10 24  1  0
 10 25  1  0
 11 12  1  0
 11 32  1  0
 11 33  1  0
 11 34  1  0
 12 35  1  0
M  RAD  1  12   2
M  END
>  <reaction>  (17) 
rmg_rxn_291

>  <mol_properties>  (17) 
{"0": {"label": "*3", "atom_type": "Cs"}, "1": {"label": "*4", "atom_type": "Cs"}, "20": {"label": "*0", "atom_type": "O2s"}, "21": {"label": "*1", "atom_type": "Cs"}, "30": {"label": "*2", "atom_type": "H0"}}

>  <type>  (17) 
unop_13

>  <geom_source>  (17) 
AutoTST

$$$$

     RDKit          3D

 35 33  0  0  0  0  0  0  0  0999 V2000
   -0.3211    1.1537    0.4397 C   0  0  0  0  0  0  0  0  0  0  0  0
    0.5127   -0.0180    0.9408 C   0  0  0  0  0  0  0  0  0  0  0  0
    1.0079    0.1676    2.3605 C   0  0  0  0  0  0  0  0  0  0  0  0
   -0.0922    0.2354    3.2324 O   0  0  0  0  0  0  0  0  0  0  0  0
    0.2726    0.4434    4.5730 C   0  0  0  0  0  0  0  0  0  0  0  0
   -0.9783    0.5010    5.4189 C   0  0  0  0  0  0  0  0  0  0  0  0
   -1.2014    1.2971    1.0662 H   0  0  0  0  0  0  0  0  0  0  0  0
    0.2584    2.0802    0.4577 H   0  0  0  0  0  0  0  0  0  0  0  0
    1.3846   -0.1621    0.2968 H   0  0  0  0  0  0  0  0  0  0  0  0
   -0.0712   -0.9409    0.8947 H   0  0  0  0  0  0  0  0  0  0  0  0
    1.6031    1.0915    2.4355 H   0  0  0  0  0  0  0  0  0  0  0  0
    1.6633   -0.6677    2.6479 H   0  0  0  0  0  0  0  0  0  0  0  0
    0.9298   -0.3706    4.9135 H   0  0  0  0  0  0  0  0  0  0  0  0
    0.8427    1.3796    4.6653 H   0  0  0  0  0  0  0  0  0  0  0  0
   -1.5371   -0.4321    5.3388 H   0  0  0  0  0  0  0  0  0  0  0  0
   -0.7192    0.6616    6.4665 H   0  0  0  0  0  0  0  0  0  0  0  0
   -1.6233    1.3174    5.0920 H   0  0  0  0  0  0  0  0  0  0  0  0
    0.7719   -2.2278   -4.4165 C   0  0  0  0  0  0  0  0  0  0  0  0
    0.7719   -2.2278   -2.8935 C   0  0  0  0  0  0  0  0  0  0  0  0
    0.7719   -0.8347   -2.2980 C   0  0  0  0  0  0  0  0  0  0  0  0
   -0.4111   -0.1711   -2.6656 O   0  0  0  0  0  0  0  0  0  0  0  0
   -0.4818    1.1469   -2.1847 C   0  0  0  0  0  3  0  0  0  0  0  0
   -1.7851    1.7647   -2.6356 C   0  0  0  0  0  0  0  0  0  0  0  0
    1.6540   -1.7135   -4.8061 H   0  0  0  0  0  0  0  0  0  0  0  0
   -0.1108   -1.7181   -4.8025 H   0  0  0  0  0  0  0  0  0  0  0  0
    0.7774   -3.2457   -4.8091 H   0  0  0  0  0  0  0  0  0  0  0  0
    1.6535   -2.7543   -2.5173 H   0  0  0  0  0  0  0  0  0  0  0  0
   -0.1024   -2.7658   -2.5183 H   0  0  0  0  0  0  0  0  0  0  0  0
    1.6461   -0.2697   -2.6584 H   0  0  0  0  0  0  0  0  0  0  0  0
    0.8467   -0.8887   -1.2020 H   0  0  0  0  0  0  0  0  0  0  0  0
   -0.4011    1.1503   -0.8670 H   0  0  0  0  0  0  0  0  0  0  0  0
    0.3711    1.7299   -2.5626 H   0  0  0  0  0  0  0  0  0  0  0  0
   -2.6315    1.1953   -2.2499 H   0  0  0  0  0  0  0  0  0  0  0  0
   -1.8459    1.7766   -3.7244 H   0  0  0  0  0  0  0  0  0  0  0  0
   -1.8627    2.7907   -2.2725 H   0  0  0  0  0  0  0  0  0  0  0  0
  1  2  1  0
  1  7  1  0
  1  8  1  0
  1 31  1  0
  2  3  1  0
  2  9  1  0
  2 10  1  0
  3  4  1  0
  3 11  1  0
  3 12  1  0
  4  5  1  0
  5  6  1  0
  5 13  1  0
  5 14  1  0
  6 15  1  0
  6 16  1  0
  6 17  1  0
 18 19  1  0
 18 24  1  0
 18 25  1  0
 18 26  1  0
 19 20  1  0
 19 27  1  0
 19 28  1  0
 20 21  1  0
 20 29  1  0
 20 30  1  0
 21 22  1  0
 22 23  1  0
 22 32  1  0
 23 33  1  0
 23 34  1  0
 23 35  1  0
M  RAD  1  22   2
M  END
>  <reaction>  (18) 
rmg_rxn_291

>  <mol_properties>  (18) 
{"0": {"label": "*3", "atom_type": "Cs"}, "1": {"label": "*4", "atom_type": "Cs"}, "20": {"label": "*0", "atom_type": "O2s"}, "21": {"label": "*1", "atom_type": "Cs"}, "30": {"label": "*2", "atom_type": "H0"}}

>  <type>  (18) 
unop_14

>  <geom_source>  (18) 
gaussian_log

$$$$
