
     RDKit          3D

 14 13  0  0  0  0  0  0  0  0999 V2000
    1.8106   -0.5953    0.5577 C   0  0  0  0  0  0  0  0  0  0  0  0
    0.5197    0.2064    0.6554 C   0  0  0  0  0  0  0  0  0  0  0  0
   -0.5206   -0.2080   -0.3788 C   0  0  0  0  0  0  0  0  0  0  0  0
   -1.8114    0.5937   -0.2812 C   0  0  0  0  0  0  0  0  0  0  0  0
    2.2725   -0.4752   -0.4251 H   0  0  0  0  0  0  0  0  0  0  0  0
    1.6214   -1.6612    0.7052 H   0  0  0  0  0  0  0  0  0  0  0  0
    2.5364   -0.2784    1.3084 H   0  0  0  0  0  0  0  0  0  0  0  0
    0.0930    0.0950    1.6574 H   0  0  0  0  0  0  0  0  0  0  0  0
    0.7393    1.2723    0.5354 H   0  0  0  0  0  0  0  0  0  0  0  0
   -0.7402   -1.2739   -0.2588 H   0  0  0  0  0  0  0  0  0  0  0  0
   -0.0938   -0.0965   -1.3808 H   0  0  0  0  0  0  0  0  0  0  0  0
   -1.6222    1.6596   -0.4287 H   0  0  0  0  0  0  0  0  0  0  0  0
   -2.2734    0.4736    0.7017 H   0  0  0  0  0  0  0  0  0  0  0  0
   -2.5373    0.2768   -1.0318 H   0  0  0  0  0  0  0  0  0  0  0  0
  1  2  1  0
  1  5  1  0
  1  6  1  0
  1  7  1  0
  2  3  1  0
  2  8  1  0
  2  9  1  0
  3  4  1  0
  3 10  1  0
  3 11  1  0
  4 12  1  0
  4 13  1  0
  4 14  1  0
M  END
>  <reaction>  (1) 
rmg_rxn_235

>  <mol_properties>  (1) 
{"2": {"label": "donator", "atom_type": "Cs"}, "10": {"label": "d_hydrogen", "atom_type": "H0"}}

>  <type>  (1) 
r1h

$$$$

     RDKit          3D

 17 16  0  0  0  0  0  0  0  0999 V2000
    2.3128   -0.1525    1.1777 C   0  0  0  0  0  3  0  0  0  0  0  0
    1.7469    0.7266    0.1254 C   0  0  0  0  0  0  0  0  0  0  0  0
    1.6374    2.1830    0.5408 C   0  0  0  0  0  0  0  0  0  0  0  0
    2.9245    2.6874    0.7877 O   0  0  0  0  0  0  0  0  0  0  0  0
    2.9227    4.0197    1.2361 C   0  0  0  0  0  0  0  0  0  0  0  0
    4.3491    4.4603    1.4693 C   0  0  0  0  0  0  0  0  0  0  0  0
    2.1393   -1.2196    1.1557 H   0  0  0  0  0  0  0  0  0  0  0  0
    3.0313    0.2400    1.8838 H   0  0  0  0  0  0  0  0  0  0  0  0
    0.7555    0.3746   -0.1764 H   0  0  0  0  0  0  0  0  0  0  0  0
    2.3678    0.6841   -0.7826 H   0  0  0  0  0  0  0  0  0  0  0  0
    1.0170    2.2718    1.4449 H   0  0  0  0  0  0  0  0  0  0  0  0
    1.1499    2.7653   -0.2546 H   0  0  0  0  0  0  0  0  0  0  0  0
    2.4379    4.6655    0.4891 H   0  0  0  0  0  0  0  0  0  0  0  0
    2.3377    4.1015    2.1638 H   0  0  0  0  0  0  0  0  0  0  0  0
    4.9261    4.3920    0.5465 H   0  0  0  0  0  0  0  0  0  0  0  0
    4.3728    5.4939    1.8180 H   0  0  0  0  0  0  0  0  0  0  0  0
    4.8260    3.8299    2.2206 H   0  0  0  0  0  0  0  0  0  0  0  0
  1  2  1  0
  1  7  1  0
  1  8  1  0
  2  3  1  0
  2  9  1  0
  2 10  1  0
  3  4  1  0
  3 11  1  0
  3 12  1  0
  4  5  1  0
  5  6  1  0
  5 13  1  0
  5 14  1  0
  6 15  1  0
  6 16  1  0
  6 17  1  0
M  RAD  1   1   2
M  END
>  <reaction>  (2) 
rmg_rxn_235

>  <mol_properties>  (2) 
{"0": {"label": "acceptor", "atom_type": "Cs"}}

>  <type>  (2) 
r2

$$$$

     RDKit          3D

 18 17  0  0  0  0  0  0  0  0999 V2000
    2.2026   -0.7213   -0.2612 C   0  0  0  0  0  0  0  0  0  0  0  0
    1.5384    0.2638    0.6915 C   0  0  0  0  0  0  0  0  0  0  0  0
    2.2584    1.5946    0.7694 C   0  0  0  0  0  0  0  0  0  0  0  0
    2.2212    2.2185   -0.4893 O   0  0  0  0  0  0  0  0  0  0  0  0
    2.8988    3.4488   -0.5204 C   0  0  0  0  0  0  0  0  0  0  0  0
    2.7981    4.0296   -1.9118 C   0  0  0  0  0  0  0  0  0  0  0  0
    3.2294   -0.9309    0.0486 H   0  0  0  0  0  0  0  0  0  0  0  0
    2.2338   -0.3181   -1.2734 H   0  0  0  0  0  0  0  0  0  0  0  0
    1.6610   -1.6680   -0.2875 H   0  0  0  0  0  0  0  0  0  0  0  0
    1.4990   -0.1566    1.7002 H   0  0  0  0  0  0  0  0  0  0  0  0
    0.5055    0.4455    0.3835 H   0  0  0  0  0  0  0  0  0  0  0  0
    3.3038    1.4410    1.0808 H   0  0  0  0  0  0  0  0  0  0  0  0
    1.7844    2.2410    1.5226 H   0  0  0  0  0  0  0  0  0  0  0  0
    2.4596    4.1376    0.2164 H   0  0  0  0  0  0  0  0  0  0  0  0
    3.9524    3.3035   -0.2397 H   0  0  0  0  0  0  0  0  0  0  0  0
    1.7543    4.1869   -2.1856 H   0  0  0  0  0  0  0  0  0  0  0  0
    3.2472    3.3545   -2.6411 H   0  0  0  0  0  0  0  0  0  0  0  0
    3.3178    4.9878   -1.9600 H   0  0  0  0  0  0  0  0  0  0  0  0
  1  2  1  0
  1  7  1  0
  1  8  1  0
  1  9  1  0
  2  3  1  0
  2 10  1  0
  2 11  1  0
  3  4  1  0
  3 12  1  0
  3 13  1  0
  4  5  1  0
  5  6  1  0
  5 14  1  0
  5 15  1  0
  6 16  1  0
  6 17  1  0
  6 18  1  0
M  END
>  <reaction>  (3) 
rmg_rxn_235

>  <mol_properties>  (3) 
{"0": {"label": "a_hydrogen", "atom_type": "H0"}, "1": {"label": "acceptor", "atom_type": "Cs"}}

>  <type>  (3) 
r2h

$$$$

     RDKit          3D

 31 29  0  0  0  0  0  0  0  0999 V2000
   -1.7576   -2.0523   -1.4889 C   0  0  0  0  0  0  0  0  0  0  0  0
   -0.6697   -2.0287   -0.4230 C   0  0  0  0  0  0  0  0  0  0  0  0
   -1.1662   -1.5414    0.9155 C   0  0  0  0  0  0  0  0  0  0  0  0
   -0.1385   -1.4461    2.0132 C   0  0  0  0  0  0  0  0  0  0  0  0
   -2.1659   -1.0520   -1.6489 H   0  0  0  0  0  0  0  0  0  0  0  0
   -2.5846   -2.7026   -1.1936 H   0  0  0  0  0  0  0  0  0  0  0  0
   -1.3726   -2.4129   -2.4442 H   0  0  0  0  0  0  0  0  0  0  0  0
   -0.2510   -3.0378   -0.3073 H   0  0  0  0  0  0  0  0  0  0  0  0
    0.1520   -1.3860   -0.7474 H   0  0  0  0  0  0  0  0  0  0  0  0
   -2.0786   -2.0536    1.2324 H   0  0  0  0  0  0  0  0  0  0  0  0
   -1.5916   -0.3087    0.7302 H   0  0  0  0  0  0  0  0  0  0  0  0
    0.6631   -0.7638    1.7243 H   0  0  0  0  0  0  0  0  0  0  0  0
    0.3119   -2.4222    2.2260 H   0  0  0  0  0  0  0  0  0  0  0  0
   -0.5789   -1.0768    2.9414 H   0  0  0  0  0  0  0  0  0  0  0  0
   -2.1013    0.9705    0.6392 C   0  0  0  0  0  3  0  0  0  0  0  0
   -1.4046    1.7778   -0.4255 C   0  0  0  0  0  0  0  0  0  0  0  0
    0.0455    2.1016   -0.1250 C   0  0  0  0  0  0  0  0  0  0  0  0
    0.8307    0.9450   -0.2678 O   0  0  0  0  0  0  0  0  0  0  0  0
    2.1852    1.1449    0.0496 C   0  0  0  0  0  0  0  0  0  0  0  0
    2.9510   -0.1244   -0.2460 C   0  0  0  0  0  0  0  0  0  0  0  0
   -1.9635    1.3505    1.6518 H   0  0  0  0  0  0  0  0  0  0  0  0
   -3.1507    0.7706    0.4298 H   0  0  0  0  0  0  0  0  0  0  0  0
   -1.9294    2.7319   -0.5636 H   0  0  0  0  0  0  0  0  0  0  0  0
   -1.4501    1.2643   -1.3905 H   0  0  0  0  0  0  0  0  0  0  0  0
    0.1395    2.4983    0.8977 H   0  0  0  0  0  0  0  0  0  0  0  0
    0.4087    2.8790   -0.8127 H   0  0  0  0  0  0  0  0  0  0  0  0
    2.5884    1.9811   -0.5401 H   0  0  0  0  0  0  0  0  0  0  0  0
    2.2843    1.4187    1.1104 H   0  0  0  0  0  0  0  0  0  0  0  0
    2.8610   -0.3867   -1.3008 H   0  0  0  0  0  0  0  0  0  0  0  0
    4.0078    0.0090   -0.0102 H   0  0  0  0  0  0  0  0  0  0  0  0
    2.5668   -0.9550    0.3472 H   0  0  0  0  0  0  0  0  0  0  0  0
  1  2  1  0
  1  5  1  0
  1  6  1  0
  1  7  1  0
  2  3  1  0
  2  8  1  0
  2  9  1  0
  3  4  1  0
  3 10  1  0
  3 11  1  0
  4 12  1  0
  4 13  1  0
  4 14  1  0
 15 16  1  0
 15 21  1  0
 15 22  1  0
 16 17  1  0
 16 23  1  0
 16 24  1  0
 17 18  1  0
 17 25  1  0
 17 26  1  0
 18 19  1  0
 19 20  1  0
 19 27  1  0
 19 28  1  0
 20 29  1  0
 20 30  1  0
 20 31  1  0
M  RAD  1  15   2
M  END
>  <reaction>  (4) 
rmg_rxn_235

>  <mol_properties>  (4) 
{"1": {"label": "*0", "atom_type": "Cs"}, "2": {"label": "*1", "atom_type": "Cs"}, "10": {"label": "*2", "atom_type": "H0"}, "14": {"label": "*3", "atom_type": "Cs"}, "15": {"label": "*4", "atom_type": "Cs"}}

>  <type>  (4) 
ts

$$$$

     RDKit          3D

 31 29  0  0  0  0  0  0  0  0999 V2000
   -2.1416   -3.1165   -1.0743 C   0  0  0  0  0  0  0  0  0  0  0  0
   -2.1416   -3.1165    0.4484 C   0  0  0  0  0  0  0  0  0  0  0  0
   -2.1416   -1.7141    1.0458 C   0  0  0  0  0  3  0  0  0  0  0  0
   -2.1416   -1.7141    2.5685 C   0  0  0  0  0  0  0  0  0  0  0  0
   -1.2601   -2.6031   -1.4657 H   0  0  0  0  0  0  0  0  0  0  0  0
   -3.0231   -2.6031   -1.4657 H   0  0  0  0  0  0  0  0  0  0  0  0
   -2.1416   -4.1316   -1.4747 H   0  0  0  0  0  0  0  0  0  0  0  0
   -3.0166   -3.6623    0.8157 H   0  0  0  0  0  0  0  0  0  0  0  0
   -1.2665   -3.6623    0.8157 H   0  0  0  0  0  0  0  0  0  0  0  0
   -3.0166   -1.1682    0.6785 H   0  0  0  0  0  0  0  0  0  0  0  0
   -1.0915   -1.0590    0.6050 H   0  0  0  0  0  0  0  0  0  0  0  0
   -1.2601   -2.2274    2.9598 H   0  0  0  0  0  0  0  0  0  0  0  0
   -3.0231   -2.2274    2.9598 H   0  0  0  0  0  0  0  0  0  0  0  0
   -2.1416   -0.6990    2.9688 H   0  0  0  0  0  0  0  0  0  0  0  0
   -0.0451   -0.4062    0.1658 C   0  0  0  0  0  0  0  0  0  0  0  0
   -0.4601    0.8440   -0.5985 C   0  0  0  0  0  0  0  0  0  0  0  0
    0.4274    2.0382   -0.3134 C   0  0  0  0  0  0  0  0  0  0  0  0
    1.7354    1.7602   -0.7458 O   0  0  0  0  0  0  0  0  0  0  0  0
    2.6399    2.8037   -0.4882 C   0  0  0  0  0  0  0  0  0  0  0  0
    4.0080    2.4024   -0.9890 C   0  0  0  0  0  0  0  0  0  0  0  0
    0.9722   -0.6981   -0.0947 H   0  0  0  0  0  0  0  0  0  0  0  0
   -0.0791   -0.2328    1.2443 H   0  0  0  0  0  0  0  0  0  0  0  0
   -1.4867    1.1190   -0.3410 H   0  0  0  0  0  0  0  0  0  0  0  0
   -0.4447    0.6488   -1.6739 H   0  0  0  0  0  0  0  0  0  0  0  0
    0.4285    2.2593    0.7657 H   0  0  0  0  0  0  0  0  0  0  0  0
    0.0434    2.9304   -0.8295 H   0  0  0  0  0  0  0  0  0  0  0  0
    2.3027    3.7244   -0.9871 H   0  0  0  0  0  0  0  0  0  0  0  0
    2.6720    3.0139    0.5911 H   0  0  0  0  0  0  0  0  0  0  0  0
    3.9801    2.2073   -2.0616 H   0  0  0  0  0  0  0  0  0  0  0  0
    4.7287    3.1995   -0.7999 H   0  0  0  0  0  0  0  0  0  0  0  0
    4.3500    1.4985   -0.4837 H   0  0  0  0  0  0  0  0  0  0  0  0
  1  2  1  0
  1  5  1  0
  1  6  1  0
  1  7  1  0
  2  3  1  0
  2  8  1  0
  2  9  1  0
  3  4  1  0
  3 10  1  0
  4 12  1  0
  4 13  1  0
  4 14  1  0
 11 15  1  0
 15 16  1  0
 15 21  1  0
 15 22  1  0
 16 17  1  0
 16 23  1  0
 16 24  1  0
 17 18  1  0
 17 25  1  0
 17 26  1  0
 18 19  1  0
 19 20  1  0
 19 27  1  0
 19 28  1  0
 20 29  1  0
 20 30  1  0
 20 31  1  0
M  RAD  1   3   2
M  END
>  <reaction>  (5) 
rmg_rxn_235

>  <mol_properties>  (5) 
{"1": {"label": "*0", "atom_type": "Cs"}, "2": {"label": "*1", "atom_type": "Cs"}, "10": {"label": "*2", "atom_type": "H0"}, "14": {"label": "*3", "atom_type": "Cs"}, "15": {"label": "*4", "atom_type": "Cs"}}

>  <type>  (5) 
unop_1

>  <geom_source>  (5) 
Heuristics

$$$$

     RDKit          3D

 31 29  0  0  0  0  0  0  0  0999 V2000
   -2.5068   -2.3131   -0.6489 C   0  0  0  0  0  0  0  0  0  0  0  0
   -2.5068   -2.3131    0.8738 C   0  0  0  0  0  0  0  0  0  0  0  0
   -2.5068   -0.9108    1.4712 C   0  0  0  0  0  3  0  0  0  0  0  0
   -2.5068   -0.9108    2.9939 C   0  0  0  0  0  0  0  0  0  0  0  0
   -1.6252   -1.7998   -1.0402 H   0  0  0  0  0  0  0  0  0  0  0  0
   -3.3883   -1.7998   -1.0402 H   0  0  0  0  0  0  0  0  0  0  0  0
   -2.5068   -3.3282   -1.0492 H   0  0  0  0  0  0  0  0  0  0  0  0
   -3.3818   -2.8590    1.2411 H   0  0  0  0  0  0  0  0  0  0  0  0
   -1.6317   -2.8590    1.2411 H   0  0  0  0  0  0  0  0  0  0  0  0
   -3.3818   -0.3649    1.1039 H   0  0  0  0  0  0  0  0  0  0  0  0
   -1.4567   -0.2557    1.0304 H   0  0  0  0  0  0  0  0  0  0  0  0
   -1.6252   -1.4241    3.3853 H   0  0  0  0  0  0  0  0  0  0  0  0
   -3.3883   -1.4241    3.3853 H   0  0  0  0  0  0  0  0  0  0  0  0
   -2.5068    0.1043    3.3943 H   0  0  0  0  0  0  0  0  0  0  0  0
   -0.4103    0.3971    0.5912 C   0  0  0  0  0  0  0  0  0  0  0  0
   -0.0106   -0.0797   -0.7988 C   0  0  0  0  0  0  0  0  0  0  0  0
    0.8808    0.9020   -1.5316 C   0  0  0  0  0  0  0  0  0  0  0  0
    2.0902    1.0458   -0.8305 O   0  0  0  0  0  0  0  0  0  0  0  0
    2.9691    1.9690   -1.4212 C   0  0  0  0  0  0  0  0  0  0  0  0
    4.2297    2.0468   -0.5915 C   0  0  0  0  0  0  0  0  0  0  0  0
    0.4704    0.5516    1.2144 H   0  0  0  0  0  0  0  0  0  0  0  0
   -0.9538    1.3437    0.5371 H   0  0  0  0  0  0  0  0  0  0  0  0
   -0.9018   -0.2458   -1.4104 H   0  0  0  0  0  0  0  0  0  0  0  0
    0.5104   -1.0382   -0.7314 H   0  0  0  0  0  0  0  0  0  0  0  0
    0.3782    1.8785   -1.6163 H   0  0  0  0  0  0  0  0  0  0  0  0
    1.0796    0.5470   -2.5535 H   0  0  0  0  0  0  0  0  0  0  0  0
    3.2045    1.6576   -2.4498 H   0  0  0  0  0  0  0  0  0  0  0  0
    2.4886    2.9565   -1.4841 H   0  0  0  0  0  0  0  0  0  0  0  0
    4.7142    1.0711   -0.5401 H   0  0  0  0  0  0  0  0  0  0  0  0
    4.9291    2.7589   -1.0323 H   0  0  0  0  0  0  0  0  0  0  0  0
    3.9993    2.3705    0.4242 H   0  0  0  0  0  0  0  0  0  0  0  0
  1  2  1  0
  1  5  1  0
  1  6  1  0
  1  7  1  0
  2  3  1  0
  2  8  1  0
  2  9  1  0
  3  4  1  0
  3 10  1  0
  4 12  1  0
  4 13  1  0
  4 14  1  0
 11 15  1  0
 15 16  1  0
 15 21  1  0
 15 22  1  0
 16 17  1  0
 16 23  1  0
 16 24  1  0
 17 18  1  0
 17 25  1  0
 17 26  1  0
 18 19  1  0
 19 20  1  0
 19 27  1  0
 19 28  1  0
 20 29  1  0
 20 30  1  0
 20 31  1  0
M  RAD  1   3   2
M  END
>  <reaction>  (6) 
rmg_rxn_235

>  <mol_properties>  (6) 
{"1": {"label": "*0", "atom_type": "Cs"}, "2": {"label": "*1", "atom_type": "Cs"}, "10": {"label": "*2", "atom_type": "H0"}, "14": {"label": "*3", "atom_type": "Cs"}, "15": {"label": "*4", "atom_type": "Cs"}}

>  <type>  (6) 
unop_2

>  <geom_source>  (6) 
Heuristics

$$$$

     RDKit          3D

 31 29  0  0  0  0  0  0  0  0999 V2000
   -2.2443   -3.0419   -1.0965 C   0  0  0  0  0  0  0  0  0  0  0  0
   -2.2443   -3.0419    0.4262 C   0  0  0  0  0  0  0  0  0  0  0  0
   -2.2443   -1.6395    1.0235 C   0  0  0  0  0  3  0  0  0  0  0  0
   -2.2443   -1.6395    2.5462 C   0  0  0  0  0  0  0  0  0  0  0  0
   -1.3628   -2.5285   -1.4879 H   0  0  0  0  0  0  0  0  0  0  0  0
   -3.1259   -2.5285   -1.4879 H   0  0  0  0  0  0  0  0  0  0  0  0
   -2.2443   -4.0570   -1.4969 H   0  0  0  0  0  0  0  0  0  0  0  0
   -3.1194   -3.5878    0.7935 H   0  0  0  0  0  0  0  0  0  0  0  0
   -1.3693   -3.5878    0.7935 H   0  0  0  0  0  0  0  0  0  0  0  0
   -3.1194   -1.0936    0.6562 H   0  0  0  0  0  0  0  0  0  0  0  0
   -1.1943   -0.9844    0.5827 H   0  0  0  0  0  0  0  0  0  0  0  0
   -1.3628   -2.1529    2.9376 H   0  0  0  0  0  0  0  0  0  0  0  0
   -3.1259   -2.1529    2.9376 H   0  0  0  0  0  0  0  0  0  0  0  0
   -2.2443   -0.6244    2.9466 H   0  0  0  0  0  0  0  0  0  0  0  0
   -0.1479   -0.3317    0.1435 C   0  0  0  0  0  0  0  0  0  0  0  0
   -0.4294    1.1627    0.0601 C   0  0  0  0  0  0  0  0  0  0  0  0
    0.8093    2.0136    0.2519 C   0  0  0  0  0  0  0  0  0  0  0  0
    1.7192    1.7524   -0.7867 O   0  0  0  0  0  0  0  0  0  0  0  0
    2.9184    2.4748   -0.6704 C   0  0  0  0  0  0  0  0  0  0  0  0
    3.8196    2.1204   -1.8304 C   0  0  0  0  0  0  0  0  0  0  0  0
    0.5658   -0.6335   -0.6230 H   0  0  0  0  0  0  0  0  0  0  0  0
    0.2734   -0.5950    1.1169 H   0  0  0  0  0  0  0  0  0  0  0  0
   -1.1573    1.4517    0.8233 H   0  0  0  0  0  0  0  0  0  0  0  0
   -0.8722    1.4076   -0.9088 H   0  0  0  0  0  0  0  0  0  0  0  0
    1.2756    1.7884    1.2242 H   0  0  0  0  0  0  0  0  0  0  0  0
    0.5419    3.0805    0.2569 H   0  0  0  0  0  0  0  0  0  0  0  0
    2.7069    3.5544   -0.6638 H   0  0  0  0  0  0  0  0  0  0  0  0
    3.4089    2.2354    0.2847 H   0  0  0  0  0  0  0  0  0  0  0  0
    3.3397    2.3701   -2.7773 H   0  0  0  0  0  0  0  0  0  0  0  0
    4.7590    2.6711   -1.7615 H   0  0  0  0  0  0  0  0  0  0  0  0
    4.0426    1.0528   -1.8288 H   0  0  0  0  0  0  0  0  0  0  0  0
  1  2  1  0
  1  5  1  0
  1  6  1  0
  1  7  1  0
  2  3  1  0
  2  8  1  0
  2  9  1  0
  3  4  1  0
  3 10  1  0
  4 12  1  0
  4 13  1  0
  4 14  1  0
 11 15  1  0
 15 16  1  0
 15 21  1  0
 15 22  1  0
 16 17  1  0
 16 23  1  0
 16 24  1  0
 17 18  1  0
 17 25  1  0
 17 26  1  0
 18 19  1  0
 19 20  1  0
 19 27  1  0
 19 28  1  0
 20 29  1  0
 20 30  1  0
 20 31  1  0
M  RAD  1   3   2
M  END
>  <reaction>  (7) 
rmg_rxn_235

>  <mol_properties>  (7) 
{"1": {"label": "*0", "atom_type": "Cs"}, "2": {"label": "*1", "atom_type": "Cs"}, "10": {"label": "*2", "atom_type": "H0"}, "14": {"label": "*3", "atom_type": "Cs"}, "15": {"label": "*4", "atom_type": "Cs"}}

>  <type>  (7) 
unop_3

>  <geom_source>  (7) 
Heuristics

$$$$

     RDKit          3D

 31 29  0  0  0  0  0  0  0  0999 V2000
   -2.4546   -2.4889   -2.2668 C   0  0  0  0  0  0  0  0  0  0  0  0
   -2.4546   -2.4889   -0.7441 C   0  0  0  0  0  0  0  0  0  0  0  0
   -2.4546   -1.0866   -0.1467 C   0  0  0  0  0  3  0  0  0  0  0  0
   -2.4546   -1.0866    1.3760 C   0  0  0  0  0  0  0  0  0  0  0  0
   -1.5731   -1.9756   -2.6582 H   0  0  0  0  0  0  0  0  0  0  0  0
   -3.3362   -1.9756   -2.6582 H   0  0  0  0  0  0  0  0  0  0  0  0
   -2.4546   -3.5041   -2.6672 H   0  0  0  0  0  0  0  0  0  0  0  0
   -3.3297   -3.0348   -0.3768 H   0  0  0  0  0  0  0  0  0  0  0  0
   -1.5796   -3.0348   -0.3768 H   0  0  0  0  0  0  0  0  0  0  0  0
   -3.3297   -0.5407   -0.5140 H   0  0  0  0  0  0  0  0  0  0  0  0
   -1.4046   -0.4315   -0.5875 H   0  0  0  0  0  0  0  0  0  0  0  0
   -1.5731   -1.5999    1.7673 H   0  0  0  0  0  0  0  0  0  0  0  0
   -3.3362   -1.5999    1.7673 H   0  0  0  0  0  0  0  0  0  0  0  0
   -2.4546   -0.0715    1.7763 H   0  0  0  0  0  0  0  0  0  0  0  0
   -0.3582    0.2213   -1.0267 C   0  0  0  0  0  0  0  0  0  0  0  0
    0.9329   -0.4823   -0.6303 C   0  0  0  0  0  0  0  0  0  0  0  0
    2.0871    0.4731   -0.4060 C   0  0  0  0  0  0  0  0  0  0  0  0
    1.7855    1.3228    0.6720 O   0  0  0  0  0  0  0  0  0  0  0  0
    2.7897    2.2705    0.9309 C   0  0  0  0  0  0  0  0  0  0  0  0
    2.3658    3.1277    2.1010 C   0  0  0  0  0  0  0  0  0  0  0  0
   -0.6712    0.9198   -0.2508 H   0  0  0  0  0  0  0  0  0  0  0  0
   -0.2257    0.7858   -1.9531 H   0  0  0  0  0  0  0  0  0  0  0  0
    1.2295   -1.1910   -1.4085 H   0  0  0  0  0  0  0  0  0  0  0  0
    0.7792   -1.0617    0.2838 H   0  0  0  0  0  0  0  0  0  0  0  0
    2.2661    1.0695   -1.3146 H   0  0  0  0  0  0  0  0  0  0  0  0
    3.0101   -0.0868   -0.1954 H   0  0  0  0  0  0  0  0  0  0  0  0
    3.7390    1.7604    1.1521 H   0  0  0  0  0  0  0  0  0  0  0  0
    2.9568    2.8925    0.0392 H   0  0  0  0  0  0  0  0  0  0  0  0
    2.2133    2.5136    2.9892 H   0  0  0  0  0  0  0  0  0  0  0  0
    3.1322    3.8724    2.3213 H   0  0  0  0  0  0  0  0  0  0  0  0
    1.4328    3.6460    1.8768 H   0  0  0  0  0  0  0  0  0  0  0  0
  1  2  1  0
  1  5  1  0
  1  6  1  0
  1  7  1  0
  2  3  1  0
  2  8  1  0
  2  9  1  0
  3  4  1  0
  3 10  1  0
  4 12  1  0
  4 13  1  0
  4 14  1  0
 11 15  1  0
 15 16  1  0
 15 21  1  0
 15 22  1  0
 16 17  1  0
 16 23  1  0
 16 24  1  0
 17 18  1  0
 17 25  1  0
 17 26  1  0
 18 19  1  0
 19 20  1  0
 19 27  1  0
 19 28  1  0
 20 29  1  0
 20 30  1  0
 20 31  1  0
M  RAD  1   3   2
M  END
>  <reaction>  (8) 
rmg_rxn_235

>  <mol_properties>  (8) 
{"1": {"label": "*0", "atom_type": "Cs"}, "2": {"label": "*1", "atom_type": "Cs"}, "10": {"label": "*2", "atom_type": "H0"}, "14": {"label": "*3", "atom_type": "Cs"}, "15": {"label": "*4", "atom_type": "Cs"}}

>  <type>  (8) 
unop_4

>  <geom_source>  (8) 
Heuristics

$$$$

     RDKit          3D

 31 29  0  0  0  0  0  0  0  0999 V2000
   -1.9593   -3.1533   -0.8753 C   0  0  0  0  0  0  0  0  0  0  0  0
   -1.9593   -3.1533    0.6474 C   0  0  0  0  0  0  0  0  0  0  0  0
   -1.9593   -1.7509    1.2448 C   0  0  0  0  0  3  0  0  0  0  0  0
   -1.9593   -1.7509    2.7675 C   0  0  0  0  0  0  0  0  0  0  0  0
   -1.0778   -2.6400   -1.2666 H   0  0  0  0  0  0  0  0  0  0  0  0
   -2.8409   -2.6400   -1.2666 H   0  0  0  0  0  0  0  0  0  0  0  0
   -1.9593   -4.1684   -1.2756 H   0  0  0  0  0  0  0  0  0  0  0  0
   -2.8344   -3.6992    1.0147 H   0  0  0  0  0  0  0  0  0  0  0  0
   -1.0843   -3.6992    1.0147 H   0  0  0  0  0  0  0  0  0  0  0  0
   -2.8344   -1.2051    0.8775 H   0  0  0  0  0  0  0  0  0  0  0  0
   -0.9093   -1.0959    0.8040 H   0  0  0  0  0  0  0  0  0  0  0  0
   -1.0778   -2.2643    3.1589 H   0  0  0  0  0  0  0  0  0  0  0  0
   -2.8409   -2.2643    3.1589 H   0  0  0  0  0  0  0  0  0  0  0  0
   -1.9593   -0.7358    3.1679 H   0  0  0  0  0  0  0  0  0  0  0  0
    0.1371   -0.4431    0.3648 C   0  0  0  0  0  0  0  0  0  0  0  0
    0.1819    0.9682    0.9352 C   0  0  0  0  0  0  0  0  0  0  0  0
    1.3810    1.7641    0.4619 C   0  0  0  0  0  0  0  0  0  0  0  0
    1.3074    1.9329   -0.9313 O   0  0  0  0  0  0  0  0  0  0  0  0
    2.4021    2.6329   -1.4653 C   0  0  0  0  0  0  0  0  0  0  0  0
    2.2235    2.7566   -2.9608 C   0  0  0  0  0  0  0  0  0  0  0  0
    0.0912   -0.4182   -0.7239 H   0  0  0  0  0  0  0  0  0  0  0  0
    1.0284   -1.0073    0.6505 H   0  0  0  0  0  0  0  0  0  0  0  0
    0.2127    0.9317    2.0277 H   0  0  0  0  0  0  0  0  0  0  0  0
   -0.7258    1.5124    0.6620 H   0  0  0  0  0  0  0  0  0  0  0  0
    2.3120    1.2384    0.7271 H   0  0  0  0  0  0  0  0  0  0  0  0
    1.4071    2.7455    0.9578 H   0  0  0  0  0  0  0  0  0  0  0  0
    2.4724    3.6287   -1.0029 H   0  0  0  0  0  0  0  0  0  0  0  0
    3.3365    2.1013   -1.2323 H   0  0  0  0  0  0  0  0  0  0  0  0
    1.3042    3.2956   -3.1925 H   0  0  0  0  0  0  0  0  0  0  0  0
    3.0634    3.2985   -3.3983 H   0  0  0  0  0  0  0  0  0  0  0  0
    2.1693    1.7698   -3.4220 H   0  0  0  0  0  0  0  0  0  0  0  0
  1  2  1  0
  1  5  1  0
  1  6  1  0
  1  7  1  0
  2  3  1  0
  2  8  1  0
  2  9  1  0
  3  4  1  0
  3 10  1  0
  4 12  1  0
  4 13  1  0
  4 14  1  0
 11 15  1  0
 15 16  1  0
 15 21  1  0
 15 22  1  0
 16 17  1  0
 16 23  1  0
 16 24  1  0
 17 18  1  0
 17 25  1  0
 17 26  1  0
 18 19  1  0
 19 20  1  0
 19 27  1  0
 19 28  1  0
 20 29  1  0
 20 30  1  0
 20 31  1  0
M  RAD  1   3   2
M  END
>  <reaction>  (9) 
rmg_rxn_235

>  <mol_properties>  (9) 
{"1": {"label": "*0", "atom_type": "Cs"}, "2": {"label": "*1", "atom_type": "Cs"}, "10": {"label": "*2", "atom_type": "H0"}, "14": {"label": "*3", "atom_type": "Cs"}, "15": {"label": "*4", "atom_type": "Cs"}}

>  <type>  (9) 
unop_5

>  <geom_source>  (9) 
Heuristics

$$$$

     RDKit          3D

 31 29  0  0  0  0  0  0  0  0999 V2000
   -2.0036   -2.9779   -2.3081 C   0  0  0  0  0  0  0  0  0  0  0  0
   -2.0036   -2.9779   -0.7854 C   0  0  0  0  0  0  0  0  0  0  0  0
   -2.0036   -1.5755   -0.1880 C   0  0  0  0  0  3  0  0  0  0  0  0
   -2.0036   -1.5755    1.3347 C   0  0  0  0  0  0  0  0  0  0  0  0
   -1.1221   -2.4645   -2.6995 H   0  0  0  0  0  0  0  0  0  0  0  0
   -2.8851   -2.4645   -2.6995 H   0  0  0  0  0  0  0  0  0  0  0  0
   -2.0036   -3.9930   -2.7085 H   0  0  0  0  0  0  0  0  0  0  0  0
   -2.8786   -3.5237   -0.4181 H   0  0  0  0  0  0  0  0  0  0  0  0
   -1.1286   -3.5237   -0.4181 H   0  0  0  0  0  0  0  0  0  0  0  0
   -2.8786   -1.0296   -0.5553 H   0  0  0  0  0  0  0  0  0  0  0  0
   -0.9535   -0.9204   -0.6288 H   0  0  0  0  0  0  0  0  0  0  0  0
   -1.1221   -2.0888    1.7260 H   0  0  0  0  0  0  0  0  0  0  0  0
   -2.8851   -2.0888    1.7260 H   0  0  0  0  0  0  0  0  0  0  0  0
   -2.0036   -0.5604    1.7350 H   0  0  0  0  0  0  0  0  0  0  0  0
    0.0928   -0.2676   -1.0680 C   0  0  0  0  0  0  0  0  0  0  0  0
    1.2889   -0.4653   -0.1463 C   0  0  0  0  0  0  0  0  0  0  0  0
    2.1134    0.7923    0.0375 C   0  0  0  0  0  0  0  0  0  0  0  0
    1.3279    1.7772    0.6605 O   0  0  0  0  0  0  0  0  0  0  0  0
    2.0034    2.9959    0.8400 C   0  0  0  0  0  0  0  0  0  0  0  0
    1.0730    3.9782    1.5130 C   0  0  0  0  0  0  0  0  0  0  0  0
   -0.5773    0.4957   -0.6727 H   0  0  0  0  0  0  0  0  0  0  0  0
    0.4157    0.0512   -2.0623 H   0  0  0  0  0  0  0  0  0  0  0  0
    1.9463   -1.2431   -0.5445 H   0  0  0  0  0  0  0  0  0  0  0  0
    0.9530   -0.8069    0.8362 H   0  0  0  0  0  0  0  0  0  0  0  0
    2.4677    1.1580   -0.9393 H   0  0  0  0  0  0  0  0  0  0  0  0
    3.0025    0.5793    0.6490 H   0  0  0  0  0  0  0  0  0  0  0  0
    2.9044    2.8389    1.4514 H   0  0  0  0  0  0  0  0  0  0  0  0
    2.3365    3.3864   -0.1329 H   0  0  0  0  0  0  0  0  0  0  0  0
    0.7531    3.5980    2.4838 H   0  0  0  0  0  0  0  0  0  0  0  0
    1.5772    4.9341    1.6636 H   0  0  0  0  0  0  0  0  0  0  0  0
    0.1867    4.1464    0.9003 H   0  0  0  0  0  0  0  0  0  0  0  0
  1  2  1  0
  1  5  1  0
  1  6  1  0
  1  7  1  0
  2  3  1  0
  2  8  1  0
  2  9  1  0
  3  4  1  0
  3 10  1  0
  4 12  1  0
  4 13  1  0
  4 14  1  0
 11 15  1  0
 15 16  1  0
 15 21  1  0
 15 22  1  0
 16 17  1  0
 16 23  1  0
 16 24  1  0
 17 18  1  0
 17 25  1  0
 17 26  1  0
 18 19  1  0
 19 20  1  0
 19 27  1  0
 19 28  1  0
 20 29  1  0
 20 30  1  0
 20 31  1  0
M  RAD  1   3   2
M  END
>  <reaction>  (10) 
rmg_rxn_235

>  <mol_properties>  (10) 
{"1": {"label": "*0", "atom_type": "Cs"}, "2": {"label": "*1", "atom_type": "Cs"}, "10": {"label": "*2", "atom_type": "H0"}, "14": {"label": "*3", "atom_type": "Cs"}, "15": {"label": "*4", "atom_type": "Cs"}}

>  <type>  (10) 
unop_6

>  <geom_source>  (10) 
Heuristics

$$$$

     RDKit          3D

 31 29  0  0  0  0  0  0  0  0999 V2000
   -1.5993   -3.3501   -1.9215 C   0  0  0  0  0  0  0  0  0  0  0  0
   -1.5993   -3.3501   -0.3988 C   0  0  0  0  0  0  0  0  0  0  0  0
   -1.5993   -1.9477    0.1986 C   0  0  0  0  0  3  0  0  0  0  0  0
   -1.5993   -1.9477    1.7213 C   0  0  0  0  0  0  0  0  0  0  0  0
   -0.7178   -2.8367   -2.3128 H   0  0  0  0  0  0  0  0  0  0  0  0
   -2.4808   -2.8367   -2.3128 H   0  0  0  0  0  0  0  0  0  0  0  0
   -1.5993   -4.3652   -2.3218 H   0  0  0  0  0  0  0  0  0  0  0  0
   -2.4744   -3.8960   -0.0315 H   0  0  0  0  0  0  0  0  0  0  0  0
   -0.7243   -3.8960   -0.0315 H   0  0  0  0  0  0  0  0  0  0  0  0
   -2.4744   -1.4018   -0.1687 H   0  0  0  0  0  0  0  0  0  0  0  0
   -0.5493   -1.2926   -0.2422 H   0  0  0  0  0  0  0  0  0  0  0  0
   -0.7178   -2.4611    2.1127 H   0  0  0  0  0  0  0  0  0  0  0  0
   -2.4808   -2.4611    2.1127 H   0  0  0  0  0  0  0  0  0  0  0  0
   -1.5993   -0.9326    2.1217 H   0  0  0  0  0  0  0  0  0  0  0  0
    0.4971   -0.6399   -0.6814 C   0  0  0  0  0  0  0  0  0  0  0  0
    1.3950   -0.2054    0.4694 C   0  0  0  0  0  0  0  0  0  0  0  0
    1.9749    1.1815    0.2814 C   0  0  0  0  0  0  0  0  0  0  0  0
    0.9317    2.1227    0.2536 O   0  0  0  0  0  0  0  0  0  0  0  0
    1.3758    3.4392    0.0465 C   0  0  0  0  0  0  0  0  0  0  0  0
    0.1808    4.3641    0.0331 C   0  0  0  0  0  0  0  0  0  0  0  0
   -0.3449    0.0432   -0.7933 H   0  0  0  0  0  0  0  0  0  0  0  0
    1.0495   -0.6493   -1.6244 H   0  0  0  0  0  0  0  0  0  0  0  0
    2.2275   -0.9055    0.5821 H   0  0  0  0  0  0  0  0  0  0  0  0
    0.8363   -0.2237    1.4088 H   0  0  0  0  0  0  0  0  0  0  0  0
    2.5466    1.2278   -0.6590 H   0  0  0  0  0  0  0  0  0  0  0  0
    2.6714    1.4176    1.0994 H   0  0  0  0  0  0  0  0  0  0  0  0
    2.0768    3.7285    0.8435 H   0  0  0  0  0  0  0  0  0  0  0  0
    1.9232    3.5046   -0.9054 H   0  0  0  0  0  0  0  0  0  0  0  0
   -0.3547    4.3102    0.9816 H   0  0  0  0  0  0  0  0  0  0  0  0
    0.5020    5.3946   -0.1261 H   0  0  0  0  0  0  0  0  0  0  0  0
   -0.5073    4.0878   -0.7666 H   0  0  0  0  0  0  0  0  0  0  0  0
  1  2  1  0
  1  5  1  0
  1  6  1  0
  1  7  1  0
  2  3  1  0
  2  8  1  0
  2  9  1  0
  3  4  1  0
  3 10  1  0
  4 12  1  0
  4 13  1  0
  4 14  1  0
 11 15  1  0
 15 16  1  0
 15 21  1  0
 15 22  1  0
 16 17  1  0
 16 23  1  0
 16 24  1  0
 17 18  1  0
 17 25  1  0
 17 26  1  0
 18 19  1  0
 19 20  1  0
 19 27  1  0
 19 28  1  0
 20 29  1  0
 20 30  1  0
 20 31  1  0
M  RAD  1   3   2
M  END
>  <reaction>  (11) 
rmg_rxn_235

>  <mol_properties>  (11) 
{"1": {"label": "*0", "atom_type": "Cs"}, "2": {"label": "*1", "atom_type": "Cs"}, "10": {"label": "*2", "atom_type": "H0"}, "14": {"label": "*3", "atom_type": "Cs"}, "15": {"label": "*4", "atom_type": "Cs"}}

>  <type>  (11) 
unop_7

>  <geom_source>  (11) 
Heuristics

$$$$

     RDKit          3D

 31 29  0  0  0  0  0  0  0  0999 V2000
   -2.0788   -3.0335   -0.7947 C   0  0  0  0  0  0  0  0  0  0  0  0
   -2.0788   -3.0335    0.7280 C   0  0  0  0  0  0  0  0  0  0  0  0
   -2.0788   -1.6311    1.3254 C   0  0  0  0  0  3  0  0  0  0  0  0
   -2.0788   -1.6311    2.8481 C   0  0  0  0  0  0  0  0  0  0  0  0
   -1.1973   -2.5201   -1.1861 H   0  0  0  0  0  0  0  0  0  0  0  0
   -2.9604   -2.5201   -1.1861 H   0  0  0  0  0  0  0  0  0  0  0  0
   -2.0788   -4.0486   -1.1951 H   0  0  0  0  0  0  0  0  0  0  0  0
   -2.9539   -3.5794    1.0953 H   0  0  0  0  0  0  0  0  0  0  0  0
   -1.2038   -3.5794    1.0953 H   0  0  0  0  0  0  0  0  0  0  0  0
   -2.9539   -1.0852    0.9580 H   0  0  0  0  0  0  0  0  0  0  0  0
   -1.0288   -0.9760    0.8846 H   0  0  0  0  0  0  0  0  0  0  0  0
   -1.1973   -2.1445    3.2394 H   0  0  0  0  0  0  0  0  0  0  0  0
   -2.9604   -2.1445    3.2394 H   0  0  0  0  0  0  0  0  0  0  0  0
   -2.0788   -0.6160    3.2484 H   0  0  0  0  0  0  0  0  0  0  0  0
    0.0176   -0.3233    0.4453 C   0  0  0  0  0  0  0  0  0  0  0  0
   -0.3022    0.4210   -0.8442 C   0  0  0  0  0  0  0  0  0  0  0  0
    0.3331    1.7947   -0.9122 C   0  0  0  0  0  0  0  0  0  0  0  0
    1.7321    1.6618   -0.9018 O   0  0  0  0  0  0  0  0  0  0  0  0
    2.4079    2.8931   -0.9267 C   0  0  0  0  0  0  0  0  0  0  0  0
    3.8970    2.6362   -0.9119 C   0  0  0  0  0  0  0  0  0  0  0  0
    1.0929   -0.4658    0.5523 H   0  0  0  0  0  0  0  0  0  0  0  0
   -0.3353    0.2357    1.3156 H   0  0  0  0  0  0  0  0  0  0  0  0
   -1.3837    0.5452   -0.9487 H   0  0  0  0  0  0  0  0  0  0  0  0
    0.0345   -0.1603   -1.7064 H   0  0  0  0  0  0  0  0  0  0  0  0
    0.0081    2.4043   -0.0542 H   0  0  0  0  0  0  0  0  0  0  0  0
    0.0128    2.3181   -1.8251 H   0  0  0  0  0  0  0  0  0  0  0  0
    2.1243    3.4586   -1.8267 H   0  0  0  0  0  0  0  0  0  0  0  0
    2.1137    3.4996   -0.0574 H   0  0  0  0  0  0  0  0  0  0  0  0
    4.1917    2.0466   -1.7807 H   0  0  0  0  0  0  0  0  0  0  0  0
    4.4438    3.5802   -0.9314 H   0  0  0  0  0  0  0  0  0  0  0  0
    4.1815    2.0892   -0.0123 H   0  0  0  0  0  0  0  0  0  0  0  0
  1  2  1  0
  1  5  1  0
  1  6  1  0
  1  7  1  0
  2  3  1  0
  2  8  1  0
  2  9  1  0
  3  4  1  0
  3 10  1  0
  4 12  1  0
  4 13  1  0
  4 14  1  0
 11 15  1  0
 15 16  1  0
 15 21  1  0
 15 22  1  0
 16 17  1  0
 16 23  1  0
 16 24  1  0
 17 18  1  0
 17 25  1  0
 17 26  1  0
 18 19  1  0
 19 20  1  0
 19 27  1  0
 19 28  1  0
 20 29  1  0
 20 30  1  0
 20 31  1  0
M  RAD  1   3   2
M  END
>  <reaction>  (12) 
rmg_rxn_235

>  <mol_properties>  (12) 
{"1": {"label": "*0", "atom_type": "Cs"}, "2": {"label": "*1", "atom_type": "Cs"}, "10": {"label": "*2", "atom_type": "H0"}, "14": {"label": "*3", "atom_type": "Cs"}, "15": {"label": "*4", "atom_type": "Cs"}}

>  <type>  (12) 
unop_8

>  <geom_source>  (12) 
Heuristics

$$$$

     RDKit          3D

 31 29  0  0  0  0  0  0  0  0999 V2000
   -2.7576   -2.1072   -1.8092 C   0  0  0  0  0  0  0  0  0  0  0  0
   -2.7576   -2.1072   -0.2865 C   0  0  0  0  0  0  0  0  0  0  0  0
   -2.7576   -0.7048    0.3108 C   0  0  0  0  0  3  0  0  0  0  0  0
   -2.7576   -0.7048    1.8335 C   0  0  0  0  0  0  0  0  0  0  0  0
   -1.8761   -1.5938   -2.2006 H   0  0  0  0  0  0  0  0  0  0  0  0
   -3.6391   -1.5938   -2.2006 H   0  0  0  0  0  0  0  0  0  0  0  0
   -2.7576   -3.1223   -2.2096 H   0  0  0  0  0  0  0  0  0  0  0  0
   -3.6326   -2.6531    0.0808 H   0  0  0  0  0  0  0  0  0  0  0  0
   -1.8826   -2.6531    0.0808 H   0  0  0  0  0  0  0  0  0  0  0  0
   -3.6326   -0.1589   -0.0565 H   0  0  0  0  0  0  0  0  0  0  0  0
   -1.7076   -0.0497   -0.1299 H   0  0  0  0  0  0  0  0  0  0  0  0
   -1.8761   -1.2181    2.2249 H   0  0  0  0  0  0  0  0  0  0  0  0
   -3.6391   -1.2181    2.2249 H   0  0  0  0  0  0  0  0  0  0  0  0
   -2.7576    0.3103    2.2339 H   0  0  0  0  0  0  0  0  0  0  0  0
   -0.6612    0.6030   -0.5692 C   0  0  0  0  0  0  0  0  0  0  0  0
    0.4965   -0.3447   -0.8535 C   0  0  0  0  0  0  0  0  0  0  0  0
    1.8341    0.3604   -0.9472 C   0  0  0  0  0  0  0  0  0  0  0  0
    2.1376    0.9500    0.2919 O   0  0  0  0  0  0  0  0  0  0  0  0
    3.3501    1.6595    0.2881 C   0  0  0  0  0  0  0  0  0  0  0  0
    3.5776    2.2500    1.6604 C   0  0  0  0  0  0  0  0  0  0  0  0
   -0.5105    1.1238    0.3765 H   0  0  0  0  0  0  0  0  0  0  0  0
   -0.7509    1.3557   -1.3564 H   0  0  0  0  0  0  0  0  0  0  0  0
    0.3279   -0.8724   -1.7963 H   0  0  0  0  0  0  0  0  0  0  0  0
    0.5592   -1.1057   -0.0714 H   0  0  0  0  0  0  0  0  0  0  0  0
    1.8000    1.1331   -1.7316 H   0  0  0  0  0  0  0  0  0  0  0  0
    2.6229   -0.3537   -1.2260 H   0  0  0  0  0  0  0  0  0  0  0  0
    4.1775    0.9869    0.0171 H   0  0  0  0  0  0  0  0  0  0  0  0
    3.3169    2.4541   -0.4718 H   0  0  0  0  0  0  0  0  0  0  0  0
    3.6244    1.4618    2.4126 H   0  0  0  0  0  0  0  0  0  0  0  0
    4.5159    2.8064    1.6817 H   0  0  0  0  0  0  0  0  0  0  0  0
    2.7657    2.9290    1.9236 H   0  0  0  0  0  0  0  0  0  0  0  0
  1  2  1  0
  1  5  1  0
  1  6  1  0
  1  7  1  0
  2  3  1  0
  2  8  1  0
  2  9  1  0
  3  4  1  0
  3 10  1  0
  4 12  1  0
  4 13  1  0
  4 14  1  0
 11 15  1  0
 15 16  1  0
 15 21  1  0
 15 22  1  0
 16 17  1  0
 16 23  1  0
 16 24  1  0
 17 18  1  0
 17 25  1  0
 17 26  1  0
 18 19  1  0
 19 20  1  0
 19 27  1  0
 19 28  1  0
 20 29  1  0
 20 30  1  0
 20 31  1  0
M  RAD  1   3   2
M  END
>  <reaction>  (13) 
rmg_rxn_235

>  <mol_properties>  (13) 
{"1": {"label": "*0", "atom_type": "Cs"}, "2": {"label": "*1", "atom_type": "Cs"}, "10": {"label": "*2", "atom_type": "H0"}, "14": {"label": "*3", "atom_type": "Cs"}, "15": {"label": "*4", "atom_type": "Cs"}}

>  <type>  (13) 
unop_9

>  <geom_source>  (13) 
Heuristics

$$$$

     RDKit          3D

 31 29  0  0  0  0  0  0  0  0999 V2000
   -2.2110   -2.7253   -0.5644 C   0  0  0  0  0  0  0  0  0  0  0  0
   -2.2110   -2.7253    0.9583 C   0  0  0  0  0  0  0  0  0  0  0  0
   -2.2110   -1.3229    1.5556 C   0  0  0  0  0  3  0  0  0  0  0  0
   -2.2110   -1.3229    3.0783 C   0  0  0  0  0  0  0  0  0  0  0  0
   -1.3295   -2.2119   -0.9558 H   0  0  0  0  0  0  0  0  0  0  0  0
   -3.0925   -2.2119   -0.9558 H   0  0  0  0  0  0  0  0  0  0  0  0
   -2.2110   -3.7404   -0.9648 H   0  0  0  0  0  0  0  0  0  0  0  0
   -3.0860   -3.2712    1.3256 H   0  0  0  0  0  0  0  0  0  0  0  0
   -1.3360   -3.2712    1.3256 H   0  0  0  0  0  0  0  0  0  0  0  0
   -3.0860   -0.7770    1.1883 H   0  0  0  0  0  0  0  0  0  0  0  0
   -1.1609   -0.6679    1.1149 H   0  0  0  0  0  0  0  0  0  0  0  0
   -1.3295   -1.8363    3.4697 H   0  0  0  0  0  0  0  0  0  0  0  0
   -3.0925   -1.8363    3.4697 H   0  0  0  0  0  0  0  0  0  0  0  0
   -2.2110   -0.3078    3.4787 H   0  0  0  0  0  0  0  0  0  0  0  0
   -0.1146   -0.0151    0.6756 C   0  0  0  0  0  0  0  0  0  0  0  0
   -0.1362    0.0971   -0.8430 C   0  0  0  0  0  0  0  0  0  0  0  0
    0.4995    1.3734   -1.3550 C   0  0  0  0  0  0  0  0  0  0  0  0
    1.8604    1.3889   -1.0046 O   0  0  0  0  0  0  0  0  0  0  0  0
    2.5257    2.5579   -1.4100 C   0  0  0  0  0  0  0  0  0  0  0  0
    3.9733    2.4713   -0.9849 C   0  0  0  0  0  0  0  0  0  0  0  0
    0.9092    0.0011    1.0494 H   0  0  0  0  0  0  0  0  0  0  0  0
   -0.6532    0.8173    1.1355 H   0  0  0  0  0  0  0  0  0  0  0  0
   -1.1665    0.0648   -1.2080 H   0  0  0  0  0  0  0  0  0  0  0  0
    0.3849   -0.7537   -1.2896 H   0  0  0  0  0  0  0  0  0  0  0  0
   -0.0091    2.2492   -0.9216 H   0  0  0  0  0  0  0  0  0  0  0  0
    0.3927    1.4409   -2.4476 H   0  0  0  0  0  0  0  0  0  0  0  0
    2.4518    2.6722   -2.5017 H   0  0  0  0  0  0  0  0  0  0  0  0
    2.0446    3.4384   -0.9591 H   0  0  0  0  0  0  0  0  0  0  0  0
    4.4548    1.6064   -1.4424 H   0  0  0  0  0  0  0  0  0  0  0  0
    4.5114    3.3701   -1.2903 H   0  0  0  0  0  0  0  0  0  0  0  0
    4.0482    2.3736    0.0987 H   0  0  0  0  0  0  0  0  0  0  0  0
  1  2  1  0
  1  5  1  0
  1  6  1  0
  1  7  1  0
  2  3  1  0
  2  8  1  0
  2  9  1  0
  3  4  1  0
  3 10  1  0
  4 12  1  0
  4 13  1  0
  4 14  1  0
 11 15  1  0
 15 16  1  0
 15 21  1  0
 15 22  1  0
 16 17  1  0
 16 23  1  0
 16 24  1  0
 17 18  1  0
 17 25  1  0
 17 26  1  0
 18 19  1  0
 19 20  1  0
 19 27  1  0
 19 28  1  0
 20 29  1  0
 20 30  1  0
 20 31  1  0
M  RAD  1   3   2
M  END
>  <reaction>  (14) 
rmg_rxn_235

>  <mol_properties>  (14) 
{"1": {"label": "*0", "atom_type": "Cs"}, "2": {"label": "*1", "atom_type": "Cs"}, "10": {"label": "*2", "atom_type": "H0"}, "14": {"label": "*3", "atom_type": "Cs"}, "15": {"label": "*4", "atom_type": "Cs"}}

>  <type>  (14) 
unop_10

>  <geom_source>  (14) 
Heuristics

$$$$

     RDKit          3D

 31 29  0  0  0  0  0  0  0  0999 V2000
   -1.5091   -3.4209   -1.2582 C   0  0  0  0  0  0  0  0  0  0  0  0
   -1.5091   -3.4209    0.2645 C   0  0  0  0  0  0  0  0  0  0  0  0
   -1.5091   -2.0185    0.8619 C   0  0  0  0  0  3  0  0  0  0  0  0
   -1.5091   -2.0185    2.3846 C   0  0  0  0  0  0  0  0  0  0  0  0
   -0.6276   -2.9076   -1.6495 H   0  0  0  0  0  0  0  0  0  0  0  0
   -2.3907   -2.9076   -1.6495 H   0  0  0  0  0  0  0  0  0  0  0  0
   -1.5091   -4.4360   -1.6585 H   0  0  0  0  0  0  0  0  0  0  0  0
   -2.3842   -3.9668    0.6318 H   0  0  0  0  0  0  0  0  0  0  0  0
   -0.6341   -3.9668    0.6318 H   0  0  0  0  0  0  0  0  0  0  0  0
   -2.3842   -1.4726    0.4946 H   0  0  0  0  0  0  0  0  0  0  0  0
   -0.4591   -1.3635    0.4211 H   0  0  0  0  0  0  0  0  0  0  0  0
   -0.6276   -2.5319    2.7760 H   0  0  0  0  0  0  0  0  0  0  0  0
   -2.3907   -2.5319    2.7760 H   0  0  0  0  0  0  0  0  0  0  0  0
   -1.5091   -1.0034    2.7850 H   0  0  0  0  0  0  0  0  0  0  0  0
    0.5873   -0.7107   -0.0181 C   0  0  0  0  0  0  0  0  0  0  0  0
    1.0638    0.3127    1.0041 C   0  0  0  0  0  0  0  0  0  0  0  0
    1.7523    1.5066    0.3751 C   0  0  0  0  0  0  0  0  0  0  0  0
    0.8371    2.1973   -0.4374 O   0  0  0  0  0  0  0  0  0  0  0  0
    1.4006    3.3049   -1.0925 C   0  0  0  0  0  0  0  0  0  0  0  0
    0.3371    3.9706   -1.9347 C   0  0  0  0  0  0  0  0  0  0  0  0
   -0.1254   -0.2621   -0.7101 H   0  0  0  0  0  0  0  0  0  0  0  0
    1.4259   -1.0967   -0.6030 H   0  0  0  0  0  0  0  0  0  0  0  0
    1.7663   -0.1515    1.7019 H   0  0  0  0  0  0  0  0  0  0  0  0
    0.2189    0.6720    1.5973 H   0  0  0  0  0  0  0  0  0  0  0  0
    2.6115    1.1729   -0.2281 H   0  0  0  0  0  0  0  0  0  0  0  0
    2.1415    2.1770    1.1554 H   0  0  0  0  0  0  0  0  0  0  0  0
    1.8043    4.0126   -0.3532 H   0  0  0  0  0  0  0  0  0  0  0  0
    2.2420    2.9797   -1.7221 H   0  0  0  0  0  0  0  0  0  0  0  0
   -0.4912    4.3057   -1.3096 H   0  0  0  0  0  0  0  0  0  0  0  0
    0.7524    4.8358   -2.4537 H   0  0  0  0  0  0  0  0  0  0  0  0
   -0.0527    3.2744   -2.6783 H   0  0  0  0  0  0  0  0  0  0  0  0
  1  2  1  0
  1  5  1  0
  1  6  1  0
  1  7  1  0
  2  3  1  0
  2  8  1  0
  2  9  1  0
  3  4  1  0
  3 10  1  0
  4 12  1  0
  4 13  1  0
  4 14  1  0
 11 15  1  0
 15 16  1  0
 15 21  1  0
 15 22  1  0
 16 17  1  0
 16 23  1  0
 16 24  1  0
 17 18  1  0
 17 25  1  0
 17 26  1  0
 18 19  1  0
 19 20  1  0
 19 27  1  0
 19 28  1  0
 20 29  1  0
 20 30  1  0
 20 31  1  0
M  RAD  1   3   2
M  END
>  <reaction>  (15) 
rmg_rxn_235

>  <mol_properties>  (15) 
{"1": {"label": "*0", "atom_type": "Cs"}, "2": {"label": "*1", "atom_type": "Cs"}, "10": {"label": "*2", "atom_type": "H0"}, "14": {"label": "*3", "atom_type": "Cs"}, "15": {"label": "*4", "atom_type": "Cs"}}

>  <type>  (15) 
unop_11

>  <geom_source>  (15) 
Heuristics

$$$$

     RDKit          3D

 31 29  0  0  0  0  0  0  0  0999 V2000
   -2.7667   -2.0386   -1.1420 C   0  0  0  0  0  0  0  0  0  0  0  0
   -2.7667   -2.0386    0.3807 C   0  0  0  0  0  0  0  0  0  0  0  0
   -2.7667   -0.6363    0.9780 C   0  0  0  0  0  3  0  0  0  0  0  0
   -2.7667   -0.6363    2.5007 C   0  0  0  0  0  0  0  0  0  0  0  0
   -1.8852   -1.5253   -1.5334 H   0  0  0  0  0  0  0  0  0  0  0  0
   -3.6482   -1.5253   -1.5334 H   0  0  0  0  0  0  0  0  0  0  0  0
   -2.7667   -3.0537   -1.5424 H   0  0  0  0  0  0  0  0  0  0  0  0
   -3.6417   -2.5845    0.7480 H   0  0  0  0  0  0  0  0  0  0  0  0
   -1.8917   -2.5845    0.7480 H   0  0  0  0  0  0  0  0  0  0  0  0
   -3.6417   -0.0904    0.6107 H   0  0  0  0  0  0  0  0  0  0  0  0
   -1.7167    0.0188    0.5373 H   0  0  0  0  0  0  0  0  0  0  0  0
   -1.8852   -1.1496    2.8921 H   0  0  0  0  0  0  0  0  0  0  0  0
   -3.6482   -1.1496    2.8921 H   0  0  0  0  0  0  0  0  0  0  0  0
   -2.7667    0.3788    2.9011 H   0  0  0  0  0  0  0  0  0  0  0  0
   -0.6703    0.6716    0.0980 C   0  0  0  0  0  0  0  0  0  0  0  0
    0.1611   -0.1931   -0.8402 C   0  0  0  0  0  0  0  0  0  0  0  0
    1.3822    0.5208   -1.3828 C   0  0  0  0  0  0  0  0  0  0  0  0
    2.2435    0.8434   -0.3202 O   0  0  0  0  0  0  0  0  0  0  0  0
    3.3918    1.5427   -0.7277 C   0  0  0  0  0  0  0  0  0  0  0  0
    4.2428    1.8385    0.4854 C   0  0  0  0  0  0  0  0  0  0  0  0
   -0.0793    0.9867    0.9579 H   0  0  0  0  0  0  0  0  0  0  0  0
   -1.0258    1.5701   -0.4126 H   0  0  0  0  0  0  0  0  0  0  0  0
   -0.4454   -0.5158   -1.6910 H   0  0  0  0  0  0  0  0  0  0  0  0
    0.4894   -1.0988   -0.3237 H   0  0  0  0  0  0  0  0  0  0  0  0
    1.0796    1.4385   -1.9117 H   0  0  0  0  0  0  0  0  0  0  0  0
    1.9057   -0.1177   -2.1094 H   0  0  0  0  0  0  0  0  0  0  0  0
    3.9570    0.9433   -1.4569 H   0  0  0  0  0  0  0  0  0  0  0  0
    3.1026    2.4768   -1.2316 H   0  0  0  0  0  0  0  0  0  0  0  0
    4.5415    0.9123    0.9777 H   0  0  0  0  0  0  0  0  0  0  0  0
    5.1426    2.3818    0.1927 H   0  0  0  0  0  0  0  0  0  0  0  0
    3.6887    2.4458    1.2020 H   0  0  0  0  0  0  0  0  0  0  0  0
  1  2  1  0
  1  5  1  0
  1  6  1  0
  1  7  1  0
  2  3  1  0
  2  8  1  0
  2  9  1  0
  3  4  1  0
  3 10  1  0
  4 12  1  0
  4 13  1  0
  4 14  1  0
 11 15  1  0
 15 16  1  0
 15 21  1  0
 15 22  1  0
 16 17  1  0
 16 23  1  0
 16 24  1  0
 17 18  1  0
 17 25  1  0
 17 26  1  0
 18 19  1  0
 19 20  1  0
 19 27  1  0
 19 28  1  0
 20 29  1  0
 20 30  1  0
 20 31  1  0
M  RAD  1   3   2
M  END
>  <reaction>  (16) 
rmg_rxn_235

>  <mol_properties>  (16) 
{"1": {"label": "*0", "atom_type": "Cs"}, "2": {"label": "*1", "atom_type": "Cs"}, "10": {"label": "*2", "atom_type": "H0"}, "14": {"label": "*3", "atom_type": "Cs"}, "15": {"label": "*4", "atom_type": "Cs"}}

>  <type>  (16) 
unop_12

>  <geom_source>  (16) 
Heuristics

$$$$

     RDKit          3D

 31 29  0  0  0  0  0  0  0  0999 V2000
    3.0199   -0.2242   -0.8399 O   0  0  0  0  0  0  0  0  0  0  0  0
    0.6795   -0.1321   -0.3405 C   0  0  0  0  0  0  0  0  0  0  0  0
   -3.7264    0.4530    0.2609 C   0  0  0  0  0  0  0  0  0  0  0  0
    2.0747   -0.4735    0.1799 C   0  0  0  0  0  0  0  0  0  0  0  0
    4.3365   -0.4048   -0.3527 C   0  0  0  0  0  0  0  0  0  0  0  0
   -0.3882   -0.3888    0.7180 C   0  0  0  0  0  0  0  0  0  0  0  0
   -3.9367   -0.1569    1.6416 C   0  0  0  0  0  0  0  0  0  0  0  0
    4.9405    0.9371    0.0460 C   0  0  0  0  0  0  0  0  0  0  0  0
   -2.3701    0.3142   -1.8647 C   0  0  0  0  0  0  0  0  0  0  0  0
   -2.6691   -0.3308   -0.5170 C   0  0  0  0  0  3  0  0  0  0  0  0
    0.6461    0.9389   -0.6357 H   0  0  0  0  0  0  0  0  0  0  0  0
    0.4562   -0.7503   -1.2367 H   0  0  0  0  0  0  0  0  0  0  0  0
   -4.6891    0.4423   -0.2952 H   0  0  0  0  0  0  0  0  0  0  0  0
   -3.3962    1.5075    0.3823 H   0  0  0  0  0  0  0  0  0  0  0  0
    2.2833    0.1530    1.0776 H   0  0  0  0  0  0  0  0  0  0  0  0
    2.0969   -1.5503    0.4648 H   0  0  0  0  0  0  0  0  0  0  0  0
    4.4084   -1.1229    0.4988 H   0  0  0  0  0  0  0  0  0  0  0  0
    4.9506   -0.8295   -1.1747 H   0  0  0  0  0  0  0  0  0  0  0  0
   -0.2017    0.2388    1.6155 H   0  0  0  0  0  0  0  0  0  0  0  0
   -0.3915   -1.4600    1.0121 H   0  0  0  0  0  0  0  0  0  0  0  0
   -1.5557   -0.0861    0.2331 H   0  0  0  0  0  0  0  0  0  0  0  0
    4.9086    1.6387   -0.8143 H   0  0  0  0  0  0  0  0  0  0  0  0
    4.3777    1.3771    0.8954 H   0  0  0  0  0  0  0  0  0  0  0  0
    5.9976    0.7946    0.3545 H   0  0  0  0  0  0  0  0  0  0  0  0
   -4.6945    0.4341    2.1979 H   0  0  0  0  0  0  0  0  0  0  0  0
   -4.2992   -1.2031    1.5505 H   0  0  0  0  0  0  0  0  0  0  0  0
   -2.9853   -0.1467    2.2154 H   0  0  0  0  0  0  0  0  0  0  0  0
   -3.2862    0.3397   -2.4926 H   0  0  0  0  0  0  0  0  0  0  0  0
   -1.9920    1.3479   -1.7187 H   0  0  0  0  0  0  0  0  0  0  0  0
   -1.5910   -0.2769   -2.3896 H   0  0  0  0  0  0  0  0  0  0  0  0
   -3.0034   -1.3799   -0.6719 H   0  0  0  0  0  0  0  0  0  0  0  0
  1  5  1  0
  1  4  1  0
  2  6  1  0
  2  4  1  0
  2 11  1  0
  2 12  1  0
  3  7  1  0
  3 10  1  0
  3 13  1  0
  3 14  1  0
  4 15  1  0
  4 16  1  0
  5  8  1  0
  5 17  1  0
  5 18  1  0
  6 19  1  0
  6 20  1  0
  6 21  1  0
  7 25  1  0
  7 26  1  0
  7 27  1  0
  8 22  1  0
  8 23  1  0
  8 24  1  0
  9 10  1  0
  9 28  1  0
  9 29  1  0
  9 30  1  0
 10 31  1  0
M  RAD  1  10   2
M  END
>  <reaction>  (17) 
rmg_rxn_235

>  <mol_properties>  (17) 
{"1": {"label": "*0", "atom_type": "Cs"}, "2": {"label": "*1", "atom_type": "Cs"}, "10": {"label": "*2", "atom_type": "H0"}, "14": {"label": "*3", "atom_type": "Cs"}, "15": {"label": "*4", "atom_type": "Cs"}}

>  <type>  (17) 
unop_13

>  <geom_source>  (17) 
AutoTST

$$$$

     RDKit          3D

 31 29  0  0  0  0  0  0  0  0999 V2000
   -2.5068   -2.3131   -0.6489 C   0  0  0  0  0  0  0  0  0  0  0  0
   -2.5068   -2.3131    0.8738 C   0  0  0  0  0  0  0  0  0  0  0  0
   -2.5068   -0.9108    1.4712 C   0  0  0  0  0  3  0  0  0  0  0  0
   -2.5068   -0.9108    2.9939 C   0  0  0  0  0  0  0  0  0  0  0  0
   -1.6252   -1.7998   -1.0402 H   0  0  0  0  0  0  0  0  0  0  0  0
   -3.3883   -1.7998   -1.0402 H   0  0  0  0  0  0  0  0  0  0  0  0
   -2.5068   -3.3283   -1.0492 H   0  0  0  0  0  0  0  0  0  0  0  0
   -3.3818   -2.8590    1.2411 H   0  0  0  0  0  0  0  0  0  0  0  0
   -1.6317   -2.8590    1.2411 H   0  0  0  0  0  0  0  0  0  0  0  0
   -3.3818   -0.3649    1.1039 H   0  0  0  0  0  0  0  0  0  0  0  0
   -1.4567   -0.2557    1.0304 H   0  0  0  0  0  0  0  0  0  0  0  0
   -1.6252   -1.4241    3.3853 H   0  0  0  0  0  0  0  0  0  0  0  0
   -3.3883   -1.4241    3.3853 H   0  0  0  0  0  0  0  0  0  0  0  0
   -2.5068    0.1043    3.3943 H   0  0  0  0  0  0  0  0  0  0  0  0
   -0.4103    0.3971    0.5912 C   0  0  0  0  0  0  0  0  0  0  0  0
   -0.0106   -0.0797   -0.7988 C   0  0  0  0  0  0  0  0  0  0  0  0
    0.8808    0.9020   -1.5316 C   0  0  0  0  0  0  0  0  0  0  0  0
    2.0902    1.0458   -0.8305 O   0  0  0  0  0  0  0  0  0  0  0  0
    2.9691    1.9689   -1.4212 C   0  0  0  0  0  0  0  0  0  0  0  0
    4.2297    2.0468   -0.5915 C   0  0  0  0  0  0  0  0  0  0  0  0
    0.4704    0.5516    1.2144 H   0  0  0  0  0  0  0  0  0  0  0  0
   -0.9538    1.3437    0.5371 H   0  0  0  0  0  0  0  0  0  0  0  0
   -0.9018   -0.2457   -1.4104 H   0  0  0  0  0  0  0  0  0  0  0  0
    0.5104   -1.0382   -0.7314 H   0  0  0  0  0  0  0  0  0  0  0  0
    0.3782    1.8785   -1.6162 H   0  0  0  0  0  0  0  0  0  0  0  0
    1.0796    0.5470   -2.5535 H   0  0  0  0  0  0  0  0  0  0  0  0
    3.2045    1.6576   -2.4497 H   0  0  0  0  0  0  0  0  0  0  0  0
    2.4886    2.9565   -1.4841 H   0  0  0  0  0  0  0  0  0  0  0  0
    4.7142    1.0711   -0.5401 H   0  0  0  0  0  0  0  0  0  0  0  0
    4.9291    2.7589   -1.0323 H   0  0  0  0  0  0  0  0  0  0  0  0
    3.9993    2.3705    0.4242 H   0  0  0  0  0  0  0  0  0  0  0  0
  1  2  1  0
  1  5  1  0
  1  6  1  0
  1  7  1  0
  2  3  1  0
  2  8  1  0
  2  9  1  0
  3  4  1  0
  3 10  1  0
  4 12  1  0
  4 13  1  0
  4 14  1  0
 11 15  1  0
 15 16  1  0
 15 21  1  0
 15 22  1  0
 16 17  1  0
 16 23  1  0
 16 24  1  0
 17 18  1  0
 17 25  1  0
 17 26  1  0
 18 19  1  0
 19 20  1  0
 19 27  1  0
 19 28  1  0
 20 29  1  0
 20 30  1  0
 20 31  1  0
M  RAD  1   3   2
M  END
>  <reaction>  (18) 
rmg_rxn_235

>  <mol_properties>  (18) 
{"1": {"label": "*0", "atom_type": "Cs"}, "2": {"label": "*1", "atom_type": "Cs"}, "10": {"label": "*2", "atom_type": "H0"}, "14": {"label": "*3", "atom_type": "Cs"}, "15": {"label": "*4", "atom_type": "Cs"}}

>  <type>  (18) 
unop_14

>  <geom_source>  (18) 
gaussian_log

$$$$
