
     RDKit          3D

 15 14  0  0  0  0  0  0  0  0999 V2000
   -2.0554    0.0723   -0.4910 C   0  0  0  0  0  0  0  0  0  0  0  0
   -0.7461   -0.6266   -0.8178 C   0  0  0  0  0  0  0  0  0  0  0  0
    0.3249    0.2591   -1.9782 S   0  0  0  0  0  0  0  0  0  0  0  0
   -0.7172    0.3642   -3.4551 C   0  0  0  0  0  0  0  0  0  0  0  0
   -1.1375   -0.9737   -4.0409 C   0  0  0  0  0  0  0  0  0  0  0  0
   -2.7005    0.1427   -1.3684 H   0  0  0  0  0  0  0  0  0  0  0  0
   -2.6016   -0.4848    0.2733 H   0  0  0  0  0  0  0  0  0  0  0  0
   -1.8758    1.0825   -0.1213 H   0  0  0  0  0  0  0  0  0  0  0  0
   -0.1320   -0.7246    0.0789 H   0  0  0  0  0  0  0  0  0  0  0  0
   -0.9254   -1.6374   -1.1879 H   0  0  0  0  0  0  0  0  0  0  0  0
   -1.5873    0.9874   -3.2422 H   0  0  0  0  0  0  0  0  0  0  0  0
   -0.1021    0.9161   -4.1678 H   0  0  0  0  0  0  0  0  0  0  0  0
   -1.7876   -1.5224   -3.3574 H   0  0  0  0  0  0  0  0  0  0  0  0
   -0.2676   -1.5962   -4.2534 H   0  0  0  0  0  0  0  0  0  0  0  0
   -1.6916   -0.8229   -4.9700 H   0  0  0  0  0  0  0  0  0  0  0  0
  1  2  1  0
  1  6  1  0
  1  7  1  0
  1  8  1  0
  2  3  1  0
  2  9  1  0
  2 10  1  0
  3  4  1  0
  4  5  1  0
  4 11  1  0
  4 12  1  0
  5 13  1  0
  5 14  1  0
  5 15  1  0
M  END
>  <reaction>  (1) 
rmg_rxn_62

>  <mol_properties>  (1) 
{"1": {"label": "donator", "atom_type": "Cs"}, "8": {"label": "d_hydrogen", "atom_type": "H0"}}

>  <type>  (1) 
r1h

$$$$

     RDKit          3D

 14 13  0  0  0  0  0  0  0  0999 V2000
    2.5796   -0.5432    0.2329 C   0  0  0  0  0  3  0  0  0  0  0  0
    1.2594    0.0982    0.3029 C   0  0  0  0  0  0  0  0  0  0  0  0
   -0.0483   -1.0244    0.9576 S   0  0  0  0  0  0  0  0  0  0  0  0
   -0.0049   -2.3732   -0.2491 C   0  0  0  0  0  0  0  0  0  0  0  0
   -0.3891   -1.9781   -1.6653 C   0  0  0  0  0  0  0  0  0  0  0  0
    2.9359   -0.9798   -0.6903 H   0  0  0  0  0  0  0  0  0  0  0  0
    3.1327   -0.7454    1.1400 H   0  0  0  0  0  0  0  0  0  0  0  0
    0.9347    0.4858   -0.6621 H   0  0  0  0  0  0  0  0  0  0  0  0
    1.2442    0.9220    1.0193 H   0  0  0  0  0  0  0  0  0  0  0  0
    0.9819   -2.8380   -0.2257 H   0  0  0  0  0  0  0  0  0  0  0  0
   -0.7110   -3.1037    0.1493 H   0  0  0  0  0  0  0  0  0  0  0  0
    0.3274   -1.2737   -2.0913 H   0  0  0  0  0  0  0  0  0  0  0  0
   -0.4075   -2.8581   -2.3121 H   0  0  0  0  0  0  0  0  0  0  0  0
   -1.3749   -1.5123   -1.6865 H   0  0  0  0  0  0  0  0  0  0  0  0
  1  2  1  0
  1  6  1  0
  1  7  1  0
  2  3  1  0
  2  8  1  0
  2  9  1  0
  3  4  1  0
  4  5  1  0
  4 10  1  0
  4 11  1  0
  5 12  1  0
  5 13  1  0
  5 14  1  0
M  RAD  1   1   2
M  END
>  <reaction>  (2) 
rmg_rxn_62

>  <mol_properties>  (2) 
{"0": {"label": "acceptor", "atom_type": "Cs"}}

>  <type>  (2) 
r2

$$$$

     RDKit          3D

 15 14  0  0  0  0  0  0  0  0999 V2000
   -2.0554    0.0723   -0.4910 C   0  0  0  0  0  0  0  0  0  0  0  0
   -0.7461   -0.6266   -0.8178 C   0  0  0  0  0  0  0  0  0  0  0  0
    0.3249    0.2591   -1.9782 S   0  0  0  0  0  0  0  0  0  0  0  0
   -0.7172    0.3642   -3.4551 C   0  0  0  0  0  0  0  0  0  0  0  0
   -1.1375   -0.9737   -4.0409 C   0  0  0  0  0  0  0  0  0  0  0  0
   -2.7005    0.1427   -1.3684 H   0  0  0  0  0  0  0  0  0  0  0  0
   -2.6016   -0.4848    0.2733 H   0  0  0  0  0  0  0  0  0  0  0  0
   -1.8758    1.0825   -0.1213 H   0  0  0  0  0  0  0  0  0  0  0  0
   -0.1320   -0.7246    0.0789 H   0  0  0  0  0  0  0  0  0  0  0  0
   -0.9254   -1.6374   -1.1879 H   0  0  0  0  0  0  0  0  0  0  0  0
   -1.5873    0.9874   -3.2422 H   0  0  0  0  0  0  0  0  0  0  0  0
   -0.1021    0.9161   -4.1678 H   0  0  0  0  0  0  0  0  0  0  0  0
   -1.7876   -1.5224   -3.3574 H   0  0  0  0  0  0  0  0  0  0  0  0
   -0.2676   -1.5962   -4.2534 H   0  0  0  0  0  0  0  0  0  0  0  0
   -1.6916   -0.8229   -4.9700 H   0  0  0  0  0  0  0  0  0  0  0  0
  1  2  1  0
  1  6  1  0
  1  7  1  0
  1  8  1  0
  2  3  1  0
  2  9  1  0
  2 10  1  0
  3  4  1  0
  4  5  1  0
  4 11  1  0
  4 12  1  0
  5 13  1  0
  5 14  1  0
  5 15  1  0
M  END
>  <reaction>  (3) 
rmg_rxn_62

>  <mol_properties>  (3) 
{"0": {"label": "acceptor", "atom_type": "Cs"}, "14": {"label": "a_hydrogen", "atom_type": "H0"}}

>  <type>  (3) 
r2h

$$$$

     RDKit          3D

 29 27  0  0  0  0  0  0  0  0999 V2000
   -0.3274   -1.8096   -0.7952 C   0  0  0  0  0  3  0  0  0  0  0  0
   -1.6574   -1.8439   -0.1008 C   0  0  0  0  0  0  0  0  0  0  0  0
   -1.9975   -0.4707    1.0402 S   0  0  0  0  0  0  0  0  0  0  0  0
   -0.5109   -0.4521    2.0689 C   0  0  0  0  0  0  0  0  0  0  0  0
   -0.2522   -1.7329    2.8443 C   0  0  0  0  0  0  0  0  0  0  0  0
    0.5383   -1.8856   -0.1412 H   0  0  0  0  0  0  0  0  0  0  0  0
   -0.2538   -2.4886   -1.6433 H   0  0  0  0  0  0  0  0  0  0  0  0
   -1.7839   -2.7871    0.4412 H   0  0  0  0  0  0  0  0  0  0  0  0
   -2.4720   -1.7902   -0.8255 H   0  0  0  0  0  0  0  0  0  0  0  0
    0.3425   -0.1772    1.4464 H   0  0  0  0  0  0  0  0  0  0  0  0
   -0.6783    0.3829    2.7512 H   0  0  0  0  0  0  0  0  0  0  0  0
   -0.0653   -2.5743    2.1746 H   0  0  0  0  0  0  0  0  0  0  0  0
    0.6273   -1.6183    3.4820 H   0  0  0  0  0  0  0  0  0  0  0  0
   -1.1050   -1.9874    3.4748 H   0  0  0  0  0  0  0  0  0  0  0  0
   -1.3923    1.0411   -2.3453 C   0  0  0  0  0  0  0  0  0  0  0  0
    0.0056    0.6018   -1.9793 C   0  0  0  0  0  0  0  0  0  0  0  0
    0.8423    1.7463   -0.9067 S   0  0  0  0  0  0  0  0  0  0  0  0
    2.5703    1.2835   -1.1750 C   0  0  0  0  0  0  0  0  0  0  0  0
    2.9409   -0.1145   -0.7071 C   0  0  0  0  0  0  0  0  0  0  0  0
   -1.3797    1.9441   -2.9603 H   0  0  0  0  0  0  0  0  0  0  0  0
   -1.8939    0.2520   -2.9097 H   0  0  0  0  0  0  0  0  0  0  0  0
   -1.9812    1.2409   -1.4490 H   0  0  0  0  0  0  0  0  0  0  0  0
   -0.1281   -0.5339   -1.3835 H   0  0  0  0  0  0  0  0  0  0  0  0
    0.6226    0.3657   -2.8488 H   0  0  0  0  0  0  0  0  0  0  0  0
    2.8022    1.4123   -2.2344 H   0  0  0  0  0  0  0  0  0  0  0  0
    3.1412    2.0349   -0.6272 H   0  0  0  0  0  0  0  0  0  0  0  0
    2.4029   -0.8751   -1.2736 H   0  0  0  0  0  0  0  0  0  0  0  0
    2.7036   -0.2480    0.3495 H   0  0  0  0  0  0  0  0  0  0  0  0
    4.0105   -0.2888   -0.8445 H   0  0  0  0  0  0  0  0  0  0  0  0
  1  2  1  0
  1  6  1  0
  1  7  1  0
  2  3  1  0
  2  8  1  0
  2  9  1  0
  3  4  1  0
  4  5  1  0
  4 10  1  0
  4 11  1  0
  5 12  1  0
  5 13  1  0
  5 14  1  0
 15 16  1  0
 15 20  1  0
 15 21  1  0
 15 22  1  0
 16 17  1  0
 16 23  1  0
 16 24  1  0
 17 18  1  0
 18 19  1  0
 18 25  1  0
 18 26  1  0
 19 27  1  0
 19 28  1  0
 19 29  1  0
M  RAD  1   1   2
M  END
>  <reaction>  (4) 
rmg_rxn_62

>  <mol_properties>  (4) 
{"0": {"label": "*3", "atom_type": "Cs"}, "1": {"label": "*4", "atom_type": "Cs"}, "15": {"label": "*1", "atom_type": "Cs"}, "16": {"label": "*0", "atom_type": "S2s"}, "22": {"label": "*2", "atom_type": "H0"}}

>  <type>  (4) 
ts

$$$$

     RDKit          3D

 29 27  0  0  0  0  0  0  0  0999 V2000
   -1.2064   -0.1128    0.3354 C   0  0  0  0  0  0  0  0  0  0  0  0
   -0.8808   -1.3266    1.1901 C   0  0  0  0  0  0  0  0  0  0  0  0
   -0.9211   -2.9112    0.3151 S   0  0  0  0  0  0  0  0  0  0  0  0
   -2.6371   -2.9875   -0.2572 C   0  0  0  0  0  0  0  0  0  0  0  0
   -3.6831   -2.9667    0.8451 C   0  0  0  0  0  0  0  0  0  0  0  0
   -2.2389   -0.1379   -0.0170 H   0  0  0  0  0  0  0  0  0  0  0  0
   -1.0805    0.8038    0.9159 H   0  0  0  0  0  0  0  0  0  0  0  0
   -1.5348   -1.3763    2.0622 H   0  0  0  0  0  0  0  0  0  0  0  0
    0.1414   -1.2643    1.5670 H   0  0  0  0  0  0  0  0  0  0  0  0
   -2.8153   -2.1887   -0.9790 H   0  0  0  0  0  0  0  0  0  0  0  0
   -2.6846   -3.9271   -0.8102 H   0  0  0  0  0  0  0  0  0  0  0  0
   -3.6776   -2.0172    1.3830 H   0  0  0  0  0  0  0  0  0  0  0  0
   -4.6816   -3.0979    0.4223 H   0  0  0  0  0  0  0  0  0  0  0  0
   -3.5047   -3.7650    1.5663 H   0  0  0  0  0  0  0  0  0  0  0  0
    0.9798    1.0001   -2.0991 C   0  0  0  0  0  0  0  0  0  0  0  0
    0.9798    1.0001   -0.5794 C   0  0  0  0  0  3  0  0  0  0  0  0
    0.9798    2.6412    0.1855 S   0  0  0  0  0  0  0  0  0  0  0  0
    2.5204    3.3551   -0.4431 C   0  0  0  0  0  0  0  0  0  0  0  0
    3.7813    2.5962   -0.0639 C   0  0  0  0  0  0  0  0  0  0  0  0
    1.9028    1.4236   -2.4985 H   0  0  0  0  0  0  0  0  0  0  0  0
    0.8973   -0.0211   -2.4778 H   0  0  0  0  0  0  0  0  0  0  0  0
    0.1441    1.5825   -2.4885 H   0  0  0  0  0  0  0  0  0  0  0  0
   -0.1136    0.4434   -0.1218 H   0  0  0  0  0  0  0  0  0  0  0  0
    1.8160    0.4174   -0.1893 H   0  0  0  0  0  0  0  0  0  0  0  0
    2.4493    3.4773   -1.5251 H   0  0  0  0  0  0  0  0  0  0  0  0
    2.5355    4.3583   -0.0138 H   0  0  0  0  0  0  0  0  0  0  0  0
    3.8025    1.6044   -0.5186 H   0  0  0  0  0  0  0  0  0  0  0  0
    3.8520    2.4742    1.0175 H   0  0  0  0  0  0  0  0  0  0  0  0
    4.6661    3.1346   -0.4108 H   0  0  0  0  0  0  0  0  0  0  0  0
  1  2  1  0
  1  6  1  0
  1  7  1  0
  1 23  1  0
  2  3  1  0
  2  8  1  0
  2  9  1  0
  3  4  1  0
  4  5  1  0
  4 10  1  0
  4 11  1  0
  5 12  1  0
  5 13  1  0
  5 14  1  0
 15 16  1  0
 15 20  1  0
 15 21  1  0
 15 22  1  0
 16 17  1  0
 16 24  1  0
 17 18  1  0
 18 19  1  0
 18 25  1  0
 18 26  1  0
 19 27  1  0
 19 28  1  0
 19 29  1  0
M  RAD  1  16   2
M  END
>  <reaction>  (5) 
rmg_rxn_62

>  <mol_properties>  (5) 
{"0": {"label": "*3", "atom_type": "Cs"}, "1": {"label": "*4", "atom_type": "Cs"}, "15": {"label": "*1", "atom_type": "Cs"}, "16": {"label": "*0", "atom_type": "S2s"}, "22": {"label": "*2", "atom_type": "H0"}}

>  <type>  (5) 
unop_1

>  <geom_source>  (5) 
Heuristics

$$$$

     RDKit          3D

 29 27  0  0  0  0  0  0  0  0999 V2000
   -0.6704   -1.0341    1.1364 C   0  0  0  0  0  0  0  0  0  0  0  0
   -1.1844   -2.0922    0.1741 C   0  0  0  0  0  0  0  0  0  0  0  0
   -1.9423   -1.4471   -1.3384 S   0  0  0  0  0  0  0  0  0  0  0  0
   -3.3189   -0.4676   -0.6875 C   0  0  0  0  0  0  0  0  0  0  0  0
   -4.3392   -1.2518    0.1208 C   0  0  0  0  0  0  0  0  0  0  0  0
   -1.4863   -0.4344    1.5434 H   0  0  0  0  0  0  0  0  0  0  0  0
   -0.1582   -1.5049    1.9785 H   0  0  0  0  0  0  0  0  0  0  0  0
   -1.8837   -2.7658    0.6722 H   0  0  0  0  0  0  0  0  0  0  0  0
   -0.3607   -2.7081   -0.1908 H   0  0  0  0  0  0  0  0  0  0  0  0
   -2.9268    0.3721   -0.1113 H   0  0  0  0  0  0  0  0  0  0  0  0
   -3.7826   -0.0463   -1.5810 H   0  0  0  0  0  0  0  0  0  0  0  0
   -3.9026   -1.6466    1.0398 H   0  0  0  0  0  0  0  0  0  0  0  0
   -5.1736   -0.6069    0.4053 H   0  0  0  0  0  0  0  0  0  0  0  0
   -4.7307   -2.0909   -0.4553 H   0  0  0  0  0  0  0  0  0  0  0  0
    1.5158    0.0788   -1.2981 C   0  0  0  0  0  0  0  0  0  0  0  0
    1.5158    0.0788    0.2216 C   0  0  0  0  0  3  0  0  0  0  0  0
    1.5158    1.7198    0.9865 S   0  0  0  0  0  0  0  0  0  0  0  0
    3.0563    2.4338    0.3579 C   0  0  0  0  0  0  0  0  0  0  0  0
    4.3173    1.6749    0.7371 C   0  0  0  0  0  0  0  0  0  0  0  0
    2.4388    0.5023   -1.6975 H   0  0  0  0  0  0  0  0  0  0  0  0
    1.4332   -0.9424   -1.6768 H   0  0  0  0  0  0  0  0  0  0  0  0
    0.6800    0.6612   -1.6875 H   0  0  0  0  0  0  0  0  0  0  0  0
    0.4223   -0.4779    0.6792 H   0  0  0  0  0  0  0  0  0  0  0  0
    2.3519   -0.5039    0.6117 H   0  0  0  0  0  0  0  0  0  0  0  0
    2.9852    2.5560   -0.7241 H   0  0  0  0  0  0  0  0  0  0  0  0
    3.0714    3.4369    0.7872 H   0  0  0  0  0  0  0  0  0  0  0  0
    4.3385    0.6831    0.2824 H   0  0  0  0  0  0  0  0  0  0  0  0
    4.3879    1.5529    1.8185 H   0  0  0  0  0  0  0  0  0  0  0  0
    5.2020    2.2133    0.3902 H   0  0  0  0  0  0  0  0  0  0  0  0
  1  2  1  0
  1  6  1  0
  1  7  1  0
  1 23  1  0
  2  3  1  0
  2  8  1  0
  2  9  1  0
  3  4  1  0
  4  5  1  0
  4 10  1  0
  4 11  1  0
  5 12  1  0
  5 13  1  0
  5 14  1  0
 15 16  1  0
 15 20  1  0
 15 21  1  0
 15 22  1  0
 16 17  1  0
 16 24  1  0
 17 18  1  0
 18 19  1  0
 18 25  1  0
 18 26  1  0
 19 27  1  0
 19 28  1  0
 19 29  1  0
M  RAD  1  16   2
M  END
>  <reaction>  (6) 
rmg_rxn_62

>  <mol_properties>  (6) 
{"0": {"label": "*3", "atom_type": "Cs"}, "1": {"label": "*4", "atom_type": "Cs"}, "15": {"label": "*1", "atom_type": "Cs"}, "16": {"label": "*0", "atom_type": "S2s"}, "22": {"label": "*2", "atom_type": "H0"}}

>  <type>  (6) 
unop_2

>  <geom_source>  (6) 
Heuristics

$$$$

     RDKit          3D

 29 27  0  0  0  0  0  0  0  0999 V2000
   -1.4620   -0.1738   -0.0380 C   0  0  0  0  0  0  0  0  0  0  0  0
   -1.2103   -0.8421    1.3034 C   0  0  0  0  0  0  0  0  0  0  0  0
   -0.5278   -2.5164    1.2078 S   0  0  0  0  0  0  0  0  0  0  0  0
   -1.8169   -3.4024    0.2961 C   0  0  0  0  0  0  0  0  0  0  0  0
   -3.1790   -3.4257    0.9697 C   0  0  0  0  0  0  0  0  0  0  0  0
   -2.2396   -0.6912   -0.6025 H   0  0  0  0  0  0  0  0  0  0  0  0
   -1.7942    0.8564    0.1085 H   0  0  0  0  0  0  0  0  0  0  0  0
   -2.1176   -0.8537    1.9097 H   0  0  0  0  0  0  0  0  0  0  0  0
   -0.4604   -0.2883    1.8706 H   0  0  0  0  0  0  0  0  0  0  0  0
   -1.8888   -2.9994   -0.7155 H   0  0  0  0  0  0  0  0  0  0  0  0
   -1.4200   -4.4147    0.2036 H   0  0  0  0  0  0  0  0  0  0  0  0
   -3.6100   -2.4251    1.0339 H   0  0  0  0  0  0  0  0  0  0  0  0
   -3.8735   -4.0454    0.3982 H   0  0  0  0  0  0  0  0  0  0  0  0
   -3.1067   -3.8284    1.9806 H   0  0  0  0  0  0  0  0  0  0  0  0
    0.7242    0.9391   -2.4726 C   0  0  0  0  0  0  0  0  0  0  0  0
    0.7242    0.9391   -0.9529 C   0  0  0  0  0  3  0  0  0  0  0  0
    0.7242    2.5802   -0.1880 S   0  0  0  0  0  0  0  0  0  0  0  0
    2.2647    3.2942   -0.8166 C   0  0  0  0  0  0  0  0  0  0  0  0
    3.5257    2.5353   -0.4373 C   0  0  0  0  0  0  0  0  0  0  0  0
    1.6472    1.3627   -2.8720 H   0  0  0  0  0  0  0  0  0  0  0  0
    0.6416   -0.0820   -2.8513 H   0  0  0  0  0  0  0  0  0  0  0  0
   -0.1116    1.5216   -2.8620 H   0  0  0  0  0  0  0  0  0  0  0  0
   -0.3693    0.3825   -0.4953 H   0  0  0  0  0  0  0  0  0  0  0  0
    1.5604    0.3565   -0.5628 H   0  0  0  0  0  0  0  0  0  0  0  0
    2.1936    3.4164   -1.8986 H   0  0  0  0  0  0  0  0  0  0  0  0
    2.2798    4.2973   -0.3873 H   0  0  0  0  0  0  0  0  0  0  0  0
    3.5469    1.5435   -0.8920 H   0  0  0  0  0  0  0  0  0  0  0  0
    3.5963    2.4133    0.6441 H   0  0  0  0  0  0  0  0  0  0  0  0
    4.4104    3.0737   -0.7843 H   0  0  0  0  0  0  0  0  0  0  0  0
  1  2  1  0
  1  6  1  0
  1  7  1  0
  1 23  1  0
  2  3  1  0
  2  8  1  0
  2  9  1  0
  3  4  1  0
  4  5  1  0
  4 10  1  0
  4 11  1  0
  5 12  1  0
  5 13  1  0
  5 14  1  0
 15 16  1  0
 15 20  1  0
 15 21  1  0
 15 22  1  0
 16 17  1  0
 16 24  1  0
 17 18  1  0
 18 19  1  0
 18 25  1  0
 18 26  1  0
 19 27  1  0
 19 28  1  0
 19 29  1  0
M  RAD  1  16   2
M  END
>  <reaction>  (7) 
rmg_rxn_62

>  <mol_properties>  (7) 
{"0": {"label": "*3", "atom_type": "Cs"}, "1": {"label": "*4", "atom_type": "Cs"}, "15": {"label": "*1", "atom_type": "Cs"}, "16": {"label": "*0", "atom_type": "S2s"}, "22": {"label": "*2", "atom_type": "H0"}}

>  <type>  (7) 
unop_3

>  <geom_source>  (7) 
Heuristics

$$$$

     RDKit          3D

 29 27  0  0  0  0  0  0  0  0999 V2000
   -1.0541   -2.1755    0.3947 C   0  0  0  0  0  0  0  0  0  0  0  0
   -2.2860   -1.4231   -0.0808 C   0  0  0  0  0  0  0  0  0  0  0  0
   -1.9984    0.3060   -0.5347 S   0  0  0  0  0  0  0  0  0  0  0  0
   -1.3909    1.0120    1.0180 C   0  0  0  0  0  0  0  0  0  0  0  0
   -2.3609    0.9272    2.1848 C   0  0  0  0  0  0  0  0  0  0  0  0
   -0.6740   -1.7672    1.3326 H   0  0  0  0  0  0  0  0  0  0  0  0
   -1.2961   -3.2262    0.5690 H   0  0  0  0  0  0  0  0  0  0  0  0
   -3.0855   -1.4761    0.6601 H   0  0  0  0  0  0  0  0  0  0  0  0
   -2.6760   -1.8702   -0.9966 H   0  0  0  0  0  0  0  0  0  0  0  0
   -0.4325    0.5570    1.2736 H   0  0  0  0  0  0  0  0  0  0  0  0
   -1.1869    2.0542    0.7667 H   0  0  0  0  0  0  0  0  0  0  0  0
   -2.5449   -0.1081    2.4767 H   0  0  0  0  0  0  0  0  0  0  0  0
   -1.9523    1.4453    3.0553 H   0  0  0  0  0  0  0  0  0  0  0  0
   -3.3185    1.3819    1.9289 H   0  0  0  0  0  0  0  0  0  0  0  0
    1.1320   -1.0626   -2.0399 C   0  0  0  0  0  0  0  0  0  0  0  0
    1.1320   -1.0626   -0.5201 C   0  0  0  0  0  3  0  0  0  0  0  0
    1.1320    0.5785    0.2448 S   0  0  0  0  0  0  0  0  0  0  0  0
    2.6726    1.2925   -0.3838 C   0  0  0  0  0  0  0  0  0  0  0  0
    3.9336    0.5336   -0.0046 C   0  0  0  0  0  0  0  0  0  0  0  0
    2.0551   -0.6390   -2.4393 H   0  0  0  0  0  0  0  0  0  0  0  0
    1.0495   -2.0837   -2.4185 H   0  0  0  0  0  0  0  0  0  0  0  0
    0.2963   -0.4801   -2.4293 H   0  0  0  0  0  0  0  0  0  0  0  0
    0.0386   -1.6192   -0.0626 H   0  0  0  0  0  0  0  0  0  0  0  0
    1.9682   -1.6452   -0.1301 H   0  0  0  0  0  0  0  0  0  0  0  0
    2.6015    1.4147   -1.4659 H   0  0  0  0  0  0  0  0  0  0  0  0
    2.6877    2.2956    0.0454 H   0  0  0  0  0  0  0  0  0  0  0  0
    3.9548   -0.4582   -0.4593 H   0  0  0  0  0  0  0  0  0  0  0  0
    4.0042    0.4116    1.0768 H   0  0  0  0  0  0  0  0  0  0  0  0
    4.8183    1.0720   -0.3516 H   0  0  0  0  0  0  0  0  0  0  0  0
  1  2  1  0
  1  6  1  0
  1  7  1  0
  1 23  1  0
  2  3  1  0
  2  8  1  0
  2  9  1  0
  3  4  1  0
  4  5  1  0
  4 10  1  0
  4 11  1  0
  5 12  1  0
  5 13  1  0
  5 14  1  0
 15 16  1  0
 15 20  1  0
 15 21  1  0
 15 22  1  0
 16 17  1  0
 16 24  1  0
 17 18  1  0
 18 19  1  0
 18 25  1  0
 18 26  1  0
 19 27  1  0
 19 28  1  0
 19 29  1  0
M  RAD  1  16   2
M  END
>  <reaction>  (8) 
rmg_rxn_62

>  <mol_properties>  (8) 
{"0": {"label": "*3", "atom_type": "Cs"}, "1": {"label": "*4", "atom_type": "Cs"}, "15": {"label": "*1", "atom_type": "Cs"}, "16": {"label": "*0", "atom_type": "S2s"}, "22": {"label": "*2", "atom_type": "H0"}}

>  <type>  (8) 
unop_4

>  <geom_source>  (8) 
Heuristics

$$$$

     RDKit          3D

 29 27  0  0  0  0  0  0  0  0999 V2000
   -1.8138   -0.5570   -0.4244 C   0  0  0  0  0  0  0  0  0  0  0  0
   -1.8249   -0.5626    1.0952 C   0  0  0  0  0  0  0  0  0  0  0  0
   -0.3835   -1.3396    1.8678 S   0  0  0  0  0  0  0  0  0  0  0  0
   -0.4761   -3.0325    1.2322 C   0  0  0  0  0  0  0  0  0  0  0  0
   -1.7428   -3.7877    1.5994 C   0  0  0  0  0  0  0  0  0  0  0  0
   -1.8728   -1.5692   -0.8281 H   0  0  0  0  0  0  0  0  0  0  0  0
   -2.6725   -0.0011   -0.8073 H   0  0  0  0  0  0  0  0  0  0  0  0
   -2.7359   -1.0265    1.4769 H   0  0  0  0  0  0  0  0  0  0  0  0
   -1.8069    0.4582    1.4805 H   0  0  0  0  0  0  0  0  0  0  0  0
   -0.3269   -3.0234    0.1513 H   0  0  0  0  0  0  0  0  0  0  0  0
    0.3982   -3.5206    1.6661 H   0  0  0  0  0  0  0  0  0  0  0  0
   -2.6240   -3.3368    1.1399 H   0  0  0  0  0  0  0  0  0  0  0  0
   -1.6828   -4.8205    1.2490 H   0  0  0  0  0  0  0  0  0  0  0  0
   -1.8916   -3.7965    2.6797 H   0  0  0  0  0  0  0  0  0  0  0  0
    0.3724    0.5559   -2.8590 C   0  0  0  0  0  0  0  0  0  0  0  0
    0.3724    0.5559   -1.3392 C   0  0  0  0  0  3  0  0  0  0  0  0
    0.3724    2.1970   -0.5743 S   0  0  0  0  0  0  0  0  0  0  0  0
    1.9130    2.9109   -1.2029 C   0  0  0  0  0  0  0  0  0  0  0  0
    3.1739    2.1521   -0.8237 C   0  0  0  0  0  0  0  0  0  0  0  0
    1.2954    0.9795   -3.2584 H   0  0  0  0  0  0  0  0  0  0  0  0
    0.2898   -0.4653   -3.2376 H   0  0  0  0  0  0  0  0  0  0  0  0
   -0.4633    1.1384   -3.2484 H   0  0  0  0  0  0  0  0  0  0  0  0
   -0.7211   -0.0007   -0.8817 H   0  0  0  0  0  0  0  0  0  0  0  0
    1.2086   -0.0267   -0.9492 H   0  0  0  0  0  0  0  0  0  0  0  0
    1.8418    3.0331   -2.2850 H   0  0  0  0  0  0  0  0  0  0  0  0
    1.9280    3.9141   -0.7737 H   0  0  0  0  0  0  0  0  0  0  0  0
    3.1951    1.1602   -1.2784 H   0  0  0  0  0  0  0  0  0  0  0  0
    3.2446    2.0300    0.2577 H   0  0  0  0  0  0  0  0  0  0  0  0
    4.0586    2.6905   -1.1707 H   0  0  0  0  0  0  0  0  0  0  0  0
  1  2  1  0
  1  6  1  0
  1  7  1  0
  1 23  1  0
  2  3  1  0
  2  8  1  0
  2  9  1  0
  3  4  1  0
  4  5  1  0
  4 10  1  0
  4 11  1  0
  5 12  1  0
  5 13  1  0
  5 14  1  0
 15 16  1  0
 15 20  1  0
 15 21  1  0
 15 22  1  0
 16 17  1  0
 16 24  1  0
 17 18  1  0
 18 19  1  0
 18 25  1  0
 18 26  1  0
 19 27  1  0
 19 28  1  0
 19 29  1  0
M  RAD  1  16   2
M  END
>  <reaction>  (9) 
rmg_rxn_62

>  <mol_properties>  (9) 
{"0": {"label": "*3", "atom_type": "Cs"}, "1": {"label": "*4", "atom_type": "Cs"}, "15": {"label": "*1", "atom_type": "Cs"}, "16": {"label": "*0", "atom_type": "S2s"}, "22": {"label": "*2", "atom_type": "H0"}}

>  <type>  (9) 
unop_5

>  <geom_source>  (9) 
Heuristics

$$$$

     RDKit          3D

 29 27  0  0  0  0  0  0  0  0999 V2000
   -1.3219   -2.1558   -0.0284 C   0  0  0  0  0  0  0  0  0  0  0  0
   -2.4190   -1.1214    0.1612 C   0  0  0  0  0  0  0  0  0  0  0  0
   -1.8561    0.5995    0.1611 S   0  0  0  0  0  0  0  0  0  0  0  0
   -0.7155    0.6280    1.5670 C   0  0  0  0  0  0  0  0  0  0  0  0
   -1.3399    0.2772    2.9074 C   0  0  0  0  0  0  0  0  0  0  0  0
   -0.6249   -2.1573    0.8114 H   0  0  0  0  0  0  0  0  0  0  0  0
   -1.7532   -3.1568   -0.0979 H   0  0  0  0  0  0  0  0  0  0  0  0
   -2.9870   -1.3177    1.0721 H   0  0  0  0  0  0  0  0  0  0  0  0
   -3.1287   -1.1621   -0.6667 H   0  0  0  0  0  0  0  0  0  0  0  0
    0.1393   -0.0161    1.3544 H   0  0  0  0  0  0  0  0  0  0  0  0
   -0.3418    1.6532    1.5771 H   0  0  0  0  0  0  0  0  0  0  0  0
   -1.6828   -0.7586    2.9295 H   0  0  0  0  0  0  0  0  0  0  0  0
   -0.6078    0.3970    3.7091 H   0  0  0  0  0  0  0  0  0  0  0  0
   -2.1943    0.9210    3.1194 H   0  0  0  0  0  0  0  0  0  0  0  0
    0.8643   -1.0428   -2.4629 C   0  0  0  0  0  0  0  0  0  0  0  0
    0.8643   -1.0428   -0.9432 C   0  0  0  0  0  3  0  0  0  0  0  0
    0.8643    0.5982   -0.1783 S   0  0  0  0  0  0  0  0  0  0  0  0
    2.4049    1.3122   -0.8069 C   0  0  0  0  0  0  0  0  0  0  0  0
    3.6658    0.5533   -0.4277 C   0  0  0  0  0  0  0  0  0  0  0  0
    1.7873   -0.6193   -2.8623 H   0  0  0  0  0  0  0  0  0  0  0  0
    0.7817   -2.0640   -2.8416 H   0  0  0  0  0  0  0  0  0  0  0  0
    0.0286   -0.4604   -2.8523 H   0  0  0  0  0  0  0  0  0  0  0  0
   -0.2292   -1.5995   -0.4856 H   0  0  0  0  0  0  0  0  0  0  0  0
    1.7005   -1.6255   -0.5531 H   0  0  0  0  0  0  0  0  0  0  0  0
    2.3337    1.4344   -1.8889 H   0  0  0  0  0  0  0  0  0  0  0  0
    2.4200    2.3153   -0.3776 H   0  0  0  0  0  0  0  0  0  0  0  0
    3.6870   -0.4385   -0.8824 H   0  0  0  0  0  0  0  0  0  0  0  0
    3.7365    0.4313    0.6537 H   0  0  0  0  0  0  0  0  0  0  0  0
    4.5505    1.0917   -0.7746 H   0  0  0  0  0  0  0  0  0  0  0  0
  1  2  1  0
  1  6  1  0
  1  7  1  0
  1 23  1  0
  2  3  1  0
  2  8  1  0
  2  9  1  0
  3  4  1  0
  4  5  1  0
  4 10  1  0
  4 11  1  0
  5 12  1  0
  5 13  1  0
  5 14  1  0
 15 16  1  0
 15 20  1  0
 15 21  1  0
 15 22  1  0
 16 17  1  0
 16 24  1  0
 17 18  1  0
 18 19  1  0
 18 25  1  0
 18 26  1  0
 19 27  1  0
 19 28  1  0
 19 29  1  0
M  RAD  1  16   2
M  END
>  <reaction>  (10) 
rmg_rxn_62

>  <mol_properties>  (10) 
{"0": {"label": "*3", "atom_type": "Cs"}, "1": {"label": "*4", "atom_type": "Cs"}, "15": {"label": "*1", "atom_type": "Cs"}, "16": {"label": "*0", "atom_type": "S2s"}, "22": {"label": "*2", "atom_type": "H0"}}

>  <type>  (10) 
unop_6

>  <geom_source>  (10) 
Heuristics

$$$$

     RDKit          3D

 29 27  0  0  0  0  0  0  0  0999 V2000
   -1.6224   -1.8804   -0.4020 C   0  0  0  0  0  0  0  0  0  0  0  0
   -2.4122   -0.9030    0.4526 C   0  0  0  0  0  0  0  0  0  0  0  0
   -1.4930    0.5630    0.9858 S   0  0  0  0  0  0  0  0  0  0  0  0
   -0.1414   -0.1630    1.9473 C   0  0  0  0  0  0  0  0  0  0  0  0
   -0.5774   -0.9796    3.1526 C   0  0  0  0  0  0  0  0  0  0  0  0
   -0.8041   -2.3325    0.1610 H   0  0  0  0  0  0  0  0  0  0  0  0
   -2.2692   -2.6901   -0.7471 H   0  0  0  0  0  0  0  0  0  0  0  0
   -2.8371   -1.4025    1.3249 H   0  0  0  0  0  0  0  0  0  0  0  0
   -3.2499   -0.4922   -0.1133 H   0  0  0  0  0  0  0  0  0  0  0  0
    0.4981   -0.7520    1.2878 H   0  0  0  0  0  0  0  0  0  0  0  0
    0.4448    0.7012    2.2641 H   0  0  0  0  0  0  0  0  0  0  0  0
   -1.1307   -1.8709    2.8521 H   0  0  0  0  0  0  0  0  0  0  0  0
    0.2945   -1.3112    3.7207 H   0  0  0  0  0  0  0  0  0  0  0  0
   -1.2166   -0.3907    3.8113 H   0  0  0  0  0  0  0  0  0  0  0  0
    0.5638   -0.7675   -2.8365 C   0  0  0  0  0  0  0  0  0  0  0  0
    0.5638   -0.7675   -1.3168 C   0  0  0  0  0  3  0  0  0  0  0  0
    0.5638    0.8736   -0.5519 S   0  0  0  0  0  0  0  0  0  0  0  0
    2.1044    1.5875   -1.1805 C   0  0  0  0  0  0  0  0  0  0  0  0
    3.3653    0.8287   -0.8013 C   0  0  0  0  0  0  0  0  0  0  0  0
    1.4868   -0.3439   -3.2360 H   0  0  0  0  0  0  0  0  0  0  0  0
    0.4813   -1.7887   -3.2152 H   0  0  0  0  0  0  0  0  0  0  0  0
   -0.2719   -0.1850   -3.2259 H   0  0  0  0  0  0  0  0  0  0  0  0
   -0.5296   -1.3241   -0.8593 H   0  0  0  0  0  0  0  0  0  0  0  0
    1.4000   -1.3501   -0.9268 H   0  0  0  0  0  0  0  0  0  0  0  0
    2.0332    1.7097   -2.2626 H   0  0  0  0  0  0  0  0  0  0  0  0
    2.1195    2.5907   -0.7512 H   0  0  0  0  0  0  0  0  0  0  0  0
    3.3865   -0.1632   -1.2560 H   0  0  0  0  0  0  0  0  0  0  0  0
    3.4360    0.7066    0.2801 H   0  0  0  0  0  0  0  0  0  0  0  0
    4.2501    1.3671   -1.1482 H   0  0  0  0  0  0  0  0  0  0  0  0
  1  2  1  0
  1  6  1  0
  1  7  1  0
  1 23  1  0
  2  3  1  0
  2  8  1  0
  2  9  1  0
  3  4  1  0
  4  5  1  0
  4 10  1  0
  4 11  1  0
  5 12  1  0
  5 13  1  0
  5 14  1  0
 15 16  1  0
 15 20  1  0
 15 21  1  0
 15 22  1  0
 16 17  1  0
 16 24  1  0
 17 18  1  0
 18 19  1  0
 18 25  1  0
 18 26  1  0
 19 27  1  0
 19 28  1  0
 19 29  1  0
M  RAD  1  16   2
M  END
>  <reaction>  (11) 
rmg_rxn_62

>  <mol_properties>  (11) 
{"0": {"label": "*3", "atom_type": "Cs"}, "1": {"label": "*4", "atom_type": "Cs"}, "15": {"label": "*1", "atom_type": "Cs"}, "16": {"label": "*0", "atom_type": "S2s"}, "22": {"label": "*2", "atom_type": "H0"}}

>  <type>  (11) 
unop_7

>  <geom_source>  (11) 
Heuristics

$$$$

     RDKit          3D

 29 27  0  0  0  0  0  0  0  0999 V2000
   -0.9964   -0.2319    0.7029 C   0  0  0  0  0  0  0  0  0  0  0  0
   -0.8056   -1.7276    0.8925 C   0  0  0  0  0  0  0  0  0  0  0  0
   -1.3378   -2.7497   -0.5040 S   0  0  0  0  0  0  0  0  0  0  0  0
   -3.1001   -2.3505   -0.6191 C   0  0  0  0  0  0  0  0  0  0  0  0
   -3.9159   -2.6830    0.6192 C   0  0  0  0  0  0  0  0  0  0  0  0
   -2.0536    0.0304    0.6349 H   0  0  0  0  0  0  0  0  0  0  0  0
   -0.5775    0.3139    1.5512 H   0  0  0  0  0  0  0  0  0  0  0  0
   -1.2988   -2.0714    1.8032 H   0  0  0  0  0  0  0  0  0  0  0  0
    0.2539   -1.9662    0.9996 H   0  0  0  0  0  0  0  0  0  0  0  0
   -3.2177   -1.3009   -0.8935 H   0  0  0  0  0  0  0  0  0  0  0  0
   -3.4441   -2.9386   -1.4716 H   0  0  0  0  0  0  0  0  0  0  0  0
   -3.6127   -2.0741    1.4726 H   0  0  0  0  0  0  0  0  0  0  0  0
   -4.9754   -2.4886    0.4381 H   0  0  0  0  0  0  0  0  0  0  0  0
   -3.7981   -3.7320    0.8932 H   0  0  0  0  0  0  0  0  0  0  0  0
    1.1898    0.8810   -1.7316 C   0  0  0  0  0  0  0  0  0  0  0  0
    1.1898    0.8810   -0.2119 C   0  0  0  0  0  3  0  0  0  0  0  0
    1.1898    2.5221    0.5530 S   0  0  0  0  0  0  0  0  0  0  0  0
    2.7303    3.2361   -0.0756 C   0  0  0  0  0  0  0  0  0  0  0  0
    3.9913    2.4772    0.3036 C   0  0  0  0  0  0  0  0  0  0  0  0
    2.1128    1.3046   -2.1311 H   0  0  0  0  0  0  0  0  0  0  0  0
    1.1072   -0.1401   -2.1103 H   0  0  0  0  0  0  0  0  0  0  0  0
    0.3540    1.4635   -2.1211 H   0  0  0  0  0  0  0  0  0  0  0  0
    0.0963    0.3244    0.2456 H   0  0  0  0  0  0  0  0  0  0  0  0
    2.0260    0.2984    0.1781 H   0  0  0  0  0  0  0  0  0  0  0  0
    2.6592    3.3583   -1.1577 H   0  0  0  0  0  0  0  0  0  0  0  0
    2.7454    4.2392    0.3537 H   0  0  0  0  0  0  0  0  0  0  0  0
    4.0125    1.4854   -0.1511 H   0  0  0  0  0  0  0  0  0  0  0  0
    4.0619    2.3552    1.3850 H   0  0  0  0  0  0  0  0  0  0  0  0
    4.8760    3.0156   -0.0433 H   0  0  0  0  0  0  0  0  0  0  0  0
  1  2  1  0
  1  6  1  0
  1  7  1  0
  1 23  1  0
  2  3  1  0
  2  8  1  0
  2  9  1  0
  3  4  1  0
  4  5  1  0
  4 10  1  0
  4 11  1  0
  5 12  1  0
  5 13  1  0
  5 14  1  0
 15 16  1  0
 15 20  1  0
 15 21  1  0
 15 22  1  0
 16 17  1  0
 16 24  1  0
 17 18  1  0
 18 19  1  0
 18 25  1  0
 18 26  1  0
 19 27  1  0
 19 28  1  0
 19 29  1  0
M  RAD  1  16   2
M  END
>  <reaction>  (12) 
rmg_rxn_62

>  <mol_properties>  (12) 
{"0": {"label": "*3", "atom_type": "Cs"}, "1": {"label": "*4", "atom_type": "Cs"}, "15": {"label": "*1", "atom_type": "Cs"}, "16": {"label": "*0", "atom_type": "S2s"}, "22": {"label": "*2", "atom_type": "H0"}}

>  <type>  (12) 
unop_8

>  <geom_source>  (12) 
Heuristics

$$$$

     RDKit          3D

 29 27  0  0  0  0  0  0  0  0999 V2000
   -0.8329   -1.9712    0.7780 C   0  0  0  0  0  0  0  0  0  0  0  0
   -1.9908   -1.7642   -0.1843 C   0  0  0  0  0  0  0  0  0  0  0  0
   -2.0187   -0.1544   -1.0124 S   0  0  0  0  0  0  0  0  0  0  0  0
   -2.1494    0.9908    0.3839 C   0  0  0  0  0  0  0  0  0  0  0  0
   -3.3915    0.8174    1.2423 C   0  0  0  0  0  0  0  0  0  0  0  0
   -0.8953   -1.2921    1.6299 H   0  0  0  0  0  0  0  0  0  0  0  0
   -0.8441   -2.9906    1.1702 H   0  0  0  0  0  0  0  0  0  0  0  0
   -2.9469   -1.9332    0.3139 H   0  0  0  0  0  0  0  0  0  0  0  0
   -1.9348   -2.4784   -1.0074 H   0  0  0  0  0  0  0  0  0  0  0  0
   -1.2443    0.9289    0.9905 H   0  0  0  0  0  0  0  0  0  0  0  0
   -2.1456    1.9753   -0.0868 H   0  0  0  0  0  0  0  0  0  0  0  0
   -3.3921   -0.1466    1.7538 H   0  0  0  0  0  0  0  0  0  0  0  0
   -3.4338    1.5948    2.0084 H   0  0  0  0  0  0  0  0  0  0  0  0
   -4.2957    0.8792    0.6358 H   0  0  0  0  0  0  0  0  0  0  0  0
    1.3533   -0.8583   -1.6565 C   0  0  0  0  0  0  0  0  0  0  0  0
    1.3533   -0.8583   -0.1368 C   0  0  0  0  0  3  0  0  0  0  0  0
    1.3533    0.7828    0.6281 S   0  0  0  0  0  0  0  0  0  0  0  0
    2.8939    1.4967   -0.0005 C   0  0  0  0  0  0  0  0  0  0  0  0
    4.1548    0.7378    0.3787 C   0  0  0  0  0  0  0  0  0  0  0  0
    2.2763   -0.4348   -2.0559 H   0  0  0  0  0  0  0  0  0  0  0  0
    1.2707   -1.8795   -2.0352 H   0  0  0  0  0  0  0  0  0  0  0  0
    0.5175   -0.2759   -2.0459 H   0  0  0  0  0  0  0  0  0  0  0  0
    0.2598   -1.4150    0.3208 H   0  0  0  0  0  0  0  0  0  0  0  0
    2.1895   -1.4410    0.2533 H   0  0  0  0  0  0  0  0  0  0  0  0
    2.8227    1.6189   -1.0825 H   0  0  0  0  0  0  0  0  0  0  0  0
    2.9089    2.4998    0.4288 H   0  0  0  0  0  0  0  0  0  0  0  0
    4.1760   -0.2540   -0.0760 H   0  0  0  0  0  0  0  0  0  0  0  0
    4.2254    0.6158    1.4601 H   0  0  0  0  0  0  0  0  0  0  0  0
    5.0395    1.2762    0.0318 H   0  0  0  0  0  0  0  0  0  0  0  0
  1  2  1  0
  1  6  1  0
  1  7  1  0
  1 23  1  0
  2  3  1  0
  2  8  1  0
  2  9  1  0
  3  4  1  0
  4  5  1  0
  4 10  1  0
  4 11  1  0
  5 12  1  0
  5 13  1  0
  5 14  1  0
 15 16  1  0
 15 20  1  0
 15 21  1  0
 15 22  1  0
 16 17  1  0
 16 24  1  0
 17 18  1  0
 18 19  1  0
 18 25  1  0
 18 26  1  0
 19 27  1  0
 19 28  1  0
 19 29  1  0
M  RAD  1  16   2
M  END
>  <reaction>  (13) 
rmg_rxn_62

>  <mol_properties>  (13) 
{"0": {"label": "*3", "atom_type": "Cs"}, "1": {"label": "*4", "atom_type": "Cs"}, "15": {"label": "*1", "atom_type": "Cs"}, "16": {"label": "*0", "atom_type": "S2s"}, "22": {"label": "*2", "atom_type": "H0"}}

>  <type>  (13) 
unop_9

>  <geom_source>  (13) 
Heuristics

$$$$

     RDKit          3D

 29 27  0  0  0  0  0  0  0  0999 V2000
   -0.7991   -0.5479    1.0019 C   0  0  0  0  0  0  0  0  0  0  0  0
   -0.9155   -1.9867    0.5265 C   0  0  0  0  0  0  0  0  0  0  0  0
   -1.7096   -2.1972   -1.0870 S   0  0  0  0  0  0  0  0  0  0  0  0
   -3.3536   -1.4959   -0.7975 C   0  0  0  0  0  0  0  0  0  0  0  0
   -4.1655   -2.1883    0.2846 C   0  0  0  0  0  0  0  0  0  0  0  0
   -1.7804   -0.1074    1.1860 H   0  0  0  0  0  0  0  0  0  0  0  0
   -0.2389   -0.5027    1.9385 H   0  0  0  0  0  0  0  0  0  0  0  0
   -1.4290   -2.6019    1.2672 H   0  0  0  0  0  0  0  0  0  0  0  0
    0.0748   -2.4235    0.3872 H   0  0  0  0  0  0  0  0  0  0  0  0
   -3.2621   -0.4278   -0.5932 H   0  0  0  0  0  0  0  0  0  0  0  0
   -3.8495   -1.5894   -1.7650 H   0  0  0  0  0  0  0  0  0  0  0  0
   -3.7051   -2.0699    1.2669 H   0  0  0  0  0  0  0  0  0  0  0  0
   -5.1683   -1.7586    0.3389 H   0  0  0  0  0  0  0  0  0  0  0  0
   -4.2566   -3.2556    0.0801 H   0  0  0  0  0  0  0  0  0  0  0  0
    1.3871    0.5650   -1.4326 C   0  0  0  0  0  0  0  0  0  0  0  0
    1.3871    0.5650    0.0871 C   0  0  0  0  0  3  0  0  0  0  0  0
    1.3871    2.2061    0.8520 S   0  0  0  0  0  0  0  0  0  0  0  0
    2.9277    2.9200    0.2234 C   0  0  0  0  0  0  0  0  0  0  0  0
    4.1886    2.1612    0.6026 C   0  0  0  0  0  0  0  0  0  0  0  0
    2.3101    0.9886   -1.8320 H   0  0  0  0  0  0  0  0  0  0  0  0
    1.3046   -0.4562   -1.8113 H   0  0  0  0  0  0  0  0  0  0  0  0
    0.5514    1.1475   -1.8220 H   0  0  0  0  0  0  0  0  0  0  0  0
    0.2937    0.0084    0.5447 H   0  0  0  0  0  0  0  0  0  0  0  0
    2.2233   -0.0176    0.4772 H   0  0  0  0  0  0  0  0  0  0  0  0
    2.8566    3.0422   -0.8586 H   0  0  0  0  0  0  0  0  0  0  0  0
    2.9428    3.9232    0.6527 H   0  0  0  0  0  0  0  0  0  0  0  0
    4.2098    1.1693    0.1480 H   0  0  0  0  0  0  0  0  0  0  0  0
    4.2593    2.0391    1.6840 H   0  0  0  0  0  0  0  0  0  0  0  0
    5.0734    2.6996    0.2557 H   0  0  0  0  0  0  0  0  0  0  0  0
  1  2  1  0
  1  6  1  0
  1  7  1  0
  1 23  1  0
  2  3  1  0
  2  8  1  0
  2  9  1  0
  3  4  1  0
  4  5  1  0
  4 10  1  0
  4 11  1  0
  5 12  1  0
  5 13  1  0
  5 14  1  0
 15 16  1  0
 15 20  1  0
 15 21  1  0
 15 22  1  0
 16 17  1  0
 16 24  1  0
 17 18  1  0
 18 19  1  0
 18 25  1  0
 18 26  1  0
 19 27  1  0
 19 28  1  0
 19 29  1  0
M  RAD  1  16   2
M  END
>  <reaction>  (14) 
rmg_rxn_62

>  <mol_properties>  (14) 
{"0": {"label": "*3", "atom_type": "Cs"}, "1": {"label": "*4", "atom_type": "Cs"}, "15": {"label": "*1", "atom_type": "Cs"}, "16": {"label": "*0", "atom_type": "S2s"}, "22": {"label": "*2", "atom_type": "H0"}}

>  <type>  (14) 
unop_10

>  <geom_source>  (14) 
Heuristics

$$$$

     RDKit          3D

 29 27  0  0  0  0  0  0  0  0999 V2000
   -1.8743   -1.3080   -0.5927 C   0  0  0  0  0  0  0  0  0  0  0  0
   -2.2666   -0.7113    0.7488 C   0  0  0  0  0  0  0  0  0  0  0  0
   -0.8948   -0.0273    1.7122 S   0  0  0  0  0  0  0  0  0  0  0  0
    0.1619   -1.4775    1.9542 C   0  0  0  0  0  0  0  0  0  0  0  0
   -0.4884   -2.6276    2.7052 C   0  0  0  0  0  0  0  0  0  0  0  0
   -1.2394   -2.1868   -0.4686 H   0  0  0  0  0  0  0  0  0  0  0  0
   -2.7645   -1.6220   -1.1423 H   0  0  0  0  0  0  0  0  0  0  0  0
   -2.8096   -1.4381    1.3552 H   0  0  0  0  0  0  0  0  0  0  0  0
   -2.9338    0.1405    0.6067 H   0  0  0  0  0  0  0  0  0  0  0  0
    0.5483   -1.8105    0.9896 H   0  0  0  0  0  0  0  0  0  0  0  0
    1.0125   -1.0878    2.5160 H   0  0  0  0  0  0  0  0  0  0  0  0
   -1.3166   -3.0569    2.1389 H   0  0  0  0  0  0  0  0  0  0  0  0
    0.2375   -3.4249    2.8792 H   0  0  0  0  0  0  0  0  0  0  0  0
   -0.8746   -2.2943    3.6692 H   0  0  0  0  0  0  0  0  0  0  0  0
    0.3119   -0.1951   -3.0273 C   0  0  0  0  0  0  0  0  0  0  0  0
    0.3119   -0.1951   -1.5075 C   0  0  0  0  0  3  0  0  0  0  0  0
    0.3119    1.4460   -0.7426 S   0  0  0  0  0  0  0  0  0  0  0  0
    1.8524    2.1599   -1.3712 C   0  0  0  0  0  0  0  0  0  0  0  0
    3.1134    1.4010   -0.9920 C   0  0  0  0  0  0  0  0  0  0  0  0
    1.2349    0.2285   -3.4267 H   0  0  0  0  0  0  0  0  0  0  0  0
    0.2293   -1.2163   -3.4059 H   0  0  0  0  0  0  0  0  0  0  0  0
   -0.5239    0.3874   -3.4167 H   0  0  0  0  0  0  0  0  0  0  0  0
   -0.7816   -0.7517   -1.0500 H   0  0  0  0  0  0  0  0  0  0  0  0
    1.1481   -0.7778   -1.1175 H   0  0  0  0  0  0  0  0  0  0  0  0
    1.7813    2.2821   -2.4533 H   0  0  0  0  0  0  0  0  0  0  0  0
    1.8675    3.1631   -0.9419 H   0  0  0  0  0  0  0  0  0  0  0  0
    3.1346    0.4092   -1.4467 H   0  0  0  0  0  0  0  0  0  0  0  0
    3.1840    1.2790    0.0894 H   0  0  0  0  0  0  0  0  0  0  0  0
    3.9981    1.9394   -1.3389 H   0  0  0  0  0  0  0  0  0  0  0  0
  1  2  1  0
  1  6  1  0
  1  7  1  0
  1 23  1  0
  2  3  1  0
  2  8  1  0
  2  9  1  0
  3  4  1  0
  4  5  1  0
  4 10  1  0
  4 11  1  0
  5 12  1  0
  5 13  1  0
  5 14  1  0
 15 16  1  0
 15 20  1  0
 15 21  1  0
 15 22  1  0
 16 17  1  0
 16 24  1  0
 17 18  1  0
 18 19  1  0
 18 25  1  0
 18 26  1  0
 19 27  1  0
 19 28  1  0
 19 29  1  0
M  RAD  1  16   2
M  END
>  <reaction>  (15) 
rmg_rxn_62

>  <mol_properties>  (15) 
{"0": {"label": "*3", "atom_type": "Cs"}, "1": {"label": "*4", "atom_type": "Cs"}, "15": {"label": "*1", "atom_type": "Cs"}, "16": {"label": "*0", "atom_type": "S2s"}, "22": {"label": "*2", "atom_type": "H0"}}

>  <type>  (15) 
unop_11

>  <geom_source>  (15) 
Heuristics

$$$$

     RDKit          3D

 29 27  0  0  0  0  0  0  0  0999 V2000
   -0.6838   -1.5642    1.0507 C   0  0  0  0  0  0  0  0  0  0  0  0
   -1.5790   -2.0198   -0.0898 C   0  0  0  0  0  0  0  0  0  0  0  0
   -2.0127   -0.7299   -1.2840 S   0  0  0  0  0  0  0  0  0  0  0  0
   -2.8801    0.4743   -0.2467 C   0  0  0  0  0  0  0  0  0  0  0  0
   -4.1301   -0.0516    0.4392 C   0  0  0  0  0  0  0  0  0  0  0  0
   -1.1901   -0.8397    1.6909 H   0  0  0  0  0  0  0  0  0  0  0  0
   -0.4045   -2.4150    1.6760 H   0  0  0  0  0  0  0  0  0  0  0  0
   -2.4904   -2.4836    0.2911 H   0  0  0  0  0  0  0  0  0  0  0  0
   -1.0720   -2.7734   -0.6947 H   0  0  0  0  0  0  0  0  0  0  0  0
   -2.1840    0.8955    0.4806 H   0  0  0  0  0  0  0  0  0  0  0  0
   -3.1349    1.2777   -0.9398 H   0  0  0  0  0  0  0  0  0  0  0  0
   -3.8896   -0.8286    1.1668 H   0  0  0  0  0  0  0  0  0  0  0  0
   -4.6352    0.7546    0.9758 H   0  0  0  0  0  0  0  0  0  0  0  0
   -4.8254   -0.4726   -0.2879 H   0  0  0  0  0  0  0  0  0  0  0  0
    1.5023   -0.4512   -1.3838 C   0  0  0  0  0  0  0  0  0  0  0  0
    1.5023   -0.4512    0.1359 C   0  0  0  0  0  3  0  0  0  0  0  0
    1.5023    1.1898    0.9008 S   0  0  0  0  0  0  0  0  0  0  0  0
    3.0429    1.9038    0.2722 C   0  0  0  0  0  0  0  0  0  0  0  0
    4.3039    1.1449    0.6514 C   0  0  0  0  0  0  0  0  0  0  0  0
    2.4254   -0.0277   -1.7833 H   0  0  0  0  0  0  0  0  0  0  0  0
    1.4198   -1.4724   -1.7625 H   0  0  0  0  0  0  0  0  0  0  0  0
    0.6666    0.1312   -1.7732 H   0  0  0  0  0  0  0  0  0  0  0  0
    0.4089   -1.0079    0.5934 H   0  0  0  0  0  0  0  0  0  0  0  0
    2.3385   -1.0339    0.5259 H   0  0  0  0  0  0  0  0  0  0  0  0
    2.9718    2.0260   -0.8099 H   0  0  0  0  0  0  0  0  0  0  0  0
    3.0580    2.9069    0.7015 H   0  0  0  0  0  0  0  0  0  0  0  0
    4.3251    0.1531    0.1967 H   0  0  0  0  0  0  0  0  0  0  0  0
    4.3745    1.0229    1.7328 H   0  0  0  0  0  0  0  0  0  0  0  0
    5.1886    1.6833    0.3045 H   0  0  0  0  0  0  0  0  0  0  0  0
  1  2  1  0
  1  6  1  0
  1  7  1  0
  1 23  1  0
  2  3  1  0
  2  8  1  0
  2  9  1  0
  3  4  1  0
  4  5  1  0
  4 10  1  0
  4 11  1  0
  5 12  1  0
  5 13  1  0
  5 14  1  0
 15 16  1  0
 15 20  1  0
 15 21  1  0
 15 22  1  0
 16 17  1  0
 16 24  1  0
 17 18  1  0
 18 19  1  0
 18 25  1  0
 18 26  1  0
 19 27  1  0
 19 28  1  0
 19 29  1  0
M  RAD  1  16   2
M  END
>  <reaction>  (16) 
rmg_rxn_62

>  <mol_properties>  (16) 
{"0": {"label": "*3", "atom_type": "Cs"}, "1": {"label": "*4", "atom_type": "Cs"}, "15": {"label": "*1", "atom_type": "Cs"}, "16": {"label": "*0", "atom_type": "S2s"}, "22": {"label": "*2", "atom_type": "H0"}}

>  <type>  (16) 
unop_12

>  <geom_source>  (16) 
Heuristics

$$$$

     RDKit          3D

 29 27  0  0  0  0  0  0  0  0999 V2000
    2.2421   -0.2314   -0.5606 S   0  0  0  0  0  0  0  0  0  0  0  0
   -2.7255   -0.7881    0.7940 S   0  0  0  0  0  0  0  0  0  0  0  0
    3.6546    0.5177    0.3178 C   0  0  0  0  0  0  0  0  0  0  0  0
    1.0393    1.0207   -0.0025 C   0  0  0  0  0  0  0  0  0  0  0  0
   -3.0654    0.6038   -0.3322 C   0  0  0  0  0  0  0  0  0  0  0  0
    4.9121   -0.3022    0.0724 C   0  0  0  0  0  0  0  0  0  0  0  0
   -0.3352    0.7048   -0.5699 C   0  0  0  0  0  0  0  0  0  0  0  0
   -4.0410    1.5725    0.3186 C   0  0  0  0  0  0  0  0  0  0  0  0
   -0.8248   -2.7191    0.3433 C   0  0  0  0  0  0  0  0  0  0  0  0
   -1.5581   -1.5858   -0.3535 C   0  0  0  0  0  3  0  0  0  0  0  0
    3.4442    0.5466    1.4082 H   0  0  0  0  0  0  0  0  0  0  0  0
    3.8164    1.5537   -0.0494 H   0  0  0  0  0  0  0  0  0  0  0  0
    1.3568    2.0270   -0.3500 H   0  0  0  0  0  0  0  0  0  0  0  0
    0.9843    1.0176    1.1068 H   0  0  0  0  0  0  0  0  0  0  0  0
   -3.5060    0.2201   -1.2773 H   0  0  0  0  0  0  0  0  0  0  0  0
   -2.1180    1.1367   -0.5622 H   0  0  0  0  0  0  0  0  0  0  0  0
    4.7715   -1.3389    0.4454 H   0  0  0  0  0  0  0  0  0  0  0  0
    5.1441   -0.3309   -1.0134 H   0  0  0  0  0  0  0  0  0  0  0  0
    5.7682    0.1582    0.6091 H   0  0  0  0  0  0  0  0  0  0  0  0
   -1.0662    1.4654   -0.2236 H   0  0  0  0  0  0  0  0  0  0  0  0
   -0.3033    0.7175   -1.6801 H   0  0  0  0  0  0  0  0  0  0  0  0
   -0.7140   -0.4373   -0.1741 H   0  0  0  0  0  0  0  0  0  0  0  0
   -4.2438    2.4180   -0.3721 H   0  0  0  0  0  0  0  0  0  0  0  0
   -3.6099    1.9749    1.2598 H   0  0  0  0  0  0  0  0  0  0  0  0
   -4.9987    1.0571    0.5442 H   0  0  0  0  0  0  0  0  0  0  0  0
   -0.1106   -3.1866   -0.3659 H   0  0  0  0  0  0  0  0  0  0  0  0
   -1.5471   -3.4886    0.6895 H   0  0  0  0  0  0  0  0  0  0  0  0
   -0.2581   -2.3247    1.2128 H   0  0  0  0  0  0  0  0  0  0  0  0
   -2.1078   -1.9790   -1.2351 H   0  0  0  0  0  0  0  0  0  0  0  0
  1  3  1  0
  1  4  1  0
  2 10  1  0
  2  5  1  0
  3  6  1  0
  3 11  1  0
  3 12  1  0
  4  7  1  0
  4 13  1  0
  4 14  1  0
  5  8  1  0
  5 15  1  0
  5 16  1  0
  6 17  1  0
  6 18  1  0
  6 19  1  0
  7 20  1  0
  7 21  1  0
  7 22  1  0
  8 23  1  0
  8 24  1  0
  8 25  1  0
  9 10  1  0
  9 26  1  0
  9 27  1  0
  9 28  1  0
 10 29  1  0
M  RAD  1  10   2
M  END
>  <reaction>  (17) 
rmg_rxn_62

>  <mol_properties>  (17) 
{"0": {"label": "*3", "atom_type": "Cs"}, "1": {"label": "*4", "atom_type": "Cs"}, "15": {"label": "*1", "atom_type": "Cs"}, "16": {"label": "*0", "atom_type": "S2s"}, "22": {"label": "*2", "atom_type": "H0"}}

>  <type>  (17) 
unop_13

>  <geom_source>  (17) 
AutoTST

$$$$

     RDKit          3D

 29 27  0  0  0  0  0  0  0  0999 V2000
   -0.6704   -1.0341    1.1364 C   0  0  0  0  0  0  0  0  0  0  0  0
   -1.1844   -2.0922    0.1741 C   0  0  0  0  0  0  0  0  0  0  0  0
   -1.9423   -1.4471   -1.3384 S   0  0  0  0  0  0  0  0  0  0  0  0
   -3.3189   -0.4676   -0.6875 C   0  0  0  0  0  0  0  0  0  0  0  0
   -4.3392   -1.2518    0.1208 C   0  0  0  0  0  0  0  0  0  0  0  0
   -1.4863   -0.4344    1.5434 H   0  0  0  0  0  0  0  0  0  0  0  0
   -0.1582   -1.5049    1.9785 H   0  0  0  0  0  0  0  0  0  0  0  0
   -1.8837   -2.7658    0.6722 H   0  0  0  0  0  0  0  0  0  0  0  0
   -0.3607   -2.7081   -0.1908 H   0  0  0  0  0  0  0  0  0  0  0  0
   -2.9268    0.3721   -0.1113 H   0  0  0  0  0  0  0  0  0  0  0  0
   -3.7826   -0.0463   -1.5810 H   0  0  0  0  0  0  0  0  0  0  0  0
   -3.9026   -1.6466    1.0398 H   0  0  0  0  0  0  0  0  0  0  0  0
   -5.1736   -0.6069    0.4053 H   0  0  0  0  0  0  0  0  0  0  0  0
   -4.7307   -2.0909   -0.4553 H   0  0  0  0  0  0  0  0  0  0  0  0
    1.5157    0.0788   -1.2981 C   0  0  0  0  0  0  0  0  0  0  0  0
    1.5157    0.0788    0.2216 C   0  0  0  0  0  3  0  0  0  0  0  0
    1.5157    1.7198    0.9865 S   0  0  0  0  0  0  0  0  0  0  0  0
    3.0563    2.4338    0.3579 C   0  0  0  0  0  0  0  0  0  0  0  0
    4.3173    1.6749    0.7371 C   0  0  0  0  0  0  0  0  0  0  0  0
    2.4388    0.5023   -1.6975 H   0  0  0  0  0  0  0  0  0  0  0  0
    1.4332   -0.9424   -1.6768 H   0  0  0  0  0  0  0  0  0  0  0  0
    0.6800    0.6612   -1.6875 H   0  0  0  0  0  0  0  0  0  0  0  0
    0.4223   -0.4779    0.6792 H   0  0  0  0  0  0  0  0  0  0  0  0
    2.3519   -0.5039    0.6117 H   0  0  0  0  0  0  0  0  0  0  0  0
    2.9852    2.5560   -0.7241 H   0  0  0  0  0  0  0  0  0  0  0  0
    3.0714    3.4369    0.7872 H   0  0  0  0  0  0  0  0  0  0  0  0
    4.3385    0.6831    0.2824 H   0  0  0  0  0  0  0  0  0  0  0  0
    4.3879    1.5529    1.8185 H   0  0  0  0  0  0  0  0  0  0  0  0
    5.2020    2.2133    0.3902 H   0  0  0  0  0  0  0  0  0  0  0  0
  1  2  1  0
  1  6  1  0
  1  7  1  0
  1 23  1  0
  2  3  1  0
  2  8  1  0
  2  9  1  0
  3  4  1  0
  4  5  1  0
  4 10  1  0
  4 11  1  0
  5 12  1  0
  5 13  1  0
  5 14  1  0
 15 16  1  0
 15 20  1  0
 15 21  1  0
 15 22  1  0
 16 17  1  0
 16 24  1  0
 17 18  1  0
 18 19  1  0
 18 25  1  0
 18 26  1  0
 19 27  1  0
 19 28  1  0
 19 29  1  0
M  RAD  1  16   2
M  END
>  <reaction>  (18) 
rmg_rxn_62

>  <mol_properties>  (18) 
{"0": {"label": "*3", "atom_type": "Cs"}, "1": {"label": "*4", "atom_type": "Cs"}, "15": {"label": "*1", "atom_type": "Cs"}, "16": {"label": "*0", "atom_type": "S2s"}, "22": {"label": "*2", "atom_type": "H0"}}

>  <type>  (18) 
unop_14

>  <geom_source>  (18) 
gaussian_log

$$$$
