
     RDKit          3D

  6  5  0  0  0  0  0  0  0  0999 V2000
   -0.4901    0.0045    0.0014 C   0  0  0  0  0  0  0  0  0  0  0  0
    0.9645   -0.0089   -0.0027 C   0  0  0  0  0  0  0  0  0  0  0  0
    2.1108   -0.0195   -0.0059 N   0  0  0  0  0  0  0  0  0  0  0  0
   -0.8700   -0.6407   -0.7900 H   0  0  0  0  0  0  0  0  0  0  0  0
   -0.8625   -0.3540    0.9604 H   0  0  0  0  0  0  0  0  0  0  0  0
   -0.8530    1.0185   -0.1631 H   0  0  0  0  0  0  0  0  0  0  0  0
  1  2  1  0
  1  4  1  0
  1  5  1  0
  1  6  1  0
  2  3  3  0
M  END
>  <reaction>  (1) 
rmg_rxn_307

>  <mol_properties>  (1) 
{"0": {"label": "donator", "atom_type": "Cs"}, "3": {"label": "d_hydrogen", "atom_type": "H0"}}

>  <type>  (1) 
r1h

$$$$

     RDKit          3D

 11 10  0  0  0  0  0  0  0  0999 V2000
   -1.2230    0.3768   -0.0849 C   0  0  0  0  0  0  0  0  0  0  0  0
   -0.0734   -0.5533    0.2746 C   0  0  0  0  0  0  0  0  0  0  0  0
   -0.0853   -1.8426   -0.5372 C   0  0  0  0  0  0  0  0  0  0  0  0
    0.0319   -1.6944   -1.8815 O   0  0  0  0  0  1  0  0  0  0  0  0
   -2.1874   -0.0885    0.1341 H   0  0  0  0  0  0  0  0  0  0  0  0
   -1.1670    1.3099    0.4765 H   0  0  0  0  0  0  0  0  0  0  0  0
   -1.2014    0.6189   -1.1483 H   0  0  0  0  0  0  0  0  0  0  0  0
    0.8834   -0.0518    0.1071 H   0  0  0  0  0  0  0  0  0  0  0  0
   -0.1104   -0.8149    1.3362 H   0  0  0  0  0  0  0  0  0  0  0  0
    0.6767   -2.5604   -0.1861 H   0  0  0  0  0  0  0  0  0  0  0  0
   -1.0401   -2.3871   -0.3877 H   0  0  0  0  0  0  0  0  0  0  0  0
  1  2  1  0
  1  5  1  0
  1  6  1  0
  1  7  1  0
  2  3  1  0
  2  8  1  0
  2  9  1  0
  3  4  1  0
  3 10  1  0
  3 11  1  0
M  RAD  1   4   2
M  END
>  <reaction>  (2) 
rmg_rxn_307

>  <mol_properties>  (2) 
{"3": {"label": "acceptor", "atom_type": "O2s"}}

>  <type>  (2) 
r2

$$$$

     RDKit          3D

 12 11  0  0  0  0  0  0  0  0999 V2000
   -1.4643   -0.2505   -0.5284 C   0  0  0  0  0  0  0  0  0  0  0  0
   -0.3946    0.4302    0.3143 C   0  0  0  0  0  0  0  0  0  0  0  0
   -0.5959    0.2382    1.8102 C   0  0  0  0  0  0  0  0  0  0  0  0
   -0.5633   -1.1190    2.2092 O   0  0  0  0  0  0  0  0  0  0  0  0
   -2.4511    0.1644   -0.3109 H   0  0  0  0  0  0  0  0  0  0  0  0
   -1.5019   -1.3198   -0.3181 H   0  0  0  0  0  0  0  0  0  0  0  0
   -1.2720   -0.1182   -1.5941 H   0  0  0  0  0  0  0  0  0  0  0  0
    0.5965    0.0515    0.0385 H   0  0  0  0  0  0  0  0  0  0  0  0
   -0.3776    1.5047    0.1078 H   0  0  0  0  0  0  0  0  0  0  0  0
   -1.5821    0.6048    2.1034 H   0  0  0  0  0  0  0  0  0  0  0  0
    0.1495    0.8220    2.3649 H   0  0  0  0  0  0  0  0  0  0  0  0
    0.3017   -1.4750    1.9997 H   0  0  0  0  0  0  0  0  0  0  0  0
  1  2  1  0
  1  5  1  0
  1  6  1  0
  1  7  1  0
  2  3  1  0
  2  8  1  0
  2  9  1  0
  3  4  1  0
  3 10  1  0
  3 11  1  0
  4 12  1  0
M  END
>  <reaction>  (3) 
rmg_rxn_307

>  <mol_properties>  (3) 
{"0": {"label": "a_hydrogen", "atom_type": "H0"}, "4": {"label": "acceptor", "atom_type": "O2s"}}

>  <type>  (3) 
r2h

$$$$

     RDKit          3D

 17 15  0  0  0  0  0  0  0  0999 V2000
    1.0624    1.6339    0.5973 C   0  0  0  0  0  0  0  0  0  0  0  0
    0.6453    1.9633   -0.7256 C   0  0  0  0  0  0  0  0  0  0  0  0
    0.2648    2.1870   -1.7888 N   0  0  0  0  0  2  0  0  0  0  0  0
    0.1880    0.8139    1.0670 H   0  0  0  0  0  0  0  0  0  0  0  0
    1.9984    1.0837    0.6371 H   0  0  0  0  0  0  0  0  0  0  0  0
    1.0159    2.4674    1.2929 H   0  0  0  0  0  0  0  0  0  0  0  0
   -0.0709   -2.6953    0.4040 C   0  0  0  0  0  0  0  0  0  0  0  0
   -0.4197   -1.5045   -0.4772 C   0  0  0  0  0  0  0  0  0  0  0  0
   -1.2800   -0.4680    0.2288 C   0  0  0  0  0  0  0  0  0  0  0  0
   -0.7086    0.0602    1.3867 O   0  0  0  0  0  0  0  0  0  0  0  0
   -0.9725   -3.2288    0.7144 H   0  0  0  0  0  0  0  0  0  0  0  0
    0.5701   -3.4017   -0.1246 H   0  0  0  0  0  0  0  0  0  0  0  0
    0.4501   -2.3718    1.3059 H   0  0  0  0  0  0  0  0  0  0  0  0
    0.4933   -1.0165   -0.8325 H   0  0  0  0  0  0  0  0  0  0  0  0
   -0.9544   -1.8346   -1.3720 H   0  0  0  0  0  0  0  0  0  0  0  0
   -1.5715    0.3353   -0.4620 H   0  0  0  0  0  0  0  0  0  0  0  0
   -2.2194   -0.9221    0.5770 H   0  0  0  0  0  0  0  0  0  0  0  0
  1  2  2  0
  1  5  1  0
  1  6  1  0
  2  3  2  0
  4 10  1  0
  7  8  1  0
  7 11  1  0
  7 12  1  0
  7 13  1  0
  8  9  1  0
  8 14  1  0
  8 15  1  0
  9 10  1  0
  9 16  1  0
  9 17  1  0
M  RAD  1   3   2
M  END
>  <reaction>  (4) 
rmg_rxn_307

>  <mol_properties>  (4) 
{"0": {"label": "*3", "atom_type": "Cd"}, "1": {"label": "*4", "atom_type": "Cdd"}, "3": {"label": "*2", "atom_type": "H0"}, "8": {"label": "*0", "atom_type": "Cs"}, "9": {"label": "*1", "atom_type": "O2s"}}

>  <type>  (4) 
ts

$$$$

     RDKit          3D

 17 15  0  0  0  0  0  0  0  0999 V2000
    0.3846    1.0258   -0.5797 C   0  0  0  0  0  0  0  0  0  0  0  0
    0.3846    1.0258   -2.0343 C   0  0  0  0  0  0  0  0  0  0  0  0
    0.3846    1.0258   -3.1808 N   0  0  0  0  0  2  0  0  0  0  0  0
   -0.5684    0.2500   -0.1336 H   0  0  0  0  0  0  0  0  0  0  0  0
    1.3416    0.6613   -0.2080 H   0  0  0  0  0  0  0  0  0  0  0  0
    0.2218    2.0369   -0.2080 H   0  0  0  0  0  0  0  0  0  0  0  0
    0.6479    0.1264    2.3862 C   0  0  0  0  0  0  0  0  0  0  0  0
    0.5871   -1.1190    1.5127 C   0  0  0  0  0  0  0  0  0  0  0  0
   -0.8205   -1.4547    1.0423 C   0  0  0  0  0  0  0  0  0  0  0  0
   -1.4069   -0.4326    0.2589 O   0  0  0  0  0  0  0  0  0  0  0  0
    0.0604   -0.0101    3.2971 H   0  0  0  0  0  0  0  0  0  0  0  0
    1.6737    0.3542    2.6796 H   0  0  0  0  0  0  0  0  0  0  0  0
    0.2433    0.9907    1.8587 H   0  0  0  0  0  0  0  0  0  0  0  0
    1.2332   -0.9933    0.6361 H   0  0  0  0  0  0  0  0  0  0  0  0
    0.9793   -1.9828    2.0580 H   0  0  0  0  0  0  0  0  0  0  0  0
   -0.8140   -2.4056    0.4948 H   0  0  0  0  0  0  0  0  0  0  0  0
   -1.4814   -1.5779    1.9031 H   0  0  0  0  0  0  0  0  0  0  0  0
  1  2  2  0
  1  5  1  0
  1  6  1  0
  2  3  2  0
  4 10  1  0
  7  8  1  0
  7 11  1  0
  7 12  1  0
  7 13  1  0
  8  9  1  0
  8 14  1  0
  8 15  1  0
  9 10  1  0
  9 16  1  0
  9 17  1  0
M  RAD  1   3   2
M  END
>  <reaction>  (5) 
rmg_rxn_307

>  <mol_properties>  (5) 
{"0": {"label": "*3", "atom_type": "Cd"}, "1": {"label": "*4", "atom_type": "Cdd"}, "3": {"label": "*2", "atom_type": "H0"}, "8": {"label": "*0", "atom_type": "Cs"}, "9": {"label": "*1", "atom_type": "O2s"}}

>  <type>  (5) 
unop_1

>  <geom_source>  (5) 
Heuristics

$$$$

     RDKit          3D

 17 15  0  0  0  0  0  0  0  0999 V2000
    0.6398    1.5721    0.4499 C   0  0  0  0  0  0  0  0  0  0  0  0
    0.6398    1.5721   -1.0047 C   0  0  0  0  0  0  0  0  0  0  0  0
    0.6398    1.5721   -2.1512 N   0  0  0  0  0  2  0  0  0  0  0  0
   -0.3132    0.7963    0.8960 H   0  0  0  0  0  0  0  0  0  0  0  0
    1.5968    1.2076    0.8216 H   0  0  0  0  0  0  0  0  0  0  0  0
    0.4770    2.5832    0.8216 H   0  0  0  0  0  0  0  0  0  0  0  0
    0.8383   -2.0993    0.8380 C   0  0  0  0  0  0  0  0  0  0  0  0
   -0.0681   -1.4879   -0.2215 C   0  0  0  0  0  0  0  0  0  0  0  0
   -1.3609   -0.9223    0.3477 C   0  0  0  0  0  0  0  0  0  0  0  0
   -1.1517    0.1137    1.2885 O   0  0  0  0  0  0  0  0  0  0  0  0
    0.3448   -2.9393    1.3322 H   0  0  0  0  0  0  0  0  0  0  0  0
    1.7673   -2.4666    0.3996 H   0  0  0  0  0  0  0  0  0  0  0  0
    1.0888   -1.3658    1.6049 H   0  0  0  0  0  0  0  0  0  0  0  0
    0.4633   -0.6906   -0.7540 H   0  0  0  0  0  0  0  0  0  0  0  0
   -0.3268   -2.2371   -0.9758 H   0  0  0  0  0  0  0  0  0  0  0  0
   -2.0087   -0.5782   -0.4684 H   0  0  0  0  0  0  0  0  0  0  0  0
   -1.9025   -1.7020    0.8881 H   0  0  0  0  0  0  0  0  0  0  0  0
  1  2  2  0
  1  5  1  0
  1  6  1  0
  2  3  2  0
  4 10  1  0
  7  8  1  0
  7 11  1  0
  7 12  1  0
  7 13  1  0
  8  9  1  0
  8 14  1  0
  8 15  1  0
  9 10  1  0
  9 16  1  0
  9 17  1  0
M  RAD  1   3   2
M  END
>  <reaction>  (6) 
rmg_rxn_307

>  <mol_properties>  (6) 
{"0": {"label": "*3", "atom_type": "Cd"}, "1": {"label": "*4", "atom_type": "Cdd"}, "3": {"label": "*2", "atom_type": "H0"}, "8": {"label": "*0", "atom_type": "Cs"}, "9": {"label": "*1", "atom_type": "O2s"}}

>  <type>  (6) 
unop_2

>  <geom_source>  (6) 
Heuristics

$$$$

     RDKit          3D

 17 15  0  0  0  0  0  0  0  0999 V2000
    0.7100    0.6272   -0.7920 C   0  0  0  0  0  0  0  0  0  0  0  0
    0.7100    0.6272   -2.2467 C   0  0  0  0  0  0  0  0  0  0  0  0
    0.7100    0.6272   -3.3931 N   0  0  0  0  0  2  0  0  0  0  0  0
   -0.2430   -0.1486   -0.3459 H   0  0  0  0  0  0  0  0  0  0  0  0
    1.6671    0.2627   -0.4203 H   0  0  0  0  0  0  0  0  0  0  0  0
    0.5473    1.6383   -0.4203 H   0  0  0  0  0  0  0  0  0  0  0  0
   -0.3949    0.8982    2.4126 C   0  0  0  0  0  0  0  0  0  0  0  0
    0.2459   -0.4403    2.0725 C   0  0  0  0  0  0  0  0  0  0  0  0
   -0.6753   -1.3663    1.2919 C   0  0  0  0  0  0  0  0  0  0  0  0
   -1.0815   -0.8313    0.0466 O   0  0  0  0  0  0  0  0  0  0  0  0
   -1.2731    0.7573    3.0469 H   0  0  0  0  0  0  0  0  0  0  0  0
    0.3026    1.5469    2.9445 H   0  0  0  0  0  0  0  0  0  0  0  0
   -0.7198    1.4139    1.5085 H   0  0  0  0  0  0  0  0  0  0  0  0
    1.1620   -0.2801    1.4922 H   0  0  0  0  0  0  0  0  0  0  0  0
    0.5521   -0.9562    2.9876 H   0  0  0  0  0  0  0  0  0  0  0  0
   -0.1936   -2.3425    1.1545 H   0  0  0  0  0  0  0  0  0  0  0  0
   -1.5977   -1.5332    1.8525 H   0  0  0  0  0  0  0  0  0  0  0  0
  1  2  2  0
  1  5  1  0
  1  6  1  0
  2  3  2  0
  4 10  1  0
  7  8  1  0
  7 11  1  0
  7 12  1  0
  7 13  1  0
  8  9  1  0
  8 14  1  0
  8 15  1  0
  9 10  1  0
  9 16  1  0
  9 17  1  0
M  RAD  1   3   2
M  END
>  <reaction>  (7) 
rmg_rxn_307

>  <mol_properties>  (7) 
{"0": {"label": "*3", "atom_type": "Cd"}, "1": {"label": "*4", "atom_type": "Cdd"}, "3": {"label": "*2", "atom_type": "H0"}, "8": {"label": "*0", "atom_type": "Cs"}, "9": {"label": "*1", "atom_type": "O2s"}}

>  <type>  (7) 
unop_3

>  <geom_source>  (7) 
Heuristics

$$$$

     RDKit          3D

 17 15  0  0  0  0  0  0  0  0999 V2000
    1.7745    1.0748    0.5767 C   0  0  0  0  0  0  0  0  0  0  0  0
    1.7745    1.0748   -0.8779 C   0  0  0  0  0  0  0  0  0  0  0  0
    1.7745    1.0748   -2.0243 N   0  0  0  0  0  2  0  0  0  0  0  0
    0.8215    0.2990    1.0228 H   0  0  0  0  0  0  0  0  0  0  0  0
    2.7316    0.7103    0.9484 H   0  0  0  0  0  0  0  0  0  0  0  0
    1.6118    2.0859    0.9484 H   0  0  0  0  0  0  0  0  0  0  0  0
   -1.9590   -2.0904   -0.1262 C   0  0  0  0  0  0  0  0  0  0  0  0
   -1.7357   -0.5973   -0.3224 C   0  0  0  0  0  0  0  0  0  0  0  0
   -1.2542    0.1087    0.9365 C   0  0  0  0  0  0  0  0  0  0  0  0
   -0.0170   -0.3837    1.4153 O   0  0  0  0  0  0  0  0  0  0  0  0
   -2.7323   -2.2713    0.6239 H   0  0  0  0  0  0  0  0  0  0  0  0
   -2.2738   -2.5687   -1.0548 H   0  0  0  0  0  0  0  0  0  0  0  0
   -1.0458   -2.5777    0.2168 H   0  0  0  0  0  0  0  0  0  0  0  0
   -1.0064   -0.4299   -1.1236 H   0  0  0  0  0  0  0  0  0  0  0  0
   -2.6624   -0.1163   -0.6497 H   0  0  0  0  0  0  0  0  0  0  0  0
   -1.1972    1.1900    0.7592 H   0  0  0  0  0  0  0  0  0  0  0  0
   -1.9662   -0.0520    1.7491 H   0  0  0  0  0  0  0  0  0  0  0  0
  1  2  2  0
  1  5  1  0
  1  6  1  0
  2  3  2  0
  4 10  1  0
  7  8  1  0
  7 11  1  0
  7 12  1  0
  7 13  1  0
  8  9  1  0
  8 14  1  0
  8 15  1  0
  9 10  1  0
  9 16  1  0
  9 17  1  0
M  RAD  1   3   2
M  END
>  <reaction>  (8) 
rmg_rxn_307

>  <mol_properties>  (8) 
{"0": {"label": "*3", "atom_type": "Cd"}, "1": {"label": "*4", "atom_type": "Cdd"}, "3": {"label": "*2", "atom_type": "H0"}, "8": {"label": "*0", "atom_type": "Cs"}, "9": {"label": "*1", "atom_type": "O2s"}}

>  <type>  (8) 
unop_4

>  <geom_source>  (8) 
Heuristics

$$$$

     RDKit          3D

 17 15  0  0  0  0  0  0  0  0999 V2000
    1.3236    0.3652   -0.7020 C   0  0  0  0  0  0  0  0  0  0  0  0
    1.3236    0.3652   -2.1566 C   0  0  0  0  0  0  0  0  0  0  0  0
    1.3236    0.3652   -3.3031 N   0  0  0  0  0  2  0  0  0  0  0  0
    0.3705   -0.4106   -0.2559 H   0  0  0  0  0  0  0  0  0  0  0  0
    2.2806    0.0007   -0.3303 H   0  0  0  0  0  0  0  0  0  0  0  0
    1.1608    1.3763   -0.3303 H   0  0  0  0  0  0  0  0  0  0  0  0
   -2.0529    0.8830    1.7624 C   0  0  0  0  0  0  0  0  0  0  0  0
   -0.6907    0.3137    2.1342 C   0  0  0  0  0  0  0  0  0  0  0  0
   -0.4380   -1.0689    1.5511 C   0  0  0  0  0  0  0  0  0  0  0  0
   -0.4680   -1.0933    0.1366 O   0  0  0  0  0  0  0  0  0  0  0  0
   -2.8557    0.2514    2.1498 H   0  0  0  0  0  0  0  0  0  0  0  0
   -2.1877    1.8854    2.1711 H   0  0  0  0  0  0  0  0  0  0  0  0
   -2.1686    0.9370    0.6795 H   0  0  0  0  0  0  0  0  0  0  0  0
    0.1027    0.9909    1.7973 H   0  0  0  0  0  0  0  0  0  0  0  0
   -0.5927    0.2480    3.2220 H   0  0  0  0  0  0  0  0  0  0  0  0
    0.5159   -1.4624    1.9242 H   0  0  0  0  0  0  0  0  0  0  0  0
   -1.2231   -1.7574    1.8713 H   0  0  0  0  0  0  0  0  0  0  0  0
  1  2  2  0
  1  5  1  0
  1  6  1  0
  2  3  2  0
  4 10  1  0
  7  8  1  0
  7 11  1  0
  7 12  1  0
  7 13  1  0
  8  9  1  0
  8 14  1  0
  8 15  1  0
  9 10  1  0
  9 16  1  0
  9 17  1  0
M  RAD  1   3   2
M  END
>  <reaction>  (9) 
rmg_rxn_307

>  <mol_properties>  (9) 
{"0": {"label": "*3", "atom_type": "Cd"}, "1": {"label": "*4", "atom_type": "Cdd"}, "3": {"label": "*2", "atom_type": "H0"}, "8": {"label": "*0", "atom_type": "Cs"}, "9": {"label": "*1", "atom_type": "O2s"}}

>  <type>  (9) 
unop_5

>  <geom_source>  (9) 
Heuristics

$$$$

     RDKit          3D

 17 15  0  0  0  0  0  0  0  0999 V2000
    1.9444    0.8073    0.2913 C   0  0  0  0  0  0  0  0  0  0  0  0
    1.9444    0.8073   -1.1633 C   0  0  0  0  0  0  0  0  0  0  0  0
    1.9444    0.8073   -2.3097 N   0  0  0  0  0  2  0  0  0  0  0  0
    0.9914    0.0315    0.7374 H   0  0  0  0  0  0  0  0  0  0  0  0
    2.9015    0.4428    0.6630 H   0  0  0  0  0  0  0  0  0  0  0  0
    1.7817    1.8184    0.6630 H   0  0  0  0  0  0  0  0  0  0  0  0
   -2.5369   -1.5553    0.1258 C   0  0  0  0  0  0  0  0  0  0  0  0
   -2.0471   -0.1150    0.1854 C   0  0  0  0  0  0  0  0  0  0  0  0
   -1.0202    0.1254    1.2822 C   0  0  0  0  0  0  0  0  0  0  0  0
    0.1529   -0.6511    1.1299 O   0  0  0  0  0  0  0  0  0  0  0  0
   -3.0341   -1.8343    1.0577 H   0  0  0  0  0  0  0  0  0  0  0  0
   -3.2475   -1.6980   -0.6895 H   0  0  0  0  0  0  0  0  0  0  0  0
   -1.7037   -2.2428   -0.0226 H   0  0  0  0  0  0  0  0  0  0  0  0
   -1.6103    0.1721   -0.7781 H   0  0  0  0  0  0  0  0  0  0  0  0
   -2.8889    0.5640    0.3519 H   0  0  0  0  0  0  0  0  0  0  0  0
   -0.7728    1.1931    1.3341 H   0  0  0  0  0  0  0  0  0  0  0  0
   -1.4358   -0.1610    2.2509 H   0  0  0  0  0  0  0  0  0  0  0  0
  1  2  2  0
  1  5  1  0
  1  6  1  0
  2  3  2  0
  4 10  1  0
  7  8  1  0
  7 11  1  0
  7 12  1  0
  7 13  1  0
  8  9  1  0
  8 14  1  0
  8 15  1  0
  9 10  1  0
  9 16  1  0
  9 17  1  0
M  RAD  1   3   2
M  END
>  <reaction>  (10) 
rmg_rxn_307

>  <mol_properties>  (10) 
{"0": {"label": "*3", "atom_type": "Cd"}, "1": {"label": "*4", "atom_type": "Cdd"}, "3": {"label": "*2", "atom_type": "H0"}, "8": {"label": "*0", "atom_type": "Cs"}, "9": {"label": "*1", "atom_type": "O2s"}}

>  <type>  (10) 
unop_6

>  <geom_source>  (10) 
Heuristics

$$$$

     RDKit          3D

 17 15  0  0  0  0  0  0  0  0999 V2000
    1.9453    0.6132   -0.0522 C   0  0  0  0  0  0  0  0  0  0  0  0
    1.9453    0.6132   -1.5068 C   0  0  0  0  0  0  0  0  0  0  0  0
    1.9453    0.6132   -2.6532 N   0  0  0  0  0  2  0  0  0  0  0  0
    0.9923   -0.1626    0.3939 H   0  0  0  0  0  0  0  0  0  0  0  0
    2.9024    0.2487    0.3195 H   0  0  0  0  0  0  0  0  0  0  0  0
    1.7826    1.6243    0.3196 H   0  0  0  0  0  0  0  0  0  0  0  0
   -2.8388   -0.9859    0.4945 C   0  0  0  0  0  0  0  0  0  0  0  0
   -2.0377    0.2550    0.8639 C   0  0  0  0  0  0  0  0  0  0  0  0
   -0.7280   -0.0636    1.5698 C   0  0  0  0  0  0  0  0  0  0  0  0
    0.1538   -0.8452    0.7864 O   0  0  0  0  0  0  0  0  0  0  0  0
   -3.1183   -1.5472    1.3890 H   0  0  0  0  0  0  0  0  0  0  0  0
   -3.7549   -0.7219   -0.0359 H   0  0  0  0  0  0  0  0  0  0  0  0
   -2.2541   -1.6499   -0.1428 H   0  0  0  0  0  0  0  0  0  0  0  0
   -1.8216    0.8426   -0.0359 H   0  0  0  0  0  0  0  0  0  0  0  0
   -2.6277    0.9052    1.5170 H   0  0  0  0  0  0  0  0  0  0  0  0
   -0.2405    0.8662    1.8889 H   0  0  0  0  0  0  0  0  0  0  0  0
   -0.9229   -0.6550    2.4673 H   0  0  0  0  0  0  0  0  0  0  0  0
  1  2  2  0
  1  5  1  0
  1  6  1  0
  2  3  2  0
  4 10  1  0
  7  8  1  0
  7 11  1  0
  7 12  1  0
  7 13  1  0
  8  9  1  0
  8 14  1  0
  8 15  1  0
  9 10  1  0
  9 16  1  0
  9 17  1  0
M  RAD  1   3   2
M  END
>  <reaction>  (11) 
rmg_rxn_307

>  <mol_properties>  (11) 
{"0": {"label": "*3", "atom_type": "Cd"}, "1": {"label": "*4", "atom_type": "Cdd"}, "3": {"label": "*2", "atom_type": "H0"}, "8": {"label": "*0", "atom_type": "Cs"}, "9": {"label": "*1", "atom_type": "O2s"}}

>  <type>  (11) 
unop_7

>  <geom_source>  (11) 
Heuristics

$$$$

     RDKit          3D

 17 15  0  0  0  0  0  0  0  0999 V2000
    0.3046    1.3270   -0.2327 C   0  0  0  0  0  0  0  0  0  0  0  0
    0.3046    1.3270   -1.6874 C   0  0  0  0  0  0  0  0  0  0  0  0
    0.3046    1.3270   -2.8338 N   0  0  0  0  0  2  0  0  0  0  0  0
   -0.6484    0.5512    0.2134 H   0  0  0  0  0  0  0  0  0  0  0  0
    1.2616    0.9625    0.1390 H   0  0  0  0  0  0  0  0  0  0  0  0
    0.1418    2.3381    0.1390 H   0  0  0  0  0  0  0  0  0  0  0  0
    1.1195   -0.6869    2.0052 C   0  0  0  0  0  0  0  0  0  0  0  0
    0.5549   -1.4730    0.8300 C   0  0  0  0  0  0  0  0  0  0  0  0
   -0.9646   -1.4376    0.7581 C   0  0  0  0  0  0  0  0  0  0  0  0
   -1.4870   -0.1314    0.6059 O   0  0  0  0  0  0  0  0  0  0  0  0
    0.7726   -1.1045    2.9532 H   0  0  0  0  0  0  0  0  0  0  0  0
    2.2102   -0.7086    2.0081 H   0  0  0  0  0  0  0  0  0  0  0  0
    0.7985    0.3544    1.9658 H   0  0  0  0  0  0  0  0  0  0  0  0
    0.9633   -1.0854   -0.1105 H   0  0  0  0  0  0  0  0  0  0  0  0
    0.8690   -2.5195    0.8893 H   0  0  0  0  0  0  0  0  0  0  0  0
   -1.3151   -2.0907   -0.0509 H   0  0  0  0  0  0  0  0  0  0  0  0
   -1.3905   -1.8152    1.6904 H   0  0  0  0  0  0  0  0  0  0  0  0
  1  2  2  0
  1  5  1  0
  1  6  1  0
  2  3  2  0
  4 10  1  0
  7  8  1  0
  7 11  1  0
  7 12  1  0
  7 13  1  0
  8  9  1  0
  8 14  1  0
  8 15  1  0
  9 10  1  0
  9 16  1  0
  9 17  1  0
M  RAD  1   3   2
M  END
>  <reaction>  (12) 
rmg_rxn_307

>  <mol_properties>  (12) 
{"0": {"label": "*3", "atom_type": "Cd"}, "1": {"label": "*4", "atom_type": "Cdd"}, "3": {"label": "*2", "atom_type": "H0"}, "8": {"label": "*0", "atom_type": "Cs"}, "9": {"label": "*1", "atom_type": "O2s"}}

>  <type>  (12) 
unop_8

>  <geom_source>  (12) 
Heuristics

$$$$

     RDKit          3D

 17 15  0  0  0  0  0  0  0  0999 V2000
    1.4369    1.3542    0.7168 C   0  0  0  0  0  0  0  0  0  0  0  0
    1.4369    1.3542   -0.7378 C   0  0  0  0  0  0  0  0  0  0  0  0
    1.4369    1.3542   -1.8843 N   0  0  0  0  0  2  0  0  0  0  0  0
    0.4839    0.5783    1.1629 H   0  0  0  0  0  0  0  0  0  0  0  0
    2.3940    0.9897    1.0885 H   0  0  0  0  0  0  0  0  0  0  0  0
    1.2742    2.3652    1.0885 H   0  0  0  0  0  0  0  0  0  0  0  0
   -1.0526   -2.5062   -0.1191 C   0  0  0  0  0  0  0  0  0  0  0  0
   -1.1850   -1.0520   -0.5497 C   0  0  0  0  0  0  0  0  0  0  0  0
   -1.4115   -0.0990    0.6146 C   0  0  0  0  0  0  0  0  0  0  0  0
   -0.3546   -0.1043    1.5554 O   0  0  0  0  0  0  0  0  0  0  0  0
   -1.9680   -2.8514    0.3669 H   0  0  0  0  0  0  0  0  0  0  0  0
   -0.8611   -3.1561   -0.9742 H   0  0  0  0  0  0  0  0  0  0  0  0
   -0.2351   -2.6275    0.5922 H   0  0  0  0  0  0  0  0  0  0  0  0
   -0.2863   -0.7393   -1.0940 H   0  0  0  0  0  0  0  0  0  0  0  0
   -2.0187   -0.9394   -1.2495 H   0  0  0  0  0  0  0  0  0  0  0  0
   -1.5876    0.9161    0.2370 H   0  0  0  0  0  0  0  0  0  0  0  0
   -2.3009   -0.3984    1.1735 H   0  0  0  0  0  0  0  0  0  0  0  0
  1  2  2  0
  1  5  1  0
  1  6  1  0
  2  3  2  0
  4 10  1  0
  7  8  1  0
  7 11  1  0
  7 12  1  0
  7 13  1  0
  8  9  1  0
  8 14  1  0
  8 15  1  0
  9 10  1  0
  9 16  1  0
  9 17  1  0
M  RAD  1   3   2
M  END
>  <reaction>  (13) 
rmg_rxn_307

>  <mol_properties>  (13) 
{"0": {"label": "*3", "atom_type": "Cd"}, "1": {"label": "*4", "atom_type": "Cdd"}, "3": {"label": "*2", "atom_type": "H0"}, "8": {"label": "*0", "atom_type": "Cs"}, "9": {"label": "*1", "atom_type": "O2s"}}

>  <type>  (13) 
unop_9

>  <geom_source>  (13) 
Heuristics

$$$$

     RDKit          3D

 17 15  0  0  0  0  0  0  0  0999 V2000
    0.4001    1.5026    0.1347 C   0  0  0  0  0  0  0  0  0  0  0  0
    0.4001    1.5026   -1.3199 C   0  0  0  0  0  0  0  0  0  0  0  0
    0.4001    1.5026   -2.4664 N   0  0  0  0  0  2  0  0  0  0  0  0
   -0.5530    0.7267    0.5808 H   0  0  0  0  0  0  0  0  0  0  0  0
    1.3571    1.1380    0.5064 H   0  0  0  0  0  0  0  0  0  0  0  0
    0.2373    2.5136    0.5064 H   0  0  0  0  0  0  0  0  0  0  0  0
    1.1859   -1.4330    1.4588 C   0  0  0  0  0  0  0  0  0  0  0  0
    0.3081   -1.5575    0.2212 C   0  0  0  0  0  0  0  0  0  0  0  0
   -1.1603   -1.2672    0.4945 C   0  0  0  0  0  0  0  0  0  0  0  0
   -1.3915    0.0441    0.9733 O   0  0  0  0  0  0  0  0  0  0  0  0
    0.8831   -2.1531    2.2226 H   0  0  0  0  0  0  0  0  0  0  0  0
    2.2343   -1.6177    1.2204 H   0  0  0  0  0  0  0  0  0  0  0  0
    1.1046   -0.4364    1.8938 H   0  0  0  0  0  0  0  0  0  0  0  0
    0.6644   -0.8766   -0.5605 H   0  0  0  0  0  0  0  0  0  0  0  0
    0.3842   -2.5660   -0.1964 H   0  0  0  0  0  0  0  0  0  0  0  0
   -1.7529   -1.4588   -0.4089 H   0  0  0  0  0  0  0  0  0  0  0  0
   -1.5324   -1.9330    1.2764 H   0  0  0  0  0  0  0  0  0  0  0  0
  1  2  2  0
  1  5  1  0
  1  6  1  0
  2  3  2  0
  4 10  1  0
  7  8  1  0
  7 11  1  0
  7 12  1  0
  7 13  1  0
  8  9  1  0
  8 14  1  0
  8 15  1  0
  9 10  1  0
  9 16  1  0
  9 17  1  0
M  RAD  1   3   2
M  END
>  <reaction>  (14) 
rmg_rxn_307

>  <mol_properties>  (14) 
{"0": {"label": "*3", "atom_type": "Cd"}, "1": {"label": "*4", "atom_type": "Cdd"}, "3": {"label": "*2", "atom_type": "H0"}, "8": {"label": "*0", "atom_type": "Cs"}, "9": {"label": "*1", "atom_type": "O2s"}}

>  <type>  (14) 
unop_10

>  <geom_source>  (14) 
Heuristics

$$$$

     RDKit          3D

 17 15  0  0  0  0  0  0  0  0999 V2000
    1.7811    0.4651   -0.3875 C   0  0  0  0  0  0  0  0  0  0  0  0
    1.7811    0.4651   -1.8422 C   0  0  0  0  0  0  0  0  0  0  0  0
    1.7811    0.4651   -2.9886 N   0  0  0  0  0  2  0  0  0  0  0  0
    0.8281   -0.3107    0.0585 H   0  0  0  0  0  0  0  0  0  0  0  0
    2.7381    0.1006   -0.0159 H   0  0  0  0  0  0  0  0  0  0  0  0
    1.6183    1.4762   -0.0158 H   0  0  0  0  0  0  0  0  0  0  0  0
   -2.8687   -0.1996    0.9622 C   0  0  0  0  0  0  0  0  0  0  0  0
   -1.6393    0.4567    1.5751 C   0  0  0  0  0  0  0  0  0  0  0  0
   -0.4519   -0.4870    1.6964 C   0  0  0  0  0  0  0  0  0  0  0  0
   -0.0105   -0.9934    0.4511 O   0  0  0  0  0  0  0  0  0  0  0  0
   -3.2163   -1.0279    1.5840 H   0  0  0  0  0  0  0  0  0  0  0  0
   -3.6891    0.5125    0.8625 H   0  0  0  0  0  0  0  0  0  0  0  0
   -2.6424   -0.6010   -0.0261 H   0  0  0  0  0  0  0  0  0  0  0  0
   -1.3415    1.3258    0.9770 H   0  0  0  0  0  0  0  0  0  0  0  0
   -1.8733    0.8402    2.5728 H   0  0  0  0  0  0  0  0  0  0  0  0
    0.3701    0.0135    2.2234 H   0  0  0  0  0  0  0  0  0  0  0  0
   -0.7315   -1.3636    2.2850 H   0  0  0  0  0  0  0  0  0  0  0  0
  1  2  2  0
  1  5  1  0
  1  6  1  0
  2  3  2  0
  4 10  1  0
  7  8  1  0
  7 11  1  0
  7 12  1  0
  7 13  1  0
  8  9  1  0
  8 14  1  0
  8 15  1  0
  9 10  1  0
  9 16  1  0
  9 17  1  0
M  RAD  1   3   2
M  END
>  <reaction>  (15) 
rmg_rxn_307

>  <mol_properties>  (15) 
{"0": {"label": "*3", "atom_type": "Cd"}, "1": {"label": "*4", "atom_type": "Cdd"}, "3": {"label": "*2", "atom_type": "H0"}, "8": {"label": "*0", "atom_type": "Cs"}, "9": {"label": "*1", "atom_type": "O2s"}}

>  <type>  (15) 
unop_11

>  <geom_source>  (15) 
Heuristics

$$$$

     RDKit          3D

 17 15  0  0  0  0  0  0  0  0999 V2000
    1.0106    1.5349    0.6637 C   0  0  0  0  0  0  0  0  0  0  0  0
    1.0106    1.5349   -0.7909 C   0  0  0  0  0  0  0  0  0  0  0  0
    1.0106    1.5349   -1.9374 N   0  0  0  0  0  2  0  0  0  0  0  0
    0.0575    0.7591    1.1098 H   0  0  0  0  0  0  0  0  0  0  0  0
    1.9676    1.1704    1.0354 H   0  0  0  0  0  0  0  0  0  0  0  0
    0.8478    2.5460    1.0354 H   0  0  0  0  0  0  0  0  0  0  0  0
    0.0205   -2.5375    0.2433 C   0  0  0  0  0  0  0  0  0  0  0  0
   -0.5715   -1.3412   -0.4891 C   0  0  0  0  0  0  0  0  0  0  0  0
   -1.4617   -0.4776    0.3924 C   0  0  0  0  0  0  0  0  0  0  0  0
   -0.7810    0.0765    1.5023 O   0  0  0  0  0  0  0  0  0  0  0  0
   -0.7691   -3.2022    0.6012 H   0  0  0  0  0  0  0  0  0  0  0  0
    0.6760   -3.1160   -0.4092 H   0  0  0  0  0  0  0  0  0  0  0  0
    0.5987   -2.2150    1.1097 H   0  0  0  0  0  0  0  0  0  0  0  0
    0.2319   -0.7185   -0.8996 H   0  0  0  0  0  0  0  0  0  0  0  0
   -1.1633   -1.6775   -1.3458 H   0  0  0  0  0  0  0  0  0  0  0  0
   -1.9279    0.3129   -0.2090 H   0  0  0  0  0  0  0  0  0  0  0  0
   -2.2660   -1.0830    0.8162 H   0  0  0  0  0  0  0  0  0  0  0  0
  1  2  2  0
  1  5  1  0
  1  6  1  0
  2  3  2  0
  4 10  1  0
  7  8  1  0
  7 11  1  0
  7 12  1  0
  7 13  1  0
  8  9  1  0
  8 14  1  0
  8 15  1  0
  9 10  1  0
  9 16  1  0
  9 17  1  0
M  RAD  1   3   2
M  END
>  <reaction>  (16) 
rmg_rxn_307

>  <mol_properties>  (16) 
{"0": {"label": "*3", "atom_type": "Cd"}, "1": {"label": "*4", "atom_type": "Cdd"}, "3": {"label": "*2", "atom_type": "H0"}, "8": {"label": "*0", "atom_type": "Cs"}, "9": {"label": "*1", "atom_type": "O2s"}}

>  <type>  (16) 
unop_12

>  <geom_source>  (16) 
Heuristics

$$$$

     RDKit          3D

 17 15  0  0  0  0  0  0  0  0999 V2000
    0.4783   -0.4871   -1.0243 O   0  0  0  0  0  0  0  0  0  0  0  0
    3.8379    0.9709   -0.3968 N   0  0  0  0  0  2  0  0  0  0  0  0
   -1.8130    0.1606   -0.6443 C   0  0  0  0  0  0  0  0  0  0  0  0
   -0.4137    0.5910   -1.0899 C   0  0  0  0  0  0  0  0  0  0  0  0
   -1.8565   -0.2070    0.8372 C   0  0  0  0  0  0  0  0  0  0  0  0
    2.0844   -0.5905    0.7665 C   0  0  0  0  0  0  0  0  0  0  0  0
    3.0636    0.2813    0.1170 C   0  0  0  0  0  0  0  0  0  0  0  0
   -2.5209    0.9981   -0.8256 H   0  0  0  0  0  0  0  0  0  0  0  0
   -2.1461   -0.7094   -1.2509 H   0  0  0  0  0  0  0  0  0  0  0  0
   -0.0515    1.4427   -0.4713 H   0  0  0  0  0  0  0  0  0  0  0  0
   -0.4659    0.9394   -2.1429 H   0  0  0  0  0  0  0  0  0  0  0  0
   -1.5111    0.6469    1.4582 H   0  0  0  0  0  0  0  0  0  0  0  0
   -2.8991   -0.4565    1.1262 H   0  0  0  0  0  0  0  0  0  0  0  0
   -1.2160   -1.0917    1.0376 H   0  0  0  0  0  0  0  0  0  0  0  0
    2.3499   -1.6509    0.5769 H   0  0  0  0  0  0  0  0  0  0  0  0
    2.0855   -0.3988    1.8592 H   0  0  0  0  0  0  0  0  0  0  0  0
    0.9943   -0.4388    0.0673 H   0  0  0  0  0  0  0  0  0  0  0  0
  1  4  1  0
  1 17  1  0
  2  7  2  0
  3  5  1  0
  3  4  1  0
  3  8  1  0
  3  9  1  0
  4 10  1  0
  4 11  1  0
  5 12  1  0
  5 13  1  0
  5 14  1  0
  6  7  2  0
  6 15  1  0
  6 16  1  0
M  RAD  1   2   2
M  END
>  <reaction>  (17) 
rmg_rxn_307

>  <mol_properties>  (17) 
{"0": {"label": "*3", "atom_type": "Cd"}, "1": {"label": "*4", "atom_type": "Cdd"}, "3": {"label": "*2", "atom_type": "H0"}, "8": {"label": "*0", "atom_type": "Cs"}, "9": {"label": "*1", "atom_type": "O2s"}}

>  <type>  (17) 
unop_13

>  <geom_source>  (17) 
AutoTST

$$$$

     RDKit          3D

 17 15  0  0  0  0  0  0  0  0999 V2000
    0.6398    1.5721    0.4499 C   0  0  0  0  0  0  0  0  0  0  0  0
    0.6398    1.5721   -1.0047 C   0  0  0  0  0  0  0  0  0  0  0  0
    0.6398    1.5721   -2.1512 N   0  0  0  0  0  2  0  0  0  0  0  0
   -0.3132    0.7963    0.8960 H   0  0  0  0  0  0  0  0  0  0  0  0
    1.5968    1.2076    0.8216 H   0  0  0  0  0  0  0  0  0  0  0  0
    0.4770    2.5832    0.8216 H   0  0  0  0  0  0  0  0  0  0  0  0
    0.8383   -2.0993    0.8380 C   0  0  0  0  0  0  0  0  0  0  0  0
   -0.0681   -1.4878   -0.2215 C   0  0  0  0  0  0  0  0  0  0  0  0
   -1.3609   -0.9223    0.3477 C   0  0  0  0  0  0  0  0  0  0  0  0
   -1.1518    0.1137    1.2885 O   0  0  0  0  0  0  0  0  0  0  0  0
    0.3448   -2.9393    1.3322 H   0  0  0  0  0  0  0  0  0  0  0  0
    1.7673   -2.4666    0.3996 H   0  0  0  0  0  0  0  0  0  0  0  0
    1.0888   -1.3658    1.6049 H   0  0  0  0  0  0  0  0  0  0  0  0
    0.4633   -0.6906   -0.7540 H   0  0  0  0  0  0  0  0  0  0  0  0
   -0.3268   -2.2371   -0.9758 H   0  0  0  0  0  0  0  0  0  0  0  0
   -2.0087   -0.5782   -0.4684 H   0  0  0  0  0  0  0  0  0  0  0  0
   -1.9025   -1.7020    0.8881 H   0  0  0  0  0  0  0  0  0  0  0  0
  1  2  2  0
  1  5  1  0
  1  6  1  0
  2  3  2  0
  4 10  1  0
  7  8  1  0
  7 11  1  0
  7 12  1  0
  7 13  1  0
  8  9  1  0
  8 14  1  0
  8 15  1  0
  9 10  1  0
  9 16  1  0
  9 17  1  0
M  RAD  1   3   2
M  END
>  <reaction>  (18) 
rmg_rxn_307

>  <mol_properties>  (18) 
{"0": {"label": "*3", "atom_type": "Cd"}, "1": {"label": "*4", "atom_type": "Cdd"}, "3": {"label": "*2", "atom_type": "H0"}, "8": {"label": "*0", "atom_type": "Cs"}, "9": {"label": "*1", "atom_type": "O2s"}}

>  <type>  (18) 
unop_14

>  <geom_source>  (18) 
gaussian_log

$$$$
