
     RDKit          3D

  9  8  0  0  0  0  0  0  0  0999 V2000
   -1.0434   -0.0834    0.0221 C   0  0  0  0  0  0  0  0  0  0  0  0
    0.4680   -0.2131    0.0785 C   0  0  0  0  0  0  0  0  0  0  0  0
    0.9450   -1.3136   -0.7058 N   0  0  0  0  0  2  0  0  0  0  0  0
   -1.5170   -0.9919    0.3960 H   0  0  0  0  0  0  0  0  0  0  0  0
   -1.3864    0.7592    0.6249 H   0  0  0  0  0  0  0  0  0  0  0  0
   -1.3736    0.0696   -1.0061 H   0  0  0  0  0  0  0  0  0  0  0  0
    0.8045   -0.3309    1.1214 H   0  0  0  0  0  0  0  0  0  0  0  0
    0.9463    0.7186   -0.2648 H   0  0  0  0  0  0  0  0  0  0  0  0
    1.9638   -1.3321   -0.6157 H   0  0  0  0  0  0  0  0  0  0  0  0
  1  2  1  0
  1  4  1  0
  1  5  1  0
  1  6  1  0
  2  3  1  0
  2  7  1  0
  2  8  1  0
  3  9  1  0
M  RAD  1   3   2
M  END
>  <reaction>  (1) 
rmg_rxn_640

>  <mol_properties>  (1) 
{"2": {"label": "donator", "atom_type": "N3s"}, "8": {"label": "d_hydrogen", "atom_type": "H0"}}

>  <type>  (1) 
r1h

$$$$

     RDKit          3D

 14 13  0  0  0  0  0  0  0  0999 V2000
    2.6694    0.2813   -0.6046 C   0  0  0  0  0  3  0  0  0  0  0  0
    1.5626   -0.5075   -0.0103 C   0  0  0  0  0  0  0  0  0  0  0  0
    0.5522   -0.8487   -0.9278 O   0  0  0  0  0  0  0  0  0  0  0  0
    0.9505   -1.8204   -1.8682 C   0  0  0  0  0  0  0  0  0  0  0  0
   -0.2101   -2.1029   -2.7930 C   0  0  0  0  0  0  0  0  0  0  0  0
    2.4666    0.9443   -1.4355 H   0  0  0  0  0  0  0  0  0  0  0  0
    3.6339    0.3312   -0.1179 H   0  0  0  0  0  0  0  0  0  0  0  0
    1.0573    0.0741    0.7733 H   0  0  0  0  0  0  0  0  0  0  0  0
    1.9580   -1.4106    0.4809 H   0  0  0  0  0  0  0  0  0  0  0  0
    1.8195   -1.4649   -2.4379 H   0  0  0  0  0  0  0  0  0  0  0  0
    1.2587   -2.7372   -1.3440 H   0  0  0  0  0  0  0  0  0  0  0  0
   -0.5051   -1.1971   -3.3238 H   0  0  0  0  0  0  0  0  0  0  0  0
    0.0686   -2.8601   -3.5276 H   0  0  0  0  0  0  0  0  0  0  0  0
   -1.0699   -2.4661   -2.2289 H   0  0  0  0  0  0  0  0  0  0  0  0
  1  2  1  0
  1  6  1  0
  1  7  1  0
  2  3  1  0
  2  8  1  0
  2  9  1  0
  3  4  1  0
  4  5  1  0
  4 10  1  0
  4 11  1  0
  5 12  1  0
  5 13  1  0
  5 14  1  0
M  RAD  1   1   2
M  END
>  <reaction>  (2) 
rmg_rxn_640

>  <mol_properties>  (2) 
{"0": {"label": "acceptor", "atom_type": "Cs"}}

>  <type>  (2) 
r2

$$$$

     RDKit          3D

 15 14  0  0  0  0  0  0  0  0999 V2000
    2.4145    0.0817    0.4065 C   0  0  0  0  0  0  0  0  0  0  0  0
    1.1257   -0.2220   -0.3219 C   0  0  0  0  0  0  0  0  0  0  0  0
    1.0983   -1.5879   -0.6512 O   0  0  0  0  0  0  0  0  0  0  0  0
   -0.0685   -1.9694   -1.3352 C   0  0  0  0  0  0  0  0  0  0  0  0
    0.0024   -3.4478   -1.6403 C   0  0  0  0  0  0  0  0  0  0  0  0
    3.2736   -0.1534   -0.2229 H   0  0  0  0  0  0  0  0  0  0  0  0
    2.4581    1.1389    0.6728 H   0  0  0  0  0  0  0  0  0  0  0  0
    2.4855   -0.5095    1.3201 H   0  0  0  0  0  0  0  0  0  0  0  0
    0.2597    0.0294    0.3083 H   0  0  0  0  0  0  0  0  0  0  0  0
    1.0482    0.3858   -1.2356 H   0  0  0  0  0  0  0  0  0  0  0  0
   -0.9535   -1.7457   -0.7211 H   0  0  0  0  0  0  0  0  0  0  0  0
   -0.1650   -1.3894   -2.2650 H   0  0  0  0  0  0  0  0  0  0  0  0
    0.0831   -4.0247   -0.7183 H   0  0  0  0  0  0  0  0  0  0  0  0
   -0.8950   -3.7674   -2.1724 H   0  0  0  0  0  0  0  0  0  0  0  0
    0.8712   -3.6686   -2.2613 H   0  0  0  0  0  0  0  0  0  0  0  0
  1  2  1  0
  1  6  1  0
  1  7  1  0
  1  8  1  0
  2  3  1  0
  2  9  1  0
  2 10  1  0
  3  4  1  0
  4  5  1  0
  4 11  1  0
  4 12  1  0
  5 13  1  0
  5 14  1  0
  5 15  1  0
M  END
>  <reaction>  (3) 
rmg_rxn_640

>  <mol_properties>  (3) 
{"0": {"label": "a_hydrogen", "atom_type": "H0"}, "1": {"label": "acceptor", "atom_type": "Cs"}}

>  <type>  (3) 
r2h

$$$$

     RDKit          3D

 23 21  0  0  0  0  0  0  0  0999 V2000
   -0.7875   -0.1502   -3.3385 C   0  0  0  0  0  0  0  0  0  0  0  0
   -0.9553    0.3021   -1.8953 C   0  0  0  0  0  0  0  0  0  0  0  0
   -0.2299    1.5026   -1.6260 N   0  0  0  0  0  2  0  0  0  0  0  0
    0.2632   -0.3440   -3.5580 H   0  0  0  0  0  0  0  0  0  0  0  0
   -1.3525   -1.0658   -3.5227 H   0  0  0  0  0  0  0  0  0  0  0  0
   -1.1406    0.6180   -4.0274 H   0  0  0  0  0  0  0  0  0  0  0  0
   -0.6277   -0.4787   -1.1930 H   0  0  0  0  0  0  0  0  0  0  0  0
   -2.0208    0.4631   -1.6648 H   0  0  0  0  0  0  0  0  0  0  0  0
   -0.4055    1.7265   -0.4823 H   0  0  0  0  0  0  0  0  0  0  0  0
   -0.6277    1.8056    0.9379 C   0  0  0  0  0  3  0  0  0  0  0  0
    0.4720    0.9985    1.5423 C   0  0  0  0  0  0  0  0  0  0  0  0
    0.3056   -0.3521    1.1894 O   0  0  0  0  0  0  0  0  0  0  0  0
    1.3192   -1.1885    1.6920 C   0  0  0  0  0  0  0  0  0  0  0  0
    1.0568   -2.6027    1.2298 C   0  0  0  0  0  0  0  0  0  0  0  0
   -1.6264    1.3982    1.0732 H   0  0  0  0  0  0  0  0  0  0  0  0
   -0.5585    2.8765    1.1087 H   0  0  0  0  0  0  0  0  0  0  0  0
    0.4653    1.1004    2.6418 H   0  0  0  0  0  0  0  0  0  0  0  0
    1.4500    1.3650    1.1962 H   0  0  0  0  0  0  0  0  0  0  0  0
    2.2998   -0.8426    1.3354 H   0  0  0  0  0  0  0  0  0  0  0  0
    1.3351   -1.1380    2.7904 H   0  0  0  0  0  0  0  0  0  0  0  0
    1.0613   -2.6561    0.1404 H   0  0  0  0  0  0  0  0  0  0  0  0
    1.8274   -3.2741    1.6114 H   0  0  0  0  0  0  0  0  0  0  0  0
    0.0869   -2.9489    1.5885 H   0  0  0  0  0  0  0  0  0  0  0  0
  1  2  1  0
  1  4  1  0
  1  5  1  0
  1  6  1  0
  2  3  1  0
  2  7  1  0
  2  8  1  0
  3  9  1  0
 10 11  1  0
 10 15  1  0
 10 16  1  0
 11 12  1  0
 11 17  1  0
 11 18  1  0
 12 13  1  0
 13 14  1  0
 13 19  1  0
 13 20  1  0
 14 21  1  0
 14 22  1  0
 14 23  1  0
M  RAD  2   3   2  10   2
M  END
>  <reaction>  (4) 
rmg_rxn_640

>  <mol_properties>  (4) 
{"1": {"label": "*0", "atom_type": "Cs"}, "2": {"label": "*1", "atom_type": "N3s"}, "8": {"label": "*2", "atom_type": "H0"}, "9": {"label": "*3", "atom_type": "Cs"}, "10": {"label": "*4", "atom_type": "Cs"}}

>  <type>  (4) 
ts

$$$$

     RDKit          3D

 23 21  0  0  0  0  0  0  0  0999 V2000
   -1.4026   -0.8057   -3.8987 C   0  0  0  0  0  0  0  0  0  0  0  0
   -1.4026   -0.8057   -2.3807 C   0  0  0  0  0  0  0  0  0  0  0  0
   -1.4026    0.5218   -1.8410 N   0  0  0  0  0  2  0  0  0  0  0  0
   -0.5204   -0.2892   -4.2788 H   0  0  0  0  0  0  0  0  0  0  0  0
   -1.4026   -1.8246   -4.2898 H   0  0  0  0  0  0  0  0  0  0  0  0
   -2.2848   -0.2892   -4.2788 H   0  0  0  0  0  0  0  0  0  0  0  0
   -0.5304   -1.3594   -1.9968 H   0  0  0  0  0  0  0  0  0  0  0  0
   -2.2748   -1.3594   -1.9968 H   0  0  0  0  0  0  0  0  0  0  0  0
   -1.4026    0.4183   -0.6178 H   0  0  0  0  0  0  0  0  0  0  0  0
   -1.4026    0.3079    0.6862 C   0  0  0  0  0  3  0  0  0  0  0  0
   -0.1769    0.9684    1.2735 C   0  0  0  0  0  0  0  0  0  0  0  0
    0.7825   -0.0188    1.5562 O   0  0  0  0  0  0  0  0  0  0  0  0
    1.9655    0.5007    2.1091 C   0  0  0  0  0  0  0  0  0  0  0  0
    2.9245   -0.6367    2.3740 C   0  0  0  0  0  0  0  0  0  0  0  0
   -1.8236   -0.4108    1.3901 H   0  0  0  0  0  0  0  0  0  0  0  0
   -2.1629    1.0567    0.4582 H   0  0  0  0  0  0  0  0  0  0  0  0
   -0.4371    1.5130    2.1933 H   0  0  0  0  0  0  0  0  0  0  0  0
    0.2383    1.7040    0.5686 H   0  0  0  0  0  0  0  0  0  0  0  0
    2.4146    1.2289    1.4175 H   0  0  0  0  0  0  0  0  0  0  0  0
    1.7392    1.0378    3.0422 H   0  0  0  0  0  0  0  0  0  0  0  0
    3.1610   -1.1608    1.4474 H   0  0  0  0  0  0  0  0  0  0  0  0
    3.8522   -0.2565    2.8045 H   0  0  0  0  0  0  0  0  0  0  0  0
    2.4860   -1.3517    3.0711 H   0  0  0  0  0  0  0  0  0  0  0  0
  1  2  1  0
  1  4  1  0
  1  5  1  0
  1  6  1  0
  2  3  1  0
  2  7  1  0
  2  8  1  0
  3  9  1  0
 10 11  1  0
 10 15  1  0
 10 16  1  0
 11 12  1  0
 11 17  1  0
 11 18  1  0
 12 13  1  0
 13 14  1  0
 13 19  1  0
 13 20  1  0
 14 21  1  0
 14 22  1  0
 14 23  1  0
M  RAD  2   3   2  10   2
M  END
>  <reaction>  (5) 
rmg_rxn_640

>  <mol_properties>  (5) 
{"1": {"label": "*0", "atom_type": "Cs"}, "2": {"label": "*1", "atom_type": "N3s"}, "8": {"label": "*2", "atom_type": "H0"}, "9": {"label": "*3", "atom_type": "Cs"}, "10": {"label": "*4", "atom_type": "Cs"}}

>  <type>  (5) 
unop_1

>  <geom_source>  (5) 
Heuristics

$$$$

     RDKit          3D

 23 21  0  0  0  0  0  0  0  0999 V2000
   -0.0493    0.6502   -3.5271 C   0  0  0  0  0  0  0  0  0  0  0  0
   -0.0493    0.6502   -2.0091 C   0  0  0  0  0  0  0  0  0  0  0  0
   -0.0493    1.9777   -1.4694 N   0  0  0  0  0  2  0  0  0  0  0  0
    0.8329    1.1666   -3.9072 H   0  0  0  0  0  0  0  0  0  0  0  0
   -0.0493   -0.3687   -3.9182 H   0  0  0  0  0  0  0  0  0  0  0  0
   -0.9316    1.1666   -3.9072 H   0  0  0  0  0  0  0  0  0  0  0  0
    0.8229    0.0965   -1.6252 H   0  0  0  0  0  0  0  0  0  0  0  0
   -0.9216    0.0965   -1.6252 H   0  0  0  0  0  0  0  0  0  0  0  0
   -0.0493    1.8742   -0.2462 H   0  0  0  0  0  0  0  0  0  0  0  0
   -0.0493    1.7638    1.0578 C   0  0  0  0  0  3  0  0  0  0  0  0
    0.6583    0.4978    1.4820 C   0  0  0  0  0  0  0  0  0  0  0  0
   -0.2061   -0.5939    1.2922 O   0  0  0  0  0  0  0  0  0  0  0  0
    0.3657   -1.8237    1.6607 C   0  0  0  0  0  0  0  0  0  0  0  0
   -0.6403   -2.9250    1.4187 C   0  0  0  0  0  0  0  0  0  0  0  0
   -0.9525    1.9135    1.6504 H   0  0  0  0  0  0  0  0  0  0  0  0
    0.6039    2.6267    1.1965 H   0  0  0  0  0  0  0  0  0  0  0  0
    0.9573    0.5603    2.5389 H   0  0  0  0  0  0  0  0  0  0  0  0
    1.5771    0.3555    0.8938 H   0  0  0  0  0  0  0  0  0  0  0  0
    1.2798   -2.0028    1.0753 H   0  0  0  0  0  0  0  0  0  0  0  0
    0.6601   -1.7980    2.7204 H   0  0  0  0  0  0  0  0  0  0  0  0
   -0.9217   -2.9609    0.3657 H   0  0  0  0  0  0  0  0  0  0  0  0
   -0.2176   -3.8913    1.6983 H   0  0  0  0  0  0  0  0  0  0  0  0
   -1.5411   -2.7563    2.0098 H   0  0  0  0  0  0  0  0  0  0  0  0
  1  2  1  0
  1  4  1  0
  1  5  1  0
  1  6  1  0
  2  3  1  0
  2  7  1  0
  2  8  1  0
  3  9  1  0
 10 11  1  0
 10 15  1  0
 10 16  1  0
 11 12  1  0
 11 17  1  0
 11 18  1  0
 12 13  1  0
 13 14  1  0
 13 19  1  0
 13 20  1  0
 14 21  1  0
 14 22  1  0
 14 23  1  0
M  RAD  2   3   2  10   2
M  END
>  <reaction>  (6) 
rmg_rxn_640

>  <mol_properties>  (6) 
{"1": {"label": "*0", "atom_type": "Cs"}, "2": {"label": "*1", "atom_type": "N3s"}, "8": {"label": "*2", "atom_type": "H0"}, "9": {"label": "*3", "atom_type": "Cs"}, "10": {"label": "*4", "atom_type": "Cs"}}

>  <type>  (6) 
unop_2

>  <geom_source>  (6) 
Heuristics

$$$$

     RDKit          3D

 23 21  0  0  0  0  0  0  0  0999 V2000
   -1.2477   -1.5510   -3.8335 C   0  0  0  0  0  0  0  0  0  0  0  0
   -1.2477   -1.5510   -2.3155 C   0  0  0  0  0  0  0  0  0  0  0  0
   -1.2477   -0.2235   -1.7758 N   0  0  0  0  0  2  0  0  0  0  0  0
   -0.3655   -1.0346   -4.2136 H   0  0  0  0  0  0  0  0  0  0  0  0
   -1.2477   -2.5699   -4.2246 H   0  0  0  0  0  0  0  0  0  0  0  0
   -2.1300   -1.0346   -4.2136 H   0  0  0  0  0  0  0  0  0  0  0  0
   -0.3755   -2.1047   -1.9316 H   0  0  0  0  0  0  0  0  0  0  0  0
   -2.1200   -2.1047   -1.9316 H   0  0  0  0  0  0  0  0  0  0  0  0
   -1.2477   -0.3270   -0.5526 H   0  0  0  0  0  0  0  0  0  0  0  0
   -1.2477   -0.4374    0.7514 C   0  0  0  0  0  3  0  0  0  0  0  0
   -0.5400    0.7393    1.3824 C   0  0  0  0  0  0  0  0  0  0  0  0
    0.8307    0.4467    1.4842 O   0  0  0  0  0  0  0  0  0  0  0  0
    1.5778    1.4872    2.0624 C   0  0  0  0  0  0  0  0  0  0  0  0
    3.0297    1.0731    2.1249 C   0  0  0  0  0  0  0  0  0  0  0  0
   -1.1159   -1.3332    1.3592 H   0  0  0  0  0  0  0  0  0  0  0  0
   -2.3157   -0.2326    0.6620 H   0  0  0  0  0  0  0  0  0  0  0  0
   -0.9544    0.9471    2.3801 H   0  0  0  0  0  0  0  0  0  0  0  0
   -0.6861    1.6457    0.7763 H   0  0  0  0  0  0  0  0  0  0  0  0
    1.4653    2.4055    1.4670 H   0  0  0  0  0  0  0  0  0  0  0  0
    1.1970    1.7068    3.0709 H   0  0  0  0  0  0  0  0  0  0  0  0
    3.4124    0.8693    1.1242 H   0  0  0  0  0  0  0  0  0  0  0  0
    3.6304    1.8672    2.5712 H   0  0  0  0  0  0  0  0  0  0  0  0
    3.1442    0.1711    2.7271 H   0  0  0  0  0  0  0  0  0  0  0  0
  1  2  1  0
  1  4  1  0
  1  5  1  0
  1  6  1  0
  2  3  1  0
  2  7  1  0
  2  8  1  0
  3  9  1  0
 10 11  1  0
 10 15  1  0
 10 16  1  0
 11 12  1  0
 11 17  1  0
 11 18  1  0
 12 13  1  0
 13 14  1  0
 13 19  1  0
 13 20  1  0
 14 21  1  0
 14 22  1  0
 14 23  1  0
M  RAD  2   3   2  10   2
M  END
>  <reaction>  (7) 
rmg_rxn_640

>  <mol_properties>  (7) 
{"1": {"label": "*0", "atom_type": "Cs"}, "2": {"label": "*1", "atom_type": "N3s"}, "8": {"label": "*2", "atom_type": "H0"}, "9": {"label": "*3", "atom_type": "Cs"}, "10": {"label": "*4", "atom_type": "Cs"}}

>  <type>  (7) 
unop_3

>  <geom_source>  (7) 
Heuristics

$$$$

     RDKit          3D

 23 21  0  0  0  0  0  0  0  0999 V2000
    1.4510   -0.4248   -3.1633 C   0  0  0  0  0  0  0  0  0  0  0  0
    1.4510   -0.4248   -1.6453 C   0  0  0  0  0  0  0  0  0  0  0  0
    1.4510    0.9028   -1.1056 N   0  0  0  0  0  2  0  0  0  0  0  0
    2.3333    0.0917   -3.5434 H   0  0  0  0  0  0  0  0  0  0  0  0
    1.4510   -1.4437   -3.5544 H   0  0  0  0  0  0  0  0  0  0  0  0
    0.5688    0.0917   -3.5434 H   0  0  0  0  0  0  0  0  0  0  0  0
    2.3233   -0.9785   -1.2614 H   0  0  0  0  0  0  0  0  0  0  0  0
    0.5788   -0.9785   -1.2614 H   0  0  0  0  0  0  0  0  0  0  0  0
    1.4510    0.7993    0.1176 H   0  0  0  0  0  0  0  0  0  0  0  0
    1.4510    0.6889    1.4216 C   0  0  0  0  0  3  0  0  0  0  0  0
    0.2253   -0.0609    1.8895 C   0  0  0  0  0  0  0  0  0  0  0  0
   -0.8149    0.1436    0.9669 O   0  0  0  0  0  0  0  0  0  0  0  0
   -2.0042   -0.5180    1.3174 C   0  0  0  0  0  0  0  0  0  0  0  0
   -3.0520   -0.2343    0.2661 C   0  0  0  0  0  0  0  0  0  0  0  0
    1.2409    1.7565    1.3480 H   0  0  0  0  0  0  0  0  0  0  0  0
    2.2735    0.5445    2.1240 H   0  0  0  0  0  0  0  0  0  0  0  0
   -0.0827    0.2896    2.8858 H   0  0  0  0  0  0  0  0  0  0  0  0
    0.4426   -1.1358    1.9776 H   0  0  0  0  0  0  0  0  0  0  0  0
   -1.8222   -1.6001    1.3964 H   0  0  0  0  0  0  0  0  0  0  0  0
   -2.3475   -0.1747    2.3046 H   0  0  0  0  0  0  0  0  0  0  0  0
   -2.7189   -0.5875   -0.7105 H   0  0  0  0  0  0  0  0  0  0  0  0
   -3.9862   -0.7388    0.5176 H   0  0  0  0  0  0  0  0  0  0  0  0
   -3.2438    0.8370    0.1972 H   0  0  0  0  0  0  0  0  0  0  0  0
  1  2  1  0
  1  4  1  0
  1  5  1  0
  1  6  1  0
  2  3  1  0
  2  7  1  0
  2  8  1  0
  3  9  1  0
 10 11  1  0
 10 15  1  0
 10 16  1  0
 11 12  1  0
 11 17  1  0
 11 18  1  0
 12 13  1  0
 13 14  1  0
 13 19  1  0
 13 20  1  0
 14 21  1  0
 14 22  1  0
 14 23  1  0
M  RAD  2   3   2  10   2
M  END
>  <reaction>  (8) 
rmg_rxn_640

>  <mol_properties>  (8) 
{"1": {"label": "*0", "atom_type": "Cs"}, "2": {"label": "*1", "atom_type": "N3s"}, "8": {"label": "*2", "atom_type": "H0"}, "9": {"label": "*3", "atom_type": "Cs"}, "10": {"label": "*4", "atom_type": "Cs"}}

>  <type>  (8) 
unop_4

>  <geom_source>  (8) 
Heuristics

$$$$

     RDKit          3D

 23 21  0  0  0  0  0  0  0  0999 V2000
   -0.6200   -2.2188   -3.5725 C   0  0  0  0  0  0  0  0  0  0  0  0
   -0.6200   -2.2188   -2.0546 C   0  0  0  0  0  0  0  0  0  0  0  0
   -0.6200   -0.8912   -1.5148 N   0  0  0  0  0  2  0  0  0  0  0  0
    0.2622   -1.7023   -3.9526 H   0  0  0  0  0  0  0  0  0  0  0  0
   -0.6200   -3.2377   -3.9636 H   0  0  0  0  0  0  0  0  0  0  0  0
   -1.5023   -1.7023   -3.9526 H   0  0  0  0  0  0  0  0  0  0  0  0
    0.2522   -2.7725   -1.6706 H   0  0  0  0  0  0  0  0  0  0  0  0
   -1.4923   -2.7725   -1.6706 H   0  0  0  0  0  0  0  0  0  0  0  0
   -0.6200   -0.9948   -0.2916 H   0  0  0  0  0  0  0  0  0  0  0  0
   -0.6200   -1.1051    1.0124 C   0  0  0  0  0  3  0  0  0  0  0  0
   -0.6200    0.2605    1.6593 C   0  0  0  0  0  0  0  0  0  0  0  0
    0.5308    0.9578    1.2538 O   0  0  0  0  0  0  0  0  0  0  0  0
    0.6210    2.2467    1.8067 C   0  0  0  0  0  0  0  0  0  0  0  0
    1.8866    2.9065    1.3100 C   0  0  0  0  0  0  0  0  0  0  0  0
    0.2649   -1.6688    1.3098 H   0  0  0  0  0  0  0  0  0  0  0  0
   -1.5063   -1.6660    1.3134 H   0  0  0  0  0  0  0  0  0  0  0  0
   -0.6350    0.1666    2.7553 H   0  0  0  0  0  0  0  0  0  0  0  0
   -1.5205    0.8227    1.3705 H   0  0  0  0  0  0  0  0  0  0  0  0
   -0.2598    2.8403    1.5202 H   0  0  0  0  0  0  0  0  0  0  0  0
    0.6257    2.1843    2.9050 H   0  0  0  0  0  0  0  0  0  0  0  0
    1.8764    2.9822    0.2222 H   0  0  0  0  0  0  0  0  0  0  0  0
    1.9782    3.9106    1.7271 H   0  0  0  0  0  0  0  0  0  0  0  0
    2.7614    2.3266    1.6062 H   0  0  0  0  0  0  0  0  0  0  0  0
  1  2  1  0
  1  4  1  0
  1  5  1  0
  1  6  1  0
  2  3  1  0
  2  7  1  0
  2  8  1  0
  3  9  1  0
 10 11  1  0
 10 15  1  0
 10 16  1  0
 11 12  1  0
 11 17  1  0
 11 18  1  0
 12 13  1  0
 13 14  1  0
 13 19  1  0
 13 20  1  0
 14 21  1  0
 14 22  1  0
 14 23  1  0
M  RAD  2   3   2  10   2
M  END
>  <reaction>  (9) 
rmg_rxn_640

>  <mol_properties>  (9) 
{"1": {"label": "*0", "atom_type": "Cs"}, "2": {"label": "*1", "atom_type": "N3s"}, "8": {"label": "*2", "atom_type": "H0"}, "9": {"label": "*3", "atom_type": "Cs"}, "10": {"label": "*4", "atom_type": "Cs"}}

>  <type>  (9) 
unop_5

>  <geom_source>  (9) 
Heuristics

$$$$

     RDKit          3D

 23 21  0  0  0  0  0  0  0  0999 V2000
    1.4909   -1.1258   -3.1856 C   0  0  0  0  0  0  0  0  0  0  0  0
    1.4909   -1.1258   -1.6676 C   0  0  0  0  0  0  0  0  0  0  0  0
    1.4909    0.2017   -1.1278 N   0  0  0  0  0  2  0  0  0  0  0  0
    2.3732   -0.6094   -3.5656 H   0  0  0  0  0  0  0  0  0  0  0  0
    1.4909   -2.1447   -3.5767 H   0  0  0  0  0  0  0  0  0  0  0  0
    0.6087   -0.6094   -3.5656 H   0  0  0  0  0  0  0  0  0  0  0  0
    2.3632   -1.6795   -1.2837 H   0  0  0  0  0  0  0  0  0  0  0  0
    0.6187   -1.6795   -1.2837 H   0  0  0  0  0  0  0  0  0  0  0  0
    1.4909    0.0982    0.0954 H   0  0  0  0  0  0  0  0  0  0  0  0
    1.4909   -0.0122    1.3994 C   0  0  0  0  0  3  0  0  0  0  0  0
    0.0756   -0.0568    1.9269 C   0  0  0  0  0  0  0  0  0  0  0  0
   -0.7875    0.4975    0.9662 O   0  0  0  0  0  0  0  0  0  0  0  0
   -2.1343    0.5006    1.3677 C   0  0  0  0  0  0  0  0  0  0  0  0
   -2.9724    1.1137    0.2698 C   0  0  0  0  0  0  0  0  0  0  0  0
    1.7913    1.0166    1.1977 H   0  0  0  0  0  0  0  0  0  0  0  0
    2.1803   -0.4383    2.1300 H   0  0  0  0  0  0  0  0  0  0  0  0
   -0.0013    0.5056    2.8693 H   0  0  0  0  0  0  0  0  0  0  0  0
   -0.2212   -1.0937    2.1440 H   0  0  0  0  0  0  0  0  0  0  0  0
   -2.4660   -0.5275    1.5759 H   0  0  0  0  0  0  0  0  0  0  0  0
   -2.2462    1.0719    2.3012 H   0  0  0  0  0  0  0  0  0  0  0  0
   -2.8737    0.5395   -0.6521 H   0  0  0  0  0  0  0  0  0  0  0  0
   -4.0242    1.1268    0.5598 H   0  0  0  0  0  0  0  0  0  0  0  0
   -2.6540    2.1379    0.0728 H   0  0  0  0  0  0  0  0  0  0  0  0
  1  2  1  0
  1  4  1  0
  1  5  1  0
  1  6  1  0
  2  3  1  0
  2  7  1  0
  2  8  1  0
  3  9  1  0
 10 11  1  0
 10 15  1  0
 10 16  1  0
 11 12  1  0
 11 17  1  0
 11 18  1  0
 12 13  1  0
 13 14  1  0
 13 19  1  0
 13 20  1  0
 14 21  1  0
 14 22  1  0
 14 23  1  0
M  RAD  2   3   2  10   2
M  END
>  <reaction>  (10) 
rmg_rxn_640

>  <mol_properties>  (10) 
{"1": {"label": "*0", "atom_type": "Cs"}, "2": {"label": "*1", "atom_type": "N3s"}, "8": {"label": "*2", "atom_type": "H0"}, "9": {"label": "*3", "atom_type": "Cs"}, "10": {"label": "*4", "atom_type": "Cs"}}

>  <type>  (10) 
unop_6

>  <geom_source>  (10) 
Heuristics

$$$$

     RDKit          3D

 23 21  0  0  0  0  0  0  0  0999 V2000
    1.1635   -1.8314   -3.2441 C   0  0  0  0  0  0  0  0  0  0  0  0
    1.1635   -1.8314   -1.7261 C   0  0  0  0  0  0  0  0  0  0  0  0
    1.1635   -0.5039   -1.1863 N   0  0  0  0  0  2  0  0  0  0  0  0
    2.0458   -1.3150   -3.6241 H   0  0  0  0  0  0  0  0  0  0  0  0
    1.1635   -2.8503   -3.6351 H   0  0  0  0  0  0  0  0  0  0  0  0
    0.2813   -1.3150   -3.6241 H   0  0  0  0  0  0  0  0  0  0  0  0
    2.0358   -2.3851   -1.3422 H   0  0  0  0  0  0  0  0  0  0  0  0
    0.2913   -2.3851   -1.3422 H   0  0  0  0  0  0  0  0  0  0  0  0
    1.1635   -0.6074    0.0369 H   0  0  0  0  0  0  0  0  0  0  0  0
    1.1635   -0.7178    1.3409 C   0  0  0  0  0  3  0  0  0  0  0  0
   -0.0622   -0.0573    1.9281 C   0  0  0  0  0  0  0  0  0  0  0  0
   -0.5779    0.8593    0.9958 O   0  0  0  0  0  0  0  0  0  0  0  0
   -1.7261    1.5280    1.4535 C   0  0  0  0  0  0  0  0  0  0  0  0
   -2.1970    2.4842    0.3822 C   0  0  0  0  0  0  0  0  0  0  0  0
    1.9257    0.0274    1.1104 H   0  0  0  0  0  0  0  0  0  0  0  0
    1.5820   -1.4351    2.0486 H   0  0  0  0  0  0  0  0  0  0  0  0
    0.1923    0.4624    2.8638 H   0  0  0  0  0  0  0  0  0  0  0  0
   -0.8246   -0.8113    2.1740 H   0  0  0  0  0  0  0  0  0  0  0  0
   -2.5148    0.7991    1.6918 H   0  0  0  0  0  0  0  0  0  0  0  0
   -1.4980    2.0729    2.3816 H   0  0  0  0  0  0  0  0  0  0  0  0
   -2.4375    1.9433   -0.5338 H   0  0  0  0  0  0  0  0  0  0  0  0
   -3.0895    3.0159    0.7159 H   0  0  0  0  0  0  0  0  0  0  0  0
   -1.4212    3.2163    0.1556 H   0  0  0  0  0  0  0  0  0  0  0  0
  1  2  1  0
  1  4  1  0
  1  5  1  0
  1  6  1  0
  2  3  1  0
  2  7  1  0
  2  8  1  0
  3  9  1  0
 10 11  1  0
 10 15  1  0
 10 16  1  0
 11 12  1  0
 11 17  1  0
 11 18  1  0
 12 13  1  0
 13 14  1  0
 13 19  1  0
 13 20  1  0
 14 21  1  0
 14 22  1  0
 14 23  1  0
M  RAD  2   3   2  10   2
M  END
>  <reaction>  (11) 
rmg_rxn_640

>  <mol_properties>  (11) 
{"1": {"label": "*0", "atom_type": "Cs"}, "2": {"label": "*1", "atom_type": "N3s"}, "8": {"label": "*2", "atom_type": "H0"}, "9": {"label": "*3", "atom_type": "Cs"}, "10": {"label": "*4", "atom_type": "Cs"}}

>  <type>  (11) 
unop_7

>  <geom_source>  (11) 
Heuristics

$$$$

     RDKit          3D

 23 21  0  0  0  0  0  0  0  0999 V2000
   -1.2163   -0.1065   -3.8362 C   0  0  0  0  0  0  0  0  0  0  0  0
   -1.2163   -0.1065   -2.3182 C   0  0  0  0  0  0  0  0  0  0  0  0
   -1.2163    1.2211   -1.7784 N   0  0  0  0  0  2  0  0  0  0  0  0
   -0.3340    0.4100   -4.2162 H   0  0  0  0  0  0  0  0  0  0  0  0
   -1.2163   -1.1254   -4.2272 H   0  0  0  0  0  0  0  0  0  0  0  0
   -2.0985    0.4100   -4.2162 H   0  0  0  0  0  0  0  0  0  0  0  0
   -0.3440   -0.6602   -1.9343 H   0  0  0  0  0  0  0  0  0  0  0  0
   -2.0885   -0.6602   -1.9343 H   0  0  0  0  0  0  0  0  0  0  0  0
   -1.2163    1.1175   -0.5552 H   0  0  0  0  0  0  0  0  0  0  0  0
   -1.2163    1.0072    0.7488 C   0  0  0  0  0  3  0  0  0  0  0  0
    0.1991    0.9625    1.2763 C   0  0  0  0  0  0  0  0  0  0  0  0
    0.5524   -0.3752    1.5232 O   0  0  0  0  0  0  0  0  0  0  0  0
    1.8592   -0.5204    2.0193 C   0  0  0  0  0  0  0  0  0  0  0  0
    2.1367   -1.9879    2.2494 C   0  0  0  0  0  0  0  0  0  0  0  0
   -1.9086    0.5811    1.4757 H   0  0  0  0  0  0  0  0  0  0  0  0
   -1.5130    2.0381    0.5495 H   0  0  0  0  0  0  0  0  0  0  0  0
    0.2826    1.5497    2.2029 H   0  0  0  0  0  0  0  0  0  0  0  0
    0.8947    1.4061    0.5486 H   0  0  0  0  0  0  0  0  0  0  0  0
    2.5811   -0.1003    1.3033 H   0  0  0  0  0  0  0  0  0  0  0  0
    1.9690    0.0433    2.9577 H   0  0  0  0  0  0  0  0  0  0  0  0
    2.0425   -2.5454    1.3168 H   0  0  0  0  0  0  0  0  0  0  0  0
    3.1479   -2.1254    2.6354 H   0  0  0  0  0  0  0  0  0  0  0  0
    1.4308   -2.4018    2.9702 H   0  0  0  0  0  0  0  0  0  0  0  0
  1  2  1  0
  1  4  1  0
  1  5  1  0
  1  6  1  0
  2  3  1  0
  2  7  1  0
  2  8  1  0
  3  9  1  0
 10 11  1  0
 10 15  1  0
 10 16  1  0
 11 12  1  0
 11 17  1  0
 11 18  1  0
 12 13  1  0
 13 14  1  0
 13 19  1  0
 13 20  1  0
 14 21  1  0
 14 22  1  0
 14 23  1  0
M  RAD  2   3   2  10   2
M  END
>  <reaction>  (12) 
rmg_rxn_640

>  <mol_properties>  (12) 
{"1": {"label": "*0", "atom_type": "Cs"}, "2": {"label": "*1", "atom_type": "N3s"}, "8": {"label": "*2", "atom_type": "H0"}, "9": {"label": "*3", "atom_type": "Cs"}, "10": {"label": "*4", "atom_type": "Cs"}}

>  <type>  (12) 
unop_8

>  <geom_source>  (12) 
Heuristics

$$$$

     RDKit          3D

 23 21  0  0  0  0  0  0  0  0999 V2000
    1.1376    0.1490   -3.2073 C   0  0  0  0  0  0  0  0  0  0  0  0
    1.1376    0.1490   -1.6893 C   0  0  0  0  0  0  0  0  0  0  0  0
    1.1376    1.4766   -1.1495 N   0  0  0  0  0  2  0  0  0  0  0  0
    2.0199    0.6655   -3.5873 H   0  0  0  0  0  0  0  0  0  0  0  0
    1.1376   -0.8699   -3.5983 H   0  0  0  0  0  0  0  0  0  0  0  0
    0.2554    0.6655   -3.5873 H   0  0  0  0  0  0  0  0  0  0  0  0
    2.0099   -0.4047   -1.3054 H   0  0  0  0  0  0  0  0  0  0  0  0
    0.2654   -0.4047   -1.3054 H   0  0  0  0  0  0  0  0  0  0  0  0
    1.1376    1.3730    0.0737 H   0  0  0  0  0  0  0  0  0  0  0  0
    1.1376    1.2627    1.3777 C   0  0  0  0  0  3  0  0  0  0  0  0
    0.4299   -0.0034    1.8019 C   0  0  0  0  0  0  0  0  0  0  0  0
   -0.7256   -0.1649    1.0184 O   0  0  0  0  0  0  0  0  0  0  0  0
   -1.4557   -1.3218    1.3403 C   0  0  0  0  0  0  0  0  0  0  0  0
   -2.6709   -1.4002    0.4455 C   0  0  0  0  0  0  0  0  0  0  0  0
    0.4876    2.1277    1.5137 H   0  0  0  0  0  0  0  0  0  0  0  0
    2.0398    1.4092    1.9736 H   0  0  0  0  0  0  0  0  0  0  0  0
    0.1573    0.0470    2.8665 H   0  0  0  0  0  0  0  0  0  0  0  0
    1.0917   -0.8735    1.6782 H   0  0  0  0  0  0  0  0  0  0  0  0
   -0.8239   -2.2128    1.2094 H   0  0  0  0  0  0  0  0  0  0  0  0
   -1.7582   -1.2923    2.3976 H   0  0  0  0  0  0  0  0  0  0  0  0
   -2.3717   -1.4443   -0.6022 H   0  0  0  0  0  0  0  0  0  0  0  0
   -3.2545   -2.2924    0.6778 H   0  0  0  0  0  0  0  0  0  0  0  0
   -3.3055   -0.5244    0.5853 H   0  0  0  0  0  0  0  0  0  0  0  0
  1  2  1  0
  1  4  1  0
  1  5  1  0
  1  6  1  0
  2  3  1  0
  2  7  1  0
  2  8  1  0
  3  9  1  0
 10 11  1  0
 10 15  1  0
 10 16  1  0
 11 12  1  0
 11 17  1  0
 11 18  1  0
 12 13  1  0
 13 14  1  0
 13 19  1  0
 13 20  1  0
 14 21  1  0
 14 22  1  0
 14 23  1  0
M  RAD  2   3   2  10   2
M  END
>  <reaction>  (13) 
rmg_rxn_640

>  <mol_properties>  (13) 
{"1": {"label": "*0", "atom_type": "Cs"}, "2": {"label": "*1", "atom_type": "N3s"}, "8": {"label": "*2", "atom_type": "H0"}, "9": {"label": "*3", "atom_type": "Cs"}, "10": {"label": "*4", "atom_type": "Cs"}}

>  <type>  (13) 
unop_9

>  <geom_source>  (13) 
Heuristics

$$$$

     RDKit          3D

 23 21  0  0  0  0  0  0  0  0999 V2000
   -0.7258    0.4231   -3.7045 C   0  0  0  0  0  0  0  0  0  0  0  0
   -0.7258    0.4231   -2.1865 C   0  0  0  0  0  0  0  0  0  0  0  0
   -0.7258    1.7507   -1.6467 N   0  0  0  0  0  2  0  0  0  0  0  0
    0.1565    0.9396   -4.0845 H   0  0  0  0  0  0  0  0  0  0  0  0
   -0.7258   -0.5957   -4.0956 H   0  0  0  0  0  0  0  0  0  0  0  0
   -1.6080    0.9396   -4.0845 H   0  0  0  0  0  0  0  0  0  0  0  0
    0.1465   -0.1306   -1.8026 H   0  0  0  0  0  0  0  0  0  0  0  0
   -1.5980   -0.1306   -1.8026 H   0  0  0  0  0  0  0  0  0  0  0  0
   -0.7258    1.6472   -0.4235 H   0  0  0  0  0  0  0  0  0  0  0  0
   -0.7258    1.5368    0.8804 C   0  0  0  0  0  3  0  0  0  0  0  0
    0.5000    0.7870    1.3483 C   0  0  0  0  0  0  0  0  0  0  0  0
    0.1940   -0.5822    1.4301 O   0  0  0  0  0  0  0  0  0  0  0  0
    1.2778   -1.3672    1.8594 C   0  0  0  0  0  0  0  0  0  0  0  0
    0.8453   -2.8142    1.9126 C   0  0  0  0  0  0  0  0  0  0  0  0
   -1.5508    1.3942    1.5792 H   0  0  0  0  0  0  0  0  0  0  0  0
   -0.5116    2.6043    0.8093 H   0  0  0  0  0  0  0  0  0  0  0  0
    0.8255    1.1580    2.3315 H   0  0  0  0  0  0  0  0  0  0  0  0
    1.3359    0.9436    0.6505 H   0  0  0  0  0  0  0  0  0  0  0  0
    2.1261   -1.2448    1.1697 H   0  0  0  0  0  0  0  0  0  0  0  0
    1.6157   -1.0304    2.8507 H   0  0  0  0  0  0  0  0  0  0  0  0
    0.5241   -3.1535    0.9272 H   0  0  0  0  0  0  0  0  0  0  0  0
    1.6723   -3.4440    2.2441 H   0  0  0  0  0  0  0  0  0  0  0  0
    0.0139   -2.9391    2.6072 H   0  0  0  0  0  0  0  0  0  0  0  0
  1  2  1  0
  1  4  1  0
  1  5  1  0
  1  6  1  0
  2  3  1  0
  2  7  1  0
  2  8  1  0
  3  9  1  0
 10 11  1  0
 10 15  1  0
 10 16  1  0
 11 12  1  0
 11 17  1  0
 11 18  1  0
 12 13  1  0
 13 14  1  0
 13 19  1  0
 13 20  1  0
 14 21  1  0
 14 22  1  0
 14 23  1  0
M  RAD  2   3   2  10   2
M  END
>  <reaction>  (14) 
rmg_rxn_640

>  <mol_properties>  (14) 
{"1": {"label": "*0", "atom_type": "Cs"}, "2": {"label": "*1", "atom_type": "N3s"}, "8": {"label": "*2", "atom_type": "H0"}, "9": {"label": "*3", "atom_type": "Cs"}, "10": {"label": "*4", "atom_type": "Cs"}}

>  <type>  (14) 
unop_10

>  <geom_source>  (14) 
Heuristics

$$$$

     RDKit          3D

 23 21  0  0  0  0  0  0  0  0999 V2000
    0.4071   -2.3196   -3.3430 C   0  0  0  0  0  0  0  0  0  0  0  0
    0.4071   -2.3196   -1.8250 C   0  0  0  0  0  0  0  0  0  0  0  0
    0.4071   -0.9920   -1.2853 N   0  0  0  0  0  2  0  0  0  0  0  0
    1.2894   -1.8031   -3.7231 H   0  0  0  0  0  0  0  0  0  0  0  0
    0.4071   -3.3385   -3.7341 H   0  0  0  0  0  0  0  0  0  0  0  0
   -0.4751   -1.8031   -3.7231 H   0  0  0  0  0  0  0  0  0  0  0  0
    1.2794   -2.8733   -1.4411 H   0  0  0  0  0  0  0  0  0  0  0  0
   -0.4651   -2.8733   -1.4411 H   0  0  0  0  0  0  0  0  0  0  0  0
    0.4071   -1.0955   -0.0621 H   0  0  0  0  0  0  0  0  0  0  0  0
    0.4071   -1.2059    1.2419 C   0  0  0  0  0  3  0  0  0  0  0  0
   -0.3005   -0.0292    1.8729 C   0  0  0  0  0  0  0  0  0  0  0  0
   -0.1112    1.1046    1.0643 O   0  0  0  0  0  0  0  0  0  0  0  0
   -0.7359    2.2569    1.5711 C   0  0  0  0  0  0  0  0  0  0  0  0
   -0.4721    3.4115    0.6325 C   0  0  0  0  0  0  0  0  0  0  0  0
    1.4750   -1.0049    1.1496 H   0  0  0  0  0  0  0  0  0  0  0  0
    0.2737   -2.0996    1.8536 H   0  0  0  0  0  0  0  0  0  0  0  0
    0.0935    0.1600    2.8824 H   0  0  0  0  0  0  0  0  0  0  0  0
   -1.3752   -0.2389    1.9791 H   0  0  0  0  0  0  0  0  0  0  0  0
   -1.8175    2.0834    1.6726 H   0  0  0  0  0  0  0  0  0  0  0  0
   -0.3488    2.4824    2.5759 H   0  0  0  0  0  0  0  0  0  0  0  0
   -0.8685    3.1951   -0.3602 H   0  0  0  0  0  0  0  0  0  0  0  0
   -0.9486    4.3191    1.0063 H   0  0  0  0  0  0  0  0  0  0  0  0
    0.5993    3.5938    0.5426 H   0  0  0  0  0  0  0  0  0  0  0  0
  1  2  1  0
  1  4  1  0
  1  5  1  0
  1  6  1  0
  2  3  1  0
  2  7  1  0
  2  8  1  0
  3  9  1  0
 10 11  1  0
 10 15  1  0
 10 16  1  0
 11 12  1  0
 11 17  1  0
 11 18  1  0
 12 13  1  0
 13 14  1  0
 13 19  1  0
 13 20  1  0
 14 21  1  0
 14 22  1  0
 14 23  1  0
M  RAD  2   3   2  10   2
M  END
>  <reaction>  (15) 
rmg_rxn_640

>  <mol_properties>  (15) 
{"1": {"label": "*0", "atom_type": "Cs"}, "2": {"label": "*1", "atom_type": "N3s"}, "8": {"label": "*2", "atom_type": "H0"}, "9": {"label": "*3", "atom_type": "Cs"}, "10": {"label": "*4", "atom_type": "Cs"}}

>  <type>  (15) 
unop_11

>  <geom_source>  (15) 
Heuristics

$$$$

     RDKit          3D

 23 21  0  0  0  0  0  0  0  0999 V2000
    0.6200    0.5337   -3.3396 C   0  0  0  0  0  0  0  0  0  0  0  0
    0.6200    0.5337   -1.8216 C   0  0  0  0  0  0  0  0  0  0  0  0
    0.6200    1.8613   -1.2818 N   0  0  0  0  0  2  0  0  0  0  0  0
    1.5023    1.0502   -3.7196 H   0  0  0  0  0  0  0  0  0  0  0  0
    0.6200   -0.4852   -3.7306 H   0  0  0  0  0  0  0  0  0  0  0  0
   -0.2622    1.0502   -3.7196 H   0  0  0  0  0  0  0  0  0  0  0  0
    1.4923   -0.0200   -1.4377 H   0  0  0  0  0  0  0  0  0  0  0  0
   -0.2522   -0.0200   -1.4377 H   0  0  0  0  0  0  0  0  0  0  0  0
    0.6200    1.7577   -0.0586 H   0  0  0  0  0  0  0  0  0  0  0  0
    0.6200    1.6474    1.2454 C   0  0  0  0  0  3  0  0  0  0  0  0
    0.6200    0.1924    1.6536 C   0  0  0  0  0  0  0  0  0  0  0  0
   -0.5308   -0.4268    1.1366 O   0  0  0  0  0  0  0  0  0  0  0  0
   -0.6210   -1.7903    1.4650 C   0  0  0  0  0  0  0  0  0  0  0  0
   -1.8866   -2.3572    0.8645 C   0  0  0  0  0  0  0  0  0  0  0  0
   -0.2649    2.1530    1.6332 H   0  0  0  0  0  0  0  0  0  0  0  0
    1.5063    2.1497    1.6363 H   0  0  0  0  0  0  0  0  0  0  0  0
    0.6351    0.1008    2.7498 H   0  0  0  0  0  0  0  0  0  0  0  0
    1.5205   -0.3132    1.2743 H   0  0  0  0  0  0  0  0  0  0  0  0
    0.2598   -2.3273    1.0828 H   0  0  0  0  0  0  0  0  0  0  0  0
   -0.6257   -1.9134    2.5582 H   0  0  0  0  0  0  0  0  0  0  0  0
   -1.8764   -2.2490   -0.2206 H   0  0  0  0  0  0  0  0  0  0  0  0
   -1.9782   -3.4171    1.1069 H   0  0  0  0  0  0  0  0  0  0  0  0
   -2.7614   -1.8353    1.2539 H   0  0  0  0  0  0  0  0  0  0  0  0
  1  2  1  0
  1  4  1  0
  1  5  1  0
  1  6  1  0
  2  3  1  0
  2  7  1  0
  2  8  1  0
  3  9  1  0
 10 11  1  0
 10 15  1  0
 10 16  1  0
 11 12  1  0
 11 17  1  0
 11 18  1  0
 12 13  1  0
 13 14  1  0
 13 19  1  0
 13 20  1  0
 14 21  1  0
 14 22  1  0
 14 23  1  0
M  RAD  2   3   2  10   2
M  END
>  <reaction>  (16) 
rmg_rxn_640

>  <mol_properties>  (16) 
{"1": {"label": "*0", "atom_type": "Cs"}, "2": {"label": "*1", "atom_type": "N3s"}, "8": {"label": "*2", "atom_type": "H0"}, "9": {"label": "*3", "atom_type": "Cs"}, "10": {"label": "*4", "atom_type": "Cs"}}

>  <type>  (16) 
unop_12

>  <geom_source>  (16) 
Heuristics

$$$$

     RDKit          3D

 23 21  0  0  0  0  0  0  0  0999 V2000
   -0.0493    0.6502   -3.5271 C   0  0  0  0  0  0  0  0  0  0  0  0
   -0.0493    0.6502   -2.0091 C   0  0  0  0  0  0  0  0  0  0  0  0
   -0.0493    1.9777   -1.4694 N   0  0  0  0  0  2  0  0  0  0  0  0
    0.8329    1.1666   -3.9072 H   0  0  0  0  0  0  0  0  0  0  0  0
   -0.0493   -0.3687   -3.9182 H   0  0  0  0  0  0  0  0  0  0  0  0
   -0.9316    1.1666   -3.9072 H   0  0  0  0  0  0  0  0  0  0  0  0
    0.8229    0.0965   -1.6252 H   0  0  0  0  0  0  0  0  0  0  0  0
   -0.9216    0.0965   -1.6252 H   0  0  0  0  0  0  0  0  0  0  0  0
   -0.0493    1.8742   -0.2462 H   0  0  0  0  0  0  0  0  0  0  0  0
   -0.0493    1.7638    1.0578 C   0  0  0  0  0  3  0  0  0  0  0  0
    0.6583    0.4978    1.4820 C   0  0  0  0  0  0  0  0  0  0  0  0
   -0.2061   -0.5939    1.2922 O   0  0  0  0  0  0  0  0  0  0  0  0
    0.3657   -1.8237    1.6607 C   0  0  0  0  0  0  0  0  0  0  0  0
   -0.6403   -2.9250    1.4187 C   0  0  0  0  0  0  0  0  0  0  0  0
   -0.9525    1.9136    1.6503 H   0  0  0  0  0  0  0  0  0  0  0  0
    0.6039    2.6267    1.1966 H   0  0  0  0  0  0  0  0  0  0  0  0
    0.9573    0.5603    2.5389 H   0  0  0  0  0  0  0  0  0  0  0  0
    1.5771    0.3555    0.8938 H   0  0  0  0  0  0  0  0  0  0  0  0
    1.2798   -2.0028    1.0753 H   0  0  0  0  0  0  0  0  0  0  0  0
    0.6601   -1.7980    2.7204 H   0  0  0  0  0  0  0  0  0  0  0  0
   -0.9217   -2.9609    0.3657 H   0  0  0  0  0  0  0  0  0  0  0  0
   -0.2176   -3.8913    1.6983 H   0  0  0  0  0  0  0  0  0  0  0  0
   -1.5411   -2.7563    2.0098 H   0  0  0  0  0  0  0  0  0  0  0  0
  1  2  1  0
  1  4  1  0
  1  5  1  0
  1  6  1  0
  2  3  1  0
  2  7  1  0
  2  8  1  0
  3  9  1  0
 10 11  1  0
 10 15  1  0
 10 16  1  0
 11 12  1  0
 11 17  1  0
 11 18  1  0
 12 13  1  0
 13 14  1  0
 13 19  1  0
 13 20  1  0
 14 21  1  0
 14 22  1  0
 14 23  1  0
M  RAD  2   3   2  10   2
M  END
>  <reaction>  (17) 
rmg_rxn_640

>  <mol_properties>  (17) 
{"1": {"label": "*0", "atom_type": "Cs"}, "2": {"label": "*1", "atom_type": "N3s"}, "8": {"label": "*2", "atom_type": "H0"}, "9": {"label": "*3", "atom_type": "Cs"}, "10": {"label": "*4", "atom_type": "Cs"}}

>  <type>  (17) 
unop_13

>  <geom_source>  (17) 
gaussian_log

$$$$
