
     RDKit          3D

 10  9  0  0  0  0  0  0  0  0999 V2000
   -1.1906   -0.0419   -0.0385 C   0  0  0  0  0  0  0  0  0  0  0  0
    0.2513    0.4500    0.0348 C   0  0  0  0  0  0  0  0  0  0  0  0
    1.2500   -0.5694    0.3278 N   0  0  0  0  0  0  0  0  0  0  0  0
   -1.4965   -0.4905    0.9100 H   0  0  0  0  0  0  0  0  0  0  0  0
   -1.3035   -0.7985   -0.8190 H   0  0  0  0  0  0  0  0  0  0  0  0
   -1.8789    0.7769   -0.2612 H   0  0  0  0  0  0  0  0  0  0  0  0
    0.3352    1.2278    0.7979 H   0  0  0  0  0  0  0  0  0  0  0  0
    0.5259    0.9233   -0.9113 H   0  0  0  0  0  0  0  0  0  0  0  0
    1.2298   -1.2971   -0.3752 H   0  0  0  0  0  0  0  0  0  0  0  0
    1.0523   -1.0138    1.2153 H   0  0  0  0  0  0  0  0  0  0  0  0
  1  2  1  0
  1  4  1  0
  1  5  1  0
  1  6  1  0
  2  3  1  0
  2  7  1  0
  2  8  1  0
  3  9  1  0
  3 10  1  0
M  END
>  <reaction>  (1) 
rmg_rxn_15390

>  <mol_properties>  (1) 
{"2": {"label": "donator", "atom_type": "N3s"}, "8": {"label": "d_hydrogen", "atom_type": "H0"}}

>  <type>  (1) 
r1h

$$$$

     RDKit          3D

  5  4  0  0  0  0  0  0  0  0999 V2000
    0.8934    0.3742    0.4948 O   0  0  0  0  0  0  0  0  0  0  0  0
    0.1582   -0.1610   -0.5904 N   0  0  0  0  0  0  0  0  0  0  0  0
   -1.0297   -0.3739   -0.4689 C   0  0  0  0  0  3  0  0  0  0  0  0
    1.7804    0.4382    0.1306 H   0  0  0  0  0  0  0  0  0  0  0  0
   -1.8023   -0.2775    0.2859 H   0  0  0  0  0  0  0  0  0  0  0  0
  1  2  1  0
  1  4  1  0
  2  3  2  3
  3  5  1  0
M  RAD  1   3   2
M  END
>  <reaction>  (2) 
rmg_rxn_15390

>  <mol_properties>  (2) 
{"2": {"label": "acceptor", "atom_type": "Cd"}}

>  <type>  (2) 
r2

$$$$

     RDKit          3D

  6  5  0  0  0  0  0  0  0  0999 V2000
    1.2314    0.0428    0.5088 O   0  0  0  0  0  0  0  0  0  0  0  0
    0.2987    0.2341   -0.4915 N   0  0  0  0  0  0  0  0  0  0  0  0
   -0.8599   -0.1122   -0.1290 C   0  0  0  0  0  0  0  0  0  0  0  0
    2.0507    0.3401    0.1082 H   0  0  0  0  0  0  0  0  0  0  0  0
   -1.0700   -0.5112    0.8610 H   0  0  0  0  0  0  0  0  0  0  0  0
   -1.6509    0.0064   -0.8574 H   0  0  0  0  0  0  0  0  0  0  0  0
  1  2  1  0
  1  4  1  0
  2  3  2  3
  3  5  1  0
  3  6  1  0
M  END
>  <reaction>  (3) 
rmg_rxn_15390

>  <mol_properties>  (3) 
{"2": {"label": "acceptor", "atom_type": "Cd"}, "5": {"label": "a_hydrogen", "atom_type": "H0"}}

>  <type>  (3) 
r2h

$$$$

     RDKit          3D

 15 13  0  0  0  0  0  0  0  0999 V2000
   -2.4286    1.1874   -0.6374 O   0  0  0  0  0  0  0  0  0  0  0  0
   -1.3015    0.4908   -0.1869 N   0  0  0  0  0  0  0  0  0  0  0  0
   -0.4974    1.1804    0.4643 C   0  0  0  0  0  3  0  0  0  0  0  0
   -2.9273    0.5100   -1.0999 H   0  0  0  0  0  0  0  0  0  0  0  0
   -0.5786    2.2428    0.6986 H   0  0  0  0  0  0  0  0  0  0  0  0
    1.5535   -1.4382   -1.0103 C   0  0  0  0  0  0  0  0  0  0  0  0
    1.3619   -1.4542    0.5003 C   0  0  0  0  0  0  0  0  0  0  0  0
    1.5524   -0.1815    1.1776 N   0  0  0  0  0  0  0  0  0  0  0  0
    2.5601   -1.0998   -1.2695 H   0  0  0  0  0  0  0  0  0  0  0  0
    0.8311   -0.7695   -1.4796 H   0  0  0  0  0  0  0  0  0  0  0  0
    1.4185   -2.4369   -1.4300 H   0  0  0  0  0  0  0  0  0  0  0  0
    2.0682   -2.1595    0.9551 H   0  0  0  0  0  0  0  0  0  0  0  0
    0.3626   -1.8164    0.7513 H   0  0  0  0  0  0  0  0  0  0  0  0
    0.5884    0.4834    0.9975 H   0  0  0  0  0  0  0  0  0  0  0  0
    2.2897    0.3389    0.7020 H   0  0  0  0  0  0  0  0  0  0  0  0
  1  2  1  0
  1  4  1  0
  2  3  2  3
  3  5  1  0
  6  7  1  0
  6  9  1  0
  6 10  1  0
  6 11  1  0
  7  8  1  0
  7 12  1  0
  7 13  1  0
  8 14  1  0
  8 15  1  0
M  RAD  1   3   2
M  END
>  <reaction>  (4) 
rmg_rxn_15390

>  <mol_properties>  (4) 
{"1": {"label": "*4", "atom_type": "N3d"}, "2": {"label": "*3", "atom_type": "Cd"}, "6": {"label": "*0", "atom_type": "Cs"}, "7": {"label": "*1", "atom_type": "N3s"}, "13": {"label": "*2", "atom_type": "H0"}}

>  <type>  (4) 
ts

$$$$

     RDKit          3D

 15 13  0  0  0  0  0  0  0  0999 V2000
   -2.8403   -0.4141    0.0400 O   0  0  0  0  0  0  0  0  0  0  0  0
   -1.4807   -0.1250   -0.1736 N   0  0  0  0  0  0  0  0  0  0  0  0
   -0.9610    0.9072    0.2558 C   0  0  0  0  0  3  0  0  0  0  0  0
   -2.9821   -1.2630   -0.4017 H   0  0  0  0  0  0  0  0  0  0  0  0
   -1.3714    1.7300    0.8252 H   0  0  0  0  0  0  0  0  0  0  0  0
    1.8537   -1.3648   -0.0513 C   0  0  0  0  0  0  0  0  0  0  0  0
    2.2091    0.0717    0.3434 C   0  0  0  0  0  0  0  0  0  0  0  0
    1.4850    1.0932   -0.3522 N   0  0  0  0  0  0  0  0  0  0  0  0
    0.8005   -1.5518    0.1452 H   0  0  0  0  0  0  0  0  0  0  0  0
    2.4510   -2.0722    0.5183 H   0  0  0  0  0  0  0  0  0  0  0  0
    2.0420   -1.5250   -1.1116 H   0  0  0  0  0  0  0  0  0  0  0  0
    3.2773    0.2398    0.1441 H   0  0  0  0  0  0  0  0  0  0  0  0
    2.0476    0.2190    1.4157 H   0  0  0  0  0  0  0  0  0  0  0  0
    0.3041    1.0441   -0.0411 H   0  0  0  0  0  0  0  0  0  0  0  0
    1.4926    0.8974   -1.3515 H   0  0  0  0  0  0  0  0  0  0  0  0
  1  2  1  0
  1  4  1  0
  2  3  2  3
  3  5  1  0
  6  7  1  0
  6  9  1  0
  6 10  1  0
  6 11  1  0
  7  8  1  0
  7 12  1  0
  7 13  1  0
  8 14  1  0
  8 15  1  0
M  RAD  1   3   2
M  END
>  <reaction>  (5) 
rmg_rxn_15390

>  <mol_properties>  (5) 
{"1": {"label": "*4", "atom_type": "N3d"}, "2": {"label": "*3", "atom_type": "Cd"}, "6": {"label": "*0", "atom_type": "Cs"}, "7": {"label": "*1", "atom_type": "N3s"}, "13": {"label": "*2", "atom_type": "H0"}}

>  <type>  (5) 
unop_1

>  <geom_source>  (5) 
crest_best.xyz

$$$$

     RDKit          3D

 15 13  0  0  0  0  0  0  0  0999 V2000
   -1.8719    2.3777    0.5693 O   0  0  0  0  0  0  0  0  0  0  0  0
   -1.4485    1.0749    0.7442 N   0  0  0  0  0  0  0  0  0  0  0  0
   -0.6603    0.7079   -0.1710 C   0  0  0  0  0  3  0  0  0  0  0  0
   -2.4528    2.5247    1.3183 H   0  0  0  0  0  0  0  0  0  0  0  0
   -0.3662    1.3619   -0.9892 H   0  0  0  0  0  0  0  0  0  0  0  0
    1.3572   -1.9226   -1.6117 C   0  0  0  0  0  0  0  0  0  0  0  0
    1.3572   -1.9226   -0.0864 C   0  0  0  0  0  0  0  0  0  0  0  0
    1.3572   -0.6087    0.5431 N   0  0  0  0  0  0  0  0  0  0  0  0
    2.2406   -1.4094   -1.9999 H   0  0  0  0  0  0  0  0  0  0  0  0
    0.4738   -1.4094   -1.9999 H   0  0  0  0  0  0  0  0  0  0  0  0
    1.3572   -2.9403   -2.0090 H   0  0  0  0  0  0  0  0  0  0  0  0
    2.2305   -2.4677    0.2804 H   0  0  0  0  0  0  0  0  0  0  0  0
    0.4839   -2.4677    0.2804 H   0  0  0  0  0  0  0  0  0  0  0  0
    0.3821    0.0277    0.1979 H   0  0  0  0  0  0  0  0  0  0  0  0
    2.1698   -0.0784    0.2554 H   0  0  0  0  0  0  0  0  0  0  0  0
  1  2  1  0
  1  4  1  0
  2  3  2  3
  3  5  1  0
  6  7  1  0
  6  9  1  0
  6 10  1  0
  6 11  1  0
  7  8  1  0
  7 12  1  0
  7 13  1  0
  8 14  1  0
  8 15  1  0
M  RAD  1   3   2
M  END
>  <reaction>  (6) 
rmg_rxn_15390

>  <mol_properties>  (6) 
{"1": {"label": "*4", "atom_type": "N3d"}, "2": {"label": "*3", "atom_type": "Cd"}, "6": {"label": "*0", "atom_type": "Cs"}, "7": {"label": "*1", "atom_type": "N3s"}, "13": {"label": "*2", "atom_type": "H0"}}

>  <type>  (6) 
unop_2

>  <geom_source>  (6) 
Heuristics

$$$$

     RDKit          3D

 15 13  0  0  0  0  0  0  0  0999 V2000
   -2.8468   -0.4137    0.0401 O   0  0  0  0  0  0  0  0  0  0  0  0
   -1.4904   -0.1198   -0.1859 N   0  0  0  0  0  0  0  0  0  0  0  0
   -0.9594    0.8926    0.2757 C   0  0  0  0  0  3  0  0  0  0  0  0
   -2.9997   -1.2432   -0.4337 H   0  0  0  0  0  0  0  0  0  0  0  0
   -1.3566    1.6931    0.8847 H   0  0  0  0  0  0  0  0  0  0  0  0
    1.8696   -1.3621   -0.0419 C   0  0  0  0  0  0  0  0  0  0  0  0
    2.2158    0.0808    0.3368 C   0  0  0  0  0  0  0  0  0  0  0  0
    1.4780    1.0899   -0.3622 N   0  0  0  0  0  0  0  0  0  0  0  0
    2.4784   -2.0589    0.5283 H   0  0  0  0  0  0  0  0  0  0  0  0
    2.0498   -1.5301   -1.1024 H   0  0  0  0  0  0  0  0  0  0  0  0
    0.8201   -1.5574    0.1657 H   0  0  0  0  0  0  0  0  0  0  0  0
    3.2810    0.2561    0.1277 H   0  0  0  0  0  0  0  0  0  0  0  0
    2.0617    0.2365    1.4091 H   0  0  0  0  0  0  0  0  0  0  0  0
    0.3006    1.0369   -0.0382 H   0  0  0  0  0  0  0  0  0  0  0  0
    1.4761    0.8834   -1.3593 H   0  0  0  0  0  0  0  0  0  0  0  0
  1  2  1  0
  1  4  1  0
  2  3  2  3
  3  5  1  0
  6  7  1  0
  6  9  1  0
  6 10  1  0
  6 11  1  0
  7  8  1  0
  7 12  1  0
  7 13  1  0
  8 14  1  0
  8 15  1  0
M  RAD  1   3   2
M  END
>  <reaction>  (7) 
rmg_rxn_15390

>  <mol_properties>  (7) 
{"1": {"label": "*4", "atom_type": "N3d"}, "2": {"label": "*3", "atom_type": "Cd"}, "6": {"label": "*0", "atom_type": "Cs"}, "7": {"label": "*1", "atom_type": "N3s"}, "13": {"label": "*2", "atom_type": "H0"}}

>  <type>  (7) 
unop_3

>  <geom_source>  (7) 
Heuristics

$$$$

     RDKit          3D

 15 13  0  0  0  0  0  0  0  0999 V2000
   -2.6044    1.2939   -0.0615 O   0  0  0  0  0  0  0  0  0  0  0  0
   -1.4704    0.5058   -0.0699 N   0  0  0  0  0  0  0  0  0  0  0  0
   -0.4329    1.1686    0.2089 C   0  0  0  0  0  3  0  0  0  0  0  0
   -3.3047    0.6777   -0.2847 H   0  0  0  0  0  0  0  0  0  0  0  0
   -0.4583    2.2343    0.4262 H   0  0  0  0  0  0  0  0  0  0  0  0
    1.5846   -1.4619   -1.2317 C   0  0  0  0  0  0  0  0  0  0  0  0
    1.5846   -1.4619    0.2935 C   0  0  0  0  0  0  0  0  0  0  0  0
    1.5846   -0.1480    0.9230 N   0  0  0  0  0  0  0  0  0  0  0  0
    2.4680   -0.9487   -1.6200 H   0  0  0  0  0  0  0  0  0  0  0  0
    0.7012   -0.9487   -1.6200 H   0  0  0  0  0  0  0  0  0  0  0  0
    1.5846   -2.4796   -1.6290 H   0  0  0  0  0  0  0  0  0  0  0  0
    2.4579   -2.0071    0.6603 H   0  0  0  0  0  0  0  0  0  0  0  0
    0.7113   -2.0071    0.6603 H   0  0  0  0  0  0  0  0  0  0  0  0
    0.6095    0.4883    0.5779 H   0  0  0  0  0  0  0  0  0  0  0  0
    2.3972    0.3823    0.6354 H   0  0  0  0  0  0  0  0  0  0  0  0
  1  2  1  0
  1  4  1  0
  2  3  2  3
  3  5  1  0
  6  7  1  0
  6  9  1  0
  6 10  1  0
  6 11  1  0
  7  8  1  0
  7 12  1  0
  7 13  1  0
  8 14  1  0
  8 15  1  0
M  RAD  1   3   2
M  END
>  <reaction>  (8) 
rmg_rxn_15390

>  <mol_properties>  (8) 
{"1": {"label": "*4", "atom_type": "N3d"}, "2": {"label": "*3", "atom_type": "Cd"}, "6": {"label": "*0", "atom_type": "Cs"}, "7": {"label": "*1", "atom_type": "N3s"}, "13": {"label": "*2", "atom_type": "H0"}}

>  <type>  (8) 
unop_4

>  <geom_source>  (8) 
Heuristics

$$$$

     RDKit          3D

 15 13  0  0  0  0  0  0  0  0999 V2000
   -2.8438   -0.4125    0.0382 O   0  0  0  0  0  0  0  0  0  0  0  0
   -1.4880   -0.1159   -0.1876 N   0  0  0  0  0  0  0  0  0  0  0  0
   -0.9560    0.8923    0.2820 C   0  0  0  0  0  3  0  0  0  0  0  0
   -2.9971   -1.2373   -0.4435 H   0  0  0  0  0  0  0  0  0  0  0  0
   -1.3514    1.6868    0.8999 H   0  0  0  0  0  0  0  0  0  0  0  0
    1.8582   -1.3639   -0.0385 C   0  0  0  0  0  0  0  0  0  0  0  0
    2.2174    0.0781    0.3322 C   0  0  0  0  0  0  0  0  0  0  0  0
    1.4794    1.0897   -0.3632 N   0  0  0  0  0  0  0  0  0  0  0  0
    0.8092   -1.5512    0.1794 H   0  0  0  0  0  0  0  0  0  0  0  0
    2.4673   -2.0630    0.5284 H   0  0  0  0  0  0  0  0  0  0  0  0
    2.0271   -1.5366   -1.1001 H   0  0  0  0  0  0  0  0  0  0  0  0
    3.2817    0.2454    0.1124 H   0  0  0  0  0  0  0  0  0  0  0  0
    2.0742    0.2382    1.4053 H   0  0  0  0  0  0  0  0  0  0  0  0
    0.3034    1.0381   -0.0346 H   0  0  0  0  0  0  0  0  0  0  0  0
    1.4729    0.8836   -1.3603 H   0  0  0  0  0  0  0  0  0  0  0  0
  1  2  1  0
  1  4  1  0
  2  3  2  3
  3  5  1  0
  6  7  1  0
  6  9  1  0
  6 10  1  0
  6 11  1  0
  7  8  1  0
  7 12  1  0
  7 13  1  0
  8 14  1  0
  8 15  1  0
M  RAD  1   3   2
M  END
>  <reaction>  (9) 
rmg_rxn_15390

>  <mol_properties>  (9) 
{"1": {"label": "*4", "atom_type": "N3d"}, "2": {"label": "*3", "atom_type": "Cd"}, "6": {"label": "*0", "atom_type": "Cs"}, "7": {"label": "*1", "atom_type": "N3s"}, "13": {"label": "*2", "atom_type": "H0"}}

>  <type>  (9) 
unop_5

>  <geom_source>  (9) 
Heuristics

$$$$

     RDKit          3D

 15 13  0  0  0  0  0  0  0  0999 V2000
   -1.7487    2.5254    0.1531 O   0  0  0  0  0  0  0  0  0  0  0  0
   -1.2054    1.4200    0.7777 N   0  0  0  0  0  0  0  0  0  0  0  0
   -0.7540    0.5831   -0.0525 C   0  0  0  0  0  3  0  0  0  0  0  0
   -2.0479    3.0690    0.8846 H   0  0  0  0  0  0  0  0  0  0  0  0
   -0.8007    0.7400   -1.1280 H   0  0  0  0  0  0  0  0  0  0  0  0
    1.2635   -2.0473   -1.4931 C   0  0  0  0  0  0  0  0  0  0  0  0
    1.2635   -2.0473    0.0321 C   0  0  0  0  0  0  0  0  0  0  0  0
    1.2635   -0.7334    0.6616 N   0  0  0  0  0  0  0  0  0  0  0  0
    2.1469   -1.5342   -1.8814 H   0  0  0  0  0  0  0  0  0  0  0  0
    0.3802   -1.5342   -1.8814 H   0  0  0  0  0  0  0  0  0  0  0  0
    1.2635   -3.0651   -1.8904 H   0  0  0  0  0  0  0  0  0  0  0  0
    2.1368   -2.5925    0.3989 H   0  0  0  0  0  0  0  0  0  0  0  0
    0.3902   -2.5925    0.3989 H   0  0  0  0  0  0  0  0  0  0  0  0
    0.2884   -0.0971    0.3165 H   0  0  0  0  0  0  0  0  0  0  0  0
    2.0761   -0.2031    0.3740 H   0  0  0  0  0  0  0  0  0  0  0  0
  1  2  1  0
  1  4  1  0
  2  3  2  3
  3  5  1  0
  6  7  1  0
  6  9  1  0
  6 10  1  0
  6 11  1  0
  7  8  1  0
  7 12  1  0
  7 13  1  0
  8 14  1  0
  8 15  1  0
M  RAD  1   3   2
M  END
>  <reaction>  (10) 
rmg_rxn_15390

>  <mol_properties>  (10) 
{"1": {"label": "*4", "atom_type": "N3d"}, "2": {"label": "*3", "atom_type": "Cd"}, "6": {"label": "*0", "atom_type": "Cs"}, "7": {"label": "*1", "atom_type": "N3s"}, "13": {"label": "*2", "atom_type": "H0"}}

>  <type>  (10) 
unop_6

>  <geom_source>  (10) 
Heuristics

$$$$

     RDKit          3D

 15 13  0  0  0  0  0  0  0  0999 V2000
   -1.5948    2.2095   -0.8904 O   0  0  0  0  0  0  0  0  0  0  0  0
   -0.9736    1.0011   -0.6431 N   0  0  0  0  0  0  0  0  0  0  0  0
   -0.8543    0.7760    0.5932 C   0  0  0  0  0  3  0  0  0  0  0  0
   -1.6205    2.2540   -1.8482 H   0  0  0  0  0  0  0  0  0  0  0  0
   -1.2084    1.4698    1.3527 H   0  0  0  0  0  0  0  0  0  0  0  0
    1.1631   -1.8544   -0.8474 C   0  0  0  0  0  0  0  0  0  0  0  0
    1.1631   -1.8544    0.6778 C   0  0  0  0  0  0  0  0  0  0  0  0
    1.1631   -0.5405    1.3073 N   0  0  0  0  0  0  0  0  0  0  0  0
    2.0465   -1.3413   -1.2357 H   0  0  0  0  0  0  0  0  0  0  0  0
    0.2798   -1.3413   -1.2357 H   0  0  0  0  0  0  0  0  0  0  0  0
    1.1631   -2.8722   -1.2447 H   0  0  0  0  0  0  0  0  0  0  0  0
    2.0364   -2.3996    1.0446 H   0  0  0  0  0  0  0  0  0  0  0  0
    0.2899   -2.3996    1.0446 H   0  0  0  0  0  0  0  0  0  0  0  0
    0.1880    0.0958    0.9622 H   0  0  0  0  0  0  0  0  0  0  0  0
    1.9757   -0.0103    1.0197 H   0  0  0  0  0  0  0  0  0  0  0  0
  1  2  1  0
  1  4  1  0
  2  3  2  3
  3  5  1  0
  6  7  1  0
  6  9  1  0
  6 10  1  0
  6 11  1  0
  7  8  1  0
  7 12  1  0
  7 13  1  0
  8 14  1  0
  8 15  1  0
M  RAD  1   3   2
M  END
>  <reaction>  (11) 
rmg_rxn_15390

>  <mol_properties>  (11) 
{"1": {"label": "*4", "atom_type": "N3d"}, "2": {"label": "*3", "atom_type": "Cd"}, "6": {"label": "*0", "atom_type": "Cs"}, "7": {"label": "*1", "atom_type": "N3s"}, "13": {"label": "*2", "atom_type": "H0"}}

>  <type>  (11) 
unop_7

>  <geom_source>  (11) 
Heuristics

$$$$

     RDKit          3D

 15 13  0  0  0  0  0  0  0  0999 V2000
   -2.8459   -0.4125    0.0389 O   0  0  0  0  0  0  0  0  0  0  0  0
   -1.4909   -0.1148   -0.1907 N   0  0  0  0  0  0  0  0  0  0  0  0
   -0.9558    0.8886    0.2855 C   0  0  0  0  0  3  0  0  0  0  0  0
   -3.0021   -1.2327   -0.4496 H   0  0  0  0  0  0  0  0  0  0  0  0
   -1.3472    1.6778    0.9127 H   0  0  0  0  0  0  0  0  0  0  0  0
    1.8636   -1.3630   -0.0373 C   0  0  0  0  0  0  0  0  0  0  0  0
    2.2183    0.0804    0.3318 C   0  0  0  0  0  0  0  0  0  0  0  0
    1.4779    1.0890   -0.3652 N   0  0  0  0  0  0  0  0  0  0  0  0
    2.4737   -2.0596    0.5318 H   0  0  0  0  0  0  0  0  0  0  0  0
    2.0349   -1.5368   -1.0983 H   0  0  0  0  0  0  0  0  0  0  0  0
    0.8148   -1.5529    0.1791 H   0  0  0  0  0  0  0  0  0  0  0  0
    3.2823    0.2506    0.1126 H   0  0  0  0  0  0  0  0  0  0  0  0
    2.0739    0.2414    1.4047 H   0  0  0  0  0  0  0  0  0  0  0  0
    0.3024    1.0359   -0.0352 H   0  0  0  0  0  0  0  0  0  0  0  0
    1.4709    0.8808   -1.3619 H   0  0  0  0  0  0  0  0  0  0  0  0
  1  2  1  0
  1  4  1  0
  2  3  2  3
  3  5  1  0
  6  7  1  0
  6  9  1  0
  6 10  1  0
  6 11  1  0
  7  8  1  0
  7 12  1  0
  7 13  1  0
  8 14  1  0
  8 15  1  0
M  RAD  1   3   2
M  END
>  <reaction>  (12) 
rmg_rxn_15390

>  <mol_properties>  (12) 
{"1": {"label": "*4", "atom_type": "N3d"}, "2": {"label": "*3", "atom_type": "Cd"}, "6": {"label": "*0", "atom_type": "Cs"}, "7": {"label": "*1", "atom_type": "N3s"}, "13": {"label": "*2", "atom_type": "H0"}}

>  <type>  (12) 
unop_8

>  <geom_source>  (12) 
Heuristics

$$$$

     RDKit          3D

 15 13  0  0  0  0  0  0  0  0999 V2000
   -2.0074    2.3602    0.0613 O   0  0  0  0  0  0  0  0  0  0  0  0
   -0.8687    1.7246    0.5158 N   0  0  0  0  0  0  0  0  0  0  0  0
   -0.7534    0.5627    0.0360 C   0  0  0  0  0  3  0  0  0  0  0  0
   -1.9722    3.2153    0.4944 H   0  0  0  0  0  0  0  0  0  0  0  0
   -1.4806    0.1375   -0.6524 H   0  0  0  0  0  0  0  0  0  0  0  0
    1.2641   -2.0677   -1.4046 C   0  0  0  0  0  0  0  0  0  0  0  0
    1.2641   -2.0677    0.1207 C   0  0  0  0  0  0  0  0  0  0  0  0
    1.2641   -0.7538    0.7501 N   0  0  0  0  0  0  0  0  0  0  0  0
    2.1475   -1.5546   -1.7928 H   0  0  0  0  0  0  0  0  0  0  0  0
    0.3807   -1.5545   -1.7929 H   0  0  0  0  0  0  0  0  0  0  0  0
    1.2641   -3.0855   -1.8019 H   0  0  0  0  0  0  0  0  0  0  0  0
    2.1374   -2.6129    0.4874 H   0  0  0  0  0  0  0  0  0  0  0  0
    0.3908   -2.6129    0.4874 H   0  0  0  0  0  0  0  0  0  0  0  0
    0.2890   -0.1175    0.4050 H   0  0  0  0  0  0  0  0  0  0  0  0
    2.0767   -0.2235    0.4625 H   0  0  0  0  0  0  0  0  0  0  0  0
  1  2  1  0
  1  4  1  0
  2  3  2  3
  3  5  1  0
  6  7  1  0
  6  9  1  0
  6 10  1  0
  6 11  1  0
  7  8  1  0
  7 12  1  0
  7 13  1  0
  8 14  1  0
  8 15  1  0
M  RAD  1   3   2
M  END
>  <reaction>  (13) 
rmg_rxn_15390

>  <mol_properties>  (13) 
{"1": {"label": "*4", "atom_type": "N3d"}, "2": {"label": "*3", "atom_type": "Cd"}, "6": {"label": "*0", "atom_type": "Cs"}, "7": {"label": "*1", "atom_type": "N3s"}, "13": {"label": "*2", "atom_type": "H0"}}

>  <type>  (13) 
unop_9

>  <geom_source>  (13) 
Heuristics

$$$$

     RDKit          3D

 15 13  0  0  0  0  0  0  0  0999 V2000
   -2.8440   -0.4138    0.0400 O   0  0  0  0  0  0  0  0  0  0  0  0
   -1.4871   -0.1199   -0.1834 N   0  0  0  0  0  0  0  0  0  0  0  0
   -0.9589    0.8971    0.2713 C   0  0  0  0  0  3  0  0  0  0  0  0
   -2.9938   -1.2475   -0.4275 H   0  0  0  0  0  0  0  0  0  0  0  0
   -1.3586    1.7021    0.8727 H   0  0  0  0  0  0  0  0  0  0  0  0
    1.8620   -1.3635   -0.0438 C   0  0  0  0  0  0  0  0  0  0  0  0
    2.2139    0.0773    0.3380 C   0  0  0  0  0  0  0  0  0  0  0  0
    1.4806    1.0908   -0.3597 N   0  0  0  0  0  0  0  0  0  0  0  0
    2.0430   -1.5303   -1.1044 H   0  0  0  0  0  0  0  0  0  0  0  0
    0.8112   -1.5543    0.1619 H   0  0  0  0  0  0  0  0  0  0  0  0
    2.4668   -2.0640    0.5261 H   0  0  0  0  0  0  0  0  0  0  0  0
    3.2800    0.2485    0.1300 H   0  0  0  0  0  0  0  0  0  0  0  0
    2.0593    0.2316    1.4103 H   0  0  0  0  0  0  0  0  0  0  0  0
    0.3026    1.0392   -0.0385 H   0  0  0  0  0  0  0  0  0  0  0  0
    1.4808    0.8873   -1.3574 H   0  0  0  0  0  0  0  0  0  0  0  0
  1  2  1  0
  1  4  1  0
  2  3  2  3
  3  5  1  0
  6  7  1  0
  6  9  1  0
  6 10  1  0
  6 11  1  0
  7  8  1  0
  7 12  1  0
  7 13  1  0
  8 14  1  0
  8 15  1  0
M  RAD  1   3   2
M  END
>  <reaction>  (14) 
rmg_rxn_15390

>  <mol_properties>  (14) 
{"1": {"label": "*4", "atom_type": "N3d"}, "2": {"label": "*3", "atom_type": "Cd"}, "6": {"label": "*0", "atom_type": "Cs"}, "7": {"label": "*1", "atom_type": "N3s"}, "13": {"label": "*2", "atom_type": "H0"}}

>  <type>  (14) 
unop_10

>  <geom_source>  (14) 
Heuristics

$$$$

     RDKit          3D

 15 13  0  0  0  0  0  0  0  0999 V2000
   -1.4310    2.5430   -0.4466 O   0  0  0  0  0  0  0  0  0  0  0  0
   -0.8133    1.3159   -0.5874 N   0  0  0  0  0  0  0  0  0  0  0  0
   -0.9412    0.6019    0.4456 C   0  0  0  0  0  3  0  0  0  0  0  0
   -1.2601    2.9751   -1.2858 H   0  0  0  0  0  0  0  0  0  0  0  0
   -1.4798    0.9389    1.3287 H   0  0  0  0  0  0  0  0  0  0  0  0
    1.0763   -2.0286   -0.9950 C   0  0  0  0  0  0  0  0  0  0  0  0
    1.0763   -2.0286    0.5303 C   0  0  0  0  0  0  0  0  0  0  0  0
    1.0763   -0.7147    1.1597 N   0  0  0  0  0  0  0  0  0  0  0  0
    1.9597   -1.5154   -1.3832 H   0  0  0  0  0  0  0  0  0  0  0  0
    0.1929   -1.5154   -1.3832 H   0  0  0  0  0  0  0  0  0  0  0  0
    1.0763   -3.0463   -1.3923 H   0  0  0  0  0  0  0  0  0  0  0  0
    1.9496   -2.5737    0.8970 H   0  0  0  0  0  0  0  0  0  0  0  0
    0.2030   -2.5737    0.8970 H   0  0  0  0  0  0  0  0  0  0  0  0
    0.1012   -0.0783    0.8146 H   0  0  0  0  0  0  0  0  0  0  0  0
    1.8889   -0.1844    0.8721 H   0  0  0  0  0  0  0  0  0  0  0  0
  1  2  1  0
  1  4  1  0
  2  3  2  3
  3  5  1  0
  6  7  1  0
  6  9  1  0
  6 10  1  0
  6 11  1  0
  7  8  1  0
  7 12  1  0
  7 13  1  0
  8 14  1  0
  8 15  1  0
M  RAD  1   3   2
M  END
>  <reaction>  (15) 
rmg_rxn_15390

>  <mol_properties>  (15) 
{"1": {"label": "*4", "atom_type": "N3d"}, "2": {"label": "*3", "atom_type": "Cd"}, "6": {"label": "*0", "atom_type": "Cs"}, "7": {"label": "*1", "atom_type": "N3s"}, "13": {"label": "*2", "atom_type": "H0"}}

>  <type>  (15) 
unop_11

>  <geom_source>  (15) 
Heuristics

$$$$

     RDKit          3D

 15 13  0  0  0  0  0  0  0  0999 V2000
   -2.8443   -0.4132    0.0394 O   0  0  0  0  0  0  0  0  0  0  0  0
   -1.4872   -0.1198   -0.1835 N   0  0  0  0  0  0  0  0  0  0  0  0
   -0.9585    0.8961    0.2731 C   0  0  0  0  0  3  0  0  0  0  0  0
   -2.9946   -1.2459   -0.4296 H   0  0  0  0  0  0  0  0  0  0  0  0
   -1.3583    1.7003    0.8756 H   0  0  0  0  0  0  0  0  0  0  0  0
    1.8614   -1.3635   -0.0429 C   0  0  0  0  0  0  0  0  0  0  0  0
    2.2149    0.0775    0.3366 C   0  0  0  0  0  0  0  0  0  0  0  0
    1.4803    1.0907   -0.3601 N   0  0  0  0  0  0  0  0  0  0  0  0
    0.8111   -1.5536    0.1657 H   0  0  0  0  0  0  0  0  0  0  0  0
    2.4674   -2.0638    0.5261 H   0  0  0  0  0  0  0  0  0  0  0  0
    2.0395   -1.5314   -1.1038 H   0  0  0  0  0  0  0  0  0  0  0  0
    3.2805    0.2480    0.1257 H   0  0  0  0  0  0  0  0  0  0  0  0
    2.0632    0.2329    1.4093 H   0  0  0  0  0  0  0  0  0  0  0  0
    0.3026    1.0388   -0.0377 H   0  0  0  0  0  0  0  0  0  0  0  0
    1.4793    0.8871   -1.3578 H   0  0  0  0  0  0  0  0  0  0  0  0
  1  2  1  0
  1  4  1  0
  2  3  2  3
  3  5  1  0
  6  7  1  0
  6  9  1  0
  6 10  1  0
  6 11  1  0
  7  8  1  0
  7 12  1  0
  7 13  1  0
  8 14  1  0
  8 15  1  0
M  RAD  1   3   2
M  END
>  <reaction>  (16) 
rmg_rxn_15390

>  <mol_properties>  (16) 
{"1": {"label": "*4", "atom_type": "N3d"}, "2": {"label": "*3", "atom_type": "Cd"}, "6": {"label": "*0", "atom_type": "Cs"}, "7": {"label": "*1", "atom_type": "N3s"}, "13": {"label": "*2", "atom_type": "H0"}}

>  <type>  (16) 
unop_12

>  <geom_source>  (16) 
Heuristics

$$$$

     RDKit          3D

 15 13  0  0  0  0  0  0  0  0999 V2000
   -1.5459    2.6120    0.0802 O   0  0  0  0  0  0  0  0  0  0  0  0
   -0.7109    1.6050   -0.3624 N   0  0  0  0  0  0  0  0  0  0  0  0
   -0.9300    0.5140    0.2336 C   0  0  0  0  0  3  0  0  0  0  0  0
   -1.2780    3.3691   -0.4442 H   0  0  0  0  0  0  0  0  0  0  0  0
   -1.6933    0.4081    1.0016 H   0  0  0  0  0  0  0  0  0  0  0  0
    1.0875   -2.1164   -1.2070 C   0  0  0  0  0  0  0  0  0  0  0  0
    1.0875   -2.1164    0.3182 C   0  0  0  0  0  0  0  0  0  0  0  0
    1.0875   -0.8025    0.9477 N   0  0  0  0  0  0  0  0  0  0  0  0
    1.9709   -1.6033   -1.5953 H   0  0  0  0  0  0  0  0  0  0  0  0
    0.2041   -1.6033   -1.5953 H   0  0  0  0  0  0  0  0  0  0  0  0
    1.0875   -3.1342   -1.6043 H   0  0  0  0  0  0  0  0  0  0  0  0
    1.9608   -2.6616    0.6850 H   0  0  0  0  0  0  0  0  0  0  0  0
    0.2142   -2.6616    0.6850 H   0  0  0  0  0  0  0  0  0  0  0  0
    0.1124   -0.1662    0.6026 H   0  0  0  0  0  0  0  0  0  0  0  0
    1.9001   -0.2722    0.6601 H   0  0  0  0  0  0  0  0  0  0  0  0
  1  2  1  0
  1  4  1  0
  2  3  2  3
  3  5  1  0
  6  7  1  0
  6  9  1  0
  6 10  1  0
  6 11  1  0
  7  8  1  0
  7 12  1  0
  7 13  1  0
  8 14  1  0
  8 15  1  0
M  RAD  1   3   2
M  END
>  <reaction>  (17) 
rmg_rxn_15390

>  <mol_properties>  (17) 
{"1": {"label": "*4", "atom_type": "N3d"}, "2": {"label": "*3", "atom_type": "Cd"}, "6": {"label": "*0", "atom_type": "Cs"}, "7": {"label": "*1", "atom_type": "N3s"}, "13": {"label": "*2", "atom_type": "H0"}}

>  <type>  (17) 
unop_13

>  <geom_source>  (17) 
Heuristics

$$$$

     RDKit          3D

 15 13  0  0  0  0  0  0  0  0999 V2000
   -2.2113    1.9822    0.7240 O   0  0  0  0  0  0  0  0  0  0  0  0
   -1.5655    0.7753    0.5410 N   0  0  0  0  0  0  0  0  0  0  0  0
   -0.5302    0.8973   -0.1709 C   0  0  0  0  0  3  0  0  0  0  0  0
   -2.9644    1.7503    1.2710 H   0  0  0  0  0  0  0  0  0  0  0  0
   -0.2081    1.8529   -0.5791 H   0  0  0  0  0  0  0  0  0  0  0  0
    1.4873   -1.7332   -1.6116 C   0  0  0  0  0  0  0  0  0  0  0  0
    1.4873   -1.7332   -0.0863 C   0  0  0  0  0  0  0  0  0  0  0  0
    1.4873   -0.4193    0.5431 N   0  0  0  0  0  0  0  0  0  0  0  0
    2.3707   -1.2200   -1.9998 H   0  0  0  0  0  0  0  0  0  0  0  0
    0.6039   -1.2200   -1.9998 H   0  0  0  0  0  0  0  0  0  0  0  0
    1.4873   -2.7509   -2.0089 H   0  0  0  0  0  0  0  0  0  0  0  0
    2.3606   -2.2783    0.2805 H   0  0  0  0  0  0  0  0  0  0  0  0
    0.6140   -2.2783    0.2805 H   0  0  0  0  0  0  0  0  0  0  0  0
    0.5122    0.2171    0.1980 H   0  0  0  0  0  0  0  0  0  0  0  0
    2.2999    0.1110    0.2555 H   0  0  0  0  0  0  0  0  0  0  0  0
  1  2  1  0
  1  4  1  0
  2  3  2  3
  3  5  1  0
  6  7  1  0
  6  9  1  0
  6 10  1  0
  6 11  1  0
  7  8  1  0
  7 12  1  0
  7 13  1  0
  8 14  1  0
  8 15  1  0
M  RAD  1   3   2
M  END
>  <reaction>  (18) 
rmg_rxn_15390

>  <mol_properties>  (18) 
{"1": {"label": "*4", "atom_type": "N3d"}, "2": {"label": "*3", "atom_type": "Cd"}, "6": {"label": "*0", "atom_type": "Cs"}, "7": {"label": "*1", "atom_type": "N3s"}, "13": {"label": "*2", "atom_type": "H0"}}

>  <type>  (18) 
unop_14

>  <geom_source>  (18) 
Heuristics

$$$$

     RDKit          3D

 15 13  0  0  0  0  0  0  0  0999 V2000
   -2.8403   -0.4141    0.0400 O   0  0  0  0  0  0  0  0  0  0  0  0
   -1.4807   -0.1250   -0.1736 N   0  0  0  0  0  0  0  0  0  0  0  0
   -0.9610    0.9072    0.2558 C   0  0  0  0  0  3  0  0  0  0  0  0
   -2.9821   -1.2630   -0.4017 H   0  0  0  0  0  0  0  0  0  0  0  0
   -1.3714    1.7300    0.8252 H   0  0  0  0  0  0  0  0  0  0  0  0
    1.8537   -1.3648   -0.0513 C   0  0  0  0  0  0  0  0  0  0  0  0
    2.2091    0.0717    0.3434 C   0  0  0  0  0  0  0  0  0  0  0  0
    1.4850    1.0932   -0.3522 N   0  0  0  0  0  0  0  0  0  0  0  0
    0.8005   -1.5518    0.1452 H   0  0  0  0  0  0  0  0  0  0  0  0
    2.4510   -2.0722    0.5183 H   0  0  0  0  0  0  0  0  0  0  0  0
    2.0420   -1.5250   -1.1116 H   0  0  0  0  0  0  0  0  0  0  0  0
    3.2773    0.2398    0.1441 H   0  0  0  0  0  0  0  0  0  0  0  0
    2.0476    0.2190    1.4157 H   0  0  0  0  0  0  0  0  0  0  0  0
    0.3041    1.0441   -0.0411 H   0  0  0  0  0  0  0  0  0  0  0  0
    1.4926    0.8974   -1.3515 H   0  0  0  0  0  0  0  0  0  0  0  0
  1  2  1  0
  1  4  1  0
  2  3  2  3
  3  5  1  0
  6  7  1  0
  6  9  1  0
  6 10  1  0
  6 11  1  0
  7  8  1  0
  7 12  1  0
  7 13  1  0
  8 14  1  0
  8 15  1  0
M  RAD  1   3   2
M  END
>  <reaction>  (19) 
rmg_rxn_15390

>  <mol_properties>  (19) 
{"1": {"label": "*4", "atom_type": "N3d"}, "2": {"label": "*3", "atom_type": "Cd"}, "6": {"label": "*0", "atom_type": "Cs"}, "7": {"label": "*1", "atom_type": "N3s"}, "13": {"label": "*2", "atom_type": "H0"}}

>  <type>  (19) 
unop_15

>  <geom_source>  (19) 
Heuristics

$$$$

     RDKit          3D

 15 13  0  0  0  0  0  0  0  0999 V2000
   -1.9784    1.7438   -1.0006 O   0  0  0  0  0  0  0  0  0  0  0  0
   -1.1525    0.7343   -0.5470 N   0  0  0  0  0  0  0  0  0  0  0  0
   -0.6965    0.9791    0.6044 C   0  0  0  0  0  3  0  0  0  0  0  0
   -2.2496    1.4360   -1.8676 H   0  0  0  0  0  0  0  0  0  0  0  0
   -0.9420    1.8866    1.1519 H   0  0  0  0  0  0  0  0  0  0  0  0
    1.3210   -1.6513   -0.8363 C   0  0  0  0  0  0  0  0  0  0  0  0
    1.3210   -1.6513    0.6890 C   0  0  0  0  0  0  0  0  0  0  0  0
    1.3210   -0.3374    1.3185 N   0  0  0  0  0  0  0  0  0  0  0  0
    2.2044   -1.1382   -1.2245 H   0  0  0  0  0  0  0  0  0  0  0  0
    0.4376   -1.1382   -1.2245 H   0  0  0  0  0  0  0  0  0  0  0  0
    1.3210   -2.6691   -1.2335 H   0  0  0  0  0  0  0  0  0  0  0  0
    2.1943   -2.1965    1.0558 H   0  0  0  0  0  0  0  0  0  0  0  0
    0.4477   -2.1965    1.0558 H   0  0  0  0  0  0  0  0  0  0  0  0
    0.3459    0.2989    0.9733 H   0  0  0  0  0  0  0  0  0  0  0  0
    2.1336    0.1928    1.0309 H   0  0  0  0  0  0  0  0  0  0  0  0
  1  2  1  0
  1  4  1  0
  2  3  2  3
  3  5  1  0
  6  7  1  0
  6  9  1  0
  6 10  1  0
  6 11  1  0
  7  8  1  0
  7 12  1  0
  7 13  1  0
  8 14  1  0
  8 15  1  0
M  RAD  1   3   2
M  END
>  <reaction>  (20) 
rmg_rxn_15390

>  <mol_properties>  (20) 
{"1": {"label": "*4", "atom_type": "N3d"}, "2": {"label": "*3", "atom_type": "Cd"}, "6": {"label": "*0", "atom_type": "Cs"}, "7": {"label": "*1", "atom_type": "N3s"}, "13": {"label": "*2", "atom_type": "H0"}}

>  <type>  (20) 
unop_16

>  <geom_source>  (20) 
Heuristics

$$$$

     RDKit          3D

 15 13  0  0  0  0  0  0  0  0999 V2000
   -2.5143    1.5486    0.4891 O   0  0  0  0  0  0  0  0  0  0  0  0
   -1.5649    0.5761    0.2440 N   0  0  0  0  0  0  0  0  0  0  0  0
   -0.4384    1.0750   -0.0309 C   0  0  0  0  0  3  0  0  0  0  0  0
   -3.3062    1.0424    0.6808 H   0  0  0  0  0  0  0  0  0  0  0  0
   -0.2643    2.1484   -0.0637 H   0  0  0  0  0  0  0  0  0  0  0  0
    1.5791   -1.5555   -1.4715 C   0  0  0  0  0  0  0  0  0  0  0  0
    1.5791   -1.5555    0.0538 C   0  0  0  0  0  0  0  0  0  0  0  0
    1.5791   -0.2416    0.6832 N   0  0  0  0  0  0  0  0  0  0  0  0
    2.4625   -1.0423   -1.8597 H   0  0  0  0  0  0  0  0  0  0  0  0
    0.6957   -1.0423   -1.8597 H   0  0  0  0  0  0  0  0  0  0  0  0
    1.5791   -2.5732   -1.8688 H   0  0  0  0  0  0  0  0  0  0  0  0
    2.4524   -2.1006    0.4205 H   0  0  0  0  0  0  0  0  0  0  0  0
    0.7058   -2.1006    0.4205 H   0  0  0  0  0  0  0  0  0  0  0  0
    0.6040    0.3948    0.3381 H   0  0  0  0  0  0  0  0  0  0  0  0
    2.3917    0.2887    0.3956 H   0  0  0  0  0  0  0  0  0  0  0  0
  1  2  1  0
  1  4  1  0
  2  3  2  3
  3  5  1  0
  6  7  1  0
  6  9  1  0
  6 10  1  0
  6 11  1  0
  7  8  1  0
  7 12  1  0
  7 13  1  0
  8 14  1  0
  8 15  1  0
M  RAD  1   3   2
M  END
>  <reaction>  (21) 
rmg_rxn_15390

>  <mol_properties>  (21) 
{"1": {"label": "*4", "atom_type": "N3d"}, "2": {"label": "*3", "atom_type": "Cd"}, "6": {"label": "*0", "atom_type": "Cs"}, "7": {"label": "*1", "atom_type": "N3s"}, "13": {"label": "*2", "atom_type": "H0"}}

>  <type>  (21) 
unop_17

>  <geom_source>  (21) 
Heuristics

$$$$

     RDKit          3D

 15 13  0  0  0  0  0  0  0  0999 V2000
   -1.8759    2.4339    0.3440 O   0  0  0  0  0  0  0  0  0  0  0  0
   -0.7018    1.7820    0.0222 N   0  0  0  0  0  0  0  0  0  0  0  0
   -0.8319    0.5271    0.0645 C   0  0  0  0  0  3  0  0  0  0  0  0
   -1.6411    3.3613    0.2744 H   0  0  0  0  0  0  0  0  0  0  0  0
   -1.7703    0.0431    0.3267 H   0  0  0  0  0  0  0  0  0  0  0  0
    1.1855   -2.1034   -1.3761 C   0  0  0  0  0  0  0  0  0  0  0  0
    1.1855   -2.1034    0.1491 C   0  0  0  0  0  0  0  0  0  0  0  0
    1.1855   -0.7895    0.7786 N   0  0  0  0  0  0  0  0  0  0  0  0
    2.0689   -1.5902   -1.7644 H   0  0  0  0  0  0  0  0  0  0  0  0
    0.3022   -1.5902   -1.7644 H   0  0  0  0  0  0  0  0  0  0  0  0
    1.1855   -3.1211   -1.7734 H   0  0  0  0  0  0  0  0  0  0  0  0
    2.0588   -2.6485    0.5159 H   0  0  0  0  0  0  0  0  0  0  0  0
    0.3123   -2.6485    0.5159 H   0  0  0  0  0  0  0  0  0  0  0  0
    0.2104   -0.1531    0.4335 H   0  0  0  0  0  0  0  0  0  0  0  0
    1.9981   -0.2592    0.4910 H   0  0  0  0  0  0  0  0  0  0  0  0
  1  2  1  0
  1  4  1  0
  2  3  2  3
  3  5  1  0
  6  7  1  0
  6  9  1  0
  6 10  1  0
  6 11  1  0
  7  8  1  0
  7 12  1  0
  7 13  1  0
  8 14  1  0
  8 15  1  0
M  RAD  1   3   2
M  END
>  <reaction>  (22) 
rmg_rxn_15390

>  <mol_properties>  (22) 
{"1": {"label": "*4", "atom_type": "N3d"}, "2": {"label": "*3", "atom_type": "Cd"}, "6": {"label": "*0", "atom_type": "Cs"}, "7": {"label": "*1", "atom_type": "N3s"}, "13": {"label": "*2", "atom_type": "H0"}}

>  <type>  (22) 
unop_18

>  <geom_source>  (22) 
Heuristics

$$$$

     RDKit          3D

 15 13  0  0  0  0  0  0  0  0999 V2000
   -2.3946    1.3695   -0.6714 O   0  0  0  0  0  0  0  0  0  0  0  0
   -1.3228    0.5627   -0.3435 N   0  0  0  0  0  0  0  0  0  0  0  0
   -0.5308    1.1324    0.4574 C   0  0  0  0  0  3  0  0  0  0  0  0
   -2.9062    0.8253   -1.2731 H   0  0  0  0  0  0  0  0  0  0  0  0
   -0.6975    2.1411    0.8294 H   0  0  0  0  0  0  0  0  0  0  0  0
    1.4867   -1.4980   -0.9833 C   0  0  0  0  0  0  0  0  0  0  0  0
    1.4867   -1.4980    0.5420 C   0  0  0  0  0  0  0  0  0  0  0  0
    1.4867   -0.1841    1.1715 N   0  0  0  0  0  0  0  0  0  0  0  0
    2.3701   -0.9848   -1.3715 H   0  0  0  0  0  0  0  0  0  0  0  0
    0.6034   -0.9848   -1.3715 H   0  0  0  0  0  0  0  0  0  0  0  0
    1.4867   -2.5157   -1.3806 H   0  0  0  0  0  0  0  0  0  0  0  0
    2.3600   -2.0432    0.9088 H   0  0  0  0  0  0  0  0  0  0  0  0
    0.6135   -2.0432    0.9088 H   0  0  0  0  0  0  0  0  0  0  0  0
    0.5116    0.4522    0.8263 H   0  0  0  0  0  0  0  0  0  0  0  0
    2.2993    0.3462    0.8838 H   0  0  0  0  0  0  0  0  0  0  0  0
  1  2  1  0
  1  4  1  0
  2  3  2  3
  3  5  1  0
  6  7  1  0
  6  9  1  0
  6 10  1  0
  6 11  1  0
  7  8  1  0
  7 12  1  0
  7 13  1  0
  8 14  1  0
  8 15  1  0
M  RAD  1   3   2
M  END
>  <reaction>  (23) 
rmg_rxn_15390

>  <mol_properties>  (23) 
{"1": {"label": "*4", "atom_type": "N3d"}, "2": {"label": "*3", "atom_type": "Cd"}, "6": {"label": "*0", "atom_type": "Cs"}, "7": {"label": "*1", "atom_type": "N3s"}, "13": {"label": "*2", "atom_type": "H0"}}

>  <type>  (23) 
unop_19

>  <geom_source>  (23) 
Heuristics

$$$$

     RDKit          3D

 15 13  0  0  0  0  0  0  0  0999 V2000
   -2.6044    1.2939   -0.0615 O   0  0  0  0  0  0  0  0  0  0  0  0
   -1.4704    0.5058   -0.0699 N   0  0  0  0  0  0  0  0  0  0  0  0
   -0.4329    1.1685    0.2089 C   0  0  0  0  0  3  0  0  0  0  0  0
   -3.3047    0.6777   -0.2847 H   0  0  0  0  0  0  0  0  0  0  0  0
   -0.4583    2.2343    0.4262 H   0  0  0  0  0  0  0  0  0  0  0  0
    1.5846   -1.4619   -1.2317 C   0  0  0  0  0  0  0  0  0  0  0  0
    1.5846   -1.4619    0.2935 C   0  0  0  0  0  0  0  0  0  0  0  0
    1.5846   -0.1480    0.9230 N   0  0  0  0  0  0  0  0  0  0  0  0
    2.4680   -0.9487   -1.6200 H   0  0  0  0  0  0  0  0  0  0  0  0
    0.7012   -0.9487   -1.6200 H   0  0  0  0  0  0  0  0  0  0  0  0
    1.5846   -2.4796   -1.6290 H   0  0  0  0  0  0  0  0  0  0  0  0
    2.4579   -2.0071    0.6603 H   0  0  0  0  0  0  0  0  0  0  0  0
    0.7113   -2.0071    0.6603 H   0  0  0  0  0  0  0  0  0  0  0  0
    0.6095    0.4883    0.5779 H   0  0  0  0  0  0  0  0  0  0  0  0
    2.3972    0.3823    0.6354 H   0  0  0  0  0  0  0  0  0  0  0  0
  1  2  1  0
  1  4  1  0
  2  3  2  3
  3  5  1  0
  6  7  1  0
  6  9  1  0
  6 10  1  0
  6 11  1  0
  7  8  1  0
  7 12  1  0
  7 13  1  0
  8 14  1  0
  8 15  1  0
M  RAD  1   3   2
M  END
>  <reaction>  (24) 
rmg_rxn_15390

>  <mol_properties>  (24) 
{"1": {"label": "*4", "atom_type": "N3d"}, "2": {"label": "*3", "atom_type": "Cd"}, "6": {"label": "*0", "atom_type": "Cs"}, "7": {"label": "*1", "atom_type": "N3s"}, "13": {"label": "*2", "atom_type": "H0"}}

>  <type>  (24) 
unop_20

>  <geom_source>  (24) 
gaussian_log

$$$$
