
     RDKit          3D

 10  9  0  0  0  0  0  0  0  0999 V2000
    2.0405   -0.0560    0.0128 C   0  0  0  0  0  0  0  0  0  0  0  0
    0.5946   -0.0163    0.1900 C   0  0  0  0  0  0  0  0  0  0  0  0
   -0.5946    0.0163    0.3357 C   0  0  0  0  0  0  0  0  0  0  0  0
   -2.0405    0.0560    0.5130 C   0  0  0  0  0  0  0  0  0  0  0  0
    2.4796    0.9302    0.1730 H   0  0  0  0  0  0  0  0  0  0  0  0
    2.3003   -0.3811   -0.9961 H   0  0  0  0  0  0  0  0  0  0  0  0
    2.5005   -0.7489    0.7194 H   0  0  0  0  0  0  0  0  0  0  0  0
   -2.5526   -0.2927   -0.3855 H   0  0  0  0  0  0  0  0  0  0  0  0
   -2.3794    1.0722    0.7215 H   0  0  0  0  0  0  0  0  0  0  0  0
   -2.3483   -0.5797    1.3449 H   0  0  0  0  0  0  0  0  0  0  0  0
  1  2  1  0
  1  5  1  0
  1  6  1  0
  1  7  1  0
  2  3  3  0
  3  4  1  0
  4  8  1  0
  4  9  1  0
  4 10  1  0
M  END
>  <reaction>  (1) 
rmg_rxn_191

>  <mol_properties>  (1) 
{"3": {"label": "donator", "atom_type": "Cs"}, "9": {"label": "d_hydrogen", "atom_type": "H0"}}

>  <type>  (1) 
r1h

$$$$

     RDKit          3D

 13 13  0  0  0  0  0  0  0  0999 V2000
   -1.1371    0.3608    0.3110 C   0  0  0  0  0  3  0  0  0  0  0  0
   -0.0045    1.3224    0.2943 C   0  0  0  0  0  0  0  0  0  0  0  0
    1.2245    0.6965    0.6137 O   0  0  0  0  0  0  0  0  0  0  0  0
    1.3926   -0.4921   -0.0955 C   0  0  0  0  0  0  0  0  0  0  0  0
    0.4387   -1.4537    0.2351 O   0  0  0  0  0  0  0  0  0  0  0  0
   -0.8659   -1.0349   -0.1206 C   0  0  0  0  0  0  0  0  0  0  0  0
   -2.1544    0.7285    0.3341 H   0  0  0  0  0  0  0  0  0  0  0  0
   -0.1488    2.1272    1.0165 H   0  0  0  0  0  0  0  0  0  0  0  0
    0.0825    1.7949   -0.7036 H   0  0  0  0  0  0  0  0  0  0  0  0
    1.3549   -0.2872   -1.1815 H   0  0  0  0  0  0  0  0  0  0  0  0
    2.3646   -0.8956    0.1787 H   0  0  0  0  0  0  0  0  0  0  0  0
   -1.5620   -1.7401    0.3358 H   0  0  0  0  0  0  0  0  0  0  0  0
   -0.9852   -1.1268   -1.2179 H   0  0  0  0  0  0  0  0  0  0  0  0
  1  2  1  0
  1  6  1  0
  1  7  1  0
  2  3  1  0
  2  8  1  0
  2  9  1  0
  3  4  1  0
  4  5  1  0
  4 10  1  0
  4 11  1  0
  5  6  1  0
  6 12  1  0
  6 13  1  0
M  RAD  1   1   2
M  END
>  <reaction>  (2) 
rmg_rxn_191

>  <mol_properties>  (2) 
{"0": {"label": "acceptor", "atom_type": "Cs"}}

>  <type>  (2) 
r2

$$$$

     RDKit          3D

 14 14  0  0  0  0  0  0  0  0999 V2000
   -1.1778    0.2241    0.1818 C   0  0  0  0  0  0  0  0  0  0  0  0
   -0.5633   -1.1636    0.0678 C   0  0  0  0  0  0  0  0  0  0  0  0
    0.6943   -1.1996    0.7146 O   0  0  0  0  0  0  0  0  0  0  0  0
    1.5547   -0.2288    0.2011 C   0  0  0  0  0  0  0  0  0  0  0  0
    1.0729    1.0696    0.3698 O   0  0  0  0  0  0  0  0  0  0  0  0
   -0.1607    1.2493   -0.2989 C   0  0  0  0  0  0  0  0  0  0  0  0
   -2.0927    0.2866   -0.4117 H   0  0  0  0  0  0  0  0  0  0  0  0
   -1.4303    0.4248    1.2248 H   0  0  0  0  0  0  0  0  0  0  0  0
   -1.1822   -1.9235    0.5431 H   0  0  0  0  0  0  0  0  0  0  0  0
   -0.4389   -1.4347   -0.9919 H   0  0  0  0  0  0  0  0  0  0  0  0
    1.7250   -0.4207   -0.8742 H   0  0  0  0  0  0  0  0  0  0  0  0
    2.4896   -0.3010    0.7524 H   0  0  0  0  0  0  0  0  0  0  0  0
   -0.0080    1.1481   -1.3844 H   0  0  0  0  0  0  0  0  0  0  0  0
   -0.4826    2.2695   -0.0942 H   0  0  0  0  0  0  0  0  0  0  0  0
  1  2  1  0
  1  6  1  0
  1  7  1  0
  1  8  1  0
  2  3  1  0
  2  9  1  0
  2 10  1  0
  3  4  1  0
  4  5  1  0
  4 11  1  0
  4 12  1  0
  5  6  1  0
  6 13  1  0
  6 14  1  0
M  END
>  <reaction>  (3) 
rmg_rxn_191

>  <mol_properties>  (3) 
{"0": {"label": "a_hydrogen", "atom_type": "H0"}, "1": {"label": "acceptor", "atom_type": "Cs"}}

>  <type>  (3) 
r2h

$$$$

     RDKit          3D

 23 22  0  0  0  0  0  0  0  0999 V2000
    1.0022   -2.0418   -3.2091 C   0  0  0  0  0  0  0  0  0  0  0  0
    1.1749   -0.7452   -2.5702 C   0  0  0  0  0  0  0  0  0  0  0  0
    1.3268    0.3316   -2.0545 C   0  0  0  0  0  0  0  0  0  0  0  0
    1.4566    1.5788   -1.3711 C   0  0  0  0  0  0  0  0  0  0  0  0
    0.4113   -1.9501   -4.1219 H   0  0  0  0  0  0  0  0  0  0  0  0
    0.4885   -2.7386   -2.5437 H   0  0  0  0  0  0  0  0  0  0  0  0
    1.9675   -2.4777   -3.4721 H   0  0  0  0  0  0  0  0  0  0  0  0
    0.9730    2.4181   -1.8676 H   0  0  0  0  0  0  0  0  0  0  0  0
    2.4720    1.8215   -1.0633 H   0  0  0  0  0  0  0  0  0  0  0  0
    0.8110    1.4695   -0.2491 H   0  0  0  0  0  0  0  0  0  0  0  0
    0.0712    1.1656    0.9016 C   0  0  0  0  0  3  0  0  0  0  0  0
   -1.2953    0.7988    0.3864 C   0  0  0  0  0  0  0  0  0  0  0  0
   -2.0227    0.0922    1.3849 O   0  0  0  0  0  0  0  0  0  0  0  0
   -1.3090   -1.0218    1.8282 C   0  0  0  0  0  0  0  0  0  0  0  0
   -0.0907   -0.6880    2.4208 O   0  0  0  0  0  0  0  0  0  0  0  0
    0.7654   -0.0334    1.4912 C   0  0  0  0  0  0  0  0  0  0  0  0
    0.1045    2.0630    1.5155 H   0  0  0  0  0  0  0  0  0  0  0  0
   -1.8890    1.6739    0.1283 H   0  0  0  0  0  0  0  0  0  0  0  0
   -1.1980    0.1656   -0.5085 H   0  0  0  0  0  0  0  0  0  0  0  0
   -1.1293   -1.7053    0.9782 H   0  0  0  0  0  0  0  0  0  0  0  0
   -1.9142   -1.5108    2.5887 H   0  0  0  0  0  0  0  0  0  0  0  0
    1.0374   -0.7373    0.6901 H   0  0  0  0  0  0  0  0  0  0  0  0
    1.6684    0.2372    2.0355 H   0  0  0  0  0  0  0  0  0  0  0  0
  1  2  1  0
  1  5  1  0
  1  6  1  0
  1  7  1  0
  2  3  3  0
  3  4  1  0
  4  8  1  0
  4  9  1  0
  4 10  1  0
 11 12  1  0
 11 16  1  0
 11 17  1  0
 12 13  1  0
 12 18  1  0
 12 19  1  0
 13 14  1  0
 14 15  1  0
 14 20  1  0
 14 21  1  0
 15 16  1  0
 16 22  1  0
 16 23  1  0
M  RAD  1  11   2
M  END
>  <reaction>  (4) 
rmg_rxn_191

>  <mol_properties>  (4) 
{"2": {"label": "*0", "atom_type": "Ct"}, "3": {"label": "*1", "atom_type": "Cs"}, "9": {"label": "*2", "atom_type": "H0"}, "10": {"label": "*3", "atom_type": "Cs"}, "11": {"label": "*4", "atom_type": "Cs"}}

>  <type>  (4) 
ts

$$$$

     RDKit          3D

 23 22  0  0  0  0  0  0  0  0999 V2000
    1.5499   -0.2906   -4.8142 C   0  0  0  0  0  0  0  0  0  0  0  0
    1.5499   -0.2906   -3.3569 C   0  0  0  0  0  0  0  0  0  0  0  0
    1.5499   -0.2906   -2.1584 C   0  0  0  0  0  0  0  0  0  0  0  0
    1.5499   -0.2906   -0.7012 C   0  0  0  0  0  0  0  0  0  0  0  0
    1.8624   -1.2610   -5.2035 H   0  0  0  0  0  0  0  0  0  0  0  0
    2.2342    0.4652   -5.2035 H   0  0  0  0  0  0  0  0  0  0  0  0
    0.5533   -0.0759   -5.2035 H   0  0  0  0  0  0  0  0  0  0  0  0
    2.1982    0.4962   -0.3118 H   0  0  0  0  0  0  0  0  0  0  0  0
    1.9072   -1.2455   -0.3118 H   0  0  0  0  0  0  0  0  0  0  0  0
    0.3432   -0.0889   -0.2340 H   0  0  0  0  0  0  0  0  0  0  0  0
   -0.8646    0.1129    0.2337 C   0  0  0  0  0  3  0  0  0  0  0  0
   -1.3075   -1.0651    1.0896 C   0  0  0  0  0  0  0  0  0  0  0  0
   -1.8904   -0.6065    2.2943 O   0  0  0  0  0  0  0  0  0  0  0  0
   -1.0134    0.2198    2.9975 C   0  0  0  0  0  0  0  0  0  0  0  0
   -0.6540    1.3639    2.2847 O   0  0  0  0  0  0  0  0  0  0  0  0
    0.0073    1.0302    1.0794 C   0  0  0  0  0  0  0  0  0  0  0  0
   -1.7430    0.6625   -0.1101 H   0  0  0  0  0  0  0  0  0  0  0  0
   -2.0601   -1.6725    0.5885 H   0  0  0  0  0  0  0  0  0  0  0  0
   -0.4445   -1.7082    1.3209 H   0  0  0  0  0  0  0  0  0  0  0  0
   -0.1034   -0.3499    3.2608 H   0  0  0  0  0  0  0  0  0  0  0  0
   -1.5295    0.5480    3.8970 H   0  0  0  0  0  0  0  0  0  0  0  0
    0.9627    0.5345    1.3100 H   0  0  0  0  0  0  0  0  0  0  0  0
    0.2246    1.9684    0.5708 H   0  0  0  0  0  0  0  0  0  0  0  0
  1  2  1  0
  1  5  1  0
  1  6  1  0
  1  7  1  0
  2  3  3  0
  3  4  1  0
  4  8  1  0
  4  9  1  0
  4 10  1  0
 11 12  1  0
 11 16  1  0
 11 17  1  0
 12 13  1  0
 12 18  1  0
 12 19  1  0
 13 14  1  0
 14 15  1  0
 14 20  1  0
 14 21  1  0
 15 16  1  0
 16 22  1  0
 16 23  1  0
M  RAD  1  11   2
M  END
>  <reaction>  (5) 
rmg_rxn_191

>  <mol_properties>  (5) 
{"2": {"label": "*0", "atom_type": "Ct"}, "3": {"label": "*1", "atom_type": "Cs"}, "9": {"label": "*2", "atom_type": "H0"}, "10": {"label": "*3", "atom_type": "Cs"}, "11": {"label": "*4", "atom_type": "Cs"}}

>  <type>  (5) 
unop_1

>  <geom_source>  (5) 
Heuristics

$$$$

     RDKit          3D

 23 22  0  0  0  0  0  0  0  0999 V2000
    2.1595    0.3182   -4.1624 C   0  0  0  0  0  0  0  0  0  0  0  0
    2.1595    0.3182   -2.7051 C   0  0  0  0  0  0  0  0  0  0  0  0
    2.1595    0.3182   -1.5066 C   0  0  0  0  0  0  0  0  0  0  0  0
    2.1595    0.3182   -0.0494 C   0  0  0  0  0  0  0  0  0  0  0  0
    2.4719   -0.6523   -4.5517 H   0  0  0  0  0  0  0  0  0  0  0  0
    2.8437    1.0740   -4.5517 H   0  0  0  0  0  0  0  0  0  0  0  0
    1.1628    0.5329   -4.5517 H   0  0  0  0  0  0  0  0  0  0  0  0
    2.8078    1.1050    0.3400 H   0  0  0  0  0  0  0  0  0  0  0  0
    2.5167   -0.6367    0.3399 H   0  0  0  0  0  0  0  0  0  0  0  0
    0.9528    0.5199    0.4178 H   0  0  0  0  0  0  0  0  0  0  0  0
   -0.2550    0.7217    0.8854 C   0  0  0  0  0  3  0  0  0  0  0  0
   -1.2974    0.1730   -0.0784 C   0  0  0  0  0  0  0  0  0  0  0  0
   -2.4946   -0.1301    0.6117 O   0  0  0  0  0  0  0  0  0  0  0  0
   -2.2625   -1.0235    1.6579 C   0  0  0  0  0  0  0  0  0  0  0  0
   -1.3826   -0.5216    2.6171 O   0  0  0  0  0  0  0  0  0  0  0  0
   -0.1149   -0.2433    2.0541 C   0  0  0  0  0  0  0  0  0  0  0  0
   -0.5803    1.6957    1.2560 H   0  0  0  0  0  0  0  0  0  0  0  0
   -1.5558    0.8941   -0.8527 H   0  0  0  0  0  0  0  0  0  0  0  0
   -0.9159   -0.7360   -0.5683 H   0  0  0  0  0  0  0  0  0  0  0  0
   -1.8613   -1.9697    1.2507 H   0  0  0  0  0  0  0  0  0  0  0  0
   -3.2157   -1.1969    2.1525 H   0  0  0  0  0  0  0  0  0  0  0  0
    0.3497   -1.1816    1.7142 H   0  0  0  0  0  0  0  0  0  0  0  0
    0.4989    0.1707    2.8529 H   0  0  0  0  0  0  0  0  0  0  0  0
  1  2  1  0
  1  5  1  0
  1  6  1  0
  1  7  1  0
  2  3  3  0
  3  4  1  0
  4  8  1  0
  4  9  1  0
  4 10  1  0
 11 12  1  0
 11 16  1  0
 11 17  1  0
 12 13  1  0
 12 18  1  0
 12 19  1  0
 13 14  1  0
 14 15  1  0
 14 20  1  0
 14 21  1  0
 15 16  1  0
 16 22  1  0
 16 23  1  0
M  RAD  1  11   2
M  END
>  <reaction>  (6) 
rmg_rxn_191

>  <mol_properties>  (6) 
{"2": {"label": "*0", "atom_type": "Ct"}, "3": {"label": "*1", "atom_type": "Cs"}, "9": {"label": "*2", "atom_type": "H0"}, "10": {"label": "*3", "atom_type": "Cs"}, "11": {"label": "*4", "atom_type": "Cs"}}

>  <type>  (6) 
unop_2

>  <geom_source>  (6) 
Heuristics

$$$$

     RDKit          3D

 23 22  0  0  0  0  0  0  0  0999 V2000
    1.6732   -0.7011   -4.6764 C   0  0  0  0  0  0  0  0  0  0  0  0
    1.6732   -0.7011   -3.2191 C   0  0  0  0  0  0  0  0  0  0  0  0
    1.6732   -0.7011   -2.0206 C   0  0  0  0  0  0  0  0  0  0  0  0
    1.6732   -0.7011   -0.5633 C   0  0  0  0  0  0  0  0  0  0  0  0
    1.9856   -1.6716   -5.0657 H   0  0  0  0  0  0  0  0  0  0  0  0
    2.3574    0.0547   -5.0657 H   0  0  0  0  0  0  0  0  0  0  0  0
    0.6765   -0.4865   -5.0657 H   0  0  0  0  0  0  0  0  0  0  0  0
    2.3215    0.0857   -0.1740 H   0  0  0  0  0  0  0  0  0  0  0  0
    2.0304   -1.6560   -0.1740 H   0  0  0  0  0  0  0  0  0  0  0  0
    0.4665   -0.4995   -0.0961 H   0  0  0  0  0  0  0  0  0  0  0  0
   -0.7413   -0.2976    0.3715 C   0  0  0  0  0  3  0  0  0  0  0  0
   -0.9146   -0.9916    1.7150 C   0  0  0  0  0  0  0  0  0  0  0  0
   -1.7540   -0.2271    2.5591 O   0  0  0  0  0  0  0  0  0  0  0  0
   -1.2599    1.0669    2.7255 C   0  0  0  0  0  0  0  0  0  0  0  0
   -1.1733    1.7749    1.5265 O   0  0  0  0  0  0  0  0  0  0  0  0
   -0.2972    1.1373    0.6170 C   0  0  0  0  0  0  0  0  0  0  0  0
   -1.6938   -0.2966   -0.1621 H   0  0  0  0  0  0  0  0  0  0  0  0
   -1.3818   -1.9699    1.6109 H   0  0  0  0  0  0  0  0  0  0  0  0
    0.0653   -1.1279    2.1977 H   0  0  0  0  0  0  0  0  0  0  0  0
   -0.2614    1.0210    3.1978 H   0  0  0  0  0  0  0  0  0  0  0  0
   -1.9588    1.6001    3.3662 H   0  0  0  0  0  0  0  0  0  0  0  0
    0.7262    1.1508    1.0224 H   0  0  0  0  0  0  0  0  0  0  0  0
   -0.3090    1.7294   -0.2971 H   0  0  0  0  0  0  0  0  0  0  0  0
  1  2  1  0
  1  5  1  0
  1  6  1  0
  1  7  1  0
  2  3  3  0
  3  4  1  0
  4  8  1  0
  4  9  1  0
  4 10  1  0
 11 12  1  0
 11 16  1  0
 11 17  1  0
 12 13  1  0
 12 18  1  0
 12 19  1  0
 13 14  1  0
 14 15  1  0
 14 20  1  0
 14 21  1  0
 15 16  1  0
 16 22  1  0
 16 23  1  0
M  RAD  1  11   2
M  END
>  <reaction>  (7) 
rmg_rxn_191

>  <mol_properties>  (7) 
{"2": {"label": "*0", "atom_type": "Ct"}, "3": {"label": "*1", "atom_type": "Cs"}, "9": {"label": "*2", "atom_type": "H0"}, "10": {"label": "*3", "atom_type": "Cs"}, "11": {"label": "*4", "atom_type": "Cs"}}

>  <type>  (7) 
unop_3

>  <geom_source>  (7) 
Heuristics

$$$$

     RDKit          3D

 23 22  0  0  0  0  0  0  0  0999 V2000
    2.3289   -0.5515   -4.1094 C   0  0  0  0  0  0  0  0  0  0  0  0
    2.3289   -0.5515   -2.6522 C   0  0  0  0  0  0  0  0  0  0  0  0
    2.3289   -0.5515   -1.4537 C   0  0  0  0  0  0  0  0  0  0  0  0
    2.3289   -0.5515    0.0036 C   0  0  0  0  0  0  0  0  0  0  0  0
    2.6414   -1.5219   -4.4987 H   0  0  0  0  0  0  0  0  0  0  0  0
    3.0132    0.2043   -4.4987 H   0  0  0  0  0  0  0  0  0  0  0  0
    1.3323   -0.3368   -4.4988 H   0  0  0  0  0  0  0  0  0  0  0  0
    2.9773    0.2354    0.3929 H   0  0  0  0  0  0  0  0  0  0  0  0
    2.6862   -1.5063    0.3929 H   0  0  0  0  0  0  0  0  0  0  0  0
    1.1222   -0.3498    0.4708 H   0  0  0  0  0  0  0  0  0  0  0  0
   -0.0856   -0.1480    0.9384 C   0  0  0  0  0  3  0  0  0  0  0  0
   -0.6232    1.1939    0.4622 C   0  0  0  0  0  0  0  0  0  0  0  0
   -1.5996    1.6806    1.3629 O   0  0  0  0  0  0  0  0  0  0  0  0
   -2.6341    0.7601    1.5326 C   0  0  0  0  0  0  0  0  0  0  0  0
   -2.1990   -0.4568    2.0583 O   0  0  0  0  0  0  0  0  0  0  0  0
   -1.2606   -1.0789    1.2016 C   0  0  0  0  0  0  0  0  0  0  0  0
    0.4789   -0.0058    1.8620 H   0  0  0  0  0  0  0  0  0  0  0  0
    0.1587    1.9502    0.4087 H   0  0  0  0  0  0  0  0  0  0  0  0
   -1.0680    1.0876   -0.5391 H   0  0  0  0  0  0  0  0  0  0  0  0
   -3.1319    0.5837    0.5614 H   0  0  0  0  0  0  0  0  0  0  0  0
   -3.3345    1.1886    2.2460 H   0  0  0  0  0  0  0  0  0  0  0  0
   -1.7503   -1.3451    0.2524 H   0  0  0  0  0  0  0  0  0  0  0  0
   -0.9488   -1.9992    1.6937 H   0  0  0  0  0  0  0  0  0  0  0  0
  1  2  1  0
  1  5  1  0
  1  6  1  0
  1  7  1  0
  2  3  3  0
  3  4  1  0
  4  8  1  0
  4  9  1  0
  4 10  1  0
 11 12  1  0
 11 16  1  0
 11 17  1  0
 12 13  1  0
 12 18  1  0
 12 19  1  0
 13 14  1  0
 14 15  1  0
 14 20  1  0
 14 21  1  0
 15 16  1  0
 16 22  1  0
 16 23  1  0
M  RAD  1  11   2
M  END
>  <reaction>  (8) 
rmg_rxn_191

>  <mol_properties>  (8) 
{"2": {"label": "*0", "atom_type": "Ct"}, "3": {"label": "*1", "atom_type": "Cs"}, "9": {"label": "*2", "atom_type": "H0"}, "10": {"label": "*3", "atom_type": "Cs"}, "11": {"label": "*4", "atom_type": "Cs"}}

>  <type>  (8) 
unop_4

>  <geom_source>  (8) 
Heuristics

$$$$

     RDKit          3D

 23 22  0  0  0  0  0  0  0  0999 V2000
    2.0491   -0.7709   -4.4052 C   0  0  0  0  0  0  0  0  0  0  0  0
    2.0491   -0.7709   -2.9479 C   0  0  0  0  0  0  0  0  0  0  0  0
    2.0491   -0.7709   -1.7494 C   0  0  0  0  0  0  0  0  0  0  0  0
    2.0491   -0.7709   -0.2921 C   0  0  0  0  0  0  0  0  0  0  0  0
    2.3615   -1.7414   -4.7945 H   0  0  0  0  0  0  0  0  0  0  0  0
    2.7333   -0.0151   -4.7945 H   0  0  0  0  0  0  0  0  0  0  0  0
    1.0524   -0.5562   -4.7945 H   0  0  0  0  0  0  0  0  0  0  0  0
    2.6974    0.0159    0.0972 H   0  0  0  0  0  0  0  0  0  0  0  0
    2.4063   -1.7258    0.0972 H   0  0  0  0  0  0  0  0  0  0  0  0
    0.8424   -0.5693    0.1751 H   0  0  0  0  0  0  0  0  0  0  0  0
   -0.3654   -0.3674    0.6427 C   0  0  0  0  0  3  0  0  0  0  0  0
   -0.3539   -0.3693    2.1647 C   0  0  0  0  0  0  0  0  0  0  0  0
   -1.6257   -0.0062    2.6668 O   0  0  0  0  0  0  0  0  0  0  0  0
   -2.0290    1.2344    2.1721 C   0  0  0  0  0  0  0  0  0  0  0  0
   -2.1448    1.2544    0.7819 O   0  0  0  0  0  0  0  0  0  0  0  0
   -0.9060    0.9711    0.1603 C   0  0  0  0  0  0  0  0  0  0  0  0
   -1.0117   -1.1706    0.2835 H   0  0  0  0  0  0  0  0  0  0  0  0
   -0.1269   -1.3548    2.5691 H   0  0  0  0  0  0  0  0  0  0  0  0
    0.4032    0.3380    2.5366 H   0  0  0  0  0  0  0  0  0  0  0  0
   -1.3083    2.0093    2.4919 H   0  0  0  0  0  0  0  0  0  0  0  0
   -3.0153    1.4408    2.5818 H   0  0  0  0  0  0  0  0  0  0  0  0
   -0.1877    1.7728    0.3912 H   0  0  0  0  0  0  0  0  0  0  0  0
   -1.0861    0.9745   -0.9138 H   0  0  0  0  0  0  0  0  0  0  0  0
  1  2  1  0
  1  5  1  0
  1  6  1  0
  1  7  1  0
  2  3  3  0
  3  4  1  0
  4  8  1  0
  4  9  1  0
  4 10  1  0
 11 12  1  0
 11 16  1  0
 11 17  1  0
 12 13  1  0
 12 18  1  0
 12 19  1  0
 13 14  1  0
 14 15  1  0
 14 20  1  0
 14 21  1  0
 15 16  1  0
 16 22  1  0
 16 23  1  0
M  RAD  1  11   2
M  END
>  <reaction>  (9) 
rmg_rxn_191

>  <mol_properties>  (9) 
{"2": {"label": "*0", "atom_type": "Ct"}, "3": {"label": "*1", "atom_type": "Cs"}, "9": {"label": "*2", "atom_type": "H0"}, "10": {"label": "*3", "atom_type": "Cs"}, "11": {"label": "*4", "atom_type": "Cs"}}

>  <type>  (9) 
unop_5

>  <geom_source>  (9) 
Heuristics

$$$$

     RDKit          3D

 23 22  0  0  0  0  0  0  0  0999 V2000
    2.2505   -0.5783   -4.2912 C   0  0  0  0  0  0  0  0  0  0  0  0
    2.2505   -0.5783   -2.8340 C   0  0  0  0  0  0  0  0  0  0  0  0
    2.2505   -0.5783   -1.6355 C   0  0  0  0  0  0  0  0  0  0  0  0
    2.2505   -0.5783   -0.1782 C   0  0  0  0  0  0  0  0  0  0  0  0
    2.5629   -1.5488   -4.6806 H   0  0  0  0  0  0  0  0  0  0  0  0
    2.9348    0.1775   -4.6806 H   0  0  0  0  0  0  0  0  0  0  0  0
    1.2539   -0.3637   -4.6806 H   0  0  0  0  0  0  0  0  0  0  0  0
    2.8988    0.2085    0.2111 H   0  0  0  0  0  0  0  0  0  0  0  0
    2.6078   -1.5332    0.2111 H   0  0  0  0  0  0  0  0  0  0  0  0
    1.0438   -0.3767    0.2890 H   0  0  0  0  0  0  0  0  0  0  0  0
   -0.1640   -0.1748    0.7566 C   0  0  0  0  0  3  0  0  0  0  0  0
   -0.4192    1.3136    0.9464 C   0  0  0  0  0  0  0  0  0  0  0  0
   -1.2770    1.5289    2.0506 O   0  0  0  0  0  0  0  0  0  0  0  0
   -2.4763    0.8315    1.9025 C   0  0  0  0  0  0  0  0  0  0  0  0
   -2.2962   -0.5495    1.8193 O   0  0  0  0  0  0  0  0  0  0  0  0
   -1.5029   -0.8964    0.7005 C   0  0  0  0  0  0  0  0  0  0  0  0
    0.4176   -0.5538    1.5992 H   0  0  0  0  0  0  0  0  0  0  0  0
    0.4994    1.8615    1.1516 H   0  0  0  0  0  0  0  0  0  0  0  0
   -0.8764    1.7362    0.0386 H   0  0  0  0  0  0  0  0  0  0  0  0
   -2.9995    1.1889    0.9965 H   0  0  0  0  0  0  0  0  0  0  0  0
   -3.0756    1.0268    2.7889 H   0  0  0  0  0  0  0  0  0  0  0  0
   -2.0364   -0.6293   -0.2246 H   0  0  0  0  0  0  0  0  0  0  0  0
   -1.3837   -1.9788    0.7243 H   0  0  0  0  0  0  0  0  0  0  0  0
  1  2  1  0
  1  5  1  0
  1  6  1  0
  1  7  1  0
  2  3  3  0
  3  4  1  0
  4  8  1  0
  4  9  1  0
  4 10  1  0
 11 12  1  0
 11 16  1  0
 11 17  1  0
 12 13  1  0
 12 18  1  0
 12 19  1  0
 13 14  1  0
 14 15  1  0
 14 20  1  0
 14 21  1  0
 15 16  1  0
 16 22  1  0
 16 23  1  0
M  RAD  1  11   2
M  END
>  <reaction>  (10) 
rmg_rxn_191

>  <mol_properties>  (10) 
{"2": {"label": "*0", "atom_type": "Ct"}, "3": {"label": "*1", "atom_type": "Cs"}, "9": {"label": "*2", "atom_type": "H0"}, "10": {"label": "*3", "atom_type": "Cs"}, "11": {"label": "*4", "atom_type": "Cs"}}

>  <type>  (10) 
unop_6

>  <geom_source>  (10) 
Heuristics

$$$$

     RDKit          3D

 23 22  0  0  0  0  0  0  0  0999 V2000
    2.2286   -0.5071   -4.3777 C   0  0  0  0  0  0  0  0  0  0  0  0
    2.2286   -0.5071   -2.9204 C   0  0  0  0  0  0  0  0  0  0  0  0
    2.2286   -0.5071   -1.7219 C   0  0  0  0  0  0  0  0  0  0  0  0
    2.2286   -0.5071   -0.2647 C   0  0  0  0  0  0  0  0  0  0  0  0
    2.5410   -1.4775   -4.7670 H   0  0  0  0  0  0  0  0  0  0  0  0
    2.9128    0.2487   -4.7670 H   0  0  0  0  0  0  0  0  0  0  0  0
    1.2319   -0.2924   -4.7670 H   0  0  0  0  0  0  0  0  0  0  0  0
    2.8769    0.2798    0.1246 H   0  0  0  0  0  0  0  0  0  0  0  0
    2.5858   -1.4619    0.1246 H   0  0  0  0  0  0  0  0  0  0  0  0
    1.0219   -0.3054    0.2025 H   0  0  0  0  0  0  0  0  0  0  0  0
   -0.1859   -0.1036    0.6701 C   0  0  0  0  0  3  0  0  0  0  0  0
   -0.2218    1.1545    1.5260 C   0  0  0  0  0  0  0  0  0  0  0  0
   -1.1571    1.0080    2.5773 O   0  0  0  0  0  0  0  0  0  0  0  0
   -2.4264    0.7023    2.0856 C   0  0  0  0  0  0  0  0  0  0  0  0
   -2.4595   -0.4961    1.3720 O   0  0  0  0  0  0  0  0  0  0  0  0
   -1.6068   -0.4449    0.2444 C   0  0  0  0  0  0  0  0  0  0  0  0
    0.2260   -0.9286    1.2545 H   0  0  0  0  0  0  0  0  0  0  0  0
    0.7421    1.3590    1.9902 H   0  0  0  0  0  0  0  0  0  0  0  0
   -0.4972    2.0229    0.9081 H   0  0  0  0  0  0  0  0  0  0  0  0
   -2.7771    1.5259    1.4369 H   0  0  0  0  0  0  0  0  0  0  0  0
   -3.0861    0.5867    2.9427 H   0  0  0  0  0  0  0  0  0  0  0  0
   -1.9797    0.3109   -0.4638 H   0  0  0  0  0  0  0  0  0  0  0  0
   -1.6646   -1.4202   -0.2370 H   0  0  0  0  0  0  0  0  0  0  0  0
  1  2  1  0
  1  5  1  0
  1  6  1  0
  1  7  1  0
  2  3  3  0
  3  4  1  0
  4  8  1  0
  4  9  1  0
  4 10  1  0
 11 12  1  0
 11 16  1  0
 11 17  1  0
 12 13  1  0
 12 18  1  0
 12 19  1  0
 13 14  1  0
 14 15  1  0
 14 20  1  0
 14 21  1  0
 15 16  1  0
 16 22  1  0
 16 23  1  0
M  RAD  1  11   2
M  END
>  <reaction>  (11) 
rmg_rxn_191

>  <mol_properties>  (11) 
{"2": {"label": "*0", "atom_type": "Ct"}, "3": {"label": "*1", "atom_type": "Cs"}, "9": {"label": "*2", "atom_type": "H0"}, "10": {"label": "*3", "atom_type": "Cs"}, "11": {"label": "*4", "atom_type": "Cs"}}

>  <type>  (11) 
unop_7

>  <geom_source>  (11) 
Heuristics

$$$$

     RDKit          3D

 23 22  0  0  0  0  0  0  0  0999 V2000
    1.6557    0.1147   -4.7252 C   0  0  0  0  0  0  0  0  0  0  0  0
    1.6557    0.1147   -3.2679 C   0  0  0  0  0  0  0  0  0  0  0  0
    1.6557    0.1147   -2.0694 C   0  0  0  0  0  0  0  0  0  0  0  0
    1.6557    0.1147   -0.6122 C   0  0  0  0  0  0  0  0  0  0  0  0
    1.9681   -0.8557   -5.1145 H   0  0  0  0  0  0  0  0  0  0  0  0
    2.3399    0.8705   -5.1145 H   0  0  0  0  0  0  0  0  0  0  0  0
    0.6590    0.3294   -5.1145 H   0  0  0  0  0  0  0  0  0  0  0  0
    2.3040    0.9016   -0.2228 H   0  0  0  0  0  0  0  0  0  0  0  0
    2.0129   -0.8401   -0.2228 H   0  0  0  0  0  0  0  0  0  0  0  0
    0.4490    0.3164   -0.1450 H   0  0  0  0  0  0  0  0  0  0  0  0
   -0.7588    0.5182    0.3227 C   0  0  0  0  0  3  0  0  0  0  0  0
   -1.4842   -0.8063    0.5125 C   0  0  0  0  0  0  0  0  0  0  0  0
   -2.1332   -0.8363    1.7692 O   0  0  0  0  0  0  0  0  0  0  0  0
   -1.2318   -0.6071    2.8091 C   0  0  0  0  0  0  0  0  0  0  0  0
   -0.6114    0.6398    2.7267 O   0  0  0  0  0  0  0  0  0  0  0  0
    0.1340    0.7633    1.5307 C   0  0  0  0  0  0  0  0  0  0  0  0
   -1.4905    1.3245    0.2425 H   0  0  0  0  0  0  0  0  0  0  0  0
   -2.2544   -0.9607   -0.2419 H   0  0  0  0  0  0  0  0  0  0  0  0
   -0.7684   -1.6403    0.4491 H   0  0  0  0  0  0  0  0  0  0  0  0
   -0.4623   -1.4009    2.8099 H   0  0  0  0  0  0  0  0  0  0  0  0
   -1.7978   -0.6260    3.7378 H   0  0  0  0  0  0  0  0  0  0  0  0
    0.9637    0.0398    1.5389 H   0  0  0  0  0  0  0  0  0  0  0  0
    0.5575    1.7667    1.5274 H   0  0  0  0  0  0  0  0  0  0  0  0
  1  2  1  0
  1  5  1  0
  1  6  1  0
  1  7  1  0
  2  3  3  0
  3  4  1  0
  4  8  1  0
  4  9  1  0
  4 10  1  0
 11 12  1  0
 11 16  1  0
 11 17  1  0
 12 13  1  0
 12 18  1  0
 12 19  1  0
 13 14  1  0
 14 15  1  0
 14 20  1  0
 14 21  1  0
 15 16  1  0
 16 22  1  0
 16 23  1  0
M  RAD  1  11   2
M  END
>  <reaction>  (12) 
rmg_rxn_191

>  <mol_properties>  (12) 
{"2": {"label": "*0", "atom_type": "Ct"}, "3": {"label": "*1", "atom_type": "Cs"}, "9": {"label": "*2", "atom_type": "H0"}, "10": {"label": "*3", "atom_type": "Cs"}, "11": {"label": "*4", "atom_type": "Cs"}}

>  <type>  (12) 
unop_8

>  <geom_source>  (12) 
Heuristics

$$$$

     RDKit          3D

 23 22  0  0  0  0  0  0  0  0999 V2000
    2.4009   -0.3283   -3.9490 C   0  0  0  0  0  0  0  0  0  0  0  0
    2.4009   -0.3283   -2.4918 C   0  0  0  0  0  0  0  0  0  0  0  0
    2.4009   -0.3283   -1.2933 C   0  0  0  0  0  0  0  0  0  0  0  0
    2.4009   -0.3283    0.1640 C   0  0  0  0  0  0  0  0  0  0  0  0
    2.7133   -1.2988   -4.3384 H   0  0  0  0  0  0  0  0  0  0  0  0
    3.0851    0.4275   -4.3384 H   0  0  0  0  0  0  0  0  0  0  0  0
    1.4042   -0.1136   -4.3384 H   0  0  0  0  0  0  0  0  0  0  0  0
    3.0492    0.4585    0.5533 H   0  0  0  0  0  0  0  0  0  0  0  0
    2.7581   -1.2832    0.5533 H   0  0  0  0  0  0  0  0  0  0  0  0
    1.1942   -0.1266    0.6312 H   0  0  0  0  0  0  0  0  0  0  0  0
   -0.0136    0.0752    1.0988 C   0  0  0  0  0  3  0  0  0  0  0  0
   -0.8209    0.9330    0.1349 C   0  0  0  0  0  0  0  0  0  0  0  0
   -2.0170    1.3717    0.7501 O   0  0  0  0  0  0  0  0  0  0  0  0
   -2.7726    0.2937    1.2120 C   0  0  0  0  0  0  0  0  0  0  0  0
   -2.1044   -0.4681    2.1710 O   0  0  0  0  0  0  0  0  0  0  0  0
   -0.9138   -1.0234    1.6459 C   0  0  0  0  0  0  0  0  0  0  0  0
    0.3450    0.6947    1.9231 H   0  0  0  0  0  0  0  0  0  0  0  0
   -0.2777    1.8272   -0.1675 H   0  0  0  0  0  0  0  0  0  0  0  0
   -1.0641    0.3555   -0.7702 H   0  0  0  0  0  0  0  0  0  0  0  0
   -3.0513   -0.3519    0.3590 H   0  0  0  0  0  0  0  0  0  0  0  0
   -3.6625    0.7019    1.6859 H   0  0  0  0  0  0  0  0  0  0  0  0
   -1.1635   -1.7385    0.8471 H   0  0  0  0  0  0  0  0  0  0  0  0
   -0.4391   -1.5723    2.4580 H   0  0  0  0  0  0  0  0  0  0  0  0
  1  2  1  0
  1  5  1  0
  1  6  1  0
  1  7  1  0
  2  3  3  0
  3  4  1  0
  4  8  1  0
  4  9  1  0
  4 10  1  0
 11 12  1  0
 11 16  1  0
 11 17  1  0
 12 13  1  0
 12 18  1  0
 12 19  1  0
 13 14  1  0
 14 15  1  0
 14 20  1  0
 14 21  1  0
 15 16  1  0
 16 22  1  0
 16 23  1  0
M  RAD  1  11   2
M  END
>  <reaction>  (13) 
rmg_rxn_191

>  <mol_properties>  (13) 
{"2": {"label": "*0", "atom_type": "Ct"}, "3": {"label": "*1", "atom_type": "Cs"}, "9": {"label": "*2", "atom_type": "H0"}, "10": {"label": "*3", "atom_type": "Cs"}, "11": {"label": "*4", "atom_type": "Cs"}}

>  <type>  (13) 
unop_9

>  <geom_source>  (13) 
Heuristics

$$$$

     RDKit          3D

 23 22  0  0  0  0  0  0  0  0999 V2000
    1.8880    0.3477   -4.4704 C   0  0  0  0  0  0  0  0  0  0  0  0
    1.8880    0.3477   -3.0132 C   0  0  0  0  0  0  0  0  0  0  0  0
    1.8880    0.3477   -1.8147 C   0  0  0  0  0  0  0  0  0  0  0  0
    1.8880    0.3477   -0.3574 C   0  0  0  0  0  0  0  0  0  0  0  0
    2.2004   -0.6228   -4.8597 H   0  0  0  0  0  0  0  0  0  0  0  0
    2.5722    1.1035   -4.8597 H   0  0  0  0  0  0  0  0  0  0  0  0
    0.8913    0.5623   -4.8598 H   0  0  0  0  0  0  0  0  0  0  0  0
    2.5363    1.1345    0.0319 H   0  0  0  0  0  0  0  0  0  0  0  0
    2.2452   -0.6072    0.0319 H   0  0  0  0  0  0  0  0  0  0  0  0
    0.6813    0.5493    0.1098 H   0  0  0  0  0  0  0  0  0  0  0  0
   -0.5265    0.7512    0.5774 C   0  0  0  0  0  3  0  0  0  0  0  0
   -1.4713   -0.3430    0.1012 C   0  0  0  0  0  0  0  0  0  0  0  0
   -2.3793   -0.6909    1.1288 O   0  0  0  0  0  0  0  0  0  0  0  0
   -1.7064   -1.0813    2.2869 C   0  0  0  0  0  0  0  0  0  0  0  0
   -0.8985   -0.0730    2.8131 O   0  0  0  0  0  0  0  0  0  0  0  0
    0.1033    0.3140    1.8923 C   0  0  0  0  0  0  0  0  0  0  0  0
   -1.0889    1.6738    0.7333 H   0  0  0  0  0  0  0  0  0  0  0  0
   -2.0696   -0.0224   -0.7506 H   0  0  0  0  0  0  0  0  0  0  0  0
   -0.8966   -1.2332   -0.1977 H   0  0  0  0  0  0  0  0  0  0  0  0
   -1.0882   -1.9717    2.0700 H   0  0  0  0  0  0  0  0  0  0  0  0
   -2.4601   -1.3155    3.0354 H   0  0  0  0  0  0  0  0  0  0  0  0
    0.7887   -0.5298    1.7195 H   0  0  0  0  0  0  0  0  0  0  0  0
    0.6665    1.1194    2.3618 H   0  0  0  0  0  0  0  0  0  0  0  0
  1  2  1  0
  1  5  1  0
  1  6  1  0
  1  7  1  0
  2  3  3  0
  3  4  1  0
  4  8  1  0
  4  9  1  0
  4 10  1  0
 11 12  1  0
 11 16  1  0
 11 17  1  0
 12 13  1  0
 12 18  1  0
 12 19  1  0
 13 14  1  0
 14 15  1  0
 14 20  1  0
 14 21  1  0
 15 16  1  0
 16 22  1  0
 16 23  1  0
M  RAD  1  11   2
M  END
>  <reaction>  (14) 
rmg_rxn_191

>  <mol_properties>  (14) 
{"2": {"label": "*0", "atom_type": "Ct"}, "3": {"label": "*1", "atom_type": "Cs"}, "9": {"label": "*2", "atom_type": "H0"}, "10": {"label": "*3", "atom_type": "Cs"}, "11": {"label": "*4", "atom_type": "Cs"}}

>  <type>  (14) 
unop_10

>  <geom_source>  (14) 
Heuristics

$$$$

     RDKit          3D

 23 22  0  0  0  0  0  0  0  0999 V2000
    2.2362   -0.5339   -4.3497 C   0  0  0  0  0  0  0  0  0  0  0  0
    2.2362   -0.5339   -2.8924 C   0  0  0  0  0  0  0  0  0  0  0  0
    2.2362   -0.5339   -1.6939 C   0  0  0  0  0  0  0  0  0  0  0  0
    2.2362   -0.5339   -0.2366 C   0  0  0  0  0  0  0  0  0  0  0  0
    2.5486   -1.5044   -4.7390 H   0  0  0  0  0  0  0  0  0  0  0  0
    2.9204    0.2219   -4.7390 H   0  0  0  0  0  0  0  0  0  0  0  0
    1.2395   -0.3192   -4.7390 H   0  0  0  0  0  0  0  0  0  0  0  0
    2.8845    0.2529    0.1527 H   0  0  0  0  0  0  0  0  0  0  0  0
    2.5934   -1.4888    0.1527 H   0  0  0  0  0  0  0  0  0  0  0  0
    1.0295   -0.3323    0.2305 H   0  0  0  0  0  0  0  0  0  0  0  0
   -0.1783   -0.1304    0.6982 C   0  0  0  0  0  3  0  0  0  0  0  0
   -0.1165    0.5821    2.0417 C   0  0  0  0  0  0  0  0  0  0  0  0
   -1.3086    0.3617    2.7709 O   0  0  0  0  0  0  0  0  0  0  0  0
   -2.4283    0.7649    2.0429 C   0  0  0  0  0  0  0  0  0  0  0  0
   -2.5774    0.0683    0.8433 O   0  0  0  0  0  0  0  0  0  0  0  0
   -1.4657    0.2702   -0.0081 C   0  0  0  0  0  0  0  0  0  0  0  0
   -0.1736   -1.2101    0.8594 H   0  0  0  0  0  0  0  0  0  0  0  0
    0.7016    0.2154    2.6600 H   0  0  0  0  0  0  0  0  0  0  0  0
    0.0256    1.6630    1.8887 H   0  0  0  0  0  0  0  0  0  0  0  0
   -2.3592    1.8480    1.8326 H   0  0  0  0  0  0  0  0  0  0  0  0
   -3.3040    0.5515    2.6518 H   0  0  0  0  0  0  0  0  0  0  0  0
   -1.4185    1.3291   -0.3053 H   0  0  0  0  0  0  0  0  0  0  0  0
   -1.6427   -0.3266   -0.9017 H   0  0  0  0  0  0  0  0  0  0  0  0
  1  2  1  0
  1  5  1  0
  1  6  1  0
  1  7  1  0
  2  3  3  0
  3  4  1  0
  4  8  1  0
  4  9  1  0
  4 10  1  0
 11 12  1  0
 11 16  1  0
 11 17  1  0
 12 13  1  0
 12 18  1  0
 12 19  1  0
 13 14  1  0
 14 15  1  0
 14 20  1  0
 14 21  1  0
 15 16  1  0
 16 22  1  0
 16 23  1  0
M  RAD  1  11   2
M  END
>  <reaction>  (15) 
rmg_rxn_191

>  <mol_properties>  (15) 
{"2": {"label": "*0", "atom_type": "Ct"}, "3": {"label": "*1", "atom_type": "Cs"}, "9": {"label": "*2", "atom_type": "H0"}, "10": {"label": "*3", "atom_type": "Cs"}, "11": {"label": "*4", "atom_type": "Cs"}}

>  <type>  (15) 
unop_11

>  <geom_source>  (15) 
Heuristics

$$$$

     RDKit          3D

 23 22  0  0  0  0  0  0  0  0999 V2000
    2.3591    0.0343   -3.9520 C   0  0  0  0  0  0  0  0  0  0  0  0
    2.3591    0.0343   -2.4948 C   0  0  0  0  0  0  0  0  0  0  0  0
    2.3591    0.0343   -1.2963 C   0  0  0  0  0  0  0  0  0  0  0  0
    2.3591    0.0343    0.1610 C   0  0  0  0  0  0  0  0  0  0  0  0
    2.6715   -0.9362   -4.3414 H   0  0  0  0  0  0  0  0  0  0  0  0
    3.0433    0.7901   -4.3414 H   0  0  0  0  0  0  0  0  0  0  0  0
    1.3624    0.2489   -4.3414 H   0  0  0  0  0  0  0  0  0  0  0  0
    3.0074    0.8211    0.5503 H   0  0  0  0  0  0  0  0  0  0  0  0
    2.7163   -0.9206    0.5503 H   0  0  0  0  0  0  0  0  0  0  0  0
    1.1524    0.2359    0.6282 H   0  0  0  0  0  0  0  0  0  0  0  0
   -0.0554    0.4378    1.0958 C   0  0  0  0  0  3  0  0  0  0  0  0
   -1.0475    0.6035   -0.0465 C   0  0  0  0  0  0  0  0  0  0  0  0
   -2.3684    0.6736    0.4551 O   0  0  0  0  0  0  0  0  0  0  0  0
   -2.6767   -0.4480    1.2254 C   0  0  0  0  0  0  0  0  0  0  0  0
   -1.8493   -0.5870    2.3400 O   0  0  0  0  0  0  0  0  0  0  0  0
   -0.4955   -0.7369    1.9578 C   0  0  0  0  0  0  0  0  0  0  0  0
   -0.0426    1.3468    1.7002 H   0  0  0  0  0  0  0  0  0  0  0  0
   -0.8752    1.5223   -0.6055 H   0  0  0  0  0  0  0  0  0  0  0  0
   -0.9642   -0.2442   -0.7438 H   0  0  0  0  0  0  0  0  0  0  0  0
   -2.6038   -1.3555    0.5983 H   0  0  0  0  0  0  0  0  0  0  0  0
   -3.6931   -0.3198    1.5910 H   0  0  0  0  0  0  0  0  0  0  0  0
   -0.3733   -1.6790    1.4015 H   0  0  0  0  0  0  0  0  0  0  0  0
    0.0840   -0.8070    2.8773 H   0  0  0  0  0  0  0  0  0  0  0  0
  1  2  1  0
  1  5  1  0
  1  6  1  0
  1  7  1  0
  2  3  3  0
  3  4  1  0
  4  8  1  0
  4  9  1  0
  4 10  1  0
 11 12  1  0
 11 16  1  0
 11 17  1  0
 12 13  1  0
 12 18  1  0
 12 19  1  0
 13 14  1  0
 14 15  1  0
 14 20  1  0
 14 21  1  0
 15 16  1  0
 16 22  1  0
 16 23  1  0
M  RAD  1  11   2
M  END
>  <reaction>  (16) 
rmg_rxn_191

>  <mol_properties>  (16) 
{"2": {"label": "*0", "atom_type": "Ct"}, "3": {"label": "*1", "atom_type": "Cs"}, "9": {"label": "*2", "atom_type": "H0"}, "10": {"label": "*3", "atom_type": "Cs"}, "11": {"label": "*4", "atom_type": "Cs"}}

>  <type>  (16) 
unop_12

>  <geom_source>  (16) 
Heuristics

$$$$

     RDKit          3D

 23 22  0  0  0  0  0  0  0  0999 V2000
   -2.5703    0.4784    1.4596 O   0  0  0  0  0  0  0  0  0  0  0  0
   -2.8009    0.8050   -0.8373 O   0  0  0  0  0  0  0  0  0  0  0  0
   -1.1514   -0.7796   -0.0450 C   0  0  0  0  0  0  0  0  0  0  0  0
   -1.2949   -0.1145    1.3225 C   0  0  0  0  0  0  0  0  0  0  0  0
   -1.5402    0.2329   -1.1206 C   0  0  0  0  0  0  0  0  0  0  0  0
   -2.7576    1.4329    0.4309 C   0  0  0  0  0  0  0  0  0  0  0  0
    3.7025    0.9303    0.2145 C   0  0  0  0  0  0  0  0  0  0  0  0
    1.0100   -2.0470   -0.7626 C   0  0  0  0  0  0  0  0  0  0  0  0
    2.7490   -0.1240   -0.1315 C   0  0  0  0  0  3  0  0  0  0  0  0
    1.9634   -0.9928   -0.4166 C   0  0  0  0  0  0  0  0  0  0  0  0
   -1.8263   -1.6612   -0.1026 H   0  0  0  0  0  0  0  0  0  0  0  0
    0.1028   -1.1790   -0.2278 H   0  0  0  0  0  0  0  0  0  0  0  0
   -0.4908    0.6412    1.4735 H   0  0  0  0  0  0  0  0  0  0  0  0
   -1.1735   -0.8870    2.1104 H   0  0  0  0  0  0  0  0  0  0  0  0
   -1.5963   -0.2884   -2.0991 H   0  0  0  0  0  0  0  0  0  0  0  0
   -0.7604    1.0229   -1.2108 H   0  0  0  0  0  0  0  0  0  0  0  0
   -1.9866    2.2393    0.4681 H   0  0  0  0  0  0  0  0  0  0  0  0
   -3.7346    1.9303    0.5998 H   0  0  0  0  0  0  0  0  0  0  0  0
    3.8265    0.9702    1.3163 H   0  0  0  0  0  0  0  0  0  0  0  0
    4.6818    0.7139   -0.2600 H   0  0  0  0  0  0  0  0  0  0  0  0
    3.3229    1.9069   -0.1503 H   0  0  0  0  0  0  0  0  0  0  0  0
    1.2457   -2.9637   -0.1838 H   0  0  0  0  0  0  0  0  0  0  0  0
    1.0790   -2.2669   -1.8478 H   0  0  0  0  0  0  0  0  0  0  0  0
  1  4  1  0
  1  6  1  0
  2  5  1  0
  2  6  1  0
  3  4  1  0
  3  5  1  0
  3 11  1  0
  3 12  1  0
  4 13  1  0
  4 14  1  0
  5 15  1  0
  5 16  1  0
  6 17  1  0
  6 18  1  0
  7  9  1  0
  7 19  1  0
  7 20  1  0
  7 21  1  0
  8 10  2  0
  8 22  1  0
  8 23  1  0
  9 10  2  0
M  RAD  1   9   2
M  END
>  <reaction>  (17) 
rmg_rxn_191

>  <mol_properties>  (17) 
{"2": {"label": "*0", "atom_type": "Ct"}, "3": {"label": "*1", "atom_type": "Cs"}, "9": {"label": "*2", "atom_type": "H0"}, "10": {"label": "*3", "atom_type": "Cs"}, "11": {"label": "*4", "atom_type": "Cs"}}

>  <type>  (17) 
unop_13

>  <geom_source>  (17) 
AutoTST

$$$$

     RDKit          3D

 23 22  0  0  0  0  0  0  0  0999 V2000
    2.1595    0.3182   -4.1624 C   0  0  0  0  0  0  0  0  0  0  0  0
    2.1595    0.3182   -2.7051 C   0  0  0  0  0  0  0  0  0  0  0  0
    2.1595    0.3182   -1.5067 C   0  0  0  0  0  0  0  0  0  0  0  0
    2.1595    0.3182   -0.0494 C   0  0  0  0  0  0  0  0  0  0  0  0
    2.4719   -0.6523   -4.5517 H   0  0  0  0  0  0  0  0  0  0  0  0
    2.8437    1.0740   -4.5517 H   0  0  0  0  0  0  0  0  0  0  0  0
    1.1628    0.5329   -4.5517 H   0  0  0  0  0  0  0  0  0  0  0  0
    2.8078    1.1050    0.3399 H   0  0  0  0  0  0  0  0  0  0  0  0
    2.5167   -0.6367    0.3399 H   0  0  0  0  0  0  0  0  0  0  0  0
    0.9528    0.5199    0.4178 H   0  0  0  0  0  0  0  0  0  0  0  0
   -0.2550    0.7217    0.8854 C   0  0  0  0  0  3  0  0  0  0  0  0
   -1.2974    0.1730   -0.0784 C   0  0  0  0  0  0  0  0  0  0  0  0
   -2.4946   -0.1301    0.6117 O   0  0  0  0  0  0  0  0  0  0  0  0
   -2.2626   -1.0235    1.6579 C   0  0  0  0  0  0  0  0  0  0  0  0
   -1.3826   -0.5216    2.6171 O   0  0  0  0  0  0  0  0  0  0  0  0
   -0.1149   -0.2433    2.0541 C   0  0  0  0  0  0  0  0  0  0  0  0
   -0.5803    1.6957    1.2560 H   0  0  0  0  0  0  0  0  0  0  0  0
   -1.5558    0.8941   -0.8527 H   0  0  0  0  0  0  0  0  0  0  0  0
   -0.9159   -0.7360   -0.5683 H   0  0  0  0  0  0  0  0  0  0  0  0
   -1.8613   -1.9697    1.2507 H   0  0  0  0  0  0  0  0  0  0  0  0
   -3.2157   -1.1969    2.1525 H   0  0  0  0  0  0  0  0  0  0  0  0
    0.3497   -1.1816    1.7142 H   0  0  0  0  0  0  0  0  0  0  0  0
    0.4989    0.1707    2.8529 H   0  0  0  0  0  0  0  0  0  0  0  0
  1  2  1  0
  1  5  1  0
  1  6  1  0
  1  7  1  0
  2  3  3  0
  3  4  1  0
  4  8  1  0
  4  9  1  0
  4 10  1  0
 11 12  1  0
 11 16  1  0
 11 17  1  0
 12 13  1  0
 12 18  1  0
 12 19  1  0
 13 14  1  0
 14 15  1  0
 14 20  1  0
 14 21  1  0
 15 16  1  0
 16 22  1  0
 16 23  1  0
M  RAD  1  11   2
M  END
>  <reaction>  (18) 
rmg_rxn_191

>  <mol_properties>  (18) 
{"2": {"label": "*0", "atom_type": "Ct"}, "3": {"label": "*1", "atom_type": "Cs"}, "9": {"label": "*2", "atom_type": "H0"}, "10": {"label": "*3", "atom_type": "Cs"}, "11": {"label": "*4", "atom_type": "Cs"}}

>  <type>  (18) 
unop_14

>  <geom_source>  (18) 
gaussian_log

$$$$
