
     RDKit          3D

  6  5  0  0  0  0  0  0  0  0999 V2000
    1.2314    0.0428    0.5088 O   0  0  0  0  0  0  0  0  0  0  0  0
    0.2987    0.2341   -0.4915 N   0  0  0  0  0  0  0  0  0  0  0  0
   -0.8599   -0.1122   -0.1290 C   0  0  0  0  0  0  0  0  0  0  0  0
    2.0507    0.3401    0.1082 H   0  0  0  0  0  0  0  0  0  0  0  0
   -1.0700   -0.5112    0.8610 H   0  0  0  0  0  0  0  0  0  0  0  0
   -1.6509    0.0064   -0.8574 H   0  0  0  0  0  0  0  0  0  0  0  0
  1  2  1  0
  1  4  1  0
  2  3  2  3
  3  5  1  0
  3  6  1  0
M  END
>  <reaction>  (1) 
rmg_rxn_15381

>  <mol_properties>  (1) 
{"2": {"label": "donator", "atom_type": "Cd"}, "4": {"label": "d_hydrogen", "atom_type": "H0"}}

>  <type>  (1) 
r1h

$$$$

     RDKit          3D

  4  3  0  0  0  0  0  0  0  0999 V2000
    0.0000    0.0000    0.0000 C   0  0  0  0  0  3  0  0  0  0  0  0
    1.0638   -0.1747    0.0540 H   0  0  0  0  0  0  0  0  0  0  0  0
   -0.6833   -0.8351   -0.0280 H   0  0  0  0  0  0  0  0  0  0  0  0
   -0.3805    1.0098   -0.0260 H   0  0  0  0  0  0  0  0  0  0  0  0
  1  2  1  0
  1  3  1  0
  1  4  1  0
M  RAD  1   1   2
M  END
>  <reaction>  (2) 
rmg_rxn_15381

>  <mol_properties>  (2) 
{"0": {"label": "acceptor", "atom_type": "Cs"}}

>  <type>  (2) 
r2

$$$$

     RDKit          3D

  5  4  0  0  0  0  0  0  0  0999 V2000
    0.0000    0.0000    0.0000 C   0  0  0  0  0  0  0  0  0  0  0  0
   -0.6486   -0.7720   -0.4113 H   0  0  0  0  0  0  0  0  0  0  0  0
   -0.3482    0.9787   -0.3267 H   0  0  0  0  0  0  0  0  0  0  0  0
   -0.0223   -0.0487    1.0876 H   0  0  0  0  0  0  0  0  0  0  0  0
    1.0191   -0.1580   -0.3496 H   0  0  0  0  0  0  0  0  0  0  0  0
  1  2  1  0
  1  3  1  0
  1  4  1  0
  1  5  1  0
M  END
>  <reaction>  (3) 
rmg_rxn_15381

>  <mol_properties>  (3) 
{"0": {"label": "acceptor", "atom_type": "Cs"}, "4": {"label": "a_hydrogen", "atom_type": "H0"}}

>  <type>  (3) 
r2h

$$$$

     RDKit          3D

 10  8  0  0  0  0  0  0  0  0999 V2000
    0.0156    2.2641   -0.3785 C   0  0  0  0  0  3  0  0  0  0  0  0
   -0.9894    2.2373   -0.7881 H   0  0  0  0  0  0  0  0  0  0  0  0
    0.7929    2.1507   -1.1278 H   0  0  0  0  0  0  0  0  0  0  0  0
    0.1880    3.0800    0.3179 H   0  0  0  0  0  0  0  0  0  0  0  0
   -0.2377   -1.0021   -0.8759 O   0  0  0  0  0  0  0  0  0  0  0  0
    0.0172   -1.0987    0.4866 N   0  0  0  0  0  0  0  0  0  0  0  0
    0.1782    0.0039    1.0510 C   0  0  0  0  0  0  0  0  0  0  0  0
   -0.3330   -1.9187   -1.1429 H   0  0  0  0  0  0  0  0  0  0  0  0
    0.1025    1.1502    0.3614 H   0  0  0  0  0  0  0  0  0  0  0  0
    0.3824    0.0282    2.1164 H   0  0  0  0  0  0  0  0  0  0  0  0
  1  2  1  0
  1  3  1  0
  1  4  1  0
  5  6  1  0
  5  8  1  0
  6  7  2  3
  7  9  1  0
  7 10  1  0
M  RAD  1   1   2
M  END
>  <reaction>  (4) 
rmg_rxn_15381

>  <mol_properties>  (4) 
{"0": {"label": "*3", "atom_type": "Cs"}, "1": {"label": "*4", "atom_type": "H0"}, "5": {"label": "*0", "atom_type": "N3d"}, "6": {"label": "*1", "atom_type": "Cd"}, "8": {"label": "*2", "atom_type": "H0"}}

>  <type>  (4) 
ts

$$$$

     RDKit          3D

 10  8  0  0  0  0  0  0  0  0999 V2000
   -2.2425   -0.3136    0.0001 C   0  0  0  0  0  0  0  0  0  0  0  0
   -2.2486   -0.9229    0.8929 H   0  0  0  0  0  0  0  0  0  0  0  0
   -2.2560   -0.9133   -0.8989 H   0  0  0  0  0  0  0  0  0  0  0  0
   -3.0475    0.4055    0.0073 H   0  0  0  0  0  0  0  0  0  0  0  0
    1.2158   -0.9092   -0.0001 O   0  0  0  0  0  0  0  0  0  0  0  0
    1.1136    0.4408    0.0005 N   0  0  0  0  0  0  0  0  0  0  0  0
    0.0249    1.0343   -0.0005 C   0  0  0  0  0  3  0  0  0  0  0  0
    0.3373   -1.3366   -0.0011 H   0  0  0  0  0  0  0  0  0  0  0  0
   -1.1469    0.3780   -0.0012 H   0  0  0  0  0  0  0  0  0  0  0  0
    0.0116    2.1085   -0.0000 H   0  0  0  0  0  0  0  0  0  0  0  0
  1  2  1  0
  1  3  1  0
  1  4  1  0
  1  9  1  0
  5  6  1  0
  5  8  1  0
  6  7  2  3
  7 10  1  0
M  RAD  1   7   2
M  END
>  <reaction>  (5) 
rmg_rxn_15381

>  <mol_properties>  (5) 
{"0": {"label": "*3", "atom_type": "Cs"}, "1": {"label": "*4", "atom_type": "H0"}, "5": {"label": "*0", "atom_type": "N3d"}, "6": {"label": "*1", "atom_type": "Cd"}, "8": {"label": "*2", "atom_type": "H0"}}

>  <type>  (5) 
unop_1

>  <geom_source>  (5) 
crest_best.xyz

$$$$

     RDKit          3D

 10  8  0  0  0  0  0  0  0  0999 V2000
   -0.0024    2.1772   -0.5026 C   0  0  0  0  0  3  0  0  0  0  0  0
   -0.8915    2.7705   -0.2945 H   0  0  0  0  0  0  0  0  0  0  0  0
    0.3879    2.4401   -1.4846 H   0  0  0  0  0  0  0  0  0  0  0  0
    0.6368    2.5117    0.3131 H   0  0  0  0  0  0  0  0  0  0  0  0
   -0.0024   -1.1225   -0.8418 O   0  0  0  0  0  0  0  0  0  0  0  0
   -0.0024   -1.1225    0.5391 N   0  0  0  0  0  0  0  0  0  0  0  0
   -0.0024    0.0482    1.0111 C   0  0  0  0  0  0  0  0  0  0  0  0
   -0.0024   -2.0557   -1.0638 H   0  0  0  0  0  0  0  0  0  0  0  0
   -0.0024    1.1122    0.2546 H   0  0  0  0  0  0  0  0  0  0  0  0
   -0.0024    0.1357    2.0894 H   0  0  0  0  0  0  0  0  0  0  0  0
  1  2  1  0
  1  3  1  0
  1  4  1  0
  5  6  1  0
  5  8  1  0
  6  7  2  3
  7  9  1  0
  7 10  1  0
M  RAD  1   1   2
M  END
>  <reaction>  (6) 
rmg_rxn_15381

>  <mol_properties>  (6) 
{"0": {"label": "*3", "atom_type": "Cs"}, "1": {"label": "*4", "atom_type": "H0"}, "5": {"label": "*0", "atom_type": "N3d"}, "6": {"label": "*1", "atom_type": "Cd"}, "8": {"label": "*2", "atom_type": "H0"}}

>  <type>  (6) 
unop_2

>  <geom_source>  (6) 
Heuristics

$$$$

     RDKit          3D

 10  8  0  0  0  0  0  0  0  0999 V2000
   -2.3973   -0.0744    0.0002 C   0  0  0  0  0  0  0  0  0  0  0  0
   -1.5032    0.5232   -0.0020 H   0  0  0  0  0  0  0  0  0  0  0  0
   -2.4906   -0.6715    0.8945 H   0  0  0  0  0  0  0  0  0  0  0  0
   -3.0771    0.7423    0.0032 H   0  0  0  0  0  0  0  0  0  0  0  0
    0.8831   -1.0860   -0.0002 O   0  0  0  0  0  0  0  0  0  0  0  0
    1.2542    0.2182    0.0008 N   0  0  0  0  0  0  0  0  0  0  0  0
    0.4966    1.1875   -0.0007 C   0  0  0  0  0  3  0  0  0  0  0  0
   -0.0891   -1.1776   -0.0028 H   0  0  0  0  0  0  0  0  0  0  0  0
   -2.4962   -0.6699   -0.8946 H   0  0  0  0  0  0  0  0  0  0  0  0
    0.8598    2.1957    0.0004 H   0  0  0  0  0  0  0  0  0  0  0  0
  1  2  1  0
  1  3  1  0
  1  4  1  0
  1  9  1  0
  5  6  1  0
  5  8  1  0
  6  7  2  3
  7 10  1  0
M  RAD  1   7   2
M  END
>  <reaction>  (7) 
rmg_rxn_15381

>  <mol_properties>  (7) 
{"0": {"label": "*3", "atom_type": "Cs"}, "1": {"label": "*4", "atom_type": "H0"}, "5": {"label": "*0", "atom_type": "N3d"}, "6": {"label": "*1", "atom_type": "Cd"}, "8": {"label": "*2", "atom_type": "H0"}}

>  <type>  (7) 
unop_3

>  <geom_source>  (7) 
Heuristics

$$$$

     RDKit          3D

 10  8  0  0  0  0  0  0  0  0999 V2000
   -2.2425   -0.3136    0.0000 C   0  0  0  0  0  0  0  0  0  0  0  0
   -3.0474    0.4056    0.0098 H   0  0  0  0  0  0  0  0  0  0  0  0
   -2.2481   -0.9253    0.8912 H   0  0  0  0  0  0  0  0  0  0  0  0
   -2.2568   -0.9110   -0.9006 H   0  0  0  0  0  0  0  0  0  0  0  0
    1.2160   -0.9092   -0.0000 O   0  0  0  0  0  0  0  0  0  0  0  0
    1.1136    0.4408    0.0001 N   0  0  0  0  0  0  0  0  0  0  0  0
    0.0249    1.0343   -0.0001 C   0  0  0  0  0  3  0  0  0  0  0  0
    0.3376   -1.3368   -0.0004 H   0  0  0  0  0  0  0  0  0  0  0  0
   -1.1470    0.3780   -0.0004 H   0  0  0  0  0  0  0  0  0  0  0  0
    0.0113    2.1085   -0.0001 H   0  0  0  0  0  0  0  0  0  0  0  0
  1  2  1  0
  1  3  1  0
  1  4  1  0
  1  9  1  0
  5  6  1  0
  5  8  1  0
  6  7  2  3
  7 10  1  0
M  RAD  1   7   2
M  END
>  <reaction>  (8) 
rmg_rxn_15381

>  <mol_properties>  (8) 
{"0": {"label": "*3", "atom_type": "Cs"}, "1": {"label": "*4", "atom_type": "H0"}, "5": {"label": "*0", "atom_type": "N3d"}, "6": {"label": "*1", "atom_type": "Cd"}, "8": {"label": "*2", "atom_type": "H0"}}

>  <type>  (8) 
unop_4

>  <geom_source>  (8) 
Heuristics

$$$$

     RDKit          3D

 10  8  0  0  0  0  0  0  0  0999 V2000
   -0.0017    2.1854   -0.4995 C   0  0  0  0  0  3  0  0  0  0  0  0
   -0.5150    1.9661   -1.4345 H   0  0  0  0  0  0  0  0  0  0  0  0
    0.8896    2.7764   -0.7048 H   0  0  0  0  0  0  0  0  0  0  0  0
   -0.2808    2.5135    0.5006 H   0  0  0  0  0  0  0  0  0  0  0  0
   -0.0017   -1.1143   -0.8388 O   0  0  0  0  0  0  0  0  0  0  0  0
   -0.0017   -1.1143    0.5422 N   0  0  0  0  0  0  0  0  0  0  0  0
   -0.0017    0.0565    1.0142 C   0  0  0  0  0  0  0  0  0  0  0  0
   -0.0017   -2.0474   -1.0608 H   0  0  0  0  0  0  0  0  0  0  0  0
   -0.0017    1.1205    0.2577 H   0  0  0  0  0  0  0  0  0  0  0  0
   -0.0017    0.1439    2.0925 H   0  0  0  0  0  0  0  0  0  0  0  0
  1  2  1  0
  1  3  1  0
  1  4  1  0
  5  6  1  0
  5  8  1  0
  6  7  2  3
  7  9  1  0
  7 10  1  0
M  RAD  1   1   2
M  END
>  <reaction>  (9) 
rmg_rxn_15381

>  <mol_properties>  (9) 
{"0": {"label": "*3", "atom_type": "Cs"}, "1": {"label": "*4", "atom_type": "H0"}, "5": {"label": "*0", "atom_type": "N3d"}, "6": {"label": "*1", "atom_type": "Cd"}, "8": {"label": "*2", "atom_type": "H0"}}

>  <type>  (9) 
unop_5

>  <geom_source>  (9) 
Heuristics

$$$$

     RDKit          3D

 10  8  0  0  0  0  0  0  0  0999 V2000
   -2.3829   -0.1152   -0.0001 C   0  0  0  0  0  0  0  0  0  0  0  0
   -2.4917   -0.6988   -0.9000 H   0  0  0  0  0  0  0  0  0  0  0  0
   -3.0196    0.7400    0.0041 H   0  0  0  0  0  0  0  0  0  0  0  0
   -2.4914   -0.7074    0.8941 H   0  0  0  0  0  0  0  0  0  0  0  0
    0.9337   -1.0694    0.0001 O   0  0  0  0  0  0  0  0  0  0  0  0
    1.2392    0.2517   -0.0003 N   0  0  0  0  0  0  0  0  0  0  0  0
    0.4288    1.1778    0.0002 C   0  0  0  0  0  3  0  0  0  0  0  0
   -0.0331   -1.2083    0.0004 H   0  0  0  0  0  0  0  0  0  0  0  0
   -1.4561    0.4848    0.0023 H   0  0  0  0  0  0  0  0  0  0  0  0
    0.7356    2.2046   -0.0003 H   0  0  0  0  0  0  0  0  0  0  0  0
  1  2  1  0
  1  3  1  0
  1  4  1  0
  1  9  1  0
  5  6  1  0
  5  8  1  0
  6  7  2  3
  7 10  1  0
M  RAD  1   7   2
M  END
>  <reaction>  (10) 
rmg_rxn_15381

>  <mol_properties>  (10) 
{"0": {"label": "*3", "atom_type": "Cs"}, "1": {"label": "*4", "atom_type": "H0"}, "5": {"label": "*0", "atom_type": "N3d"}, "6": {"label": "*1", "atom_type": "Cd"}, "8": {"label": "*2", "atom_type": "H0"}}

>  <type>  (10) 
unop_6

>  <geom_source>  (10) 
Heuristics

$$$$

     RDKit          3D

 10  8  0  0  0  0  0  0  0  0999 V2000
   -0.0048    2.1761   -0.4991 C   0  0  0  0  0  3  0  0  0  0  0  0
   -0.5181    2.9872    0.0152 H   0  0  0  0  0  0  0  0  0  0  0  0
   -0.1608    2.2708   -1.5726 H   0  0  0  0  0  0  0  0  0  0  0  0
    0.9488    2.5255   -0.1061 H   0  0  0  0  0  0  0  0  0  0  0  0
   -0.0048   -1.1236   -0.8383 O   0  0  0  0  0  0  0  0  0  0  0  0
   -0.0048   -1.1236    0.5426 N   0  0  0  0  0  0  0  0  0  0  0  0
   -0.0048    0.0472    1.0146 C   0  0  0  0  0  0  0  0  0  0  0  0
   -0.0048   -2.0568   -1.0603 H   0  0  0  0  0  0  0  0  0  0  0  0
   -0.0048    1.1112    0.2581 H   0  0  0  0  0  0  0  0  0  0  0  0
   -0.0048    0.1346    2.0929 H   0  0  0  0  0  0  0  0  0  0  0  0
  1  2  1  0
  1  3  1  0
  1  4  1  0
  5  6  1  0
  5  8  1  0
  6  7  2  3
  7  9  1  0
  7 10  1  0
M  RAD  1   1   2
M  END
>  <reaction>  (11) 
rmg_rxn_15381

>  <mol_properties>  (11) 
{"0": {"label": "*3", "atom_type": "Cs"}, "1": {"label": "*4", "atom_type": "H0"}, "5": {"label": "*0", "atom_type": "N3d"}, "6": {"label": "*1", "atom_type": "Cd"}, "8": {"label": "*2", "atom_type": "H0"}}

>  <type>  (11) 
unop_7

>  <geom_source>  (11) 
Heuristics

$$$$

     RDKit          3D

 10  8  0  0  0  0  0  0  0  0999 V2000
   -0.0022    2.1828   -0.5026 C   0  0  0  0  0  3  0  0  0  0  0  0
    0.8869    2.1811   -1.1313 H   0  0  0  0  0  0  0  0  0  0  0  0
    0.2237    2.6709    0.4442 H   0  0  0  0  0  0  0  0  0  0  0  0
   -0.9874    2.5557   -0.7784 H   0  0  0  0  0  0  0  0  0  0  0  0
   -0.0022   -1.1170   -0.8418 O   0  0  0  0  0  0  0  0  0  0  0  0
   -0.0022   -1.1170    0.5391 N   0  0  0  0  0  0  0  0  0  0  0  0
   -0.0022    0.0538    1.0111 C   0  0  0  0  0  0  0  0  0  0  0  0
   -0.0022   -2.0501   -1.0638 H   0  0  0  0  0  0  0  0  0  0  0  0
   -0.0022    1.1178    0.2546 H   0  0  0  0  0  0  0  0  0  0  0  0
   -0.0022    0.1412    2.0894 H   0  0  0  0  0  0  0  0  0  0  0  0
  1  2  1  0
  1  3  1  0
  1  4  1  0
  5  6  1  0
  5  8  1  0
  6  7  2  3
  7  9  1  0
  7 10  1  0
M  RAD  1   1   2
M  END
>  <reaction>  (12) 
rmg_rxn_15381

>  <mol_properties>  (12) 
{"0": {"label": "*3", "atom_type": "Cs"}, "1": {"label": "*4", "atom_type": "H0"}, "5": {"label": "*0", "atom_type": "N3d"}, "6": {"label": "*1", "atom_type": "Cd"}, "8": {"label": "*2", "atom_type": "H0"}}

>  <type>  (12) 
unop_8

>  <geom_source>  (12) 
Heuristics

$$$$

     RDKit          3D

 10  8  0  0  0  0  0  0  0  0999 V2000
   -2.2423   -0.3136    0.0001 C   0  0  0  0  0  0  0  0  0  0  0  0
   -2.2516   -0.9196   -0.8949 H   0  0  0  0  0  0  0  0  0  0  0  0
   -3.0475    0.4055   -0.0016 H   0  0  0  0  0  0  0  0  0  0  0  0
   -2.2525   -0.9166    0.8970 H   0  0  0  0  0  0  0  0  0  0  0  0
    1.2156   -0.9093   -0.0000 O   0  0  0  0  0  0  0  0  0  0  0  0
    1.1136    0.4407    0.0002 N   0  0  0  0  0  0  0  0  0  0  0  0
    0.0250    1.0344   -0.0002 C   0  0  0  0  0  3  0  0  0  0  0  0
    0.3371   -1.3367   -0.0005 H   0  0  0  0  0  0  0  0  0  0  0  0
   -1.1470    0.3783   -0.0004 H   0  0  0  0  0  0  0  0  0  0  0  0
    0.0118    2.1087    0.0003 H   0  0  0  0  0  0  0  0  0  0  0  0
  1  2  1  0
  1  3  1  0
  1  4  1  0
  1  9  1  0
  5  6  1  0
  5  8  1  0
  6  7  2  3
  7 10  1  0
M  RAD  1   7   2
M  END
>  <reaction>  (13) 
rmg_rxn_15381

>  <mol_properties>  (13) 
{"0": {"label": "*3", "atom_type": "Cs"}, "1": {"label": "*4", "atom_type": "H0"}, "5": {"label": "*0", "atom_type": "N3d"}, "6": {"label": "*1", "atom_type": "Cd"}, "8": {"label": "*2", "atom_type": "H0"}}

>  <type>  (13) 
unop_9

>  <geom_source>  (13) 
Heuristics

$$$$

     RDKit          3D

 10  8  0  0  0  0  0  0  0  0999 V2000
   -0.0007    2.1759   -0.4948 C   0  0  0  0  0  3  0  0  0  0  0  0
   -0.0007    3.0667    0.1316 H   0  0  0  0  0  0  0  0  0  0  0  0
   -0.8898    2.1743   -1.1235 H   0  0  0  0  0  0  0  0  0  0  0  0
    0.9316    2.5538   -0.9117 H   0  0  0  0  0  0  0  0  0  0  0  0
   -0.0007   -1.1238   -0.8341 O   0  0  0  0  0  0  0  0  0  0  0  0
   -0.0007   -1.1238    0.5469 N   0  0  0  0  0  0  0  0  0  0  0  0
   -0.0007    0.0470    1.0189 C   0  0  0  0  0  0  0  0  0  0  0  0
   -0.0007   -2.0570   -1.0561 H   0  0  0  0  0  0  0  0  0  0  0  0
   -0.0007    1.1110    0.2624 H   0  0  0  0  0  0  0  0  0  0  0  0
   -0.0007    0.1344    2.0972 H   0  0  0  0  0  0  0  0  0  0  0  0
  1  2  1  0
  1  3  1  0
  1  4  1  0
  5  6  1  0
  5  8  1  0
  6  7  2  3
  7  9  1  0
  7 10  1  0
M  RAD  1   1   2
M  END
>  <reaction>  (14) 
rmg_rxn_15381

>  <mol_properties>  (14) 
{"0": {"label": "*3", "atom_type": "Cs"}, "1": {"label": "*4", "atom_type": "H0"}, "5": {"label": "*0", "atom_type": "N3d"}, "6": {"label": "*1", "atom_type": "Cd"}, "8": {"label": "*2", "atom_type": "H0"}}

>  <type>  (14) 
unop_10

>  <geom_source>  (14) 
Heuristics

$$$$

     RDKit          3D

 10  8  0  0  0  0  0  0  0  0999 V2000
   -2.3738   -0.1128    0.0000 C   0  0  0  0  0  0  0  0  0  0  0  0
   -2.4931   -0.6965    0.8976 H   0  0  0  0  0  0  0  0  0  0  0  0
   -2.4935   -0.6936   -0.8995 H   0  0  0  0  0  0  0  0  0  0  0  0
   -2.9748    0.7654    0.0016 H   0  0  0  0  0  0  0  0  0  0  0  0
    0.9232   -1.0713   -0.0000 O   0  0  0  0  0  0  0  0  0  0  0  0
    1.2372    0.2476    0.0001 N   0  0  0  0  0  0  0  0  0  0  0  0
    0.4323    1.1787   -0.0001 C   0  0  0  0  0  3  0  0  0  0  0  0
   -0.0447   -1.2036   -0.0003 H   0  0  0  0  0  0  0  0  0  0  0  0
   -1.4516    0.4884    0.0007 H   0  0  0  0  0  0  0  0  0  0  0  0
    0.7466    2.2034    0.0000 H   0  0  0  0  0  0  0  0  0  0  0  0
  1  2  1  0
  1  3  1  0
  1  4  1  0
  1  9  1  0
  5  6  1  0
  5  8  1  0
  6  7  2  3
  7 10  1  0
M  RAD  1   7   2
M  END
>  <reaction>  (15) 
rmg_rxn_15381

>  <mol_properties>  (15) 
{"0": {"label": "*3", "atom_type": "Cs"}, "1": {"label": "*4", "atom_type": "H0"}, "5": {"label": "*0", "atom_type": "N3d"}, "6": {"label": "*1", "atom_type": "Cd"}, "8": {"label": "*2", "atom_type": "H0"}}

>  <type>  (15) 
unop_11

>  <geom_source>  (15) 
Heuristics

$$$$

     RDKit          3D

 10  8  0  0  0  0  0  0  0  0999 V2000
   -0.0005    2.1796   -0.5026 C   0  0  0  0  0  3  0  0  0  0  0  0
    1.0261    2.4754   -0.7129 H   0  0  0  0  0  0  0  0  0  0  0  0
   -0.2888    2.5441    0.4822 H   0  0  0  0  0  0  0  0  0  0  0  0
   -0.7068    2.5685   -1.2345 H   0  0  0  0  0  0  0  0  0  0  0  0
   -0.0005   -1.1202   -0.8418 O   0  0  0  0  0  0  0  0  0  0  0  0
   -0.0005   -1.1202    0.5391 N   0  0  0  0  0  0  0  0  0  0  0  0
   -0.0005    0.0506    1.0111 C   0  0  0  0  0  0  0  0  0  0  0  0
   -0.0005   -2.0533   -1.0638 H   0  0  0  0  0  0  0  0  0  0  0  0
   -0.0005    1.1146    0.2546 H   0  0  0  0  0  0  0  0  0  0  0  0
   -0.0005    0.1381    2.0894 H   0  0  0  0  0  0  0  0  0  0  0  0
  1  2  1  0
  1  3  1  0
  1  4  1  0
  5  6  1  0
  5  8  1  0
  6  7  2  3
  7  9  1  0
  7 10  1  0
M  RAD  1   1   2
M  END
>  <reaction>  (16) 
rmg_rxn_15381

>  <mol_properties>  (16) 
{"0": {"label": "*3", "atom_type": "Cs"}, "1": {"label": "*4", "atom_type": "H0"}, "5": {"label": "*0", "atom_type": "N3d"}, "6": {"label": "*1", "atom_type": "Cd"}, "8": {"label": "*2", "atom_type": "H0"}}

>  <type>  (16) 
unop_12

>  <geom_source>  (16) 
Heuristics

$$$$

     RDKit          3D

 10  8  0  0  0  0  0  0  0  0999 V2000
   -2.3767   -0.1128   -0.0001 C   0  0  0  0  0  0  0  0  0  0  0  0
   -2.4919   -0.6980    0.8974 H   0  0  0  0  0  0  0  0  0  0  0  0
   -2.4916   -0.6965   -0.8986 H   0  0  0  0  0  0  0  0  0  0  0  0
   -2.9919    0.7565    0.0005 H   0  0  0  0  0  0  0  0  0  0  0  0
    0.9255   -1.0710    0.0001 O   0  0  0  0  0  0  0  0  0  0  0  0
    1.2380    0.2483   -0.0004 N   0  0  0  0  0  0  0  0  0  0  0  0
    0.4324    1.1786    0.0003 C   0  0  0  0  0  3  0  0  0  0  0  0
   -0.0422   -1.2045    0.0010 H   0  0  0  0  0  0  0  0  0  0  0  0
   -1.4532    0.4885    0.0005 H   0  0  0  0  0  0  0  0  0  0  0  0
    0.7452    2.2037   -0.0002 H   0  0  0  0  0  0  0  0  0  0  0  0
  1  2  1  0
  1  3  1  0
  1  4  1  0
  1  9  1  0
  5  6  1  0
  5  8  1  0
  6  7  2  3
  7 10  1  0
M  RAD  1   7   2
M  END
>  <reaction>  (17) 
rmg_rxn_15381

>  <mol_properties>  (17) 
{"0": {"label": "*3", "atom_type": "Cs"}, "1": {"label": "*4", "atom_type": "H0"}, "5": {"label": "*0", "atom_type": "N3d"}, "6": {"label": "*1", "atom_type": "Cd"}, "8": {"label": "*2", "atom_type": "H0"}}

>  <type>  (17) 
unop_13

>  <geom_source>  (17) 
Heuristics

$$$$

     RDKit          3D

 10  8  0  0  0  0  0  0  0  0999 V2000
    0.0022    2.1772   -0.5016 C   0  0  0  0  0  3  0  0  0  0  0  0
    0.8913    2.7704   -0.2936 H   0  0  0  0  0  0  0  0  0  0  0  0
   -0.7542    2.3789    0.2554 H   0  0  0  0  0  0  0  0  0  0  0  0
   -0.2590    2.5748   -1.4811 H   0  0  0  0  0  0  0  0  0  0  0  0
    0.0022   -1.1226   -0.8409 O   0  0  0  0  0  0  0  0  0  0  0  0
    0.0022   -1.1226    0.5401 N   0  0  0  0  0  0  0  0  0  0  0  0
    0.0022    0.0482    1.0121 C   0  0  0  0  0  0  0  0  0  0  0  0
    0.0022   -2.0557   -1.0629 H   0  0  0  0  0  0  0  0  0  0  0  0
    0.0022    1.1122    0.2556 H   0  0  0  0  0  0  0  0  0  0  0  0
    0.0022    0.1356    2.0904 H   0  0  0  0  0  0  0  0  0  0  0  0
  1  2  1  0
  1  3  1  0
  1  4  1  0
  5  6  1  0
  5  8  1  0
  6  7  2  3
  7  9  1  0
  7 10  1  0
M  RAD  1   1   2
M  END
>  <reaction>  (18) 
rmg_rxn_15381

>  <mol_properties>  (18) 
{"0": {"label": "*3", "atom_type": "Cs"}, "1": {"label": "*4", "atom_type": "H0"}, "5": {"label": "*0", "atom_type": "N3d"}, "6": {"label": "*1", "atom_type": "Cd"}, "8": {"label": "*2", "atom_type": "H0"}}

>  <type>  (18) 
unop_14

>  <geom_source>  (18) 
Heuristics

$$$$

     RDKit          3D

 10  8  0  0  0  0  0  0  0  0999 V2000
   -2.2426   -0.3137   -0.0001 C   0  0  0  0  0  0  0  0  0  0  0  0
   -2.2479   -0.9254   -0.8912 H   0  0  0  0  0  0  0  0  0  0  0  0
   -3.0475    0.4055   -0.0103 H   0  0  0  0  0  0  0  0  0  0  0  0
   -2.2574   -0.9110    0.9005 H   0  0  0  0  0  0  0  0  0  0  0  0
    1.2161   -0.9092    0.0001 O   0  0  0  0  0  0  0  0  0  0  0  0
    1.1136    0.4409   -0.0006 N   0  0  0  0  0  0  0  0  0  0  0  0
    0.0248    1.0342    0.0005 C   0  0  0  0  0  3  0  0  0  0  0  0
    0.3377   -1.3368    0.0014 H   0  0  0  0  0  0  0  0  0  0  0  0
   -1.1471    0.3779    0.0004 H   0  0  0  0  0  0  0  0  0  0  0  0
    0.0114    2.1085    0.0001 H   0  0  0  0  0  0  0  0  0  0  0  0
  1  2  1  0
  1  3  1  0
  1  4  1  0
  1  9  1  0
  5  6  1  0
  5  8  1  0
  6  7  2  3
  7 10  1  0
M  RAD  1   7   2
M  END
>  <reaction>  (19) 
rmg_rxn_15381

>  <mol_properties>  (19) 
{"0": {"label": "*3", "atom_type": "Cs"}, "1": {"label": "*4", "atom_type": "H0"}, "5": {"label": "*0", "atom_type": "N3d"}, "6": {"label": "*1", "atom_type": "Cd"}, "8": {"label": "*2", "atom_type": "H0"}}

>  <type>  (19) 
unop_15

>  <geom_source>  (19) 
Heuristics

$$$$

     RDKit          3D

 10  8  0  0  0  0  0  0  0  0999 V2000
    0.0005    2.1796   -0.5022 C   0  0  0  0  0  3  0  0  0  0  0  0
   -1.0262    2.4754   -0.7125 H   0  0  0  0  0  0  0  0  0  0  0  0
    0.6623    2.6052   -1.2549 H   0  0  0  0  0  0  0  0  0  0  0  0
    0.3384    2.5083    0.4794 H   0  0  0  0  0  0  0  0  0  0  0  0
    0.0005   -1.1202   -0.8414 O   0  0  0  0  0  0  0  0  0  0  0  0
    0.0005   -1.1202    0.5395 N   0  0  0  0  0  0  0  0  0  0  0  0
    0.0005    0.0506    1.0115 C   0  0  0  0  0  0  0  0  0  0  0  0
    0.0005   -2.0533   -1.0634 H   0  0  0  0  0  0  0  0  0  0  0  0
    0.0005    1.1146    0.2550 H   0  0  0  0  0  0  0  0  0  0  0  0
    0.0005    0.1380    2.0898 H   0  0  0  0  0  0  0  0  0  0  0  0
  1  2  1  0
  1  3  1  0
  1  4  1  0
  5  6  1  0
  5  8  1  0
  6  7  2  3
  7  9  1  0
  7 10  1  0
M  RAD  1   1   2
M  END
>  <reaction>  (20) 
rmg_rxn_15381

>  <mol_properties>  (20) 
{"0": {"label": "*3", "atom_type": "Cs"}, "1": {"label": "*4", "atom_type": "H0"}, "5": {"label": "*0", "atom_type": "N3d"}, "6": {"label": "*1", "atom_type": "Cd"}, "8": {"label": "*2", "atom_type": "H0"}}

>  <type>  (20) 
unop_16

>  <geom_source>  (20) 
Heuristics

$$$$

     RDKit          3D

 10  8  0  0  0  0  0  0  0  0999 V2000
   -2.2425   -0.3136    0.0001 C   0  0  0  0  0  0  0  0  0  0  0  0
   -2.2486   -0.9229    0.8929 H   0  0  0  0  0  0  0  0  0  0  0  0
   -2.2560   -0.9133   -0.8989 H   0  0  0  0  0  0  0  0  0  0  0  0
   -3.0475    0.4055    0.0073 H   0  0  0  0  0  0  0  0  0  0  0  0
    1.2158   -0.9092   -0.0001 O   0  0  0  0  0  0  0  0  0  0  0  0
    1.1136    0.4408    0.0005 N   0  0  0  0  0  0  0  0  0  0  0  0
    0.0249    1.0343   -0.0005 C   0  0  0  0  0  3  0  0  0  0  0  0
    0.3373   -1.3366   -0.0011 H   0  0  0  0  0  0  0  0  0  0  0  0
   -1.1469    0.3780   -0.0012 H   0  0  0  0  0  0  0  0  0  0  0  0
    0.0116    2.1085   -0.0000 H   0  0  0  0  0  0  0  0  0  0  0  0
  1  2  1  0
  1  3  1  0
  1  4  1  0
  1  9  1  0
  5  6  1  0
  5  8  1  0
  6  7  2  3
  7 10  1  0
M  RAD  1   7   2
M  END
>  <reaction>  (21) 
rmg_rxn_15381

>  <mol_properties>  (21) 
{"0": {"label": "*3", "atom_type": "Cs"}, "1": {"label": "*4", "atom_type": "H0"}, "5": {"label": "*0", "atom_type": "N3d"}, "6": {"label": "*1", "atom_type": "Cd"}, "8": {"label": "*2", "atom_type": "H0"}}

>  <type>  (21) 
unop_17

>  <geom_source>  (21) 
Heuristics

$$$$

     RDKit          3D

 10  8  0  0  0  0  0  0  0  0999 V2000
   -0.0032    2.1855   -0.5022 C   0  0  0  0  0  3  0  0  0  0  0  0
    0.5101    1.9662   -1.4372 H   0  0  0  0  0  0  0  0  0  0  0  0
    0.6610    2.7463    0.1537 H   0  0  0  0  0  0  0  0  0  0  0  0
   -0.9888    2.5382   -0.2023 H   0  0  0  0  0  0  0  0  0  0  0  0
   -0.0032   -1.1142   -0.8415 O   0  0  0  0  0  0  0  0  0  0  0  0
   -0.0032   -1.1142    0.5395 N   0  0  0  0  0  0  0  0  0  0  0  0
   -0.0032    0.0566    1.0115 C   0  0  0  0  0  0  0  0  0  0  0  0
   -0.0032   -2.0473   -1.0635 H   0  0  0  0  0  0  0  0  0  0  0  0
   -0.0032    1.1206    0.2550 H   0  0  0  0  0  0  0  0  0  0  0  0
   -0.0032    0.1440    2.0898 H   0  0  0  0  0  0  0  0  0  0  0  0
  1  2  1  0
  1  3  1  0
  1  4  1  0
  5  6  1  0
  5  8  1  0
  6  7  2  3
  7  9  1  0
  7 10  1  0
M  RAD  1   1   2
M  END
>  <reaction>  (22) 
rmg_rxn_15381

>  <mol_properties>  (22) 
{"0": {"label": "*3", "atom_type": "Cs"}, "1": {"label": "*4", "atom_type": "H0"}, "5": {"label": "*0", "atom_type": "N3d"}, "6": {"label": "*1", "atom_type": "Cd"}, "8": {"label": "*2", "atom_type": "H0"}}

>  <type>  (22) 
unop_18

>  <geom_source>  (22) 
Heuristics

$$$$

     RDKit          3D

 10  8  0  0  0  0  0  0  0  0999 V2000
    0.0005    2.1827   -0.5003 C   0  0  0  0  0  3  0  0  0  0  0  0
   -0.8886    2.1811   -1.1290 H   0  0  0  0  0  0  0  0  0  0  0  0
    0.8009    2.7218   -1.0048 H   0  0  0  0  0  0  0  0  0  0  0  0
    0.0573    2.5094    0.5369 H   0  0  0  0  0  0  0  0  0  0  0  0
    0.0005   -1.1171   -0.8395 O   0  0  0  0  0  0  0  0  0  0  0  0
    0.0005   -1.1171    0.5414 N   0  0  0  0  0  0  0  0  0  0  0  0
    0.0005    0.0537    1.0134 C   0  0  0  0  0  0  0  0  0  0  0  0
    0.0005   -2.0502   -1.0615 H   0  0  0  0  0  0  0  0  0  0  0  0
    0.0005    1.1177    0.2569 H   0  0  0  0  0  0  0  0  0  0  0  0
    0.0005    0.1412    2.0917 H   0  0  0  0  0  0  0  0  0  0  0  0
  1  2  1  0
  1  3  1  0
  1  4  1  0
  5  6  1  0
  5  8  1  0
  6  7  2  3
  7  9  1  0
  7 10  1  0
M  RAD  1   1   2
M  END
>  <reaction>  (23) 
rmg_rxn_15381

>  <mol_properties>  (23) 
{"0": {"label": "*3", "atom_type": "Cs"}, "1": {"label": "*4", "atom_type": "H0"}, "5": {"label": "*0", "atom_type": "N3d"}, "6": {"label": "*1", "atom_type": "Cd"}, "8": {"label": "*2", "atom_type": "H0"}}

>  <type>  (23) 
unop_19

>  <geom_source>  (23) 
Heuristics

$$$$

     RDKit          3D

 10  8  0  0  0  0  0  0  0  0999 V2000
    0.0038    2.1761   -0.4980 C   0  0  0  0  0  3  0  0  0  0  0  0
    0.5171    2.9871    0.0162 H   0  0  0  0  0  0  0  0  0  0  0  0
   -1.0620    2.2253   -0.2804 H   0  0  0  0  0  0  0  0  0  0  0  0
    0.3305    2.5730   -1.4580 H   0  0  0  0  0  0  0  0  0  0  0  0
    0.0038   -1.1237   -0.8373 O   0  0  0  0  0  0  0  0  0  0  0  0
    0.0038   -1.1237    0.5437 N   0  0  0  0  0  0  0  0  0  0  0  0
    0.0038    0.0471    1.0156 C   0  0  0  0  0  0  0  0  0  0  0  0
    0.0038   -2.0568   -1.0593 H   0  0  0  0  0  0  0  0  0  0  0  0
    0.0038    1.1111    0.2591 H   0  0  0  0  0  0  0  0  0  0  0  0
    0.0038    0.1346    2.0939 H   0  0  0  0  0  0  0  0  0  0  0  0
  1  2  1  0
  1  3  1  0
  1  4  1  0
  5  6  1  0
  5  8  1  0
  6  7  2  3
  7  9  1  0
  7 10  1  0
M  RAD  1   1   2
M  END
>  <reaction>  (24) 
rmg_rxn_15381

>  <mol_properties>  (24) 
{"0": {"label": "*3", "atom_type": "Cs"}, "1": {"label": "*4", "atom_type": "H0"}, "5": {"label": "*0", "atom_type": "N3d"}, "6": {"label": "*1", "atom_type": "Cd"}, "8": {"label": "*2", "atom_type": "H0"}}

>  <type>  (24) 
unop_20

>  <geom_source>  (24) 
Heuristics

$$$$

     RDKit          3D

 10  8  0  0  0  0  0  0  0  0999 V2000
   -0.0034    2.1866   -0.5008 C   0  0  0  0  0  3  0  0  0  0  0  0
   -0.0034    1.8875   -1.5479 H   0  0  0  0  0  0  0  0  0  0  0  0
    0.8857    2.7799   -0.2928 H   0  0  0  0  0  0  0  0  0  0  0  0
   -0.6888    2.5225    0.2758 H   0  0  0  0  0  0  0  0  0  0  0  0
   -0.0034   -1.1131   -0.8401 O   0  0  0  0  0  0  0  0  0  0  0  0
   -0.0034   -1.1131    0.5409 N   0  0  0  0  0  0  0  0  0  0  0  0
   -0.0034    0.0576    1.0129 C   0  0  0  0  0  0  0  0  0  0  0  0
   -0.0034   -2.0463   -1.0621 H   0  0  0  0  0  0  0  0  0  0  0  0
   -0.0034    1.1216    0.2564 H   0  0  0  0  0  0  0  0  0  0  0  0
   -0.0034    0.1451    2.0912 H   0  0  0  0  0  0  0  0  0  0  0  0
  1  2  1  0
  1  3  1  0
  1  4  1  0
  5  6  1  0
  5  8  1  0
  6  7  2  3
  7  9  1  0
  7 10  1  0
M  RAD  1   1   2
M  END
>  <reaction>  (25) 
rmg_rxn_15381

>  <mol_properties>  (25) 
{"0": {"label": "*3", "atom_type": "Cs"}, "1": {"label": "*4", "atom_type": "H0"}, "5": {"label": "*0", "atom_type": "N3d"}, "6": {"label": "*1", "atom_type": "Cd"}, "8": {"label": "*2", "atom_type": "H0"}}

>  <type>  (25) 
unop_21

>  <geom_source>  (25) 
Heuristics

$$$$

     RDKit          3D

 10  8  0  0  0  0  0  0  0  0999 V2000
    2.5373   -0.9311   -0.3382 O   0  0  0  0  0  0  0  0  0  0  0  0
    1.7026   -0.1431   -1.0999 N   0  0  0  0  0  0  0  0  0  0  0  0
   -1.5501    0.0612    0.5059 C   0  0  0  0  0  3  0  0  0  0  0  0
    0.7519    0.5422   -0.5549 C   0  0  0  0  0  0  0  0  0  0  0  0
   -2.0093   -0.2302   -0.4610 H   0  0  0  0  0  0  0  0  0  0  0  0
   -2.1200    0.9049    0.9466 H   0  0  0  0  0  0  0  0  0  0  0  0
   -1.5721   -0.8031    1.2011 H   0  0  0  0  0  0  0  0  0  0  0  0
   -0.2763    0.4392    0.3011 H   0  0  0  0  0  0  0  0  0  0  0  0
    2.4293   -0.9951    0.6683 H   0  0  0  0  0  0  0  0  0  0  0  0
    0.1067    1.1551   -1.1691 H   0  0  0  0  0  0  0  0  0  0  0  0
  1  2  1  0
  1  9  1  0
  2  4  2  3
  3  5  1  0
  3  6  1  0
  3  7  1  0
  4  8  1  0
  4 10  1  0
M  RAD  1   3   2
M  END
>  <reaction>  (26) 
rmg_rxn_15381

>  <mol_properties>  (26) 
{"0": {"label": "*3", "atom_type": "Cs"}, "1": {"label": "*4", "atom_type": "H0"}, "5": {"label": "*0", "atom_type": "N3d"}, "6": {"label": "*1", "atom_type": "Cd"}, "8": {"label": "*2", "atom_type": "H0"}}

>  <type>  (26) 
unop_22

>  <geom_source>  (26) 
AutoTST

$$$$

     RDKit          3D

 10  8  0  0  0  0  0  0  0  0999 V2000
   -0.0017    2.1854   -0.4995 C   0  0  0  0  0  3  0  0  0  0  0  0
   -0.5150    1.9661   -1.4345 H   0  0  0  0  0  0  0  0  0  0  0  0
    0.8896    2.7764   -0.7048 H   0  0  0  0  0  0  0  0  0  0  0  0
   -0.2808    2.5135    0.5006 H   0  0  0  0  0  0  0  0  0  0  0  0
   -0.0017   -1.1143   -0.8388 O   0  0  0  0  0  0  0  0  0  0  0  0
   -0.0017   -1.1143    0.5422 N   0  0  0  0  0  0  0  0  0  0  0  0
   -0.0017    0.0565    1.0142 C   0  0  0  0  0  0  0  0  0  0  0  0
   -0.0017   -2.0474   -1.0608 H   0  0  0  0  0  0  0  0  0  0  0  0
   -0.0017    1.1205    0.2577 H   0  0  0  0  0  0  0  0  0  0  0  0
   -0.0017    0.1439    2.0925 H   0  0  0  0  0  0  0  0  0  0  0  0
  1  2  1  0
  1  3  1  0
  1  4  1  0
  5  6  1  0
  5  8  1  0
  6  7  2  3
  7  9  1  0
  7 10  1  0
M  RAD  1   1   2
M  END
>  <reaction>  (27) 
rmg_rxn_15381

>  <mol_properties>  (27) 
{"0": {"label": "*3", "atom_type": "Cs"}, "1": {"label": "*4", "atom_type": "H0"}, "5": {"label": "*0", "atom_type": "N3d"}, "6": {"label": "*1", "atom_type": "Cd"}, "8": {"label": "*2", "atom_type": "H0"}}

>  <type>  (27) 
unop_23

>  <geom_source>  (27) 
gaussian_log

$$$$
