
     RDKit          3D

 10  9  0  0  0  0  0  0  0  0999 V2000
    2.0403   -0.0577    0.0120 C   0  0  0  0  0  0  0  0  0  0  0  0
    0.5945   -0.0168    0.1898 C   0  0  0  0  0  0  0  0  0  0  0  0
   -0.5945    0.0169    0.3360 C   0  0  0  0  0  0  0  0  0  0  0  0
   -2.0403    0.0577    0.5137 C   0  0  0  0  0  0  0  0  0  0  0  0
    2.4764    0.9348    0.1379 H   0  0  0  0  0  0  0  0  0  0  0  0
    2.3000   -0.4162   -0.9855 H   0  0  0  0  0  0  0  0  0  0  0  0
    2.5035   -0.7246    0.7413 H   0  0  0  0  0  0  0  0  0  0  0  0
   -2.3768    1.0718    0.7362 H   0  0  0  0  0  0  0  0  0  0  0  0
   -2.3498   -0.5886    1.3368 H   0  0  0  0  0  0  0  0  0  0  0  0
   -2.5532   -0.2773   -0.3894 H   0  0  0  0  0  0  0  0  0  0  0  0
  1  2  1  0
  1  5  1  0
  1  6  1  0
  1  7  1  0
  2  3  3  0
  3  4  1  0
  4  8  1  0
  4  9  1  0
  4 10  1  0
M  END
>  <reaction>  (1) 
rmg_rxn_24

>  <mol_properties>  (1) 
{"3": {"label": "donator", "atom_type": "Cs"}, "9": {"label": "d_hydrogen", "atom_type": "H0"}}

>  <type>  (1) 
r1h

$$$$

     RDKit          3D

 13 12  0  0  0  0  0  0  0  0999 V2000
    1.9060    0.2628    0.3980 C   0  0  0  0  0  0  0  0  0  0  0  0
    0.6330   -0.4250    0.0685 C   0  0  0  0  0  3  0  0  0  0  0  0
   -0.2610   -0.9325    1.1416 C   0  0  0  0  0  0  0  0  0  0  0  0
   -1.4364   -1.7546    0.6268 C   0  0  0  0  0  0  0  0  0  0  0  0
    2.4899   -0.3070    1.1292 H   0  0  0  0  0  0  0  0  0  0  0  0
    1.7297    1.2496    0.8515 H   0  0  0  0  0  0  0  0  0  0  0  0
    2.5269    0.4197   -0.4845 H   0  0  0  0  0  0  0  0  0  0  0  0
    0.2597   -0.3936   -0.9489 H   0  0  0  0  0  0  0  0  0  0  0  0
   -0.6439   -0.0868    1.7356 H   0  0  0  0  0  0  0  0  0  0  0  0
    0.3260   -1.5277    1.8536 H   0  0  0  0  0  0  0  0  0  0  0  0
   -1.0872   -2.6320    0.0792 H   0  0  0  0  0  0  0  0  0  0  0  0
   -2.0701   -2.0976    1.4459 H   0  0  0  0  0  0  0  0  0  0  0  0
   -2.0561   -1.1637   -0.0512 H   0  0  0  0  0  0  0  0  0  0  0  0
  1  2  1  0
  1  5  1  0
  1  6  1  0
  1  7  1  0
  2  3  1  0
  2  8  1  0
  3  4  1  0
  3  9  1  0
  3 10  1  0
  4 11  1  0
  4 12  1  0
  4 13  1  0
M  RAD  1   2   2
M  END
>  <reaction>  (2) 
rmg_rxn_24

>  <mol_properties>  (2) 
{"1": {"label": "acceptor", "atom_type": "Cs"}}

>  <type>  (2) 
r2

$$$$

     RDKit          3D

 14 13  0  0  0  0  0  0  0  0999 V2000
    1.8106   -0.5953    0.5577 C   0  0  0  0  0  0  0  0  0  0  0  0
    0.5197    0.2064    0.6554 C   0  0  0  0  0  0  0  0  0  0  0  0
   -0.5206   -0.2080   -0.3788 C   0  0  0  0  0  0  0  0  0  0  0  0
   -1.8114    0.5937   -0.2812 C   0  0  0  0  0  0  0  0  0  0  0  0
    2.2725   -0.4752   -0.4251 H   0  0  0  0  0  0  0  0  0  0  0  0
    1.6214   -1.6612    0.7052 H   0  0  0  0  0  0  0  0  0  0  0  0
    2.5364   -0.2784    1.3084 H   0  0  0  0  0  0  0  0  0  0  0  0
    0.0930    0.0950    1.6574 H   0  0  0  0  0  0  0  0  0  0  0  0
    0.7393    1.2723    0.5354 H   0  0  0  0  0  0  0  0  0  0  0  0
   -0.7402   -1.2739   -0.2588 H   0  0  0  0  0  0  0  0  0  0  0  0
   -0.0938   -0.0965   -1.3808 H   0  0  0  0  0  0  0  0  0  0  0  0
   -1.6222    1.6596   -0.4287 H   0  0  0  0  0  0  0  0  0  0  0  0
   -2.2734    0.4736    0.7017 H   0  0  0  0  0  0  0  0  0  0  0  0
   -2.5373    0.2768   -1.0318 H   0  0  0  0  0  0  0  0  0  0  0  0
  1  2  1  0
  1  5  1  0
  1  6  1  0
  1  7  1  0
  2  3  1  0
  2  8  1  0
  2  9  1  0
  3  4  1  0
  3 10  1  0
  3 11  1  0
  4 12  1  0
  4 13  1  0
  4 14  1  0
M  END
>  <reaction>  (3) 
rmg_rxn_24

>  <mol_properties>  (3) 
{"0": {"label": "a_hydrogen", "atom_type": "H0"}, "2": {"label": "acceptor", "atom_type": "Cs"}}

>  <type>  (3) 
r2h

$$$$

     RDKit          3D

 23 21  0  0  0  0  0  0  0  0999 V2000
    0.7307    1.6039   -2.8827 C   0  0  0  0  0  0  0  0  0  0  0  0
    0.9013    0.5258   -1.9191 C   0  0  0  0  0  0  0  0  0  0  0  0
    1.0502   -0.3732   -1.1319 C   0  0  0  0  0  0  0  0  0  0  0  0
    1.1634   -1.3976   -0.1467 C   0  0  0  0  0  0  0  0  0  0  0  0
   -0.0826    2.2696   -2.5855 H   0  0  0  0  0  0  0  0  0  0  0  0
    0.4956    1.2088   -3.8727 H   0  0  0  0  0  0  0  0  0  0  0  0
    1.6405    2.2011   -2.9650 H   0  0  0  0  0  0  0  0  0  0  0  0
    2.1431   -1.4703    0.3216 H   0  0  0  0  0  0  0  0  0  0  0  0
    0.7870   -2.3700   -0.4576 H   0  0  0  0  0  0  0  0  0  0  0  0
    0.3713   -1.0602    0.8612 H   0  0  0  0  0  0  0  0  0  0  0  0
    0.5147    0.3406    2.6367 C   0  0  0  0  0  0  0  0  0  0  0  0
   -0.4173   -0.5454    1.8581 C   0  0  0  0  0  3  0  0  0  0  0  0
   -1.5292    0.1396    1.1105 C   0  0  0  0  0  0  0  0  0  0  0  0
   -2.3806   -0.8142    0.2832 C   0  0  0  0  0  0  0  0  0  0  0  0
   -0.0150    0.8686    3.4376 H   0  0  0  0  0  0  0  0  0  0  0  0
    0.9602    1.0977    1.9859 H   0  0  0  0  0  0  0  0  0  0  0  0
    1.3235   -0.2299    3.0961 H   0  0  0  0  0  0  0  0  0  0  0  0
   -0.7368   -1.4404    2.3951 H   0  0  0  0  0  0  0  0  0  0  0  0
   -1.0954    0.9044    0.4577 H   0  0  0  0  0  0  0  0  0  0  0  0
   -2.1655    0.6769    1.8270 H   0  0  0  0  0  0  0  0  0  0  0  0
   -2.8229   -1.5911    0.9113 H   0  0  0  0  0  0  0  0  0  0  0  0
   -3.1929   -0.2860   -0.2181 H   0  0  0  0  0  0  0  0  0  0  0  0
   -1.7781   -1.3030   -0.4848 H   0  0  0  0  0  0  0  0  0  0  0  0
  1  2  1  0
  1  5  1  0
  1  6  1  0
  1  7  1  0
  2  3  3  0
  3  4  1  0
  4  8  1  0
  4  9  1  0
  4 10  1  0
 11 12  1  0
 11 15  1  0
 11 16  1  0
 11 17  1  0
 12 13  1  0
 12 18  1  0
 13 14  1  0
 13 19  1  0
 13 20  1  0
 14 21  1  0
 14 22  1  0
 14 23  1  0
M  RAD  1  12   2
M  END
>  <reaction>  (4) 
rmg_rxn_24

>  <mol_properties>  (4) 
{"2": {"label": "*0", "atom_type": "Ct"}, "3": {"label": "*1", "atom_type": "Cs"}, "9": {"label": "*2", "atom_type": "H0"}, "11": {"label": "*3", "atom_type": "Cs"}, "12": {"label": "*4", "atom_type": "Cs"}}

>  <type>  (4) 
ts

$$$$

     RDKit          3D

 23 21  0  0  0  0  0  0  0  0999 V2000
    0.9044    1.0154   -3.8244 C   0  0  0  0  0  0  0  0  0  0  0  0
    0.9044    1.0154   -2.3671 C   0  0  0  0  0  0  0  0  0  0  0  0
    0.9044    1.0154   -1.1686 C   0  0  0  0  0  0  0  0  0  0  0  0
    0.9044    1.0154    0.2886 C   0  0  0  0  0  0  0  0  0  0  0  0
    0.8223    2.0316   -4.2137 H   0  0  0  0  0  0  0  0  0  0  0  0
    0.0655    0.4361   -4.2137 H   0  0  0  0  0  0  0  0  0  0  0  0
    1.8256    0.5785   -4.2137 H   0  0  0  0  0  0  0  0  0  0  0  0
    0.8238    2.0317    0.6780 H   0  0  0  0  0  0  0  0  0  0  0  0
    1.8249    0.5771    0.6780 H   0  0  0  0  0  0  0  0  0  0  0  0
   -0.1033    0.3218    0.7558 H   0  0  0  0  0  0  0  0  0  0  0  0
   -2.5505   -0.5905    0.7669 C   0  0  0  0  0  0  0  0  0  0  0  0
   -1.1143   -0.3741    1.2245 C   0  0  0  0  0  3  0  0  0  0  0  0
   -0.5793   -1.5202    2.0753 C   0  0  0  0  0  0  0  0  0  0  0  0
    0.8568   -1.3038    2.5329 C   0  0  0  0  0  0  0  0  0  0  0  0
   -3.2224   -0.6934    1.6223 H   0  0  0  0  0  0  0  0  0  0  0  0
   -2.6375   -1.5000    0.1678 H   0  0  0  0  0  0  0  0  0  0  0  0
   -2.9075    0.2437    0.1608 H   0  0  0  0  0  0  0  0  0  0  0  0
   -1.0472    0.5576    1.7955 H   0  0  0  0  0  0  0  0  0  0  0  0
   -0.6465   -2.4519    1.5043 H   0  0  0  0  0  0  0  0  0  0  0  0
   -1.2272   -1.6512    2.9481 H   0  0  0  0  0  0  0  0  0  0  0  0
    0.9438   -0.3942    3.1320 H   0  0  0  0  0  0  0  0  0  0  0  0
    1.2138   -2.1379    3.1391 H   0  0  0  0  0  0  0  0  0  0  0  0
    1.5288   -1.2009    1.6775 H   0  0  0  0  0  0  0  0  0  0  0  0
  1  2  1  0
  1  5  1  0
  1  6  1  0
  1  7  1  0
  2  3  3  0
  3  4  1  0
  4  8  1  0
  4  9  1  0
  4 10  1  0
 11 12  1  0
 11 15  1  0
 11 16  1  0
 11 17  1  0
 12 13  1  0
 12 18  1  0
 13 14  1  0
 13 19  1  0
 13 20  1  0
 14 21  1  0
 14 22  1  0
 14 23  1  0
M  RAD  1  12   2
M  END
>  <reaction>  (5) 
rmg_rxn_24

>  <mol_properties>  (5) 
{"2": {"label": "*0", "atom_type": "Ct"}, "3": {"label": "*1", "atom_type": "Cs"}, "9": {"label": "*2", "atom_type": "H0"}, "11": {"label": "*3", "atom_type": "Cs"}, "12": {"label": "*4", "atom_type": "Cs"}}

>  <type>  (5) 
unop_1

>  <geom_source>  (5) 
Heuristics

$$$$

     RDKit          3D

 23 21  0  0  0  0  0  0  0  0999 V2000
    1.1332    1.0116   -3.3407 C   0  0  0  0  0  0  0  0  0  0  0  0
    1.1332    1.0116   -1.8835 C   0  0  0  0  0  0  0  0  0  0  0  0
    1.1332    1.0116   -0.6850 C   0  0  0  0  0  0  0  0  0  0  0  0
    1.1332    1.0116    0.7723 C   0  0  0  0  0  0  0  0  0  0  0  0
    1.0510    2.0278   -3.7301 H   0  0  0  0  0  0  0  0  0  0  0  0
    0.2943    0.4323   -3.7300 H   0  0  0  0  0  0  0  0  0  0  0  0
    2.0544    0.5747   -3.7300 H   0  0  0  0  0  0  0  0  0  0  0  0
    1.0526    2.0279    1.1617 H   0  0  0  0  0  0  0  0  0  0  0  0
    2.0537    0.5733    1.1616 H   0  0  0  0  0  0  0  0  0  0  0  0
    0.1254    0.3180    1.2395 H   0  0  0  0  0  0  0  0  0  0  0  0
   -2.1164    0.2706    2.3271 C   0  0  0  0  0  0  0  0  0  0  0  0
   -0.8856   -0.3779    1.7082 C   0  0  0  0  0  3  0  0  0  0  0  0
   -1.2277   -1.4876    0.7208 C   0  0  0  0  0  0  0  0  0  0  0  0
    0.0032   -2.1360    0.1019 C   0  0  0  0  0  0  0  0  0  0  0  0
   -2.7155   -0.4650    2.8692 H   0  0  0  0  0  0  0  0  0  0  0  0
   -2.7541    0.7132    1.5582 H   0  0  0  0  0  0  0  0  0  0  0  0
   -1.8429    1.0602    3.0288 H   0  0  0  0  0  0  0  0  0  0  0  0
   -0.2484   -0.7861    2.4993 H   0  0  0  0  0  0  0  0  0  0  0  0
   -1.8649   -1.0794   -0.0703 H   0  0  0  0  0  0  0  0  0  0  0  0
   -1.8266   -2.2490    1.2310 H   0  0  0  0  0  0  0  0  0  0  0  0
    0.6408   -2.5787    0.8708 H   0  0  0  0  0  0  0  0  0  0  0  0
   -0.2704   -2.9257   -0.5998 H   0  0  0  0  0  0  0  0  0  0  0  0
    0.6023   -1.4004   -0.4402 H   0  0  0  0  0  0  0  0  0  0  0  0
  1  2  1  0
  1  5  1  0
  1  6  1  0
  1  7  1  0
  2  3  3  0
  3  4  1  0
  4  8  1  0
  4  9  1  0
  4 10  1  0
 11 12  1  0
 11 15  1  0
 11 16  1  0
 11 17  1  0
 12 13  1  0
 12 18  1  0
 13 14  1  0
 13 19  1  0
 13 20  1  0
 14 21  1  0
 14 22  1  0
 14 23  1  0
M  RAD  1  12   2
M  END
>  <reaction>  (6) 
rmg_rxn_24

>  <mol_properties>  (6) 
{"2": {"label": "*0", "atom_type": "Ct"}, "3": {"label": "*1", "atom_type": "Cs"}, "9": {"label": "*2", "atom_type": "H0"}, "11": {"label": "*3", "atom_type": "Cs"}, "12": {"label": "*4", "atom_type": "Cs"}}

>  <type>  (6) 
unop_2

>  <geom_source>  (6) 
Heuristics

$$$$

     RDKit          3D

 23 21  0  0  0  0  0  0  0  0999 V2000
    0.9444    0.8741   -3.9507 C   0  0  0  0  0  0  0  0  0  0  0  0
    0.9444    0.8741   -2.4934 C   0  0  0  0  0  0  0  0  0  0  0  0
    0.9444    0.8741   -1.2949 C   0  0  0  0  0  0  0  0  0  0  0  0
    0.9444    0.8741    0.1624 C   0  0  0  0  0  0  0  0  0  0  0  0
    0.8622    1.8903   -4.3400 H   0  0  0  0  0  0  0  0  0  0  0  0
    0.1054    0.2948   -4.3400 H   0  0  0  0  0  0  0  0  0  0  0  0
    1.8655    0.4372   -4.3400 H   0  0  0  0  0  0  0  0  0  0  0  0
    0.8637    1.8904    0.5517 H   0  0  0  0  0  0  0  0  0  0  0  0
    1.8648    0.4358    0.5517 H   0  0  0  0  0  0  0  0  0  0  0  0
   -0.0634    0.1805    0.6295 H   0  0  0  0  0  0  0  0  0  0  0  0
   -2.0786   -1.3646    0.3308 C   0  0  0  0  0  0  0  0  0  0  0  0
   -1.0744   -0.5154    1.0982 C   0  0  0  0  0  3  0  0  0  0  0  0
   -0.6834   -1.1205    2.4415 C   0  0  0  0  0  0  0  0  0  0  0  0
    0.3208   -0.2713    3.2090 C   0  0  0  0  0  0  0  0  0  0  0  0
   -3.0004   -1.4934    0.9030 H   0  0  0  0  0  0  0  0  0  0  0  0
   -1.6751   -2.3594    0.1271 H   0  0  0  0  0  0  0  0  0  0  0  0
   -2.3405   -0.9087   -0.6254 H   0  0  0  0  0  0  0  0  0  0  0  0
   -1.4888    0.4845    1.2628 H   0  0  0  0  0  0  0  0  0  0  0  0
   -0.2690   -2.1204    2.2770 H   0  0  0  0  0  0  0  0  0  0  0  0
   -1.5846   -1.2608    3.0472 H   0  0  0  0  0  0  0  0  0  0  0  0
   -0.0827    0.7235    3.4126 H   0  0  0  0  0  0  0  0  0  0  0  0
    0.5827   -0.7272    4.1651 H   0  0  0  0  0  0  0  0  0  0  0  0
    1.2426   -0.1425    2.6367 H   0  0  0  0  0  0  0  0  0  0  0  0
  1  2  1  0
  1  5  1  0
  1  6  1  0
  1  7  1  0
  2  3  3  0
  3  4  1  0
  4  8  1  0
  4  9  1  0
  4 10  1  0
 11 12  1  0
 11 15  1  0
 11 16  1  0
 11 17  1  0
 12 13  1  0
 12 18  1  0
 13 14  1  0
 13 19  1  0
 13 20  1  0
 14 21  1  0
 14 22  1  0
 14 23  1  0
M  RAD  1  12   2
M  END
>  <reaction>  (7) 
rmg_rxn_24

>  <mol_properties>  (7) 
{"2": {"label": "*0", "atom_type": "Ct"}, "3": {"label": "*1", "atom_type": "Cs"}, "9": {"label": "*2", "atom_type": "H0"}, "11": {"label": "*3", "atom_type": "Cs"}, "12": {"label": "*4", "atom_type": "Cs"}}

>  <type>  (7) 
unop_3

>  <geom_source>  (7) 
Heuristics

$$$$

     RDKit          3D

 23 21  0  0  0  0  0  0  0  0999 V2000
    1.3859    0.5547   -3.4716 C   0  0  0  0  0  0  0  0  0  0  0  0
    1.3859    0.5547   -2.0144 C   0  0  0  0  0  0  0  0  0  0  0  0
    1.3859    0.5547   -0.8159 C   0  0  0  0  0  0  0  0  0  0  0  0
    1.3859    0.5547    0.6414 C   0  0  0  0  0  0  0  0  0  0  0  0
    1.3037    1.5708   -3.8610 H   0  0  0  0  0  0  0  0  0  0  0  0
    0.5470   -0.0246   -3.8610 H   0  0  0  0  0  0  0  0  0  0  0  0
    2.3070    0.1177   -3.8610 H   0  0  0  0  0  0  0  0  0  0  0  0
    1.3053    1.5710    1.0307 H   0  0  0  0  0  0  0  0  0  0  0  0
    2.3064    0.1163    1.0307 H   0  0  0  0  0  0  0  0  0  0  0  0
    0.3781   -0.1390    1.1086 H   0  0  0  0  0  0  0  0  0  0  0  0
   -0.1710   -0.2644    2.9114 C   0  0  0  0  0  0  0  0  0  0  0  0
   -0.6329   -0.8348    1.5773 C   0  0  0  0  0  3  0  0  0  0  0  0
   -1.9356   -0.2171    1.0824 C   0  0  0  0  0  0  0  0  0  0  0  0
   -2.3976   -0.7875   -0.2517 C   0  0  0  0  0  0  0  0  0  0  0  0
   -0.9195   -0.4329    3.6893 H   0  0  0  0  0  0  0  0  0  0  0  0
   -0.0061    0.8133    2.8402 H   0  0  0  0  0  0  0  0  0  0  0  0
    0.7623   -0.7235    3.2415 H   0  0  0  0  0  0  0  0  0  0  0  0
   -0.7611   -1.9185    1.6657 H   0  0  0  0  0  0  0  0  0  0  0  0
   -1.8074    0.8665    0.9939 H   0  0  0  0  0  0  0  0  0  0  0  0
   -2.7141   -0.3705    1.8368 H   0  0  0  0  0  0  0  0  0  0  0  0
   -2.5624   -1.8653   -0.1805 H   0  0  0  0  0  0  0  0  0  0  0  0
   -3.3308   -0.3284   -0.5818 H   0  0  0  0  0  0  0  0  0  0  0  0
   -1.6490   -0.6191   -1.0296 H   0  0  0  0  0  0  0  0  0  0  0  0
  1  2  1  0
  1  5  1  0
  1  6  1  0
  1  7  1  0
  2  3  3  0
  3  4  1  0
  4  8  1  0
  4  9  1  0
  4 10  1  0
 11 12  1  0
 11 15  1  0
 11 16  1  0
 11 17  1  0
 12 13  1  0
 12 18  1  0
 13 14  1  0
 13 19  1  0
 13 20  1  0
 14 21  1  0
 14 22  1  0
 14 23  1  0
M  RAD  1  12   2
M  END
>  <reaction>  (8) 
rmg_rxn_24

>  <mol_properties>  (8) 
{"2": {"label": "*0", "atom_type": "Ct"}, "3": {"label": "*1", "atom_type": "Cs"}, "9": {"label": "*2", "atom_type": "H0"}, "11": {"label": "*3", "atom_type": "Cs"}, "12": {"label": "*4", "atom_type": "Cs"}}

>  <type>  (8) 
unop_4

>  <geom_source>  (8) 
Heuristics

$$$$

     RDKit          3D

 23 21  0  0  0  0  0  0  0  0999 V2000
    1.0357    0.7129   -3.9958 C   0  0  0  0  0  0  0  0  0  0  0  0
    1.0357    0.7129   -2.5386 C   0  0  0  0  0  0  0  0  0  0  0  0
    1.0357    0.7129   -1.3401 C   0  0  0  0  0  0  0  0  0  0  0  0
    1.0357    0.7129    0.1172 C   0  0  0  0  0  0  0  0  0  0  0  0
    0.9535    1.7290   -4.3852 H   0  0  0  0  0  0  0  0  0  0  0  0
    0.1968    0.1336   -4.3851 H   0  0  0  0  0  0  0  0  0  0  0  0
    1.9569    0.2759   -4.3851 H   0  0  0  0  0  0  0  0  0  0  0  0
    0.9551    1.7292    0.5065 H   0  0  0  0  0  0  0  0  0  0  0  0
    1.9562    0.2745    0.5065 H   0  0  0  0  0  0  0  0  0  0  0  0
    0.0279    0.0192    0.5844 H   0  0  0  0  0  0  0  0  0  0  0  0
   -0.9420   -2.0868    0.4801 C   0  0  0  0  0  0  0  0  0  0  0  0
   -0.9831   -0.6766    1.0531 C   0  0  0  0  0  3  0  0  0  0  0  0
   -0.9436   -0.6495    2.5766 C   0  0  0  0  0  0  0  0  0  0  0  0
   -0.9847    0.7607    3.1496 C   0  0  0  0  0  0  0  0  0  0  0  0
   -1.7916   -2.6770    0.8316 H   0  0  0  0  0  0  0  0  0  0  0  0
   -0.0306   -2.6067    0.7848 H   0  0  0  0  0  0  0  0  0  0  0  0
   -0.9714   -2.0768   -0.6107 H   0  0  0  0  0  0  0  0  0  0  0  0
   -1.8886   -0.1666    0.7090 H   0  0  0  0  0  0  0  0  0  0  0  0
   -0.0381   -1.1595    2.9207 H   0  0  0  0  0  0  0  0  0  0  0  0
   -1.7862   -1.2293    2.9672 H   0  0  0  0  0  0  0  0  0  0  0  0
   -1.8961    1.2806    2.8449 H   0  0  0  0  0  0  0  0  0  0  0  0
   -0.9553    0.7507    4.2404 H   0  0  0  0  0  0  0  0  0  0  0  0
   -0.1351    1.3509    2.7981 H   0  0  0  0  0  0  0  0  0  0  0  0
  1  2  1  0
  1  5  1  0
  1  6  1  0
  1  7  1  0
  2  3  3  0
  3  4  1  0
  4  8  1  0
  4  9  1  0
  4 10  1  0
 11 12  1  0
 11 15  1  0
 11 16  1  0
 11 17  1  0
 12 13  1  0
 12 18  1  0
 13 14  1  0
 13 19  1  0
 13 20  1  0
 14 21  1  0
 14 22  1  0
 14 23  1  0
M  RAD  1  12   2
M  END
>  <reaction>  (9) 
rmg_rxn_24

>  <mol_properties>  (9) 
{"2": {"label": "*0", "atom_type": "Ct"}, "3": {"label": "*1", "atom_type": "Cs"}, "9": {"label": "*2", "atom_type": "H0"}, "11": {"label": "*3", "atom_type": "Cs"}, "12": {"label": "*4", "atom_type": "Cs"}}

>  <type>  (9) 
unop_5

>  <geom_source>  (9) 
Heuristics

$$$$

     RDKit          3D

 23 21  0  0  0  0  0  0  0  0999 V2000
    1.3569    0.4761   -3.6490 C   0  0  0  0  0  0  0  0  0  0  0  0
    1.3569    0.4761   -2.1917 C   0  0  0  0  0  0  0  0  0  0  0  0
    1.3569    0.4761   -0.9932 C   0  0  0  0  0  0  0  0  0  0  0  0
    1.3569    0.4761    0.4640 C   0  0  0  0  0  0  0  0  0  0  0  0
    1.2747    1.4923   -4.0383 H   0  0  0  0  0  0  0  0  0  0  0  0
    0.5180   -0.1032   -4.0383 H   0  0  0  0  0  0  0  0  0  0  0  0
    2.2781    0.0392   -4.0383 H   0  0  0  0  0  0  0  0  0  0  0  0
    1.2763    1.4924    0.8534 H   0  0  0  0  0  0  0  0  0  0  0  0
    2.2774    0.0378    0.8534 H   0  0  0  0  0  0  0  0  0  0  0  0
    0.3491   -0.2175    0.9312 H   0  0  0  0  0  0  0  0  0  0  0  0
    0.3044   -0.8687    2.5759 C   0  0  0  0  0  0  0  0  0  0  0  0
   -0.6619   -0.9133    1.3999 C   0  0  0  0  0  3  0  0  0  0  0  0
   -1.8624    0.0090    1.5779 C   0  0  0  0  0  0  0  0  0  0  0  0
   -2.8287   -0.0357    0.4019 C   0  0  0  0  0  0  0  0  0  0  0  0
   -0.1923   -1.1670    3.5022 H   0  0  0  0  0  0  0  0  0  0  0  0
    0.6966    0.1406    2.7221 H   0  0  0  0  0  0  0  0  0  0  0  0
    1.1531   -1.5372    2.4223 H   0  0  0  0  0  0  0  0  0  0  0  0
   -1.0164   -1.9389    1.2546 H   0  0  0  0  0  0  0  0  0  0  0  0
   -1.5078    1.0345    1.7232 H   0  0  0  0  0  0  0  0  0  0  0  0
   -2.3902   -0.2634    2.4976 H   0  0  0  0  0  0  0  0  0  0  0  0
   -3.2208   -1.0450    0.2557 H   0  0  0  0  0  0  0  0  0  0  0  0
   -3.6773    0.6329    0.5555 H   0  0  0  0  0  0  0  0  0  0  0  0
   -2.3319    0.2626   -0.5244 H   0  0  0  0  0  0  0  0  0  0  0  0
  1  2  1  0
  1  5  1  0
  1  6  1  0
  1  7  1  0
  2  3  3  0
  3  4  1  0
  4  8  1  0
  4  9  1  0
  4 10  1  0
 11 12  1  0
 11 15  1  0
 11 16  1  0
 11 17  1  0
 12 13  1  0
 12 18  1  0
 13 14  1  0
 13 19  1  0
 13 20  1  0
 14 21  1  0
 14 22  1  0
 14 23  1  0
M  RAD  1  12   2
M  END
>  <reaction>  (10) 
rmg_rxn_24

>  <mol_properties>  (10) 
{"2": {"label": "*0", "atom_type": "Ct"}, "3": {"label": "*1", "atom_type": "Cs"}, "9": {"label": "*2", "atom_type": "H0"}, "11": {"label": "*3", "atom_type": "Cs"}, "12": {"label": "*4", "atom_type": "Cs"}}

>  <type>  (10) 
unop_6

>  <geom_source>  (10) 
Heuristics

$$$$

     RDKit          3D

 23 21  0  0  0  0  0  0  0  0999 V2000
    1.2714    0.4822   -3.8244 C   0  0  0  0  0  0  0  0  0  0  0  0
    1.2714    0.4822   -2.3671 C   0  0  0  0  0  0  0  0  0  0  0  0
    1.2714    0.4822   -1.1686 C   0  0  0  0  0  0  0  0  0  0  0  0
    1.2714    0.4822    0.2886 C   0  0  0  0  0  0  0  0  0  0  0  0
    1.1892    1.4984   -4.2137 H   0  0  0  0  0  0  0  0  0  0  0  0
    0.4325   -0.0971   -4.2137 H   0  0  0  0  0  0  0  0  0  0  0  0
    2.1926    0.0453   -4.2137 H   0  0  0  0  0  0  0  0  0  0  0  0
    1.1908    1.4985    0.6780 H   0  0  0  0  0  0  0  0  0  0  0  0
    2.1919    0.0439    0.6780 H   0  0  0  0  0  0  0  0  0  0  0  0
    0.2636   -0.2114    0.7558 H   0  0  0  0  0  0  0  0  0  0  0  0
    0.4438   -1.4701    1.9881 C   0  0  0  0  0  0  0  0  0  0  0  0
   -0.7474   -0.9073    1.2245 C   0  0  0  0  0  3  0  0  0  0  0  0
   -1.6268    0.0017    2.0753 C   0  0  0  0  0  0  0  0  0  0  0  0
   -2.8180    0.5646    1.3118 C   0  0  0  0  0  0  0  0  0  0  0  0
    0.1149   -2.0584    2.8480 H   0  0  0  0  0  0  0  0  0  0  0  0
    1.0833   -0.6673    2.3627 H   0  0  0  0  0  0  0  0  0  0  0  0
    1.0553   -2.1163    1.3562 H   0  0  0  0  0  0  0  0  0  0  0  0
   -1.3549   -1.7298    0.8334 H   0  0  0  0  0  0  0  0  0  0  0  0
   -1.0193    0.8243    2.4664 H   0  0  0  0  0  0  0  0  0  0  0  0
   -1.9805   -0.5566    2.9481 H   0  0  0  0  0  0  0  0  0  0  0  0
   -3.4574   -0.2382    0.9371 H   0  0  0  0  0  0  0  0  0  0  0  0
   -3.4295    1.2107    1.9436 H   0  0  0  0  0  0  0  0  0  0  0  0
   -2.4891    1.1529    0.4518 H   0  0  0  0  0  0  0  0  0  0  0  0
  1  2  1  0
  1  5  1  0
  1  6  1  0
  1  7  1  0
  2  3  3  0
  3  4  1  0
  4  8  1  0
  4  9  1  0
  4 10  1  0
 11 12  1  0
 11 15  1  0
 11 16  1  0
 11 17  1  0
 12 13  1  0
 12 18  1  0
 13 14  1  0
 13 19  1  0
 13 20  1  0
 14 21  1  0
 14 22  1  0
 14 23  1  0
M  RAD  1  12   2
M  END
>  <reaction>  (11) 
rmg_rxn_24

>  <mol_properties>  (11) 
{"2": {"label": "*0", "atom_type": "Ct"}, "3": {"label": "*1", "atom_type": "Cs"}, "9": {"label": "*2", "atom_type": "H0"}, "11": {"label": "*3", "atom_type": "Cs"}, "12": {"label": "*4", "atom_type": "Cs"}}

>  <type>  (11) 
unop_7

>  <geom_source>  (11) 
Heuristics

$$$$

     RDKit          3D

 23 21  0  0  0  0  0  0  0  0999 V2000
    0.9293    1.0974   -3.6490 C   0  0  0  0  0  0  0  0  0  0  0  0
    0.9293    1.0974   -2.1917 C   0  0  0  0  0  0  0  0  0  0  0  0
    0.9293    1.0974   -0.9932 C   0  0  0  0  0  0  0  0  0  0  0  0
    0.9293    1.0974    0.4640 C   0  0  0  0  0  0  0  0  0  0  0  0
    0.8471    2.1136   -4.0383 H   0  0  0  0  0  0  0  0  0  0  0  0
    0.0904    0.5181   -4.0383 H   0  0  0  0  0  0  0  0  0  0  0  0
    1.8505    0.6605   -4.0383 H   0  0  0  0  0  0  0  0  0  0  0  0
    0.8487    2.1137    0.8534 H   0  0  0  0  0  0  0  0  0  0  0  0
    1.8498    0.6591    0.8534 H   0  0  0  0  0  0  0  0  0  0  0  0
   -0.0785    0.4038    0.9312 H   0  0  0  0  0  0  0  0  0  0  0  0
   -2.6019   -0.1220    1.3529 C   0  0  0  0  0  0  0  0  0  0  0  0
   -1.0895   -0.2921    1.3999 C   0  0  0  0  0  3  0  0  0  0  0  0
   -0.6567   -1.7428    1.5779 C   0  0  0  0  0  0  0  0  0  0  0  0
    0.8557   -1.9128    1.6249 C   0  0  0  0  0  0  0  0  0  0  0  0
   -3.0651   -0.4822    2.2746 H   0  0  0  0  0  0  0  0  0  0  0  0
   -3.0338   -0.6876    0.5238 H   0  0  0  0  0  0  0  0  0  0  0  0
   -2.8834    0.9245    1.2251 H   0  0  0  0  0  0  0  0  0  0  0  0
   -0.6777    0.3076    2.2181 H   0  0  0  0  0  0  0  0  0  0  0  0
   -1.0685   -2.3424    0.7597 H   0  0  0  0  0  0  0  0  0  0  0  0
   -1.0996   -2.1385    2.4976 H   0  0  0  0  0  0  0  0  0  0  0  0
    1.2876   -1.3472    2.4540 H   0  0  0  0  0  0  0  0  0  0  0  0
    1.1372   -2.9594    1.7527 H   0  0  0  0  0  0  0  0  0  0  0  0
    1.3189   -1.5526    0.7032 H   0  0  0  0  0  0  0  0  0  0  0  0
  1  2  1  0
  1  5  1  0
  1  6  1  0
  1  7  1  0
  2  3  3  0
  3  4  1  0
  4  8  1  0
  4  9  1  0
  4 10  1  0
 11 12  1  0
 11 15  1  0
 11 16  1  0
 11 17  1  0
 12 13  1  0
 12 18  1  0
 13 14  1  0
 13 19  1  0
 13 20  1  0
 14 21  1  0
 14 22  1  0
 14 23  1  0
M  RAD  1  12   2
M  END
>  <reaction>  (12) 
rmg_rxn_24

>  <mol_properties>  (12) 
{"2": {"label": "*0", "atom_type": "Ct"}, "3": {"label": "*1", "atom_type": "Cs"}, "9": {"label": "*2", "atom_type": "H0"}, "11": {"label": "*3", "atom_type": "Cs"}, "12": {"label": "*4", "atom_type": "Cs"}}

>  <type>  (12) 
unop_8

>  <geom_source>  (12) 
Heuristics

$$$$

     RDKit          3D

 23 21  0  0  0  0  0  0  0  0999 V2000
    1.3496    0.6972   -3.3407 C   0  0  0  0  0  0  0  0  0  0  0  0
    1.3496    0.6972   -1.8835 C   0  0  0  0  0  0  0  0  0  0  0  0
    1.3496    0.6972   -0.6850 C   0  0  0  0  0  0  0  0  0  0  0  0
    1.3496    0.6972    0.7723 C   0  0  0  0  0  0  0  0  0  0  0  0
    1.2674    1.7134   -3.7301 H   0  0  0  0  0  0  0  0  0  0  0  0
    0.5107    0.1179   -3.7300 H   0  0  0  0  0  0  0  0  0  0  0  0
    2.2707    0.2603   -3.7300 H   0  0  0  0  0  0  0  0  0  0  0  0
    1.2690    1.7136    1.1617 H   0  0  0  0  0  0  0  0  0  0  0  0
    2.2701    0.2589    1.1616 H   0  0  0  0  0  0  0  0  0  0  0  0
    0.3418    0.0036    1.2395 H   0  0  0  0  0  0  0  0  0  0  0  0
   -0.8709    0.1875    2.9346 C   0  0  0  0  0  0  0  0  0  0  0  0
   -0.6692   -0.6922    1.7082 C   0  0  0  0  0  3  0  0  0  0  0  0
   -1.8280   -0.6155    0.7208 C   0  0  0  0  0  0  0  0  0  0  0  0
   -1.6262   -1.4952   -0.5056 C   0  0  0  0  0  0  0  0  0  0  0  0
   -1.7734   -0.1009    3.4789 H   0  0  0  0  0  0  0  0  0  0  0  0
   -0.9785    1.2369    2.6501 H   0  0  0  0  0  0  0  0  0  0  0  0
   -0.0279    0.1134    3.6235 H   0  0  0  0  0  0  0  0  0  0  0  0
   -0.5332   -1.7326    2.0208 H   0  0  0  0  0  0  0  0  0  0  0  0
   -1.9640    0.4249    0.4082 H   0  0  0  0  0  0  0  0  0  0  0  0
   -2.7530   -0.9030    1.2310 H   0  0  0  0  0  0  0  0  0  0  0  0
   -1.5186   -2.5446   -0.2211 H   0  0  0  0  0  0  0  0  0  0  0  0
   -2.4692   -1.4211   -1.1945 H   0  0  0  0  0  0  0  0  0  0  0  0
   -0.7238   -1.2068   -1.0499 H   0  0  0  0  0  0  0  0  0  0  0  0
  1  2  1  0
  1  5  1  0
  1  6  1  0
  1  7  1  0
  2  3  3  0
  3  4  1  0
  4  8  1  0
  4  9  1  0
  4 10  1  0
 11 12  1  0
 11 15  1  0
 11 16  1  0
 11 17  1  0
 12 13  1  0
 12 18  1  0
 13 14  1  0
 13 19  1  0
 13 20  1  0
 14 21  1  0
 14 22  1  0
 14 23  1  0
M  RAD  1  12   2
M  END
>  <reaction>  (13) 
rmg_rxn_24

>  <mol_properties>  (13) 
{"2": {"label": "*0", "atom_type": "Ct"}, "3": {"label": "*1", "atom_type": "Cs"}, "9": {"label": "*2", "atom_type": "H0"}, "11": {"label": "*3", "atom_type": "Cs"}, "12": {"label": "*4", "atom_type": "Cs"}}

>  <type>  (13) 
unop_9

>  <geom_source>  (13) 
Heuristics

$$$$

     RDKit          3D

 23 21  0  0  0  0  0  0  0  0999 V2000
    1.0130    1.0964   -3.4716 C   0  0  0  0  0  0  0  0  0  0  0  0
    1.0130    1.0964   -2.0144 C   0  0  0  0  0  0  0  0  0  0  0  0
    1.0130    1.0964   -0.8159 C   0  0  0  0  0  0  0  0  0  0  0  0
    1.0130    1.0964    0.6414 C   0  0  0  0  0  0  0  0  0  0  0  0
    0.9308    2.1126   -3.8610 H   0  0  0  0  0  0  0  0  0  0  0  0
    0.1741    0.5171   -3.8610 H   0  0  0  0  0  0  0  0  0  0  0  0
    1.9342    0.6595   -3.8610 H   0  0  0  0  0  0  0  0  0  0  0  0
    0.9324    2.1128    1.0307 H   0  0  0  0  0  0  0  0  0  0  0  0
    1.9335    0.6581    1.0307 H   0  0  0  0  0  0  0  0  0  0  0  0
    0.0052    0.4028    1.1086 H   0  0  0  0  0  0  0  0  0  0  0  0
   -2.4376    0.1214    1.8884 C   0  0  0  0  0  0  0  0  0  0  0  0
   -1.0058   -0.2930    1.5773 C   0  0  0  0  0  3  0  0  0  0  0  0
   -0.8941   -1.7304    1.0824 C   0  0  0  0  0  0  0  0  0  0  0  0
    0.5377   -2.1449    0.7712 C   0  0  0  0  0  0  0  0  0  0  0  0
   -2.8703   -0.5169    2.6625 H   0  0  0  0  0  0  0  0  0  0  0  0
   -3.0703    0.0394    1.0015 H   0  0  0  0  0  0  0  0  0  0  0  0
   -2.4883    1.1531    2.2401 H   0  0  0  0  0  0  0  0  0  0  0  0
   -0.3860   -0.1728    2.4717 H   0  0  0  0  0  0  0  0  0  0  0  0
   -1.5139   -1.8506    0.1880 H   0  0  0  0  0  0  0  0  0  0  0  0
   -1.3153   -2.4028    1.8368 H   0  0  0  0  0  0  0  0  0  0  0  0
    1.1705   -2.0628    1.6582 H   0  0  0  0  0  0  0  0  0  0  0  0
    0.5885   -3.1766    0.4196 H   0  0  0  0  0  0  0  0  0  0  0  0
    0.9705   -1.5066   -0.0028 H   0  0  0  0  0  0  0  0  0  0  0  0
  1  2  1  0
  1  5  1  0
  1  6  1  0
  1  7  1  0
  2  3  3  0
  3  4  1  0
  4  8  1  0
  4  9  1  0
  4 10  1  0
 11 12  1  0
 11 15  1  0
 11 16  1  0
 11 17  1  0
 12 13  1  0
 12 18  1  0
 13 14  1  0
 13 19  1  0
 13 20  1  0
 14 21  1  0
 14 22  1  0
 14 23  1  0
M  RAD  1  12   2
M  END
>  <reaction>  (14) 
rmg_rxn_24

>  <mol_properties>  (14) 
{"2": {"label": "*0", "atom_type": "Ct"}, "3": {"label": "*1", "atom_type": "Cs"}, "9": {"label": "*2", "atom_type": "H0"}, "11": {"label": "*3", "atom_type": "Cs"}, "12": {"label": "*4", "atom_type": "Cs"}}

>  <type>  (14) 
unop_10

>  <geom_source>  (14) 
Heuristics

$$$$

     RDKit          3D

 23 21  0  0  0  0  0  0  0  0999 V2000
    1.1537    0.5699   -3.9507 C   0  0  0  0  0  0  0  0  0  0  0  0
    1.1537    0.5699   -2.4934 C   0  0  0  0  0  0  0  0  0  0  0  0
    1.1537    0.5699   -1.2949 C   0  0  0  0  0  0  0  0  0  0  0  0
    1.1537    0.5699    0.1624 C   0  0  0  0  0  0  0  0  0  0  0  0
    1.0715    1.5861   -4.3400 H   0  0  0  0  0  0  0  0  0  0  0  0
    0.3148   -0.0094   -4.3400 H   0  0  0  0  0  0  0  0  0  0  0  0
    2.0749    0.1330   -4.3400 H   0  0  0  0  0  0  0  0  0  0  0  0
    1.0731    1.5863    0.5517 H   0  0  0  0  0  0  0  0  0  0  0  0
    2.0742    0.1316    0.5517 H   0  0  0  0  0  0  0  0  0  0  0  0
    0.1459   -0.1237    0.6295 H   0  0  0  0  0  0  0  0  0  0  0  0
    0.1103   -1.9811    1.2328 C   0  0  0  0  0  0  0  0  0  0  0  0
   -0.8651   -0.8195    1.0982 C   0  0  0  0  0  3  0  0  0  0  0  0
   -1.2907   -0.2382    2.4415 C   0  0  0  0  0  0  0  0  0  0  0  0
   -2.2660    0.9234    2.3069 C   0  0  0  0  0  0  0  0  0  0  0  0
   -0.3312   -2.7981    1.8084 H   0  0  0  0  0  0  0  0  0  0  0  0
    1.0216   -1.6692    1.7485 H   0  0  0  0  0  0  0  0  0  0  0  0
    0.3978   -2.3775    0.2577 H   0  0  0  0  0  0  0  0  0  0  0  0
   -1.7551   -1.1486    0.5521 H   0  0  0  0  0  0  0  0  0  0  0  0
   -0.4007    0.0909    2.9876 H   0  0  0  0  0  0  0  0  0  0  0  0
   -1.7436   -1.0298    3.0472 H   0  0  0  0  0  0  0  0  0  0  0  0
   -3.1774    0.6115    1.7913 H   0  0  0  0  0  0  0  0  0  0  0  0
   -2.5536    1.3198    3.2821 H   0  0  0  0  0  0  0  0  0  0  0  0
   -1.8245    1.7404    1.7313 H   0  0  0  0  0  0  0  0  0  0  0  0
  1  2  1  0
  1  5  1  0
  1  6  1  0
  1  7  1  0
  2  3  3  0
  3  4  1  0
  4  8  1  0
  4  9  1  0
  4 10  1  0
 11 12  1  0
 11 15  1  0
 11 16  1  0
 11 17  1  0
 12 13  1  0
 12 18  1  0
 13 14  1  0
 13 19  1  0
 13 20  1  0
 14 21  1  0
 14 22  1  0
 14 23  1  0
M  RAD  1  12   2
M  END
>  <reaction>  (15) 
rmg_rxn_24

>  <mol_properties>  (15) 
{"2": {"label": "*0", "atom_type": "Ct"}, "3": {"label": "*1", "atom_type": "Cs"}, "9": {"label": "*2", "atom_type": "H0"}, "11": {"label": "*3", "atom_type": "Cs"}, "12": {"label": "*4", "atom_type": "Cs"}}

>  <type>  (15) 
unop_11

>  <geom_source>  (15) 
Heuristics

$$$$

     RDKit          3D

 23 21  0  0  0  0  0  0  0  0999 V2000
    1.2570    0.8651   -3.2925 C   0  0  0  0  0  0  0  0  0  0  0  0
    1.2570    0.8651   -1.8353 C   0  0  0  0  0  0  0  0  0  0  0  0
    1.2570    0.8651   -0.6368 C   0  0  0  0  0  0  0  0  0  0  0  0
    1.2570    0.8651    0.8205 C   0  0  0  0  0  0  0  0  0  0  0  0
    1.1748    1.8813   -3.6819 H   0  0  0  0  0  0  0  0  0  0  0  0
    0.4180    0.2858   -3.6818 H   0  0  0  0  0  0  0  0  0  0  0  0
    2.1781    0.4282   -3.6818 H   0  0  0  0  0  0  0  0  0  0  0  0
    1.1763    1.8814    1.2098 H   0  0  0  0  0  0  0  0  0  0  0  0
    2.1774    0.4268    1.2098 H   0  0  0  0  0  0  0  0  0  0  0  0
    0.2492    0.1715    1.2877 H   0  0  0  0  0  0  0  0  0  0  0  0
   -1.5892    0.3447    2.6939 C   0  0  0  0  0  0  0  0  0  0  0  0
   -0.7618   -0.5243    1.7564 C   0  0  0  0  0  3  0  0  0  0  0  0
   -1.5690   -1.0799    0.5887 C   0  0  0  0  0  0  0  0  0  0  0  0
   -0.7416   -1.9489   -0.3488 C   0  0  0  0  0  0  0  0  0  0  0  0
   -2.4200   -0.2217    3.1213 H   0  0  0  0  0  0  0  0  0  0  0  0
   -2.0122    1.2007    2.1627 H   0  0  0  0  0  0  0  0  0  0  0  0
   -0.9875    0.7285    3.5193 H   0  0  0  0  0  0  0  0  0  0  0  0
   -0.3241   -1.3564    2.3174 H   0  0  0  0  0  0  0  0  0  0  0  0
   -2.0067   -0.2478    0.0278 H   0  0  0  0  0  0  0  0  0  0  0  0
   -2.4115   -1.6597    0.9793 H   0  0  0  0  0  0  0  0  0  0  0  0
   -0.3186   -2.8049    0.1824 H   0  0  0  0  0  0  0  0  0  0  0  0
   -1.3433   -2.3327   -1.1742 H   0  0  0  0  0  0  0  0  0  0  0  0
    0.0892   -1.3825   -0.7762 H   0  0  0  0  0  0  0  0  0  0  0  0
  1  2  1  0
  1  5  1  0
  1  6  1  0
  1  7  1  0
  2  3  3  0
  3  4  1  0
  4  8  1  0
  4  9  1  0
  4 10  1  0
 11 12  1  0
 11 15  1  0
 11 16  1  0
 11 17  1  0
 12 13  1  0
 12 18  1  0
 13 14  1  0
 13 19  1  0
 13 20  1  0
 14 21  1  0
 14 22  1  0
 14 23  1  0
M  RAD  1  12   2
M  END
>  <reaction>  (16) 
rmg_rxn_24

>  <mol_properties>  (16) 
{"2": {"label": "*0", "atom_type": "Ct"}, "3": {"label": "*1", "atom_type": "Cs"}, "9": {"label": "*2", "atom_type": "H0"}, "11": {"label": "*3", "atom_type": "Cs"}, "12": {"label": "*4", "atom_type": "Cs"}}

>  <type>  (16) 
unop_12

>  <geom_source>  (16) 
Heuristics

$$$$

     RDKit          3D

 23 21  0  0  0  0  0  0  0  0999 V2000
   -1.1832   -0.4683   -0.5442 C   0  0  0  0  0  0  0  0  0  0  0  0
   -2.3057    0.1868    0.2655 C   0  0  0  0  0  0  0  0  0  0  0  0
   -1.7328   -1.5287   -1.4922 C   0  0  0  0  0  0  0  0  0  0  0  0
   -1.7491    1.2371    1.2213 C   0  0  0  0  0  0  0  0  0  0  0  0
    3.9445    1.3424   -0.4693 C   0  0  0  0  0  0  0  0  0  0  0  0
    0.9057   -1.1141    0.8724 C   0  0  0  0  0  0  0  0  0  0  0  0
    2.8684    0.4725    0.0058 C   0  0  0  0  0  3  0  0  0  0  0  0
    1.9817   -0.2443    0.3973 C   0  0  0  0  0  0  0  0  0  0  0  0
   -0.6473    0.3042   -1.1381 H   0  0  0  0  0  0  0  0  0  0  0  0
   -0.3166   -1.0434    0.2829 H   0  0  0  0  0  0  0  0  0  0  0  0
   -2.8416   -0.5879    0.8558 H   0  0  0  0  0  0  0  0  0  0  0  0
   -3.0315    0.6729   -0.4225 H   0  0  0  0  0  0  0  0  0  0  0  0
   -2.2484   -2.3271   -0.9176 H   0  0  0  0  0  0  0  0  0  0  0  0
   -0.8957   -1.9851   -2.0606 H   0  0  0  0  0  0  0  0  0  0  0  0
   -2.4460   -1.0724   -2.2114 H   0  0  0  0  0  0  0  0  0  0  0  0
   -1.0388    0.7706    1.9367 H   0  0  0  0  0  0  0  0  0  0  0  0
   -1.2269    2.0370    0.6542 H   0  0  0  0  0  0  0  0  0  0  0  0
   -2.5817    1.6952    1.7957 H   0  0  0  0  0  0  0  0  0  0  0  0
    4.2868    1.9945    0.3605 H   0  0  0  0  0  0  0  0  0  0  0  0
    4.7923    0.7216   -0.8252 H   0  0  0  0  0  0  0  0  0  0  0  0
    3.5710    1.9712   -1.3036 H   0  0  0  0  0  0  0  0  0  0  0  0
    0.6636   -0.8620    1.9254 H   0  0  0  0  0  0  0  0  0  0  0  0
    1.2313   -2.1729    0.8111 H   0  0  0  0  0  0  0  0  0  0  0  0
  1  3  1  0
  1  2  1  0
  1  9  1  0
  1 10  1  0
  2  4  1  0
  2 11  1  0
  2 12  1  0
  3 13  1  0
  3 14  1  0
  3 15  1  0
  4 16  1  0
  4 17  1  0
  4 18  1  0
  5  7  1  0
  5 19  1  0
  5 20  1  0
  5 21  1  0
  6  8  2  0
  6 22  1  0
  6 23  1  0
  7  8  2  0
M  RAD  1   7   2
M  END
>  <reaction>  (17) 
rmg_rxn_24

>  <mol_properties>  (17) 
{"2": {"label": "*0", "atom_type": "Ct"}, "3": {"label": "*1", "atom_type": "Cs"}, "9": {"label": "*2", "atom_type": "H0"}, "11": {"label": "*3", "atom_type": "Cs"}, "12": {"label": "*4", "atom_type": "Cs"}}

>  <type>  (17) 
unop_13

>  <geom_source>  (17) 
AutoTST

$$$$

     RDKit          3D

 23 21  0  0  0  0  0  0  0  0999 V2000
    1.1332    1.0116   -3.3407 C   0  0  0  0  0  0  0  0  0  0  0  0
    1.1332    1.0116   -1.8835 C   0  0  0  0  0  0  0  0  0  0  0  0
    1.1332    1.0116   -0.6849 C   0  0  0  0  0  0  0  0  0  0  0  0
    1.1332    1.0116    0.7723 C   0  0  0  0  0  0  0  0  0  0  0  0
    1.0511    2.0278   -3.7301 H   0  0  0  0  0  0  0  0  0  0  0  0
    0.2943    0.4323   -3.7300 H   0  0  0  0  0  0  0  0  0  0  0  0
    2.0544    0.5747   -3.7300 H   0  0  0  0  0  0  0  0  0  0  0  0
    1.0526    2.0279    1.1617 H   0  0  0  0  0  0  0  0  0  0  0  0
    2.0537    0.5733    1.1616 H   0  0  0  0  0  0  0  0  0  0  0  0
    0.1254    0.3180    1.2395 H   0  0  0  0  0  0  0  0  0  0  0  0
   -2.1164    0.2706    2.3272 C   0  0  0  0  0  0  0  0  0  0  0  0
   -0.8856   -0.3779    1.7082 C   0  0  0  0  0  3  0  0  0  0  0  0
   -1.2277   -1.4876    0.7208 C   0  0  0  0  0  0  0  0  0  0  0  0
    0.0032   -2.1360    0.1019 C   0  0  0  0  0  0  0  0  0  0  0  0
   -2.7155   -0.4650    2.8692 H   0  0  0  0  0  0  0  0  0  0  0  0
   -2.7541    0.7132    1.5582 H   0  0  0  0  0  0  0  0  0  0  0  0
   -1.8429    1.0602    3.0288 H   0  0  0  0  0  0  0  0  0  0  0  0
   -0.2484   -0.7861    2.4994 H   0  0  0  0  0  0  0  0  0  0  0  0
   -1.8649   -1.0794   -0.0703 H   0  0  0  0  0  0  0  0  0  0  0  0
   -1.8266   -2.2489    1.2310 H   0  0  0  0  0  0  0  0  0  0  0  0
    0.6408   -2.5787    0.8708 H   0  0  0  0  0  0  0  0  0  0  0  0
   -0.2704   -2.9257   -0.5998 H   0  0  0  0  0  0  0  0  0  0  0  0
    0.6023   -1.4004   -0.4402 H   0  0  0  0  0  0  0  0  0  0  0  0
  1  2  1  0
  1  5  1  0
  1  6  1  0
  1  7  1  0
  2  3  3  0
  3  4  1  0
  4  8  1  0
  4  9  1  0
  4 10  1  0
 11 12  1  0
 11 15  1  0
 11 16  1  0
 11 17  1  0
 12 13  1  0
 12 18  1  0
 13 14  1  0
 13 19  1  0
 13 20  1  0
 14 21  1  0
 14 22  1  0
 14 23  1  0
M  RAD  1  12   2
M  END
>  <reaction>  (18) 
rmg_rxn_24

>  <mol_properties>  (18) 
{"2": {"label": "*0", "atom_type": "Ct"}, "3": {"label": "*1", "atom_type": "Cs"}, "9": {"label": "*2", "atom_type": "H0"}, "11": {"label": "*3", "atom_type": "Cs"}, "12": {"label": "*4", "atom_type": "Cs"}}

>  <type>  (18) 
unop_14

>  <geom_source>  (18) 
gaussian_log

$$$$
