
     RDKit          3D

  9  8  0  0  0  0  0  0  0  0999 V2000
   -1.0314    0.2323   -0.1227 C   0  0  0  0  0  0  0  0  0  0  0  0
    0.3094   -0.4511    0.0063 C   0  0  0  0  0  0  0  0  0  0  0  0
    0.3197   -1.7698    0.6841 N   0  0  0  0  0  0  0  0  0  0  0  0
   -0.7498   -2.1455    1.0557 O   0  0  0  0  0  0  0  0  0  0  0  0
   -1.4744    0.4198    0.8552 H   0  0  0  0  0  0  0  0  0  0  0  0
   -0.9073    1.1865   -0.6350 H   0  0  0  0  0  0  0  0  0  0  0  0
   -1.7319   -0.3778   -0.6927 H   0  0  0  0  0  0  0  0  0  0  0  0
    1.0375    0.1401    0.5713 H   0  0  0  0  0  0  0  0  0  0  0  0
    0.7826   -0.6494   -0.9609 H   0  0  0  0  0  0  0  0  0  0  0  0
  1  2  1  0
  1  5  1  0
  1  6  1  0
  1  7  1  0
  2  3  1  0
  2  8  1  0
  2  9  1  0
  3  4  2  0
M  END
>  <reaction>  (1) 
rmg_rxn_10

>  <mol_properties>  (1) 
{"1": {"label": "donator", "atom_type": "Cs"}, "7": {"label": "d_hydrogen", "atom_type": "H0"}}

>  <type>  (1) 
r1h

$$$$

     RDKit          3D

  8  7  0  0  0  0  0  0  0  0999 V2000
    0.8135   -0.0283    0.0400 C   0  0  0  0  0  0  0  0  0  0  0  0
   -0.7038   -0.1008   -0.0090 C   0  0  0  0  0  0  0  0  0  0  0  0
   -1.5421    1.4429   -0.3606 S   0  0  0  0  0  1  0  0  0  0  0  0
    1.1442    0.6666    0.8123 H   0  0  0  0  0  0  0  0  0  0  0  0
    1.2169    0.3128   -0.9137 H   0  0  0  0  0  0  0  0  0  0  0  0
    1.2356   -1.0119    0.2594 H   0  0  0  0  0  0  0  0  0  0  0  0
   -1.1179   -0.4663    0.9365 H   0  0  0  0  0  0  0  0  0  0  0  0
   -1.0463   -0.8150   -0.7650 H   0  0  0  0  0  0  0  0  0  0  0  0
  1  2  1  0
  1  4  1  0
  1  5  1  0
  1  6  1  0
  2  3  1  0
  2  7  1  0
  2  8  1  0
M  RAD  1   3   2
M  END
>  <reaction>  (2) 
rmg_rxn_10

>  <mol_properties>  (2) 
{"2": {"label": "acceptor", "atom_type": "S2s"}}

>  <type>  (2) 
r2

$$$$

     RDKit          3D

  9  8  0  0  0  0  0  0  0  0999 V2000
   -0.8818   -0.3578    0.1297 C   0  0  0  0  0  0  0  0  0  0  0  0
    0.6153   -0.3021   -0.1188 C   0  0  0  0  0  0  0  0  0  0  0  0
    1.5354   -1.7170    0.5545 S   0  0  0  0  0  0  0  0  0  0  0  0
   -1.1018   -0.3317    1.1984 H   0  0  0  0  0  0  0  0  0  0  0  0
   -1.3114   -1.2723   -0.2799 H   0  0  0  0  0  0  0  0  0  0  0  0
   -1.3767    0.4976   -0.3363 H   0  0  0  0  0  0  0  0  0  0  0  0
    1.0467    0.6194    0.2718 H   0  0  0  0  0  0  0  0  0  0  0  0
    0.8295   -0.3275   -1.1882 H   0  0  0  0  0  0  0  0  0  0  0  0
    1.2306   -1.5077    1.8423 H   0  0  0  0  0  0  0  0  0  0  0  0
  1  2  1  0
  1  4  1  0
  1  5  1  0
  1  6  1  0
  2  3  1  0
  2  7  1  0
  2  8  1  0
  3  9  1  0
M  END
>  <reaction>  (3) 
rmg_rxn_10

>  <mol_properties>  (3) 
{"2": {"label": "acceptor", "atom_type": "S2s"}, "8": {"label": "a_hydrogen", "atom_type": "H0"}}

>  <type>  (3) 
r2h

$$$$

     RDKit          3D

 17 15  0  0  0  0  0  0  0  0999 V2000
    1.6804   -1.6244   -1.4390 C   0  0  0  0  0  0  0  0  0  0  0  0
    1.6484   -1.4410    0.0676 C   0  0  0  0  0  0  0  0  0  0  0  0
    0.0405   -1.7450    0.8403 S   0  0  0  0  0  1  0  0  0  0  0  0
    1.0430   -0.8887   -1.9310 H   0  0  0  0  0  0  0  0  0  0  0  0
    1.3368   -2.6210   -1.7175 H   0  0  0  0  0  0  0  0  0  0  0  0
    2.6977   -1.4905   -1.8142 H   0  0  0  0  0  0  0  0  0  0  0  0
    1.9903   -0.4458    0.3557 H   0  0  0  0  0  0  0  0  0  0  0  0
    2.3188   -2.1504    0.5605 H   0  0  0  0  0  0  0  0  0  0  0  0
   -2.1433    0.1868   -1.1848 C   0  0  0  0  0  0  0  0  0  0  0  0
   -1.2891    0.6874   -0.0527 C   0  0  0  0  0  0  0  0  0  0  0  0
   -0.2753    1.6297   -0.3530 N   0  0  0  0  0  0  0  0  0  0  0  0
    0.2968    1.5206   -1.4078 O   0  0  0  0  0  0  0  0  0  0  0  0
   -1.5201   -0.1907   -1.9943 H   0  0  0  0  0  0  0  0  0  0  0  0
   -2.7862   -0.6163   -0.8271 H   0  0  0  0  0  0  0  0  0  0  0  0
   -2.7736    0.9889   -1.5742 H   0  0  0  0  0  0  0  0  0  0  0  0
   -0.6238   -0.3365    0.3754 H   0  0  0  0  0  0  0  0  0  0  0  0
   -1.8068    0.9881    0.8550 H   0  0  0  0  0  0  0  0  0  0  0  0
  1  2  1  0
  1  4  1  0
  1  5  1  0
  1  6  1  0
  2  3  1  0
  2  7  1  0
  2  8  1  0
  9 10  1  0
  9 13  1  0
  9 14  1  0
  9 15  1  0
 10 11  1  0
 10 16  1  0
 10 17  1  0
 11 12  2  0
M  RAD  1   3   2
M  END
>  <reaction>  (4) 
rmg_rxn_10

>  <mol_properties>  (4) 
{"1": {"label": "*4", "atom_type": "Cs"}, "2": {"label": "*3", "atom_type": "S2s"}, "9": {"label": "*1", "atom_type": "Cs"}, "10": {"label": "*0", "atom_type": "N3d"}, "15": {"label": "*2", "atom_type": "H0"}}

>  <type>  (4) 
ts

$$$$

     RDKit          3D

 17 15  0  0  0  0  0  0  0  0999 V2000
    2.5125    0.6915    0.6920 C   0  0  0  0  0  0  0  0  0  0  0  0
    1.5092   -0.1408    1.4711 C   0  0  0  0  0  0  0  0  0  0  0  0
    0.8545   -1.5676    0.5559 S   0  0  0  0  0  1  0  0  0  0  0  0
    2.0502    1.1341   -0.1921 H   0  0  0  0  0  0  0  0  0  0  0  0
    3.3533    0.0809    0.3619 H   0  0  0  0  0  0  0  0  0  0  0  0
    2.8962    1.5043    1.3132 H   0  0  0  0  0  0  0  0  0  0  0  0
    0.6761    0.4690    1.8200 H   0  0  0  0  0  0  0  0  0  0  0  0
    1.9761   -0.5799    2.3540 H   0  0  0  0  0  0  0  0  0  0  0  0
   -1.4702   -0.2138   -2.0944 C   0  0  0  0  0  0  0  0  0  0  0  0
   -1.4702   -0.2138   -0.5839 C   0  0  0  0  0  0  0  0  0  0  0  0
   -1.4702    1.1121    0.0797 N   0  0  0  0  0  0  0  0  0  0  0  0
   -1.4702    2.0417   -0.6680 O   0  0  0  0  0  0  0  0  0  0  0  0
   -0.5900    0.2935   -2.4889 H   0  0  0  0  0  0  0  0  0  0  0  0
   -1.4702   -1.2410   -2.4597 H   0  0  0  0  0  0  0  0  0  0  0  0
   -2.3503    0.2935   -2.4889 H   0  0  0  0  0  0  0  0  0  0  0  0
   -0.4247   -0.8226   -0.0713 H   0  0  0  0  0  0  0  0  0  0  0  0
   -2.3414   -0.7212   -0.1567 H   0  0  0  0  0  0  0  0  0  0  0  0
  1  2  1  0
  1  4  1  0
  1  5  1  0
  1  6  1  0
  2  3  1  0
  2  7  1  0
  2  8  1  0
  9 10  1  0
  9 13  1  0
  9 14  1  0
  9 15  1  0
 10 11  1  0
 10 16  1  0
 10 17  1  0
 11 12  2  0
M  RAD  1   3   2
M  END
>  <reaction>  (5) 
rmg_rxn_10

>  <mol_properties>  (5) 
{"1": {"label": "*4", "atom_type": "Cs"}, "2": {"label": "*3", "atom_type": "S2s"}, "9": {"label": "*1", "atom_type": "Cs"}, "10": {"label": "*0", "atom_type": "N3d"}, "15": {"label": "*2", "atom_type": "H0"}}

>  <type>  (5) 
unop_1

>  <geom_source>  (5) 
Heuristics

$$$$

     RDKit          3D

 17 15  0  0  0  0  0  0  0  0999 V2000
    1.8617   -1.6051   -1.4047 C   0  0  0  0  0  0  0  0  0  0  0  0
    2.0308   -0.7206   -0.1819 C   0  0  0  0  0  0  0  0  0  0  0  0
    0.8775   -1.0929    1.1721 S   0  0  0  0  0  1  0  0  0  0  0  0
    0.8756   -1.4687   -1.8524 H   0  0  0  0  0  0  0  0  0  0  0  0
    1.9692   -2.6579   -1.1425 H   0  0  0  0  0  0  0  0  0  0  0  0
    2.6109   -1.3569   -2.1602 H   0  0  0  0  0  0  0  0  0  0  0  0
    1.9432    0.3341   -0.4420 H   0  0  0  0  0  0  0  0  0  0  0  0
    3.0180   -0.8602    0.2609 H   0  0  0  0  0  0  0  0  0  0  0  0
   -1.4472    0.2609   -1.4782 C   0  0  0  0  0  0  0  0  0  0  0  0
   -1.4472    0.2609    0.0323 C   0  0  0  0  0  0  0  0  0  0  0  0
   -1.4472    1.5868    0.6959 N   0  0  0  0  0  0  0  0  0  0  0  0
   -1.4472    2.5164   -0.0518 O   0  0  0  0  0  0  0  0  0  0  0  0
   -0.5671    0.7682   -1.8727 H   0  0  0  0  0  0  0  0  0  0  0  0
   -1.4472   -0.7663   -1.8435 H   0  0  0  0  0  0  0  0  0  0  0  0
   -2.3273    0.7682   -1.8727 H   0  0  0  0  0  0  0  0  0  0  0  0
   -0.4018   -0.3479    0.5449 H   0  0  0  0  0  0  0  0  0  0  0  0
   -2.3184   -0.2465    0.4594 H   0  0  0  0  0  0  0  0  0  0  0  0
  1  2  1  0
  1  4  1  0
  1  5  1  0
  1  6  1  0
  2  3  1  0
  2  7  1  0
  2  8  1  0
  9 10  1  0
  9 13  1  0
  9 14  1  0
  9 15  1  0
 10 11  1  0
 10 16  1  0
 10 17  1  0
 11 12  2  0
M  RAD  1   3   2
M  END
>  <reaction>  (6) 
rmg_rxn_10

>  <mol_properties>  (6) 
{"1": {"label": "*4", "atom_type": "Cs"}, "2": {"label": "*3", "atom_type": "S2s"}, "9": {"label": "*1", "atom_type": "Cs"}, "10": {"label": "*0", "atom_type": "N3d"}, "15": {"label": "*2", "atom_type": "H0"}}

>  <type>  (6) 
unop_2

>  <geom_source>  (6) 
Heuristics

$$$$

     RDKit          3D

 17 15  0  0  0  0  0  0  0  0999 V2000
    1.8109    0.8101    1.6799 C   0  0  0  0  0  0  0  0  0  0  0  0
    1.1318   -0.5371    1.8534 C   0  0  0  0  0  0  0  0  0  0  0  0
    1.0320   -1.5228    0.3302 S   0  0  0  0  0  1  0  0  0  0  0  0
    1.2503    1.4444    0.9908 H   0  0  0  0  0  0  0  0  0  0  0  0
    2.8190    0.6905    1.2823 H   0  0  0  0  0  0  0  0  0  0  0  0
    1.8749    1.3301    2.6387 H   0  0  0  0  0  0  0  0  0  0  0  0
    0.1306   -0.4243    2.2688 H   0  0  0  0  0  0  0  0  0  0  0  0
    1.6955   -1.1665    2.5436 H   0  0  0  0  0  0  0  0  0  0  0  0
   -1.2927   -0.1691   -2.3201 C   0  0  0  0  0  0  0  0  0  0  0  0
   -1.2927   -0.1691   -0.8096 C   0  0  0  0  0  0  0  0  0  0  0  0
   -1.2927    1.1568   -0.1460 N   0  0  0  0  0  0  0  0  0  0  0  0
   -1.2927    2.0864   -0.8937 O   0  0  0  0  0  0  0  0  0  0  0  0
   -0.4125    0.3383   -2.7146 H   0  0  0  0  0  0  0  0  0  0  0  0
   -1.2927   -1.1963   -2.6854 H   0  0  0  0  0  0  0  0  0  0  0  0
   -2.1728    0.3383   -2.7146 H   0  0  0  0  0  0  0  0  0  0  0  0
   -0.2472   -0.7779   -0.2970 H   0  0  0  0  0  0  0  0  0  0  0  0
   -2.1639   -0.6764   -0.3824 H   0  0  0  0  0  0  0  0  0  0  0  0
  1  2  1  0
  1  4  1  0
  1  5  1  0
  1  6  1  0
  2  3  1  0
  2  7  1  0
  2  8  1  0
  9 10  1  0
  9 13  1  0
  9 14  1  0
  9 15  1  0
 10 11  1  0
 10 16  1  0
 10 17  1  0
 11 12  2  0
M  RAD  1   3   2
M  END
>  <reaction>  (7) 
rmg_rxn_10

>  <mol_properties>  (7) 
{"1": {"label": "*4", "atom_type": "Cs"}, "2": {"label": "*3", "atom_type": "S2s"}, "9": {"label": "*1", "atom_type": "Cs"}, "10": {"label": "*0", "atom_type": "N3d"}, "15": {"label": "*2", "atom_type": "H0"}}

>  <type>  (7) 
unop_3

>  <geom_source>  (7) 
Heuristics

$$$$

     RDKit          3D

 17 15  0  0  0  0  0  0  0  0999 V2000
   -0.3787   -2.6454    0.0035 C   0  0  0  0  0  0  0  0  0  0  0  0
    1.0921   -2.2927    0.1402 C   0  0  0  0  0  0  0  0  0  0  0  0
    1.4016   -0.6650    0.8862 S   0  0  0  0  0  1  0  0  0  0  0  0
   -0.8875   -1.9477   -0.6641 H   0  0  0  0  0  0  0  0  0  0  0  0
   -0.8797   -2.6110    0.9712 H   0  0  0  0  0  0  0  0  0  0  0  0
   -0.4919   -3.6501   -0.4108 H   0  0  0  0  0  0  0  0  0  0  0  0
    1.6019   -2.3444   -0.8216 H   0  0  0  0  0  0  0  0  0  0  0  0
    1.5958   -2.9936    0.8075 H   0  0  0  0  0  0  0  0  0  0  0  0
   -0.9231    0.6888   -1.7642 C   0  0  0  0  0  0  0  0  0  0  0  0
   -0.9231    0.6888   -0.2537 C   0  0  0  0  0  0  0  0  0  0  0  0
   -0.9231    2.0147    0.4099 N   0  0  0  0  0  0  0  0  0  0  0  0
   -0.9231    2.9443   -0.3378 O   0  0  0  0  0  0  0  0  0  0  0  0
   -0.0429    1.1962   -2.1586 H   0  0  0  0  0  0  0  0  0  0  0  0
   -0.9231   -0.3384   -2.1294 H   0  0  0  0  0  0  0  0  0  0  0  0
   -1.8032    1.1962   -2.1586 H   0  0  0  0  0  0  0  0  0  0  0  0
    0.1224    0.0800    0.2589 H   0  0  0  0  0  0  0  0  0  0  0  0
   -1.7943    0.1815    0.1735 H   0  0  0  0  0  0  0  0  0  0  0  0
  1  2  1  0
  1  4  1  0
  1  5  1  0
  1  6  1  0
  2  3  1  0
  2  7  1  0
  2  8  1  0
  9 10  1  0
  9 13  1  0
  9 14  1  0
  9 15  1  0
 10 11  1  0
 10 16  1  0
 10 17  1  0
 11 12  2  0
M  RAD  1   3   2
M  END
>  <reaction>  (8) 
rmg_rxn_10

>  <mol_properties>  (8) 
{"1": {"label": "*4", "atom_type": "Cs"}, "2": {"label": "*3", "atom_type": "S2s"}, "9": {"label": "*1", "atom_type": "Cs"}, "10": {"label": "*0", "atom_type": "N3d"}, "15": {"label": "*2", "atom_type": "H0"}}

>  <type>  (8) 
unop_4

>  <geom_source>  (8) 
Heuristics

$$$$

     RDKit          3D

 17 15  0  0  0  0  0  0  0  0999 V2000
    0.7494    0.3559    2.3652 C   0  0  0  0  0  0  0  0  0  0  0  0
    0.8225   -1.1022    1.9472 C   0  0  0  0  0  0  0  0  0  0  0  0
    1.2581   -1.3559    0.2015 S   0  0  0  0  0  1  0  0  0  0  0  0
   -0.0360    0.8804    1.8179 H   0  0  0  0  0  0  0  0  0  0  0  0
    1.6932    0.8655    2.1698 H   0  0  0  0  0  0  0  0  0  0  0  0
    0.5260    0.4351    3.4317 H   0  0  0  0  0  0  0  0  0  0  0  0
   -0.1124   -1.6211    2.1582 H   0  0  0  0  0  0  0  0  0  0  0  0
    1.6081   -1.6218    2.4978 H   0  0  0  0  0  0  0  0  0  0  0  0
   -1.0666   -0.0022   -2.4488 C   0  0  0  0  0  0  0  0  0  0  0  0
   -1.0666   -0.0022   -0.9384 C   0  0  0  0  0  0  0  0  0  0  0  0
   -1.0666    1.3238   -0.2748 N   0  0  0  0  0  0  0  0  0  0  0  0
   -1.0666    2.2533   -1.0225 O   0  0  0  0  0  0  0  0  0  0  0  0
   -0.1865    0.5052   -2.8433 H   0  0  0  0  0  0  0  0  0  0  0  0
   -1.0666   -1.0293   -2.8141 H   0  0  0  0  0  0  0  0  0  0  0  0
   -1.9467    0.5052   -2.8433 H   0  0  0  0  0  0  0  0  0  0  0  0
   -0.0212   -0.6110   -0.4258 H   0  0  0  0  0  0  0  0  0  0  0  0
   -1.9378   -0.5095   -0.5112 H   0  0  0  0  0  0  0  0  0  0  0  0
  1  2  1  0
  1  4  1  0
  1  5  1  0
  1  6  1  0
  2  3  1  0
  2  7  1  0
  2  8  1  0
  9 10  1  0
  9 13  1  0
  9 14  1  0
  9 15  1  0
 10 11  1  0
 10 16  1  0
 10 17  1  0
 11 12  2  0
M  RAD  1   3   2
M  END
>  <reaction>  (9) 
rmg_rxn_10

>  <mol_properties>  (9) 
{"1": {"label": "*4", "atom_type": "Cs"}, "2": {"label": "*3", "atom_type": "S2s"}, "9": {"label": "*1", "atom_type": "Cs"}, "10": {"label": "*0", "atom_type": "N3d"}, "15": {"label": "*2", "atom_type": "H0"}}

>  <type>  (9) 
unop_5

>  <geom_source>  (9) 
Heuristics

$$$$

     RDKit          3D

 17 15  0  0  0  0  0  0  0  0999 V2000
   -0.7294   -2.3648    0.9244 C   0  0  0  0  0  0  0  0  0  0  0  0
    0.7758   -2.3602    0.7233 C   0  0  0  0  0  0  0  0  0  0  0  0
    1.5111   -0.7007    0.6387 S   0  0  0  0  0  1  0  0  0  0  0  0
   -1.2377   -1.8932    0.0815 H   0  0  0  0  0  0  0  0  0  0  0  0
   -1.0038   -1.8217    1.8292 H   0  0  0  0  0  0  0  0  0  0  0  0
   -1.0987   -3.3896    1.0088 H   0  0  0  0  0  0  0  0  0  0  0  0
    1.0568   -2.9183   -0.1696 H   0  0  0  0  0  0  0  0  0  0  0  0
    1.2787   -2.8335    1.5680 H   0  0  0  0  0  0  0  0  0  0  0  0
   -0.8136    0.6530   -2.0116 C   0  0  0  0  0  0  0  0  0  0  0  0
   -0.8136    0.6530   -0.5011 C   0  0  0  0  0  0  0  0  0  0  0  0
   -0.8136    1.9790    0.1625 N   0  0  0  0  0  0  0  0  0  0  0  0
   -0.8136    2.9085   -0.5852 O   0  0  0  0  0  0  0  0  0  0  0  0
    0.0665    1.1604   -2.4061 H   0  0  0  0  0  0  0  0  0  0  0  0
   -0.8136   -0.3741   -2.3769 H   0  0  0  0  0  0  0  0  0  0  0  0
   -1.6937    1.1604   -2.4061 H   0  0  0  0  0  0  0  0  0  0  0  0
    0.2318    0.0442    0.0115 H   0  0  0  0  0  0  0  0  0  0  0  0
   -1.6848    0.1457   -0.0740 H   0  0  0  0  0  0  0  0  0  0  0  0
  1  2  1  0
  1  4  1  0
  1  5  1  0
  1  6  1  0
  2  3  1  0
  2  7  1  0
  2  8  1  0
  9 10  1  0
  9 13  1  0
  9 14  1  0
  9 15  1  0
 10 11  1  0
 10 16  1  0
 10 17  1  0
 11 12  2  0
M  RAD  1   3   2
M  END
>  <reaction>  (10) 
rmg_rxn_10

>  <mol_properties>  (10) 
{"1": {"label": "*4", "atom_type": "Cs"}, "2": {"label": "*3", "atom_type": "S2s"}, "9": {"label": "*1", "atom_type": "Cs"}, "10": {"label": "*0", "atom_type": "N3d"}, "15": {"label": "*2", "atom_type": "H0"}}

>  <type>  (10) 
unop_6

>  <geom_source>  (10) 
Heuristics

$$$$

     RDKit          3D

 17 15  0  0  0  0  0  0  0  0999 V2000
   -0.7314   -1.6683    1.8300 C   0  0  0  0  0  0  0  0  0  0  0  0
    0.6190   -2.1276    1.3088 C   0  0  0  0  0  0  0  0  0  0  0  0
    1.5368   -0.8541    0.3936 S   0  0  0  0  0  1  0  0  0  0  0  0
   -1.3977   -1.4021    1.0076 H   0  0  0  0  0  0  0  0  0  0  0  0
   -0.6247   -0.7942    2.4728 H   0  0  0  0  0  0  0  0  0  0  0  0
   -1.2087   -2.4658    2.4044 H   0  0  0  0  0  0  0  0  0  0  0  0
    0.5199   -3.0129    0.6810 H   0  0  0  0  0  0  0  0  0  0  0  0
    1.2805   -2.3934    2.1346 H   0  0  0  0  0  0  0  0  0  0  0  0
   -0.7879    0.4997   -2.2567 C   0  0  0  0  0  0  0  0  0  0  0  0
   -0.7879    0.4997   -0.7462 C   0  0  0  0  0  0  0  0  0  0  0  0
   -0.7879    1.8256   -0.0827 N   0  0  0  0  0  0  0  0  0  0  0  0
   -0.7879    2.7552   -0.8304 O   0  0  0  0  0  0  0  0  0  0  0  0
    0.0922    1.0070   -2.6512 H   0  0  0  0  0  0  0  0  0  0  0  0
   -0.7879   -0.5275   -2.6220 H   0  0  0  0  0  0  0  0  0  0  0  0
   -1.6681    1.0070   -2.6512 H   0  0  0  0  0  0  0  0  0  0  0  0
    0.2575   -0.1091   -0.2337 H   0  0  0  0  0  0  0  0  0  0  0  0
   -1.6591   -0.0077   -0.3191 H   0  0  0  0  0  0  0  0  0  0  0  0
  1  2  1  0
  1  4  1  0
  1  5  1  0
  1  6  1  0
  2  3  1  0
  2  7  1  0
  2  8  1  0
  9 10  1  0
  9 13  1  0
  9 14  1  0
  9 15  1  0
 10 11  1  0
 10 16  1  0
 10 17  1  0
 11 12  2  0
M  RAD  1   3   2
M  END
>  <reaction>  (11) 
rmg_rxn_10

>  <mol_properties>  (11) 
{"1": {"label": "*4", "atom_type": "Cs"}, "2": {"label": "*3", "atom_type": "S2s"}, "9": {"label": "*1", "atom_type": "Cs"}, "10": {"label": "*0", "atom_type": "N3d"}, "15": {"label": "*2", "atom_type": "H0"}}

>  <type>  (11) 
unop_7

>  <geom_source>  (11) 
Heuristics

$$$$

     RDKit          3D

 17 15  0  0  0  0  0  0  0  0999 V2000
    2.7498    0.1381   -0.3060 C   0  0  0  0  0  0  0  0  0  0  0  0
    1.8416   -0.0347    0.8989 C   0  0  0  0  0  0  0  0  0  0  0  0
    0.7612   -1.4932    0.8142 S   0  0  0  0  0  1  0  0  0  0  0  0
    2.1669    0.2935   -1.2156 H   0  0  0  0  0  0  0  0  0  0  0  0
    3.3745   -0.7432   -0.4533 H   0  0  0  0  0  0  0  0  0  0  0  0
    3.3996    1.0061   -0.1710 H   0  0  0  0  0  0  0  0  0  0  0  0
    1.2286    0.8514    1.0619 H   0  0  0  0  0  0  0  0  0  0  0  0
    2.4292   -0.1886    1.8051 H   0  0  0  0  0  0  0  0  0  0  0  0
   -1.5635   -0.1395   -1.8361 C   0  0  0  0  0  0  0  0  0  0  0  0
   -1.5635   -0.1395   -0.3256 C   0  0  0  0  0  0  0  0  0  0  0  0
   -1.5635    1.1865    0.3380 N   0  0  0  0  0  0  0  0  0  0  0  0
   -1.5635    2.1160   -0.4097 O   0  0  0  0  0  0  0  0  0  0  0  0
   -0.6834    0.3679   -2.2305 H   0  0  0  0  0  0  0  0  0  0  0  0
   -1.5635   -1.1666   -2.2013 H   0  0  0  0  0  0  0  0  0  0  0  0
   -2.4437    0.3679   -2.2305 H   0  0  0  0  0  0  0  0  0  0  0  0
   -0.5181   -0.7483    0.1870 H   0  0  0  0  0  0  0  0  0  0  0  0
   -2.4347   -0.6468    0.1016 H   0  0  0  0  0  0  0  0  0  0  0  0
  1  2  1  0
  1  4  1  0
  1  5  1  0
  1  6  1  0
  2  3  1  0
  2  7  1  0
  2  8  1  0
  9 10  1  0
  9 13  1  0
  9 14  1  0
  9 15  1  0
 10 11  1  0
 10 16  1  0
 10 17  1  0
 11 12  2  0
M  RAD  1   3   2
M  END
>  <reaction>  (12) 
rmg_rxn_10

>  <mol_properties>  (12) 
{"1": {"label": "*4", "atom_type": "Cs"}, "2": {"label": "*3", "atom_type": "S2s"}, "9": {"label": "*1", "atom_type": "Cs"}, "10": {"label": "*0", "atom_type": "N3d"}, "15": {"label": "*2", "atom_type": "H0"}}

>  <type>  (12) 
unop_8

>  <geom_source>  (12) 
Heuristics

$$$$

     RDKit          3D

 17 15  0  0  0  0  0  0  0  0999 V2000
    0.2105   -2.5950   -0.7506 C   0  0  0  0  0  0  0  0  0  0  0  0
    1.4854   -1.9204   -0.2752 C   0  0  0  0  0  0  0  0  0  0  0  0
    1.2400   -0.7337    1.0788 S   0  0  0  0  0  1  0  0  0  0  0  0
   -0.4878   -1.8644   -1.1628 H   0  0  0  0  0  0  0  0  0  0  0  0
   -0.2878   -3.1103    0.0708 H   0  0  0  0  0  0  0  0  0  0  0  0
    0.4349   -3.3239   -1.5330 H   0  0  0  0  0  0  0  0  0  0  0  0
    1.9975   -1.4199   -1.0967 H   0  0  0  0  0  0  0  0  0  0  0  0
    2.1800   -2.6550    0.1348 H   0  0  0  0  0  0  0  0  0  0  0  0
   -1.0847    0.6201   -1.5715 C   0  0  0  0  0  0  0  0  0  0  0  0
   -1.0847    0.6201   -0.0611 C   0  0  0  0  0  0  0  0  0  0  0  0
   -1.0847    1.9460    0.6025 N   0  0  0  0  0  0  0  0  0  0  0  0
   -1.0847    2.8756   -0.1452 O   0  0  0  0  0  0  0  0  0  0  0  0
   -0.2046    1.1274   -1.9660 H   0  0  0  0  0  0  0  0  0  0  0  0
   -1.0847   -0.4071   -1.9368 H   0  0  0  0  0  0  0  0  0  0  0  0
   -1.9648    1.1274   -1.9660 H   0  0  0  0  0  0  0  0  0  0  0  0
   -0.0393    0.0113    0.4515 H   0  0  0  0  0  0  0  0  0  0  0  0
   -1.9559    0.1127    0.3661 H   0  0  0  0  0  0  0  0  0  0  0  0
  1  2  1  0
  1  4  1  0
  1  5  1  0
  1  6  1  0
  2  3  1  0
  2  7  1  0
  2  8  1  0
  9 10  1  0
  9 13  1  0
  9 14  1  0
  9 15  1  0
 10 11  1  0
 10 16  1  0
 10 17  1  0
 11 12  2  0
M  RAD  1   3   2
M  END
>  <reaction>  (13) 
rmg_rxn_10

>  <mol_properties>  (13) 
{"1": {"label": "*4", "atom_type": "Cs"}, "2": {"label": "*3", "atom_type": "S2s"}, "9": {"label": "*1", "atom_type": "Cs"}, "10": {"label": "*0", "atom_type": "N3d"}, "15": {"label": "*2", "atom_type": "H0"}}

>  <type>  (13) 
unop_9

>  <geom_source>  (13) 
Heuristics

$$$$

     RDKit          3D

 17 15  0  0  0  0  0  0  0  0999 V2000
    2.5144   -0.7079   -1.0706 C   0  0  0  0  0  0  0  0  0  0  0  0
    2.0321   -0.2462    0.2934 C   0  0  0  0  0  0  0  0  0  0  0  0
    0.7692   -1.3187    1.0394 S   0  0  0  0  0  1  0  0  0  0  0  0
    1.6992   -0.7006   -1.7964 H   0  0  0  0  0  0  0  0  0  0  0  0
    2.9116   -1.7220   -1.0212 H   0  0  0  0  0  0  0  0  0  0  0  0
    3.2998   -0.0447   -1.4407 H   0  0  0  0  0  0  0  0  0  0  0  0
    1.6516    0.7743    0.2534 H   0  0  0  0  0  0  0  0  0  0  0  0
    2.8507   -0.2544    1.0145 H   0  0  0  0  0  0  0  0  0  0  0  0
   -1.5555    0.0350   -1.6109 C   0  0  0  0  0  0  0  0  0  0  0  0
   -1.5555    0.0350   -0.1004 C   0  0  0  0  0  0  0  0  0  0  0  0
   -1.5555    1.3610    0.5631 N   0  0  0  0  0  0  0  0  0  0  0  0
   -1.5555    2.2905   -0.1846 O   0  0  0  0  0  0  0  0  0  0  0  0
   -0.6754    0.5424   -2.0054 H   0  0  0  0  0  0  0  0  0  0  0  0
   -1.5555   -0.9921   -1.9762 H   0  0  0  0  0  0  0  0  0  0  0  0
   -2.4357    0.5424   -2.0054 H   0  0  0  0  0  0  0  0  0  0  0  0
   -0.5101   -0.5738    0.4121 H   0  0  0  0  0  0  0  0  0  0  0  0
   -2.4267   -0.4723    0.3267 H   0  0  0  0  0  0  0  0  0  0  0  0
  1  2  1  0
  1  4  1  0
  1  5  1  0
  1  6  1  0
  2  3  1  0
  2  7  1  0
  2  8  1  0
  9 10  1  0
  9 13  1  0
  9 14  1  0
  9 15  1  0
 10 11  1  0
 10 16  1  0
 10 17  1  0
 11 12  2  0
M  RAD  1   3   2
M  END
>  <reaction>  (14) 
rmg_rxn_10

>  <mol_properties>  (14) 
{"1": {"label": "*4", "atom_type": "Cs"}, "2": {"label": "*3", "atom_type": "S2s"}, "9": {"label": "*1", "atom_type": "Cs"}, "10": {"label": "*0", "atom_type": "N3d"}, "15": {"label": "*2", "atom_type": "H0"}}

>  <type>  (14) 
unop_10

>  <geom_source>  (14) 
Heuristics

$$$$

     RDKit          3D

 17 15  0  0  0  0  0  0  0  0999 V2000
   -0.2380   -0.6314    2.4159 C   0  0  0  0  0  0  0  0  0  0  0  0
    0.6429   -1.6730    1.7484 C   0  0  0  0  0  0  0  0  0  0  0  0
    1.4509   -1.0998    0.2252 S   0  0  0  0  0  1  0  0  0  0  0  0
   -1.0684   -0.3480    1.7668 H   0  0  0  0  0  0  0  0  0  0  0  0
    0.3305    0.2696    2.6477 H   0  0  0  0  0  0  0  0  0  0  0  0
   -0.6570   -1.0264    3.3445 H   0  0  0  0  0  0  0  0  0  0  0  0
    0.0839   -2.5832    1.5321 H   0  0  0  0  0  0  0  0  0  0  0  0
    1.4704   -1.9534    2.4017 H   0  0  0  0  0  0  0  0  0  0  0  0
   -0.8738    0.2540   -2.4251 C   0  0  0  0  0  0  0  0  0  0  0  0
   -0.8738    0.2540   -0.9146 C   0  0  0  0  0  0  0  0  0  0  0  0
   -0.8738    1.5799   -0.2510 N   0  0  0  0  0  0  0  0  0  0  0  0
   -0.8738    2.5095   -0.9987 O   0  0  0  0  0  0  0  0  0  0  0  0
    0.0064    0.7614   -2.8196 H   0  0  0  0  0  0  0  0  0  0  0  0
   -0.8738   -0.7732   -2.7904 H   0  0  0  0  0  0  0  0  0  0  0  0
   -1.7539    0.7613   -2.8196 H   0  0  0  0  0  0  0  0  0  0  0  0
    0.1717   -0.3548   -0.4020 H   0  0  0  0  0  0  0  0  0  0  0  0
   -1.7450   -0.2533   -0.4874 H   0  0  0  0  0  0  0  0  0  0  0  0
  1  2  1  0
  1  4  1  0
  1  5  1  0
  1  6  1  0
  2  3  1  0
  2  7  1  0
  2  8  1  0
  9 10  1  0
  9 13  1  0
  9 14  1  0
  9 15  1  0
 10 11  1  0
 10 16  1  0
 10 17  1  0
 11 12  2  0
M  RAD  1   3   2
M  END
>  <reaction>  (15) 
rmg_rxn_10

>  <mol_properties>  (15) 
{"1": {"label": "*4", "atom_type": "Cs"}, "2": {"label": "*3", "atom_type": "S2s"}, "9": {"label": "*1", "atom_type": "Cs"}, "10": {"label": "*0", "atom_type": "N3d"}, "15": {"label": "*2", "atom_type": "H0"}}

>  <type>  (15) 
unop_11

>  <geom_source>  (15) 
Heuristics

$$$$

     RDKit          3D

 17 15  0  0  0  0  0  0  0  0999 V2000
    0.9983   -2.2668   -1.2576 C   0  0  0  0  0  0  0  0  0  0  0  0
    1.8335   -1.3375   -0.3943 C   0  0  0  0  0  0  0  0  0  0  0  0
    1.0527   -0.8828    1.1822 S   0  0  0  0  0  1  0  0  0  0  0  0
    0.0628   -1.7891   -1.5540 H   0  0  0  0  0  0  0  0  0  0  0  0
    0.7526   -3.1829   -0.7199 H   0  0  0  0  0  0  0  0  0  0  0  0
    1.5427   -2.5328   -2.1668 H   0  0  0  0  0  0  0  0  0  0  0  0
    2.0981   -0.4284   -0.9339 H   0  0  0  0  0  0  0  0  0  0  0  0
    2.7676   -1.8194   -0.1017 H   0  0  0  0  0  0  0  0  0  0  0  0
   -1.2720    0.4709   -1.4681 C   0  0  0  0  0  0  0  0  0  0  0  0
   -1.2720    0.4709    0.0424 C   0  0  0  0  0  0  0  0  0  0  0  0
   -1.2720    1.7968    0.7060 N   0  0  0  0  0  0  0  0  0  0  0  0
   -1.2720    2.7264   -0.0417 O   0  0  0  0  0  0  0  0  0  0  0  0
   -0.3919    0.9783   -1.8625 H   0  0  0  0  0  0  0  0  0  0  0  0
   -1.2720   -0.5563   -1.8333 H   0  0  0  0  0  0  0  0  0  0  0  0
   -2.1521    0.9783   -1.8625 H   0  0  0  0  0  0  0  0  0  0  0  0
   -0.2266   -0.1379    0.5550 H   0  0  0  0  0  0  0  0  0  0  0  0
   -2.1432   -0.0364    0.4696 H   0  0  0  0  0  0  0  0  0  0  0  0
  1  2  1  0
  1  4  1  0
  1  5  1  0
  1  6  1  0
  2  3  1  0
  2  7  1  0
  2  8  1  0
  9 10  1  0
  9 13  1  0
  9 14  1  0
  9 15  1  0
 10 11  1  0
 10 16  1  0
 10 17  1  0
 11 12  2  0
M  RAD  1   3   2
M  END
>  <reaction>  (16) 
rmg_rxn_10

>  <mol_properties>  (16) 
{"1": {"label": "*4", "atom_type": "Cs"}, "2": {"label": "*3", "atom_type": "S2s"}, "9": {"label": "*1", "atom_type": "Cs"}, "10": {"label": "*0", "atom_type": "N3d"}, "15": {"label": "*2", "atom_type": "H0"}}

>  <type>  (16) 
unop_12

>  <geom_source>  (16) 
Heuristics

$$$$

     RDKit          3D

 17 15  0  0  0  0  0  0  0  0999 V2000
    1.8617   -1.6052   -1.4047 C   0  0  0  0  0  0  0  0  0  0  0  0
    2.0308   -0.7206   -0.1819 C   0  0  0  0  0  0  0  0  0  0  0  0
    0.8775   -1.0929    1.1721 S   0  0  0  0  0  1  0  0  0  0  0  0
    0.8756   -1.4687   -1.8524 H   0  0  0  0  0  0  0  0  0  0  0  0
    1.9692   -2.6579   -1.1425 H   0  0  0  0  0  0  0  0  0  0  0  0
    2.6109   -1.3569   -2.1602 H   0  0  0  0  0  0  0  0  0  0  0  0
    1.9432    0.3341   -0.4420 H   0  0  0  0  0  0  0  0  0  0  0  0
    3.0180   -0.8602    0.2609 H   0  0  0  0  0  0  0  0  0  0  0  0
   -1.4472    0.2609   -1.4782 C   0  0  0  0  0  0  0  0  0  0  0  0
   -1.4472    0.2609    0.0323 C   0  0  0  0  0  0  0  0  0  0  0  0
   -1.4472    1.5868    0.6958 N   0  0  0  0  0  0  0  0  0  0  0  0
   -1.4472    2.5164   -0.0519 O   0  0  0  0  0  0  0  0  0  0  0  0
   -0.5671    0.7682   -1.8727 H   0  0  0  0  0  0  0  0  0  0  0  0
   -1.4472   -0.7663   -1.8435 H   0  0  0  0  0  0  0  0  0  0  0  0
   -2.3273    0.7682   -1.8727 H   0  0  0  0  0  0  0  0  0  0  0  0
   -0.4018   -0.3479    0.5448 H   0  0  0  0  0  0  0  0  0  0  0  0
   -2.3184   -0.2465    0.4594 H   0  0  0  0  0  0  0  0  0  0  0  0
  1  2  1  0
  1  4  1  0
  1  5  1  0
  1  6  1  0
  2  3  1  0
  2  7  1  0
  2  8  1  0
  9 10  1  0
  9 13  1  0
  9 14  1  0
  9 15  1  0
 10 11  1  0
 10 16  1  0
 10 17  1  0
 11 12  2  0
M  RAD  1   3   2
M  END
>  <reaction>  (17) 
rmg_rxn_10

>  <mol_properties>  (17) 
{"1": {"label": "*4", "atom_type": "Cs"}, "2": {"label": "*3", "atom_type": "S2s"}, "9": {"label": "*1", "atom_type": "Cs"}, "10": {"label": "*0", "atom_type": "N3d"}, "15": {"label": "*2", "atom_type": "H0"}}

>  <type>  (17) 
unop_13

>  <geom_source>  (17) 
gaussian_log

$$$$
