
     RDKit          3D

  6  5  0  0  0  0  0  0  0  0999 V2000
   -0.4547   -0.0097   -0.0070 C   0  0  0  0  0  0  0  0  0  0  0  0
    0.8695   -0.1987   -0.6218 N   0  0  0  0  0  0  0  0  0  0  0  0
    1.0322   -1.2809   -1.0969 O   0  0  0  0  0  0  0  0  0  0  0  0
   -0.2820    0.2687    1.0347 H   0  0  0  0  0  0  0  0  0  0  0  0
   -1.0716   -0.9051   -0.0916 H   0  0  0  0  0  0  0  0  0  0  0  0
   -0.9130    0.8487   -0.5026 H   0  0  0  0  0  0  0  0  0  0  0  0
  1  2  1  0
  1  4  1  0
  1  5  1  0
  1  6  1  0
  2  3  2  0
M  END
>  <reaction>  (1) 
rmg_rxn_606

>  <mol_properties>  (1) 
{"0": {"label": "donator", "atom_type": "Cs"}, "3": {"label": "d_hydrogen", "atom_type": "H0"}}

>  <type>  (1) 
r1h

$$$$

     RDKit          3D

  4  3  0  0  0  0  0  0  0  0999 V2000
    1.2191   -0.0447   -0.0369 N   0  0  0  0  0  1  0  0  0  0  0  0
   -0.0876   -0.0060    0.2202 N   0  0  0  0  0  0  0  0  0  0  0  0
   -0.5966   -0.8143   -0.1273 H   0  0  0  0  0  0  0  0  0  0  0  0
   -0.5329    0.8649   -0.0563 H   0  0  0  0  0  0  0  0  0  0  0  0
  1  2  1  0
  2  3  1  0
  2  4  1  0
M  RAD  1   1   3
M  END
>  <reaction>  (2) 
rmg_rxn_606

>  <mol_properties>  (2) 
{"0": {"label": "acceptor", "atom_type": "N3s"}}

>  <type>  (2) 
r2

$$$$

     RDKit          3D

  5  4  0  0  0  0  0  0  0  0999 V2000
    0.7361   -0.2872    0.4035 N   0  0  0  0  0  2  0  0  0  0  0  0
   -0.3891   -0.1505   -0.3131 N   0  0  0  0  0  0  0  0  0  0  0  0
    1.4909    0.0686   -0.1831 H   0  0  0  0  0  0  0  0  0  0  0  0
   -1.1819   -0.6340    0.0744 H   0  0  0  0  0  0  0  0  0  0  0  0
   -0.3592   -0.1189   -1.3223 H   0  0  0  0  0  0  0  0  0  0  0  0
  1  2  1  0
  1  3  1  0
  2  4  1  0
  2  5  1  0
M  RAD  1   1   2
M  END
>  <reaction>  (3) 
rmg_rxn_606

>  <mol_properties>  (3) 
{"0": {"label": "acceptor", "atom_type": "N3s"}, "4": {"label": "a_hydrogen", "atom_type": "H0"}}

>  <type>  (3) 
r2h

$$$$

     RDKit          3D

 10  8  0  0  0  0  0  0  0  0999 V2000
   -0.5175    0.5540    1.8563 N   0  0  0  0  0  2  0  0  0  0  0  0
   -1.4676   -0.1789    1.2786 N   0  0  0  0  0  0  0  0  0  0  0  0
   -2.0853   -0.6287    1.9405 H   0  0  0  0  0  0  0  0  0  0  0  0
   -1.2054   -0.7461    0.4763 H   0  0  0  0  0  0  0  0  0  0  0  0
    0.9638    0.8546   -0.2150 C   0  0  0  0  0  0  0  0  0  0  0  0
    1.3802   -0.4624   -0.4532 N   0  0  0  0  0  0  0  0  0  0  0  0
    0.5051   -1.2110   -0.8544 O   0  0  0  0  0  1  0  0  0  0  0  0
    0.3263    0.7825    0.9570 H   0  0  0  0  0  0  0  0  0  0  0  0
    0.1700    1.2180   -0.8686 H   0  0  0  0  0  0  0  0  0  0  0  0
    1.7883    1.5326   -0.0191 H   0  0  0  0  0  0  0  0  0  0  0  0
  1  2  1  0
  1  8  1  0
  2  3  1  0
  2  4  1  0
  5  6  2  3
  5  9  1  0
  5 10  1  0
  6  7  1  0
M  RAD  2   1   2   7   2
M  END
>  <reaction>  (4) 
rmg_rxn_606

>  <mol_properties>  (4) 
{"0": {"label": "*1", "atom_type": "N3s"}, "1": {"label": "*0", "atom_type": "N3s"}, "4": {"label": "*3", "atom_type": "Cd"}, "5": {"label": "*4", "atom_type": "N3d"}, "7": {"label": "*2", "atom_type": "H0"}}

>  <type>  (4) 
ts

$$$$

     RDKit          3D

 10  8  0  0  0  0  0  0  0  0999 V2000
   -1.3280    0.5477    1.1075 N   0  0  0  0  0  2  0  0  0  0  0  0
   -0.8696    0.7917    2.3439 N   0  0  0  0  0  0  0  0  0  0  0  0
   -1.3074    1.5776    2.7946 H   0  0  0  0  0  0  0  0  0  0  0  0
    0.1060    0.6587    2.5696 H   0  0  0  0  0  0  0  0  0  0  0  0
    0.7144    0.4096   -0.3867 C   0  0  0  0  0  0  0  0  0  0  0  0
    0.7144   -0.9361   -0.9835 N   0  0  0  0  0  0  0  0  0  0  0  0
    0.7144   -0.9361   -2.1766 O   0  0  0  0  0  1  0  0  0  0  0  0
   -0.3416    0.4810    0.3859 H   0  0  0  0  0  0  0  0  0  0  0  0
    0.7144    1.1901   -1.1485 H   0  0  0  0  0  0  0  0  0  0  0  0
    1.5944    0.4691    0.2571 H   0  0  0  0  0  0  0  0  0  0  0  0
  1  2  1  0
  1  8  1  0
  2  3  1  0
  2  4  1  0
  5  6  2  3
  5  9  1  0
  5 10  1  0
  6  7  1  0
M  RAD  2   1   2   7   2
M  END
>  <reaction>  (5) 
rmg_rxn_606

>  <mol_properties>  (5) 
{"0": {"label": "*1", "atom_type": "N3s"}, "1": {"label": "*0", "atom_type": "N3s"}, "4": {"label": "*3", "atom_type": "Cd"}, "5": {"label": "*4", "atom_type": "N3d"}, "7": {"label": "*2", "atom_type": "H0"}}

>  <type>  (5) 
unop_1

>  <geom_source>  (5) 
Heuristics

$$$$

     RDKit          3D

 10  8  0  0  0  0  0  0  0  0999 V2000
   -1.1783    0.8852    1.2769 N   0  0  0  0  0  2  0  0  0  0  0  0
   -1.4022   -0.3611    1.7183 N   0  0  0  0  0  0  0  0  0  0  0  0
   -1.8111   -0.4023    2.6367 H   0  0  0  0  0  0  0  0  0  0  0  0
   -0.7590   -1.1097    1.5029 H   0  0  0  0  0  0  0  0  0  0  0  0
    0.8641    0.7471   -0.2174 C   0  0  0  0  0  0  0  0  0  0  0  0
    0.8641   -0.5986   -0.8142 N   0  0  0  0  0  0  0  0  0  0  0  0
    0.8641   -0.5986   -2.0073 O   0  0  0  0  0  1  0  0  0  0  0  0
   -0.1919    0.8185    0.5552 H   0  0  0  0  0  0  0  0  0  0  0  0
    0.8641    1.5276   -0.9791 H   0  0  0  0  0  0  0  0  0  0  0  0
    1.7441    0.8066    0.4265 H   0  0  0  0  0  0  0  0  0  0  0  0
  1  2  1  0
  1  8  1  0
  2  3  1  0
  2  4  1  0
  5  6  2  3
  5  9  1  0
  5 10  1  0
  6  7  1  0
M  RAD  2   1   2   7   2
M  END
>  <reaction>  (6) 
rmg_rxn_606

>  <mol_properties>  (6) 
{"0": {"label": "*1", "atom_type": "N3s"}, "1": {"label": "*0", "atom_type": "N3s"}, "4": {"label": "*3", "atom_type": "Cd"}, "5": {"label": "*4", "atom_type": "N3d"}, "7": {"label": "*2", "atom_type": "H0"}}

>  <type>  (6) 
unop_2

>  <geom_source>  (6) 
Heuristics

$$$$

     RDKit          3D

 10  8  0  0  0  0  0  0  0  0999 V2000
   -1.2934    0.4140    1.1650 N   0  0  0  0  0  2  0  0  0  0  0  0
   -0.9748    1.2614    2.1543 N   0  0  0  0  0  0  0  0  0  0  0  0
   -1.7218    1.8821    2.4173 H   0  0  0  0  0  0  0  0  0  0  0  0
   -0.0477    1.6574    2.2180 H   0  0  0  0  0  0  0  0  0  0  0  0
    0.7490    0.2759   -0.3293 C   0  0  0  0  0  0  0  0  0  0  0  0
    0.7490   -1.0698   -0.9261 N   0  0  0  0  0  0  0  0  0  0  0  0
    0.7490   -1.0698   -2.1192 O   0  0  0  0  0  1  0  0  0  0  0  0
   -0.3070    0.3473    0.4433 H   0  0  0  0  0  0  0  0  0  0  0  0
    0.7490    1.0564   -1.0910 H   0  0  0  0  0  0  0  0  0  0  0  0
    1.6290    0.3354    0.3145 H   0  0  0  0  0  0  0  0  0  0  0  0
  1  2  1  0
  1  8  1  0
  2  3  1  0
  2  4  1  0
  5  6  2  3
  5  9  1  0
  5 10  1  0
  6  7  1  0
M  RAD  2   1   2   7   2
M  END
>  <reaction>  (7) 
rmg_rxn_606

>  <mol_properties>  (7) 
{"0": {"label": "*1", "atom_type": "N3s"}, "1": {"label": "*0", "atom_type": "N3s"}, "4": {"label": "*3", "atom_type": "Cd"}, "5": {"label": "*4", "atom_type": "N3d"}, "7": {"label": "*2", "atom_type": "H0"}}

>  <type>  (7) 
unop_3

>  <geom_source>  (7) 
Heuristics

$$$$

     RDKit          3D

 10  8  0  0  0  0  0  0  0  0999 V2000
   -0.9841    0.6586    1.5529 N   0  0  0  0  0  2  0  0  0  0  0  0
   -2.0433    0.4552    0.7561 N   0  0  0  0  0  0  0  0  0  0  0  0
   -2.9082    0.8116    1.1267 H   0  0  0  0  0  0  0  0  0  0  0  0
   -2.1280   -0.3932    0.2144 H   0  0  0  0  0  0  0  0  0  0  0  0
    1.0583    0.5205    0.0587 C   0  0  0  0  0  0  0  0  0  0  0  0
    1.0583   -0.8253   -0.5381 N   0  0  0  0  0  0  0  0  0  0  0  0
    1.0583   -0.8253   -1.7312 O   0  0  0  0  0  1  0  0  0  0  0  0
    0.0023    0.5919    0.8313 H   0  0  0  0  0  0  0  0  0  0  0  0
    1.0583    1.3010   -0.7031 H   0  0  0  0  0  0  0  0  0  0  0  0
    1.9383    0.5800    0.7025 H   0  0  0  0  0  0  0  0  0  0  0  0
  1  2  1  0
  1  8  1  0
  2  3  1  0
  2  4  1  0
  5  6  2  3
  5  9  1  0
  5 10  1  0
  6  7  1  0
M  RAD  2   1   2   7   2
M  END
>  <reaction>  (8) 
rmg_rxn_606

>  <mol_properties>  (8) 
{"0": {"label": "*1", "atom_type": "N3s"}, "1": {"label": "*0", "atom_type": "N3s"}, "4": {"label": "*3", "atom_type": "Cd"}, "5": {"label": "*4", "atom_type": "N3d"}, "7": {"label": "*2", "atom_type": "H0"}}

>  <type>  (8) 
unop_4

>  <geom_source>  (8) 
Heuristics

$$$$

     RDKit          3D

 10  8  0  0  0  0  0  0  0  0999 V2000
   -1.2206    0.3326    1.2661 N   0  0  0  0  0  2  0  0  0  0  0  0
   -1.2078    1.5617    1.8022 N   0  0  0  0  0  0  0  0  0  0  0  0
   -2.0628    1.8129    2.2693 H   0  0  0  0  0  0  0  0  0  0  0  0
   -0.7347    2.3239    1.3378 H   0  0  0  0  0  0  0  0  0  0  0  0
    0.8219    0.1945   -0.2282 C   0  0  0  0  0  0  0  0  0  0  0  0
    0.8219   -1.1513   -0.8250 N   0  0  0  0  0  0  0  0  0  0  0  0
    0.8219   -1.1513   -2.0181 O   0  0  0  0  0  1  0  0  0  0  0  0
   -0.2342    0.2659    0.5444 H   0  0  0  0  0  0  0  0  0  0  0  0
    0.8218    0.9750   -0.9899 H   0  0  0  0  0  0  0  0  0  0  0  0
    1.7019    0.2540    0.4156 H   0  0  0  0  0  0  0  0  0  0  0  0
  1  2  1  0
  1  8  1  0
  2  3  1  0
  2  4  1  0
  5  6  2  3
  5  9  1  0
  5 10  1  0
  6  7  1  0
M  RAD  2   1   2   7   2
M  END
>  <reaction>  (9) 
rmg_rxn_606

>  <mol_properties>  (9) 
{"0": {"label": "*1", "atom_type": "N3s"}, "1": {"label": "*0", "atom_type": "N3s"}, "4": {"label": "*3", "atom_type": "Cd"}, "5": {"label": "*4", "atom_type": "N3d"}, "7": {"label": "*2", "atom_type": "H0"}}

>  <type>  (9) 
unop_5

>  <geom_source>  (9) 
Heuristics

$$$$

     RDKit          3D

 10  8  0  0  0  0  0  0  0  0999 V2000
   -0.9963    0.5108    1.5489 N   0  0  0  0  0  2  0  0  0  0  0  0
   -1.9921    0.9706    0.7774 N   0  0  0  0  0  0  0  0  0  0  0  0
   -2.6926    1.4893    1.2802 H   0  0  0  0  0  0  0  0  0  0  0  0
   -2.3392    0.4256    0.0010 H   0  0  0  0  0  0  0  0  0  0  0  0
    1.0461    0.3727    0.0546 C   0  0  0  0  0  0  0  0  0  0  0  0
    1.0461   -0.9731   -0.5422 N   0  0  0  0  0  0  0  0  0  0  0  0
    1.0461   -0.9731   -1.7353 O   0  0  0  0  0  1  0  0  0  0  0  0
   -0.0099    0.4441    0.8272 H   0  0  0  0  0  0  0  0  0  0  0  0
    1.0461    1.1531   -0.7071 H   0  0  0  0  0  0  0  0  0  0  0  0
    1.9261    0.4322    0.6985 H   0  0  0  0  0  0  0  0  0  0  0  0
  1  2  1  0
  1  8  1  0
  2  3  1  0
  2  4  1  0
  5  6  2  3
  5  9  1  0
  5 10  1  0
  6  7  1  0
M  RAD  2   1   2   7   2
M  END
>  <reaction>  (10) 
rmg_rxn_606

>  <mol_properties>  (10) 
{"0": {"label": "*1", "atom_type": "N3s"}, "1": {"label": "*0", "atom_type": "N3s"}, "4": {"label": "*3", "atom_type": "Cd"}, "5": {"label": "*4", "atom_type": "N3d"}, "7": {"label": "*2", "atom_type": "H0"}}

>  <type>  (10) 
unop_6

>  <geom_source>  (10) 
Heuristics

$$$$

     RDKit          3D

 10  8  0  0  0  0  0  0  0  0999 V2000
   -1.0505    0.3886    1.4861 N   0  0  0  0  0  2  0  0  0  0  0  0
   -1.7966    1.3940    1.0057 N   0  0  0  0  0  0  0  0  0  0  0  0
   -2.3661    1.8484    1.6997 H   0  0  0  0  0  0  0  0  0  0  0  0
   -2.2079    1.3388    0.0847 H   0  0  0  0  0  0  0  0  0  0  0  0
    0.9919    0.2505   -0.0081 C   0  0  0  0  0  0  0  0  0  0  0  0
    0.9919   -1.0953   -0.6049 N   0  0  0  0  0  0  0  0  0  0  0  0
    0.9919   -1.0953   -1.7980 O   0  0  0  0  0  1  0  0  0  0  0  0
   -0.0641    0.3219    0.7645 H   0  0  0  0  0  0  0  0  0  0  0  0
    0.9919    1.0310   -0.7699 H   0  0  0  0  0  0  0  0  0  0  0  0
    1.8719    0.3100    0.6357 H   0  0  0  0  0  0  0  0  0  0  0  0
  1  2  1  0
  1  8  1  0
  2  3  1  0
  2  4  1  0
  5  6  2  3
  5  9  1  0
  5 10  1  0
  6  7  1  0
M  RAD  2   1   2   7   2
M  END
>  <reaction>  (11) 
rmg_rxn_606

>  <mol_properties>  (11) 
{"0": {"label": "*1", "atom_type": "N3s"}, "1": {"label": "*0", "atom_type": "N3s"}, "4": {"label": "*3", "atom_type": "Cd"}, "5": {"label": "*4", "atom_type": "N3d"}, "7": {"label": "*2", "atom_type": "H0"}}

>  <type>  (11) 
unop_7

>  <geom_source>  (11) 
Heuristics

$$$$

     RDKit          3D

 10  8  0  0  0  0  0  0  0  0999 V2000
   -1.3159    0.6963    1.1105 N   0  0  0  0  0  2  0  0  0  0  0  0
   -0.9209    0.2770    2.3214 N   0  0  0  0  0  0  0  0  0  0  0  0
   -1.1449    0.9137    3.0677 H   0  0  0  0  0  0  0  0  0  0  0  0
   -0.0538   -0.2282    2.4367 H   0  0  0  0  0  0  0  0  0  0  0  0
    0.7265    0.5582   -0.3838 C   0  0  0  0  0  0  0  0  0  0  0  0
    0.7265   -0.7876   -0.9806 N   0  0  0  0  0  0  0  0  0  0  0  0
    0.7265   -0.7876   -2.1737 O   0  0  0  0  0  1  0  0  0  0  0  0
   -0.3295    0.6296    0.3888 H   0  0  0  0  0  0  0  0  0  0  0  0
    0.7265    1.3387   -1.1455 H   0  0  0  0  0  0  0  0  0  0  0  0
    1.6065    0.6177    0.2601 H   0  0  0  0  0  0  0  0  0  0  0  0
  1  2  1  0
  1  8  1  0
  2  3  1  0
  2  4  1  0
  5  6  2  3
  5  9  1  0
  5 10  1  0
  6  7  1  0
M  RAD  2   1   2   7   2
M  END
>  <reaction>  (12) 
rmg_rxn_606

>  <mol_properties>  (12) 
{"0": {"label": "*1", "atom_type": "N3s"}, "1": {"label": "*0", "atom_type": "N3s"}, "4": {"label": "*3", "atom_type": "Cd"}, "5": {"label": "*4", "atom_type": "N3d"}, "7": {"label": "*2", "atom_type": "H0"}}

>  <type>  (12) 
unop_8

>  <geom_source>  (12) 
Heuristics

$$$$

     RDKit          3D

 10  8  0  0  0  0  0  0  0  0999 V2000
   -1.0180    0.7923    1.4966 N   0  0  0  0  0  2  0  0  0  0  0  0
   -1.9373   -0.0144    0.9468 N   0  0  0  0  0  0  0  0  0  0  0  0
   -2.8436    0.0434    1.3801 H   0  0  0  0  0  0  0  0  0  0  0  0
   -1.6841   -0.9313    0.6066 H   0  0  0  0  0  0  0  0  0  0  0  0
    1.0245    0.6542    0.0024 C   0  0  0  0  0  0  0  0  0  0  0  0
    1.0245   -0.6915   -0.5944 N   0  0  0  0  0  0  0  0  0  0  0  0
    1.0245   -0.6915   -1.7875 O   0  0  0  0  0  1  0  0  0  0  0  0
   -0.0316    0.7256    0.7750 H   0  0  0  0  0  0  0  0  0  0  0  0
    1.0245    1.4347   -0.7594 H   0  0  0  0  0  0  0  0  0  0  0  0
    1.9045    0.7137    0.6462 H   0  0  0  0  0  0  0  0  0  0  0  0
  1  2  1  0
  1  8  1  0
  2  3  1  0
  2  4  1  0
  5  6  2  3
  5  9  1  0
  5 10  1  0
  6  7  1  0
M  RAD  2   1   2   7   2
M  END
>  <reaction>  (13) 
rmg_rxn_606

>  <mol_properties>  (13) 
{"0": {"label": "*1", "atom_type": "N3s"}, "1": {"label": "*0", "atom_type": "N3s"}, "4": {"label": "*3", "atom_type": "Cd"}, "5": {"label": "*4", "atom_type": "N3d"}, "7": {"label": "*2", "atom_type": "H0"}}

>  <type>  (13) 
unop_9

>  <geom_source>  (13) 
Heuristics

$$$$

     RDKit          3D

 10  8  0  0  0  0  0  0  0  0999 V2000
   -1.2611    0.8197    1.1726 N   0  0  0  0  0  2  0  0  0  0  0  0
   -1.1158   -0.1451    2.0926 N   0  0  0  0  0  0  0  0  0  0  0  0
   -1.3223    0.1511    3.0318 H   0  0  0  0  0  0  0  0  0  0  0  0
   -0.3766   -0.8289    2.0130 H   0  0  0  0  0  0  0  0  0  0  0  0
    0.7813    0.6816   -0.3216 C   0  0  0  0  0  0  0  0  0  0  0  0
    0.7813   -0.6641   -0.9184 N   0  0  0  0  0  0  0  0  0  0  0  0
    0.7813   -0.6641   -2.1115 O   0  0  0  0  0  1  0  0  0  0  0  0
   -0.2747    0.7530    0.4510 H   0  0  0  0  0  0  0  0  0  0  0  0
    0.7813    1.4621   -1.0834 H   0  0  0  0  0  0  0  0  0  0  0  0
    1.6613    0.7411    0.3222 H   0  0  0  0  0  0  0  0  0  0  0  0
  1  2  1  0
  1  8  1  0
  2  3  1  0
  2  4  1  0
  5  6  2  3
  5  9  1  0
  5 10  1  0
  6  7  1  0
M  RAD  2   1   2   7   2
M  END
>  <reaction>  (14) 
rmg_rxn_606

>  <mol_properties>  (14) 
{"0": {"label": "*1", "atom_type": "N3s"}, "1": {"label": "*0", "atom_type": "N3s"}, "4": {"label": "*3", "atom_type": "Cd"}, "5": {"label": "*4", "atom_type": "N3d"}, "7": {"label": "*2", "atom_type": "H0"}}

>  <type>  (14) 
unop_10

>  <geom_source>  (14) 
Heuristics

$$$$

     RDKit          3D

 10  8  0  0  0  0  0  0  0  0999 V2000
   -1.1320    0.3240    1.3826 N   0  0  0  0  0  2  0  0  0  0  0  0
   -1.5088    1.6109    1.3807 N   0  0  0  0  0  0  0  0  0  0  0  0
   -2.1398    1.8533    2.1261 H   0  0  0  0  0  0  0  0  0  0  0  0
   -1.6639    2.1035    0.5125 H   0  0  0  0  0  0  0  0  0  0  0  0
    0.9105    0.1859   -0.1117 C   0  0  0  0  0  0  0  0  0  0  0  0
    0.9105   -1.1599   -0.7085 N   0  0  0  0  0  0  0  0  0  0  0  0
    0.9105   -1.1599   -1.9016 O   0  0  0  0  0  1  0  0  0  0  0  0
   -0.1456    0.2573    0.6609 H   0  0  0  0  0  0  0  0  0  0  0  0
    0.9105    0.9664   -0.8734 H   0  0  0  0  0  0  0  0  0  0  0  0
    1.7905    0.2454    0.5322 H   0  0  0  0  0  0  0  0  0  0  0  0
  1  2  1  0
  1  8  1  0
  2  3  1  0
  2  4  1  0
  5  6  2  3
  5  9  1  0
  5 10  1  0
  6  7  1  0
M  RAD  2   1   2   7   2
M  END
>  <reaction>  (15) 
rmg_rxn_606

>  <mol_properties>  (15) 
{"0": {"label": "*1", "atom_type": "N3s"}, "1": {"label": "*0", "atom_type": "N3s"}, "4": {"label": "*3", "atom_type": "Cd"}, "5": {"label": "*4", "atom_type": "N3d"}, "7": {"label": "*2", "atom_type": "H0"}}

>  <type>  (15) 
unop_11

>  <geom_source>  (15) 
Heuristics

$$$$

     RDKit          3D

 10  8  0  0  0  0  0  0  0  0999 V2000
   -1.0892    0.8753    1.3954 N   0  0  0  0  0  2  0  0  0  0  0  0
   -1.7028   -0.3131    1.2988 N   0  0  0  0  0  0  0  0  0  0  0  0
   -2.4242   -0.4578    1.9851 H   0  0  0  0  0  0  0  0  0  0  0  0
   -1.1871   -1.1422    1.0398 H   0  0  0  0  0  0  0  0  0  0  0  0
    0.9532    0.7372   -0.0988 C   0  0  0  0  0  0  0  0  0  0  0  0
    0.9532   -0.6085   -0.6956 N   0  0  0  0  0  0  0  0  0  0  0  0
    0.9532   -0.6085   -1.8887 O   0  0  0  0  0  1  0  0  0  0  0  0
   -0.1028    0.8086    0.6738 H   0  0  0  0  0  0  0  0  0  0  0  0
    0.9532    1.5177   -0.8606 H   0  0  0  0  0  0  0  0  0  0  0  0
    1.8332    0.7967    0.5450 H   0  0  0  0  0  0  0  0  0  0  0  0
  1  2  1  0
  1  8  1  0
  2  3  1  0
  2  4  1  0
  5  6  2  3
  5  9  1  0
  5 10  1  0
  6  7  1  0
M  RAD  2   1   2   7   2
M  END
>  <reaction>  (16) 
rmg_rxn_606

>  <mol_properties>  (16) 
{"0": {"label": "*1", "atom_type": "N3s"}, "1": {"label": "*0", "atom_type": "N3s"}, "4": {"label": "*3", "atom_type": "Cd"}, "5": {"label": "*4", "atom_type": "N3d"}, "7": {"label": "*2", "atom_type": "H0"}}

>  <type>  (16) 
unop_12

>  <geom_source>  (16) 
Heuristics

$$$$

     RDKit          3D

 10  8  0  0  0  0  0  0  0  0999 V2000
   -1.1783    0.8852    1.2769 N   0  0  0  0  0  2  0  0  0  0  0  0
   -1.4022   -0.3611    1.7183 N   0  0  0  0  0  0  0  0  0  0  0  0
   -1.8111   -0.4023    2.6367 H   0  0  0  0  0  0  0  0  0  0  0  0
   -0.7590   -1.1097    1.5029 H   0  0  0  0  0  0  0  0  0  0  0  0
    0.8641    0.7471   -0.2174 C   0  0  0  0  0  0  0  0  0  0  0  0
    0.8641   -0.5986   -0.8142 N   0  0  0  0  0  0  0  0  0  0  0  0
    0.8641   -0.5986   -2.0073 O   0  0  0  0  0  1  0  0  0  0  0  0
   -0.1919    0.8185    0.5552 H   0  0  0  0  0  0  0  0  0  0  0  0
    0.8641    1.5276   -0.9791 H   0  0  0  0  0  0  0  0  0  0  0  0
    1.7441    0.8066    0.4264 H   0  0  0  0  0  0  0  0  0  0  0  0
  1  2  1  0
  1  8  1  0
  2  3  1  0
  2  4  1  0
  5  6  2  3
  5  9  1  0
  5 10  1  0
  6  7  1  0
M  RAD  2   1   2   7   2
M  END
>  <reaction>  (17) 
rmg_rxn_606

>  <mol_properties>  (17) 
{"0": {"label": "*1", "atom_type": "N3s"}, "1": {"label": "*0", "atom_type": "N3s"}, "4": {"label": "*3", "atom_type": "Cd"}, "5": {"label": "*4", "atom_type": "N3d"}, "7": {"label": "*2", "atom_type": "H0"}}

>  <type>  (17) 
unop_13

>  <geom_source>  (17) 
gaussian_log

$$$$
