
     RDKit          3D

 12 11  0  0  0  0  0  0  0  0999 V2000
    1.8075    0.1979    0.4695 C   0  0  0  0  0  0  0  0  0  0  0  0
    1.0072   -0.8859   -0.7259 S   0  0  0  0  0  0  0  0  0  0  0  0
   -0.7258   -0.6904   -0.2447 C   0  0  0  0  0  0  0  0  0  0  0  0
   -1.0856   -1.2776    1.1108 C   0  0  0  0  0  0  0  0  0  0  0  0
    1.7126   -0.1777    1.4878 H   0  0  0  0  0  0  0  0  0  0  0  0
    1.4024    1.2089    0.4095 H   0  0  0  0  0  0  0  0  0  0  0  0
    2.8647    0.2298    0.2095 H   0  0  0  0  0  0  0  0  0  0  0  0
   -1.2866   -1.1892   -1.0369 H   0  0  0  0  0  0  0  0  0  0  0  0
   -0.9814    0.3707   -0.2917 H   0  0  0  0  0  0  0  0  0  0  0  0
   -0.5492   -0.7768    1.9180 H   0  0  0  0  0  0  0  0  0  0  0  0
   -0.8418   -2.3397    1.1503 H   0  0  0  0  0  0  0  0  0  0  0  0
   -2.1545   -1.1604    1.3035 H   0  0  0  0  0  0  0  0  0  0  0  0
  1  2  1  0
  1  5  1  0
  1  6  1  0
  1  7  1  0
  2  3  1  0
  3  4  1  0
  3  8  1  0
  3  9  1  0
  4 10  1  0
  4 11  1  0
  4 12  1  0
M  END
>  <reaction>  (1) 
rmg_rxn_519

>  <mol_properties>  (1) 
{"0": {"label": "donator", "atom_type": "Cs"}, "4": {"label": "d_hydrogen", "atom_type": "H0"}}

>  <type>  (1) 
r1h

$$$$

     RDKit          3D

 13 12  0  0  0  0  0  0  0  0999 V2000
    1.9060    0.2628    0.3980 C   0  0  0  0  0  0  0  0  0  0  0  0
    0.6330   -0.4250    0.0685 C   0  0  0  0  0  3  0  0  0  0  0  0
   -0.2610   -0.9325    1.1416 C   0  0  0  0  0  0  0  0  0  0  0  0
   -1.4364   -1.7546    0.6268 C   0  0  0  0  0  0  0  0  0  0  0  0
    2.4899   -0.3070    1.1292 H   0  0  0  0  0  0  0  0  0  0  0  0
    1.7297    1.2496    0.8515 H   0  0  0  0  0  0  0  0  0  0  0  0
    2.5269    0.4197   -0.4845 H   0  0  0  0  0  0  0  0  0  0  0  0
    0.2597   -0.3936   -0.9489 H   0  0  0  0  0  0  0  0  0  0  0  0
   -0.6439   -0.0868    1.7356 H   0  0  0  0  0  0  0  0  0  0  0  0
    0.3260   -1.5277    1.8536 H   0  0  0  0  0  0  0  0  0  0  0  0
   -1.0872   -2.6320    0.0792 H   0  0  0  0  0  0  0  0  0  0  0  0
   -2.0701   -2.0976    1.4459 H   0  0  0  0  0  0  0  0  0  0  0  0
   -2.0561   -1.1637   -0.0512 H   0  0  0  0  0  0  0  0  0  0  0  0
  1  2  1  0
  1  5  1  0
  1  6  1  0
  1  7  1  0
  2  3  1  0
  2  8  1  0
  3  4  1  0
  3  9  1  0
  3 10  1  0
  4 11  1  0
  4 12  1  0
  4 13  1  0
M  RAD  1   2   2
M  END
>  <reaction>  (2) 
rmg_rxn_519

>  <mol_properties>  (2) 
{"1": {"label": "acceptor", "atom_type": "Cs"}}

>  <type>  (2) 
r2

$$$$

     RDKit          3D

 14 13  0  0  0  0  0  0  0  0999 V2000
    1.8106   -0.5953    0.5577 C   0  0  0  0  0  0  0  0  0  0  0  0
    0.5197    0.2064    0.6554 C   0  0  0  0  0  0  0  0  0  0  0  0
   -0.5206   -0.2080   -0.3788 C   0  0  0  0  0  0  0  0  0  0  0  0
   -1.8114    0.5937   -0.2812 C   0  0  0  0  0  0  0  0  0  0  0  0
    2.2725   -0.4752   -0.4251 H   0  0  0  0  0  0  0  0  0  0  0  0
    1.6214   -1.6612    0.7052 H   0  0  0  0  0  0  0  0  0  0  0  0
    2.5364   -0.2784    1.3084 H   0  0  0  0  0  0  0  0  0  0  0  0
    0.0930    0.0950    1.6574 H   0  0  0  0  0  0  0  0  0  0  0  0
    0.7393    1.2723    0.5354 H   0  0  0  0  0  0  0  0  0  0  0  0
   -0.7402   -1.2739   -0.2588 H   0  0  0  0  0  0  0  0  0  0  0  0
   -0.0938   -0.0965   -1.3808 H   0  0  0  0  0  0  0  0  0  0  0  0
   -1.6222    1.6596   -0.4287 H   0  0  0  0  0  0  0  0  0  0  0  0
   -2.2734    0.4736    0.7017 H   0  0  0  0  0  0  0  0  0  0  0  0
   -2.5373    0.2768   -1.0318 H   0  0  0  0  0  0  0  0  0  0  0  0
  1  2  1  0
  1  5  1  0
  1  6  1  0
  1  7  1  0
  2  3  1  0
  2  8  1  0
  2  9  1  0
  3  4  1  0
  3 10  1  0
  3 11  1  0
  4 12  1  0
  4 13  1  0
  4 14  1  0
M  END
>  <reaction>  (3) 
rmg_rxn_519

>  <mol_properties>  (3) 
{"0": {"label": "a_hydrogen", "atom_type": "H0"}, "2": {"label": "acceptor", "atom_type": "Cs"}}

>  <type>  (3) 
r2h

$$$$

     RDKit          3D

 25 23  0  0  0  0  0  0  0  0999 V2000
    0.7818    0.4394    1.2892 C   0  0  0  0  0  0  0  0  0  0  0  0
   -0.7806   -0.1597    1.8510 S   0  0  0  0  0  0  0  0  0  0  0  0
   -0.6679   -1.9110    1.4178 C   0  0  0  0  0  0  0  0  0  0  0  0
   -0.6244   -2.1961   -0.0733 C   0  0  0  0  0  0  0  0  0  0  0  0
    0.8587    0.6718   -0.0270 H   0  0  0  0  0  0  0  0  0  0  0  0
    1.6080   -0.2392    1.5039 H   0  0  0  0  0  0  0  0  0  0  0  0
    0.9611    1.4272    1.7089 H   0  0  0  0  0  0  0  0  0  0  0  0
   -1.5511   -2.3632    1.8718 H   0  0  0  0  0  0  0  0  0  0  0  0
    0.2054   -2.3315    1.9213 H   0  0  0  0  0  0  0  0  0  0  0  0
    0.2612   -1.7520   -0.5283 H   0  0  0  0  0  0  0  0  0  0  0  0
   -1.5029   -1.7869   -0.5734 H   0  0  0  0  0  0  0  0  0  0  0  0
   -0.5916   -3.2727   -0.2545 H   0  0  0  0  0  0  0  0  0  0  0  0
    2.2632    0.1276   -1.7615 C   0  0  0  0  0  0  0  0  0  0  0  0
    1.1360    1.0248   -1.3246 C   0  0  0  0  0  3  0  0  0  0  0  0
   -0.1469    0.9226   -2.1083 C   0  0  0  0  0  0  0  0  0  0  0  0
   -1.2579    1.8148   -1.5693 C   0  0  0  0  0  0  0  0  0  0  0  0
    2.6159    0.3922   -2.7648 H   0  0  0  0  0  0  0  0  0  0  0  0
    1.9480   -0.9186   -1.7995 H   0  0  0  0  0  0  0  0  0  0  0  0
    3.1175    0.1971   -1.0853 H   0  0  0  0  0  0  0  0  0  0  0  0
    1.4526    2.0600   -1.1780 H   0  0  0  0  0  0  0  0  0  0  0  0
   -0.4827   -0.1189   -2.1216 H   0  0  0  0  0  0  0  0  0  0  0  0
    0.0556    1.1816   -3.1570 H   0  0  0  0  0  0  0  0  0  0  0  0
   -0.9448    2.8616   -1.5577 H   0  0  0  0  0  0  0  0  0  0  0  0
   -2.1568    1.7424   -2.1836 H   0  0  0  0  0  0  0  0  0  0  0  0
   -1.5226    1.5305   -0.5492 H   0  0  0  0  0  0  0  0  0  0  0  0
  1  2  1  0
  1  5  1  0
  1  6  1  0
  1  7  1  0
  2  3  1  0
  3  4  1  0
  3  8  1  0
  3  9  1  0
  4 10  1  0
  4 11  1  0
  4 12  1  0
 13 14  1  0
 13 17  1  0
 13 18  1  0
 13 19  1  0
 14 15  1  0
 14 20  1  0
 15 16  1  0
 15 21  1  0
 15 22  1  0
 16 23  1  0
 16 24  1  0
 16 25  1  0
M  RAD  1  14   2
M  END
>  <reaction>  (4) 
rmg_rxn_519

>  <mol_properties>  (4) 
{"0": {"label": "*1", "atom_type": "Cs"}, "1": {"label": "*0", "atom_type": "S2s"}, "4": {"label": "*2", "atom_type": "H0"}, "13": {"label": "*3", "atom_type": "Cs"}, "14": {"label": "*4", "atom_type": "Cs"}}

>  <type>  (4) 
ts

$$$$

     RDKit          3D

 25 23  0  0  0  0  0  0  0  0999 V2000
    0.5661    0.1582    1.3104 C   0  0  0  0  0  0  0  0  0  0  0  0
   -1.0770   -0.4206    1.7682 S   0  0  0  0  0  0  0  0  0  0  0  0
   -1.0770   -2.0608    1.0046 C   0  0  0  0  0  0  0  0  0  0  0  0
   -1.0770   -2.0608   -0.5158 C   0  0  0  0  0  0  0  0  0  0  0  0
    0.6809    0.3339    0.0200 H   0  0  0  0  0  0  0  0  0  0  0  0
    1.3331   -0.5348    1.6585 H   0  0  0  0  0  0  0  0  0  0  0  0
    0.7125    1.1176    1.8048 H   0  0  0  0  0  0  0  0  0  0  0  0
   -1.9811   -2.5387    1.3855 H   0  0  0  0  0  0  0  0  0  0  0  0
   -0.2278   -2.6256    1.3958 H   0  0  0  0  0  0  0  0  0  0  0  0
   -0.1700   -1.6046   -0.9151 H   0  0  0  0  0  0  0  0  0  0  0  0
   -1.9330   -1.5075   -0.9035 H   0  0  0  0  0  0  0  0  0  0  0  0
   -1.1255   -3.0840   -0.8953 H   0  0  0  0  0  0  0  0  0  0  0  0
    0.2362   -0.2109   -2.4951 C   0  0  0  0  0  0  0  0  0  0  0  0
    0.7963    0.5104   -1.2767 C   0  0  0  0  0  3  0  0  0  0  0  0
    1.1423    1.9690   -1.5527 C   0  0  0  0  0  0  0  0  0  0  0  0
    1.7024    2.6903   -0.3343 C   0  0  0  0  0  0  0  0  0  0  0  0
    0.9543   -0.2038   -3.3186 H   0  0  0  0  0  0  0  0  0  0  0  0
   -0.6774    0.2719   -2.8501 H   0  0  0  0  0  0  0  0  0  0  0  0
   -0.0025   -1.2516   -2.2697 H   0  0  0  0  0  0  0  0  0  0  0  0
    1.6921   -0.0093   -0.9218 H   0  0  0  0  0  0  0  0  0  0  0  0
    0.2465    2.4888   -1.9076 H   0  0  0  0  0  0  0  0  0  0  0  0
    1.8662    2.0166   -2.3727 H   0  0  0  0  0  0  0  0  0  0  0  0
    2.6160    2.2075    0.0207 H   0  0  0  0  0  0  0  0  0  0  0  0
    1.9411    3.7310   -0.5597 H   0  0  0  0  0  0  0  0  0  0  0  0
    0.9843    2.6832    0.4891 H   0  0  0  0  0  0  0  0  0  0  0  0
  1  2  1  0
  1  5  1  0
  1  6  1  0
  1  7  1  0
  2  3  1  0
  3  4  1  0
  3  8  1  0
  3  9  1  0
  4 10  1  0
  4 11  1  0
  4 12  1  0
 13 14  1  0
 13 17  1  0
 13 18  1  0
 13 19  1  0
 14 15  1  0
 14 20  1  0
 15 16  1  0
 15 21  1  0
 15 22  1  0
 16 23  1  0
 16 24  1  0
 16 25  1  0
M  RAD  1  14   2
M  END
>  <reaction>  (5) 
rmg_rxn_519

>  <mol_properties>  (5) 
{"0": {"label": "*1", "atom_type": "Cs"}, "1": {"label": "*0", "atom_type": "S2s"}, "4": {"label": "*2", "atom_type": "H0"}, "13": {"label": "*3", "atom_type": "Cs"}, "14": {"label": "*4", "atom_type": "Cs"}}

>  <type>  (5) 
unop_1

>  <geom_source>  (5) 
Heuristics

$$$$

     RDKit          3D

 25 23  0  0  0  0  0  0  0  0999 V2000
    0.9424    0.3895    1.3767 C   0  0  0  0  0  0  0  0  0  0  0  0
   -0.7007   -0.1893    1.8345 S   0  0  0  0  0  0  0  0  0  0  0  0
   -0.7007   -1.8295    1.0708 C   0  0  0  0  0  0  0  0  0  0  0  0
   -0.7007   -1.8295   -0.4495 C   0  0  0  0  0  0  0  0  0  0  0  0
    1.0572    0.5652    0.0863 H   0  0  0  0  0  0  0  0  0  0  0  0
    1.7094   -0.3035    1.7248 H   0  0  0  0  0  0  0  0  0  0  0  0
    1.0889    1.3489    1.8710 H   0  0  0  0  0  0  0  0  0  0  0  0
   -1.6047   -2.3074    1.4518 H   0  0  0  0  0  0  0  0  0  0  0  0
    0.1485   -2.3943    1.4621 H   0  0  0  0  0  0  0  0  0  0  0  0
    0.2063   -1.3733   -0.8488 H   0  0  0  0  0  0  0  0  0  0  0  0
   -1.5567   -1.2762   -0.8372 H   0  0  0  0  0  0  0  0  0  0  0  0
   -0.7491   -2.8527   -0.8291 H   0  0  0  0  0  0  0  0  0  0  0  0
    1.9508   -0.2124   -2.1065 C   0  0  0  0  0  0  0  0  0  0  0  0
    1.1726    0.7417   -1.2104 C   0  0  0  0  0  3  0  0  0  0  0  0
   -0.1862    1.1260   -1.7844 C   0  0  0  0  0  0  0  0  0  0  0  0
   -0.9643    2.0800   -0.8884 C   0  0  0  0  0  0  0  0  0  0  0  0
    2.1333    0.2331   -3.0873 H   0  0  0  0  0  0  0  0  0  0  0  0
    1.3969   -1.1409   -2.2639 H   0  0  0  0  0  0  0  0  0  0  0  0
    2.9180   -0.4705   -1.6722 H   0  0  0  0  0  0  0  0  0  0  0  0
    1.7606    1.6499   -1.0427 H   0  0  0  0  0  0  0  0  0  0  0  0
   -0.7741    0.2178   -1.9521 H   0  0  0  0  0  0  0  0  0  0  0  0
   -0.0431    1.5817   -2.7696 H   0  0  0  0  0  0  0  0  0  0  0  0
   -0.4104    3.0086   -0.7310 H   0  0  0  0  0  0  0  0  0  0  0  0
   -1.9315    2.3381   -1.3227 H   0  0  0  0  0  0  0  0  0  0  0  0
   -1.1468    1.6346    0.0925 H   0  0  0  0  0  0  0  0  0  0  0  0
  1  2  1  0
  1  5  1  0
  1  6  1  0
  1  7  1  0
  2  3  1  0
  3  4  1  0
  3  8  1  0
  3  9  1  0
  4 10  1  0
  4 11  1  0
  4 12  1  0
 13 14  1  0
 13 17  1  0
 13 18  1  0
 13 19  1  0
 14 15  1  0
 14 20  1  0
 15 16  1  0
 15 21  1  0
 15 22  1  0
 16 23  1  0
 16 24  1  0
 16 25  1  0
M  RAD  1  14   2
M  END
>  <reaction>  (6) 
rmg_rxn_519

>  <mol_properties>  (6) 
{"0": {"label": "*1", "atom_type": "Cs"}, "1": {"label": "*0", "atom_type": "S2s"}, "4": {"label": "*2", "atom_type": "H0"}, "13": {"label": "*3", "atom_type": "Cs"}, "14": {"label": "*4", "atom_type": "Cs"}}

>  <type>  (6) 
unop_2

>  <geom_source>  (6) 
Heuristics

$$$$

     RDKit          3D

 25 23  0  0  0  0  0  0  0  0999 V2000
    0.4239    0.2351    1.3091 C   0  0  0  0  0  0  0  0  0  0  0  0
   -1.2193   -0.3438    1.7668 S   0  0  0  0  0  0  0  0  0  0  0  0
   -1.2193   -1.9839    1.0032 C   0  0  0  0  0  0  0  0  0  0  0  0
   -1.2193   -1.9839   -0.5172 C   0  0  0  0  0  0  0  0  0  0  0  0
    0.5387    0.4107    0.0186 H   0  0  0  0  0  0  0  0  0  0  0  0
    1.1909   -0.4580    1.6572 H   0  0  0  0  0  0  0  0  0  0  0  0
    0.5703    1.1945    1.8034 H   0  0  0  0  0  0  0  0  0  0  0  0
   -2.1233   -2.4619    1.3841 H   0  0  0  0  0  0  0  0  0  0  0  0
   -0.3700   -2.5488    1.3944 H   0  0  0  0  0  0  0  0  0  0  0  0
   -0.3123   -1.5277   -0.9165 H   0  0  0  0  0  0  0  0  0  0  0  0
   -2.0752   -1.4307   -0.9049 H   0  0  0  0  0  0  0  0  0  0  0  0
   -1.2677   -3.0071   -0.8967 H   0  0  0  0  0  0  0  0  0  0  0  0
   -0.4248    0.4920   -2.3483 C   0  0  0  0  0  0  0  0  0  0  0  0
    0.6541    0.5873   -1.2781 C   0  0  0  0  0  3  0  0  0  0  0  0
    1.6609    1.7008   -1.5423 C   0  0  0  0  0  0  0  0  0  0  0  0
    2.7399    1.7961   -0.4720 C   0  0  0  0  0  0  0  0  0  0  0  0
    0.0138    0.2990   -3.3302 H   0  0  0  0  0  0  0  0  0  0  0  0
   -0.9909    1.4240   -2.4174 H   0  0  0  0  0  0  0  0  0  0  0  0
   -1.1309   -0.3120   -2.1346 H   0  0  0  0  0  0  0  0  0  0  0  0
    1.1859   -0.3670   -1.2067 H   0  0  0  0  0  0  0  0  0  0  0  0
    1.1291    2.6551   -1.6137 H   0  0  0  0  0  0  0  0  0  0  0  0
    2.1265    1.5384   -2.5198 H   0  0  0  0  0  0  0  0  0  0  0  0
    3.3059    0.8641   -0.4029 H   0  0  0  0  0  0  0  0  0  0  0  0
    3.4460    2.6001   -0.6858 H   0  0  0  0  0  0  0  0  0  0  0  0
    2.3012    1.9891    0.5099 H   0  0  0  0  0  0  0  0  0  0  0  0
  1  2  1  0
  1  5  1  0
  1  6  1  0
  1  7  1  0
  2  3  1  0
  3  4  1  0
  3  8  1  0
  3  9  1  0
  4 10  1  0
  4 11  1  0
  4 12  1  0
 13 14  1  0
 13 17  1  0
 13 18  1  0
 13 19  1  0
 14 15  1  0
 14 20  1  0
 15 16  1  0
 15 21  1  0
 15 22  1  0
 16 23  1  0
 16 24  1  0
 16 25  1  0
M  RAD  1  14   2
M  END
>  <reaction>  (7) 
rmg_rxn_519

>  <mol_properties>  (7) 
{"0": {"label": "*1", "atom_type": "Cs"}, "1": {"label": "*0", "atom_type": "S2s"}, "4": {"label": "*2", "atom_type": "H0"}, "13": {"label": "*3", "atom_type": "Cs"}, "14": {"label": "*4", "atom_type": "Cs"}}

>  <type>  (7) 
unop_3

>  <geom_source>  (7) 
Heuristics

$$$$

     RDKit          3D

 25 22  0  0  0  0  0  0  0  0999 V2000
    0.6989    0.7661    1.4056 C   0  0  0  0  0  0  0  0  0  0  0  0
   -0.9443    0.1872    1.8633 S   0  0  0  0  0  0  0  0  0  0  0  0
   -0.9443   -1.4529    1.0997 C   0  0  0  0  0  3  0  0  0  0  0  0
   -0.9443   -1.4529   -0.4207 C   0  0  0  0  0  3  0  0  0  0  0  0
    0.8137    0.9417    0.1151 H   0  0  0  0  0  0  0  0  0  0  0  0
    1.4659    0.0730    1.7536 H   0  0  0  0  0  0  0  0  0  0  0  0
    0.8453    1.7255    1.8999 H   0  0  0  0  0  0  0  0  0  0  0  0
   -1.8483   -1.9309    1.4806 H   0  0  0  0  0  0  0  0  0  0  0  0
   -0.0950   -2.0178    1.4909 H   0  0  0  0  0  0  0  0  0  0  0  0
   -0.0373   -0.9967   -0.8200 H   0  0  0  0  0  0  0  0  0  0  0  0
   -1.8002   -0.8997   -0.8084 H   0  0  0  0  0  0  0  0  0  0  0  0
   -0.9927   -2.4761   -0.8002 H   0  0  0  0  0  0  0  0  0  0  0  0
    2.3965    1.3347   -0.8375 C   0  0  0  0  0  0  0  0  0  0  0  0
    0.9291    1.1183   -1.1816 C   0  0  0  0  0  3  0  0  0  0  0  0
    0.6707   -0.2063   -1.8903 C   0  0  0  0  0  0  0  0  0  0  0  0
   -0.7967   -0.4227   -2.2344 C   0  0  0  0  0  0  0  0  0  0  0  0
    3.0147    1.3291   -1.7384 H   0  0  0  0  0  0  0  0  0  0  0  0
    2.7650    0.5439   -0.1798 H   0  0  0  0  0  0  0  0  0  0  0  0
    2.5527    2.2889   -0.3318 H   0  0  0  0  0  0  0  0  0  0  0  0
    0.5755    1.9383   -1.8149 H   0  0  0  0  0  0  0  0  0  0  0  0
    1.0243   -1.0264   -1.2570 H   0  0  0  0  0  0  0  0  0  0  0  0
    1.2722   -0.2470   -2.8042 H   0  0  0  0  0  0  0  0  0  0  0  0
   -1.1652    0.3681   -2.8921 H   0  0  0  0  0  0  0  0  0  0  0  0
   -0.9529   -1.3770   -2.7401 H   0  0  0  0  0  0  0  0  0  0  0  0
   -1.4149   -0.4171   -1.3335 H   0  0  0  0  0  0  0  0  0  0  0  0
  1  2  1  0
  1  5  1  0
  1  6  1  0
  1  7  1  0
  2  3  1  0
  3  8  1  0
  3  9  1  0
  4 10  1  0
  4 11  1  0
  4 12  1  0
 13 14  1  0
 13 17  1  0
 13 18  1  0
 13 19  1  0
 14 15  1  0
 14 20  1  0
 15 16  1  0
 15 21  1  0
 15 22  1  0
 16 23  1  0
 16 24  1  0
 16 25  1  0
M  RAD  3   3   2   4   2  14   2
M  END
>  <reaction>  (8) 
rmg_rxn_519

>  <mol_properties>  (8) 
{"0": {"label": "*1", "atom_type": "Cs"}, "1": {"label": "*0", "atom_type": "S2s"}, "4": {"label": "*2", "atom_type": "H0"}, "13": {"label": "*3", "atom_type": "Cs"}, "14": {"label": "*4", "atom_type": "Cs"}}

>  <type>  (8) 
unop_4

>  <geom_source>  (8) 
Heuristics

$$$$

     RDKit          3D

 25 23  0  0  0  0  0  0  0  0999 V2000
    0.3388    0.3692    1.3206 C   0  0  0  0  0  0  0  0  0  0  0  0
   -1.3043   -0.2096    1.7784 S   0  0  0  0  0  0  0  0  0  0  0  0
   -1.3043   -1.8498    1.0147 C   0  0  0  0  0  0  0  0  0  0  0  0
   -1.3043   -1.8498   -0.5056 C   0  0  0  0  0  0  0  0  0  0  0  0
    0.4536    0.5449    0.0302 H   0  0  0  0  0  0  0  0  0  0  0  0
    1.1058   -0.3238    1.6687 H   0  0  0  0  0  0  0  0  0  0  0  0
    0.4853    1.3286    1.8149 H   0  0  0  0  0  0  0  0  0  0  0  0
   -2.2084   -2.3277    1.3957 H   0  0  0  0  0  0  0  0  0  0  0  0
   -0.4551   -2.4146    1.4060 H   0  0  0  0  0  0  0  0  0  0  0  0
   -0.3973   -1.3936   -0.9049 H   0  0  0  0  0  0  0  0  0  0  0  0
   -2.1603   -1.2965   -0.8934 H   0  0  0  0  0  0  0  0  0  0  0  0
   -1.3528   -2.8730   -0.8852 H   0  0  0  0  0  0  0  0  0  0  0  0
   -0.5143    1.6756   -1.7506 C   0  0  0  0  0  0  0  0  0  0  0  0
    0.5690    0.7214   -1.2665 C   0  0  0  0  0  3  0  0  0  0  0  0
    1.9786    1.2095   -1.5800 C   0  0  0  0  0  0  0  0  0  0  0  0
    3.0620    0.2552   -1.0959 C   0  0  0  0  0  0  0  0  0  0  0  0
   -0.4583    1.8147   -2.8329 H   0  0  0  0  0  0  0  0  0  0  0  0
   -0.4064    2.6585   -1.2858 H   0  0  0  0  0  0  0  0  0  0  0  0
   -1.5119    1.3023   -1.5135 H   0  0  0  0  0  0  0  0  0  0  0  0
    0.4213   -0.2633   -1.7217 H   0  0  0  0  0  0  0  0  0  0  0  0
    2.1263    2.1941   -1.1249 H   0  0  0  0  0  0  0  0  0  0  0  0
    2.0748    1.3566   -2.6606 H   0  0  0  0  0  0  0  0  0  0  0  0
    2.9541   -0.7277   -1.5608 H   0  0  0  0  0  0  0  0  0  0  0  0
    4.0595    0.6286   -1.3331 H   0  0  0  0  0  0  0  0  0  0  0  0
    3.0060    0.1161   -0.0137 H   0  0  0  0  0  0  0  0  0  0  0  0
  1  2  1  0
  1  5  1  0
  1  6  1  0
  1  7  1  0
  2  3  1  0
  3  4  1  0
  3  8  1  0
  3  9  1  0
  4 10  1  0
  4 11  1  0
  4 12  1  0
 13 14  1  0
 13 17  1  0
 13 18  1  0
 13 19  1  0
 14 15  1  0
 14 20  1  0
 15 16  1  0
 15 21  1  0
 15 22  1  0
 16 23  1  0
 16 24  1  0
 16 25  1  0
M  RAD  1  14   2
M  END
>  <reaction>  (9) 
rmg_rxn_519

>  <mol_properties>  (9) 
{"0": {"label": "*1", "atom_type": "Cs"}, "1": {"label": "*0", "atom_type": "S2s"}, "4": {"label": "*2", "atom_type": "H0"}, "13": {"label": "*3", "atom_type": "Cs"}, "14": {"label": "*4", "atom_type": "Cs"}}

>  <type>  (9) 
unop_5

>  <geom_source>  (9) 
Heuristics

$$$$

     RDKit          3D

 25 22  0  0  0  0  0  0  0  0999 V2000
    0.5362    0.7579    1.3894 C   0  0  0  0  0  0  0  0  0  0  0  0
   -1.1070    0.1791    1.8472 S   0  0  0  0  0  0  0  0  0  0  0  0
   -1.1070   -1.4610    1.0836 C   0  0  0  0  0  3  0  0  0  0  0  0
   -1.1070   -1.4610   -0.4368 C   0  0  0  0  0  3  0  0  0  0  0  0
    0.6510    0.9336    0.0990 H   0  0  0  0  0  0  0  0  0  0  0  0
    1.3032    0.0649    1.7375 H   0  0  0  0  0  0  0  0  0  0  0  0
    0.6826    1.7173    1.8838 H   0  0  0  0  0  0  0  0  0  0  0  0
   -2.0110   -1.9390    1.4645 H   0  0  0  0  0  0  0  0  0  0  0  0
   -0.2577   -2.0259    1.4748 H   0  0  0  0  0  0  0  0  0  0  0  0
   -0.2000   -1.0049   -0.8361 H   0  0  0  0  0  0  0  0  0  0  0  0
   -1.9629   -0.9078   -0.8245 H   0  0  0  0  0  0  0  0  0  0  0  0
   -1.1554   -2.4843   -0.8163 H   0  0  0  0  0  0  0  0  0  0  0  0
    1.8994    1.9541   -0.6297 C   0  0  0  0  0  0  0  0  0  0  0  0
    0.7664    1.1101   -1.1977 C   0  0  0  0  0  3  0  0  0  0  0  0
    1.2498   -0.1867   -1.8366 C   0  0  0  0  0  0  0  0  0  0  0  0
    0.1168   -1.0306   -2.4046 C   0  0  0  0  0  0  0  0  0  0  0  0
    2.6118    2.2297   -1.4109 H   0  0  0  0  0  0  0  0  0  0  0  0
    2.4488    1.4053    0.1390 H   0  0  0  0  0  0  0  0  0  0  0  0
    1.5256    2.8750   -0.1792 H   0  0  0  0  0  0  0  0  0  0  0  0
    0.2128    1.6916   -1.9421 H   0  0  0  0  0  0  0  0  0  0  0  0
    1.8034   -0.7681   -1.0923 H   0  0  0  0  0  0  0  0  0  0  0  0
    1.9652    0.0502   -2.6308 H   0  0  0  0  0  0  0  0  0  0  0  0
   -0.4325   -0.4819   -3.1733 H   0  0  0  0  0  0  0  0  0  0  0  0
    0.4906   -1.9516   -2.8552 H   0  0  0  0  0  0  0  0  0  0  0  0
   -0.5955   -1.3062   -1.6234 H   0  0  0  0  0  0  0  0  0  0  0  0
  1  2  1  0
  1  5  1  0
  1  6  1  0
  1  7  1  0
  2  3  1  0
  3  8  1  0
  3  9  1  0
  4 10  1  0
  4 11  1  0
  4 12  1  0
 13 14  1  0
 13 17  1  0
 13 18  1  0
 13 19  1  0
 14 15  1  0
 14 20  1  0
 15 16  1  0
 15 21  1  0
 15 22  1  0
 16 23  1  0
 16 24  1  0
 16 25  1  0
M  RAD  3   3   2   4   2  14   2
M  END
>  <reaction>  (10) 
rmg_rxn_519

>  <mol_properties>  (10) 
{"0": {"label": "*1", "atom_type": "Cs"}, "1": {"label": "*0", "atom_type": "S2s"}, "4": {"label": "*2", "atom_type": "H0"}, "13": {"label": "*3", "atom_type": "Cs"}, "14": {"label": "*4", "atom_type": "Cs"}}

>  <type>  (10) 
unop_6

>  <geom_source>  (10) 
Heuristics

$$$$

     RDKit          3D

 25 23  0  0  0  0  0  0  0  0999 V2000
    0.4012    0.6698    1.3654 C   0  0  0  0  0  0  0  0  0  0  0  0
   -1.2420    0.0910    1.8232 S   0  0  0  0  0  0  0  0  0  0  0  0
   -1.2420   -1.5491    1.0596 C   0  0  0  0  0  0  0  0  0  0  0  0
   -1.2420   -1.5491   -0.4608 C   0  0  0  0  0  0  0  0  0  0  0  0
    0.5160    0.8455    0.0750 H   0  0  0  0  0  0  0  0  0  0  0  0
    1.1682   -0.0232    1.7135 H   0  0  0  0  0  0  0  0  0  0  0  0
    0.5476    1.6292    1.8598 H   0  0  0  0  0  0  0  0  0  0  0  0
   -2.1460   -2.0271    1.4405 H   0  0  0  0  0  0  0  0  0  0  0  0
   -0.3927   -2.1140    1.4508 H   0  0  0  0  0  0  0  0  0  0  0  0
   -0.3350   -1.0930   -0.8601 H   0  0  0  0  0  0  0  0  0  0  0  0
   -2.0979   -0.9959   -0.8485 H   0  0  0  0  0  0  0  0  0  0  0  0
   -1.2904   -2.5724   -0.8403 H   0  0  0  0  0  0  0  0  0  0  0  0
    1.1537    2.3315   -0.6463 C   0  0  0  0  0  0  0  0  0  0  0  0
    0.6314    1.0220   -1.2217 C   0  0  0  0  0  3  0  0  0  0  0  0
    1.7388    0.1185   -1.7515 C   0  0  0  0  0  0  0  0  0  0  0  0
    1.2165   -1.1910   -2.3270 C   0  0  0  0  0  0  0  0  0  0  0  0
    1.6966    2.9027   -1.4032 H   0  0  0  0  0  0  0  0  0  0  0  0
    1.8401    2.1480    0.1837 H   0  0  0  0  0  0  0  0  0  0  0  0
    0.3411    2.9580   -0.2749 H   0  0  0  0  0  0  0  0  0  0  0  0
   -0.0767    1.2324   -2.0298 H   0  0  0  0  0  0  0  0  0  0  0  0
    2.4469   -0.0919   -0.9435 H   0  0  0  0  0  0  0  0  0  0  0  0
    2.3044    0.6571   -2.5187 H   0  0  0  0  0  0  0  0  0  0  0  0
    0.5301   -1.0075   -3.1570 H   0  0  0  0  0  0  0  0  0  0  0  0
    2.0291   -1.8175   -2.6984 H   0  0  0  0  0  0  0  0  0  0  0  0
    0.6737   -1.7621   -1.5701 H   0  0  0  0  0  0  0  0  0  0  0  0
  1  2  1  0
  1  5  1  0
  1  6  1  0
  1  7  1  0
  2  3  1  0
  3  4  1  0
  3  8  1  0
  3  9  1  0
  4 10  1  0
  4 11  1  0
  4 12  1  0
 13 14  1  0
 13 17  1  0
 13 18  1  0
 13 19  1  0
 14 15  1  0
 14 20  1  0
 15 16  1  0
 15 21  1  0
 15 22  1  0
 16 23  1  0
 16 24  1  0
 16 25  1  0
M  RAD  1  14   2
M  END
>  <reaction>  (11) 
rmg_rxn_519

>  <mol_properties>  (11) 
{"0": {"label": "*1", "atom_type": "Cs"}, "1": {"label": "*0", "atom_type": "S2s"}, "4": {"label": "*2", "atom_type": "H0"}, "13": {"label": "*3", "atom_type": "Cs"}, "14": {"label": "*4", "atom_type": "Cs"}}

>  <type>  (11) 
unop_7

>  <geom_source>  (11) 
Heuristics

$$$$

     RDKit          3D

 25 23  0  0  0  0  0  0  0  0999 V2000
    0.7283    0.1618    1.3254 C   0  0  0  0  0  0  0  0  0  0  0  0
   -0.9148   -0.4171    1.7831 S   0  0  0  0  0  0  0  0  0  0  0  0
   -0.9148   -2.0572    1.0195 C   0  0  0  0  0  0  0  0  0  0  0  0
   -0.9148   -2.0572   -0.5009 C   0  0  0  0  0  0  0  0  0  0  0  0
    0.8432    0.3374    0.0349 H   0  0  0  0  0  0  0  0  0  0  0  0
    1.4953   -0.5313    1.6735 H   0  0  0  0  0  0  0  0  0  0  0  0
    0.8748    1.1211    1.8197 H   0  0  0  0  0  0  0  0  0  0  0  0
   -1.8188   -2.5352    1.4004 H   0  0  0  0  0  0  0  0  0  0  0  0
   -0.0655   -2.6221    1.4108 H   0  0  0  0  0  0  0  0  0  0  0  0
   -0.0078   -1.6010   -0.9002 H   0  0  0  0  0  0  0  0  0  0  0  0
   -1.7708   -1.5040   -0.8886 H   0  0  0  0  0  0  0  0  0  0  0  0
   -0.9632   -3.0804   -0.8804 H   0  0  0  0  0  0  0  0  0  0  0  0
    0.9254   -0.4213   -2.4630 C   0  0  0  0  0  0  0  0  0  0  0  0
    0.9586    0.5140   -1.2618 C   0  0  0  0  0  3  0  0  0  0  0  0
    0.5628    1.9448   -1.6076 C   0  0  0  0  0  0  0  0  0  0  0  0
    0.5959    2.8800   -0.4064 C   0  0  0  0  0  0  0  0  0  0  0  0
    1.6102   -0.0807   -3.2432 H   0  0  0  0  0  0  0  0  0  0  0  0
   -0.0758   -0.4637   -2.8984 H   0  0  0  0  0  0  0  0  0  0  0  0
    1.2126   -1.4373   -2.1874 H   0  0  0  0  0  0  0  0  0  0  0  0
    1.9625    0.5155   -0.8251 H   0  0  0  0  0  0  0  0  0  0  0  0
   -0.4412    1.9432   -2.0443 H   0  0  0  0  0  0  0  0  0  0  0  0
    1.2324    2.3234   -2.3865 H   0  0  0  0  0  0  0  0  0  0  0  0
    1.5971    2.9224    0.0290 H   0  0  0  0  0  0  0  0  0  0  0  0
    0.3087    3.8960   -0.6820 H   0  0  0  0  0  0  0  0  0  0  0  0
   -0.0889    2.5394    0.3738 H   0  0  0  0  0  0  0  0  0  0  0  0
  1  2  1  0
  1  5  1  0
  1  6  1  0
  1  7  1  0
  2  3  1  0
  3  4  1  0
  3  8  1  0
  3  9  1  0
  4 10  1  0
  4 11  1  0
  4 12  1  0
 13 14  1  0
 13 17  1  0
 13 18  1  0
 13 19  1  0
 14 15  1  0
 14 20  1  0
 15 16  1  0
 15 21  1  0
 15 22  1  0
 16 23  1  0
 16 24  1  0
 16 25  1  0
M  RAD  1  14   2
M  END
>  <reaction>  (12) 
rmg_rxn_519

>  <mol_properties>  (12) 
{"0": {"label": "*1", "atom_type": "Cs"}, "1": {"label": "*0", "atom_type": "S2s"}, "4": {"label": "*2", "atom_type": "H0"}, "13": {"label": "*3", "atom_type": "Cs"}, "14": {"label": "*4", "atom_type": "Cs"}}

>  <type>  (12) 
unop_8

>  <geom_source>  (12) 
Heuristics

$$$$

     RDKit          3D

 25 23  0  0  0  0  0  0  0  0999 V2000
    0.8452    0.6912    1.4091 C   0  0  0  0  0  0  0  0  0  0  0  0
   -0.7979    0.1123    1.8669 S   0  0  0  0  0  0  0  0  0  0  0  0
   -0.7979   -1.5278    1.1033 C   0  0  0  0  0  0  0  0  0  0  0  0
   -0.7979   -1.5278   -0.4171 C   0  0  0  0  0  0  0  0  0  0  0  0
    0.9600    0.8668    0.1187 H   0  0  0  0  0  0  0  0  0  0  0  0
    1.6122   -0.0019    1.7572 H   0  0  0  0  0  0  0  0  0  0  0  0
    0.9916    1.6505    1.9035 H   0  0  0  0  0  0  0  0  0  0  0  0
   -1.7020   -2.0058    1.4842 H   0  0  0  0  0  0  0  0  0  0  0  0
    0.0513   -2.0927    1.4945 H   0  0  0  0  0  0  0  0  0  0  0  0
    0.1090   -1.0716   -0.8164 H   0  0  0  0  0  0  0  0  0  0  0  0
   -1.6539   -0.9746   -0.8048 H   0  0  0  0  0  0  0  0  0  0  0  0
   -0.8464   -2.5510   -0.7966 H   0  0  0  0  0  0  0  0  0  0  0  0
    2.5415    0.6356   -1.2316 C   0  0  0  0  0  0  0  0  0  0  0  0
    1.0754    1.0433   -1.1780 C   0  0  0  0  0  3  0  0  0  0  0  0
    0.1562    0.0638   -1.8986 C   0  0  0  0  0  0  0  0  0  0  0  0
   -1.3099    0.4716   -1.8450 C   0  0  0  0  0  0  0  0  0  0  0  0
    2.8920    0.5700   -2.2644 H   0  0  0  0  0  0  0  0  0  0  0  0
    2.6928   -0.3428   -0.7692 H   0  0  0  0  0  0  0  0  0  0  0  0
    3.1760    1.3532   -0.7089 H   0  0  0  0  0  0  0  0  0  0  0  0
    0.9546    2.0383   -1.6185 H   0  0  0  0  0  0  0  0  0  0  0  0
    0.2770   -0.9311   -1.4581 H   0  0  0  0  0  0  0  0  0  0  0  0
    0.4749   -0.0250   -2.9422 H   0  0  0  0  0  0  0  0  0  0  0  0
   -1.4611    1.4500   -2.3074 H   0  0  0  0  0  0  0  0  0  0  0  0
   -1.9444   -0.2460   -2.3677 H   0  0  0  0  0  0  0  0  0  0  0  0
   -1.6604    0.5372   -0.8122 H   0  0  0  0  0  0  0  0  0  0  0  0
  1  2  1  0
  1  5  1  0
  1  6  1  0
  1  7  1  0
  2  3  1  0
  3  4  1  0
  3  8  1  0
  3  9  1  0
  4 10  1  0
  4 11  1  0
  4 12  1  0
 13 14  1  0
 13 17  1  0
 13 18  1  0
 13 19  1  0
 14 15  1  0
 14 20  1  0
 15 16  1  0
 15 21  1  0
 15 22  1  0
 16 23  1  0
 16 24  1  0
 16 25  1  0
M  RAD  1  14   2
M  END
>  <reaction>  (13) 
rmg_rxn_519

>  <mol_properties>  (13) 
{"0": {"label": "*1", "atom_type": "Cs"}, "1": {"label": "*0", "atom_type": "S2s"}, "4": {"label": "*2", "atom_type": "H0"}, "13": {"label": "*3", "atom_type": "Cs"}, "14": {"label": "*4", "atom_type": "Cs"}}

>  <type>  (13) 
unop_9

>  <geom_source>  (13) 
Heuristics

$$$$

     RDKit          3D

 25 23  0  0  0  0  0  0  0  0999 V2000
    0.8664    0.2462    1.3497 C   0  0  0  0  0  0  0  0  0  0  0  0
   -0.7767   -0.3326    1.8075 S   0  0  0  0  0  0  0  0  0  0  0  0
   -0.7767   -1.9727    1.0438 C   0  0  0  0  0  0  0  0  0  0  0  0
   -0.7767   -1.9727   -0.4765 C   0  0  0  0  0  0  0  0  0  0  0  0
    0.9813    0.4219    0.0593 H   0  0  0  0  0  0  0  0  0  0  0  0
    1.6334   -0.4468    1.6978 H   0  0  0  0  0  0  0  0  0  0  0  0
    1.0129    1.2056    1.8440 H   0  0  0  0  0  0  0  0  0  0  0  0
   -1.6807   -2.4507    1.4248 H   0  0  0  0  0  0  0  0  0  0  0  0
    0.0726   -2.5376    1.4351 H   0  0  0  0  0  0  0  0  0  0  0  0
    0.1303   -1.5166   -0.8758 H   0  0  0  0  0  0  0  0  0  0  0  0
   -1.6327   -1.4195   -0.8643 H   0  0  0  0  0  0  0  0  0  0  0  0
   -0.8251   -2.9960   -0.8561 H   0  0  0  0  0  0  0  0  0  0  0  0
    1.4920   -0.3735   -2.3410 C   0  0  0  0  0  0  0  0  0  0  0  0
    1.0967    0.5984   -1.2374 C   0  0  0  0  0  3  0  0  0  0  0  0
    0.0769    1.6360   -1.6923 C   0  0  0  0  0  0  0  0  0  0  0  0
   -0.3185    2.6079   -0.5888 C   0  0  0  0  0  0  0  0  0  0  0  0
    1.9323    0.1558   -3.1894 H   0  0  0  0  0  0  0  0  0  0  0  0
    0.6219   -0.9218   -2.7098 H   0  0  0  0  0  0  0  0  0  0  0  0
    2.2219   -1.1041   -1.9885 H   0  0  0  0  0  0  0  0  0  0  0  0
    1.9882    1.1122   -0.8637 H   0  0  0  0  0  0  0  0  0  0  0  0
   -0.8147    1.1222   -2.0661 H   0  0  0  0  0  0  0  0  0  0  0  0
    0.4860    2.1919   -2.5422 H   0  0  0  0  0  0  0  0  0  0  0  0
    0.5516    3.1562   -0.2200 H   0  0  0  0  0  0  0  0  0  0  0  0
   -1.0484    3.3385   -0.9413 H   0  0  0  0  0  0  0  0  0  0  0  0
   -0.7588    2.0786    0.2596 H   0  0  0  0  0  0  0  0  0  0  0  0
  1  2  1  0
  1  5  1  0
  1  6  1  0
  1  7  1  0
  2  3  1  0
  3  4  1  0
  3  8  1  0
  3  9  1  0
  4 10  1  0
  4 11  1  0
  4 12  1  0
 13 14  1  0
 13 17  1  0
 13 18  1  0
 13 19  1  0
 14 15  1  0
 14 20  1  0
 15 16  1  0
 15 21  1  0
 15 22  1  0
 16 23  1  0
 16 24  1  0
 16 25  1  0
M  RAD  1  14   2
M  END
>  <reaction>  (14) 
rmg_rxn_519

>  <mol_properties>  (14) 
{"0": {"label": "*1", "atom_type": "Cs"}, "1": {"label": "*0", "atom_type": "S2s"}, "4": {"label": "*2", "atom_type": "H0"}, "13": {"label": "*3", "atom_type": "Cs"}, "14": {"label": "*4", "atom_type": "Cs"}}

>  <type>  (14) 
unop_10

>  <geom_source>  (14) 
Heuristics

$$$$

     RDKit          3D

 25 23  0  0  0  0  0  0  0  0999 V2000
    0.3298    0.5269    1.3404 C   0  0  0  0  0  0  0  0  0  0  0  0
   -1.3133   -0.0519    1.7982 S   0  0  0  0  0  0  0  0  0  0  0  0
   -1.3133   -1.6920    1.0346 C   0  0  0  0  0  0  0  0  0  0  0  0
   -1.3133   -1.6920   -0.4858 C   0  0  0  0  0  0  0  0  0  0  0  0
    0.4446    0.7026    0.0500 H   0  0  0  0  0  0  0  0  0  0  0  0
    1.0968   -0.1661    1.6885 H   0  0  0  0  0  0  0  0  0  0  0  0
    0.4762    1.4863    1.8348 H   0  0  0  0  0  0  0  0  0  0  0  0
   -2.2174   -2.1700    1.4155 H   0  0  0  0  0  0  0  0  0  0  0  0
   -0.4641   -2.2569    1.4258 H   0  0  0  0  0  0  0  0  0  0  0  0
   -0.4063   -1.2358   -0.8851 H   0  0  0  0  0  0  0  0  0  0  0  0
   -2.1693   -1.1388   -0.8735 H   0  0  0  0  0  0  0  0  0  0  0  0
   -1.3618   -2.7152   -0.8653 H   0  0  0  0  0  0  0  0  0  0  0  0
    0.2598    2.3488   -0.9849 C   0  0  0  0  0  0  0  0  0  0  0  0
    0.5600    0.8791   -1.2467 C   0  0  0  0  0  3  0  0  0  0  0  0
    2.0065    0.6289   -1.6574 C   0  0  0  0  0  0  0  0  0  0  0  0
    2.3067   -0.8408   -1.9193 C   0  0  0  0  0  0  0  0  0  0  0  0
    0.4468    2.9514   -1.8769 H   0  0  0  0  0  0  0  0  0  0  0  0
    0.8911    2.7406   -0.1838 H   0  0  0  0  0  0  0  0  0  0  0  0
   -0.7809    2.4990   -0.6931 H   0  0  0  0  0  0  0  0  0  0  0  0
   -0.1052    0.5022   -2.0303 H   0  0  0  0  0  0  0  0  0  0  0  0
    2.6717    1.0058   -0.8739 H   0  0  0  0  0  0  0  0  0  0  0  0
    2.2307    1.2151   -2.5545 H   0  0  0  0  0  0  0  0  0  0  0  0
    1.6754   -1.2325   -2.7203 H   0  0  0  0  0  0  0  0  0  0  0  0
    3.3474   -0.9910   -2.2110 H   0  0  0  0  0  0  0  0  0  0  0  0
    2.1197   -1.4434   -1.0273 H   0  0  0  0  0  0  0  0  0  0  0  0
  1  2  1  0
  1  5  1  0
  1  6  1  0
  1  7  1  0
  2  3  1  0
  3  4  1  0
  3  8  1  0
  3  9  1  0
  4 10  1  0
  4 11  1  0
  4 12  1  0
 13 14  1  0
 13 17  1  0
 13 18  1  0
 13 19  1  0
 14 15  1  0
 14 20  1  0
 15 16  1  0
 15 21  1  0
 15 22  1  0
 16 23  1  0
 16 24  1  0
 16 25  1  0
M  RAD  1  14   2
M  END
>  <reaction>  (15) 
rmg_rxn_519

>  <mol_properties>  (15) 
{"0": {"label": "*1", "atom_type": "Cs"}, "1": {"label": "*0", "atom_type": "S2s"}, "4": {"label": "*2", "atom_type": "H0"}, "13": {"label": "*3", "atom_type": "Cs"}, "14": {"label": "*4", "atom_type": "Cs"}}

>  <type>  (15) 
unop_11

>  <geom_source>  (15) 
Heuristics

$$$$

     RDKit          3D

 25 23  0  0  0  0  0  0  0  0999 V2000
    0.9347    0.5529    1.3986 C   0  0  0  0  0  0  0  0  0  0  0  0
   -0.7084   -0.0259    1.8564 S   0  0  0  0  0  0  0  0  0  0  0  0
   -0.7084   -1.6660    1.0928 C   0  0  0  0  0  0  0  0  0  0  0  0
   -0.7084   -1.6660   -0.4276 C   0  0  0  0  0  0  0  0  0  0  0  0
    1.0496    0.7286    0.1082 H   0  0  0  0  0  0  0  0  0  0  0  0
    1.7017   -0.1401    1.7467 H   0  0  0  0  0  0  0  0  0  0  0  0
    1.0812    1.5123    1.8930 H   0  0  0  0  0  0  0  0  0  0  0  0
   -1.6124   -2.1440    1.4737 H   0  0  0  0  0  0  0  0  0  0  0  0
    0.1409   -2.2309    1.4840 H   0  0  0  0  0  0  0  0  0  0  0  0
    0.1986   -1.2099   -0.8269 H   0  0  0  0  0  0  0  0  0  0  0  0
   -1.5644   -1.1128   -0.8153 H   0  0  0  0  0  0  0  0  0  0  0  0
   -0.7568   -2.6893   -0.8071 H   0  0  0  0  0  0  0  0  0  0  0  0
    2.3381    0.0881   -1.7129 C   0  0  0  0  0  0  0  0  0  0  0  0
    1.1650    0.9051   -1.1885 C   0  0  0  0  0  3  0  0  0  0  0  0
   -0.1570    0.5511   -1.8597 C   0  0  0  0  0  0  0  0  0  0  0  0
   -1.3301    1.3681   -1.3353 C   0  0  0  0  0  0  0  0  0  0  0  0
    2.4739    0.2425   -2.7860 H   0  0  0  0  0  0  0  0  0  0  0  0
    2.1744   -0.9800   -1.5514 H   0  0  0  0  0  0  0  0  0  0  0  0
    3.2703    0.3616   -1.2160 H   0  0  0  0  0  0  0  0  0  0  0  0
    1.3661    1.9715   -1.3334 H   0  0  0  0  0  0  0  0  0  0  0  0
   -0.3581   -0.5153   -1.7148 H   0  0  0  0  0  0  0  0  0  0  0  0
   -0.0609    0.6982   -2.9403 H   0  0  0  0  0  0  0  0  0  0  0  0
   -1.1664    2.4362   -1.4968 H   0  0  0  0  0  0  0  0  0  0  0  0
   -2.2624    1.0946   -1.8322 H   0  0  0  0  0  0  0  0  0  0  0  0
   -1.4659    1.2137   -0.2622 H   0  0  0  0  0  0  0  0  0  0  0  0
  1  2  1  0
  1  5  1  0
  1  6  1  0
  1  7  1  0
  2  3  1  0
  3  4  1  0
  3  8  1  0
  3  9  1  0
  4 10  1  0
  4 11  1  0
  4 12  1  0
 13 14  1  0
 13 17  1  0
 13 18  1  0
 13 19  1  0
 14 15  1  0
 14 20  1  0
 15 16  1  0
 15 21  1  0
 15 22  1  0
 16 23  1  0
 16 24  1  0
 16 25  1  0
M  RAD  1  14   2
M  END
>  <reaction>  (16) 
rmg_rxn_519

>  <mol_properties>  (16) 
{"0": {"label": "*1", "atom_type": "Cs"}, "1": {"label": "*0", "atom_type": "S2s"}, "4": {"label": "*2", "atom_type": "H0"}, "13": {"label": "*3", "atom_type": "Cs"}, "14": {"label": "*4", "atom_type": "Cs"}}

>  <type>  (16) 
unop_12

>  <geom_source>  (16) 
Heuristics

$$$$

     RDKit          3D

 25 23  0  0  0  0  0  0  0  0999 V2000
    1.6017   -1.0297    0.6889 S   0  0  0  0  0  0  0  0  0  0  0  0
   -1.3795   -0.6341   -0.1031 C   0  0  0  0  0  0  0  0  0  0  0  0
   -1.1926    0.8776    0.0839 C   0  0  0  0  0  0  0  0  0  0  0  0
    2.6840    0.1069   -0.2378 C   0  0  0  0  0  0  0  0  0  0  0  0
   -2.6336   -0.9795   -0.9033 C   0  0  0  0  0  0  0  0  0  0  0  0
   -2.2168    1.4845    1.0422 C   0  0  0  0  0  0  0  0  0  0  0  0
    3.5025    0.9493    0.7289 C   0  0  0  0  0  0  0  0  0  0  0  0
    0.8583   -1.7364   -0.8117 C   0  0  0  0  0  3  0  0  0  0  0  0
   -1.4145   -1.1421    0.8852 H   0  0  0  0  0  0  0  0  0  0  0  0
   -0.3232   -1.1060   -0.7643 H   0  0  0  0  0  0  0  0  0  0  0  0
   -1.2481    1.3938   -0.8989 H   0  0  0  0  0  0  0  0  0  0  0  0
   -0.1771    1.0535    0.4991 H   0  0  0  0  0  0  0  0  0  0  0  0
    3.3713   -0.4775   -0.8863 H   0  0  0  0  0  0  0  0  0  0  0  0
    2.0649    0.7759   -0.8733 H   0  0  0  0  0  0  0  0  0  0  0  0
   -2.6301   -0.4467   -1.8776 H   0  0  0  0  0  0  0  0  0  0  0  0
   -2.6528   -2.0719   -1.0989 H   0  0  0  0  0  0  0  0  0  0  0  0
   -3.5489   -0.7115   -0.3359 H   0  0  0  0  0  0  0  0  0  0  0  0
   -1.9683    2.5521    1.2196 H   0  0  0  0  0  0  0  0  0  0  0  0
   -2.2008    0.9516    2.0166 H   0  0  0  0  0  0  0  0  0  0  0  0
   -3.2374    1.4343    0.6094 H   0  0  0  0  0  0  0  0  0  0  0  0
    2.8296    1.5498    1.3772 H   0  0  0  0  0  0  0  0  0  0  0  0
    4.1366    0.2950    1.3640 H   0  0  0  0  0  0  0  0  0  0  0  0
    4.1592    1.6394    0.1585 H   0  0  0  0  0  0  0  0  0  0  0  0
    1.6119   -2.3442   -1.3544 H   0  0  0  0  0  0  0  0  0  0  0  0
    0.0037   -2.3843   -0.5283 H   0  0  0  0  0  0  0  0  0  0  0  0
  1  8  1  0
  1  4  1  0
  2  5  1  0
  2  3  1  0
  2  9  1  0
  2 10  1  0
  3  6  1  0
  3 11  1  0
  3 12  1  0
  4  7  1  0
  4 13  1  0
  4 14  1  0
  5 15  1  0
  5 16  1  0
  5 17  1  0
  6 18  1  0
  6 19  1  0
  6 20  1  0
  7 21  1  0
  7 22  1  0
  7 23  1  0
  8 24  1  0
  8 25  1  0
M  RAD  1   8   2
M  END
>  <reaction>  (17) 
rmg_rxn_519

>  <mol_properties>  (17) 
{"0": {"label": "*1", "atom_type": "Cs"}, "1": {"label": "*0", "atom_type": "S2s"}, "4": {"label": "*2", "atom_type": "H0"}, "13": {"label": "*3", "atom_type": "Cs"}, "14": {"label": "*4", "atom_type": "Cs"}}

>  <type>  (17) 
unop_13

>  <geom_source>  (17) 
AutoTST

$$$$

     RDKit          3D

 25 23  0  0  0  0  0  0  0  0999 V2000
    0.9424    0.3895    1.3767 C   0  0  0  0  0  0  0  0  0  0  0  0
   -0.7007   -0.1893    1.8345 S   0  0  0  0  0  0  0  0  0  0  0  0
   -0.7007   -1.8295    1.0709 C   0  0  0  0  0  0  0  0  0  0  0  0
   -0.7007   -1.8295   -0.4495 C   0  0  0  0  0  0  0  0  0  0  0  0
    1.0573    0.5652    0.0863 H   0  0  0  0  0  0  0  0  0  0  0  0
    1.7094   -0.3035    1.7248 H   0  0  0  0  0  0  0  0  0  0  0  0
    1.0889    1.3489    1.8711 H   0  0  0  0  0  0  0  0  0  0  0  0
   -1.6047   -2.3074    1.4518 H   0  0  0  0  0  0  0  0  0  0  0  0
    0.1485   -2.3943    1.4621 H   0  0  0  0  0  0  0  0  0  0  0  0
    0.2063   -1.3733   -0.8488 H   0  0  0  0  0  0  0  0  0  0  0  0
   -1.5567   -1.2762   -0.8373 H   0  0  0  0  0  0  0  0  0  0  0  0
   -0.7491   -2.8527   -0.8290 H   0  0  0  0  0  0  0  0  0  0  0  0
    1.9508   -0.2124   -2.1065 C   0  0  0  0  0  0  0  0  0  0  0  0
    1.1726    0.7417   -1.2104 C   0  0  0  0  0  3  0  0  0  0  0  0
   -0.1862    1.1260   -1.7844 C   0  0  0  0  0  0  0  0  0  0  0  0
   -0.9643    2.0800   -0.8884 C   0  0  0  0  0  0  0  0  0  0  0  0
    2.1333    0.2331   -3.0873 H   0  0  0  0  0  0  0  0  0  0  0  0
    1.3969   -1.1409   -2.2639 H   0  0  0  0  0  0  0  0  0  0  0  0
    2.9180   -0.4705   -1.6722 H   0  0  0  0  0  0  0  0  0  0  0  0
    1.7606    1.6499   -1.0427 H   0  0  0  0  0  0  0  0  0  0  0  0
   -0.7741    0.2178   -1.9522 H   0  0  0  0  0  0  0  0  0  0  0  0
   -0.0431    1.5817   -2.7696 H   0  0  0  0  0  0  0  0  0  0  0  0
   -0.4104    3.0086   -0.7310 H   0  0  0  0  0  0  0  0  0  0  0  0
   -1.9315    2.3381   -1.3227 H   0  0  0  0  0  0  0  0  0  0  0  0
   -1.1468    1.6346    0.0925 H   0  0  0  0  0  0  0  0  0  0  0  0
  1  2  1  0
  1  5  1  0
  1  6  1  0
  1  7  1  0
  2  3  1  0
  3  4  1  0
  3  8  1  0
  3  9  1  0
  4 10  1  0
  4 11  1  0
  4 12  1  0
 13 14  1  0
 13 17  1  0
 13 18  1  0
 13 19  1  0
 14 15  1  0
 14 20  1  0
 15 16  1  0
 15 21  1  0
 15 22  1  0
 16 23  1  0
 16 24  1  0
 16 25  1  0
M  RAD  1  14   2
M  END
>  <reaction>  (18) 
rmg_rxn_519

>  <mol_properties>  (18) 
{"0": {"label": "*1", "atom_type": "Cs"}, "1": {"label": "*0", "atom_type": "S2s"}, "4": {"label": "*2", "atom_type": "H0"}, "13": {"label": "*3", "atom_type": "Cs"}, "14": {"label": "*4", "atom_type": "Cs"}}

>  <type>  (18) 
unop_14

>  <geom_source>  (18) 
gaussian_log

$$$$
