
     RDKit          3D

 15 14  0  0  0  0  0  0  0  0999 V2000
   -1.2811   -0.4129    1.0228 C   0  0  0  0  0  0  0  0  0  0  0  0
   -1.0023   -0.5809   -0.4650 C   0  0  0  0  0  0  0  0  0  0  0  0
   -2.0576    0.0568   -1.3449 C   0  0  0  0  0  0  0  0  0  0  0  0
   -2.0663    1.4464   -1.1307 O   0  0  0  0  0  0  0  0  0  0  0  0
   -3.0424    2.1072   -1.8849 C   0  0  0  0  0  0  0  0  0  0  0  0
   -2.2382   -0.8657    1.2935 H   0  0  0  0  0  0  0  0  0  0  0  0
   -1.3219    0.6426    1.2914 H   0  0  0  0  0  0  0  0  0  0  0  0
   -0.5042   -0.8881    1.6236 H   0  0  0  0  0  0  0  0  0  0  0  0
   -0.0316   -0.1460   -0.7167 H   0  0  0  0  0  0  0  0  0  0  0  0
   -0.9494   -1.6429   -0.7203 H   0  0  0  0  0  0  0  0  0  0  0  0
   -1.8518   -0.1570   -2.4041 H   0  0  0  0  0  0  0  0  0  0  0  0
   -3.0491   -0.3636   -1.1124 H   0  0  0  0  0  0  0  0  0  0  0  0
   -4.0521    1.7545   -1.6343 H   0  0  0  0  0  0  0  0  0  0  0  0
   -2.8850    1.9634   -2.9626 H   0  0  0  0  0  0  0  0  0  0  0  0
   -2.9730    3.1700   -1.6570 H   0  0  0  0  0  0  0  0  0  0  0  0
  1  2  1  0
  1  6  1  0
  1  7  1  0
  1  8  1  0
  2  3  1  0
  2  9  1  0
  2 10  1  0
  3  4  1  0
  3 11  1  0
  3 12  1  0
  4  5  1  0
  5 13  1  0
  5 14  1  0
  5 15  1  0
M  END
>  <reaction>  (1) 
rmg_rxn_15521

>  <mol_properties>  (1) 
{"0": {"label": "donator", "atom_type": "Cs"}, "5": {"label": "d_hydrogen", "atom_type": "H0"}}

>  <type>  (1) 
r1h

$$$$

     RDKit          3D

  5  4  0  0  0  0  0  0  0  0999 V2000
    0.8934    0.3742    0.4948 O   0  0  0  0  0  0  0  0  0  0  0  0
    0.1582   -0.1610   -0.5904 N   0  0  0  0  0  0  0  0  0  0  0  0
   -1.0297   -0.3739   -0.4689 C   0  0  0  0  0  3  0  0  0  0  0  0
    1.7804    0.4382    0.1306 H   0  0  0  0  0  0  0  0  0  0  0  0
   -1.8023   -0.2775    0.2859 H   0  0  0  0  0  0  0  0  0  0  0  0
  1  2  1  0
  1  4  1  0
  2  3  2  3
  3  5  1  0
M  RAD  1   3   2
M  END
>  <reaction>  (2) 
rmg_rxn_15521

>  <mol_properties>  (2) 
{"2": {"label": "acceptor", "atom_type": "Cd"}}

>  <type>  (2) 
r2

$$$$

     RDKit          3D

  6  5  0  0  0  0  0  0  0  0999 V2000
    1.2314    0.0428    0.5088 O   0  0  0  0  0  0  0  0  0  0  0  0
    0.2987    0.2341   -0.4915 N   0  0  0  0  0  0  0  0  0  0  0  0
   -0.8599   -0.1122   -0.1290 C   0  0  0  0  0  0  0  0  0  0  0  0
    2.0507    0.3401    0.1082 H   0  0  0  0  0  0  0  0  0  0  0  0
   -1.0700   -0.5112    0.8610 H   0  0  0  0  0  0  0  0  0  0  0  0
   -1.6509    0.0064   -0.8574 H   0  0  0  0  0  0  0  0  0  0  0  0
  1  2  1  0
  1  4  1  0
  2  3  2  3
  3  5  1  0
  3  6  1  0
M  END
>  <reaction>  (3) 
rmg_rxn_15521

>  <mol_properties>  (3) 
{"2": {"label": "acceptor", "atom_type": "Cd"}, "5": {"label": "a_hydrogen", "atom_type": "H0"}}

>  <type>  (3) 
r2h

$$$$

     RDKit          3D

 20 18  0  0  0  0  0  0  0  0999 V2000
    2.6991    2.3441    0.1668 O   0  0  0  0  0  0  0  0  0  0  0  0
    1.6009    1.5425    0.5083 N   0  0  0  0  0  0  0  0  0  0  0  0
    1.9110    0.4099    0.9222 C   0  0  0  0  0  3  0  0  0  0  0  0
    2.2848    3.1607   -0.1210 H   0  0  0  0  0  0  0  0  0  0  0  0
    2.9148    0.0020    1.0411 H   0  0  0  0  0  0  0  0  0  0  0  0
   -0.2877   -0.9508    1.6259 C   0  0  0  0  0  0  0  0  0  0  0  0
   -1.4136   -0.1291    1.0519 C   0  0  0  0  0  0  0  0  0  0  0  0
   -1.4614   -0.1526   -0.4627 C   0  0  0  0  0  0  0  0  0  0  0  0
   -1.6908   -1.4716   -0.8970 O   0  0  0  0  0  0  0  0  0  0  0  0
   -1.6897   -1.5906   -2.2916 C   0  0  0  0  0  0  0  0  0  0  0  0
    0.8018   -0.3744    1.2884 H   0  0  0  0  0  0  0  0  0  0  0  0
   -0.2090   -1.9533    1.2099 H   0  0  0  0  0  0  0  0  0  0  0  0
   -0.2466   -0.9576    2.7139 H   0  0  0  0  0  0  0  0  0  0  0  0
   -2.3709   -0.4969    1.4378 H   0  0  0  0  0  0  0  0  0  0  0  0
   -1.3186    0.9108    1.3751 H   0  0  0  0  0  0  0  0  0  0  0  0
   -2.2639    0.5064   -0.8241 H   0  0  0  0  0  0  0  0  0  0  0  0
   -0.5143    0.2233   -0.8743 H   0  0  0  0  0  0  0  0  0  0  0  0
   -0.7256   -1.2867   -2.7206 H   0  0  0  0  0  0  0  0  0  0  0  0
   -2.4785   -0.9777   -2.7487 H   0  0  0  0  0  0  0  0  0  0  0  0
   -1.8713   -2.6369   -2.5343 H   0  0  0  0  0  0  0  0  0  0  0  0
  1  2  1  0
  1  4  1  0
  2  3  2  3
  3  5  1  0
  6  7  1  0
  6 11  1  0
  6 12  1  0
  6 13  1  0
  7  8  1  0
  7 14  1  0
  7 15  1  0
  8  9  1  0
  8 16  1  0
  8 17  1  0
  9 10  1  0
 10 18  1  0
 10 19  1  0
 10 20  1  0
M  RAD  1   3   2
M  END
>  <reaction>  (4) 
rmg_rxn_15521

>  <mol_properties>  (4) 
{"1": {"label": "*4", "atom_type": "N3d"}, "2": {"label": "*3", "atom_type": "Cd"}, "5": {"label": "*1", "atom_type": "Cs"}, "6": {"label": "*0", "atom_type": "Cs"}, "10": {"label": "*2", "atom_type": "H0"}}

>  <type>  (4) 
ts

$$$$

     RDKit          3D

 20 18  0  0  0  0  0  0  0  0999 V2000
    3.0953   -0.2325   -0.1118 O   0  0  0  0  0  0  0  0  0  0  0  0
    1.8916    0.4951   -0.2773 N   0  0  0  0  0  0  0  0  0  0  0  0
    1.1645    0.7387    0.6899 C   0  0  0  0  0  3  0  0  0  0  0  0
    3.4758   -0.2678   -0.9999 H   0  0  0  0  0  0  0  0  0  0  0  0
    1.2595    0.4778    1.7341 H   0  0  0  0  0  0  0  0  0  0  0  0
   -1.0966    1.8806    0.0077 C   0  0  0  0  0  0  0  0  0  0  0  0
   -1.9138    0.8103   -0.6651 C   0  0  0  0  0  0  0  0  0  0  0  0
   -2.1310   -0.4068    0.2450 C   0  0  0  0  0  0  0  0  0  0  0  0
   -0.9507   -1.0899    0.5992 O   0  0  0  0  0  0  0  0  0  0  0  0
   -0.4086   -1.8937   -0.4183 C   0  0  0  0  0  0  0  0  0  0  0  0
    0.0421    1.3397    0.3566 H   0  0  0  0  0  0  0  0  0  0  0  0
   -1.5346    2.2348    0.9344 H   0  0  0  0  0  0  0  0  0  0  0  0
   -0.8277    2.6975   -0.6512 H   0  0  0  0  0  0  0  0  0  0  0  0
   -2.9035    1.1992   -0.9321 H   0  0  0  0  0  0  0  0  0  0  0  0
   -1.4245    0.4979   -1.5897 H   0  0  0  0  0  0  0  0  0  0  0  0
   -2.5609   -0.0767    1.1952 H   0  0  0  0  0  0  0  0  0  0  0  0
   -2.8351   -1.1033   -0.2360 H   0  0  0  0  0  0  0  0  0  0  0  0
    0.4175   -2.4398    0.0331 H   0  0  0  0  0  0  0  0  0  0  0  0
   -0.0246   -1.2978   -1.2530 H   0  0  0  0  0  0  0  0  0  0  0  0
   -1.1532   -2.6050   -0.7976 H   0  0  0  0  0  0  0  0  0  0  0  0
  1  2  1  0
  1  4  1  0
  2  3  2  3
  3  5  1  0
  6  7  1  0
  6 11  1  0
  6 12  1  0
  6 13  1  0
  7  8  1  0
  7 14  1  0
  7 15  1  0
  8  9  1  0
  8 16  1  0
  8 17  1  0
  9 10  1  0
 10 18  1  0
 10 19  1  0
 10 20  1  0
M  RAD  1   3   2
M  END
>  <reaction>  (5) 
rmg_rxn_15521

>  <mol_properties>  (5) 
{"1": {"label": "*4", "atom_type": "N3d"}, "2": {"label": "*3", "atom_type": "Cd"}, "5": {"label": "*1", "atom_type": "Cs"}, "6": {"label": "*0", "atom_type": "Cs"}, "10": {"label": "*2", "atom_type": "H0"}}

>  <type>  (5) 
unop_1

>  <geom_source>  (5) 
crest_best.xyz

$$$$

     RDKit          3D

 20 18  0  0  0  0  0  0  0  0999 V2000
    3.6517    1.0088    1.1638 O   0  0  0  0  0  0  0  0  0  0  0  0
    2.3073    1.1815    1.4279 N   0  0  0  0  0  0  0  0  0  0  0  0
    1.5816    0.7197    0.5040 C   0  0  0  0  0  0  0  0  0  0  0  0
    4.0800    1.3961    1.9297 H   0  0  0  0  0  0  0  0  0  0  0  0
    1.9938    0.2464   -0.3847 H   0  0  0  0  0  0  0  0  0  0  0  0
   -0.5285   -0.6283    1.2390 C   0  0  0  0  0  3  0  0  0  0  0  0
   -1.7999    0.0227    0.7110 C   0  0  0  0  0  0  0  0  0  0  0  0
   -1.8388    0.1151   -0.8005 C   0  0  0  0  0  0  0  0  0  0  0  0
   -1.8388   -1.1803   -1.3473 O   0  0  0  0  0  0  0  0  0  0  0  0
   -1.8388   -1.1803   -2.7466 C   0  0  0  0  0  0  0  0  0  0  0  0
    0.5319    0.0491    0.8696 H   0  0  0  0  0  0  0  0  0  0  0  0
   -0.4270   -1.6441    0.8569 H   0  0  0  0  0  0  0  0  0  0  0  0
   -0.5341   -0.6729    2.3291 H   0  0  0  0  0  0  0  0  0  0  0  0
   -2.6762   -0.5376    1.0470 H   0  0  0  0  0  0  0  0  0  0  0  0
   -1.8985    1.0353    1.1118 H   0  0  0  0  0  0  0  0  0  0  0  0
   -2.7377    0.6587   -1.1268 H   0  0  0  0  0  0  0  0  0  0  0  0
   -0.9650    0.6762   -1.1683 H   0  0  0  0  0  0  0  0  0  0  0  0
   -0.9476   -0.6802   -3.1493 H   0  0  0  0  0  0  0  0  0  0  0  0
   -2.7280   -0.6766   -3.1498 H   0  0  0  0  0  0  0  0  0  0  0  0
   -1.8410   -2.2181   -3.0773 H   0  0  0  0  0  0  0  0  0  0  0  0
  1  2  1  0
  1  4  1  0
  2  3  2  3
  3  5  1  0
  3 11  1  0
  6  7  1  0
  6 12  1  0
  6 13  1  0
  7  8  1  0
  7 14  1  0
  7 15  1  0
  8  9  1  0
  8 16  1  0
  8 17  1  0
  9 10  1  0
 10 18  1  0
 10 19  1  0
 10 20  1  0
M  RAD  1   6   2
M  END
>  <reaction>  (6) 
rmg_rxn_15521

>  <mol_properties>  (6) 
{"1": {"label": "*4", "atom_type": "N3d"}, "2": {"label": "*3", "atom_type": "Cd"}, "5": {"label": "*1", "atom_type": "Cs"}, "6": {"label": "*0", "atom_type": "Cs"}, "10": {"label": "*2", "atom_type": "H0"}}

>  <type>  (6) 
unop_2

>  <geom_source>  (6) 
Heuristics

$$$$

     RDKit          3D

 20 18  0  0  0  0  0  0  0  0999 V2000
    3.0950   -0.2316    0.1123 O   0  0  0  0  0  0  0  0  0  0  0  0
    1.8909    0.4955    0.2769 N   0  0  0  0  0  0  0  0  0  0  0  0
    1.1639    0.7385   -0.6905 C   0  0  0  0  0  3  0  0  0  0  0  0
    3.4749   -0.2666    1.0006 H   0  0  0  0  0  0  0  0  0  0  0  0
    1.2585    0.4769   -1.7346 H   0  0  0  0  0  0  0  0  0  0  0  0
   -1.0973    1.8799   -0.0075 C   0  0  0  0  0  0  0  0  0  0  0  0
   -1.9146    0.8096    0.6649 C   0  0  0  0  0  0  0  0  0  0  0  0
   -2.1307   -0.4078   -0.2450 C   0  0  0  0  0  0  0  0  0  0  0  0
   -0.9499   -1.0900   -0.5993 O   0  0  0  0  0  0  0  0  0  0  0  0
   -0.4066   -1.8927    0.4185 C   0  0  0  0  0  0  0  0  0  0  0  0
    0.0413    1.3392   -0.3569 H   0  0  0  0  0  0  0  0  0  0  0  0
   -0.8277    2.6963    0.6520 H   0  0  0  0  0  0  0  0  0  0  0  0
   -1.5355    2.2351   -0.9337 H   0  0  0  0  0  0  0  0  0  0  0  0
   -1.4259    0.4976    1.5899 H   0  0  0  0  0  0  0  0  0  0  0  0
   -2.9046    1.1984    0.9311 H   0  0  0  0  0  0  0  0  0  0  0  0
   -2.8342   -1.1049    0.2363 H   0  0  0  0  0  0  0  0  0  0  0  0
   -2.5611   -0.0782   -1.1950 H   0  0  0  0  0  0  0  0  0  0  0  0
   -0.0249   -1.2961    1.2536 H   0  0  0  0  0  0  0  0  0  0  0  0
    0.4212   -2.4365   -0.0323 H   0  0  0  0  0  0  0  0  0  0  0  0
   -1.1498   -2.6059    0.7970 H   0  0  0  0  0  0  0  0  0  0  0  0
  1  2  1  0
  1  4  1  0
  2  3  2  3
  3  5  1  0
  6  7  1  0
  6 11  1  0
  6 12  1  0
  6 13  1  0
  7  8  1  0
  7 14  1  0
  7 15  1  0
  8  9  1  0
  8 16  1  0
  8 17  1  0
  9 10  1  0
 10 18  1  0
 10 19  1  0
 10 20  1  0
M  RAD  1   3   2
M  END
>  <reaction>  (7) 
rmg_rxn_15521

>  <mol_properties>  (7) 
{"1": {"label": "*4", "atom_type": "N3d"}, "2": {"label": "*3", "atom_type": "Cd"}, "5": {"label": "*1", "atom_type": "Cs"}, "6": {"label": "*0", "atom_type": "Cs"}, "10": {"label": "*2", "atom_type": "H0"}}

>  <type>  (7) 
unop_3

>  <geom_source>  (7) 
Heuristics

$$$$

     RDKit          3D

 20 18  0  0  0  0  0  0  0  0999 V2000
    2.8890    2.3027    0.5959 O   0  0  0  0  0  0  0  0  0  0  0  0
    1.6820    1.6318    0.5905 N   0  0  0  0  0  0  0  0  0  0  0  0
    1.8325    0.3884    0.7482 C   0  0  0  0  0  0  0  0  0  0  0  0
    2.6344    3.2188    0.4696 H   0  0  0  0  0  0  0  0  0  0  0  0
    2.8098   -0.0733    0.8715 H   0  0  0  0  0  0  0  0  0  0  0  0
   -0.2776   -0.9597    1.4832 C   0  0  0  0  0  3  0  0  0  0  0  0
   -1.5491   -0.3086    0.9552 C   0  0  0  0  0  0  0  0  0  0  0  0
   -1.5880   -0.2162   -0.5563 C   0  0  0  0  0  0  0  0  0  0  0  0
   -1.5880   -1.5116   -1.1031 O   0  0  0  0  0  0  0  0  0  0  0  0
   -1.5880   -1.5116   -2.5025 C   0  0  0  0  0  0  0  0  0  0  0  0
    0.7828   -0.2822    1.1138 H   0  0  0  0  0  0  0  0  0  0  0  0
   -0.1762   -1.9754    1.1011 H   0  0  0  0  0  0  0  0  0  0  0  0
   -0.2833   -1.0042    2.5733 H   0  0  0  0  0  0  0  0  0  0  0  0
   -2.4254   -0.8689    1.2912 H   0  0  0  0  0  0  0  0  0  0  0  0
   -1.6477    0.7040    1.3560 H   0  0  0  0  0  0  0  0  0  0  0  0
   -2.4869    0.3274   -0.8827 H   0  0  0  0  0  0  0  0  0  0  0  0
   -0.7142    0.3449   -0.9241 H   0  0  0  0  0  0  0  0  0  0  0  0
   -0.6968   -1.0115   -2.9052 H   0  0  0  0  0  0  0  0  0  0  0  0
   -2.4772   -1.0079   -2.9056 H   0  0  0  0  0  0  0  0  0  0  0  0
   -1.5902   -2.5494   -2.8331 H   0  0  0  0  0  0  0  0  0  0  0  0
  1  2  1  0
  1  4  1  0
  2  3  2  3
  3  5  1  0
  3 11  1  0
  6  7  1  0
  6 12  1  0
  6 13  1  0
  7  8  1  0
  7 14  1  0
  7 15  1  0
  8  9  1  0
  8 16  1  0
  8 17  1  0
  9 10  1  0
 10 18  1  0
 10 19  1  0
 10 20  1  0
M  RAD  1   6   2
M  END
>  <reaction>  (8) 
rmg_rxn_15521

>  <mol_properties>  (8) 
{"1": {"label": "*4", "atom_type": "N3d"}, "2": {"label": "*3", "atom_type": "Cd"}, "5": {"label": "*1", "atom_type": "Cs"}, "6": {"label": "*0", "atom_type": "Cs"}, "10": {"label": "*2", "atom_type": "H0"}}

>  <type>  (8) 
unop_4

>  <geom_source>  (8) 
Heuristics

$$$$

     RDKit          3D

 20 18  0  0  0  0  0  0  0  0999 V2000
    3.0935    0.2312   -0.1120 O   0  0  0  0  0  0  0  0  0  0  0  0
    1.8893   -0.4956   -0.2779 N   0  0  0  0  0  0  0  0  0  0  0  0
    1.1637   -0.7421    0.6897 C   0  0  0  0  0  3  0  0  0  0  0  0
    3.4726    0.2693   -1.0005 H   0  0  0  0  0  0  0  0  0  0  0  0
    1.2606   -0.4847    1.7346 H   0  0  0  0  0  0  0  0  0  0  0  0
   -1.0994   -1.8800    0.0075 C   0  0  0  0  0  0  0  0  0  0  0  0
   -1.9145   -0.8082   -0.6654 C   0  0  0  0  0  0  0  0  0  0  0  0
   -2.1295    0.4092    0.2448 C   0  0  0  0  0  0  0  0  0  0  0  0
   -0.9479    1.0898    0.5996 O   0  0  0  0  0  0  0  0  0  0  0  0
   -0.4048    1.8939   -0.4172 C   0  0  0  0  0  0  0  0  0  0  0  0
    0.0404   -1.3412    0.3563 H   0  0  0  0  0  0  0  0  0  0  0  0
   -0.8321   -2.6976   -0.6513 H   0  0  0  0  0  0  0  0  0  0  0  0
   -1.5381   -2.2333    0.9342 H   0  0  0  0  0  0  0  0  0  0  0  0
   -1.4243   -0.4967   -1.5898 H   0  0  0  0  0  0  0  0  0  0  0  0
   -2.9048   -1.1953   -0.9326 H   0  0  0  0  0  0  0  0  0  0  0  0
   -2.8321    1.1072   -0.2363 H   0  0  0  0  0  0  0  0  0  0  0  0
   -2.5604    0.0798    1.1948 H   0  0  0  0  0  0  0  0  0  0  0  0
    0.4244    2.4356    0.0338 H   0  0  0  0  0  0  0  0  0  0  0  0
   -1.1473    2.6090   -0.7932 H   0  0  0  0  0  0  0  0  0  0  0  0
   -0.0249    1.2985   -1.2541 H   0  0  0  0  0  0  0  0  0  0  0  0
  1  2  1  0
  1  4  1  0
  2  3  2  3
  3  5  1  0
  6  7  1  0
  6 11  1  0
  6 12  1  0
  6 13  1  0
  7  8  1  0
  7 14  1  0
  7 15  1  0
  8  9  1  0
  8 16  1  0
  8 17  1  0
  9 10  1  0
 10 18  1  0
 10 19  1  0
 10 20  1  0
M  RAD  1   3   2
M  END
>  <reaction>  (9) 
rmg_rxn_15521

>  <mol_properties>  (9) 
{"1": {"label": "*4", "atom_type": "N3d"}, "2": {"label": "*3", "atom_type": "Cd"}, "5": {"label": "*1", "atom_type": "Cs"}, "6": {"label": "*0", "atom_type": "Cs"}, "10": {"label": "*2", "atom_type": "H0"}}

>  <type>  (9) 
unop_5

>  <geom_source>  (9) 
Heuristics

$$$$

     RDKit          3D

 20 18  0  0  0  0  0  0  0  0999 V2000
    3.7231    0.8410    0.6966 O   0  0  0  0  0  0  0  0  0  0  0  0
    2.5267    0.7791    1.3835 N   0  0  0  0  0  0  0  0  0  0  0  0
    1.5333    0.8158    0.6054 C   0  0  0  0  0  0  0  0  0  0  0  0
    4.3813    0.8048    1.3935 H   0  0  0  0  0  0  0  0  0  0  0  0
    1.6369    0.8879   -0.4752 H   0  0  0  0  0  0  0  0  0  0  0  0
   -0.5768   -0.5323    1.3404 C   0  0  0  0  0  3  0  0  0  0  0  0
   -1.8482    0.1187    0.8124 C   0  0  0  0  0  0  0  0  0  0  0  0
   -1.8871    0.2111   -0.6991 C   0  0  0  0  0  0  0  0  0  0  0  0
   -1.8871   -1.0843   -1.2459 O   0  0  0  0  0  0  0  0  0  0  0  0
   -1.8871   -1.0843   -2.6452 C   0  0  0  0  0  0  0  0  0  0  0  0
    0.4836    0.1452    0.9710 H   0  0  0  0  0  0  0  0  0  0  0  0
   -0.4753   -1.5480    0.9583 H   0  0  0  0  0  0  0  0  0  0  0  0
   -0.5824   -0.5768    2.4305 H   0  0  0  0  0  0  0  0  0  0  0  0
   -2.7246   -0.4415    1.1484 H   0  0  0  0  0  0  0  0  0  0  0  0
   -1.9469    1.1314    1.2132 H   0  0  0  0  0  0  0  0  0  0  0  0
   -2.7860    0.7548   -1.0255 H   0  0  0  0  0  0  0  0  0  0  0  0
   -1.0133    0.7722   -1.0669 H   0  0  0  0  0  0  0  0  0  0  0  0
   -0.9959   -0.5841   -3.0479 H   0  0  0  0  0  0  0  0  0  0  0  0
   -2.7763   -0.5805   -3.0484 H   0  0  0  0  0  0  0  0  0  0  0  0
   -1.8893   -2.1221   -2.9759 H   0  0  0  0  0  0  0  0  0  0  0  0
  1  2  1  0
  1  4  1  0
  2  3  2  3
  3  5  1  0
  3 11  1  0
  6  7  1  0
  6 12  1  0
  6 13  1  0
  7  8  1  0
  7 14  1  0
  7 15  1  0
  8  9  1  0
  8 16  1  0
  8 17  1  0
  9 10  1  0
 10 18  1  0
 10 19  1  0
 10 20  1  0
M  RAD  1   6   2
M  END
>  <reaction>  (10) 
rmg_rxn_15521

>  <mol_properties>  (10) 
{"1": {"label": "*4", "atom_type": "N3d"}, "2": {"label": "*3", "atom_type": "Cd"}, "5": {"label": "*1", "atom_type": "Cs"}, "6": {"label": "*0", "atom_type": "Cs"}, "10": {"label": "*2", "atom_type": "H0"}}

>  <type>  (10) 
unop_6

>  <geom_source>  (10) 
Heuristics

$$$$

     RDKit          3D

 20 18  0  0  0  0  0  0  0  0999 V2000
    3.2546    0.9497   -0.4771 O   0  0  0  0  0  0  0  0  0  0  0  0
    1.9113    0.8975   -0.1610 N   0  0  0  0  0  0  0  0  0  0  0  0
    1.7231    0.7755    1.0812 C   0  0  0  0  0  0  0  0  0  0  0  0
    3.2546    1.0411   -1.4319 H   0  0  0  0  0  0  0  0  0  0  0  0
    2.5415    0.7204    1.7959 H   0  0  0  0  0  0  0  0  0  0  0  0
   -0.3870   -0.5726    1.8163 C   0  0  0  0  0  3  0  0  0  0  0  0
   -1.6584    0.0785    1.2883 C   0  0  0  0  0  0  0  0  0  0  0  0
   -1.6974    0.1708   -0.2232 C   0  0  0  0  0  0  0  0  0  0  0  0
   -1.6974   -1.1245   -0.7701 O   0  0  0  0  0  0  0  0  0  0  0  0
   -1.6974   -1.1245   -2.1694 C   0  0  0  0  0  0  0  0  0  0  0  0
    0.6734    0.1049    1.4469 H   0  0  0  0  0  0  0  0  0  0  0  0
   -0.2855   -1.5883    1.4342 H   0  0  0  0  0  0  0  0  0  0  0  0
   -0.3926   -0.6171    2.9063 H   0  0  0  0  0  0  0  0  0  0  0  0
   -2.5348   -0.4818    1.6243 H   0  0  0  0  0  0  0  0  0  0  0  0
   -1.7571    1.0911    1.6891 H   0  0  0  0  0  0  0  0  0  0  0  0
   -2.5963    0.7145   -0.5496 H   0  0  0  0  0  0  0  0  0  0  0  0
   -0.8235    0.7319   -0.5910 H   0  0  0  0  0  0  0  0  0  0  0  0
   -0.8061   -0.6244   -2.5721 H   0  0  0  0  0  0  0  0  0  0  0  0
   -2.5865   -0.6208   -2.5725 H   0  0  0  0  0  0  0  0  0  0  0  0
   -1.6996   -2.1623   -2.5001 H   0  0  0  0  0  0  0  0  0  0  0  0
  1  2  1  0
  1  4  1  0
  2  3  2  3
  3  5  1  0
  3 11  1  0
  6  7  1  0
  6 12  1  0
  6 13  1  0
  7  8  1  0
  7 14  1  0
  7 15  1  0
  8  9  1  0
  8 16  1  0
  8 17  1  0
  9 10  1  0
 10 18  1  0
 10 19  1  0
 10 20  1  0
M  RAD  1   6   2
M  END
>  <reaction>  (11) 
rmg_rxn_15521

>  <mol_properties>  (11) 
{"1": {"label": "*4", "atom_type": "N3d"}, "2": {"label": "*3", "atom_type": "Cd"}, "5": {"label": "*1", "atom_type": "Cs"}, "6": {"label": "*0", "atom_type": "Cs"}, "10": {"label": "*2", "atom_type": "H0"}}

>  <type>  (11) 
unop_7

>  <geom_source>  (11) 
Heuristics

$$$$

     RDKit          3D

 20 18  0  0  0  0  0  0  0  0999 V2000
    3.0976   -0.2344    0.1129 O   0  0  0  0  0  0  0  0  0  0  0  0
    1.8936    0.4929    0.2770 N   0  0  0  0  0  0  0  0  0  0  0  0
    1.1671    0.7357   -0.6908 C   0  0  0  0  0  3  0  0  0  0  0  0
    3.4775   -0.2692    1.0013 H   0  0  0  0  0  0  0  0  0  0  0  0
    1.2629    0.4745   -1.7349 H   0  0  0  0  0  0  0  0  0  0  0  0
   -1.0928    1.8811   -0.0100 C   0  0  0  0  0  0  0  0  0  0  0  0
   -1.9111    0.8139    0.6662 C   0  0  0  0  0  0  0  0  0  0  0  0
   -2.1340   -0.4036   -0.2419 C   0  0  0  0  0  0  0  0  0  0  0  0
   -0.9564   -1.0896   -0.5995 O   0  0  0  0  0  0  0  0  0  0  0  0
   -0.4130   -1.8942    0.4166 C   0  0  0  0  0  0  0  0  0  0  0  0
    0.0449    1.3377   -0.3585 H   0  0  0  0  0  0  0  0  0  0  0  0
   -0.8219    2.6992    0.6467 H   0  0  0  0  0  0  0  0  0  0  0  0
   -1.5310    2.2338   -0.9371 H   0  0  0  0  0  0  0  0  0  0  0  0
   -1.4202    0.5014    1.5899 H   0  0  0  0  0  0  0  0  0  0  0  0
   -2.8990    1.2060    0.9353 H   0  0  0  0  0  0  0  0  0  0  0  0
   -2.8379   -1.0981    0.2423 H   0  0  0  0  0  0  0  0  0  0  0  0
   -2.5666   -0.0736   -1.1908 H   0  0  0  0  0  0  0  0  0  0  0  0
   -1.1578   -2.6045    0.7976 H   0  0  0  0  0  0  0  0  0  0  0  0
   -0.0262   -1.2991    1.2505 H   0  0  0  0  0  0  0  0  0  0  0  0
    0.4111   -2.4415   -0.0368 H   0  0  0  0  0  0  0  0  0  0  0  0
  1  2  1  0
  1  4  1  0
  2  3  2  3
  3  5  1  0
  6  7  1  0
  6 11  1  0
  6 12  1  0
  6 13  1  0
  7  8  1  0
  7 14  1  0
  7 15  1  0
  8  9  1  0
  8 16  1  0
  8 17  1  0
  9 10  1  0
 10 18  1  0
 10 19  1  0
 10 20  1  0
M  RAD  1   3   2
M  END
>  <reaction>  (12) 
rmg_rxn_15521

>  <mol_properties>  (12) 
{"1": {"label": "*4", "atom_type": "N3d"}, "2": {"label": "*3", "atom_type": "Cd"}, "5": {"label": "*1", "atom_type": "Cs"}, "6": {"label": "*0", "atom_type": "Cs"}, "10": {"label": "*2", "atom_type": "H0"}}

>  <type>  (12) 
unop_8

>  <geom_source>  (12) 
Heuristics

$$$$

     RDKit          3D

 20 18  0  0  0  0  0  0  0  0999 V2000
    3.6879    1.1529    0.6131 O   0  0  0  0  0  0  0  0  0  0  0  0
    2.6402    0.3688    1.0542 N   0  0  0  0  0  0  0  0  0  0  0  0
    1.5229    0.8160    0.6731 C   0  0  0  0  0  0  0  0  0  0  0  0
    4.4614    0.7090    0.9661 H   0  0  0  0  0  0  0  0  0  0  0  0
    1.4263    1.7155    0.0689 H   0  0  0  0  0  0  0  0  0  0  0  0
   -0.5872   -0.5321    1.4081 C   0  0  0  0  0  3  0  0  0  0  0  0
   -1.8586    0.1189    0.8801 C   0  0  0  0  0  0  0  0  0  0  0  0
   -1.8975    0.2113   -0.6314 C   0  0  0  0  0  0  0  0  0  0  0  0
   -1.8975   -1.0841   -1.1782 O   0  0  0  0  0  0  0  0  0  0  0  0
   -1.8975   -1.0841   -2.5775 C   0  0  0  0  0  0  0  0  0  0  0  0
    0.4732    0.1454    1.0387 H   0  0  0  0  0  0  0  0  0  0  0  0
   -0.4857   -1.5478    1.0260 H   0  0  0  0  0  0  0  0  0  0  0  0
   -0.5928   -0.5766    2.4982 H   0  0  0  0  0  0  0  0  0  0  0  0
   -2.7349   -0.4413    1.2161 H   0  0  0  0  0  0  0  0  0  0  0  0
   -1.9572    1.1316    1.2809 H   0  0  0  0  0  0  0  0  0  0  0  0
   -2.7964    0.7550   -0.9577 H   0  0  0  0  0  0  0  0  0  0  0  0
   -1.0237    0.7724   -0.9992 H   0  0  0  0  0  0  0  0  0  0  0  0
   -1.0063   -0.5839   -2.9802 H   0  0  0  0  0  0  0  0  0  0  0  0
   -2.7867   -0.5803   -2.9807 H   0  0  0  0  0  0  0  0  0  0  0  0
   -1.8997   -2.1218   -2.9082 H   0  0  0  0  0  0  0  0  0  0  0  0
  1  2  1  0
  1  4  1  0
  2  3  2  3
  3  5  1  0
  3 11  1  0
  6  7  1  0
  6 12  1  0
  6 13  1  0
  7  8  1  0
  7 14  1  0
  7 15  1  0
  8  9  1  0
  8 16  1  0
  8 17  1  0
  9 10  1  0
 10 18  1  0
 10 19  1  0
 10 20  1  0
M  RAD  1   6   2
M  END
>  <reaction>  (13) 
rmg_rxn_15521

>  <mol_properties>  (13) 
{"1": {"label": "*4", "atom_type": "N3d"}, "2": {"label": "*3", "atom_type": "Cd"}, "5": {"label": "*1", "atom_type": "Cs"}, "6": {"label": "*0", "atom_type": "Cs"}, "10": {"label": "*2", "atom_type": "H0"}}

>  <type>  (13) 
unop_9

>  <geom_source>  (13) 
Heuristics

$$$$

     RDKit          3D

 20 18  0  0  0  0  0  0  0  0999 V2000
    3.0968    0.2344    0.1117 O   0  0  0  0  0  0  0  0  0  0  0  0
    1.8936   -0.4942    0.2771 N   0  0  0  0  0  0  0  0  0  0  0  0
    1.1659   -0.7366   -0.6899 C   0  0  0  0  0  3  0  0  0  0  0  0
    3.4780    0.2687    0.9995 H   0  0  0  0  0  0  0  0  0  0  0  0
    1.2596   -0.4743   -1.7339 H   0  0  0  0  0  0  0  0  0  0  0  0
   -1.0937   -1.8815   -0.0076 C   0  0  0  0  0  0  0  0  0  0  0  0
   -1.9125   -0.8124    0.6650 C   0  0  0  0  0  0  0  0  0  0  0  0
   -2.1322    0.4039   -0.2455 C   0  0  0  0  0  0  0  0  0  0  0  0
   -0.9534    1.0899   -0.5990 O   0  0  0  0  0  0  0  0  0  0  0  0
   -0.4134    1.8946    0.4190 C   0  0  0  0  0  0  0  0  0  0  0  0
    0.0443   -1.3389   -0.3563 H   0  0  0  0  0  0  0  0  0  0  0  0
   -1.5311   -2.2367   -0.9342 H   0  0  0  0  0  0  0  0  0  0  0  0
   -0.8234   -2.6979    0.6515 H   0  0  0  0  0  0  0  0  0  0  0  0
   -2.9014   -1.2031    0.9323 H   0  0  0  0  0  0  0  0  0  0  0  0
   -1.4235   -0.4989    1.5893 H   0  0  0  0  0  0  0  0  0  0  0  0
   -2.5606    0.0727   -1.1959 H   0  0  0  0  0  0  0  0  0  0  0  0
   -2.8383    1.0988    0.2350 H   0  0  0  0  0  0  0  0  0  0  0  0
   -0.0269    1.2993    1.2529 H   0  0  0  0  0  0  0  0  0  0  0  0
   -1.1603    2.6029    0.7993 H   0  0  0  0  0  0  0  0  0  0  0  0
    0.4105    2.4440   -0.0324 H   0  0  0  0  0  0  0  0  0  0  0  0
  1  2  1  0
  1  4  1  0
  2  3  2  3
  3  5  1  0
  6  7  1  0
  6 11  1  0
  6 12  1  0
  6 13  1  0
  7  8  1  0
  7 14  1  0
  7 15  1  0
  8  9  1  0
  8 16  1  0
  8 17  1  0
  9 10  1  0
 10 18  1  0
 10 19  1  0
 10 20  1  0
M  RAD  1   3   2
M  END
>  <reaction>  (14) 
rmg_rxn_15521

>  <mol_properties>  (14) 
{"1": {"label": "*4", "atom_type": "N3d"}, "2": {"label": "*3", "atom_type": "Cd"}, "5": {"label": "*1", "atom_type": "Cs"}, "6": {"label": "*0", "atom_type": "Cs"}, "10": {"label": "*2", "atom_type": "H0"}}

>  <type>  (14) 
unop_10

>  <geom_source>  (14) 
Heuristics

$$$$

     RDKit          3D

 20 18  0  0  0  0  0  0  0  0999 V2000
    3.5356    0.5759   -0.0440 O   0  0  0  0  0  0  0  0  0  0  0  0
    2.1563    0.5706   -0.1119 N   0  0  0  0  0  0  0  0  0  0  0  0
    1.6285    0.9016    0.9860 C   0  0  0  0  0  0  0  0  0  0  0  0
    3.8023    0.3115   -0.9266 H   0  0  0  0  0  0  0  0  0  0  0  0
    2.2154    1.1560    1.8660 H   0  0  0  0  0  0  0  0  0  0  0  0
   -0.4817   -0.4465    1.7211 C   0  0  0  0  0  3  0  0  0  0  0  0
   -1.7531    0.2045    1.1930 C   0  0  0  0  0  0  0  0  0  0  0  0
   -1.7920    0.2969   -0.3184 C   0  0  0  0  0  0  0  0  0  0  0  0
   -1.7920   -0.9985   -0.8653 O   0  0  0  0  0  0  0  0  0  0  0  0
   -1.7920   -0.9985   -2.2646 C   0  0  0  0  0  0  0  0  0  0  0  0
    0.5787    0.2310    1.3517 H   0  0  0  0  0  0  0  0  0  0  0  0
   -0.3802   -1.4622    1.3389 H   0  0  0  0  0  0  0  0  0  0  0  0
   -0.4873   -0.4910    2.8111 H   0  0  0  0  0  0  0  0  0  0  0  0
   -2.6294   -0.3557    1.5290 H   0  0  0  0  0  0  0  0  0  0  0  0
   -1.8517    1.2172    1.5938 H   0  0  0  0  0  0  0  0  0  0  0  0
   -2.6909    0.8406   -0.6448 H   0  0  0  0  0  0  0  0  0  0  0  0
   -0.9182    0.8580   -0.6862 H   0  0  0  0  0  0  0  0  0  0  0  0
   -0.9008   -0.4983   -2.6673 H   0  0  0  0  0  0  0  0  0  0  0  0
   -2.6812   -0.4947   -2.6678 H   0  0  0  0  0  0  0  0  0  0  0  0
   -1.7942   -2.0362   -2.5953 H   0  0  0  0  0  0  0  0  0  0  0  0
  1  2  1  0
  1  4  1  0
  2  3  2  3
  3  5  1  0
  3 11  1  0
  6  7  1  0
  6 12  1  0
  6 13  1  0
  7  8  1  0
  7 14  1  0
  7 15  1  0
  8  9  1  0
  8 16  1  0
  8 17  1  0
  9 10  1  0
 10 18  1  0
 10 19  1  0
 10 20  1  0
M  RAD  1   6   2
M  END
>  <reaction>  (15) 
rmg_rxn_15521

>  <mol_properties>  (15) 
{"1": {"label": "*4", "atom_type": "N3d"}, "2": {"label": "*3", "atom_type": "Cd"}, "5": {"label": "*1", "atom_type": "Cs"}, "6": {"label": "*0", "atom_type": "Cs"}, "10": {"label": "*2", "atom_type": "H0"}}

>  <type>  (15) 
unop_11

>  <geom_source>  (15) 
Heuristics

$$$$

     RDKit          3D

 20 18  0  0  0  0  0  0  0  0999 V2000
    3.0967    0.2337   -0.1125 O   0  0  0  0  0  0  0  0  0  0  0  0
    1.8927   -0.4938   -0.2772 N   0  0  0  0  0  0  0  0  0  0  0  0
    1.1661   -0.7369    0.6905 C   0  0  0  0  0  3  0  0  0  0  0  0
    3.4765    0.2690   -1.0008 H   0  0  0  0  0  0  0  0  0  0  0  0
    1.2622   -0.4763    1.7347 H   0  0  0  0  0  0  0  0  0  0  0  0
   -1.0942   -1.8809    0.0089 C   0  0  0  0  0  0  0  0  0  0  0  0
   -1.9122   -0.8125   -0.6657 C   0  0  0  0  0  0  0  0  0  0  0  0
   -2.1327    0.4047    0.2434 C   0  0  0  0  0  0  0  0  0  0  0  0
   -0.9539    1.0896    0.5993 O   0  0  0  0  0  0  0  0  0  0  0  0
   -0.4116    1.8943   -0.4173 C   0  0  0  0  0  0  0  0  0  0  0  0
    0.0438   -1.3382    0.3576 H   0  0  0  0  0  0  0  0  0  0  0  0
   -0.8234   -2.6981   -0.6490 H   0  0  0  0  0  0  0  0  0  0  0  0
   -1.5323   -2.2349    0.9356 H   0  0  0  0  0  0  0  0  0  0  0  0
   -1.4223   -0.5000   -1.5899 H   0  0  0  0  0  0  0  0  0  0  0  0
   -2.9010   -1.2033   -0.9336 H   0  0  0  0  0  0  0  0  0  0  0  0
   -2.8369    1.1000   -0.2393 H   0  0  0  0  0  0  0  0  0  0  0  0
   -2.5639    0.0746    1.1930 H   0  0  0  0  0  0  0  0  0  0  0  0
    0.4140    2.4404    0.0349 H   0  0  0  0  0  0  0  0  0  0  0  0
   -1.1563    2.6055   -0.7965 H   0  0  0  0  0  0  0  0  0  0  0  0
   -0.0270    1.2992   -1.2522 H   0  0  0  0  0  0  0  0  0  0  0  0
  1  2  1  0
  1  4  1  0
  2  3  2  3
  3  5  1  0
  6  7  1  0
  6 11  1  0
  6 12  1  0
  6 13  1  0
  7  8  1  0
  7 14  1  0
  7 15  1  0
  8  9  1  0
  8 16  1  0
  8 17  1  0
  9 10  1  0
 10 18  1  0
 10 19  1  0
 10 20  1  0
M  RAD  1   3   2
M  END
>  <reaction>  (16) 
rmg_rxn_15521

>  <mol_properties>  (16) 
{"1": {"label": "*4", "atom_type": "N3d"}, "2": {"label": "*3", "atom_type": "Cd"}, "5": {"label": "*1", "atom_type": "Cs"}, "6": {"label": "*0", "atom_type": "Cs"}, "10": {"label": "*2", "atom_type": "H0"}}

>  <type>  (16) 
unop_12

>  <geom_source>  (16) 
Heuristics

$$$$

     RDKit          3D

 20 18  0  0  0  0  0  0  0  0999 V2000
    3.6996    0.5886    0.5306 O   0  0  0  0  0  0  0  0  0  0  0  0
    2.4054    0.3206    0.1304 N   0  0  0  0  0  0  0  0  0  0  0  0
    1.5568    0.9376    0.8324 C   0  0  0  0  0  0  0  0  0  0  0  0
    4.2314    0.0669   -0.0736 H   0  0  0  0  0  0  0  0  0  0  0  0
    1.8400    1.5967    1.6503 H   0  0  0  0  0  0  0  0  0  0  0  0
   -0.5533   -0.4105    1.5674 C   0  0  0  0  0  3  0  0  0  0  0  0
   -1.8247    0.2406    1.0394 C   0  0  0  0  0  0  0  0  0  0  0  0
   -1.8637    0.3330   -0.4721 C   0  0  0  0  0  0  0  0  0  0  0  0
   -1.8637   -0.9624   -1.0189 O   0  0  0  0  0  0  0  0  0  0  0  0
   -1.8637   -0.9624   -2.4182 C   0  0  0  0  0  0  0  0  0  0  0  0
    0.5071    0.2670    1.1980 H   0  0  0  0  0  0  0  0  0  0  0  0
   -0.4518   -1.4262    1.1853 H   0  0  0  0  0  0  0  0  0  0  0  0
   -0.5589   -0.4550    2.6575 H   0  0  0  0  0  0  0  0  0  0  0  0
   -2.7011   -0.3197    1.3754 H   0  0  0  0  0  0  0  0  0  0  0  0
   -1.9234    1.2532    1.4402 H   0  0  0  0  0  0  0  0  0  0  0  0
   -2.7625    0.8766   -0.7985 H   0  0  0  0  0  0  0  0  0  0  0  0
   -0.9898    0.8941   -0.8399 H   0  0  0  0  0  0  0  0  0  0  0  0
   -0.9724   -0.4623   -2.8209 H   0  0  0  0  0  0  0  0  0  0  0  0
   -2.7528   -0.4587   -2.8214 H   0  0  0  0  0  0  0  0  0  0  0  0
   -1.8659   -2.0002   -2.7489 H   0  0  0  0  0  0  0  0  0  0  0  0
  1  2  1  0
  1  4  1  0
  2  3  2  3
  3  5  1  0
  3 11  1  0
  6  7  1  0
  6 12  1  0
  6 13  1  0
  7  8  1  0
  7 14  1  0
  7 15  1  0
  8  9  1  0
  8 16  1  0
  8 17  1  0
  9 10  1  0
 10 18  1  0
 10 19  1  0
 10 20  1  0
M  RAD  1   6   2
M  END
>  <reaction>  (17) 
rmg_rxn_15521

>  <mol_properties>  (17) 
{"1": {"label": "*4", "atom_type": "N3d"}, "2": {"label": "*3", "atom_type": "Cd"}, "5": {"label": "*1", "atom_type": "Cs"}, "6": {"label": "*0", "atom_type": "Cs"}, "10": {"label": "*2", "atom_type": "H0"}}

>  <type>  (17) 
unop_13

>  <geom_source>  (17) 
Heuristics

$$$$

     RDKit          3D

 20 18  0  0  0  0  0  0  0  0999 V2000
    3.0990    0.2346   -0.1116 O   0  0  0  0  0  0  0  0  0  0  0  0
    1.8949   -0.4924   -0.2770 N   0  0  0  0  0  0  0  0  0  0  0  0
    1.1670   -0.7345    0.6900 C   0  0  0  0  0  3  0  0  0  0  0  0
    3.4801    0.2685   -0.9994 H   0  0  0  0  0  0  0  0  0  0  0  0
    1.2615   -0.4727    1.7340 H   0  0  0  0  0  0  0  0  0  0  0  0
   -1.0917   -1.8814    0.0080 C   0  0  0  0  0  0  0  0  0  0  0  0
   -1.9127   -0.8141   -0.6648 C   0  0  0  0  0  0  0  0  0  0  0  0
   -2.1338    0.4025    0.2451 C   0  0  0  0  0  0  0  0  0  0  0  0
   -0.9559    1.0897    0.5990 O   0  0  0  0  0  0  0  0  0  0  0  0
   -0.4157    1.8939   -0.4193 C   0  0  0  0  0  0  0  0  0  0  0  0
    0.0454   -1.3370    0.3567 H   0  0  0  0  0  0  0  0  0  0  0  0
   -0.8202   -2.6975   -0.6509 H   0  0  0  0  0  0  0  0  0  0  0  0
   -1.5283   -2.2370    0.9348 H   0  0  0  0  0  0  0  0  0  0  0  0
   -1.4248   -0.5003   -1.5896 H   0  0  0  0  0  0  0  0  0  0  0  0
   -2.9012   -1.2066   -0.9313 H   0  0  0  0  0  0  0  0  0  0  0  0
   -2.8404    1.0964   -0.2361 H   0  0  0  0  0  0  0  0  0  0  0  0
   -2.5625    0.0712    1.1953 H   0  0  0  0  0  0  0  0  0  0  0  0
   -0.0281    1.2982   -1.2523 H   0  0  0  0  0  0  0  0  0  0  0  0
    0.4074    2.4443    0.0323 H   0  0  0  0  0  0  0  0  0  0  0  0
   -1.1628    2.6014   -0.8008 H   0  0  0  0  0  0  0  0  0  0  0  0
  1  2  1  0
  1  4  1  0
  2  3  2  3
  3  5  1  0
  6  7  1  0
  6 11  1  0
  6 12  1  0
  6 13  1  0
  7  8  1  0
  7 14  1  0
  7 15  1  0
  8  9  1  0
  8 16  1  0
  8 17  1  0
  9 10  1  0
 10 18  1  0
 10 19  1  0
 10 20  1  0
M  RAD  1   3   2
M  END
>  <reaction>  (18) 
rmg_rxn_15521

>  <mol_properties>  (18) 
{"1": {"label": "*4", "atom_type": "N3d"}, "2": {"label": "*3", "atom_type": "Cd"}, "5": {"label": "*1", "atom_type": "Cs"}, "6": {"label": "*0", "atom_type": "Cs"}, "10": {"label": "*2", "atom_type": "H0"}}

>  <type>  (18) 
unop_14

>  <geom_source>  (18) 
Heuristics

$$$$

     RDKit          3D

 20 18  0  0  0  0  0  0  0  0999 V2000
    3.4281    1.5198    1.3785 O   0  0  0  0  0  0  0  0  0  0  0  0
    2.0522    1.4844    1.2652 N   0  0  0  0  0  0  0  0  0  0  0  0
    1.6663    0.5696    0.4856 C   0  0  0  0  0  0  0  0  0  0  0  0
    3.5821    2.2449    1.9872 H   0  0  0  0  0  0  0  0  0  0  0  0
    2.3582   -0.0979   -0.0237 H   0  0  0  0  0  0  0  0  0  0  0  0
   -0.4438   -0.7785    1.2207 C   0  0  0  0  0  3  0  0  0  0  0  0
   -1.7153   -0.1275    0.6927 C   0  0  0  0  0  0  0  0  0  0  0  0
   -1.7542   -0.0351   -0.8188 C   0  0  0  0  0  0  0  0  0  0  0  0
   -1.7542   -1.3305   -1.3656 O   0  0  0  0  0  0  0  0  0  0  0  0
   -1.7542   -1.3305   -2.7650 C   0  0  0  0  0  0  0  0  0  0  0  0
    0.6166   -0.1010    0.8513 H   0  0  0  0  0  0  0  0  0  0  0  0
   -0.3424   -1.7942    0.8386 H   0  0  0  0  0  0  0  0  0  0  0  0
   -0.4495   -0.8230    2.3107 H   0  0  0  0  0  0  0  0  0  0  0  0
   -2.5916   -0.6877    1.0287 H   0  0  0  0  0  0  0  0  0  0  0  0
   -1.8139    0.8852    1.0935 H   0  0  0  0  0  0  0  0  0  0  0  0
   -2.6531    0.5086   -1.1452 H   0  0  0  0  0  0  0  0  0  0  0  0
   -0.8804    0.5260   -1.1866 H   0  0  0  0  0  0  0  0  0  0  0  0
   -0.8630   -0.8303   -3.1677 H   0  0  0  0  0  0  0  0  0  0  0  0
   -2.6434   -0.8267   -3.1681 H   0  0  0  0  0  0  0  0  0  0  0  0
   -1.7564   -2.3683   -3.0956 H   0  0  0  0  0  0  0  0  0  0  0  0
  1  2  1  0
  1  4  1  0
  2  3  2  3
  3  5  1  0
  3 11  1  0
  6  7  1  0
  6 12  1  0
  6 13  1  0
  7  8  1  0
  7 14  1  0
  7 15  1  0
  8  9  1  0
  8 16  1  0
  8 17  1  0
  9 10  1  0
 10 18  1  0
 10 19  1  0
 10 20  1  0
M  RAD  1   6   2
M  END
>  <reaction>  (19) 
rmg_rxn_15521

>  <mol_properties>  (19) 
{"1": {"label": "*4", "atom_type": "N3d"}, "2": {"label": "*3", "atom_type": "Cd"}, "5": {"label": "*1", "atom_type": "Cs"}, "6": {"label": "*0", "atom_type": "Cs"}, "10": {"label": "*2", "atom_type": "H0"}}

>  <type>  (19) 
unop_15

>  <geom_source>  (19) 
Heuristics

$$$$

     RDKit          3D

 20 18  0  0  0  0  0  0  0  0999 V2000
    3.0953   -0.2325   -0.1118 O   0  0  0  0  0  0  0  0  0  0  0  0
    1.8916    0.4951   -0.2773 N   0  0  0  0  0  0  0  0  0  0  0  0
    1.1645    0.7387    0.6899 C   0  0  0  0  0  3  0  0  0  0  0  0
    3.4758   -0.2678   -0.9999 H   0  0  0  0  0  0  0  0  0  0  0  0
    1.2595    0.4778    1.7341 H   0  0  0  0  0  0  0  0  0  0  0  0
   -1.0966    1.8806    0.0077 C   0  0  0  0  0  0  0  0  0  0  0  0
   -1.9138    0.8103   -0.6651 C   0  0  0  0  0  0  0  0  0  0  0  0
   -2.1310   -0.4068    0.2450 C   0  0  0  0  0  0  0  0  0  0  0  0
   -0.9507   -1.0899    0.5992 O   0  0  0  0  0  0  0  0  0  0  0  0
   -0.4086   -1.8937   -0.4183 C   0  0  0  0  0  0  0  0  0  0  0  0
    0.0421    1.3397    0.3566 H   0  0  0  0  0  0  0  0  0  0  0  0
   -1.5346    2.2348    0.9344 H   0  0  0  0  0  0  0  0  0  0  0  0
   -0.8277    2.6975   -0.6512 H   0  0  0  0  0  0  0  0  0  0  0  0
   -2.9035    1.1992   -0.9321 H   0  0  0  0  0  0  0  0  0  0  0  0
   -1.4245    0.4979   -1.5897 H   0  0  0  0  0  0  0  0  0  0  0  0
   -2.5609   -0.0767    1.1952 H   0  0  0  0  0  0  0  0  0  0  0  0
   -2.8351   -1.1033   -0.2360 H   0  0  0  0  0  0  0  0  0  0  0  0
    0.4175   -2.4398    0.0331 H   0  0  0  0  0  0  0  0  0  0  0  0
   -0.0246   -1.2978   -1.2530 H   0  0  0  0  0  0  0  0  0  0  0  0
   -1.1532   -2.6050   -0.7976 H   0  0  0  0  0  0  0  0  0  0  0  0
  1  2  1  0
  1  4  1  0
  2  3  2  3
  3  5  1  0
  6  7  1  0
  6 11  1  0
  6 12  1  0
  6 13  1  0
  7  8  1  0
  7 14  1  0
  7 15  1  0
  8  9  1  0
  8 16  1  0
  8 17  1  0
  9 10  1  0
 10 18  1  0
 10 19  1  0
 10 20  1  0
M  RAD  1   3   2
M  END
>  <reaction>  (20) 
rmg_rxn_15521

>  <mol_properties>  (20) 
{"1": {"label": "*4", "atom_type": "N3d"}, "2": {"label": "*3", "atom_type": "Cd"}, "5": {"label": "*1", "atom_type": "Cs"}, "6": {"label": "*0", "atom_type": "Cs"}, "10": {"label": "*2", "atom_type": "H0"}}

>  <type>  (20) 
unop_16

>  <geom_source>  (20) 
Heuristics

$$$$

     RDKit          3D

 20 18  0  0  0  0  0  0  0  0999 V2000
    2.9733    1.5630   -0.5190 O   0  0  0  0  0  0  0  0  0  0  0  0
    1.7287    1.2219   -0.0273 N   0  0  0  0  0  0  0  0  0  0  0  0
    1.8082    0.6014    1.0691 C   0  0  0  0  0  0  0  0  0  0  0  0
    2.7709    2.0194   -1.3380 H   0  0  0  0  0  0  0  0  0  0  0  0
    2.7587    0.3754    1.5477 H   0  0  0  0  0  0  0  0  0  0  0  0
   -0.3019   -0.7467    1.8041 C   0  0  0  0  0  3  0  0  0  0  0  0
   -1.5733   -0.0957    1.2761 C   0  0  0  0  0  0  0  0  0  0  0  0
   -1.6123   -0.0033   -0.2354 C   0  0  0  0  0  0  0  0  0  0  0  0
   -1.6123   -1.2987   -0.7822 O   0  0  0  0  0  0  0  0  0  0  0  0
   -1.6123   -1.2987   -2.1815 C   0  0  0  0  0  0  0  0  0  0  0  0
    0.7585   -0.0693    1.4347 H   0  0  0  0  0  0  0  0  0  0  0  0
   -0.2004   -1.7624    1.4220 H   0  0  0  0  0  0  0  0  0  0  0  0
   -0.3075   -0.7913    2.8942 H   0  0  0  0  0  0  0  0  0  0  0  0
   -2.4497   -0.6560    1.6121 H   0  0  0  0  0  0  0  0  0  0  0  0
   -1.6720    0.9170    1.6769 H   0  0  0  0  0  0  0  0  0  0  0  0
   -2.5112    0.5404   -0.5617 H   0  0  0  0  0  0  0  0  0  0  0  0
   -0.7384    0.5578   -0.6032 H   0  0  0  0  0  0  0  0  0  0  0  0
   -0.7210   -0.7985   -2.5842 H   0  0  0  0  0  0  0  0  0  0  0  0
   -2.5014   -0.7949   -2.5847 H   0  0  0  0  0  0  0  0  0  0  0  0
   -1.6145   -2.3365   -2.5122 H   0  0  0  0  0  0  0  0  0  0  0  0
  1  2  1  0
  1  4  1  0
  2  3  2  3
  3  5  1  0
  3 11  1  0
  6  7  1  0
  6 12  1  0
  6 13  1  0
  7  8  1  0
  7 14  1  0
  7 15  1  0
  8  9  1  0
  8 16  1  0
  8 17  1  0
  9 10  1  0
 10 18  1  0
 10 19  1  0
 10 20  1  0
M  RAD  1   6   2
M  END
>  <reaction>  (21) 
rmg_rxn_15521

>  <mol_properties>  (21) 
{"1": {"label": "*4", "atom_type": "N3d"}, "2": {"label": "*3", "atom_type": "Cd"}, "5": {"label": "*1", "atom_type": "Cs"}, "6": {"label": "*0", "atom_type": "Cs"}, "10": {"label": "*2", "atom_type": "H0"}}

>  <type>  (21) 
unop_17

>  <geom_source>  (21) 
Heuristics

$$$$

     RDKit          3D

 20 18  0  0  0  0  0  0  0  0999 V2000
    3.1300    2.0440    1.1720 O   0  0  0  0  0  0  0  0  0  0  0  0
    1.8267    1.6403    0.9584 N   0  0  0  0  0  0  0  0  0  0  0  0
    1.7614    0.4395    0.5748 C   0  0  0  0  0  0  0  0  0  0  0  0
    3.0365    2.9560    1.4540 H   0  0  0  0  0  0  0  0  0  0  0  0
    2.6442   -0.1812    0.4370 H   0  0  0  0  0  0  0  0  0  0  0  0
   -0.3487   -0.9086    1.3098 C   0  0  0  0  0  3  0  0  0  0  0  0
   -1.6202   -0.2576    0.7818 C   0  0  0  0  0  0  0  0  0  0  0  0
   -1.6591   -0.1652   -0.7297 C   0  0  0  0  0  0  0  0  0  0  0  0
   -1.6591   -1.4606   -1.2765 O   0  0  0  0  0  0  0  0  0  0  0  0
   -1.6591   -1.4606   -2.6758 C   0  0  0  0  0  0  0  0  0  0  0  0
    0.7117   -0.2312    0.9404 H   0  0  0  0  0  0  0  0  0  0  0  0
   -0.2473   -1.9243    0.9277 H   0  0  0  0  0  0  0  0  0  0  0  0
   -0.3543   -0.9532    2.3999 H   0  0  0  0  0  0  0  0  0  0  0  0
   -2.4965   -0.8179    1.1178 H   0  0  0  0  0  0  0  0  0  0  0  0
   -1.7188    0.7551    1.1826 H   0  0  0  0  0  0  0  0  0  0  0  0
   -2.5580    0.3785   -1.0560 H   0  0  0  0  0  0  0  0  0  0  0  0
   -0.7852    0.3959   -1.0975 H   0  0  0  0  0  0  0  0  0  0  0  0
   -0.7679   -0.9604   -3.0785 H   0  0  0  0  0  0  0  0  0  0  0  0
   -2.5482   -0.9568   -3.0790 H   0  0  0  0  0  0  0  0  0  0  0  0
   -1.6613   -2.4984   -3.0065 H   0  0  0  0  0  0  0  0  0  0  0  0
  1  2  1  0
  1  4  1  0
  2  3  2  3
  3  5  1  0
  3 11  1  0
  6  7  1  0
  6 12  1  0
  6 13  1  0
  7  8  1  0
  7 14  1  0
  7 15  1  0
  8  9  1  0
  8 16  1  0
  8 17  1  0
  9 10  1  0
 10 18  1  0
 10 19  1  0
 10 20  1  0
M  RAD  1   6   2
M  END
>  <reaction>  (22) 
rmg_rxn_15521

>  <mol_properties>  (22) 
{"1": {"label": "*4", "atom_type": "N3d"}, "2": {"label": "*3", "atom_type": "Cd"}, "5": {"label": "*1", "atom_type": "Cs"}, "6": {"label": "*0", "atom_type": "Cs"}, "10": {"label": "*2", "atom_type": "H0"}}

>  <type>  (22) 
unop_18

>  <geom_source>  (22) 
Heuristics

$$$$

     RDKit          3D

 20 18  0  0  0  0  0  0  0  0999 V2000
    3.7100    0.9567    0.8710 O   0  0  0  0  0  0  0  0  0  0  0  0
    2.5904    0.2192    0.5397 N   0  0  0  0  0  0  0  0  0  0  0  0
    1.5262    0.8788    0.7003 C   0  0  0  0  0  0  0  0  0  0  0  0
    4.4332    0.3487    0.7060 H   0  0  0  0  0  0  0  0  0  0  0  0
    1.5210    1.9059    1.0590 H   0  0  0  0  0  0  0  0  0  0  0  0
   -0.5839   -0.4693    1.4354 C   0  0  0  0  0  3  0  0  0  0  0  0
   -1.8554    0.1817    0.9073 C   0  0  0  0  0  0  0  0  0  0  0  0
   -1.8943    0.2741   -0.6041 C   0  0  0  0  0  0  0  0  0  0  0  0
   -1.8943   -1.0213   -1.1510 O   0  0  0  0  0  0  0  0  0  0  0  0
   -1.8943   -1.0213   -2.5503 C   0  0  0  0  0  0  0  0  0  0  0  0
    0.4765    0.2082    1.0660 H   0  0  0  0  0  0  0  0  0  0  0  0
   -0.4825   -1.4850    1.0532 H   0  0  0  0  0  0  0  0  0  0  0  0
   -0.5896   -0.5138    2.5254 H   0  0  0  0  0  0  0  0  0  0  0  0
   -2.7317   -0.3785    1.2433 H   0  0  0  0  0  0  0  0  0  0  0  0
   -1.9540    1.1944    1.3081 H   0  0  0  0  0  0  0  0  0  0  0  0
   -2.7932    0.8178   -0.9305 H   0  0  0  0  0  0  0  0  0  0  0  0
   -1.0205    0.8352   -0.9719 H   0  0  0  0  0  0  0  0  0  0  0  0
   -1.0031   -0.5211   -2.9530 H   0  0  0  0  0  0  0  0  0  0  0  0
   -2.7835   -0.5175   -2.9535 H   0  0  0  0  0  0  0  0  0  0  0  0
   -1.8965   -2.0591   -2.8810 H   0  0  0  0  0  0  0  0  0  0  0  0
  1  2  1  0
  1  4  1  0
  2  3  2  3
  3  5  1  0
  3 11  1  0
  6  7  1  0
  6 12  1  0
  6 13  1  0
  7  8  1  0
  7 14  1  0
  7 15  1  0
  8  9  1  0
  8 16  1  0
  8 17  1  0
  9 10  1  0
 10 18  1  0
 10 19  1  0
 10 20  1  0
M  RAD  1   6   2
M  END
>  <reaction>  (23) 
rmg_rxn_15521

>  <mol_properties>  (23) 
{"1": {"label": "*4", "atom_type": "N3d"}, "2": {"label": "*3", "atom_type": "Cd"}, "5": {"label": "*1", "atom_type": "Cs"}, "6": {"label": "*0", "atom_type": "Cs"}, "10": {"label": "*2", "atom_type": "H0"}}

>  <type>  (23) 
unop_19

>  <geom_source>  (23) 
Heuristics

$$$$

     RDKit          3D

 20 18  0  0  0  0  0  0  0  0999 V2000
    2.8255    2.1181   -0.0925 O   0  0  0  0  0  0  0  0  0  0  0  0
    1.6472    1.4801    0.2418 N   0  0  0  0  0  0  0  0  0  0  0  0
    1.8507    0.4492    0.9412 C   0  0  0  0  0  0  0  0  0  0  0  0
    2.5318    2.8686   -0.6126 H   0  0  0  0  0  0  0  0  0  0  0  0
    2.8476    0.1248    1.2318 H   0  0  0  0  0  0  0  0  0  0  0  0
   -0.2594   -0.8989    1.6763 C   0  0  0  0  0  3  0  0  0  0  0  0
   -1.5309   -0.2479    1.1483 C   0  0  0  0  0  0  0  0  0  0  0  0
   -1.5698   -0.1555   -0.3632 C   0  0  0  0  0  0  0  0  0  0  0  0
   -1.5698   -1.4509   -0.9101 O   0  0  0  0  0  0  0  0  0  0  0  0
   -1.5698   -1.4509   -2.3094 C   0  0  0  0  0  0  0  0  0  0  0  0
    0.8010   -0.2214    1.3069 H   0  0  0  0  0  0  0  0  0  0  0  0
   -0.1580   -1.9146    1.2942 H   0  0  0  0  0  0  0  0  0  0  0  0
   -0.2650   -0.9435    2.7663 H   0  0  0  0  0  0  0  0  0  0  0  0
   -2.4072   -0.8082    1.4843 H   0  0  0  0  0  0  0  0  0  0  0  0
   -1.6295    0.7648    1.5491 H   0  0  0  0  0  0  0  0  0  0  0  0
   -2.4687    0.3882   -0.6896 H   0  0  0  0  0  0  0  0  0  0  0  0
   -0.6959    0.4056   -0.7310 H   0  0  0  0  0  0  0  0  0  0  0  0
   -0.6786   -0.9507   -2.7121 H   0  0  0  0  0  0  0  0  0  0  0  0
   -2.4589   -0.9471   -2.7125 H   0  0  0  0  0  0  0  0  0  0  0  0
   -1.5720   -2.4887   -2.6400 H   0  0  0  0  0  0  0  0  0  0  0  0
  1  2  1  0
  1  4  1  0
  2  3  2  3
  3  5  1  0
  3 11  1  0
  6  7  1  0
  6 12  1  0
  6 13  1  0
  7  8  1  0
  7 14  1  0
  7 15  1  0
  8  9  1  0
  8 16  1  0
  8 17  1  0
  9 10  1  0
 10 18  1  0
 10 19  1  0
 10 20  1  0
M  RAD  1   6   2
M  END
>  <reaction>  (24) 
rmg_rxn_15521

>  <mol_properties>  (24) 
{"1": {"label": "*4", "atom_type": "N3d"}, "2": {"label": "*3", "atom_type": "Cd"}, "5": {"label": "*1", "atom_type": "Cs"}, "6": {"label": "*0", "atom_type": "Cs"}, "10": {"label": "*2", "atom_type": "H0"}}

>  <type>  (24) 
unop_20

>  <geom_source>  (24) 
Heuristics

$$$$

     RDKit          3D

 20 18  0  0  0  0  0  0  0  0999 V2000
   -1.2520    0.6594    0.1246 O   0  0  0  0  0  0  0  0  0  0  0  0
    3.5877    1.8880    1.0450 O   0  0  0  0  0  0  0  0  0  0  0  0
    2.4021    1.3220    0.6389 N   0  0  0  0  0  0  0  0  0  0  0  0
   -0.3881   -1.5823    0.1835 C   0  0  0  0  0  0  0  0  0  0  0  0
   -1.6281   -0.7002    0.0521 C   0  0  0  0  0  0  0  0  0  0  0  0
   -2.3987    1.4686   -0.0080 C   0  0  0  0  0  0  0  0  0  0  0  0
    0.5827   -1.3439   -0.9665 C   0  0  0  0  0  3  0  0  0  0  0  0
    2.4000    0.2945   -0.1444 C   0  0  0  0  0  0  0  0  0  0  0  0
   -0.6934   -2.6511    0.1886 H   0  0  0  0  0  0  0  0  0  0  0  0
    0.1232   -1.3596    1.1447 H   0  0  0  0  0  0  0  0  0  0  0  0
   -2.3206   -0.9579    0.8860 H   0  0  0  0  0  0  0  0  0  0  0  0
   -2.1294   -0.9269   -0.9175 H   0  0  0  0  0  0  0  0  0  0  0  0
   -2.8840    1.3202   -0.9983 H   0  0  0  0  0  0  0  0  0  0  0  0
   -3.1246    1.2780    0.8137 H   0  0  0  0  0  0  0  0  0  0  0  0
   -2.0902    2.5322    0.0577 H   0  0  0  0  0  0  0  0  0  0  0  0
    1.5034   -1.9460   -0.8163 H   0  0  0  0  0  0  0  0  0  0  0  0
    0.1162   -1.6274   -1.9340 H   0  0  0  0  0  0  0  0  0  0  0  0
    3.3309   -0.1356   -0.4923 H   0  0  0  0  0  0  0  0  0  0  0  0
    1.2826   -0.2247   -0.5163 H   0  0  0  0  0  0  0  0  0  0  0  0
    3.5803    2.6928    1.6588 H   0  0  0  0  0  0  0  0  0  0  0  0
  1  6  1  0
  1  5  1  0
  2  3  1  0
  2 20  1  0
  3  8  2  3
  4  7  1  0
  4  5  1  0
  4  9  1  0
  4 10  1  0
  5 11  1  0
  5 12  1  0
  6 13  1  0
  6 14  1  0
  6 15  1  0
  7 16  1  0
  7 17  1  0
  8 18  1  0
  8 19  1  0
M  RAD  1   7   2
M  END
>  <reaction>  (25) 
rmg_rxn_15521

>  <mol_properties>  (25) 
{"1": {"label": "*4", "atom_type": "N3d"}, "2": {"label": "*3", "atom_type": "Cd"}, "5": {"label": "*1", "atom_type": "Cs"}, "6": {"label": "*0", "atom_type": "Cs"}, "10": {"label": "*2", "atom_type": "H0"}}

>  <type>  (25) 
unop_21

>  <geom_source>  (25) 
AutoTST

$$$$

     RDKit          3D

 20 18  0  0  0  0  0  0  0  0999 V2000
    2.8890    2.3027    0.5959 O   0  0  0  0  0  0  0  0  0  0  0  0
    1.6820    1.6318    0.5905 N   0  0  0  0  0  0  0  0  0  0  0  0
    1.8325    0.3884    0.7481 C   0  0  0  0  0  0  0  0  0  0  0  0
    2.6344    3.2188    0.4696 H   0  0  0  0  0  0  0  0  0  0  0  0
    2.8098   -0.0733    0.8714 H   0  0  0  0  0  0  0  0  0  0  0  0
   -0.2776   -0.9597    1.4832 C   0  0  0  0  0  3  0  0  0  0  0  0
   -1.5491   -0.3086    0.9552 C   0  0  0  0  0  0  0  0  0  0  0  0
   -1.5880   -0.2162   -0.5563 C   0  0  0  0  0  0  0  0  0  0  0  0
   -1.5880   -1.5116   -1.1031 O   0  0  0  0  0  0  0  0  0  0  0  0
   -1.5880   -1.5116   -2.5025 C   0  0  0  0  0  0  0  0  0  0  0  0
    0.7828   -0.2822    1.1138 H   0  0  0  0  0  0  0  0  0  0  0  0
   -0.1762   -1.9754    1.1011 H   0  0  0  0  0  0  0  0  0  0  0  0
   -0.2833   -1.0042    2.5732 H   0  0  0  0  0  0  0  0  0  0  0  0
   -2.4254   -0.8689    1.2912 H   0  0  0  0  0  0  0  0  0  0  0  0
   -1.6477    0.7040    1.3560 H   0  0  0  0  0  0  0  0  0  0  0  0
   -2.4869    0.3274   -0.8827 H   0  0  0  0  0  0  0  0  0  0  0  0
   -0.7141    0.3449   -0.9241 H   0  0  0  0  0  0  0  0  0  0  0  0
   -0.6968   -1.0115   -2.9052 H   0  0  0  0  0  0  0  0  0  0  0  0
   -2.4772   -1.0079   -2.9056 H   0  0  0  0  0  0  0  0  0  0  0  0
   -1.5902   -2.5494   -2.8331 H   0  0  0  0  0  0  0  0  0  0  0  0
  1  2  1  0
  1  4  1  0
  2  3  2  3
  3  5  1  0
  3 11  1  0
  6  7  1  0
  6 12  1  0
  6 13  1  0
  7  8  1  0
  7 14  1  0
  7 15  1  0
  8  9  1  0
  8 16  1  0
  8 17  1  0
  9 10  1  0
 10 18  1  0
 10 19  1  0
 10 20  1  0
M  RAD  1   6   2
M  END
>  <reaction>  (26) 
rmg_rxn_15521

>  <mol_properties>  (26) 
{"1": {"label": "*4", "atom_type": "N3d"}, "2": {"label": "*3", "atom_type": "Cd"}, "5": {"label": "*1", "atom_type": "Cs"}, "6": {"label": "*0", "atom_type": "Cs"}, "10": {"label": "*2", "atom_type": "H0"}}

>  <type>  (26) 
unop_22

>  <geom_source>  (26) 
gaussian_log

$$$$
