
     RDKit          3D

 15 14  0  0  0  0  0  0  0  0999 V2000
   -2.0554    0.0723   -0.4910 C   0  0  0  0  0  0  0  0  0  0  0  0
   -0.7461   -0.6266   -0.8178 C   0  0  0  0  0  0  0  0  0  0  0  0
    0.3249    0.2591   -1.9782 S   0  0  0  0  0  0  0  0  0  0  0  0
   -0.7172    0.3642   -3.4551 C   0  0  0  0  0  0  0  0  0  0  0  0
   -1.1375   -0.9737   -4.0409 C   0  0  0  0  0  0  0  0  0  0  0  0
   -2.7005    0.1427   -1.3684 H   0  0  0  0  0  0  0  0  0  0  0  0
   -2.6016   -0.4848    0.2733 H   0  0  0  0  0  0  0  0  0  0  0  0
   -1.8758    1.0825   -0.1213 H   0  0  0  0  0  0  0  0  0  0  0  0
   -0.1320   -0.7246    0.0789 H   0  0  0  0  0  0  0  0  0  0  0  0
   -0.9254   -1.6374   -1.1879 H   0  0  0  0  0  0  0  0  0  0  0  0
   -1.5873    0.9874   -3.2422 H   0  0  0  0  0  0  0  0  0  0  0  0
   -0.1021    0.9161   -4.1678 H   0  0  0  0  0  0  0  0  0  0  0  0
   -1.7876   -1.5224   -3.3574 H   0  0  0  0  0  0  0  0  0  0  0  0
   -0.2676   -1.5962   -4.2534 H   0  0  0  0  0  0  0  0  0  0  0  0
   -1.6916   -0.8229   -4.9700 H   0  0  0  0  0  0  0  0  0  0  0  0
  1  2  1  0
  1  6  1  0
  1  7  1  0
  1  8  1  0
  2  3  1  0
  2  9  1  0
  2 10  1  0
  3  4  1  0
  4  5  1  0
  4 11  1  0
  4 12  1  0
  5 13  1  0
  5 14  1  0
  5 15  1  0
M  END
>  <reaction>  (1) 
rmg_rxn_15410

>  <mol_properties>  (1) 
{"1": {"label": "donator", "atom_type": "Cs"}, "8": {"label": "d_hydrogen", "atom_type": "H0"}}

>  <type>  (1) 
r1h

$$$$

     RDKit          3D

  5  4  0  0  0  0  0  0  0  0999 V2000
    0.8934    0.3742    0.4948 O   0  0  0  0  0  0  0  0  0  0  0  0
    0.1582   -0.1610   -0.5904 N   0  0  0  0  0  0  0  0  0  0  0  0
   -1.0297   -0.3739   -0.4689 C   0  0  0  0  0  3  0  0  0  0  0  0
    1.7804    0.4382    0.1306 H   0  0  0  0  0  0  0  0  0  0  0  0
   -1.8023   -0.2775    0.2859 H   0  0  0  0  0  0  0  0  0  0  0  0
  1  2  1  0
  1  4  1  0
  2  3  2  3
  3  5  1  0
M  RAD  1   3   2
M  END
>  <reaction>  (2) 
rmg_rxn_15410

>  <mol_properties>  (2) 
{"2": {"label": "acceptor", "atom_type": "Cd"}}

>  <type>  (2) 
r2

$$$$

     RDKit          3D

  6  5  0  0  0  0  0  0  0  0999 V2000
    1.2314    0.0428    0.5088 O   0  0  0  0  0  0  0  0  0  0  0  0
    0.2987    0.2341   -0.4915 N   0  0  0  0  0  0  0  0  0  0  0  0
   -0.8599   -0.1122   -0.1290 C   0  0  0  0  0  0  0  0  0  0  0  0
    2.0507    0.3401    0.1082 H   0  0  0  0  0  0  0  0  0  0  0  0
   -1.0700   -0.5112    0.8610 H   0  0  0  0  0  0  0  0  0  0  0  0
   -1.6509    0.0064   -0.8574 H   0  0  0  0  0  0  0  0  0  0  0  0
  1  2  1  0
  1  4  1  0
  2  3  2  3
  3  5  1  0
  3  6  1  0
M  END
>  <reaction>  (3) 
rmg_rxn_15410

>  <mol_properties>  (3) 
{"2": {"label": "acceptor", "atom_type": "Cd"}, "5": {"label": "a_hydrogen", "atom_type": "H0"}}

>  <type>  (3) 
r2h

$$$$

     RDKit          3D

 20 18  0  0  0  0  0  0  0  0999 V2000
   -3.8510   -0.1131    0.0276 O   0  0  0  0  0  0  0  0  0  0  0  0
   -2.5287   -0.5162   -0.2295 N   0  0  0  0  0  0  0  0  0  0  0  0
   -1.7535   -0.3798    0.7298 C   0  0  0  0  0  3  0  0  0  0  0  0
   -4.2913   -0.2919   -0.8066 H   0  0  0  0  0  0  0  0  0  0  0  0
   -1.9664    0.0048    1.7274 H   0  0  0  0  0  0  0  0  0  0  0  0
    0.6104   -1.4515   -1.4422 C   0  0  0  0  0  0  0  0  0  0  0  0
    0.7265   -1.2549    0.0516 C   0  0  0  0  0  0  0  0  0  0  0  0
    2.0495   -0.2452    0.6769 S   0  0  0  0  0  0  0  0  0  0  0  0
    1.9753    1.2302   -0.3689 C   0  0  0  0  0  0  0  0  0  0  0  0
    0.6931    2.0368   -0.2477 C   0  0  0  0  0  0  0  0  0  0  0  0
   -0.2317   -2.1093   -1.6611 H   0  0  0  0  0  0  0  0  0  0  0  0
    0.4264   -0.5088   -1.9586 H   0  0  0  0  0  0  0  0  0  0  0  0
    1.5199   -1.8968   -1.8520 H   0  0  0  0  0  0  0  0  0  0  0  0
   -0.3553   -0.8032    0.4280 H   0  0  0  0  0  0  0  0  0  0  0  0
    0.7958   -2.2004    0.5913 H   0  0  0  0  0  0  0  0  0  0  0  0
    2.8333    1.8196   -0.0413 H   0  0  0  0  0  0  0  0  0  0  0  0
    2.1652    0.9443   -1.4042 H   0  0  0  0  0  0  0  0  0  0  0  0
    0.5103    2.3238    0.7885 H   0  0  0  0  0  0  0  0  0  0  0  0
   -0.1709    1.4706   -0.5972 H   0  0  0  0  0  0  0  0  0  0  0  0
    0.7627    2.9452   -0.8503 H   0  0  0  0  0  0  0  0  0  0  0  0
  1  2  1  0
  1  4  1  0
  2  3  2  3
  3  5  1  0
  6  7  1  0
  6 11  1  0
  6 12  1  0
  6 13  1  0
  7  8  1  0
  7 14  1  0
  7 15  1  0
  8  9  1  0
  9 10  1  0
  9 16  1  0
  9 17  1  0
 10 18  1  0
 10 19  1  0
 10 20  1  0
M  RAD  1   3   2
M  END
>  <reaction>  (4) 
rmg_rxn_15410

>  <mol_properties>  (4) 
{"1": {"label": "*4", "atom_type": "N3d"}, "2": {"label": "*3", "atom_type": "Cd"}, "6": {"label": "*1", "atom_type": "Cs"}, "7": {"label": "*0", "atom_type": "S2s"}, "13": {"label": "*2", "atom_type": "H0"}}

>  <type>  (4) 
ts

$$$$

     RDKit          3D

 20 18  0  0  0  0  0  0  0  0999 V2000
   -3.6202    0.3532    0.0403 O   0  0  0  0  0  0  0  0  0  0  0  0
   -2.2496    0.0446   -0.1122 N   0  0  0  0  0  0  0  0  0  0  0  0
   -1.7024   -0.6991    0.7180 C   0  0  0  0  0  0  0  0  0  0  0  0
   -3.8201    0.9384   -0.7026 H   0  0  0  0  0  0  0  0  0  0  0  0
   -2.1459   -1.1748    1.5849 H   0  0  0  0  0  0  0  0  0  0  0  0
    0.7421   -1.5913   -1.3560 C   0  0  0  0  0  0  0  0  0  0  0  0
    0.7891   -1.3113    0.1226 C   0  0  0  0  0  3  0  0  0  0  0  0
    1.9470   -0.1126    0.7079 S   0  0  0  0  0  0  0  0  0  0  0  0
    1.7935    1.2735   -0.4733 C   0  0  0  0  0  0  0  0  0  0  0  0
    0.4804    2.0199   -0.3417 C   0  0  0  0  0  0  0  0  0  0  0  0
    0.0853   -2.4392   -1.5389 H   0  0  0  0  0  0  0  0  0  0  0  0
    0.3507   -0.7390   -1.9073 H   0  0  0  0  0  0  0  0  0  0  0  0
    1.7326   -1.8355   -1.7454 H   0  0  0  0  0  0  0  0  0  0  0  0
   -0.4658   -0.9506    0.4674 H   0  0  0  0  0  0  0  0  0  0  0  0
    0.9574   -2.2028    0.7231 H   0  0  0  0  0  0  0  0  0  0  0  0
    2.6360    1.9185   -0.2237 H   0  0  0  0  0  0  0  0  0  0  0  0
    1.9400    0.8772   -1.4765 H   0  0  0  0  0  0  0  0  0  0  0  0
    0.3567    2.3874    0.6744 H   0  0  0  0  0  0  0  0  0  0  0  0
   -0.3641    1.3769   -0.5785 H   0  0  0  0  0  0  0  0  0  0  0  0
    0.4767    2.8706   -1.0209 H   0  0  0  0  0  0  0  0  0  0  0  0
  1  2  1  0
  1  4  1  0
  2  3  2  3
  3  5  1  0
  3 14  1  0
  6  7  1  0
  6 11  1  0
  6 12  1  0
  6 13  1  0
  7  8  1  0
  7 15  1  0
  8  9  1  0
  9 10  1  0
  9 16  1  0
  9 17  1  0
 10 18  1  0
 10 19  1  0
 10 20  1  0
M  RAD  1   7   2
M  END
>  <reaction>  (5) 
rmg_rxn_15410

>  <mol_properties>  (5) 
{"1": {"label": "*4", "atom_type": "N3d"}, "2": {"label": "*3", "atom_type": "Cd"}, "6": {"label": "*1", "atom_type": "Cs"}, "7": {"label": "*0", "atom_type": "S2s"}, "13": {"label": "*2", "atom_type": "H0"}}

>  <type>  (5) 
unop_1

>  <geom_source>  (5) 
crest_best.xyz

$$$$

     RDKit          3D

 20 18  0  0  0  0  0  0  0  0999 V2000
   -2.5553   -2.3219    2.0459 O   0  0  0  0  0  0  0  0  0  0  0  0
   -1.7196   -2.3447    0.9468 N   0  0  0  0  0  0  0  0  0  0  0  0
   -1.8670   -1.3228    0.2205 C   0  0  0  0  0  0  0  0  0  0  0  0
   -2.3446   -3.1390    2.5020 H   0  0  0  0  0  0  0  0  0  0  0  0
   -2.5765   -0.5326    0.4567 H   0  0  0  0  0  0  0  0  0  0  0  0
    0.3105   -0.2143   -2.2104 C   0  0  0  0  0  0  0  0  0  0  0  0
    0.3105   -0.2143   -0.6906 C   0  0  0  0  0  3  0  0  0  0  0  0
    0.3105    1.4268    0.0743 S   0  0  0  0  0  0  0  0  0  0  0  0
    1.8511    2.1407   -0.5543 C   0  0  0  0  0  0  0  0  0  0  0  0
    3.1120    1.3818   -0.1751 C   0  0  0  0  0  0  0  0  0  0  0  0
    1.2335    0.2092   -2.6098 H   0  0  0  0  0  0  0  0  0  0  0  0
    0.2279   -1.2355   -2.5890 H   0  0  0  0  0  0  0  0  0  0  0  0
   -0.5252    0.3681   -2.5998 H   0  0  0  0  0  0  0  0  0  0  0  0
   -0.7829   -0.7710   -0.2331 H   0  0  0  0  0  0  0  0  0  0  0  0
    1.1467   -0.7970   -0.3006 H   0  0  0  0  0  0  0  0  0  0  0  0
    1.7799    2.2629   -1.6364 H   0  0  0  0  0  0  0  0  0  0  0  0
    1.8662    3.1439   -0.1250 H   0  0  0  0  0  0  0  0  0  0  0  0
    3.1332    0.3900   -0.6298 H   0  0  0  0  0  0  0  0  0  0  0  0
    3.1827    1.2598    0.9063 H   0  0  0  0  0  0  0  0  0  0  0  0
    3.9968    1.9202   -0.5220 H   0  0  0  0  0  0  0  0  0  0  0  0
  1  2  1  0
  1  4  1  0
  2  3  2  3
  3  5  1  0
  3 14  1  0
  6  7  1  0
  6 11  1  0
  6 12  1  0
  6 13  1  0
  7  8  1  0
  7 15  1  0
  8  9  1  0
  9 10  1  0
  9 16  1  0
  9 17  1  0
 10 18  1  0
 10 19  1  0
 10 20  1  0
M  RAD  1   7   2
M  END
>  <reaction>  (6) 
rmg_rxn_15410

>  <mol_properties>  (6) 
{"1": {"label": "*4", "atom_type": "N3d"}, "2": {"label": "*3", "atom_type": "Cd"}, "6": {"label": "*1", "atom_type": "Cs"}, "7": {"label": "*0", "atom_type": "S2s"}, "13": {"label": "*2", "atom_type": "H0"}}

>  <type>  (6) 
unop_2

>  <geom_source>  (6) 
Heuristics

$$$$

     RDKit          3D

 20 18  0  0  0  0  0  0  0  0999 V2000
   -3.6200    0.3534    0.0405 O   0  0  0  0  0  0  0  0  0  0  0  0
   -2.2492    0.0455   -0.1118 N   0  0  0  0  0  0  0  0  0  0  0  0
   -1.7029   -0.7004    0.7170 C   0  0  0  0  0  0  0  0  0  0  0  0
   -3.8197    0.9400   -0.7015 H   0  0  0  0  0  0  0  0  0  0  0  0
   -2.1475   -1.1782    1.5822 H   0  0  0  0  0  0  0  0  0  0  0  0
    0.7420   -1.5904   -1.3565 C   0  0  0  0  0  0  0  0  0  0  0  0
    0.7891   -1.3114    0.1223 C   0  0  0  0  0  3  0  0  0  0  0  0
    1.9467   -0.1128    0.7082 S   0  0  0  0  0  0  0  0  0  0  0  0
    1.7937    1.2733   -0.4731 C   0  0  0  0  0  0  0  0  0  0  0  0
    0.4808    2.0200   -0.3414 C   0  0  0  0  0  0  0  0  0  0  0  0
    0.3481   -0.7386   -1.9069 H   0  0  0  0  0  0  0  0  0  0  0  0
    1.7328   -1.8319   -1.7468 H   0  0  0  0  0  0  0  0  0  0  0  0
    0.0870   -2.4397   -1.5397 H   0  0  0  0  0  0  0  0  0  0  0  0
   -0.4660   -0.9512    0.4671 H   0  0  0  0  0  0  0  0  0  0  0  0
    0.9576   -2.2033    0.7223 H   0  0  0  0  0  0  0  0  0  0  0  0
    2.6364    1.9180   -0.2236 H   0  0  0  0  0  0  0  0  0  0  0  0
    1.9400    0.8767   -1.4762 H   0  0  0  0  0  0  0  0  0  0  0  0
    0.3576    2.3881    0.6745 H   0  0  0  0  0  0  0  0  0  0  0  0
   -0.3639    1.3771   -0.5776 H   0  0  0  0  0  0  0  0  0  0  0  0
    0.4770    2.8704   -1.0210 H   0  0  0  0  0  0  0  0  0  0  0  0
  1  2  1  0
  1  4  1  0
  2  3  2  3
  3  5  1  0
  3 14  1  0
  6  7  1  0
  6 11  1  0
  6 12  1  0
  6 13  1  0
  7  8  1  0
  7 15  1  0
  8  9  1  0
  9 10  1  0
  9 16  1  0
  9 17  1  0
 10 18  1  0
 10 19  1  0
 10 20  1  0
M  RAD  1   7   2
M  END
>  <reaction>  (7) 
rmg_rxn_15410

>  <mol_properties>  (7) 
{"1": {"label": "*4", "atom_type": "N3d"}, "2": {"label": "*3", "atom_type": "Cd"}, "6": {"label": "*1", "atom_type": "Cs"}, "7": {"label": "*0", "atom_type": "S2s"}, "13": {"label": "*2", "atom_type": "H0"}}

>  <type>  (7) 
unop_3

>  <geom_source>  (7) 
Heuristics

$$$$

     RDKit          3D

 20 18  0  0  0  0  0  0  0  0999 V2000
   -3.1099   -2.9286    0.6012 O   0  0  0  0  0  0  0  0  0  0  0  0
   -2.2263   -2.1434   -0.1128 N   0  0  0  0  0  0  0  0  0  0  0  0
   -1.7061   -1.2453    0.6057 C   0  0  0  0  0  0  0  0  0  0  0  0
   -3.4258   -3.5568   -0.0512 H   0  0  0  0  0  0  0  0  0  0  0  0
   -1.9442   -1.1268    1.6606 H   0  0  0  0  0  0  0  0  0  0  0  0
    0.4714   -0.1369   -1.8252 C   0  0  0  0  0  0  0  0  0  0  0  0
    0.4714   -0.1369   -0.3055 C   0  0  0  0  0  3  0  0  0  0  0  0
    0.4714    1.5042    0.4594 S   0  0  0  0  0  0  0  0  0  0  0  0
    2.0120    2.2182   -0.1692 C   0  0  0  0  0  0  0  0  0  0  0  0
    3.2729    1.4593    0.2100 C   0  0  0  0  0  0  0  0  0  0  0  0
    1.3944    0.2867   -2.2246 H   0  0  0  0  0  0  0  0  0  0  0  0
    0.3888   -1.1580   -2.2039 H   0  0  0  0  0  0  0  0  0  0  0  0
   -0.3643    0.4456   -2.2146 H   0  0  0  0  0  0  0  0  0  0  0  0
   -0.6221   -0.6935    0.1521 H   0  0  0  0  0  0  0  0  0  0  0  0
    1.3076   -0.7195    0.0846 H   0  0  0  0  0  0  0  0  0  0  0  0
    1.9408    2.3404   -1.2512 H   0  0  0  0  0  0  0  0  0  0  0  0
    2.0270    3.2213    0.2601 H   0  0  0  0  0  0  0  0  0  0  0  0
    3.2941    0.4675   -0.2446 H   0  0  0  0  0  0  0  0  0  0  0  0
    3.3436    1.3373    1.2915 H   0  0  0  0  0  0  0  0  0  0  0  0
    4.1576    1.9977   -0.1369 H   0  0  0  0  0  0  0  0  0  0  0  0
  1  2  1  0
  1  4  1  0
  2  3  2  3
  3  5  1  0
  3 14  1  0
  6  7  1  0
  6 11  1  0
  6 12  1  0
  6 13  1  0
  7  8  1  0
  7 15  1  0
  8  9  1  0
  9 10  1  0
  9 16  1  0
  9 17  1  0
 10 18  1  0
 10 19  1  0
 10 20  1  0
M  RAD  1   7   2
M  END
>  <reaction>  (8) 
rmg_rxn_15410

>  <mol_properties>  (8) 
{"1": {"label": "*4", "atom_type": "N3d"}, "2": {"label": "*3", "atom_type": "Cd"}, "6": {"label": "*1", "atom_type": "Cs"}, "7": {"label": "*0", "atom_type": "S2s"}, "13": {"label": "*2", "atom_type": "H0"}}

>  <type>  (8) 
unop_4

>  <geom_source>  (8) 
Heuristics

$$$$

     RDKit          3D

 20 18  0  0  0  0  0  0  0  0999 V2000
   -3.6215    0.3531    0.0409 O   0  0  0  0  0  0  0  0  0  0  0  0
   -2.2509    0.0449   -0.1129 N   0  0  0  0  0  0  0  0  0  0  0  0
   -1.7028   -0.6978    0.7175 C   0  0  0  0  0  0  0  0  0  0  0  0
   -3.8227    0.9371   -0.7026 H   0  0  0  0  0  0  0  0  0  0  0  0
   -2.1453   -1.1726    1.5854 H   0  0  0  0  0  0  0  0  0  0  0  0
    0.7426   -1.5909   -1.3564 C   0  0  0  0  0  0  0  0  0  0  0  0
    0.7885   -1.3110    0.1222 C   0  0  0  0  0  3  0  0  0  0  0  0
    1.9468   -0.1132    0.7086 S   0  0  0  0  0  0  0  0  0  0  0  0
    1.7952    1.2730   -0.4726 C   0  0  0  0  0  0  0  0  0  0  0  0
    0.4821    2.0197   -0.3426 C   0  0  0  0  0  0  0  0  0  0  0  0
    1.7334   -1.8355   -1.7450 H   0  0  0  0  0  0  0  0  0  0  0  0
    0.0855   -2.4384   -1.5400 H   0  0  0  0  0  0  0  0  0  0  0  0
    0.3520   -0.7383   -1.9080 H   0  0  0  0  0  0  0  0  0  0  0  0
   -0.4663   -0.9495    0.4665 H   0  0  0  0  0  0  0  0  0  0  0  0
    0.9557   -2.2027    0.7228 H   0  0  0  0  0  0  0  0  0  0  0  0
    2.6375    1.9178   -0.2219 H   0  0  0  0  0  0  0  0  0  0  0  0
    1.9429    0.8767   -1.4757 H   0  0  0  0  0  0  0  0  0  0  0  0
    0.4796    2.8707   -1.0215 H   0  0  0  0  0  0  0  0  0  0  0  0
    0.3571    2.3868    0.6735 H   0  0  0  0  0  0  0  0  0  0  0  0
   -0.3622    1.3770   -0.5810 H   0  0  0  0  0  0  0  0  0  0  0  0
  1  2  1  0
  1  4  1  0
  2  3  2  3
  3  5  1  0
  3 14  1  0
  6  7  1  0
  6 11  1  0
  6 12  1  0
  6 13  1  0
  7  8  1  0
  7 15  1  0
  8  9  1  0
  9 10  1  0
  9 16  1  0
  9 17  1  0
 10 18  1  0
 10 19  1  0
 10 20  1  0
M  RAD  1   7   2
M  END
>  <reaction>  (9) 
rmg_rxn_15410

>  <mol_properties>  (9) 
{"1": {"label": "*4", "atom_type": "N3d"}, "2": {"label": "*3", "atom_type": "Cd"}, "6": {"label": "*1", "atom_type": "Cs"}, "7": {"label": "*0", "atom_type": "S2s"}, "13": {"label": "*2", "atom_type": "H0"}}

>  <type>  (9) 
unop_5

>  <geom_source>  (9) 
Heuristics

$$$$

     RDKit          3D

 20 18  0  0  0  0  0  0  0  0999 V2000
   -2.8915   -1.9295    2.0198 O   0  0  0  0  0  0  0  0  0  0  0  0
   -1.7207   -2.0204    1.2932 N   0  0  0  0  0  0  0  0  0  0  0  0
   -1.8093   -1.4322    0.1798 C   0  0  0  0  0  0  0  0  0  0  0  0
   -2.6902   -2.4084    2.8261 H   0  0  0  0  0  0  0  0  0  0  0  0
   -2.7140   -0.9217   -0.1436 H   0  0  0  0  0  0  0  0  0  0  0  0
    0.3681   -0.3237   -2.2511 C   0  0  0  0  0  0  0  0  0  0  0  0
    0.3681   -0.3237   -0.7313 C   0  0  0  0  0  3  0  0  0  0  0  0
    0.3681    1.3174    0.0336 S   0  0  0  0  0  0  0  0  0  0  0  0
    1.9087    2.0313   -0.5950 C   0  0  0  0  0  0  0  0  0  0  0  0
    3.1696    1.2724   -0.2158 C   0  0  0  0  0  0  0  0  0  0  0  0
    1.2912    0.0999   -2.6505 H   0  0  0  0  0  0  0  0  0  0  0  0
    0.2856   -1.3449   -2.6297 H   0  0  0  0  0  0  0  0  0  0  0  0
   -0.4676    0.2587   -2.6405 H   0  0  0  0  0  0  0  0  0  0  0  0
   -0.7253   -0.8803   -0.2738 H   0  0  0  0  0  0  0  0  0  0  0  0
    1.2043   -0.9064   -0.3413 H   0  0  0  0  0  0  0  0  0  0  0  0
    1.8376    2.1535   -1.6771 H   0  0  0  0  0  0  0  0  0  0  0  0
    1.9238    3.0345   -0.1658 H   0  0  0  0  0  0  0  0  0  0  0  0
    3.1909    0.2806   -0.6705 H   0  0  0  0  0  0  0  0  0  0  0  0
    3.2403    1.1504    0.8656 H   0  0  0  0  0  0  0  0  0  0  0  0
    4.0544    1.8108   -0.5628 H   0  0  0  0  0  0  0  0  0  0  0  0
  1  2  1  0
  1  4  1  0
  2  3  2  3
  3  5  1  0
  3 14  1  0
  6  7  1  0
  6 11  1  0
  6 12  1  0
  6 13  1  0
  7  8  1  0
  7 15  1  0
  8  9  1  0
  9 10  1  0
  9 16  1  0
  9 17  1  0
 10 18  1  0
 10 19  1  0
 10 20  1  0
M  RAD  1   7   2
M  END
>  <reaction>  (10) 
rmg_rxn_15410

>  <mol_properties>  (10) 
{"1": {"label": "*4", "atom_type": "N3d"}, "2": {"label": "*3", "atom_type": "Cd"}, "6": {"label": "*1", "atom_type": "Cs"}, "7": {"label": "*0", "atom_type": "S2s"}, "13": {"label": "*2", "atom_type": "H0"}}

>  <type>  (10) 
unop_6

>  <geom_source>  (10) 
Heuristics

$$$$

     RDKit          3D

 20 18  0  0  0  0  0  0  0  0999 V2000
   -3.6161   -1.2550    1.1319 O   0  0  0  0  0  0  0  0  0  0  0  0
   -2.6547   -1.1230    0.1494 N   0  0  0  0  0  0  0  0  0  0  0  0
   -1.5637   -1.6645    0.4808 C   0  0  0  0  0  0  0  0  0  0  0  0
   -4.3784   -0.8087    0.7581 H   0  0  0  0  0  0  0  0  0  0  0  0
   -1.4251   -2.1691    1.4346 H   0  0  0  0  0  0  0  0  0  0  0  0
    0.6138   -0.5561   -1.9501 C   0  0  0  0  0  0  0  0  0  0  0  0
    0.6138   -0.5561   -0.4304 C   0  0  0  0  0  3  0  0  0  0  0  0
    0.6138    1.0850    0.3345 S   0  0  0  0  0  0  0  0  0  0  0  0
    2.1544    1.7990   -0.2941 C   0  0  0  0  0  0  0  0  0  0  0  0
    3.4153    1.0401    0.0851 C   0  0  0  0  0  0  0  0  0  0  0  0
    1.5368   -0.1325   -2.3495 H   0  0  0  0  0  0  0  0  0  0  0  0
    0.5312   -1.5772   -2.3288 H   0  0  0  0  0  0  0  0  0  0  0  0
   -0.2219    0.0264   -2.3395 H   0  0  0  0  0  0  0  0  0  0  0  0
   -0.4797   -1.1127    0.0272 H   0  0  0  0  0  0  0  0  0  0  0  0
    1.4500   -1.1387   -0.0403 H   0  0  0  0  0  0  0  0  0  0  0  0
    2.0832    1.9212   -1.3761 H   0  0  0  0  0  0  0  0  0  0  0  0
    2.1695    2.8021    0.1352 H   0  0  0  0  0  0  0  0  0  0  0  0
    3.4365    0.0483   -0.3696 H   0  0  0  0  0  0  0  0  0  0  0  0
    3.4860    0.9181    1.1665 H   0  0  0  0  0  0  0  0  0  0  0  0
    4.3000    1.5785   -0.2618 H   0  0  0  0  0  0  0  0  0  0  0  0
  1  2  1  0
  1  4  1  0
  2  3  2  3
  3  5  1  0
  3 14  1  0
  6  7  1  0
  6 11  1  0
  6 12  1  0
  6 13  1  0
  7  8  1  0
  7 15  1  0
  8  9  1  0
  9 10  1  0
  9 16  1  0
  9 17  1  0
 10 18  1  0
 10 19  1  0
 10 20  1  0
M  RAD  1   7   2
M  END
>  <reaction>  (11) 
rmg_rxn_15410

>  <mol_properties>  (11) 
{"1": {"label": "*4", "atom_type": "N3d"}, "2": {"label": "*3", "atom_type": "Cd"}, "6": {"label": "*1", "atom_type": "Cs"}, "7": {"label": "*0", "atom_type": "S2s"}, "13": {"label": "*2", "atom_type": "H0"}}

>  <type>  (11) 
unop_7

>  <geom_source>  (11) 
Heuristics

$$$$

     RDKit          3D

 20 18  0  0  0  0  0  0  0  0999 V2000
   -3.6208    0.3529    0.0414 O   0  0  0  0  0  0  0  0  0  0  0  0
   -2.2506    0.0436   -0.1136 N   0  0  0  0  0  0  0  0  0  0  0  0
   -1.7024   -0.6993    0.7166 C   0  0  0  0  0  0  0  0  0  0  0  0
   -3.8223    0.9366   -0.7023 H   0  0  0  0  0  0  0  0  0  0  0  0
   -2.1446   -1.1733    1.5850 H   0  0  0  0  0  0  0  0  0  0  0  0
    0.7456   -1.5920   -1.3560 C   0  0  0  0  0  0  0  0  0  0  0  0
    0.7897   -1.3111    0.1225 C   0  0  0  0  0  3  0  0  0  0  0  0
    1.9459   -0.1117    0.7093 S   0  0  0  0  0  0  0  0  0  0  0  0
    1.7937    1.2739   -0.4727 C   0  0  0  0  0  0  0  0  0  0  0  0
    0.4800    2.0196   -0.3437 C   0  0  0  0  0  0  0  0  0  0  0  0
    1.7371   -1.8356   -1.7434 H   0  0  0  0  0  0  0  0  0  0  0  0
    0.0898   -2.4405   -1.5397 H   0  0  0  0  0  0  0  0  0  0  0  0
    0.3546   -0.7403   -1.9086 H   0  0  0  0  0  0  0  0  0  0  0  0
   -0.4660   -0.9508    0.4655 H   0  0  0  0  0  0  0  0  0  0  0  0
    0.9571   -2.2023    0.7237 H   0  0  0  0  0  0  0  0  0  0  0  0
    2.6354    1.9195   -0.2219 H   0  0  0  0  0  0  0  0  0  0  0  0
    1.9422    0.8772   -1.4755 H   0  0  0  0  0  0  0  0  0  0  0  0
    0.3543    2.3875    0.6720 H   0  0  0  0  0  0  0  0  0  0  0  0
   -0.3638    1.3760   -0.5817 H   0  0  0  0  0  0  0  0  0  0  0  0
    0.4770    2.8700   -1.0233 H   0  0  0  0  0  0  0  0  0  0  0  0
  1  2  1  0
  1  4  1  0
  2  3  2  3
  3  5  1  0
  3 14  1  0
  6  7  1  0
  6 11  1  0
  6 12  1  0
  6 13  1  0
  7  8  1  0
  7 15  1  0
  8  9  1  0
  9 10  1  0
  9 16  1  0
  9 17  1  0
 10 18  1  0
 10 19  1  0
 10 20  1  0
M  RAD  1   7   2
M  END
>  <reaction>  (12) 
rmg_rxn_15410

>  <mol_properties>  (12) 
{"1": {"label": "*4", "atom_type": "N3d"}, "2": {"label": "*3", "atom_type": "Cd"}, "6": {"label": "*1", "atom_type": "Cs"}, "7": {"label": "*0", "atom_type": "S2s"}, "13": {"label": "*2", "atom_type": "H0"}}

>  <type>  (12) 
unop_8

>  <geom_source>  (12) 
Heuristics

$$$$

     RDKit          3D

 20 18  0  0  0  0  0  0  0  0999 V2000
   -3.0636   -2.1271    1.8245 O   0  0  0  0  0  0  0  0  0  0  0  0
   -1.8795   -1.5243    1.4481 N   0  0  0  0  0  0  0  0  0  0  0  0
   -1.7592   -1.4631    0.1930 C   0  0  0  0  0  0  0  0  0  0  0  0
   -3.0274   -2.1086    2.7828 H   0  0  0  0  0  0  0  0  0  0  0  0
   -2.5151   -1.8479   -0.4883 H   0  0  0  0  0  0  0  0  0  0  0  0
    0.4183   -0.3546   -2.2379 C   0  0  0  0  0  0  0  0  0  0  0  0
    0.4183   -0.3546   -0.7181 C   0  0  0  0  0  3  0  0  0  0  0  0
    0.4183    1.2865    0.0468 S   0  0  0  0  0  0  0  0  0  0  0  0
    1.9588    2.0004   -0.5818 C   0  0  0  0  0  0  0  0  0  0  0  0
    3.2198    1.2415   -0.2026 C   0  0  0  0  0  0  0  0  0  0  0  0
    1.3413    0.0690   -2.6373 H   0  0  0  0  0  0  0  0  0  0  0  0
    0.3357   -1.3758   -2.6165 H   0  0  0  0  0  0  0  0  0  0  0  0
   -0.4175    0.2278   -2.6273 H   0  0  0  0  0  0  0  0  0  0  0  0
   -0.6752   -0.9113   -0.2606 H   0  0  0  0  0  0  0  0  0  0  0  0
    1.2545   -0.9373   -0.3281 H   0  0  0  0  0  0  0  0  0  0  0  0
    1.8877    2.1226   -1.6639 H   0  0  0  0  0  0  0  0  0  0  0  0
    1.9739    3.0036   -0.1526 H   0  0  0  0  0  0  0  0  0  0  0  0
    3.2410    0.2497   -0.6573 H   0  0  0  0  0  0  0  0  0  0  0  0
    3.2904    1.1195    0.8788 H   0  0  0  0  0  0  0  0  0  0  0  0
    4.1045    1.7799   -0.5496 H   0  0  0  0  0  0  0  0  0  0  0  0
  1  2  1  0
  1  4  1  0
  2  3  2  3
  3  5  1  0
  3 14  1  0
  6  7  1  0
  6 11  1  0
  6 12  1  0
  6 13  1  0
  7  8  1  0
  7 15  1  0
  8  9  1  0
  9 10  1  0
  9 16  1  0
  9 17  1  0
 10 18  1  0
 10 19  1  0
 10 20  1  0
M  RAD  1   7   2
M  END
>  <reaction>  (13) 
rmg_rxn_15410

>  <mol_properties>  (13) 
{"1": {"label": "*4", "atom_type": "N3d"}, "2": {"label": "*3", "atom_type": "Cd"}, "6": {"label": "*1", "atom_type": "Cs"}, "7": {"label": "*0", "atom_type": "S2s"}, "13": {"label": "*2", "atom_type": "H0"}}

>  <type>  (13) 
unop_9

>  <geom_source>  (13) 
Heuristics

$$$$

     RDKit          3D

 20 18  0  0  0  0  0  0  0  0999 V2000
   -3.6204    0.3535    0.0404 O   0  0  0  0  0  0  0  0  0  0  0  0
   -2.2500    0.0444   -0.1124 N   0  0  0  0  0  0  0  0  0  0  0  0
   -1.7024   -0.6971    0.7194 C   0  0  0  0  0  0  0  0  0  0  0  0
   -3.8210    0.9366   -0.7041 H   0  0  0  0  0  0  0  0  0  0  0  0
   -2.1453   -1.1704    1.5878 H   0  0  0  0  0  0  0  0  0  0  0  0
    0.7396   -1.5899   -1.3565 C   0  0  0  0  0  0  0  0  0  0  0  0
    0.7883   -1.3111    0.1222 C   0  0  0  0  0  3  0  0  0  0  0  0
    1.9477   -0.1138    0.7074 S   0  0  0  0  0  0  0  0  0  0  0  0
    1.7947    1.2731   -0.4729 C   0  0  0  0  0  0  0  0  0  0  0  0
    0.4817    2.0195   -0.3412 C   0  0  0  0  0  0  0  0  0  0  0  0
    0.0808   -2.4363   -1.5396 H   0  0  0  0  0  0  0  0  0  0  0  0
    0.3496   -0.7364   -1.9069 H   0  0  0  0  0  0  0  0  0  0  0  0
    1.7294   -1.8359   -1.7469 H   0  0  0  0  0  0  0  0  0  0  0  0
   -0.4660   -0.9495    0.4683 H   0  0  0  0  0  0  0  0  0  0  0  0
    0.9563   -2.2033    0.7219 H   0  0  0  0  0  0  0  0  0  0  0  0
    2.6372    1.9178   -0.2226 H   0  0  0  0  0  0  0  0  0  0  0  0
    1.9415    0.8774   -1.4763 H   0  0  0  0  0  0  0  0  0  0  0  0
   -0.3629    1.3766   -0.5783 H   0  0  0  0  0  0  0  0  0  0  0  0
    0.4781    2.8703   -1.0203 H   0  0  0  0  0  0  0  0  0  0  0  0
    0.3580    2.3869    0.6749 H   0  0  0  0  0  0  0  0  0  0  0  0
  1  2  1  0
  1  4  1  0
  2  3  2  3
  3  5  1  0
  3 14  1  0
  6  7  1  0
  6 11  1  0
  6 12  1  0
  6 13  1  0
  7  8  1  0
  7 15  1  0
  8  9  1  0
  9 10  1  0
  9 16  1  0
  9 17  1  0
 10 18  1  0
 10 19  1  0
 10 20  1  0
M  RAD  1   7   2
M  END
>  <reaction>  (14) 
rmg_rxn_15410

>  <mol_properties>  (14) 
{"1": {"label": "*4", "atom_type": "N3d"}, "2": {"label": "*3", "atom_type": "Cd"}, "6": {"label": "*1", "atom_type": "Cs"}, "7": {"label": "*0", "atom_type": "S2s"}, "13": {"label": "*2", "atom_type": "H0"}}

>  <type>  (14) 
unop_10

>  <geom_source>  (14) 
Heuristics

$$$$

     RDKit          3D

 20 18  0  0  0  0  0  0  0  0999 V2000
   -3.2804   -1.2375    1.6987 O   0  0  0  0  0  0  0  0  0  0  0  0
   -2.6107   -0.9273    0.5315 N   0  0  0  0  0  0  0  0  0  0  0  0
   -1.6268   -1.6930    0.3340 C   0  0  0  0  0  0  0  0  0  0  0  0
   -3.9898   -0.5925    1.7257 H   0  0  0  0  0  0  0  0  0  0  0  0
   -1.3607   -2.4949    1.0195 H   0  0  0  0  0  0  0  0  0  0  0  0
    0.5507   -0.5846   -2.0968 C   0  0  0  0  0  0  0  0  0  0  0  0
    0.5507   -0.5846   -0.5771 C   0  0  0  0  0  3  0  0  0  0  0  0
    0.5507    1.0565    0.1878 S   0  0  0  0  0  0  0  0  0  0  0  0
    2.0912    1.7704   -0.4408 C   0  0  0  0  0  0  0  0  0  0  0  0
    3.3522    1.0116   -0.0616 C   0  0  0  0  0  0  0  0  0  0  0  0
    1.4737   -0.1610   -2.4963 H   0  0  0  0  0  0  0  0  0  0  0  0
    0.4681   -1.6057   -2.4755 H   0  0  0  0  0  0  0  0  0  0  0  0
   -0.2851   -0.0021   -2.4862 H   0  0  0  0  0  0  0  0  0  0  0  0
   -0.5428   -1.1412   -0.1196 H   0  0  0  0  0  0  0  0  0  0  0  0
    1.3869   -1.1672   -0.1871 H   0  0  0  0  0  0  0  0  0  0  0  0
    2.0201    1.8927   -1.5229 H   0  0  0  0  0  0  0  0  0  0  0  0
    2.1063    2.7736   -0.0115 H   0  0  0  0  0  0  0  0  0  0  0  0
    3.3734    0.0197   -0.5163 H   0  0  0  0  0  0  0  0  0  0  0  0
    3.4228    0.8896    1.0198 H   0  0  0  0  0  0  0  0  0  0  0  0
    4.2369    1.5500   -0.4085 H   0  0  0  0  0  0  0  0  0  0  0  0
  1  2  1  0
  1  4  1  0
  2  3  2  3
  3  5  1  0
  3 14  1  0
  6  7  1  0
  6 11  1  0
  6 12  1  0
  6 13  1  0
  7  8  1  0
  7 15  1  0
  8  9  1  0
  9 10  1  0
  9 16  1  0
  9 17  1  0
 10 18  1  0
 10 19  1  0
 10 20  1  0
M  RAD  1   7   2
M  END
>  <reaction>  (15) 
rmg_rxn_15410

>  <mol_properties>  (15) 
{"1": {"label": "*4", "atom_type": "N3d"}, "2": {"label": "*3", "atom_type": "Cd"}, "6": {"label": "*1", "atom_type": "Cs"}, "7": {"label": "*0", "atom_type": "S2s"}, "13": {"label": "*2", "atom_type": "H0"}}

>  <type>  (15) 
unop_11

>  <geom_source>  (15) 
Heuristics

$$$$

     RDKit          3D

 20 18  0  0  0  0  0  0  0  0999 V2000
   -3.6205    0.3532    0.0400 O   0  0  0  0  0  0  0  0  0  0  0  0
   -2.2500    0.0442   -0.1128 N   0  0  0  0  0  0  0  0  0  0  0  0
   -1.7023   -0.6972    0.7191 C   0  0  0  0  0  0  0  0  0  0  0  0
   -3.8211    0.9364   -0.7043 H   0  0  0  0  0  0  0  0  0  0  0  0
   -2.1451   -1.1702    1.5878 H   0  0  0  0  0  0  0  0  0  0  0  0
    0.7408   -1.5922   -1.3552 C   0  0  0  0  0  0  0  0  0  0  0  0
    0.7887   -1.3113    0.1232 C   0  0  0  0  0  3  0  0  0  0  0  0
    1.9476   -0.1129    0.7071 S   0  0  0  0  0  0  0  0  0  0  0  0
    1.7936    1.2730   -0.4742 C   0  0  0  0  0  0  0  0  0  0  0  0
    0.4814    2.0207   -0.3408 C   0  0  0  0  0  0  0  0  0  0  0  0
    1.7311   -1.8371   -1.7450 H   0  0  0  0  0  0  0  0  0  0  0  0
    0.0836   -2.4400   -1.5371 H   0  0  0  0  0  0  0  0  0  0  0  0
    0.3493   -0.7402   -1.9068 H   0  0  0  0  0  0  0  0  0  0  0  0
   -0.4658   -0.9494    0.4683 H   0  0  0  0  0  0  0  0  0  0  0  0
    0.9567   -2.2025    0.7243 H   0  0  0  0  0  0  0  0  0  0  0  0
    2.6371    1.9173   -0.2262 H   0  0  0  0  0  0  0  0  0  0  0  0
    1.9381    0.8762   -1.4775 H   0  0  0  0  0  0  0  0  0  0  0  0
   -0.3640    1.3783   -0.5761 H   0  0  0  0  0  0  0  0  0  0  0  0
    0.4774    2.8712   -1.0203 H   0  0  0  0  0  0  0  0  0  0  0  0
    0.3599    2.3887    0.6754 H   0  0  0  0  0  0  0  0  0  0  0  0
  1  2  1  0
  1  4  1  0
  2  3  2  3
  3  5  1  0
  3 14  1  0
  6  7  1  0
  6 11  1  0
  6 12  1  0
  6 13  1  0
  7  8  1  0
  7 15  1  0
  8  9  1  0
  9 10  1  0
  9 16  1  0
  9 17  1  0
 10 18  1  0
 10 19  1  0
 10 20  1  0
M  RAD  1   7   2
M  END
>  <reaction>  (16) 
rmg_rxn_15410

>  <mol_properties>  (16) 
{"1": {"label": "*4", "atom_type": "N3d"}, "2": {"label": "*3", "atom_type": "Cd"}, "6": {"label": "*1", "atom_type": "Cs"}, "7": {"label": "*0", "atom_type": "S2s"}, "13": {"label": "*2", "atom_type": "H0"}}

>  <type>  (16) 
unop_12

>  <geom_source>  (16) 
Heuristics

$$$$

     RDKit          3D

 20 18  0  0  0  0  0  0  0  0999 V2000
   -2.9221   -1.6015    2.0459 O   0  0  0  0  0  0  0  0  0  0  0  0
   -2.4487   -0.9123    0.9468 N   0  0  0  0  0  0  0  0  0  0  0  0
   -1.7092   -1.6328    0.2205 C   0  0  0  0  0  0  0  0  0  0  0  0
   -3.4587   -0.9503    2.5020 H   0  0  0  0  0  0  0  0  0  0  0  0
   -1.4877   -2.6714    0.4567 H   0  0  0  0  0  0  0  0  0  0  0  0
    0.4683   -0.5243   -2.2104 C   0  0  0  0  0  0  0  0  0  0  0  0
    0.4683   -0.5243   -0.6906 C   0  0  0  0  0  3  0  0  0  0  0  0
    0.4683    1.1168    0.0743 S   0  0  0  0  0  0  0  0  0  0  0  0
    2.0089    1.8307   -0.5543 C   0  0  0  0  0  0  0  0  0  0  0  0
    3.2698    1.0719   -0.1751 C   0  0  0  0  0  0  0  0  0  0  0  0
    1.3913   -0.1007   -2.6098 H   0  0  0  0  0  0  0  0  0  0  0  0
    0.3857   -1.5455   -2.5890 H   0  0  0  0  0  0  0  0  0  0  0  0
   -0.3674    0.0582   -2.5998 H   0  0  0  0  0  0  0  0  0  0  0  0
   -0.6252   -1.0809   -0.2331 H   0  0  0  0  0  0  0  0  0  0  0  0
    1.3045   -1.1069   -0.3006 H   0  0  0  0  0  0  0  0  0  0  0  0
    1.9377    1.9529   -1.6364 H   0  0  0  0  0  0  0  0  0  0  0  0
    2.0240    2.8339   -0.1250 H   0  0  0  0  0  0  0  0  0  0  0  0
    3.2910    0.0800   -0.6298 H   0  0  0  0  0  0  0  0  0  0  0  0
    3.3405    0.9498    0.9063 H   0  0  0  0  0  0  0  0  0  0  0  0
    4.1545    1.6103   -0.5220 H   0  0  0  0  0  0  0  0  0  0  0  0
  1  2  1  0
  1  4  1  0
  2  3  2  3
  3  5  1  0
  3 14  1  0
  6  7  1  0
  6 11  1  0
  6 12  1  0
  6 13  1  0
  7  8  1  0
  7 15  1  0
  8  9  1  0
  9 10  1  0
  9 16  1  0
  9 17  1  0
 10 18  1  0
 10 19  1  0
 10 20  1  0
M  RAD  1   7   2
M  END
>  <reaction>  (17) 
rmg_rxn_15410

>  <mol_properties>  (17) 
{"1": {"label": "*4", "atom_type": "N3d"}, "2": {"label": "*3", "atom_type": "Cd"}, "6": {"label": "*1", "atom_type": "Cs"}, "7": {"label": "*0", "atom_type": "S2s"}, "13": {"label": "*2", "atom_type": "H0"}}

>  <type>  (17) 
unop_13

>  <geom_source>  (17) 
Heuristics

$$$$

     RDKit          3D

 20 18  0  0  0  0  0  0  0  0999 V2000
   -3.6610    0.1279   -0.1090 O   0  0  0  0  0  0  0  0  0  0  0  0
   -2.2740    0.0526    0.1527 N   0  0  0  0  0  0  0  0  0  0  0  0
   -1.6396   -0.9405   -0.2378 C   0  0  0  0  0  0  0  0  0  0  0  0
   -3.9325    0.9740    0.2716 H   0  0  0  0  0  0  0  0  0  0  0  0
   -2.0157   -1.8041   -0.7742 H   0  0  0  0  0  0  0  0  0  0  0  0
    1.2594   -2.4768    0.2190 C   0  0  0  0  0  0  0  0  0  0  0  0
    0.8983   -1.0355    0.4639 C   0  0  0  0  0  3  0  0  0  0  0  0
    1.8914    0.1037   -0.4560 S   0  0  0  0  0  0  0  0  0  0  0  0
    1.5537    1.6649    0.4297 C   0  0  0  0  0  0  0  0  0  0  0  0
    0.2193    2.2775    0.0512 C   0  0  0  0  0  0  0  0  0  0  0  0
    2.2489   -2.7103    0.6159 H   0  0  0  0  0  0  0  0  0  0  0  0
    0.5351   -3.1285    0.7047 H   0  0  0  0  0  0  0  0  0  0  0  0
    1.2666   -2.6900   -0.8479 H   0  0  0  0  0  0  0  0  0  0  0  0
   -0.3907   -0.9344    0.0718 H   0  0  0  0  0  0  0  0  0  0  0  0
    0.8771   -0.7614    1.5164 H   0  0  0  0  0  0  0  0  0  0  0  0
    1.6110    1.4525    1.4972 H   0  0  0  0  0  0  0  0  0  0  0  0
    2.3789    2.3206    0.1521 H   0  0  0  0  0  0  0  0  0  0  0  0
    0.0920    3.2227    0.5757 H   0  0  0  0  0  0  0  0  0  0  0  0
   -0.6023    1.6142    0.3133 H   0  0  0  0  0  0  0  0  0  0  0  0
    0.1831    2.4672   -1.0190 H   0  0  0  0  0  0  0  0  0  0  0  0
  1  2  1  0
  1  4  1  0
  2  3  2  3
  3  5  1  0
  3 14  1  0
  6  7  1  0
  6 11  1  0
  6 12  1  0
  6 13  1  0
  7  8  1  0
  7 15  1  0
  8  9  1  0
  9 10  1  0
  9 16  1  0
  9 17  1  0
 10 18  1  0
 10 19  1  0
 10 20  1  0
M  RAD  1   7   2
M  END
>  <reaction>  (18) 
rmg_rxn_15410

>  <mol_properties>  (18) 
{"1": {"label": "*4", "atom_type": "N3d"}, "2": {"label": "*3", "atom_type": "Cd"}, "6": {"label": "*1", "atom_type": "Cs"}, "7": {"label": "*0", "atom_type": "S2s"}, "13": {"label": "*2", "atom_type": "H0"}}

>  <type>  (18) 
unop_14

>  <geom_source>  (18) 
Heuristics

$$$$

     RDKit          3D

 20 18  0  0  0  0  0  0  0  0999 V2000
   -2.4718   -2.8258    1.6987 O   0  0  0  0  0  0  0  0  0  0  0  0
   -1.8270   -2.4669    0.5315 N   0  0  0  0  0  0  0  0  0  0  0  0
   -1.8672   -1.2207    0.3340 C   0  0  0  0  0  0  0  0  0  0  0  0
   -2.3678   -3.7790    1.7257 H   0  0  0  0  0  0  0  0  0  0  0  0
   -2.3590   -0.5337    1.0195 H   0  0  0  0  0  0  0  0  0  0  0  0
    0.3102   -0.1123   -2.0968 C   0  0  0  0  0  0  0  0  0  0  0  0
    0.3102   -0.1123   -0.5771 C   0  0  0  0  0  3  0  0  0  0  0  0
    0.3102    1.5288    0.1878 S   0  0  0  0  0  0  0  0  0  0  0  0
    1.8508    2.2428   -0.4408 C   0  0  0  0  0  0  0  0  0  0  0  0
    3.1117    1.4839   -0.0616 C   0  0  0  0  0  0  0  0  0  0  0  0
    1.2333    0.3113   -2.4963 H   0  0  0  0  0  0  0  0  0  0  0  0
    0.2277   -1.1334   -2.4755 H   0  0  0  0  0  0  0  0  0  0  0  0
   -0.5255    0.4702   -2.4862 H   0  0  0  0  0  0  0  0  0  0  0  0
   -0.7832   -0.6689   -0.1196 H   0  0  0  0  0  0  0  0  0  0  0  0
    1.1464   -0.6949   -0.1871 H   0  0  0  0  0  0  0  0  0  0  0  0
    1.7797    2.3650   -1.5229 H   0  0  0  0  0  0  0  0  0  0  0  0
    1.8659    3.2459   -0.0115 H   0  0  0  0  0  0  0  0  0  0  0  0
    3.1330    0.4921   -0.5163 H   0  0  0  0  0  0  0  0  0  0  0  0
    3.1824    1.3619    1.0198 H   0  0  0  0  0  0  0  0  0  0  0  0
    3.9965    2.0223   -0.4085 H   0  0  0  0  0  0  0  0  0  0  0  0
  1  2  1  0
  1  4  1  0
  2  3  2  3
  3  5  1  0
  3 14  1  0
  6  7  1  0
  6 11  1  0
  6 12  1  0
  6 13  1  0
  7  8  1  0
  7 15  1  0
  8  9  1  0
  9 10  1  0
  9 16  1  0
  9 17  1  0
 10 18  1  0
 10 19  1  0
 10 20  1  0
M  RAD  1   7   2
M  END
>  <reaction>  (19) 
rmg_rxn_15410

>  <mol_properties>  (19) 
{"1": {"label": "*4", "atom_type": "N3d"}, "2": {"label": "*3", "atom_type": "Cd"}, "6": {"label": "*1", "atom_type": "Cs"}, "7": {"label": "*0", "atom_type": "S2s"}, "13": {"label": "*2", "atom_type": "H0"}}

>  <type>  (19) 
unop_15

>  <geom_source>  (19) 
Heuristics

$$$$

     RDKit          3D

 20 18  0  0  0  0  0  0  0  0999 V2000
   -3.6202    0.3532    0.0403 O   0  0  0  0  0  0  0  0  0  0  0  0
   -2.2496    0.0446   -0.1122 N   0  0  0  0  0  0  0  0  0  0  0  0
   -1.7024   -0.6991    0.7180 C   0  0  0  0  0  0  0  0  0  0  0  0
   -3.8201    0.9384   -0.7026 H   0  0  0  0  0  0  0  0  0  0  0  0
   -2.1459   -1.1748    1.5849 H   0  0  0  0  0  0  0  0  0  0  0  0
    0.7421   -1.5913   -1.3560 C   0  0  0  0  0  0  0  0  0  0  0  0
    0.7891   -1.3113    0.1226 C   0  0  0  0  0  3  0  0  0  0  0  0
    1.9470   -0.1126    0.7079 S   0  0  0  0  0  0  0  0  0  0  0  0
    1.7935    1.2735   -0.4733 C   0  0  0  0  0  0  0  0  0  0  0  0
    0.4804    2.0199   -0.3417 C   0  0  0  0  0  0  0  0  0  0  0  0
    0.0853   -2.4392   -1.5389 H   0  0  0  0  0  0  0  0  0  0  0  0
    0.3507   -0.7390   -1.9073 H   0  0  0  0  0  0  0  0  0  0  0  0
    1.7326   -1.8355   -1.7454 H   0  0  0  0  0  0  0  0  0  0  0  0
   -0.4658   -0.9506    0.4674 H   0  0  0  0  0  0  0  0  0  0  0  0
    0.9574   -2.2028    0.7231 H   0  0  0  0  0  0  0  0  0  0  0  0
    2.6360    1.9185   -0.2237 H   0  0  0  0  0  0  0  0  0  0  0  0
    1.9400    0.8772   -1.4765 H   0  0  0  0  0  0  0  0  0  0  0  0
    0.3567    2.3874    0.6744 H   0  0  0  0  0  0  0  0  0  0  0  0
   -0.3641    1.3769   -0.5785 H   0  0  0  0  0  0  0  0  0  0  0  0
    0.4767    2.8706   -1.0209 H   0  0  0  0  0  0  0  0  0  0  0  0
  1  2  1  0
  1  4  1  0
  2  3  2  3
  3  5  1  0
  3 14  1  0
  6  7  1  0
  6 11  1  0
  6 12  1  0
  6 13  1  0
  7  8  1  0
  7 15  1  0
  8  9  1  0
  9 10  1  0
  9 16  1  0
  9 17  1  0
 10 18  1  0
 10 19  1  0
 10 20  1  0
M  RAD  1   7   2
M  END
>  <reaction>  (20) 
rmg_rxn_15410

>  <mol_properties>  (20) 
{"1": {"label": "*4", "atom_type": "N3d"}, "2": {"label": "*3", "atom_type": "Cd"}, "6": {"label": "*1", "atom_type": "Cs"}, "7": {"label": "*0", "atom_type": "S2s"}, "13": {"label": "*2", "atom_type": "H0"}}

>  <type>  (20) 
unop_16

>  <geom_source>  (20) 
Heuristics

$$$$

     RDKit          3D

 20 18  0  0  0  0  0  0  0  0999 V2000
   -3.7389   -1.6929    0.6012 O   0  0  0  0  0  0  0  0  0  0  0  0
   -2.5841   -1.4404   -0.1128 N   0  0  0  0  0  0  0  0  0  0  0  0
   -1.5519   -1.5483    0.6057 C   0  0  0  0  0  0  0  0  0  0  0  0
   -4.4327   -1.5788   -0.0512 H   0  0  0  0  0  0  0  0  0  0  0  0
   -1.5962   -1.8105    1.6606 H   0  0  0  0  0  0  0  0  0  0  0  0
    0.6256   -0.4398   -1.8252 C   0  0  0  0  0  0  0  0  0  0  0  0
    0.6256   -0.4398   -0.3055 C   0  0  0  0  0  3  0  0  0  0  0  0
    0.6256    1.2013    0.4594 S   0  0  0  0  0  0  0  0  0  0  0  0
    2.1662    1.9152   -0.1692 C   0  0  0  0  0  0  0  0  0  0  0  0
    3.4271    1.1564    0.2100 C   0  0  0  0  0  0  0  0  0  0  0  0
    1.5486   -0.0162   -2.2246 H   0  0  0  0  0  0  0  0  0  0  0  0
    0.5430   -1.4610   -2.2039 H   0  0  0  0  0  0  0  0  0  0  0  0
   -0.2101    0.1427   -2.2146 H   0  0  0  0  0  0  0  0  0  0  0  0
   -0.4679   -0.9964    0.1521 H   0  0  0  0  0  0  0  0  0  0  0  0
    1.4618   -1.0224    0.0846 H   0  0  0  0  0  0  0  0  0  0  0  0
    2.0950    2.0374   -1.2512 H   0  0  0  0  0  0  0  0  0  0  0  0
    2.1812    2.9184    0.2601 H   0  0  0  0  0  0  0  0  0  0  0  0
    3.4483    0.1645   -0.2446 H   0  0  0  0  0  0  0  0  0  0  0  0
    3.4978    1.0343    1.2915 H   0  0  0  0  0  0  0  0  0  0  0  0
    4.3118    1.6948   -0.1369 H   0  0  0  0  0  0  0  0  0  0  0  0
  1  2  1  0
  1  4  1  0
  2  3  2  3
  3  5  1  0
  3 14  1  0
  6  7  1  0
  6 11  1  0
  6 12  1  0
  6 13  1  0
  7  8  1  0
  7 15  1  0
  8  9  1  0
  9 10  1  0
  9 16  1  0
  9 17  1  0
 10 18  1  0
 10 19  1  0
 10 20  1  0
M  RAD  1   7   2
M  END
>  <reaction>  (21) 
rmg_rxn_15410

>  <mol_properties>  (21) 
{"1": {"label": "*4", "atom_type": "N3d"}, "2": {"label": "*3", "atom_type": "Cd"}, "6": {"label": "*1", "atom_type": "Cs"}, "7": {"label": "*0", "atom_type": "S2s"}, "13": {"label": "*2", "atom_type": "H0"}}

>  <type>  (21) 
unop_17

>  <geom_source>  (21) 
Heuristics

$$$$

     RDKit          3D

 20 18  0  0  0  0  0  0  0  0999 V2000
   -2.6835   -3.0869    1.1319 O   0  0  0  0  0  0  0  0  0  0  0  0
   -2.0111   -2.3873    0.1494 N   0  0  0  0  0  0  0  0  0  0  0  0
   -1.8070   -1.1865    0.4808 C   0  0  0  0  0  0  0  0  0  0  0  0
   -2.7711   -3.9659    0.7581 H   0  0  0  0  0  0  0  0  0  0  0  0
   -2.1335   -0.7775    1.4346 H   0  0  0  0  0  0  0  0  0  0  0  0
    0.3704   -0.0780   -1.9501 C   0  0  0  0  0  0  0  0  0  0  0  0
    0.3704   -0.0780   -0.4304 C   0  0  0  0  0  3  0  0  0  0  0  0
    0.3704    1.5631    0.3345 S   0  0  0  0  0  0  0  0  0  0  0  0
    1.9110    2.2770   -0.2941 C   0  0  0  0  0  0  0  0  0  0  0  0
    3.1719    1.5182    0.0851 C   0  0  0  0  0  0  0  0  0  0  0  0
    1.2935    0.3456   -2.3495 H   0  0  0  0  0  0  0  0  0  0  0  0
    0.2879   -1.0992   -2.3288 H   0  0  0  0  0  0  0  0  0  0  0  0
   -0.4653    0.5045   -2.3395 H   0  0  0  0  0  0  0  0  0  0  0  0
   -0.7230   -0.6346    0.0272 H   0  0  0  0  0  0  0  0  0  0  0  0
    1.2066   -0.6606   -0.0403 H   0  0  0  0  0  0  0  0  0  0  0  0
    1.8399    2.3992   -1.3761 H   0  0  0  0  0  0  0  0  0  0  0  0
    1.9261    3.2802    0.1352 H   0  0  0  0  0  0  0  0  0  0  0  0
    3.1932    0.5263   -0.3696 H   0  0  0  0  0  0  0  0  0  0  0  0
    3.2426    1.3961    1.1665 H   0  0  0  0  0  0  0  0  0  0  0  0
    4.0567    2.0566   -0.2618 H   0  0  0  0  0  0  0  0  0  0  0  0
  1  2  1  0
  1  4  1  0
  2  3  2  3
  3  5  1  0
  3 14  1  0
  6  7  1  0
  6 11  1  0
  6 12  1  0
  6 13  1  0
  7  8  1  0
  7 15  1  0
  8  9  1  0
  9 10  1  0
  9 16  1  0
  9 17  1  0
 10 18  1  0
 10 19  1  0
 10 20  1  0
M  RAD  1   7   2
M  END
>  <reaction>  (22) 
rmg_rxn_15410

>  <mol_properties>  (22) 
{"1": {"label": "*4", "atom_type": "N3d"}, "2": {"label": "*3", "atom_type": "Cd"}, "6": {"label": "*1", "atom_type": "Cs"}, "7": {"label": "*0", "atom_type": "S2s"}, "13": {"label": "*2", "atom_type": "H0"}}

>  <type>  (22) 
unop_18

>  <geom_source>  (22) 
Heuristics

$$$$

     RDKit          3D

 20 18  0  0  0  0  0  0  0  0999 V2000
   -2.8026   -2.1042    2.0198 O   0  0  0  0  0  0  0  0  0  0  0  0
   -2.1872   -1.1041    1.2932 N   0  0  0  0  0  0  0  0  0  0  0  0
   -1.7637   -1.5218    0.1798 C   0  0  0  0  0  0  0  0  0  0  0  0
   -3.0714   -1.6596    2.8261 H   0  0  0  0  0  0  0  0  0  0  0  0
   -1.8832   -2.5536   -0.1436 H   0  0  0  0  0  0  0  0  0  0  0  0
    0.4137   -0.4133   -2.2511 C   0  0  0  0  0  0  0  0  0  0  0  0
    0.4137   -0.4133   -0.7313 C   0  0  0  0  0  3  0  0  0  0  0  0
    0.4137    1.2277    0.0336 S   0  0  0  0  0  0  0  0  0  0  0  0
    1.9543    1.9417   -0.5950 C   0  0  0  0  0  0  0  0  0  0  0  0
    3.2153    1.1828   -0.2158 C   0  0  0  0  0  0  0  0  0  0  0  0
    1.3368    0.0102   -2.6505 H   0  0  0  0  0  0  0  0  0  0  0  0
    0.3312   -1.4345   -2.6297 H   0  0  0  0  0  0  0  0  0  0  0  0
   -0.4220    0.1691   -2.6405 H   0  0  0  0  0  0  0  0  0  0  0  0
   -0.6797   -0.9700   -0.2738 H   0  0  0  0  0  0  0  0  0  0  0  0
    1.2499   -0.9960   -0.3413 H   0  0  0  0  0  0  0  0  0  0  0  0
    1.8832    2.0639   -1.6771 H   0  0  0  0  0  0  0  0  0  0  0  0
    1.9694    2.9448   -0.1658 H   0  0  0  0  0  0  0  0  0  0  0  0
    3.2365    0.1910   -0.6705 H   0  0  0  0  0  0  0  0  0  0  0  0
    3.2859    1.0608    0.8656 H   0  0  0  0  0  0  0  0  0  0  0  0
    4.1000    1.7212   -0.5628 H   0  0  0  0  0  0  0  0  0  0  0  0
  1  2  1  0
  1  4  1  0
  2  3  2  3
  3  5  1  0
  3 14  1  0
  6  7  1  0
  6 11  1  0
  6 12  1  0
  6 13  1  0
  7  8  1  0
  7 15  1  0
  8  9  1  0
  9 10  1  0
  9 16  1  0
  9 17  1  0
 10 18  1  0
 10 19  1  0
 10 20  1  0
M  RAD  1   7   2
M  END
>  <reaction>  (23) 
rmg_rxn_15410

>  <mol_properties>  (23) 
{"1": {"label": "*4", "atom_type": "N3d"}, "2": {"label": "*3", "atom_type": "Cd"}, "6": {"label": "*1", "atom_type": "Cs"}, "7": {"label": "*0", "atom_type": "S2s"}, "13": {"label": "*2", "atom_type": "H0"}}

>  <type>  (23) 
unop_19

>  <geom_source>  (23) 
Heuristics

$$$$

     RDKit          3D

 20 18  0  0  0  0  0  0  0  0999 V2000
   -3.5434   -2.3714    0.3807 O   0  0  0  0  0  0  0  0  0  0  0  0
   -2.4289   -1.8040   -0.2048 N   0  0  0  0  0  0  0  0  0  0  0  0
   -1.6055   -1.3849    0.6554 C   0  0  0  0  0  0  0  0  0  0  0  0
   -4.0752   -2.6421   -0.3703 H   0  0  0  0  0  0  0  0  0  0  0  0
   -1.7793   -1.4733    1.7257 H   0  0  0  0  0  0  0  0  0  0  0  0
    0.5719   -0.2764   -1.7755 C   0  0  0  0  0  0  0  0  0  0  0  0
    0.5719   -0.2764   -0.2558 C   0  0  0  0  0  3  0  0  0  0  0  0
    0.5719    1.3647    0.5091 S   0  0  0  0  0  0  0  0  0  0  0  0
    2.1125    2.0786   -0.1195 C   0  0  0  0  0  0  0  0  0  0  0  0
    3.3734    1.3198    0.2597 C   0  0  0  0  0  0  0  0  0  0  0  0
    1.4950    0.1472   -2.1749 H   0  0  0  0  0  0  0  0  0  0  0  0
    0.4894   -1.2976   -2.1542 H   0  0  0  0  0  0  0  0  0  0  0  0
   -0.2638    0.3061   -2.1649 H   0  0  0  0  0  0  0  0  0  0  0  0
   -0.5215   -0.8330    0.2018 H   0  0  0  0  0  0  0  0  0  0  0  0
    1.4081   -0.8590    0.1343 H   0  0  0  0  0  0  0  0  0  0  0  0
    2.0414    2.2008   -1.2015 H   0  0  0  0  0  0  0  0  0  0  0  0
    2.1276    3.0818    0.3098 H   0  0  0  0  0  0  0  0  0  0  0  0
    3.3946    0.3279   -0.1949 H   0  0  0  0  0  0  0  0  0  0  0  0
    3.4441    1.1977    1.3411 H   0  0  0  0  0  0  0  0  0  0  0  0
    4.2582    1.8582   -0.0872 H   0  0  0  0  0  0  0  0  0  0  0  0
  1  2  1  0
  1  4  1  0
  2  3  2  3
  3  5  1  0
  3 14  1  0
  6  7  1  0
  6 11  1  0
  6 12  1  0
  6 13  1  0
  7  8  1  0
  7 15  1  0
  8  9  1  0
  9 10  1  0
  9 16  1  0
  9 17  1  0
 10 18  1  0
 10 19  1  0
 10 20  1  0
M  RAD  1   7   2
M  END
>  <reaction>  (24) 
rmg_rxn_15410

>  <mol_properties>  (24) 
{"1": {"label": "*4", "atom_type": "N3d"}, "2": {"label": "*3", "atom_type": "Cd"}, "6": {"label": "*1", "atom_type": "Cs"}, "7": {"label": "*0", "atom_type": "S2s"}, "13": {"label": "*2", "atom_type": "H0"}}

>  <type>  (24) 
unop_20

>  <geom_source>  (24) 
Heuristics

$$$$

     RDKit          3D

 20 18  0  0  0  0  0  0  0  0999 V2000
   -0.1231    0.8940    0.2913 S   0  0  0  0  0  0  0  0  0  0  0  0
    2.2959    1.9290   -0.4663 O   0  0  0  0  0  0  0  0  0  0  0  0
    2.8224    0.9192   -1.2365 N   0  0  0  0  0  0  0  0  0  0  0  0
   -1.9312    0.6194    0.3124 C   0  0  0  0  0  0  0  0  0  0  0  0
   -2.4656    0.4666   -1.1055 C   0  0  0  0  0  0  0  0  0  0  0  0
    0.4830   -1.3670    1.7692 C   0  0  0  0  0  0  0  0  0  0  0  0
    0.3622   -0.8680    0.3378 C   0  0  0  0  0  3  0  0  0  0  0  0
    2.5174   -0.3125   -0.9960 C   0  0  0  0  0  0  0  0  0  0  0  0
   -2.4104    1.5043    0.7815 H   0  0  0  0  0  0  0  0  0  0  0  0
   -2.1979   -0.2725    0.9170 H   0  0  0  0  0  0  0  0  0  0  0  0
   -3.5678    0.3358   -1.0754 H   0  0  0  0  0  0  0  0  0  0  0  0
   -2.2301    1.3735   -1.7019 H   0  0  0  0  0  0  0  0  0  0  0  0
   -2.0161   -0.4206   -1.5978 H   0  0  0  0  0  0  0  0  0  0  0  0
    1.2198   -0.7487    2.3235 H   0  0  0  0  0  0  0  0  0  0  0  0
    0.8347   -2.4195    1.7625 H   0  0  0  0  0  0  0  0  0  0  0  0
   -0.4992   -1.3193    2.2834 H   0  0  0  0  0  0  0  0  0  0  0  0
   -0.3250   -1.5091   -0.2530 H   0  0  0  0  0  0  0  0  0  0  0  0
    2.9364   -1.1002   -1.6070 H   0  0  0  0  0  0  0  0  0  0  0  0
    1.7558   -0.5967   -0.0793 H   0  0  0  0  0  0  0  0  0  0  0  0
    2.5387    2.8923   -0.6598 H   0  0  0  0  0  0  0  0  0  0  0  0
  1  7  1  0
  1  4  1  0
  2  3  1  0
  2 20  1  0
  3  8  2  3
  4  5  1  0
  4  9  1  0
  4 10  1  0
  5 11  1  0
  5 12  1  0
  5 13  1  0
  6  7  1  0
  6 14  1  0
  6 15  1  0
  6 16  1  0
  7 17  1  0
  8 18  1  0
  8 19  1  0
M  RAD  1   7   2
M  END
>  <reaction>  (25) 
rmg_rxn_15410

>  <mol_properties>  (25) 
{"1": {"label": "*4", "atom_type": "N3d"}, "2": {"label": "*3", "atom_type": "Cd"}, "6": {"label": "*1", "atom_type": "Cs"}, "7": {"label": "*0", "atom_type": "S2s"}, "13": {"label": "*2", "atom_type": "H0"}}

>  <type>  (25) 
unop_21

>  <geom_source>  (25) 
AutoTST

$$$$

     RDKit          3D

 20 18  0  0  0  0  0  0  0  0999 V2000
   -3.1098   -2.9286    0.6012 O   0  0  0  0  0  0  0  0  0  0  0  0
   -2.2263   -2.1435   -0.1128 N   0  0  0  0  0  0  0  0  0  0  0  0
   -1.7061   -1.2453    0.6057 C   0  0  0  0  0  0  0  0  0  0  0  0
   -3.4258   -3.5568   -0.0512 H   0  0  0  0  0  0  0  0  0  0  0  0
   -1.9442   -1.1268    1.6606 H   0  0  0  0  0  0  0  0  0  0  0  0
    0.4714   -0.1369   -1.8252 C   0  0  0  0  0  0  0  0  0  0  0  0
    0.4714   -0.1369   -0.3055 C   0  0  0  0  0  3  0  0  0  0  0  0
    0.4714    1.5042    0.4594 S   0  0  0  0  0  0  0  0  0  0  0  0
    2.0120    2.2182   -0.1692 C   0  0  0  0  0  0  0  0  0  0  0  0
    3.2729    1.4593    0.2100 C   0  0  0  0  0  0  0  0  0  0  0  0
    1.3944    0.2867   -2.2246 H   0  0  0  0  0  0  0  0  0  0  0  0
    0.3888   -1.1580   -2.2039 H   0  0  0  0  0  0  0  0  0  0  0  0
   -0.3643    0.4456   -2.2146 H   0  0  0  0  0  0  0  0  0  0  0  0
   -0.6221   -0.6935    0.1521 H   0  0  0  0  0  0  0  0  0  0  0  0
    1.3076   -0.7195    0.0846 H   0  0  0  0  0  0  0  0  0  0  0  0
    1.9408    2.3404   -1.2512 H   0  0  0  0  0  0  0  0  0  0  0  0
    2.0270    3.2213    0.2601 H   0  0  0  0  0  0  0  0  0  0  0  0
    3.2941    0.4674   -0.2446 H   0  0  0  0  0  0  0  0  0  0  0  0
    3.3436    1.3373    1.2914 H   0  0  0  0  0  0  0  0  0  0  0  0
    4.1576    1.9977   -0.1369 H   0  0  0  0  0  0  0  0  0  0  0  0
  1  2  1  0
  1  4  1  0
  2  3  2  3
  3  5  1  0
  3 14  1  0
  6  7  1  0
  6 11  1  0
  6 12  1  0
  6 13  1  0
  7  8  1  0
  7 15  1  0
  8  9  1  0
  9 10  1  0
  9 16  1  0
  9 17  1  0
 10 18  1  0
 10 19  1  0
 10 20  1  0
M  RAD  1   7   2
M  END
>  <reaction>  (26) 
rmg_rxn_15410

>  <mol_properties>  (26) 
{"1": {"label": "*4", "atom_type": "N3d"}, "2": {"label": "*3", "atom_type": "Cd"}, "6": {"label": "*1", "atom_type": "Cs"}, "7": {"label": "*0", "atom_type": "S2s"}, "13": {"label": "*2", "atom_type": "H0"}}

>  <type>  (26) 
unop_22

>  <geom_source>  (26) 
gaussian_log

$$$$
