
     RDKit          3D

 15 14  0  0  0  0  0  0  0  0999 V2000
   -1.2811   -0.4129    1.0228 C   0  0  0  0  0  0  0  0  0  0  0  0
   -1.0023   -0.5809   -0.4650 C   0  0  0  0  0  0  0  0  0  0  0  0
   -2.0576    0.0568   -1.3449 C   0  0  0  0  0  0  0  0  0  0  0  0
   -2.0663    1.4464   -1.1307 O   0  0  0  0  0  0  0  0  0  0  0  0
   -3.0424    2.1072   -1.8849 C   0  0  0  0  0  0  0  0  0  0  0  0
   -2.2382   -0.8657    1.2935 H   0  0  0  0  0  0  0  0  0  0  0  0
   -1.3219    0.6426    1.2914 H   0  0  0  0  0  0  0  0  0  0  0  0
   -0.5042   -0.8881    1.6236 H   0  0  0  0  0  0  0  0  0  0  0  0
   -0.0316   -0.1460   -0.7167 H   0  0  0  0  0  0  0  0  0  0  0  0
   -0.9494   -1.6429   -0.7203 H   0  0  0  0  0  0  0  0  0  0  0  0
   -1.8518   -0.1570   -2.4041 H   0  0  0  0  0  0  0  0  0  0  0  0
   -3.0491   -0.3636   -1.1124 H   0  0  0  0  0  0  0  0  0  0  0  0
   -4.0521    1.7545   -1.6343 H   0  0  0  0  0  0  0  0  0  0  0  0
   -2.8850    1.9634   -2.9626 H   0  0  0  0  0  0  0  0  0  0  0  0
   -2.9730    3.1700   -1.6570 H   0  0  0  0  0  0  0  0  0  0  0  0
  1  2  1  0
  1  6  1  0
  1  7  1  0
  1  8  1  0
  2  3  1  0
  2  9  1  0
  2 10  1  0
  3  4  1  0
  3 11  1  0
  3 12  1  0
  4  5  1  0
  5 13  1  0
  5 14  1  0
  5 15  1  0
M  END
>  <reaction>  (1) 
rmg_rxn_15715

>  <mol_properties>  (1) 
{"2": {"label": "donator", "atom_type": "Cs"}, "10": {"label": "d_hydrogen", "atom_type": "H0"}}

>  <type>  (1) 
r1h

$$$$

     RDKit          3D

  8  7  0  0  0  0  0  0  0  0999 V2000
    1.7077   -0.1964   -0.0607 C   0  0  0  0  0  3  0  0  0  0  0  0
    0.4209   -0.4565    0.2808 O   0  0  0  0  0  0  0  0  0  0  0  0
   -0.4607    0.4385   -0.2968 N   0  0  0  0  0  0  0  0  0  0  0  0
   -1.6584    0.1416   -0.0244 C   0  0  0  0  0  0  0  0  0  0  0  0
    2.4163   -0.7685    0.5170 H   0  0  0  0  0  0  0  0  0  0  0  0
    1.9214    0.7645   -0.5045 H   0  0  0  0  0  0  0  0  0  0  0  0
   -2.4185    0.7953   -0.4307 H   0  0  0  0  0  0  0  0  0  0  0  0
   -1.9286   -0.7185    0.5831 H   0  0  0  0  0  0  0  0  0  0  0  0
  1  2  1  0
  1  5  1  0
  1  6  1  0
  2  3  1  0
  3  4  2  3
  4  7  1  0
  4  8  1  0
M  RAD  1   1   2
M  END
>  <reaction>  (2) 
rmg_rxn_15715

>  <mol_properties>  (2) 
{"0": {"label": "acceptor", "atom_type": "Cs"}}

>  <type>  (2) 
r2

$$$$

     RDKit          3D

  9  8  0  0  0  0  0  0  0  0999 V2000
   -1.5470   -0.0755   -0.1976 C   0  0  0  0  0  0  0  0  0  0  0  0
   -0.2885    0.4507    0.1749 O   0  0  0  0  0  0  0  0  0  0  0  0
   -0.1502    1.7216   -0.3294 N   0  0  0  0  0  0  0  0  0  0  0  0
    0.9626    2.2353   -0.0219 C   0  0  0  0  0  0  0  0  0  0  0  0
   -1.6392   -0.1356   -1.2844 H   0  0  0  0  0  0  0  0  0  0  0  0
   -2.3597    0.5337    0.2044 H   0  0  0  0  0  0  0  0  0  0  0  0
   -1.5879   -1.0750    0.2318 H   0  0  0  0  0  0  0  0  0  0  0  0
    1.1497    3.2381   -0.3820 H   0  0  0  0  0  0  0  0  0  0  0  0
    1.7060    1.7101    0.5739 H   0  0  0  0  0  0  0  0  0  0  0  0
  1  2  1  0
  1  5  1  0
  1  6  1  0
  1  7  1  0
  2  3  1  0
  3  4  2  3
  4  8  1  0
  4  9  1  0
M  END
>  <reaction>  (3) 
rmg_rxn_15715

>  <mol_properties>  (3) 
{"0": {"label": "acceptor", "atom_type": "Cs"}, "8": {"label": "a_hydrogen", "atom_type": "H0"}}

>  <type>  (3) 
r2h

$$$$

     RDKit          3D

 23 21  0  0  0  0  0  0  0  0999 V2000
    1.4494    0.5298    1.2598 C   0  0  0  0  0  3  0  0  0  0  0  0
    0.7714   -0.5285    1.8552 O   0  0  0  0  0  0  0  0  0  0  0  0
   -0.4604   -0.1241    2.3152 N   0  0  0  0  0  0  0  0  0  0  0  0
   -1.1406   -1.0938    2.7550 C   0  0  0  0  0  0  0  0  0  0  0  0
    1.3203    1.4718    1.7916 H   0  0  0  0  0  0  0  0  0  0  0  0
    2.4850    0.2307    1.1197 H   0  0  0  0  0  0  0  0  0  0  0  0
   -2.1203   -0.8578    3.1483 H   0  0  0  0  0  0  0  0  0  0  0  0
   -0.7761   -2.1182    2.7453 H   0  0  0  0  0  0  0  0  0  0  0  0
    0.5020   -0.7150   -3.3537 C   0  0  0  0  0  0  0  0  0  0  0  0
    0.9922   -0.5166   -1.9215 C   0  0  0  0  0  0  0  0  0  0  0  0
    0.3491    0.6473   -1.2210 C   0  0  0  0  0  0  0  0  0  0  0  0
   -1.0068    0.4478   -1.0562 O   0  0  0  0  0  0  0  0  0  0  0  0
   -1.6772    1.5401   -0.4782 C   0  0  0  0  0  0  0  0  0  0  0  0
    0.7115    0.1670   -3.9633 H   0  0  0  0  0  0  0  0  0  0  0  0
   -0.5743   -0.8875   -3.3706 H   0  0  0  0  0  0  0  0  0  0  0  0
    0.9927   -1.5709   -3.8205 H   0  0  0  0  0  0  0  0  0  0  0  0
    0.8032   -1.4187   -1.3328 H   0  0  0  0  0  0  0  0  0  0  0  0
    2.0739   -0.3558   -1.9146 H   0  0  0  0  0  0  0  0  0  0  0  0
    0.9199    0.7007   -0.0178 H   0  0  0  0  0  0  0  0  0  0  0  0
    0.5733    1.6231   -1.6767 H   0  0  0  0  0  0  0  0  0  0  0  0
   -1.5364    2.4493   -1.0762 H   0  0  0  0  0  0  0  0  0  0  0  0
   -1.3247    1.7199    0.5427 H   0  0  0  0  0  0  0  0  0  0  0  0
   -2.7371    1.2922   -0.4508 H   0  0  0  0  0  0  0  0  0  0  0  0
  1  2  1  0
  1  5  1  0
  1  6  1  0
  2  3  1  0
  3  4  2  3
  4  7  1  0
  4  8  1  0
  9 10  1  0
  9 14  1  0
  9 15  1  0
  9 16  1  0
 10 11  1  0
 10 17  1  0
 10 18  1  0
 11 12  1  0
 11 19  1  0
 11 20  1  0
 12 13  1  0
 13 21  1  0
 13 22  1  0
 13 23  1  0
M  RAD  1   1   2
M  END
>  <reaction>  (4) 
rmg_rxn_15715

>  <mol_properties>  (4) 
{"0": {"label": "*3", "atom_type": "Cs"}, "1": {"label": "*4", "atom_type": "O2s"}, "10": {"label": "*1", "atom_type": "Cs"}, "11": {"label": "*0", "atom_type": "O2s"}, "18": {"label": "*2", "atom_type": "H0"}}

>  <type>  (4) 
ts

$$$$

     RDKit          3D

 23 21  0  0  0  0  0  0  0  0999 V2000
    0.7890    0.3337    1.6321 C   0  0  0  0  0  0  0  0  0  0  0  0
    1.7043    0.6356    0.6270 O   0  0  0  0  0  0  0  0  0  0  0  0
    1.9893   -0.4568   -0.1654 N   0  0  0  0  0  0  0  0  0  0  0  0
    2.7960   -0.2553   -1.1189 C   0  0  0  0  0  0  0  0  0  0  0  0
    0.9951   -0.6121    2.1287 H   0  0  0  0  0  0  0  0  0  0  0  0
    0.7664    1.1783    2.3117 H   0  0  0  0  0  0  0  0  0  0  0  0
    3.0267   -1.1029   -1.7389 H   0  0  0  0  0  0  0  0  0  0  0  0
    3.2598    0.7021   -1.3344 H   0  0  0  0  0  0  0  0  0  0  0  0
   -1.3593    2.3127   -0.5559 C   0  0  0  0  0  0  0  0  0  0  0  0
   -1.4998    0.8202   -0.8289 C   0  0  0  0  0  0  0  0  0  0  0  0
   -1.5871    0.0340    0.4647 C   0  0  0  0  0  3  0  0  0  0  0  0
   -1.8060   -1.3335    0.3855 O   0  0  0  0  0  0  0  0  0  0  0  0
   -0.9836   -2.0524   -0.5063 C   0  0  0  0  0  0  0  0  0  0  0  0
   -1.3412    2.8664   -1.4914 H   0  0  0  0  0  0  0  0  0  0  0  0
   -0.4356    2.5139   -0.0197 H   0  0  0  0  0  0  0  0  0  0  0  0
   -2.1925    2.6740    0.0426 H   0  0  0  0  0  0  0  0  0  0  0  0
   -2.4037    0.6387   -1.4237 H   0  0  0  0  0  0  0  0  0  0  0  0
   -0.6432    0.4811   -1.4161 H   0  0  0  0  0  0  0  0  0  0  0  0
   -0.4104    0.2134    1.0938 H   0  0  0  0  0  0  0  0  0  0  0  0
   -2.3372    0.4276    1.1511 H   0  0  0  0  0  0  0  0  0  0  0  0
   -1.1257   -3.1046   -0.2649 H   0  0  0  0  0  0  0  0  0  0  0  0
    0.0719   -1.7841   -0.3810 H   0  0  0  0  0  0  0  0  0  0  0  0
   -1.2764   -1.8815   -1.5476 H   0  0  0  0  0  0  0  0  0  0  0  0
  1  2  1  0
  1  5  1  0
  1  6  1  0
  1 19  1  0
  2  3  1  0
  3  4  2  3
  4  7  1  0
  4  8  1  0
  9 10  1  0
  9 14  1  0
  9 15  1  0
  9 16  1  0
 10 11  1  0
 10 17  1  0
 10 18  1  0
 11 12  1  0
 11 20  1  0
 12 13  1  0
 13 21  1  0
 13 22  1  0
 13 23  1  0
M  RAD  1  11   2
M  END
>  <reaction>  (5) 
rmg_rxn_15715

>  <mol_properties>  (5) 
{"0": {"label": "*3", "atom_type": "Cs"}, "1": {"label": "*4", "atom_type": "O2s"}, "10": {"label": "*1", "atom_type": "Cs"}, "11": {"label": "*0", "atom_type": "O2s"}, "18": {"label": "*2", "atom_type": "H0"}}

>  <type>  (5) 
unop_1

>  <geom_source>  (5) 
crest_best.xyz

$$$$

     RDKit          3D

 23 21  0  0  0  0  0  0  0  0999 V2000
   -0.0808   -0.5280    1.3927 C   0  0  0  0  0  0  0  0  0  0  0  0
    1.1038    0.1673    1.7285 O   0  0  0  0  0  0  0  0  0  0  0  0
    0.9125    0.8732    2.8920 N   0  0  0  0  0  0  0  0  0  0  0  0
    1.9471    1.5132    3.2340 C   0  0  0  0  0  0  0  0  0  0  0  0
   -0.3507   -1.2407    2.1753 H   0  0  0  0  0  0  0  0  0  0  0  0
   -0.9084    0.1661    1.2300 H   0  0  0  0  0  0  0  0  0  0  0  0
    1.8782    2.0963    4.1425 H   0  0  0  0  0  0  0  0  0  0  0  0
    2.8684    1.4900    2.6559 H   0  0  0  0  0  0  0  0  0  0  0  0
   -0.2643   -1.7923   -3.3431 C   0  0  0  0  0  0  0  0  0  0  0  0
   -0.2643   -1.7923   -1.8202 C   0  0  0  0  0  0  0  0  0  0  0  0
   -0.2643   -0.3998   -1.2242 C   0  0  0  0  0  3  0  0  0  0  0  0
   -1.4493    0.2637   -1.5883 O   0  0  0  0  0  0  0  0  0  0  0  0
   -1.5101    1.5748   -1.1031 C   0  0  0  0  0  0  0  0  0  0  0  0
    0.6181   -1.2787   -3.7328 H   0  0  0  0  0  0  0  0  0  0  0  0
   -1.1467   -1.2824   -3.7295 H   0  0  0  0  0  0  0  0  0  0  0  0
   -0.2594   -2.8103   -3.7354 H   0  0  0  0  0  0  0  0  0  0  0  0
   -1.1384   -2.3305   -1.4446 H   0  0  0  0  0  0  0  0  0  0  0  0
    0.6175   -2.3185   -1.4440 H   0  0  0  0  0  0  0  0  0  0  0  0
   -0.1721   -0.4642    0.0911 H   0  0  0  0  0  0  0  0  0  0  0  0
    0.6081    0.1673   -1.5864 H   0  0  0  0  0  0  0  0  0  0  0  0
   -0.6862    2.1873   -1.4938 H   0  0  0  0  0  0  0  0  0  0  0  0
   -1.4681    1.6009   -0.0057 H   0  0  0  0  0  0  0  0  0  0  0  0
   -2.4558    2.0049   -1.4303 H   0  0  0  0  0  0  0  0  0  0  0  0
  1  2  1  0
  1  5  1  0
  1  6  1  0
  1 19  1  0
  2  3  1  0
  3  4  2  3
  4  7  1  0
  4  8  1  0
  9 10  1  0
  9 14  1  0
  9 15  1  0
  9 16  1  0
 10 11  1  0
 10 17  1  0
 10 18  1  0
 11 12  1  0
 11 20  1  0
 12 13  1  0
 13 21  1  0
 13 22  1  0
 13 23  1  0
M  RAD  1  11   2
M  END
>  <reaction>  (6) 
rmg_rxn_15715

>  <mol_properties>  (6) 
{"0": {"label": "*3", "atom_type": "Cs"}, "1": {"label": "*4", "atom_type": "O2s"}, "10": {"label": "*1", "atom_type": "Cs"}, "11": {"label": "*0", "atom_type": "O2s"}, "18": {"label": "*2", "atom_type": "H0"}}

>  <type>  (6) 
unop_2

>  <geom_source>  (6) 
Heuristics

$$$$

     RDKit          3D

 23 21  0  0  0  0  0  0  0  0999 V2000
    0.5995    1.5207    0.4369 C   0  0  0  0  0  0  0  0  0  0  0  0
    1.8536    0.9991    0.7505 O   0  0  0  0  0  0  0  0  0  0  0  0
    2.5561    0.2748   -0.1480 N   0  0  0  0  0  0  0  0  0  0  0  0
    2.1007   -0.0248   -1.2874 C   0  0  0  0  0  0  0  0  0  0  0  0
    0.3257    2.1652    1.2656 H   0  0  0  0  0  0  0  0  0  0  0  0
    0.5704    2.0413   -0.5213 H   0  0  0  0  0  0  0  0  0  0  0  0
    2.7604   -0.5989   -1.9139 H   0  0  0  0  0  0  0  0  0  0  0  0
    1.1173    0.2176   -1.6794 H   0  0  0  0  0  0  0  0  0  0  0  0
   -2.9670    1.3918   -0.0414 C   0  0  0  0  0  0  0  0  0  0  0  0
   -2.3478    0.1089   -0.5809 C   0  0  0  0  0  0  0  0  0  0  0  0
   -1.2431   -0.4076    0.3141 C   0  0  0  0  0  3  0  0  0  0  0  0
   -0.6541   -1.5462   -0.2230 O   0  0  0  0  0  0  0  0  0  0  0  0
    0.1540   -2.2774    0.6645 C   0  0  0  0  0  0  0  0  0  0  0  0
   -2.2256    2.1851    0.0127 H   0  0  0  0  0  0  0  0  0  0  0  0
   -3.3694    1.2308    0.9559 H   0  0  0  0  0  0  0  0  0  0  0  0
   -3.7761    1.7187   -0.6891 H   0  0  0  0  0  0  0  0  0  0  0  0
   -3.1220   -0.6610   -0.6723 H   0  0  0  0  0  0  0  0  0  0  0  0
   -1.9431    0.2756   -1.5812 H   0  0  0  0  0  0  0  0  0  0  0  0
   -0.3124    0.5662    0.3828 H   0  0  0  0  0  0  0  0  0  0  0  0
   -1.5572   -0.5476    1.3546 H   0  0  0  0  0  0  0  0  0  0  0  0
    0.4941   -3.1558    0.1198 H   0  0  0  0  0  0  0  0  0  0  0  0
   -0.4131   -2.5893    1.5492 H   0  0  0  0  0  0  0  0  0  0  0  0
    1.0232   -1.6957    0.9892 H   0  0  0  0  0  0  0  0  0  0  0  0
  1  2  1  0
  1  5  1  0
  1  6  1  0
  1 19  1  0
  2  3  1  0
  3  4  2  3
  4  7  1  0
  4  8  1  0
  9 10  1  0
  9 14  1  0
  9 15  1  0
  9 16  1  0
 10 11  1  0
 10 17  1  0
 10 18  1  0
 11 12  1  0
 11 20  1  0
 12 13  1  0
 13 21  1  0
 13 22  1  0
 13 23  1  0
M  RAD  1  11   2
M  END
>  <reaction>  (7) 
rmg_rxn_15715

>  <mol_properties>  (7) 
{"0": {"label": "*3", "atom_type": "Cs"}, "1": {"label": "*4", "atom_type": "O2s"}, "10": {"label": "*1", "atom_type": "Cs"}, "11": {"label": "*0", "atom_type": "O2s"}, "18": {"label": "*2", "atom_type": "H0"}}

>  <type>  (7) 
unop_3

>  <geom_source>  (7) 
Heuristics

$$$$

     RDKit          3D

 23 21  0  0  0  0  0  0  0  0999 V2000
    1.1958   -1.5321   -0.7122 C   0  0  0  0  0  0  0  0  0  0  0  0
    2.3222   -1.1403    0.0317 O   0  0  0  0  0  0  0  0  0  0  0  0
    2.4444    0.2323    0.0761 N   0  0  0  0  0  0  0  0  0  0  0  0
    3.4239    0.6845    0.7267 C   0  0  0  0  0  0  0  0  0  0  0  0
    1.1146   -1.0630   -1.6729 H   0  0  0  0  0  0  0  0  0  0  0  0
    1.1979   -2.6128   -0.7553 H   0  0  0  0  0  0  0  0  0  0  0  0
    3.5254    1.7550    0.7631 H   0  0  0  0  0  0  0  0  0  0  0  0
    4.1556    0.0672    1.2389 H   0  0  0  0  0  0  0  0  0  0  0  0
   -3.8360   -0.4118    0.6387 C   0  0  0  0  0  0  0  0  0  0  0  0
   -2.5265   -0.9337    0.0230 C   0  0  0  0  0  0  0  0  0  0  0  0
   -1.3857   -0.0039    0.2439 C   0  0  0  0  0  3  0  0  0  0  0  0
   -1.2976    1.0379   -0.6442 O   0  0  0  0  0  0  0  0  0  0  0  0
   -0.3634    2.0357   -0.3215 C   0  0  0  0  0  0  0  0  0  0  0  0
   -4.0964    0.5475    0.1988 H   0  0  0  0  0  0  0  0  0  0  0  0
   -3.7253   -0.2841    1.7132 H   0  0  0  0  0  0  0  0  0  0  0  0
   -4.6456   -1.1138    0.4532 H   0  0  0  0  0  0  0  0  0  0  0  0
   -2.2903   -1.9042    0.4658 H   0  0  0  0  0  0  0  0  0  0  0  0
   -2.6673   -1.0626   -1.0512 H   0  0  0  0  0  0  0  0  0  0  0  0
    0.2379   -1.1117   -0.3363 H   0  0  0  0  0  0  0  0  0  0  0  0
   -1.0551    0.1961    1.2565 H   0  0  0  0  0  0  0  0  0  0  0  0
    0.6507    1.6212   -0.2601 H   0  0  0  0  0  0  0  0  0  0  0  0
   -0.6102    2.5106    0.6354 H   0  0  0  0  0  0  0  0  0  0  0  0
   -0.4126    2.7763   -1.1180 H   0  0  0  0  0  0  0  0  0  0  0  0
  1  2  1  0
  1  5  1  0
  1  6  1  0
  1 19  1  0
  2  3  1  0
  3  4  2  3
  4  7  1  0
  4  8  1  0
  9 10  1  0
  9 14  1  0
  9 15  1  0
  9 16  1  0
 10 11  1  0
 10 17  1  0
 10 18  1  0
 11 12  1  0
 11 20  1  0
 12 13  1  0
 13 21  1  0
 13 22  1  0
 13 23  1  0
M  RAD  1  11   2
M  END
>  <reaction>  (8) 
rmg_rxn_15715

>  <mol_properties>  (8) 
{"0": {"label": "*3", "atom_type": "Cs"}, "1": {"label": "*4", "atom_type": "O2s"}, "10": {"label": "*1", "atom_type": "Cs"}, "11": {"label": "*0", "atom_type": "O2s"}, "18": {"label": "*2", "atom_type": "H0"}}

>  <type>  (8) 
unop_4

>  <geom_source>  (8) 
Heuristics

$$$$

     RDKit          3D

 23 21  0  0  0  0  0  0  0  0999 V2000
   -0.0436    0.4138    1.3926 C   0  0  0  0  0  0  0  0  0  0  0  0
    0.6923   -0.7618    1.6682 O   0  0  0  0  0  0  0  0  0  0  0  0
    1.1922   -0.7061    2.9472 N   0  0  0  0  0  0  0  0  0  0  0  0
    1.8596   -1.7381    3.2408 C   0  0  0  0  0  0  0  0  0  0  0  0
   -0.8886    0.5153    2.0774 H   0  0  0  0  0  0  0  0  0  0  0  0
    0.5926    1.2988    1.4643 H   0  0  0  0  0  0  0  0  0  0  0  0
    2.2884   -1.7721    4.2334 H   0  0  0  0  0  0  0  0  0  0  0  0
    2.0055   -2.5600    2.5431 H   0  0  0  0  0  0  0  0  0  0  0  0
   -0.2271   -0.8506   -3.3432 C   0  0  0  0  0  0  0  0  0  0  0  0
   -0.2271   -0.8506   -1.8203 C   0  0  0  0  0  0  0  0  0  0  0  0
   -0.2271    0.5420   -1.2242 C   0  0  0  0  0  3  0  0  0  0  0  0
   -1.4121    1.2055   -1.5884 O   0  0  0  0  0  0  0  0  0  0  0  0
   -1.4729    2.5166   -1.1032 C   0  0  0  0  0  0  0  0  0  0  0  0
    0.6553   -0.3369   -3.7329 H   0  0  0  0  0  0  0  0  0  0  0  0
   -1.1095   -0.3407   -3.7296 H   0  0  0  0  0  0  0  0  0  0  0  0
   -0.2222   -1.8686   -3.7355 H   0  0  0  0  0  0  0  0  0  0  0  0
   -1.1012   -1.3887   -1.4447 H   0  0  0  0  0  0  0  0  0  0  0  0
    0.6547   -1.3767   -1.4440 H   0  0  0  0  0  0  0  0  0  0  0  0
   -0.1349    0.4776    0.0910 H   0  0  0  0  0  0  0  0  0  0  0  0
    0.6453    1.1090   -1.5864 H   0  0  0  0  0  0  0  0  0  0  0  0
   -0.6490    3.1291   -1.4938 H   0  0  0  0  0  0  0  0  0  0  0  0
   -1.4309    2.5427   -0.0057 H   0  0  0  0  0  0  0  0  0  0  0  0
   -2.4186    2.9467   -1.4303 H   0  0  0  0  0  0  0  0  0  0  0  0
  1  2  1  0
  1  5  1  0
  1  6  1  0
  1 19  1  0
  2  3  1  0
  3  4  2  3
  4  7  1  0
  4  8  1  0
  9 10  1  0
  9 14  1  0
  9 15  1  0
  9 16  1  0
 10 11  1  0
 10 17  1  0
 10 18  1  0
 11 12  1  0
 11 20  1  0
 12 13  1  0
 13 21  1  0
 13 22  1  0
 13 23  1  0
M  RAD  1  11   2
M  END
>  <reaction>  (9) 
rmg_rxn_15715

>  <mol_properties>  (9) 
{"0": {"label": "*3", "atom_type": "Cs"}, "1": {"label": "*4", "atom_type": "O2s"}, "10": {"label": "*1", "atom_type": "Cs"}, "11": {"label": "*0", "atom_type": "O2s"}, "18": {"label": "*2", "atom_type": "H0"}}

>  <type>  (9) 
unop_5

>  <geom_source>  (9) 
Heuristics

$$$$

     RDKit          3D

 23 21  0  0  0  0  0  0  0  0999 V2000
    0.9242   -1.3986    0.7161 C   0  0  0  0  0  0  0  0  0  0  0  0
    1.9998   -1.1152   -0.1201 O   0  0  0  0  0  0  0  0  0  0  0  0
    2.4998    0.1545    0.0796 N   0  0  0  0  0  0  0  0  0  0  0  0
    3.4710    0.4905   -0.6584 C   0  0  0  0  0  0  0  0  0  0  0  0
    0.7385   -2.4650    0.6515 H   0  0  0  0  0  0  0  0  0  0  0  0
    1.0720   -1.0480    1.7354 H   0  0  0  0  0  0  0  0  0  0  0  0
    3.8692    1.4776   -0.5063 H   0  0  0  0  0  0  0  0  0  0  0  0
    3.9144   -0.1504   -1.4137 H   0  0  0  0  0  0  0  0  0  0  0  0
   -3.6771   -0.3325   -0.6296 C   0  0  0  0  0  0  0  0  0  0  0  0
   -2.4408   -0.9238    0.0512 C   0  0  0  0  0  0  0  0  0  0  0  0
   -1.2099   -0.0805   -0.1852 C   0  0  0  0  0  3  0  0  0  0  0  0
   -1.2593    1.1028    0.5368 O   0  0  0  0  0  0  0  0  0  0  0  0
   -0.2650    2.0379    0.2033 C   0  0  0  0  0  0  0  0  0  0  0  0
   -3.5340   -0.2860   -1.7071 H   0  0  0  0  0  0  0  0  0  0  0  0
   -3.8572    0.6730   -0.2586 H   0  0  0  0  0  0  0  0  0  0  0  0
   -4.5519   -0.9441   -0.4225 H   0  0  0  0  0  0  0  0  0  0  0  0
   -2.6151   -0.9847    1.1262 H   0  0  0  0  0  0  0  0  0  0  0  0
   -2.2581   -1.9303   -0.3296 H   0  0  0  0  0  0  0  0  0  0  0  0
   -0.1512   -0.7806    0.2690 H   0  0  0  0  0  0  0  0  0  0  0  0
   -0.9877    0.0826   -1.2465 H   0  0  0  0  0  0  0  0  0  0  0  0
    0.7390    1.6263    0.3687 H   0  0  0  0  0  0  0  0  0  0  0  0
   -0.4203    2.9001    0.8487 H   0  0  0  0  0  0  0  0  0  0  0  0
   -0.3490    2.3458   -0.8462 H   0  0  0  0  0  0  0  0  0  0  0  0
  1  2  1  0
  1  5  1  0
  1  6  1  0
  1 19  1  0
  2  3  1  0
  3  4  2  3
  4  7  1  0
  4  8  1  0
  9 10  1  0
  9 14  1  0
  9 15  1  0
  9 16  1  0
 10 11  1  0
 10 17  1  0
 10 18  1  0
 11 12  1  0
 11 20  1  0
 12 13  1  0
 13 21  1  0
 13 22  1  0
 13 23  1  0
M  RAD  1  11   2
M  END
>  <reaction>  (10) 
rmg_rxn_15715

>  <mol_properties>  (10) 
{"0": {"label": "*3", "atom_type": "Cs"}, "1": {"label": "*4", "atom_type": "O2s"}, "10": {"label": "*1", "atom_type": "Cs"}, "11": {"label": "*0", "atom_type": "O2s"}, "18": {"label": "*2", "atom_type": "H0"}}

>  <type>  (10) 
unop_6

>  <geom_source>  (10) 
Heuristics

$$$$

     RDKit          3D

 23 21  0  0  0  0  0  0  0  0999 V2000
    0.1714   -0.6484    1.3394 C   0  0  0  0  0  0  0  0  0  0  0  0
    0.8464    0.5296    1.7346 O   0  0  0  0  0  0  0  0  0  0  0  0
    0.4973    0.8530    3.0239 N   0  0  0  0  0  0  0  0  0  0  0  0
    1.0772    1.9024    3.4231 C   0  0  0  0  0  0  0  0  0  0  0  0
    0.4453   -1.4893    1.9805 H   0  0  0  0  0  0  0  0  0  0  0  0
   -0.9113   -0.5062    1.3666 H   0  0  0  0  0  0  0  0  0  0  0  0
    0.8550    2.2254    4.4314 H   0  0  0  0  0  0  0  0  0  0  0  0
    1.7675    2.4646    2.7979 H   0  0  0  0  0  0  0  0  0  0  0  0
   -0.0120   -1.9128   -3.3964 C   0  0  0  0  0  0  0  0  0  0  0  0
   -0.0120   -1.9128   -1.8735 C   0  0  0  0  0  0  0  0  0  0  0  0
   -0.0120   -0.5202   -1.2775 C   0  0  0  0  0  3  0  0  0  0  0  0
   -1.1971    0.1432   -1.6416 O   0  0  0  0  0  0  0  0  0  0  0  0
   -1.2579    1.4543   -1.1564 C   0  0  0  0  0  0  0  0  0  0  0  0
    0.8704   -1.3991   -3.7861 H   0  0  0  0  0  0  0  0  0  0  0  0
   -0.8945   -1.4029   -3.7828 H   0  0  0  0  0  0  0  0  0  0  0  0
   -0.0071   -2.9308   -3.7887 H   0  0  0  0  0  0  0  0  0  0  0  0
   -0.8861   -2.4509   -1.4979 H   0  0  0  0  0  0  0  0  0  0  0  0
    0.8697   -2.4389   -1.4973 H   0  0  0  0  0  0  0  0  0  0  0  0
    0.0802   -0.5846    0.0378 H   0  0  0  0  0  0  0  0  0  0  0  0
    0.8604    0.0468   -1.6397 H   0  0  0  0  0  0  0  0  0  0  0  0
   -0.4340    2.0669   -1.5471 H   0  0  0  0  0  0  0  0  0  0  0  0
   -1.2159    1.4805   -0.0590 H   0  0  0  0  0  0  0  0  0  0  0  0
   -2.2035    1.8845   -1.4836 H   0  0  0  0  0  0  0  0  0  0  0  0
  1  2  1  0
  1  5  1  0
  1  6  1  0
  1 19  1  0
  2  3  1  0
  3  4  2  3
  4  7  1  0
  4  8  1  0
  9 10  1  0
  9 14  1  0
  9 15  1  0
  9 16  1  0
 10 11  1  0
 10 17  1  0
 10 18  1  0
 11 12  1  0
 11 20  1  0
 12 13  1  0
 13 21  1  0
 13 22  1  0
 13 23  1  0
M  RAD  1  11   2
M  END
>  <reaction>  (11) 
rmg_rxn_15715

>  <mol_properties>  (11) 
{"0": {"label": "*3", "atom_type": "Cs"}, "1": {"label": "*4", "atom_type": "O2s"}, "10": {"label": "*1", "atom_type": "Cs"}, "11": {"label": "*0", "atom_type": "O2s"}, "18": {"label": "*2", "atom_type": "H0"}}

>  <type>  (11) 
unop_7

>  <geom_source>  (11) 
Heuristics

$$$$

     RDKit          3D

 23 21  0  0  0  0  0  0  0  0999 V2000
    0.9519    0.1383    1.3369 C   0  0  0  0  0  0  0  0  0  0  0  0
   -0.1792   -0.5944    1.7651 O   0  0  0  0  0  0  0  0  0  0  0  0
   -0.5783   -0.1490    3.0025 N   0  0  0  0  0  0  0  0  0  0  0  0
   -1.5894   -0.7758    3.4286 C   0  0  0  0  0  0  0  0  0  0  0  0
    0.7184    1.2019    1.2498 H   0  0  0  0  0  0  0  0  0  0  0  0
    1.7885    0.0036    2.0262 H   0  0  0  0  0  0  0  0  0  0  0  0
   -1.9670   -0.4840    4.3995 H   0  0  0  0  0  0  0  0  0  0  0  0
   -2.0681   -1.5710    2.8612 H   0  0  0  0  0  0  0  0  0  0  0  0
    0.7685   -1.1260   -3.3989 C   0  0  0  0  0  0  0  0  0  0  0  0
    0.7685   -1.1260   -1.8760 C   0  0  0  0  0  0  0  0  0  0  0  0
    0.7685    0.2666   -1.2800 C   0  0  0  0  0  3  0  0  0  0  0  0
   -0.4166    0.9300   -1.6441 O   0  0  0  0  0  0  0  0  0  0  0  0
   -0.4774    2.2411   -1.1589 C   0  0  0  0  0  0  0  0  0  0  0  0
    1.6508   -0.6124   -3.7886 H   0  0  0  0  0  0  0  0  0  0  0  0
   -0.1140   -0.6161   -3.7853 H   0  0  0  0  0  0  0  0  0  0  0  0
    0.7734   -2.1440   -3.7912 H   0  0  0  0  0  0  0  0  0  0  0  0
   -0.1057   -1.6642   -1.5004 H   0  0  0  0  0  0  0  0  0  0  0  0
    1.6502   -1.6522   -1.4998 H   0  0  0  0  0  0  0  0  0  0  0  0
    0.8606    0.2021    0.0353 H   0  0  0  0  0  0  0  0  0  0  0  0
    1.6408    0.8336   -1.6422 H   0  0  0  0  0  0  0  0  0  0  0  0
    0.3465    2.8537   -1.5496 H   0  0  0  0  0  0  0  0  0  0  0  0
   -0.4354    2.2672   -0.0615 H   0  0  0  0  0  0  0  0  0  0  0  0
   -1.4231    2.6713   -1.4861 H   0  0  0  0  0  0  0  0  0  0  0  0
  1  2  1  0
  1  5  1  0
  1  6  1  0
  1 19  1  0
  2  3  1  0
  3  4  2  3
  4  7  1  0
  4  8  1  0
  9 10  1  0
  9 14  1  0
  9 15  1  0
  9 16  1  0
 10 11  1  0
 10 17  1  0
 10 18  1  0
 11 12  1  0
 11 20  1  0
 12 13  1  0
 13 21  1  0
 13 22  1  0
 13 23  1  0
M  RAD  1  11   2
M  END
>  <reaction>  (12) 
rmg_rxn_15715

>  <mol_properties>  (12) 
{"0": {"label": "*3", "atom_type": "Cs"}, "1": {"label": "*4", "atom_type": "O2s"}, "10": {"label": "*1", "atom_type": "Cs"}, "11": {"label": "*0", "atom_type": "O2s"}, "18": {"label": "*2", "atom_type": "H0"}}

>  <type>  (12) 
unop_8

>  <geom_source>  (12) 
Heuristics

$$$$

     RDKit          3D

 23 21  0  0  0  0  0  0  0  0999 V2000
    1.1970   -1.5354    0.7148 C   0  0  0  0  0  0  0  0  0  0  0  0
    2.3181   -1.1418   -0.0361 O   0  0  0  0  0  0  0  0  0  0  0  0
    2.4426    0.2310   -0.0737 N   0  0  0  0  0  0  0  0  0  0  0  0
    3.4177    0.6849   -0.7297 C   0  0  0  0  0  0  0  0  0  0  0  0
    1.1957   -2.6166    0.7473 H   0  0  0  0  0  0  0  0  0  0  0  0
    1.1305   -1.0770    1.6824 H   0  0  0  0  0  0  0  0  0  0  0  0
    3.5209    1.7554   -0.7610 H   0  0  0  0  0  0  0  0  0  0  0  0
    4.1443    0.0692   -1.2508 H   0  0  0  0  0  0  0  0  0  0  0  0
   -3.8302   -0.4184   -0.6486 C   0  0  0  0  0  0  0  0  0  0  0  0
   -2.5258   -0.9309   -0.0144 C   0  0  0  0  0  0  0  0  0  0  0  0
   -1.3839   -0.0029   -0.2374 C   0  0  0  0  0  3  0  0  0  0  0  0
   -1.2981    1.0441    0.6446 O   0  0  0  0  0  0  0  0  0  0  0  0
   -0.3610    2.0386    0.3199 C   0  0  0  0  0  0  0  0  0  0  0  0
   -3.7101   -0.3053   -1.7237 H   0  0  0  0  0  0  0  0  0  0  0  0
   -4.0954    0.5465   -0.2242 H   0  0  0  0  0  0  0  0  0  0  0  0
   -4.6409   -1.1186   -0.4608 H   0  0  0  0  0  0  0  0  0  0  0  0
   -2.6755   -1.0455    1.0602 H   0  0  0  0  0  0  0  0  0  0  0  0
   -2.2853   -1.9070   -0.4423 H   0  0  0  0  0  0  0  0  0  0  0  0
    0.2371   -1.1100    0.3467 H   0  0  0  0  0  0  0  0  0  0  0  0
   -1.0503    0.1910   -1.2503 H   0  0  0  0  0  0  0  0  0  0  0  0
   -0.4143    2.7853    1.1104 H   0  0  0  0  0  0  0  0  0  0  0  0
   -0.6014    2.5063   -0.6421 H   0  0  0  0  0  0  0  0  0  0  0  0
    0.6530    1.6225    0.2678 H   0  0  0  0  0  0  0  0  0  0  0  0
  1  2  1  0
  1  5  1  0
  1  6  1  0
  1 19  1  0
  2  3  1  0
  3  4  2  3
  4  7  1  0
  4  8  1  0
  9 10  1  0
  9 14  1  0
  9 15  1  0
  9 16  1  0
 10 11  1  0
 10 17  1  0
 10 18  1  0
 11 12  1  0
 11 20  1  0
 12 13  1  0
 13 21  1  0
 13 22  1  0
 13 23  1  0
M  RAD  1  11   2
M  END
>  <reaction>  (13) 
rmg_rxn_15715

>  <mol_properties>  (13) 
{"0": {"label": "*3", "atom_type": "Cs"}, "1": {"label": "*4", "atom_type": "O2s"}, "10": {"label": "*1", "atom_type": "Cs"}, "11": {"label": "*0", "atom_type": "O2s"}, "18": {"label": "*2", "atom_type": "H0"}}

>  <type>  (13) 
unop_9

>  <geom_source>  (13) 
Heuristics

$$$$

     RDKit          3D

 23 21  0  0  0  0  0  0  0  0999 V2000
    0.3640   -0.6517    1.2975 C   0  0  0  0  0  0  0  0  0  0  0  0
    0.3556    0.6885    1.7485 O   0  0  0  0  0  0  0  0  0  0  0  0
    0.4489    0.7164    3.1193 N   0  0  0  0  0  0  0  0  0  0  0  0
    0.4452    1.8966    3.5710 C   0  0  0  0  0  0  0  0  0  0  0  0
    1.2927   -1.1529    1.5793 H   0  0  0  0  0  0  0  0  0  0  0  0
   -0.4866   -1.2052    1.7014 H   0  0  0  0  0  0  0  0  0  0  0  0
    0.5158    2.0049    4.6450 H   0  0  0  0  0  0  0  0  0  0  0  0
    0.3753    2.7705    2.9268 H   0  0  0  0  0  0  0  0  0  0  0  0
    0.1805   -1.9160   -3.4384 C   0  0  0  0  0  0  0  0  0  0  0  0
    0.1805   -1.9160   -1.9155 C   0  0  0  0  0  0  0  0  0  0  0  0
    0.1805   -0.5234   -1.3194 C   0  0  0  0  0  3  0  0  0  0  0  0
   -1.0045    0.1400   -1.6836 O   0  0  0  0  0  0  0  0  0  0  0  0
   -1.0653    1.4511   -1.1984 C   0  0  0  0  0  0  0  0  0  0  0  0
    1.0629   -1.4024   -3.8281 H   0  0  0  0  0  0  0  0  0  0  0  0
   -0.7019   -1.4061   -3.8248 H   0  0  0  0  0  0  0  0  0  0  0  0
    0.1855   -2.9340   -3.8307 H   0  0  0  0  0  0  0  0  0  0  0  0
   -0.6936   -2.4542   -1.5399 H   0  0  0  0  0  0  0  0  0  0  0  0
    1.0623   -2.4422   -1.5392 H   0  0  0  0  0  0  0  0  0  0  0  0
    0.2727   -0.5879   -0.0042 H   0  0  0  0  0  0  0  0  0  0  0  0
    1.0529    0.0436   -1.6816 H   0  0  0  0  0  0  0  0  0  0  0  0
   -0.2414    2.0637   -1.5890 H   0  0  0  0  0  0  0  0  0  0  0  0
   -1.0233    1.4772   -0.1009 H   0  0  0  0  0  0  0  0  0  0  0  0
   -2.0110    1.8812   -1.5255 H   0  0  0  0  0  0  0  0  0  0  0  0
  1  2  1  0
  1  5  1  0
  1  6  1  0
  1 19  1  0
  2  3  1  0
  3  4  2  3
  4  7  1  0
  4  8  1  0
  9 10  1  0
  9 14  1  0
  9 15  1  0
  9 16  1  0
 10 11  1  0
 10 17  1  0
 10 18  1  0
 11 12  1  0
 11 20  1  0
 12 13  1  0
 13 21  1  0
 13 22  1  0
 13 23  1  0
M  RAD  1  11   2
M  END
>  <reaction>  (14) 
rmg_rxn_15715

>  <mol_properties>  (14) 
{"0": {"label": "*3", "atom_type": "Cs"}, "1": {"label": "*4", "atom_type": "O2s"}, "10": {"label": "*1", "atom_type": "Cs"}, "11": {"label": "*0", "atom_type": "O2s"}, "18": {"label": "*2", "atom_type": "H0"}}

>  <type>  (14) 
unop_10

>  <geom_source>  (14) 
Heuristics

$$$$

     RDKit          3D

 23 21  0  0  0  0  0  0  0  0999 V2000
    1.1913   -1.5356    0.7003 C   0  0  0  0  0  0  0  0  0  0  0  0
    2.3231   -1.1419   -0.0343 O   0  0  0  0  0  0  0  0  0  0  0  0
    2.4475    0.2307   -0.0717 N   0  0  0  0  0  0  0  0  0  0  0  0
    3.4335    0.6841   -0.7117 C   0  0  0  0  0  0  0  0  0  0  0  0
    1.1893   -2.6167    0.7341 H   0  0  0  0  0  0  0  0  0  0  0  0
    1.1068   -1.0747    1.6647 H   0  0  0  0  0  0  0  0  0  0  0  0
    3.5368    1.7546   -0.7430 H   0  0  0  0  0  0  0  0  0  0  0  0
    4.1689    0.0679   -1.2197 H   0  0  0  0  0  0  0  0  0  0  0  0
   -3.8416   -0.4123   -0.6283 C   0  0  0  0  0  0  0  0  0  0  0  0
   -2.5283   -0.9321   -0.0189 C   0  0  0  0  0  0  0  0  0  0  0  0
   -1.3894   -0.0018   -0.2474 C   0  0  0  0  0  3  0  0  0  0  0  0
   -1.2967    1.0409    0.6391 O   0  0  0  0  0  0  0  0  0  0  0  0
   -0.3620    2.0369    0.3121 C   0  0  0  0  0  0  0  0  0  0  0  0
   -3.7367   -0.2856   -1.7036 H   0  0  0  0  0  0  0  0  0  0  0  0
   -4.1009    0.5470   -0.1880 H   0  0  0  0  0  0  0  0  0  0  0  0
   -4.6493   -1.1152   -0.4379 H   0  0  0  0  0  0  0  0  0  0  0  0
   -2.6631   -1.0593    1.0563 H   0  0  0  0  0  0  0  0  0  0  0  0
   -2.2937   -1.9031   -0.4613 H   0  0  0  0  0  0  0  0  0  0  0  0
    0.2365   -1.1089    0.3234 H   0  0  0  0  0  0  0  0  0  0  0  0
   -1.0652    0.1977   -1.2622 H   0  0  0  0  0  0  0  0  0  0  0  0
   -0.6091    2.5085   -0.6463 H   0  0  0  0  0  0  0  0  0  0  0  0
    0.6517    1.6213    0.2516 H   0  0  0  0  0  0  0  0  0  0  0  0
   -0.4100    2.7803    1.1059 H   0  0  0  0  0  0  0  0  0  0  0  0
  1  2  1  0
  1  5  1  0
  1  6  1  0
  1 19  1  0
  2  3  1  0
  3  4  2  3
  4  7  1  0
  4  8  1  0
  9 10  1  0
  9 14  1  0
  9 15  1  0
  9 16  1  0
 10 11  1  0
 10 17  1  0
 10 18  1  0
 11 12  1  0
 11 20  1  0
 12 13  1  0
 13 21  1  0
 13 22  1  0
 13 23  1  0
M  RAD  1  11   2
M  END
>  <reaction>  (15) 
rmg_rxn_15715

>  <mol_properties>  (15) 
{"0": {"label": "*3", "atom_type": "Cs"}, "1": {"label": "*4", "atom_type": "O2s"}, "10": {"label": "*1", "atom_type": "Cs"}, "11": {"label": "*0", "atom_type": "O2s"}, "18": {"label": "*2", "atom_type": "H0"}}

>  <type>  (15) 
unop_11

>  <geom_source>  (15) 
Heuristics

$$$$

     RDKit          3D

 23 21  0  0  0  0  0  0  0  0999 V2000
    0.9735   -0.2156    1.3366 C   0  0  0  0  0  0  0  0  0  0  0  0
   -0.3570   -0.2742    1.8118 O   0  0  0  0  0  0  0  0  0  0  0  0
   -0.4718    0.4711    2.9607 N   0  0  0  0  0  0  0  0  0  0  0  0
   -1.6469    0.4494    3.4247 C   0  0  0  0  0  0  0  0  0  0  0  0
    1.2583    0.8116    1.0982 H   0  0  0  0  0  0  0  0  0  0  0  0
    1.6694   -0.6260    2.0718 H   0  0  0  0  0  0  0  0  0  0  0  0
   -1.8208    1.0136    4.3311 H   0  0  0  0  0  0  0  0  0  0  0  0
   -2.4546   -0.1033    2.9496 H   0  0  0  0  0  0  0  0  0  0  0  0
    0.7901   -1.4800   -3.3992 C   0  0  0  0  0  0  0  0  0  0  0  0
    0.7901   -1.4800   -1.8763 C   0  0  0  0  0  0  0  0  0  0  0  0
    0.7901   -0.0874   -1.2803 C   0  0  0  0  0  3  0  0  0  0  0  0
   -0.3950    0.5760   -1.6444 O   0  0  0  0  0  0  0  0  0  0  0  0
   -0.4557    1.8871   -1.1592 C   0  0  0  0  0  0  0  0  0  0  0  0
    1.6725   -0.9663   -3.7889 H   0  0  0  0  0  0  0  0  0  0  0  0
   -0.0924   -0.9701   -3.7856 H   0  0  0  0  0  0  0  0  0  0  0  0
    0.7950   -2.4980   -3.7915 H   0  0  0  0  0  0  0  0  0  0  0  0
   -0.0840   -2.0181   -1.5007 H   0  0  0  0  0  0  0  0  0  0  0  0
    1.6718   -2.0061   -1.5001 H   0  0  0  0  0  0  0  0  0  0  0  0
    0.8823   -0.1518    0.0350 H   0  0  0  0  0  0  0  0  0  0  0  0
    1.6625    0.4796   -1.6425 H   0  0  0  0  0  0  0  0  0  0  0  0
    0.3681    2.4997   -1.5499 H   0  0  0  0  0  0  0  0  0  0  0  0
   -0.4138    1.9133   -0.0618 H   0  0  0  0  0  0  0  0  0  0  0  0
   -1.4014    2.3173   -1.4864 H   0  0  0  0  0  0  0  0  0  0  0  0
  1  2  1  0
  1  5  1  0
  1  6  1  0
  1 19  1  0
  2  3  1  0
  3  4  2  3
  4  7  1  0
  4  8  1  0
  9 10  1  0
  9 14  1  0
  9 15  1  0
  9 16  1  0
 10 11  1  0
 10 17  1  0
 10 18  1  0
 11 12  1  0
 11 20  1  0
 12 13  1  0
 13 21  1  0
 13 22  1  0
 13 23  1  0
M  RAD  1  11   2
M  END
>  <reaction>  (16) 
rmg_rxn_15715

>  <mol_properties>  (16) 
{"0": {"label": "*3", "atom_type": "Cs"}, "1": {"label": "*4", "atom_type": "O2s"}, "10": {"label": "*1", "atom_type": "Cs"}, "11": {"label": "*0", "atom_type": "O2s"}, "18": {"label": "*2", "atom_type": "H0"}}

>  <type>  (16) 
unop_12

>  <geom_source>  (16) 
Heuristics

$$$$

     RDKit          3D

 23 21  0  0  0  0  0  0  0  0999 V2000
    0.7882   -0.3421   -1.6300 C   0  0  0  0  0  0  0  0  0  0  0  0
    1.7019   -0.6434   -0.6234 O   0  0  0  0  0  0  0  0  0  0  0  0
    1.9937    0.4520    0.1625 N   0  0  0  0  0  0  0  0  0  0  0  0
    2.7976    0.2504    1.1184 C   0  0  0  0  0  0  0  0  0  0  0  0
    0.9977    0.6011   -2.1302 H   0  0  0  0  0  0  0  0  0  0  0  0
    0.7630   -1.1891   -2.3065 H   0  0  0  0  0  0  0  0  0  0  0  0
    3.0335    1.1000    1.7337 H   0  0  0  0  0  0  0  0  0  0  0  0
    3.2537   -0.7089    1.3407 H   0  0  0  0  0  0  0  0  0  0  0  0
   -1.3745   -2.3077    0.5578 C   0  0  0  0  0  0  0  0  0  0  0  0
   -1.5066   -0.8142    0.8291 C   0  0  0  0  0  0  0  0  0  0  0  0
   -1.5874   -0.0284   -0.4653 C   0  0  0  0  0  3  0  0  0  0  0  0
   -1.7982    1.3403   -0.3873 O   0  0  0  0  0  0  0  0  0  0  0  0
   -0.9721    2.0551    0.5041 C   0  0  0  0  0  0  0  0  0  0  0  0
   -2.2092   -2.6648   -0.0410 H   0  0  0  0  0  0  0  0  0  0  0  0
   -1.3603   -2.8605    1.4939 H   0  0  0  0  0  0  0  0  0  0  0  0
   -0.4514   -2.5149    0.0225 H   0  0  0  0  0  0  0  0  0  0  0  0
   -2.4103   -0.6267    1.4222 H   0  0  0  0  0  0  0  0  0  0  0  0
   -0.6489   -0.4795    1.4172 H   0  0  0  0  0  0  0  0  0  0  0  0
   -0.4112   -0.2154   -1.0931 H   0  0  0  0  0  0  0  0  0  0  0  0
   -2.3390   -0.4181   -1.1523 H   0  0  0  0  0  0  0  0  0  0  0  0
   -1.1072    3.1079    0.2613 H   0  0  0  0  0  0  0  0  0  0  0  0
    0.0819    1.7802    0.3800 H   0  0  0  0  0  0  0  0  0  0  0  0
   -1.2667    1.8876    1.5455 H   0  0  0  0  0  0  0  0  0  0  0  0
  1  2  1  0
  1  5  1  0
  1  6  1  0
  1 19  1  0
  2  3  1  0
  3  4  2  3
  4  7  1  0
  4  8  1  0
  9 10  1  0
  9 14  1  0
  9 15  1  0
  9 16  1  0
 10 11  1  0
 10 17  1  0
 10 18  1  0
 11 12  1  0
 11 20  1  0
 12 13  1  0
 13 21  1  0
 13 22  1  0
 13 23  1  0
M  RAD  1  11   2
M  END
>  <reaction>  (17) 
rmg_rxn_15715

>  <mol_properties>  (17) 
{"0": {"label": "*3", "atom_type": "Cs"}, "1": {"label": "*4", "atom_type": "O2s"}, "10": {"label": "*1", "atom_type": "Cs"}, "11": {"label": "*0", "atom_type": "O2s"}, "18": {"label": "*2", "atom_type": "H0"}}

>  <type>  (17) 
unop_13

>  <geom_source>  (17) 
Heuristics

$$$$

     RDKit          3D

 23 21  0  0  0  0  0  0  0  0999 V2000
    0.8096   -0.5018    1.3316 C   0  0  0  0  0  0  0  0  0  0  0  0
   -0.3567    0.1244    1.8288 O   0  0  0  0  0  0  0  0  0  0  0  0
   -0.0498    0.8450    2.9581 N   0  0  0  0  0  0  0  0  0  0  0  0
   -1.0636    1.4247    3.4407 C   0  0  0  0  0  0  0  0  0  0  0  0
    1.5653    0.2388    1.0602 H   0  0  0  0  0  0  0  0  0  0  0  0
    1.2251   -1.1944    2.0671 H   0  0  0  0  0  0  0  0  0  0  0  0
   -0.9056    2.0146    4.3336 H   0  0  0  0  0  0  0  0  0  0  0  0
   -2.0523    1.3454    2.9938 H   0  0  0  0  0  0  0  0  0  0  0  0
    0.6262   -1.7662   -3.4043 C   0  0  0  0  0  0  0  0  0  0  0  0
    0.6262   -1.7662   -1.8814 C   0  0  0  0  0  0  0  0  0  0  0  0
    0.6262   -0.3736   -1.2853 C   0  0  0  0  0  3  0  0  0  0  0  0
   -0.5588    0.2898   -1.6494 O   0  0  0  0  0  0  0  0  0  0  0  0
   -0.6196    1.6009   -1.1643 C   0  0  0  0  0  0  0  0  0  0  0  0
    1.5086   -1.2525   -3.7940 H   0  0  0  0  0  0  0  0  0  0  0  0
   -0.2562   -1.2563   -3.7907 H   0  0  0  0  0  0  0  0  0  0  0  0
    0.6311   -2.7842   -3.7966 H   0  0  0  0  0  0  0  0  0  0  0  0
   -0.2479   -2.3043   -1.5057 H   0  0  0  0  0  0  0  0  0  0  0  0
    1.5079   -2.2923   -1.5051 H   0  0  0  0  0  0  0  0  0  0  0  0
    0.7184   -0.4380    0.0300 H   0  0  0  0  0  0  0  0  0  0  0  0
    1.4986    0.1934   -1.6475 H   0  0  0  0  0  0  0  0  0  0  0  0
    0.2043    2.2135   -1.5549 H   0  0  0  0  0  0  0  0  0  0  0  0
   -0.5776    1.6271   -0.0668 H   0  0  0  0  0  0  0  0  0  0  0  0
   -1.5653    2.0311   -1.4914 H   0  0  0  0  0  0  0  0  0  0  0  0
  1  2  1  0
  1  5  1  0
  1  6  1  0
  1 19  1  0
  2  3  1  0
  3  4  2  3
  4  7  1  0
  4  8  1  0
  9 10  1  0
  9 14  1  0
  9 15  1  0
  9 16  1  0
 10 11  1  0
 10 17  1  0
 10 18  1  0
 11 12  1  0
 11 20  1  0
 12 13  1  0
 13 21  1  0
 13 22  1  0
 13 23  1  0
M  RAD  1  11   2
M  END
>  <reaction>  (18) 
rmg_rxn_15715

>  <mol_properties>  (18) 
{"0": {"label": "*3", "atom_type": "Cs"}, "1": {"label": "*4", "atom_type": "O2s"}, "10": {"label": "*1", "atom_type": "Cs"}, "11": {"label": "*0", "atom_type": "O2s"}, "18": {"label": "*2", "atom_type": "H0"}}

>  <type>  (18) 
unop_14

>  <geom_source>  (18) 
Heuristics

$$$$

     RDKit          3D

 23 21  0  0  0  0  0  0  0  0999 V2000
    1.2194   -1.5140   -0.7789 C   0  0  0  0  0  0  0  0  0  0  0  0
    2.3157   -1.1339    0.0146 O   0  0  0  0  0  0  0  0  0  0  0  0
    2.4195    0.2381    0.1043 N   0  0  0  0  0  0  0  0  0  0  0  0
    3.3650    0.6813    0.8091 C   0  0  0  0  0  0  0  0  0  0  0  0
    1.1724   -1.0224   -1.7312 H   0  0  0  0  0  0  0  0  0  0  0  0
    1.2320   -2.5934   -0.8491 H   0  0  0  0  0  0  0  0  0  0  0  0
    3.4524    1.7513    0.8804 H   0  0  0  0  0  0  0  0  0  0  0  0
    4.0817    0.0572    1.3340 H   0  0  0  0  0  0  0  0  0  0  0  0
   -3.7914   -0.4354    0.7075 C   0  0  0  0  0  0  0  0  0  0  0  0
   -2.5067   -0.9419    0.0298 C   0  0  0  0  0  0  0  0  0  0  0  0
   -1.3624   -0.0090    0.2157 C   0  0  0  0  0  3  0  0  0  0  0  0
   -1.3073    1.0375   -0.6696 O   0  0  0  0  0  0  0  0  0  0  0  0
   -0.3768    2.0444   -0.3644 C   0  0  0  0  0  0  0  0  0  0  0  0
   -4.0748    0.5287    0.2930 H   0  0  0  0  0  0  0  0  0  0  0  0
   -3.6357   -0.3223    1.7781 H   0  0  0  0  0  0  0  0  0  0  0  0
   -4.6050   -1.1389    0.5466 H   0  0  0  0  0  0  0  0  0  0  0  0
   -2.2479   -1.9172    0.4489 H   0  0  0  0  0  0  0  0  0  0  0  0
   -2.6915   -1.0568   -1.0394 H   0  0  0  0  0  0  0  0  0  0  0  0
    0.2468   -1.1115   -0.4199 H   0  0  0  0  0  0  0  0  0  0  0  0
   -0.9962    0.1860    1.2168 H   0  0  0  0  0  0  0  0  0  0  0  0
   -0.4380    2.7775   -1.1670 H   0  0  0  0  0  0  0  0  0  0  0  0
    0.6402    1.6371   -0.3069 H   0  0  0  0  0  0  0  0  0  0  0  0
   -0.6189    2.5263    0.5903 H   0  0  0  0  0  0  0  0  0  0  0  0
  1  2  1  0
  1  5  1  0
  1  6  1  0
  1 19  1  0
  2  3  1  0
  3  4  2  3
  4  7  1  0
  4  8  1  0
  9 10  1  0
  9 14  1  0
  9 15  1  0
  9 16  1  0
 10 11  1  0
 10 17  1  0
 10 18  1  0
 11 12  1  0
 11 20  1  0
 12 13  1  0
 13 21  1  0
 13 22  1  0
 13 23  1  0
M  RAD  1  11   2
M  END
>  <reaction>  (19) 
rmg_rxn_15715

>  <mol_properties>  (19) 
{"0": {"label": "*3", "atom_type": "Cs"}, "1": {"label": "*4", "atom_type": "O2s"}, "10": {"label": "*1", "atom_type": "Cs"}, "11": {"label": "*0", "atom_type": "O2s"}, "18": {"label": "*2", "atom_type": "H0"}}

>  <type>  (19) 
unop_15

>  <geom_source>  (19) 
Heuristics

$$$$

     RDKit          3D

 23 21  0  0  0  0  0  0  0  0999 V2000
   -0.2589   -0.2518    1.4212 C   0  0  0  0  0  0  0  0  0  0  0  0
    1.1252   -0.2307    1.7100 O   0  0  0  0  0  0  0  0  0  0  0  0
    1.3520    0.5247    2.8355 N   0  0  0  0  0  0  0  0  0  0  0  0
    2.5787    0.5736    3.1346 C   0  0  0  0  0  0  0  0  0  0  0  0
   -0.8227   -0.6992    2.2429 H   0  0  0  0  0  0  0  0  0  0  0  0
   -0.6332    0.7560    1.2280 H   0  0  0  0  0  0  0  0  0  0  0  0
    2.8414    1.1506    4.0111 H   0  0  0  0  0  0  0  0  0  0  0  0
    3.3448    0.0671    2.5514 H   0  0  0  0  0  0  0  0  0  0  0  0
   -0.4424   -1.5162   -3.3146 C   0  0  0  0  0  0  0  0  0  0  0  0
   -0.4424   -1.5162   -1.7917 C   0  0  0  0  0  0  0  0  0  0  0  0
   -0.4424   -0.1236   -1.1957 C   0  0  0  0  0  3  0  0  0  0  0  0
   -1.6274    0.5398   -1.5598 O   0  0  0  0  0  0  0  0  0  0  0  0
   -1.6882    1.8509   -1.0746 C   0  0  0  0  0  0  0  0  0  0  0  0
    0.4400   -1.0025   -3.7043 H   0  0  0  0  0  0  0  0  0  0  0  0
   -1.3248   -1.0063   -3.7010 H   0  0  0  0  0  0  0  0  0  0  0  0
   -0.4374   -2.5342   -3.7069 H   0  0  0  0  0  0  0  0  0  0  0  0
   -1.3165   -2.0544   -1.4161 H   0  0  0  0  0  0  0  0  0  0  0  0
    0.4394   -2.0423   -1.4155 H   0  0  0  0  0  0  0  0  0  0  0  0
   -0.3502   -0.1881    0.1196 H   0  0  0  0  0  0  0  0  0  0  0  0
    0.4300    0.4434   -1.5579 H   0  0  0  0  0  0  0  0  0  0  0  0
   -0.8643    2.4635   -1.4653 H   0  0  0  0  0  0  0  0  0  0  0  0
   -1.6462    1.8770    0.0228 H   0  0  0  0  0  0  0  0  0  0  0  0
   -2.6339    2.2811   -1.4018 H   0  0  0  0  0  0  0  0  0  0  0  0
  1  2  1  0
  1  5  1  0
  1  6  1  0
  1 19  1  0
  2  3  1  0
  3  4  2  3
  4  7  1  0
  4  8  1  0
  9 10  1  0
  9 14  1  0
  9 15  1  0
  9 16  1  0
 10 11  1  0
 10 17  1  0
 10 18  1  0
 11 12  1  0
 11 20  1  0
 12 13  1  0
 13 21  1  0
 13 22  1  0
 13 23  1  0
M  RAD  1  11   2
M  END
>  <reaction>  (20) 
rmg_rxn_15715

>  <mol_properties>  (20) 
{"0": {"label": "*3", "atom_type": "Cs"}, "1": {"label": "*4", "atom_type": "O2s"}, "10": {"label": "*1", "atom_type": "Cs"}, "11": {"label": "*0", "atom_type": "O2s"}, "18": {"label": "*2", "atom_type": "H0"}}

>  <type>  (20) 
unop_16

>  <geom_source>  (20) 
Heuristics

$$$$

     RDKit          3D

 23 21  0  0  0  0  0  0  0  0999 V2000
    0.7890    0.3337    1.6321 C   0  0  0  0  0  0  0  0  0  0  0  0
    1.7043    0.6356    0.6270 O   0  0  0  0  0  0  0  0  0  0  0  0
    1.9893   -0.4568   -0.1654 N   0  0  0  0  0  0  0  0  0  0  0  0
    2.7960   -0.2553   -1.1189 C   0  0  0  0  0  0  0  0  0  0  0  0
    0.9951   -0.6121    2.1287 H   0  0  0  0  0  0  0  0  0  0  0  0
    0.7664    1.1783    2.3117 H   0  0  0  0  0  0  0  0  0  0  0  0
    3.0267   -1.1029   -1.7389 H   0  0  0  0  0  0  0  0  0  0  0  0
    3.2598    0.7021   -1.3344 H   0  0  0  0  0  0  0  0  0  0  0  0
   -1.3593    2.3127   -0.5559 C   0  0  0  0  0  0  0  0  0  0  0  0
   -1.4998    0.8202   -0.8289 C   0  0  0  0  0  0  0  0  0  0  0  0
   -1.5871    0.0340    0.4647 C   0  0  0  0  0  3  0  0  0  0  0  0
   -1.8060   -1.3335    0.3855 O   0  0  0  0  0  0  0  0  0  0  0  0
   -0.9836   -2.0524   -0.5063 C   0  0  0  0  0  0  0  0  0  0  0  0
   -1.3412    2.8664   -1.4914 H   0  0  0  0  0  0  0  0  0  0  0  0
   -0.4356    2.5139   -0.0197 H   0  0  0  0  0  0  0  0  0  0  0  0
   -2.1925    2.6740    0.0426 H   0  0  0  0  0  0  0  0  0  0  0  0
   -2.4037    0.6387   -1.4237 H   0  0  0  0  0  0  0  0  0  0  0  0
   -0.6432    0.4811   -1.4161 H   0  0  0  0  0  0  0  0  0  0  0  0
   -0.4104    0.2134    1.0938 H   0  0  0  0  0  0  0  0  0  0  0  0
   -2.3372    0.4276    1.1511 H   0  0  0  0  0  0  0  0  0  0  0  0
   -1.1257   -3.1046   -0.2649 H   0  0  0  0  0  0  0  0  0  0  0  0
    0.0719   -1.7841   -0.3810 H   0  0  0  0  0  0  0  0  0  0  0  0
   -1.2764   -1.8815   -1.5476 H   0  0  0  0  0  0  0  0  0  0  0  0
  1  2  1  0
  1  5  1  0
  1  6  1  0
  1 19  1  0
  2  3  1  0
  3  4  2  3
  4  7  1  0
  4  8  1  0
  9 10  1  0
  9 14  1  0
  9 15  1  0
  9 16  1  0
 10 11  1  0
 10 17  1  0
 10 18  1  0
 11 12  1  0
 11 20  1  0
 12 13  1  0
 13 21  1  0
 13 22  1  0
 13 23  1  0
M  RAD  1  11   2
M  END
>  <reaction>  (21) 
rmg_rxn_15715

>  <mol_properties>  (21) 
{"0": {"label": "*3", "atom_type": "Cs"}, "1": {"label": "*4", "atom_type": "O2s"}, "10": {"label": "*1", "atom_type": "Cs"}, "11": {"label": "*0", "atom_type": "O2s"}, "18": {"label": "*2", "atom_type": "H0"}}

>  <type>  (21) 
unop_17

>  <geom_source>  (21) 
Heuristics

$$$$

     RDKit          3D

 23 21  0  0  0  0  0  0  0  0999 V2000
    0.7178    0.4362    1.3404 C   0  0  0  0  0  0  0  0  0  0  0  0
    0.0964   -0.7793    1.7091 O   0  0  0  0  0  0  0  0  0  0  0  0
   -0.2266   -0.7478    3.0446 N   0  0  0  0  0  0  0  0  0  0  0  0
   -0.7862   -1.8159    3.4224 C   0  0  0  0  0  0  0  0  0  0  0  0
    0.0467    1.2828    1.5018 H   0  0  0  0  0  0  0  0  0  0  0  0
    1.6410    0.5897    1.9037 H   0  0  0  0  0  0  0  0  0  0  0  0
   -1.0727   -1.8708    4.4642 H   0  0  0  0  0  0  0  0  0  0  0  0
   -0.9777   -2.6476    2.7479 H   0  0  0  0  0  0  0  0  0  0  0  0
    0.5344   -0.8282   -3.3955 C   0  0  0  0  0  0  0  0  0  0  0  0
    0.5344   -0.8282   -1.8726 C   0  0  0  0  0  0  0  0  0  0  0  0
    0.5344    0.5644   -1.2765 C   0  0  0  0  0  3  0  0  0  0  0  0
   -0.6506    1.2278   -1.6407 O   0  0  0  0  0  0  0  0  0  0  0  0
   -0.7114    2.5389   -1.1555 C   0  0  0  0  0  0  0  0  0  0  0  0
    1.4168   -0.3145   -3.7852 H   0  0  0  0  0  0  0  0  0  0  0  0
   -0.3480   -0.3183   -3.7819 H   0  0  0  0  0  0  0  0  0  0  0  0
    0.5393   -1.8462   -3.7878 H   0  0  0  0  0  0  0  0  0  0  0  0
   -0.3397   -1.3663   -1.4969 H   0  0  0  0  0  0  0  0  0  0  0  0
    1.4161   -1.3543   -1.4963 H   0  0  0  0  0  0  0  0  0  0  0  0
    0.6266    0.5000    0.0388 H   0  0  0  0  0  0  0  0  0  0  0  0
    1.4068    1.1314   -1.6387 H   0  0  0  0  0  0  0  0  0  0  0  0
    0.1125    3.1515   -1.5461 H   0  0  0  0  0  0  0  0  0  0  0  0
   -0.6694    2.5651   -0.0580 H   0  0  0  0  0  0  0  0  0  0  0  0
   -1.6571    2.9691   -1.4826 H   0  0  0  0  0  0  0  0  0  0  0  0
  1  2  1  0
  1  5  1  0
  1  6  1  0
  1 19  1  0
  2  3  1  0
  3  4  2  3
  4  7  1  0
  4  8  1  0
  9 10  1  0
  9 14  1  0
  9 15  1  0
  9 16  1  0
 10 11  1  0
 10 17  1  0
 10 18  1  0
 11 12  1  0
 11 20  1  0
 12 13  1  0
 13 21  1  0
 13 22  1  0
 13 23  1  0
M  RAD  1  11   2
M  END
>  <reaction>  (22) 
rmg_rxn_15715

>  <mol_properties>  (22) 
{"0": {"label": "*3", "atom_type": "Cs"}, "1": {"label": "*4", "atom_type": "O2s"}, "10": {"label": "*1", "atom_type": "Cs"}, "11": {"label": "*0", "atom_type": "O2s"}, "18": {"label": "*2", "atom_type": "H0"}}

>  <type>  (22) 
unop_18

>  <geom_source>  (22) 
Heuristics

$$$$

     RDKit          3D

 23 21  0  0  0  0  0  0  0  0999 V2000
   -0.2582    0.1028    1.4200 C   0  0  0  0  0  0  0  0  0  0  0  0
    0.9617   -0.5608    1.6867 O   0  0  0  0  0  0  0  0  0  0  0  0
    1.4992   -0.0880    2.8598 N   0  0  0  0  0  0  0  0  0  0  0  0
    2.5939   -0.6529    3.1414 C   0  0  0  0  0  0  0  0  0  0  0  0
   -0.9835   -0.0778    2.2165 H   0  0  0  0  0  0  0  0  0  0  0  0
   -0.1014    1.1778    1.3061 H   0  0  0  0  0  0  0  0  0  0  0  0
    3.0829   -0.3356    4.0528 H   0  0  0  0  0  0  0  0  0  0  0  0
    3.0364   -1.4210    2.5108 H   0  0  0  0  0  0  0  0  0  0  0  0
   -0.4416   -1.1616   -3.3158 C   0  0  0  0  0  0  0  0  0  0  0  0
   -0.4416   -1.1616   -1.7929 C   0  0  0  0  0  0  0  0  0  0  0  0
   -0.4416    0.2310   -1.1969 C   0  0  0  0  0  3  0  0  0  0  0  0
   -1.6266    0.8945   -1.5610 O   0  0  0  0  0  0  0  0  0  0  0  0
   -1.6874    2.2055   -1.0759 C   0  0  0  0  0  0  0  0  0  0  0  0
    0.4408   -0.6479   -3.7055 H   0  0  0  0  0  0  0  0  0  0  0  0
   -1.3240   -0.6517   -3.7023 H   0  0  0  0  0  0  0  0  0  0  0  0
   -0.4367   -2.1796   -3.7081 H   0  0  0  0  0  0  0  0  0  0  0  0
   -1.3157   -1.6997   -1.4173 H   0  0  0  0  0  0  0  0  0  0  0  0
    0.4401   -1.6877   -1.4167 H   0  0  0  0  0  0  0  0  0  0  0  0
   -0.3494    0.1666    0.1184 H   0  0  0  0  0  0  0  0  0  0  0  0
    0.4308    0.7980   -1.5591 H   0  0  0  0  0  0  0  0  0  0  0  0
   -0.8635    2.8181   -1.4665 H   0  0  0  0  0  0  0  0  0  0  0  0
   -1.6454    2.2317    0.0216 H   0  0  0  0  0  0  0  0  0  0  0  0
   -2.6331    2.6357   -1.4030 H   0  0  0  0  0  0  0  0  0  0  0  0
  1  2  1  0
  1  5  1  0
  1  6  1  0
  1 19  1  0
  2  3  1  0
  3  4  2  3
  4  7  1  0
  4  8  1  0
  9 10  1  0
  9 14  1  0
  9 15  1  0
  9 16  1  0
 10 11  1  0
 10 17  1  0
 10 18  1  0
 11 12  1  0
 11 20  1  0
 12 13  1  0
 13 21  1  0
 13 22  1  0
 13 23  1  0
M  RAD  1  11   2
M  END
>  <reaction>  (23) 
rmg_rxn_15715

>  <mol_properties>  (23) 
{"0": {"label": "*3", "atom_type": "Cs"}, "1": {"label": "*4", "atom_type": "O2s"}, "10": {"label": "*1", "atom_type": "Cs"}, "11": {"label": "*0", "atom_type": "O2s"}, "18": {"label": "*2", "atom_type": "H0"}}

>  <type>  (23) 
unop_19

>  <geom_source>  (23) 
Heuristics

$$$$

     RDKit          3D

 23 21  0  0  0  0  0  0  0  0999 V2000
    0.5600   -0.6370    1.3127 C   0  0  0  0  0  0  0  0  0  0  0  0
   -0.1224    0.5012    1.8011 O   0  0  0  0  0  0  0  0  0  0  0  0
    0.3799    0.8496    3.0319 N   0  0  0  0  0  0  0  0  0  0  0  0
   -0.2003    1.8649    3.5108 C   0  0  0  0  0  0  0  0  0  0  0  0
    1.6260   -0.4316    1.1924 H   0  0  0  0  0  0  0  0  0  0  0  0
    0.4258   -1.4899    1.9818 H   0  0  0  0  0  0  0  0  0  0  0  0
    0.1382    2.2043    4.4806 H   0  0  0  0  0  0  0  0  0  0  0  0
   -1.0012    2.3832    2.9880 H   0  0  0  0  0  0  0  0  0  0  0  0
    0.3765   -1.9014   -3.4231 C   0  0  0  0  0  0  0  0  0  0  0  0
    0.3765   -1.9014   -1.9002 C   0  0  0  0  0  0  0  0  0  0  0  0
    0.3765   -0.5088   -1.3041 C   0  0  0  0  0  3  0  0  0  0  0  0
   -0.8085    0.1546   -1.6683 O   0  0  0  0  0  0  0  0  0  0  0  0
   -0.8693    1.4657   -1.1831 C   0  0  0  0  0  0  0  0  0  0  0  0
    1.2589   -1.3877   -3.8128 H   0  0  0  0  0  0  0  0  0  0  0  0
   -0.5059   -1.3915   -3.8095 H   0  0  0  0  0  0  0  0  0  0  0  0
    0.3814   -2.9194   -3.8154 H   0  0  0  0  0  0  0  0  0  0  0  0
   -0.4976   -2.4395   -1.5246 H   0  0  0  0  0  0  0  0  0  0  0  0
    1.2583   -2.4275   -1.5239 H   0  0  0  0  0  0  0  0  0  0  0  0
    0.4687   -0.5732    0.0111 H   0  0  0  0  0  0  0  0  0  0  0  0
    1.2489    0.0582   -1.6663 H   0  0  0  0  0  0  0  0  0  0  0  0
   -0.0454    2.0783   -1.5738 H   0  0  0  0  0  0  0  0  0  0  0  0
   -0.8273    1.4919   -0.0856 H   0  0  0  0  0  0  0  0  0  0  0  0
   -1.8150    1.8959   -1.5103 H   0  0  0  0  0  0  0  0  0  0  0  0
  1  2  1  0
  1  5  1  0
  1  6  1  0
  1 19  1  0
  2  3  1  0
  3  4  2  3
  4  7  1  0
  4  8  1  0
  9 10  1  0
  9 14  1  0
  9 15  1  0
  9 16  1  0
 10 11  1  0
 10 17  1  0
 10 18  1  0
 11 12  1  0
 11 20  1  0
 12 13  1  0
 13 21  1  0
 13 22  1  0
 13 23  1  0
M  RAD  1  11   2
M  END
>  <reaction>  (24) 
rmg_rxn_15715

>  <mol_properties>  (24) 
{"0": {"label": "*3", "atom_type": "Cs"}, "1": {"label": "*4", "atom_type": "O2s"}, "10": {"label": "*1", "atom_type": "Cs"}, "11": {"label": "*0", "atom_type": "O2s"}, "18": {"label": "*2", "atom_type": "H0"}}

>  <type>  (24) 
unop_20

>  <geom_source>  (24) 
Heuristics

$$$$

     RDKit          3D

 23 21  0  0  0  0  0  0  0  0999 V2000
    0.3329    0.5483    1.3584 C   0  0  0  0  0  0  0  0  0  0  0  0
    0.3949   -0.8293    1.6713 O   0  0  0  0  0  0  0  0  0  0  0  0
    0.4931   -0.9911    3.0326 N   0  0  0  0  0  0  0  0  0  0  0  0
    0.5515   -2.2095    3.3623 C   0  0  0  0  0  0  0  0  0  0  0  0
   -0.5441    1.0134    1.8142 H   0  0  0  0  0  0  0  0  0  0  0  0
    1.2352    1.0657    1.6920 H   0  0  0  0  0  0  0  0  0  0  0  0
    0.6304   -2.4223    4.4201 H   0  0  0  0  0  0  0  0  0  0  0  0
    0.5252   -3.0161    2.6328 H   0  0  0  0  0  0  0  0  0  0  0  0
    0.1495   -0.7161   -3.3774 C   0  0  0  0  0  0  0  0  0  0  0  0
    0.1495   -0.7161   -1.8545 C   0  0  0  0  0  0  0  0  0  0  0  0
    0.1495    0.6765   -1.2585 C   0  0  0  0  0  3  0  0  0  0  0  0
   -1.0356    1.3399   -1.6226 O   0  0  0  0  0  0  0  0  0  0  0  0
   -1.0963    2.6510   -1.1374 C   0  0  0  0  0  0  0  0  0  0  0  0
    1.0319   -0.2024   -3.7671 H   0  0  0  0  0  0  0  0  0  0  0  0
   -0.7330   -0.2062   -3.7638 H   0  0  0  0  0  0  0  0  0  0  0  0
    0.1544   -1.7341   -3.7697 H   0  0  0  0  0  0  0  0  0  0  0  0
   -0.7246   -1.2542   -1.4789 H   0  0  0  0  0  0  0  0  0  0  0  0
    1.0312   -1.2422   -1.4783 H   0  0  0  0  0  0  0  0  0  0  0  0
    0.2417    0.6121    0.0568 H   0  0  0  0  0  0  0  0  0  0  0  0
    1.0219    1.2435   -1.6207 H   0  0  0  0  0  0  0  0  0  0  0  0
   -0.2724    3.2636   -1.5281 H   0  0  0  0  0  0  0  0  0  0  0  0
   -1.0543    2.6772   -0.0400 H   0  0  0  0  0  0  0  0  0  0  0  0
   -2.0420    3.0812   -1.4646 H   0  0  0  0  0  0  0  0  0  0  0  0
  1  2  1  0
  1  5  1  0
  1  6  1  0
  1 19  1  0
  2  3  1  0
  3  4  2  3
  4  7  1  0
  4  8  1  0
  9 10  1  0
  9 14  1  0
  9 15  1  0
  9 16  1  0
 10 11  1  0
 10 17  1  0
 10 18  1  0
 11 12  1  0
 11 20  1  0
 12 13  1  0
 13 21  1  0
 13 22  1  0
 13 23  1  0
M  RAD  1  11   2
M  END
>  <reaction>  (25) 
rmg_rxn_15715

>  <mol_properties>  (25) 
{"0": {"label": "*3", "atom_type": "Cs"}, "1": {"label": "*4", "atom_type": "O2s"}, "10": {"label": "*1", "atom_type": "Cs"}, "11": {"label": "*0", "atom_type": "O2s"}, "18": {"label": "*2", "atom_type": "H0"}}

>  <type>  (25) 
unop_21

>  <geom_source>  (25) 
Heuristics

$$$$

     RDKit          3D

 23 21  0  0  0  0  0  0  0  0999 V2000
    0.7888    0.3447    1.6308 C   0  0  0  0  0  0  0  0  0  0  0  0
    1.7015    0.6444    0.6228 O   0  0  0  0  0  0  0  0  0  0  0  0
    1.9914   -0.4520   -0.1623 N   0  0  0  0  0  0  0  0  0  0  0  0
    2.7947   -0.2524   -1.1192 C   0  0  0  0  0  0  0  0  0  0  0  0
    0.9993   -0.5971    2.1331 H   0  0  0  0  0  0  0  0  0  0  0  0
    0.7634    1.1932    2.3054 H   0  0  0  0  0  0  0  0  0  0  0  0
    3.0293   -1.1031   -1.7335 H   0  0  0  0  0  0  0  0  0  0  0  0
    3.2515    0.7063   -1.3430 H   0  0  0  0  0  0  0  0  0  0  0  0
   -1.3762    2.3072   -0.5594 C   0  0  0  0  0  0  0  0  0  0  0  0
   -1.5021    0.8130   -0.8298 C   0  0  0  0  0  0  0  0  0  0  0  0
   -1.5860    0.0287    0.4653 C   0  0  0  0  0  3  0  0  0  0  0  0
   -1.7977   -1.3400    0.3884 O   0  0  0  0  0  0  0  0  0  0  0  0
   -0.9719   -2.0559   -0.5025 C   0  0  0  0  0  0  0  0  0  0  0  0
   -0.4562    2.5180   -0.0202 H   0  0  0  0  0  0  0  0  0  0  0  0
   -2.2148    2.6622    0.0353 H   0  0  0  0  0  0  0  0  0  0  0  0
   -1.3596    2.8591   -1.4961 H   0  0  0  0  0  0  0  0  0  0  0  0
   -2.4025    0.6220   -1.4269 H   0  0  0  0  0  0  0  0  0  0  0  0
   -0.6407    0.4805   -1.4136 H   0  0  0  0  0  0  0  0  0  0  0  0
   -0.4107    0.2157    1.0945 H   0  0  0  0  0  0  0  0  0  0  0  0
   -2.3386    0.4196    1.1506 H   0  0  0  0  0  0  0  0  0  0  0  0
   -1.1106   -3.1087   -0.2614 H   0  0  0  0  0  0  0  0  0  0  0  0
    0.0826   -1.7840   -0.3760 H   0  0  0  0  0  0  0  0  0  0  0  0
   -1.2639   -1.8859   -1.5443 H   0  0  0  0  0  0  0  0  0  0  0  0
  1  2  1  0
  1  5  1  0
  1  6  1  0
  1 19  1  0
  2  3  1  0
  3  4  2  3
  4  7  1  0
  4  8  1  0
  9 10  1  0
  9 14  1  0
  9 15  1  0
  9 16  1  0
 10 11  1  0
 10 17  1  0
 10 18  1  0
 11 12  1  0
 11 20  1  0
 12 13  1  0
 13 21  1  0
 13 22  1  0
 13 23  1  0
M  RAD  1  11   2
M  END
>  <reaction>  (26) 
rmg_rxn_15715

>  <mol_properties>  (26) 
{"0": {"label": "*3", "atom_type": "Cs"}, "1": {"label": "*4", "atom_type": "O2s"}, "10": {"label": "*1", "atom_type": "Cs"}, "11": {"label": "*0", "atom_type": "O2s"}, "18": {"label": "*2", "atom_type": "H0"}}

>  <type>  (26) 
unop_22

>  <geom_source>  (26) 
Heuristics

$$$$

     RDKit          3D

 23 21  0  0  0  0  0  0  0  0999 V2000
   -2.2069    1.3890    0.4901 O   0  0  0  0  0  0  0  0  0  0  0  0
    1.8031    0.9710    0.0729 O   0  0  0  0  0  0  0  0  0  0  0  0
    3.1628    0.7022    0.0434 N   0  0  0  0  0  0  0  0  0  0  0  0
   -1.4276   -0.8794    0.4780 C   0  0  0  0  0  0  0  0  0  0  0  0
   -0.7962   -1.9592   -0.3922 C   0  0  0  0  0  0  0  0  0  0  0  0
   -1.4075    2.5248    0.2774 C   0  0  0  0  0  0  0  0  0  0  0  0
    0.7966   -0.0316   -0.0381 C   0  0  0  0  0  0  0  0  0  0  0  0
   -1.7118    0.3738   -0.3418 C   0  0  0  0  0  3  0  0  0  0  0  0
    3.6788   -0.4813   -0.0872 C   0  0  0  0  0  0  0  0  0  0  0  0
   -2.3747   -1.2626    0.9160 H   0  0  0  0  0  0  0  0  0  0  0  0
   -0.7293   -0.6263    1.3047 H   0  0  0  0  0  0  0  0  0  0  0  0
    0.1565   -1.5918   -0.8301 H   0  0  0  0  0  0  0  0  0  0  0  0
   -0.5816   -2.8564    0.2257 H   0  0  0  0  0  0  0  0  0  0  0  0
   -1.4889   -2.2491   -1.2110 H   0  0  0  0  0  0  0  0  0  0  0  0
    0.8878   -0.7566    0.7979 H   0  0  0  0  0  0  0  0  0  0  0  0
    0.8882   -0.5567   -1.0121 H   0  0  0  0  0  0  0  0  0  0  0  0
   -0.4104    0.5492    0.0259 H   0  0  0  0  0  0  0  0  0  0  0  0
   -1.7783    3.3450    0.9259 H   0  0  0  0  0  0  0  0  0  0  0  0
   -0.3470    2.3283    0.5558 H   0  0  0  0  0  0  0  0  0  0  0  0
   -1.4752    2.8729   -0.7785 H   0  0  0  0  0  0  0  0  0  0  0  0
   -2.4556    0.1545   -1.1382 H   0  0  0  0  0  0  0  0  0  0  0  0
    4.7540   -0.5948   -0.0995 H   0  0  0  0  0  0  0  0  0  0  0  0
    3.0634   -1.3649   -0.1849 H   0  0  0  0  0  0  0  0  0  0  0  0
  1  6  1  0
  1  8  1  0
  2  7  1  0
  2  3  1  0
  3  9  2  3
  4  5  1  0
  4  8  1  0
  4 10  1  0
  4 11  1  0
  5 12  1  0
  5 13  1  0
  5 14  1  0
  6 18  1  0
  6 19  1  0
  6 20  1  0
  7 15  1  0
  7 16  1  0
  7 17  1  0
  8 21  1  0
  9 22  1  0
  9 23  1  0
M  RAD  1   8   2
M  END
>  <reaction>  (27) 
rmg_rxn_15715

>  <mol_properties>  (27) 
{"0": {"label": "*3", "atom_type": "Cs"}, "1": {"label": "*4", "atom_type": "O2s"}, "10": {"label": "*1", "atom_type": "Cs"}, "11": {"label": "*0", "atom_type": "O2s"}, "18": {"label": "*2", "atom_type": "H0"}}

>  <type>  (27) 
unop_23

>  <geom_source>  (27) 
AutoTST

$$$$

     RDKit          3D

 23 21  0  0  0  0  0  0  0  0999 V2000
   -0.0437    0.4138    1.3926 C   0  0  0  0  0  0  0  0  0  0  0  0
    0.6923   -0.7618    1.6682 O   0  0  0  0  0  0  0  0  0  0  0  0
    1.1922   -0.7061    2.9472 N   0  0  0  0  0  0  0  0  0  0  0  0
    1.8596   -1.7382    3.2408 C   0  0  0  0  0  0  0  0  0  0  0  0
   -0.8886    0.5153    2.0774 H   0  0  0  0  0  0  0  0  0  0  0  0
    0.5926    1.2988    1.4643 H   0  0  0  0  0  0  0  0  0  0  0  0
    2.2884   -1.7721    4.2334 H   0  0  0  0  0  0  0  0  0  0  0  0
    2.0055   -2.5600    2.5431 H   0  0  0  0  0  0  0  0  0  0  0  0
   -0.2271   -0.8506   -3.3432 C   0  0  0  0  0  0  0  0  0  0  0  0
   -0.2271   -0.8506   -1.8203 C   0  0  0  0  0  0  0  0  0  0  0  0
   -0.2271    0.5420   -1.2242 C   0  0  0  0  0  3  0  0  0  0  0  0
   -1.4121    1.2055   -1.5884 O   0  0  0  0  0  0  0  0  0  0  0  0
   -1.4729    2.5166   -1.1032 C   0  0  0  0  0  0  0  0  0  0  0  0
    0.6553   -0.3369   -3.7329 H   0  0  0  0  0  0  0  0  0  0  0  0
   -1.1095   -0.3407   -3.7296 H   0  0  0  0  0  0  0  0  0  0  0  0
   -0.2222   -1.8686   -3.7355 H   0  0  0  0  0  0  0  0  0  0  0  0
   -1.1012   -1.3887   -1.4447 H   0  0  0  0  0  0  0  0  0  0  0  0
    0.6546   -1.3767   -1.4440 H   0  0  0  0  0  0  0  0  0  0  0  0
   -0.1349    0.4776    0.0910 H   0  0  0  0  0  0  0  0  0  0  0  0
    0.6453    1.1091   -1.5864 H   0  0  0  0  0  0  0  0  0  0  0  0
   -0.6490    3.1291   -1.4938 H   0  0  0  0  0  0  0  0  0  0  0  0
   -1.4309    2.5427   -0.0057 H   0  0  0  0  0  0  0  0  0  0  0  0
   -2.4186    2.9467   -1.4303 H   0  0  0  0  0  0  0  0  0  0  0  0
  1  2  1  0
  1  5  1  0
  1  6  1  0
  1 19  1  0
  2  3  1  0
  3  4  2  3
  4  7  1  0
  4  8  1  0
  9 10  1  0
  9 14  1  0
  9 15  1  0
  9 16  1  0
 10 11  1  0
 10 17  1  0
 10 18  1  0
 11 12  1  0
 11 20  1  0
 12 13  1  0
 13 21  1  0
 13 22  1  0
 13 23  1  0
M  RAD  1  11   2
M  END
>  <reaction>  (28) 
rmg_rxn_15715

>  <mol_properties>  (28) 
{"0": {"label": "*3", "atom_type": "Cs"}, "1": {"label": "*4", "atom_type": "O2s"}, "10": {"label": "*1", "atom_type": "Cs"}, "11": {"label": "*0", "atom_type": "O2s"}, "18": {"label": "*2", "atom_type": "H0"}}

>  <type>  (28) 
unop_24

>  <geom_source>  (28) 
gaussian_log

$$$$
