
     RDKit          3D

  9  8  0  0  0  0  0  0  0  0999 V2000
   -1.0314    0.2323   -0.1227 C   0  0  0  0  0  0  0  0  0  0  0  0
    0.3094   -0.4511    0.0063 C   0  0  0  0  0  0  0  0  0  0  0  0
    0.3197   -1.7698    0.6841 N   0  0  0  0  0  0  0  0  0  0  0  0
   -0.7498   -2.1455    1.0557 O   0  0  0  0  0  0  0  0  0  0  0  0
   -1.4744    0.4198    0.8552 H   0  0  0  0  0  0  0  0  0  0  0  0
   -0.9073    1.1865   -0.6350 H   0  0  0  0  0  0  0  0  0  0  0  0
   -1.7319   -0.3778   -0.6927 H   0  0  0  0  0  0  0  0  0  0  0  0
    1.0375    0.1401    0.5713 H   0  0  0  0  0  0  0  0  0  0  0  0
    0.7826   -0.6494   -0.9609 H   0  0  0  0  0  0  0  0  0  0  0  0
  1  2  1  0
  1  5  1  0
  1  6  1  0
  1  7  1  0
  2  3  1  0
  2  8  1  0
  2  9  1  0
  3  4  2  0
M  END
>  <reaction>  (1) 
rmg_rxn_670

>  <mol_properties>  (1) 
{"1": {"label": "donator", "atom_type": "Cs"}, "7": {"label": "d_hydrogen", "atom_type": "H0"}}

>  <type>  (1) 
r1h

$$$$

     RDKit          3D

 14 13  0  0  0  0  0  0  0  0999 V2000
    2.7687   -0.0362   -0.0732 C   0  0  0  0  0  3  0  0  0  0  0  0
    1.6543    0.2105    0.6386 O   0  0  0  0  0  0  0  0  0  0  0  0
    1.8652    0.6968    1.9544 C   0  0  0  0  0  0  0  0  0  0  0  0
    0.5252    0.9355    2.6156 C   0  0  0  0  0  0  0  0  0  0  0  0
   -0.2992    2.0181    1.9317 C   0  0  0  0  0  0  0  0  0  0  0  0
    2.5851   -0.4757   -1.0422 H   0  0  0  0  0  0  0  0  0  0  0  0
    3.6974   -0.2083    0.4611 H   0  0  0  0  0  0  0  0  0  0  0  0
    2.4441    1.6271    1.9039 H   0  0  0  0  0  0  0  0  0  0  0  0
    2.4506   -0.0397    2.5179 H   0  0  0  0  0  0  0  0  0  0  0  0
    0.7150    1.2089    3.6572 H   0  0  0  0  0  0  0  0  0  0  0  0
   -0.0287   -0.0066    2.6327 H   0  0  0  0  0  0  0  0  0  0  0  0
   -0.5056    1.7522    0.8949 H   0  0  0  0  0  0  0  0  0  0  0  0
   -1.2524    2.1635    2.4416 H   0  0  0  0  0  0  0  0  0  0  0  0
    0.2319    2.9729    1.9340 H   0  0  0  0  0  0  0  0  0  0  0  0
  1  2  1  0
  1  6  1  0
  1  7  1  0
  2  3  1  0
  3  4  1  0
  3  8  1  0
  3  9  1  0
  4  5  1  0
  4 10  1  0
  4 11  1  0
  5 12  1  0
  5 13  1  0
  5 14  1  0
M  RAD  1   1   2
M  END
>  <reaction>  (2) 
rmg_rxn_670

>  <mol_properties>  (2) 
{"0": {"label": "acceptor", "atom_type": "Cs"}}

>  <type>  (2) 
r2

$$$$

     RDKit          3D

 15 14  0  0  0  0  0  0  0  0999 V2000
   -1.2811   -0.4129    1.0228 C   0  0  0  0  0  0  0  0  0  0  0  0
   -1.0023   -0.5809   -0.4650 C   0  0  0  0  0  0  0  0  0  0  0  0
   -2.0576    0.0568   -1.3449 C   0  0  0  0  0  0  0  0  0  0  0  0
   -2.0663    1.4464   -1.1307 O   0  0  0  0  0  0  0  0  0  0  0  0
   -3.0424    2.1072   -1.8849 C   0  0  0  0  0  0  0  0  0  0  0  0
   -2.2382   -0.8657    1.2935 H   0  0  0  0  0  0  0  0  0  0  0  0
   -1.3219    0.6426    1.2914 H   0  0  0  0  0  0  0  0  0  0  0  0
   -0.5042   -0.8881    1.6236 H   0  0  0  0  0  0  0  0  0  0  0  0
   -0.0316   -0.1460   -0.7167 H   0  0  0  0  0  0  0  0  0  0  0  0
   -0.9494   -1.6429   -0.7203 H   0  0  0  0  0  0  0  0  0  0  0  0
   -1.8518   -0.1570   -2.4041 H   0  0  0  0  0  0  0  0  0  0  0  0
   -3.0491   -0.3636   -1.1124 H   0  0  0  0  0  0  0  0  0  0  0  0
   -4.0521    1.7545   -1.6343 H   0  0  0  0  0  0  0  0  0  0  0  0
   -2.8850    1.9634   -2.9626 H   0  0  0  0  0  0  0  0  0  0  0  0
   -2.9730    3.1700   -1.6570 H   0  0  0  0  0  0  0  0  0  0  0  0
  1  2  1  0
  1  6  1  0
  1  7  1  0
  1  8  1  0
  2  3  1  0
  2  9  1  0
  2 10  1  0
  3  4  1  0
  3 11  1  0
  3 12  1  0
  4  5  1  0
  5 13  1  0
  5 14  1  0
  5 15  1  0
M  END
>  <reaction>  (3) 
rmg_rxn_670

>  <mol_properties>  (3) 
{"0": {"label": "a_hydrogen", "atom_type": "H0"}, "1": {"label": "acceptor", "atom_type": "Cs"}}

>  <type>  (3) 
r2h

$$$$

     RDKit          3D

 23 21  0  0  0  0  0  0  0  0999 V2000
   -2.1338   -0.6549   -1.8797 C   0  0  0  0  0  0  0  0  0  0  0  0
   -2.1773   -0.0801   -0.4853 C   0  0  0  0  0  0  0  0  0  0  0  0
   -1.7602    1.2582   -0.2852 N   0  0  0  0  0  0  0  0  0  0  0  0
   -0.9286    1.6667   -1.0788 O   0  0  0  0  0  0  0  0  0  0  0  0
   -1.1401   -0.5480   -2.3129 H   0  0  0  0  0  0  0  0  0  0  0  0
   -2.3992   -1.7123   -1.8552 H   0  0  0  0  0  0  0  0  0  0  0  0
   -2.8406   -0.1396   -2.5330 H   0  0  0  0  0  0  0  0  0  0  0  0
   -1.3264   -0.7478    0.1804 H   0  0  0  0  0  0  0  0  0  0  0  0
   -3.0976   -0.2549    0.0695 H   0  0  0  0  0  0  0  0  0  0  0  0
   -0.2679   -1.5625    0.7712 C   0  0  0  0  0  3  0  0  0  0  0  0
    0.7648   -0.7409    1.0197 O   0  0  0  0  0  0  0  0  0  0  0  0
    1.5443   -0.3762   -0.1180 C   0  0  0  0  0  0  0  0  0  0  0  0
    2.6582    0.5437    0.3258 C   0  0  0  0  0  0  0  0  0  0  0  0
    3.6387   -0.1095    1.2905 C   0  0  0  0  0  0  0  0  0  0  0  0
   -0.7354   -1.9147    1.6857 H   0  0  0  0  0  0  0  0  0  0  0  0
   -0.1136   -2.3119   -0.0090 H   0  0  0  0  0  0  0  0  0  0  0  0
    0.8964    0.1262   -0.8434 H   0  0  0  0  0  0  0  0  0  0  0  0
    1.9460   -1.2906   -0.5740 H   0  0  0  0  0  0  0  0  0  0  0  0
    2.2111    1.4321    0.7772 H   0  0  0  0  0  0  0  0  0  0  0  0
    3.1799    0.8794   -0.5741 H   0  0  0  0  0  0  0  0  0  0  0  0
    4.4295    0.5865    1.5724 H   0  0  0  0  0  0  0  0  0  0  0  0
    3.1339   -0.4327    2.2013 H   0  0  0  0  0  0  0  0  0  0  0  0
    4.1096   -0.9855    0.8375 H   0  0  0  0  0  0  0  0  0  0  0  0
  1  2  1  0
  1  5  1  0
  1  6  1  0
  1  7  1  0
  2  3  1  0
  2  8  1  0
  2  9  1  0
  3  4  2  0
 10 11  1  0
 10 15  1  0
 10 16  1  0
 11 12  1  0
 12 13  1  0
 12 17  1  0
 12 18  1  0
 13 14  1  0
 13 19  1  0
 13 20  1  0
 14 21  1  0
 14 22  1  0
 14 23  1  0
M  RAD  1  10   2
M  END
>  <reaction>  (4) 
rmg_rxn_670

>  <mol_properties>  (4) 
{"1": {"label": "*1", "atom_type": "Cs"}, "2": {"label": "*0", "atom_type": "N3d"}, "7": {"label": "*2", "atom_type": "H0"}, "9": {"label": "*3", "atom_type": "Cs"}, "10": {"label": "*4", "atom_type": "O2s"}}

>  <type>  (4) 
ts

$$$$

     RDKit          3D

 23 21  0  0  0  0  0  0  0  0999 V2000
   -2.1059   -0.3856   -2.4513 C   0  0  0  0  0  0  0  0  0  0  0  0
   -2.1059   -0.3856   -0.9408 C   0  0  0  0  0  0  0  0  0  0  0  0
   -2.1059    0.9403   -0.2772 N   0  0  0  0  0  0  0  0  0  0  0  0
   -2.1059    1.8699   -1.0249 O   0  0  0  0  0  0  0  0  0  0  0  0
   -1.2258    0.1217   -2.8458 H   0  0  0  0  0  0  0  0  0  0  0  0
   -2.1059   -1.4128   -2.8166 H   0  0  0  0  0  0  0  0  0  0  0  0
   -2.9860    0.1217   -2.8458 H   0  0  0  0  0  0  0  0  0  0  0  0
   -1.0605   -0.9944   -0.4282 H   0  0  0  0  0  0  0  0  0  0  0  0
   -2.9771   -0.8930   -0.5137 H   0  0  0  0  0  0  0  0  0  0  0  0
   -0.0115   -1.6053    0.0861 C   0  0  0  0  0  3  0  0  0  0  0  0
    0.7449   -0.7413    0.8857 O   0  0  0  0  0  0  0  0  0  0  0  0
    1.8805   -0.2392    0.2259 C   0  0  0  0  0  0  0  0  0  0  0  0
    2.6586    0.6521    1.1718 C   0  0  0  0  0  0  0  0  0  0  0  0
    3.2034   -0.0916    2.3840 C   0  0  0  0  0  0  0  0  0  0  0  0
   -0.8644   -1.9395    0.6754 H   0  0  0  0  0  0  0  0  0  0  0  0
    0.5728   -2.4823   -0.2238 H   0  0  0  0  0  0  0  0  0  0  0  0
    1.5749    0.3261   -0.6670 H   0  0  0  0  0  0  0  0  0  0  0  0
    2.5139   -1.0735   -0.1156 H   0  0  0  0  0  0  0  0  0  0  0  0
    2.0072    1.4687    1.4936 H   0  0  0  0  0  0  0  0  0  0  0  0
    3.4791    1.1046    0.6080 H   0  0  0  0  0  0  0  0  0  0  0  0
    3.7607    0.5801    3.0385 H   0  0  0  0  0  0  0  0  0  0  0  0
    2.3925   -0.5352    2.9617 H   0  0  0  0  0  0  0  0  0  0  0  0
    3.8767   -0.8960    2.0775 H   0  0  0  0  0  0  0  0  0  0  0  0
  1  2  1  0
  1  5  1  0
  1  6  1  0
  1  7  1  0
  2  3  1  0
  2  8  1  0
  2  9  1  0
  3  4  2  0
 10 11  1  0
 10 15  1  0
 10 16  1  0
 11 12  1  0
 12 13  1  0
 12 17  1  0
 12 18  1  0
 13 14  1  0
 13 19  1  0
 13 20  1  0
 14 21  1  0
 14 22  1  0
 14 23  1  0
M  RAD  1  10   2
M  END
>  <reaction>  (5) 
rmg_rxn_670

>  <mol_properties>  (5) 
{"1": {"label": "*1", "atom_type": "Cs"}, "2": {"label": "*0", "atom_type": "N3d"}, "7": {"label": "*2", "atom_type": "H0"}, "9": {"label": "*3", "atom_type": "Cs"}, "10": {"label": "*4", "atom_type": "O2s"}}

>  <type>  (5) 
unop_1

>  <geom_source>  (5) 
Heuristics

$$$$

     RDKit          3D

 23 21  0  0  0  0  0  0  0  0999 V2000
   -2.0651    0.5312   -1.1451 C   0  0  0  0  0  0  0  0  0  0  0  0
   -2.0651    0.5312    0.3654 C   0  0  0  0  0  0  0  0  0  0  0  0
   -2.0651    1.8572    1.0290 N   0  0  0  0  0  0  0  0  0  0  0  0
   -2.0651    2.7867    0.2813 O   0  0  0  0  0  0  0  0  0  0  0  0
   -1.1850    1.0386   -1.5395 H   0  0  0  0  0  0  0  0  0  0  0  0
   -2.0651   -0.4959   -1.5103 H   0  0  0  0  0  0  0  0  0  0  0  0
   -2.9452    1.0386   -1.5395 H   0  0  0  0  0  0  0  0  0  0  0  0
   -1.0197   -0.0776    0.8780 H   0  0  0  0  0  0  0  0  0  0  0  0
   -2.9363    0.0239    0.7926 H   0  0  0  0  0  0  0  0  0  0  0  0
    0.0293   -0.6884    1.3923 C   0  0  0  0  0  3  0  0  0  0  0  0
    1.1455   -0.5852    0.5547 O   0  0  0  0  0  0  0  0  0  0  0  0
    1.1018   -1.4819   -0.5275 C   0  0  0  0  0  0  0  0  0  0  0  0
    2.3602   -1.3303   -1.3570 C   0  0  0  0  0  0  0  0  0  0  0  0
    3.6277   -1.6934   -0.5948 C   0  0  0  0  0  0  0  0  0  0  0  0
    0.1489    0.0394    2.1938 H   0  0  0  0  0  0  0  0  0  0  0  0
   -0.0530   -1.6917    1.8318 H   0  0  0  0  0  0  0  0  0  0  0  0
    0.2122   -1.2821   -1.1430 H   0  0  0  0  0  0  0  0  0  0  0  0
    1.0165   -2.5148   -0.1539 H   0  0  0  0  0  0  0  0  0  0  0  0
    2.4187   -0.2987   -1.7133 H   0  0  0  0  0  0  0  0  0  0  0  0
    2.2578   -1.9656   -2.2412 H   0  0  0  0  0  0  0  0  0  0  0  0
    4.5110   -1.5769   -1.2244 H   0  0  0  0  0  0  0  0  0  0  0  0
    3.7474   -1.0565    0.2816 H   0  0  0  0  0  0  0  0  0  0  0  0
    3.5936   -2.7311   -0.2538 H   0  0  0  0  0  0  0  0  0  0  0  0
  1  2  1  0
  1  5  1  0
  1  6  1  0
  1  7  1  0
  2  3  1  0
  2  8  1  0
  2  9  1  0
  3  4  2  0
 10 11  1  0
 10 15  1  0
 10 16  1  0
 11 12  1  0
 12 13  1  0
 12 17  1  0
 12 18  1  0
 13 14  1  0
 13 19  1  0
 13 20  1  0
 14 21  1  0
 14 22  1  0
 14 23  1  0
M  RAD  1  10   2
M  END
>  <reaction>  (6) 
rmg_rxn_670

>  <mol_properties>  (6) 
{"1": {"label": "*1", "atom_type": "Cs"}, "2": {"label": "*0", "atom_type": "N3d"}, "7": {"label": "*2", "atom_type": "H0"}, "9": {"label": "*3", "atom_type": "Cs"}, "10": {"label": "*4", "atom_type": "O2s"}}

>  <type>  (6) 
unop_2

>  <geom_source>  (6) 
Heuristics

$$$$

     RDKit          3D

 23 21  0  0  0  0  0  0  0  0999 V2000
   -1.7828   -0.3117   -2.8789 C   0  0  0  0  0  0  0  0  0  0  0  0
   -1.7828   -0.3117   -1.3684 C   0  0  0  0  0  0  0  0  0  0  0  0
   -1.7828    1.0143   -0.7048 N   0  0  0  0  0  0  0  0  0  0  0  0
   -1.7828    1.9439   -1.4525 O   0  0  0  0  0  0  0  0  0  0  0  0
   -0.9026    0.1957   -3.2734 H   0  0  0  0  0  0  0  0  0  0  0  0
   -1.7828   -1.3388   -3.2442 H   0  0  0  0  0  0  0  0  0  0  0  0
   -2.6629    0.1957   -3.2734 H   0  0  0  0  0  0  0  0  0  0  0  0
   -0.7373   -0.9204   -0.8558 H   0  0  0  0  0  0  0  0  0  0  0  0
   -2.6540   -0.8190   -0.9413 H   0  0  0  0  0  0  0  0  0  0  0  0
    0.3116   -1.5313   -0.3415 C   0  0  0  0  0  3  0  0  0  0  0  0
    0.6677   -0.9855    0.8968 O   0  0  0  0  0  0  0  0  0  0  0  0
    1.5776    0.0805    0.7832 C   0  0  0  0  0  0  0  0  0  0  0  0
    1.9369    0.5841    2.1659 C   0  0  0  0  0  0  0  0  0  0  0  0
    2.6533   -0.4571    3.0156 C   0  0  0  0  0  0  0  0  0  0  0  0
   -0.3917   -2.3419   -0.1557 H   0  0  0  0  0  0  0  0  0  0  0  0
    1.1862   -1.9330   -0.8710 H   0  0  0  0  0  0  0  0  0  0  0  0
    1.1327    0.8898    0.1856 H   0  0  0  0  0  0  0  0  0  0  0  0
    2.4841   -0.2563    0.2554 H   0  0  0  0  0  0  0  0  0  0  0  0
    1.0210    0.9107    2.6651 H   0  0  0  0  0  0  0  0  0  0  0  0
    2.5663    1.4705    2.0472 H   0  0  0  0  0  0  0  0  0  0  0  0
    2.8998   -0.0577    4.0004 H   0  0  0  0  0  0  0  0  0  0  0  0
    2.0290   -1.3401    3.1524 H   0  0  0  0  0  0  0  0  0  0  0  0
    3.5845   -0.7746    2.5399 H   0  0  0  0  0  0  0  0  0  0  0  0
  1  2  1  0
  1  5  1  0
  1  6  1  0
  1  7  1  0
  2  3  1  0
  2  8  1  0
  2  9  1  0
  3  4  2  0
 10 11  1  0
 10 15  1  0
 10 16  1  0
 11 12  1  0
 12 13  1  0
 12 17  1  0
 12 18  1  0
 13 14  1  0
 13 19  1  0
 13 20  1  0
 14 21  1  0
 14 22  1  0
 14 23  1  0
M  RAD  1  10   2
M  END
>  <reaction>  (7) 
rmg_rxn_670

>  <mol_properties>  (7) 
{"1": {"label": "*1", "atom_type": "Cs"}, "2": {"label": "*0", "atom_type": "N3d"}, "7": {"label": "*2", "atom_type": "H0"}, "9": {"label": "*3", "atom_type": "Cs"}, "10": {"label": "*4", "atom_type": "O2s"}}

>  <type>  (7) 
unop_3

>  <geom_source>  (7) 
Heuristics

$$$$

     RDKit          3D

 23 21  0  0  0  0  0  0  0  0999 V2000
   -0.8696    1.4656   -1.7509 C   0  0  0  0  0  0  0  0  0  0  0  0
   -0.8696    1.4656   -0.2404 C   0  0  0  0  0  0  0  0  0  0  0  0
   -0.8696    2.7916    0.4232 N   0  0  0  0  0  0  0  0  0  0  0  0
   -0.8696    3.7211   -0.3245 O   0  0  0  0  0  0  0  0  0  0  0  0
    0.0106    1.9730   -2.1453 H   0  0  0  0  0  0  0  0  0  0  0  0
   -0.8696    0.4385   -2.1161 H   0  0  0  0  0  0  0  0  0  0  0  0
   -1.7497    1.9730   -2.1453 H   0  0  0  0  0  0  0  0  0  0  0  0
    0.1759    0.8569    0.2722 H   0  0  0  0  0  0  0  0  0  0  0  0
   -1.7408    0.9583    0.1868 H   0  0  0  0  0  0  0  0  0  0  0  0
    1.2248    0.2460    0.7865 C   0  0  0  0  0  3  0  0  0  0  0  0
    1.2856   -1.0938    0.3876 O   0  0  0  0  0  0  0  0  0  0  0  0
    0.0184   -1.6451    0.1278 C   0  0  0  0  0  0  0  0  0  0  0  0
    0.1733   -3.1015   -0.2585 C   0  0  0  0  0  0  0  0  0  0  0  0
    0.7551   -3.9589    0.8576 C   0  0  0  0  0  0  0  0  0  0  0  0
    2.2448    0.5854    0.9619 H   0  0  0  0  0  0  0  0  0  0  0  0
    0.6459    0.3647    1.7125 H   0  0  0  0  0  0  0  0  0  0  0  0
   -0.4740   -1.0856   -0.6813 H   0  0  0  0  0  0  0  0  0  0  0  0
   -0.6185   -1.5562    1.0223 H   0  0  0  0  0  0  0  0  0  0  0  0
    0.8082   -3.1593   -1.1464 H   0  0  0  0  0  0  0  0  0  0  0  0
   -0.8114   -3.4786   -0.5482 H   0  0  0  0  0  0  0  0  0  0  0  0
    0.8473   -5.0001    0.5451 H   0  0  0  0  0  0  0  0  0  0  0  0
    1.7436   -3.6006    1.1449 H   0  0  0  0  0  0  0  0  0  0  0  0
    0.1167   -3.9303    1.7441 H   0  0  0  0  0  0  0  0  0  0  0  0
  1  2  1  0
  1  5  1  0
  1  6  1  0
  1  7  1  0
  2  3  1  0
  2  8  1  0
  2  9  1  0
  3  4  2  0
 10 11  1  0
 10 15  1  0
 10 16  1  0
 11 12  1  0
 12 13  1  0
 12 17  1  0
 12 18  1  0
 13 14  1  0
 13 19  1  0
 13 20  1  0
 14 21  1  0
 14 22  1  0
 14 23  1  0
M  RAD  1  10   2
M  END
>  <reaction>  (8) 
rmg_rxn_670

>  <mol_properties>  (8) 
{"1": {"label": "*1", "atom_type": "Cs"}, "2": {"label": "*0", "atom_type": "N3d"}, "7": {"label": "*2", "atom_type": "H0"}, "9": {"label": "*3", "atom_type": "Cs"}, "10": {"label": "*4", "atom_type": "O2s"}}

>  <type>  (8) 
unop_4

>  <geom_source>  (8) 
Heuristics

$$$$

     RDKit          3D

 23 21  0  0  0  0  0  0  0  0999 V2000
   -1.2976   -0.0754   -3.1580 C   0  0  0  0  0  0  0  0  0  0  0  0
   -1.2976   -0.0754   -1.6475 C   0  0  0  0  0  0  0  0  0  0  0  0
   -1.2976    1.2505   -0.9839 N   0  0  0  0  0  0  0  0  0  0  0  0
   -1.2976    2.1801   -1.7316 O   0  0  0  0  0  0  0  0  0  0  0  0
   -0.4175    0.4320   -3.5525 H   0  0  0  0  0  0  0  0  0  0  0  0
   -1.2976   -1.1026   -3.5233 H   0  0  0  0  0  0  0  0  0  0  0  0
   -2.1778    0.4320   -3.5525 H   0  0  0  0  0  0  0  0  0  0  0  0
   -0.2522   -0.6842   -1.1349 H   0  0  0  0  0  0  0  0  0  0  0  0
   -2.1688   -0.5827   -1.2204 H   0  0  0  0  0  0  0  0  0  0  0  0
    0.7967   -1.2950   -0.6206 C   0  0  0  0  0  3  0  0  0  0  0  0
    0.7665   -1.2774    0.7782 O   0  0  0  0  0  0  0  0  0  0  0  0
    0.7702    0.0246    1.3089 C   0  0  0  0  0  0  0  0  0  0  0  0
    0.7754   -0.0492    2.8219 C   0  0  0  0  0  0  0  0  0  0  0  0
    2.0272   -0.7083    3.3855 C   0  0  0  0  0  0  0  0  0  0  0  0
    0.7892   -2.3368   -0.9385 H   0  0  0  0  0  0  0  0  0  0  0  0
    1.7024   -0.8104   -1.0100 H   0  0  0  0  0  0  0  0  0  0  0  0
   -0.1148    0.5747    0.9564 H   0  0  0  0  0  0  0  0  0  0  0  0
    1.6585    0.5708    0.9534 H   0  0  0  0  0  0  0  0  0  0  0  0
   -0.1147   -0.5949    3.1457 H   0  0  0  0  0  0  0  0  0  0  0  0
    0.6803    0.9695    3.2080 H   0  0  0  0  0  0  0  0  0  0  0  0
    1.9975   -0.7391    4.4756 H   0  0  0  0  0  0  0  0  0  0  0  0
    2.1247   -1.7299    3.0182 H   0  0  0  0  0  0  0  0  0  0  0  0
    2.9240   -0.1581    3.0900 H   0  0  0  0  0  0  0  0  0  0  0  0
  1  2  1  0
  1  5  1  0
  1  6  1  0
  1  7  1  0
  2  3  1  0
  2  8  1  0
  2  9  1  0
  3  4  2  0
 10 11  1  0
 10 15  1  0
 10 16  1  0
 11 12  1  0
 12 13  1  0
 12 17  1  0
 12 18  1  0
 13 14  1  0
 13 19  1  0
 13 20  1  0
 14 21  1  0
 14 22  1  0
 14 23  1  0
M  RAD  1  10   2
M  END
>  <reaction>  (9) 
rmg_rxn_670

>  <mol_properties>  (9) 
{"1": {"label": "*1", "atom_type": "Cs"}, "2": {"label": "*0", "atom_type": "N3d"}, "7": {"label": "*2", "atom_type": "H0"}, "9": {"label": "*3", "atom_type": "Cs"}, "10": {"label": "*4", "atom_type": "O2s"}}

>  <type>  (9) 
unop_5

>  <geom_source>  (9) 
Heuristics

$$$$

     RDKit          3D

 23 21  0  0  0  0  0  0  0  0999 V2000
   -0.6263    1.3507   -2.2929 C   0  0  0  0  0  0  0  0  0  0  0  0
   -0.6263    1.3507   -0.7824 C   0  0  0  0  0  0  0  0  0  0  0  0
   -0.6263    2.6766   -0.1188 N   0  0  0  0  0  0  0  0  0  0  0  0
   -0.6263    3.6062   -0.8665 O   0  0  0  0  0  0  0  0  0  0  0  0
    0.2538    1.8581   -2.6874 H   0  0  0  0  0  0  0  0  0  0  0  0
   -0.6263    0.3235   -2.6581 H   0  0  0  0  0  0  0  0  0  0  0  0
   -1.5065    1.8581   -2.6874 H   0  0  0  0  0  0  0  0  0  0  0  0
    0.4191    0.7419   -0.2698 H   0  0  0  0  0  0  0  0  0  0  0  0
   -1.4975    0.8434   -0.3552 H   0  0  0  0  0  0  0  0  0  0  0  0
    1.4681    0.1311    0.2445 C   0  0  0  0  0  3  0  0  0  0  0  0
    1.2216   -1.2317    0.4449 O   0  0  0  0  0  0  0  0  0  0  0  0
   -0.1495   -1.5346    0.5178 C   0  0  0  0  0  0  0  0  0  0  0  0
   -0.3239   -3.0175    0.7731 C   0  0  0  0  0  0  0  0  0  0  0  0
    0.2509   -3.4671    2.1097 C   0  0  0  0  0  0  0  0  0  0  0  0
    2.5476    0.2688    0.1993 H   0  0  0  0  0  0  0  0  0  0  0  0
    1.0658    0.7382    1.0668 H   0  0  0  0  0  0  0  0  0  0  0  0
   -0.6463   -1.2476   -0.4209 H   0  0  0  0  0  0  0  0  0  0  0  0
   -0.6183   -0.9531    1.3276 H   0  0  0  0  0  0  0  0  0  0  0  0
    0.1496   -3.5682   -0.0438 H   0  0  0  0  0  0  0  0  0  0  0  0
   -1.3932   -3.2422    0.7286 H   0  0  0  0  0  0  0  0  0  0  0  0
    0.1027   -4.5374    2.2604 H   0  0  0  0  0  0  0  0  0  0  0  0
    1.3200   -3.2607    2.1596 H   0  0  0  0  0  0  0  0  0  0  0  0
   -0.2316   -2.9420    2.9379 H   0  0  0  0  0  0  0  0  0  0  0  0
  1  2  1  0
  1  5  1  0
  1  6  1  0
  1  7  1  0
  2  3  1  0
  2  8  1  0
  2  9  1  0
  3  4  2  0
 10 11  1  0
 10 15  1  0
 10 16  1  0
 11 12  1  0
 12 13  1  0
 12 17  1  0
 12 18  1  0
 13 14  1  0
 13 19  1  0
 13 20  1  0
 14 21  1  0
 14 22  1  0
 14 23  1  0
M  RAD  1  10   2
M  END
>  <reaction>  (10) 
rmg_rxn_670

>  <mol_properties>  (10) 
{"1": {"label": "*1", "atom_type": "Cs"}, "2": {"label": "*0", "atom_type": "N3d"}, "7": {"label": "*2", "atom_type": "H0"}, "9": {"label": "*3", "atom_type": "Cs"}, "10": {"label": "*4", "atom_type": "O2s"}}

>  <type>  (10) 
unop_6

>  <geom_source>  (10) 
Heuristics

$$$$

     RDKit          3D

 23 21  0  0  0  0  0  0  0  0999 V2000
   -0.5824    0.9850   -2.8111 C   0  0  0  0  0  0  0  0  0  0  0  0
   -0.5824    0.9850   -1.3006 C   0  0  0  0  0  0  0  0  0  0  0  0
   -0.5824    2.3110   -0.6370 N   0  0  0  0  0  0  0  0  0  0  0  0
   -0.5824    3.2405   -1.3847 O   0  0  0  0  0  0  0  0  0  0  0  0
    0.2978    1.4924   -3.2056 H   0  0  0  0  0  0  0  0  0  0  0  0
   -0.5824   -0.0421   -3.1764 H   0  0  0  0  0  0  0  0  0  0  0  0
   -1.4625    1.4924   -3.2056 H   0  0  0  0  0  0  0  0  0  0  0  0
    0.4631    0.3762   -0.7880 H   0  0  0  0  0  0  0  0  0  0  0  0
   -1.4536    0.4777   -0.8735 H   0  0  0  0  0  0  0  0  0  0  0  0
    1.5120   -0.2346   -0.2737 C   0  0  0  0  0  3  0  0  0  0  0  0
    1.1339   -1.3189    0.5259 O   0  0  0  0  0  0  0  0  0  0  0  0
   -0.1976   -1.2332    0.9695 C   0  0  0  0  0  0  0  0  0  0  0  0
   -0.5097   -2.4215    1.8556 C   0  0  0  0  0  0  0  0  0  0  0  0
    0.3280   -2.4575    3.1268 C   0  0  0  0  0  0  0  0  0  0  0  0
    2.5491   -0.3876   -0.5695 H   0  0  0  0  0  0  0  0  0  0  0  0
    1.4340    0.7152    0.2726 H   0  0  0  0  0  0  0  0  0  0  0  0
   -0.8788   -1.2113    0.1060 H   0  0  0  0  0  0  0  0  0  0  0  0
   -0.3460   -0.2951    1.5278 H   0  0  0  0  0  0  0  0  0  0  0  0
   -0.3542   -3.3359    1.2772 H   0  0  0  0  0  0  0  0  0  0  0  0
   -1.5733   -2.3826    2.1068 H   0  0  0  0  0  0  0  0  0  0  0  0
    0.0725   -3.3225    3.7406 H   0  0  0  0  0  0  0  0  0  0  0  0
    1.3902   -2.5107    2.8883 H   0  0  0  0  0  0  0  0  0  0  0  0
    0.1632   -1.5597    3.7277 H   0  0  0  0  0  0  0  0  0  0  0  0
  1  2  1  0
  1  5  1  0
  1  6  1  0
  1  7  1  0
  2  3  1  0
  2  8  1  0
  2  9  1  0
  3  4  2  0
 10 11  1  0
 10 15  1  0
 10 16  1  0
 11 12  1  0
 12 13  1  0
 12 17  1  0
 12 18  1  0
 13 14  1  0
 13 19  1  0
 13 20  1  0
 14 21  1  0
 14 22  1  0
 14 23  1  0
M  RAD  1  10   2
M  END
>  <reaction>  (11) 
rmg_rxn_670

>  <mol_properties>  (11) 
{"1": {"label": "*1", "atom_type": "Cs"}, "2": {"label": "*0", "atom_type": "N3d"}, "7": {"label": "*2", "atom_type": "H0"}, "9": {"label": "*3", "atom_type": "Cs"}, "10": {"label": "*4", "atom_type": "O2s"}}

>  <type>  (11) 
unop_7

>  <geom_source>  (11) 
Heuristics

$$$$

     RDKit          3D

 23 21  0  0  0  0  0  0  0  0999 V2000
   -2.2868   -0.2687   -1.9370 C   0  0  0  0  0  0  0  0  0  0  0  0
   -2.2868   -0.2687   -0.4265 C   0  0  0  0  0  0  0  0  0  0  0  0
   -2.2868    1.0573    0.2371 N   0  0  0  0  0  0  0  0  0  0  0  0
   -2.2868    1.9868   -0.5106 O   0  0  0  0  0  0  0  0  0  0  0  0
   -1.4067    0.2387   -2.3315 H   0  0  0  0  0  0  0  0  0  0  0  0
   -2.2868   -1.2958   -2.3022 H   0  0  0  0  0  0  0  0  0  0  0  0
   -3.1670    0.2387   -2.3315 H   0  0  0  0  0  0  0  0  0  0  0  0
   -1.2414   -0.8774    0.0861 H   0  0  0  0  0  0  0  0  0  0  0  0
   -3.1580   -0.7760    0.0007 H   0  0  0  0  0  0  0  0  0  0  0  0
   -0.1925   -1.4883    0.6004 C   0  0  0  0  0  3  0  0  0  0  0  0
    0.8712   -0.6014    0.8008 O   0  0  0  0  0  0  0  0  0  0  0  0
    1.8381   -0.6681   -0.2179 C   0  0  0  0  0  0  0  0  0  0  0  0
    2.9668    0.2919    0.0967 C   0  0  0  0  0  0  0  0  0  0  0  0
    3.7154   -0.0615    1.3749 C   0  0  0  0  0  0  0  0  0  0  0  0
   -0.8865   -1.3652    1.4307 H   0  0  0  0  0  0  0  0  0  0  0  0
    0.1519   -2.5311    0.5758 H   0  0  0  0  0  0  0  0  0  0  0  0
    1.3801   -0.4151   -1.1855 H   0  0  0  0  0  0  0  0  0  0  0  0
    2.2265   -1.6960   -0.2980 H   0  0  0  0  0  0  0  0  0  0  0  0
    2.5535    1.3011    0.1703 H   0  0  0  0  0  0  0  0  0  0  0  0
    3.6540    0.2923   -0.7539 H   0  0  0  0  0  0  0  0  0  0  0  0
    4.5223    0.6476    1.5659 H   0  0  0  0  0  0  0  0  0  0  0  0
    3.0425   -0.0511    2.2323 H   0  0  0  0  0  0  0  0  0  0  0  0
    4.1556   -1.0594    1.3055 H   0  0  0  0  0  0  0  0  0  0  0  0
  1  2  1  0
  1  5  1  0
  1  6  1  0
  1  7  1  0
  2  3  1  0
  2  8  1  0
  2  9  1  0
  3  4  2  0
 10 11  1  0
 10 15  1  0
 10 16  1  0
 11 12  1  0
 12 13  1  0
 12 17  1  0
 12 18  1  0
 13 14  1  0
 13 19  1  0
 13 20  1  0
 14 21  1  0
 14 22  1  0
 14 23  1  0
M  RAD  1  10   2
M  END
>  <reaction>  (12) 
rmg_rxn_670

>  <mol_properties>  (12) 
{"1": {"label": "*1", "atom_type": "Cs"}, "2": {"label": "*0", "atom_type": "N3d"}, "7": {"label": "*2", "atom_type": "H0"}, "9": {"label": "*3", "atom_type": "Cs"}, "10": {"label": "*4", "atom_type": "O2s"}}

>  <type>  (12) 
unop_8

>  <geom_source>  (12) 
Heuristics

$$$$

     RDKit          3D

 23 21  0  0  0  0  0  0  0  0999 V2000
   -1.2474    1.3349   -1.3185 C   0  0  0  0  0  0  0  0  0  0  0  0
   -1.2474    1.3349    0.1919 C   0  0  0  0  0  0  0  0  0  0  0  0
   -1.2474    2.6608    0.8555 N   0  0  0  0  0  0  0  0  0  0  0  0
   -1.2474    3.5904    0.1078 O   0  0  0  0  0  0  0  0  0  0  0  0
   -0.3672    1.8422   -1.7130 H   0  0  0  0  0  0  0  0  0  0  0  0
   -1.2474    0.3077   -1.6838 H   0  0  0  0  0  0  0  0  0  0  0  0
   -2.1275    1.8422   -1.7130 H   0  0  0  0  0  0  0  0  0  0  0  0
   -0.2019    0.7261    0.7045 H   0  0  0  0  0  0  0  0  0  0  0  0
   -2.1186    0.8276    0.6191 H   0  0  0  0  0  0  0  0  0  0  0  0
    0.8470    0.1153    1.2188 C   0  0  0  0  0  3  0  0  0  0  0  0
    1.3082   -0.9064    0.3812 O   0  0  0  0  0  0  0  0  0  0  0  0
    0.2667   -1.6744   -0.1689 C   0  0  0  0  0  0  0  0  0  0  0  0
    0.8537   -2.7759   -1.0273 C   0  0  0  0  0  0  0  0  0  0  0  0
    1.6987   -3.7659   -0.2366 C   0  0  0  0  0  0  0  0  0  0  0  0
    1.7167    0.6535    1.5935 H   0  0  0  0  0  0  0  0  0  0  0  0
    0.2826   -0.2867    2.0712 H   0  0  0  0  0  0  0  0  0  0  0  0
   -0.3939   -1.0325   -0.7703 H   0  0  0  0  0  0  0  0  0  0  0  0
   -0.3445   -2.1085    0.6385 H   0  0  0  0  0  0  0  0  0  0  0  0
    1.4535   -2.3174   -1.8177 H   0  0  0  0  0  0  0  0  0  0  0  0
    0.0264   -3.2955   -1.5185 H   0  0  0  0  0  0  0  0  0  0  0  0
    2.0997   -4.5456   -0.8859 H   0  0  0  0  0  0  0  0  0  0  0  0
    2.5352   -3.2608    0.2461 H   0  0  0  0  0  0  0  0  0  0  0  0
    1.1045   -4.2508    0.5419 H   0  0  0  0  0  0  0  0  0  0  0  0
  1  2  1  0
  1  5  1  0
  1  6  1  0
  1  7  1  0
  2  3  1  0
  2  8  1  0
  2  9  1  0
  3  4  2  0
 10 11  1  0
 10 15  1  0
 10 16  1  0
 11 12  1  0
 12 13  1  0
 12 17  1  0
 12 18  1  0
 13 14  1  0
 13 19  1  0
 13 20  1  0
 14 21  1  0
 14 22  1  0
 14 23  1  0
M  RAD  1  10   2
M  END
>  <reaction>  (13) 
rmg_rxn_670

>  <mol_properties>  (13) 
{"1": {"label": "*1", "atom_type": "Cs"}, "2": {"label": "*0", "atom_type": "N3d"}, "7": {"label": "*2", "atom_type": "H0"}, "9": {"label": "*3", "atom_type": "Cs"}, "10": {"label": "*4", "atom_type": "O2s"}}

>  <type>  (13) 
unop_9

>  <geom_source>  (13) 
Heuristics

$$$$

     RDKit          3D

 23 21  0  0  0  0  0  0  0  0999 V2000
   -2.2815    0.0615   -1.4561 C   0  0  0  0  0  0  0  0  0  0  0  0
   -2.2815    0.0615    0.0544 C   0  0  0  0  0  0  0  0  0  0  0  0
   -2.2815    1.3875    0.7180 N   0  0  0  0  0  0  0  0  0  0  0  0
   -2.2815    2.3170   -0.0297 O   0  0  0  0  0  0  0  0  0  0  0  0
   -1.4014    0.5689   -1.8506 H   0  0  0  0  0  0  0  0  0  0  0  0
   -2.2815   -0.9656   -1.8214 H   0  0  0  0  0  0  0  0  0  0  0  0
   -3.1616    0.5689   -1.8506 H   0  0  0  0  0  0  0  0  0  0  0  0
   -1.2361   -0.5473    0.5670 H   0  0  0  0  0  0  0  0  0  0  0  0
   -3.1527   -0.4458    0.4815 H   0  0  0  0  0  0  0  0  0  0  0  0
   -0.1871   -1.1581    1.0813 C   0  0  0  0  0  3  0  0  0  0  0  0
    1.0082   -0.5497    0.6824 O   0  0  0  0  0  0  0  0  0  0  0  0
    1.5513   -1.1221   -0.4815 C   0  0  0  0  0  0  0  0  0  0  0  0
    2.8571   -0.4323   -0.8187 C   0  0  0  0  0  0  0  0  0  0  0  0
    3.9268   -0.6193    0.2490 C   0  0  0  0  0  0  0  0  0  0  0  0
   -0.5316   -0.6514    1.9818 H   0  0  0  0  0  0  0  0  0  0  0  0
   -0.0413   -2.2235    1.3058 H   0  0  0  0  0  0  0  0  0  0  0  0
    0.8400   -1.0216   -1.3146 H   0  0  0  0  0  0  0  0  0  0  0  0
    1.7215   -2.1991   -0.3240 H   0  0  0  0  0  0  0  0  0  0  0  0
    2.6585    0.6320   -0.9690 H   0  0  0  0  0  0  0  0  0  0  0  0
    3.2079   -0.8274   -1.7761 H   0  0  0  0  0  0  0  0  0  0  0  0
    4.8524   -0.1139   -0.0302 H   0  0  0  0  0  0  0  0  0  0  0  0
    3.5932   -0.2160    1.2051 H   0  0  0  0  0  0  0  0  0  0  0  0
    4.1535   -1.6788    0.3922 H   0  0  0  0  0  0  0  0  0  0  0  0
  1  2  1  0
  1  5  1  0
  1  6  1  0
  1  7  1  0
  2  3  1  0
  2  8  1  0
  2  9  1  0
  3  4  2  0
 10 11  1  0
 10 15  1  0
 10 16  1  0
 11 12  1  0
 12 13  1  0
 12 17  1  0
 12 18  1  0
 13 14  1  0
 13 19  1  0
 13 20  1  0
 14 21  1  0
 14 22  1  0
 14 23  1  0
M  RAD  1  10   2
M  END
>  <reaction>  (14) 
rmg_rxn_670

>  <mol_properties>  (14) 
{"1": {"label": "*1", "atom_type": "Cs"}, "2": {"label": "*0", "atom_type": "N3d"}, "7": {"label": "*2", "atom_type": "H0"}, "9": {"label": "*3", "atom_type": "Cs"}, "10": {"label": "*4", "atom_type": "O2s"}}

>  <type>  (14) 
unop_10

>  <geom_source>  (14) 
Heuristics

$$$$

     RDKit          3D

 23 21  0  0  0  0  0  0  0  0999 V2000
   -0.8008    0.4345   -3.1504 C   0  0  0  0  0  0  0  0  0  0  0  0
   -0.8008    0.4345   -1.6400 C   0  0  0  0  0  0  0  0  0  0  0  0
   -0.8008    1.7604   -0.9764 N   0  0  0  0  0  0  0  0  0  0  0  0
   -0.8008    2.6900   -1.7241 O   0  0  0  0  0  0  0  0  0  0  0  0
    0.0793    0.9419   -3.5449 H   0  0  0  0  0  0  0  0  0  0  0  0
   -0.8008   -0.5927   -3.5157 H   0  0  0  0  0  0  0  0  0  0  0  0
   -1.6810    0.9419   -3.5449 H   0  0  0  0  0  0  0  0  0  0  0  0
    0.2446   -0.1743   -1.1274 H   0  0  0  0  0  0  0  0  0  0  0  0
   -1.6720   -0.0728   -1.2128 H   0  0  0  0  0  0  0  0  0  0  0  0
    1.2935   -0.7851   -0.6131 C   0  0  0  0  0  3  0  0  0  0  0  0
    0.9946   -1.3642    0.6252 O   0  0  0  0  0  0  0  0  0  0  0  0
    0.0231   -0.6460    1.3445 C   0  0  0  0  0  0  0  0  0  0  0  0
   -0.2108   -1.3176    2.6820 C   0  0  0  0  0  0  0  0  0  0  0  0
    1.0219   -1.3177    3.5762 C   0  0  0  0  0  0  0  0  0  0  0  0
    2.0474   -1.4062   -1.0952 H   0  0  0  0  0  0  0  0  0  0  0  0
    1.6916    0.2320   -0.4964 H   0  0  0  0  0  0  0  0  0  0  0  0
   -0.9135   -0.6044    0.7690 H   0  0  0  0  0  0  0  0  0  0  0  0
    0.3610    0.3917    1.4957 H   0  0  0  0  0  0  0  0  0  0  0  0
   -0.5443   -2.3428    2.5017 H   0  0  0  0  0  0  0  0  0  0  0  0
   -1.0357   -0.7988    3.1783 H   0  0  0  0  0  0  0  0  0  0  0  0
    0.8143   -1.8044    4.5303 H   0  0  0  0  0  0  0  0  0  0  0  0
    1.8468   -1.8449    3.0970 H   0  0  0  0  0  0  0  0  0  0  0  0
    1.3518   -0.2971    3.7853 H   0  0  0  0  0  0  0  0  0  0  0  0
  1  2  1  0
  1  5  1  0
  1  6  1  0
  1  7  1  0
  2  3  1  0
  2  8  1  0
  2  9  1  0
  3  4  2  0
 10 11  1  0
 10 15  1  0
 10 16  1  0
 11 12  1  0
 12 13  1  0
 12 17  1  0
 12 18  1  0
 13 14  1  0
 13 19  1  0
 13 20  1  0
 14 21  1  0
 14 22  1  0
 14 23  1  0
M  RAD  1  10   2
M  END
>  <reaction>  (15) 
rmg_rxn_670

>  <mol_properties>  (15) 
{"1": {"label": "*1", "atom_type": "Cs"}, "2": {"label": "*0", "atom_type": "N3d"}, "7": {"label": "*2", "atom_type": "H0"}, "9": {"label": "*3", "atom_type": "Cs"}, "10": {"label": "*4", "atom_type": "O2s"}}

>  <type>  (15) 
unop_11

>  <geom_source>  (15) 
Heuristics

$$$$

     RDKit          3D

 23 21  0  0  0  0  0  0  0  0999 V2000
   -1.6826    0.9993   -1.0964 C   0  0  0  0  0  0  0  0  0  0  0  0
   -1.6826    0.9993    0.4141 C   0  0  0  0  0  0  0  0  0  0  0  0
   -1.6826    2.3252    1.0777 N   0  0  0  0  0  0  0  0  0  0  0  0
   -1.6827    3.2548    0.3300 O   0  0  0  0  0  0  0  0  0  0  0  0
   -0.8025    1.5067   -1.4909 H   0  0  0  0  0  0  0  0  0  0  0  0
   -1.6826   -0.0279   -1.4617 H   0  0  0  0  0  0  0  0  0  0  0  0
   -2.5628    1.5067   -1.4909 H   0  0  0  0  0  0  0  0  0  0  0  0
   -0.6372    0.3905    0.9267 H   0  0  0  0  0  0  0  0  0  0  0  0
   -2.5538    0.4920    0.8412 H   0  0  0  0  0  0  0  0  0  0  0  0
    0.4117   -0.2203    1.4410 C   0  0  0  0  0  3  0  0  0  0  0  0
    1.2592   -0.7138    0.4428 O   0  0  0  0  0  0  0  0  0  0  0  0
    0.6296   -1.6514   -0.3948 C   0  0  0  0  0  0  0  0  0  0  0  0
    1.6247   -2.1601   -1.4173 C   0  0  0  0  0  0  0  0  0  0  0  0
    2.7939   -2.9107   -0.7938 C   0  0  0  0  0  0  0  0  0  0  0  0
    0.9806    0.4946    2.0341 H   0  0  0  0  0  0  0  0  0  0  0  0
    0.0538   -1.0239    2.0989 H   0  0  0  0  0  0  0  0  0  0  0  0
   -0.2305   -1.1852   -0.8979 H   0  0  0  0  0  0  0  0  0  0  0  0
    0.2426   -2.4895    0.2066 H   0  0  0  0  0  0  0  0  0  0  0  0
    1.9911   -1.3095   -1.9978 H   0  0  0  0  0  0  0  0  0  0  0  0
    1.0879   -2.8108   -2.1132 H   0  0  0  0  0  0  0  0  0  0  0  0
    3.4855   -3.2654   -1.5594 H   0  0  0  0  0  0  0  0  0  0  0  0
    3.3451   -2.2669   -0.1085 H   0  0  0  0  0  0  0  0  0  0  0  0
    2.4435   -3.7792   -0.2304 H   0  0  0  0  0  0  0  0  0  0  0  0
  1  2  1  0
  1  5  1  0
  1  6  1  0
  1  7  1  0
  2  3  1  0
  2  8  1  0
  2  9  1  0
  3  4  2  0
 10 11  1  0
 10 15  1  0
 10 16  1  0
 11 12  1  0
 12 13  1  0
 12 17  1  0
 12 18  1  0
 13 14  1  0
 13 19  1  0
 13 20  1  0
 14 21  1  0
 14 22  1  0
 14 23  1  0
M  RAD  1  10   2
M  END
>  <reaction>  (16) 
rmg_rxn_670

>  <mol_properties>  (16) 
{"1": {"label": "*1", "atom_type": "Cs"}, "2": {"label": "*0", "atom_type": "N3d"}, "7": {"label": "*2", "atom_type": "H0"}, "9": {"label": "*3", "atom_type": "Cs"}, "10": {"label": "*4", "atom_type": "O2s"}}

>  <type>  (16) 
unop_12

>  <geom_source>  (16) 
Heuristics

$$$$

     RDKit          3D

 23 21  0  0  0  0  0  0  0  0999 V2000
    0.2393   -0.5248    0.1842 O   0  0  0  0  0  0  0  0  0  0  0  0
   -2.6328    1.9318    1.5521 O   0  0  0  0  0  1  0  0  0  0  0  0
   -3.1530    0.9230    1.1846 N   0  0  0  0  0  0  0  0  0  0  0  0
    2.5313   -0.4072   -0.5743 C   0  0  0  0  0  0  0  0  0  0  0  0
    1.5724   -0.3288    0.6176 C   0  0  0  0  0  0  0  0  0  0  0  0
    3.9848   -0.2848   -0.1260 C   0  0  0  0  0  0  0  0  0  0  0  0
   -3.6472   -0.8820   -0.3570 C   0  0  0  0  0  0  0  0  0  0  0  0
   -0.4056    0.7158   -0.0034 C   0  0  0  0  0  0  0  0  0  0  0  0
   -2.9632    0.4614   -0.1651 C   0  0  0  0  0  0  0  0  0  0  0  0
    2.3929   -1.3789   -1.0963 H   0  0  0  0  0  0  0  0  0  0  0  0
    2.3064    0.4101   -1.2922 H   0  0  0  0  0  0  0  0  0  0  0  0
    1.7247    0.6258    1.1771 H   0  0  0  0  0  0  0  0  0  0  0  0
    1.8199   -1.1489    1.3251 H   0  0  0  0  0  0  0  0  0  0  0  0
    4.1518    0.6906    0.3788 H   0  0  0  0  0  0  0  0  0  0  0  0
    4.6530   -0.3456   -1.0108 H   0  0  0  0  0  0  0  0  0  0  0  0
    4.2445   -1.1089    0.5722 H   0  0  0  0  0  0  0  0  0  0  0  0
   -3.2173   -1.6289    0.3432 H   0  0  0  0  0  0  0  0  0  0  0  0
   -3.4854   -1.2328   -1.3975 H   0  0  0  0  0  0  0  0  0  0  0  0
   -4.7385   -0.7873   -0.1723 H   0  0  0  0  0  0  0  0  0  0  0  0
   -0.5401    1.2410    0.9678 H   0  0  0  0  0  0  0  0  0  0  0  0
    0.1489    1.3612   -0.7200 H   0  0  0  0  0  0  0  0  0  0  0  0
   -1.6047    0.4949   -0.5090 H   0  0  0  0  0  0  0  0  0  0  0  0
   -3.3820    1.2033   -0.8788 H   0  0  0  0  0  0  0  0  0  0  0  0
  1  8  1  0
  1  5  1  0
  2  3  1  0
  3  9  2  3
  4  6  1  0
  4  5  1  0
  4 10  1  0
  4 11  1  0
  5 12  1  0
  5 13  1  0
  6 14  1  0
  6 15  1  0
  6 16  1  0
  7  9  1  0
  7 17  1  0
  7 18  1  0
  7 19  1  0
  8 20  1  0
  8 21  1  0
  8 22  1  0
  9 23  1  0
M  RAD  1   2   2
M  END
>  <reaction>  (17) 
rmg_rxn_670

>  <mol_properties>  (17) 
{"1": {"label": "*1", "atom_type": "Cs"}, "2": {"label": "*0", "atom_type": "N3d"}, "7": {"label": "*2", "atom_type": "H0"}, "9": {"label": "*3", "atom_type": "Cs"}, "10": {"label": "*4", "atom_type": "O2s"}}

>  <type>  (17) 
unop_13

>  <geom_source>  (17) 
AutoTST

$$$$

     RDKit          3D

 23 21  0  0  0  0  0  0  0  0999 V2000
   -2.0651    0.5312   -1.1450 C   0  0  0  0  0  0  0  0  0  0  0  0
   -2.0651    0.5312    0.3654 C   0  0  0  0  0  0  0  0  0  0  0  0
   -2.0651    1.8572    1.0290 N   0  0  0  0  0  0  0  0  0  0  0  0
   -2.0651    2.7867    0.2813 O   0  0  0  0  0  0  0  0  0  0  0  0
   -1.1850    1.0386   -1.5395 H   0  0  0  0  0  0  0  0  0  0  0  0
   -2.0651   -0.4959   -1.5103 H   0  0  0  0  0  0  0  0  0  0  0  0
   -2.9452    1.0386   -1.5395 H   0  0  0  0  0  0  0  0  0  0  0  0
   -1.0197   -0.0775    0.8780 H   0  0  0  0  0  0  0  0  0  0  0  0
   -2.9363    0.0239    0.7926 H   0  0  0  0  0  0  0  0  0  0  0  0
    0.0293   -0.6884    1.3923 C   0  0  0  0  0  3  0  0  0  0  0  0
    1.1455   -0.5852    0.5547 O   0  0  0  0  0  0  0  0  0  0  0  0
    1.1018   -1.4819   -0.5275 C   0  0  0  0  0  0  0  0  0  0  0  0
    2.3602   -1.3303   -1.3570 C   0  0  0  0  0  0  0  0  0  0  0  0
    3.6277   -1.6934   -0.5948 C   0  0  0  0  0  0  0  0  0  0  0  0
    0.1489    0.0394    2.1938 H   0  0  0  0  0  0  0  0  0  0  0  0
   -0.0530   -1.6917    1.8318 H   0  0  0  0  0  0  0  0  0  0  0  0
    0.2122   -1.2821   -1.1430 H   0  0  0  0  0  0  0  0  0  0  0  0
    1.0165   -2.5148   -0.1539 H   0  0  0  0  0  0  0  0  0  0  0  0
    2.4187   -0.2987   -1.7133 H   0  0  0  0  0  0  0  0  0  0  0  0
    2.2578   -1.9656   -2.2412 H   0  0  0  0  0  0  0  0  0  0  0  0
    4.5110   -1.5770   -1.2244 H   0  0  0  0  0  0  0  0  0  0  0  0
    3.7474   -1.0565    0.2816 H   0  0  0  0  0  0  0  0  0  0  0  0
    3.5936   -2.7311   -0.2538 H   0  0  0  0  0  0  0  0  0  0  0  0
  1  2  1  0
  1  5  1  0
  1  6  1  0
  1  7  1  0
  2  3  1  0
  2  8  1  0
  2  9  1  0
  3  4  2  0
 10 11  1  0
 10 15  1  0
 10 16  1  0
 11 12  1  0
 12 13  1  0
 12 17  1  0
 12 18  1  0
 13 14  1  0
 13 19  1  0
 13 20  1  0
 14 21  1  0
 14 22  1  0
 14 23  1  0
M  RAD  1  10   2
M  END
>  <reaction>  (18) 
rmg_rxn_670

>  <mol_properties>  (18) 
{"1": {"label": "*1", "atom_type": "Cs"}, "2": {"label": "*0", "atom_type": "N3d"}, "7": {"label": "*2", "atom_type": "H0"}, "9": {"label": "*3", "atom_type": "Cs"}, "10": {"label": "*4", "atom_type": "O2s"}}

>  <type>  (18) 
unop_14

>  <geom_source>  (18) 
gaussian_log

$$$$
