
     RDKit          3D

  9  8  0  0  0  0  0  0  0  0999 V2000
   -1.0434   -0.0834    0.0221 C   0  0  0  0  0  0  0  0  0  0  0  0
    0.4680   -0.2131    0.0785 C   0  0  0  0  0  0  0  0  0  0  0  0
    0.9450   -1.3136   -0.7058 N   0  0  0  0  0  2  0  0  0  0  0  0
   -1.5170   -0.9919    0.3960 H   0  0  0  0  0  0  0  0  0  0  0  0
   -1.3864    0.7592    0.6249 H   0  0  0  0  0  0  0  0  0  0  0  0
   -1.3736    0.0696   -1.0061 H   0  0  0  0  0  0  0  0  0  0  0  0
    0.8045   -0.3309    1.1214 H   0  0  0  0  0  0  0  0  0  0  0  0
    0.9463    0.7186   -0.2648 H   0  0  0  0  0  0  0  0  0  0  0  0
    1.9638   -1.3321   -0.6157 H   0  0  0  0  0  0  0  0  0  0  0  0
  1  2  1  0
  1  4  1  0
  1  5  1  0
  1  6  1  0
  2  3  1  0
  2  7  1  0
  2  8  1  0
  3  9  1  0
M  RAD  1   3   2
M  END
>  <reaction>  (1) 
rmg_rxn_320

>  <mol_properties>  (1) 
{"2": {"label": "donator", "atom_type": "N3s"}, "8": {"label": "d_hydrogen", "atom_type": "H0"}}

>  <type>  (1) 
r1h

$$$$

     RDKit          3D

 17 16  0  0  0  0  0  0  0  0999 V2000
   -2.5196    0.7765    0.6863 C   0  0  0  0  0  0  0  0  0  0  0  0
   -1.7832    0.2264   -0.5439 C   0  0  0  0  0  0  0  0  0  0  0  0
   -0.5364   -0.5090   -0.2164 C   0  0  0  0  0  3  0  0  0  0  0  0
   -0.7195   -1.6896    0.4220 O   0  0  0  0  0  0  0  0  0  0  0  0
    0.4618   -2.3470    0.8423 C   0  0  0  0  0  0  0  0  0  0  0  0
    0.0797   -3.6206    1.5573 C   0  0  0  0  0  0  0  0  0  0  0  0
   -1.8902    1.4809    1.2340 H   0  0  0  0  0  0  0  0  0  0  0  0
   -3.4347    1.2951    0.3937 H   0  0  0  0  0  0  0  0  0  0  0  0
   -2.7882   -0.0345    1.3642 H   0  0  0  0  0  0  0  0  0  0  0  0
   -2.4551   -0.4399   -1.0937 H   0  0  0  0  0  0  0  0  0  0  0  0
   -1.5294    1.0480   -1.2176 H   0  0  0  0  0  0  0  0  0  0  0  0
    0.3864    0.0229    0.0104 H   0  0  0  0  0  0  0  0  0  0  0  0
    1.0871   -2.5604   -0.0319 H   0  0  0  0  0  0  0  0  0  0  0  0
    1.0283   -1.6824    1.5065 H   0  0  0  0  0  0  0  0  0  0  0  0
   -0.4799   -4.2803    0.8934 H   0  0  0  0  0  0  0  0  0  0  0  0
    0.9764   -4.1449    1.8908 H   0  0  0  0  0  0  0  0  0  0  0  0
   -0.5383   -3.4025    2.4289 H   0  0  0  0  0  0  0  0  0  0  0  0
  1  2  1  0
  1  7  1  0
  1  8  1  0
  1  9  1  0
  2  3  1  0
  2 10  1  0
  2 11  1  0
  3  4  1  0
  3 12  1  0
  4  5  1  0
  5  6  1  0
  5 13  1  0
  5 14  1  0
  6 15  1  0
  6 16  1  0
  6 17  1  0
M  RAD  1   3   2
M  END
>  <reaction>  (2) 
rmg_rxn_320

>  <mol_properties>  (2) 
{"2": {"label": "acceptor", "atom_type": "Cs"}}

>  <type>  (2) 
r2

$$$$

     RDKit          3D

 18 17  0  0  0  0  0  0  0  0999 V2000
    2.2026   -0.7213   -0.2612 C   0  0  0  0  0  0  0  0  0  0  0  0
    1.5384    0.2638    0.6915 C   0  0  0  0  0  0  0  0  0  0  0  0
    2.2584    1.5946    0.7694 C   0  0  0  0  0  0  0  0  0  0  0  0
    2.2212    2.2185   -0.4893 O   0  0  0  0  0  0  0  0  0  0  0  0
    2.8988    3.4488   -0.5204 C   0  0  0  0  0  0  0  0  0  0  0  0
    2.7981    4.0296   -1.9118 C   0  0  0  0  0  0  0  0  0  0  0  0
    3.2294   -0.9309    0.0486 H   0  0  0  0  0  0  0  0  0  0  0  0
    2.2338   -0.3181   -1.2734 H   0  0  0  0  0  0  0  0  0  0  0  0
    1.6610   -1.6680   -0.2875 H   0  0  0  0  0  0  0  0  0  0  0  0
    1.4990   -0.1566    1.7002 H   0  0  0  0  0  0  0  0  0  0  0  0
    0.5055    0.4455    0.3835 H   0  0  0  0  0  0  0  0  0  0  0  0
    3.3038    1.4410    1.0808 H   0  0  0  0  0  0  0  0  0  0  0  0
    1.7844    2.2410    1.5226 H   0  0  0  0  0  0  0  0  0  0  0  0
    2.4596    4.1376    0.2164 H   0  0  0  0  0  0  0  0  0  0  0  0
    3.9524    3.3035   -0.2397 H   0  0  0  0  0  0  0  0  0  0  0  0
    1.7543    4.1869   -2.1856 H   0  0  0  0  0  0  0  0  0  0  0  0
    3.2472    3.3545   -2.6411 H   0  0  0  0  0  0  0  0  0  0  0  0
    3.3178    4.9878   -1.9600 H   0  0  0  0  0  0  0  0  0  0  0  0
  1  2  1  0
  1  7  1  0
  1  8  1  0
  1  9  1  0
  2  3  1  0
  2 10  1  0
  2 11  1  0
  3  4  1  0
  3 12  1  0
  3 13  1  0
  4  5  1  0
  5  6  1  0
  5 14  1  0
  5 15  1  0
  6 16  1  0
  6 17  1  0
  6 18  1  0
M  END
>  <reaction>  (3) 
rmg_rxn_320

>  <mol_properties>  (3) 
{"0": {"label": "a_hydrogen", "atom_type": "H0"}, "3": {"label": "acceptor", "atom_type": "Cs"}}

>  <type>  (3) 
r2h

$$$$

     RDKit          3D

 26 24  0  0  0  0  0  0  0  0999 V2000
    0.9274   -1.0850   -3.7527 C   0  0  0  0  0  0  0  0  0  0  0  0
    0.9560   -0.9776   -2.2337 C   0  0  0  0  0  0  0  0  0  0  0  0
    0.0036   -0.0338   -1.7411 N   0  0  0  0  0  2  0  0  0  0  0  0
    1.1587   -0.1214   -4.2078 H   0  0  0  0  0  0  0  0  0  0  0  0
    1.6574   -1.8172   -4.1031 H   0  0  0  0  0  0  0  0  0  0  0  0
   -0.0619   -1.3916   -4.0941 H   0  0  0  0  0  0  0  0  0  0  0  0
    1.9664   -0.7049   -1.8884 H   0  0  0  0  0  0  0  0  0  0  0  0
    0.7541   -1.9621   -1.7808 H   0  0  0  0  0  0  0  0  0  0  0  0
    0.2115   -0.0043   -0.5019 H   0  0  0  0  0  0  0  0  0  0  0  0
   -0.8256   -2.1859    0.9995 C   0  0  0  0  0  0  0  0  0  0  0  0
    0.4979   -1.4734    1.2547 C   0  0  0  0  0  0  0  0  0  0  0  0
    0.4883   -0.0303    0.8343 C   0  0  0  0  0  3  0  0  0  0  0  0
   -0.4997    0.6855    1.4610 O   0  0  0  0  0  0  0  0  0  0  0  0
   -0.5166    2.0643    1.1388 C   0  0  0  0  0  0  0  0  0  0  0  0
   -1.6437    2.7241    1.8959 C   0  0  0  0  0  0  0  0  0  0  0  0
   -1.0938   -2.1455   -0.0584 H   0  0  0  0  0  0  0  0  0  0  0  0
   -0.7658   -3.2336    1.2968 H   0  0  0  0  0  0  0  0  0  0  0  0
   -1.6316   -1.7161    1.5623 H   0  0  0  0  0  0  0  0  0  0  0  0
    0.7513   -1.5335    2.3196 H   0  0  0  0  0  0  0  0  0  0  0  0
    1.3077   -1.9719    0.7149 H   0  0  0  0  0  0  0  0  0  0  0  0
    1.4681    0.4643    0.8803 H   0  0  0  0  0  0  0  0  0  0  0  0
    0.4496    2.5111    1.4095 H   0  0  0  0  0  0  0  0  0  0  0  0
   -0.6490    2.1810    0.0578 H   0  0  0  0  0  0  0  0  0  0  0  0
   -1.5082    2.6047    2.9715 H   0  0  0  0  0  0  0  0  0  0  0  0
   -1.6738    3.7902    1.6665 H   0  0  0  0  0  0  0  0  0  0  0  0
   -2.6010    2.2834    1.6162 H   0  0  0  0  0  0  0  0  0  0  0  0
  1  2  1  0
  1  4  1  0
  1  5  1  0
  1  6  1  0
  2  3  1  0
  2  7  1  0
  2  8  1  0
  3  9  1  0
 10 11  1  0
 10 16  1  0
 10 17  1  0
 10 18  1  0
 11 12  1  0
 11 19  1  0
 11 20  1  0
 12 13  1  0
 12 21  1  0
 13 14  1  0
 14 15  1  0
 14 22  1  0
 14 23  1  0
 15 24  1  0
 15 25  1  0
 15 26  1  0
M  RAD  2   3   2  12   2
M  END
>  <reaction>  (4) 
rmg_rxn_320

>  <mol_properties>  (4) 
{"1": {"label": "*0", "atom_type": "Cs"}, "2": {"label": "*1", "atom_type": "N3s"}, "8": {"label": "*2", "atom_type": "H0"}, "11": {"label": "*3", "atom_type": "Cs"}, "12": {"label": "*4", "atom_type": "O2s"}}

>  <type>  (4) 
ts

$$$$

     RDKit          3D

 26 24  0  0  0  0  0  0  0  0999 V2000
    0.0858   -0.3475   -3.9573 C   0  0  0  0  0  0  0  0  0  0  0  0
    0.0858   -0.3475   -2.4393 C   0  0  0  0  0  0  0  0  0  0  0  0
    0.0858    0.9800   -1.8995 N   0  0  0  0  0  2  0  0  0  0  0  0
    0.9680    0.1689   -4.3373 H   0  0  0  0  0  0  0  0  0  0  0  0
    0.0858   -1.3664   -4.3483 H   0  0  0  0  0  0  0  0  0  0  0  0
   -0.7965    0.1689   -4.3373 H   0  0  0  0  0  0  0  0  0  0  0  0
    0.9580   -0.9013   -2.0554 H   0  0  0  0  0  0  0  0  0  0  0  0
   -0.7865   -0.9013   -2.0554 H   0  0  0  0  0  0  0  0  0  0  0  0
    0.0858    0.8765   -0.6763 H   0  0  0  0  0  0  0  0  0  0  0  0
    2.4524    0.4522    1.4948 C   0  0  0  0  0  0  0  0  0  0  0  0
    1.3182    1.4301    1.2188 C   0  0  0  0  0  0  0  0  0  0  0  0
    0.0858    0.7650    0.6408 C   0  0  0  0  0  3  0  0  0  0  0  0
   -0.4338   -0.1460    1.5764 O   0  0  0  0  0  0  0  0  0  0  0  0
   -1.5633   -0.8388    1.1098 C   0  0  0  0  0  0  0  0  0  0  0  0
   -2.0374   -1.7867    2.1871 C   0  0  0  0  0  0  0  0  0  0  0  0
    2.7627   -0.0537    0.5771 H   0  0  0  0  0  0  0  0  0  0  0  0
    3.3232    0.9662    1.9044 H   0  0  0  0  0  0  0  0  0  0  0  0
    2.1398   -0.3103    2.2083 H   0  0  0  0  0  0  0  0  0  0  0  0
    1.0346    1.9457    2.1400 H   0  0  0  0  0  0  0  0  0  0  0  0
    1.6472    2.1987    0.5139 H   0  0  0  0  0  0  0  0  0  0  0  0
   -0.6737    1.5205    0.3913 H   0  0  0  0  0  0  0  0  0  0  0  0
   -2.3591   -0.1258    0.8477 H   0  0  0  0  0  0  0  0  0  0  0  0
   -1.3109   -1.3931    0.1938 H   0  0  0  0  0  0  0  0  0  0  0  0
   -2.3010   -1.2366    3.0911 H   0  0  0  0  0  0  0  0  0  0  0  0
   -2.9162   -2.3366    1.8468 H   0  0  0  0  0  0  0  0  0  0  0  0
   -1.2546   -2.5038    2.4366 H   0  0  0  0  0  0  0  0  0  0  0  0
  1  2  1  0
  1  4  1  0
  1  5  1  0
  1  6  1  0
  2  3  1  0
  2  7  1  0
  2  8  1  0
  3  9  1  0
 10 11  1  0
 10 16  1  0
 10 17  1  0
 10 18  1  0
 11 12  1  0
 11 19  1  0
 11 20  1  0
 12 13  1  0
 12 21  1  0
 13 14  1  0
 14 15  1  0
 14 22  1  0
 14 23  1  0
 15 24  1  0
 15 25  1  0
 15 26  1  0
M  RAD  2   3   2  12   2
M  END
>  <reaction>  (5) 
rmg_rxn_320

>  <mol_properties>  (5) 
{"1": {"label": "*0", "atom_type": "Cs"}, "2": {"label": "*1", "atom_type": "N3s"}, "8": {"label": "*2", "atom_type": "H0"}, "11": {"label": "*3", "atom_type": "Cs"}, "12": {"label": "*4", "atom_type": "O2s"}}

>  <type>  (5) 
unop_1

>  <geom_source>  (5) 
Heuristics

$$$$

     RDKit          3D

 26 24  0  0  0  0  0  0  0  0999 V2000
    0.6297   -0.7848   -3.8268 C   0  0  0  0  0  0  0  0  0  0  0  0
    0.6297   -0.7848   -2.3088 C   0  0  0  0  0  0  0  0  0  0  0  0
    0.6297    0.5427   -1.7691 N   0  0  0  0  0  2  0  0  0  0  0  0
    1.5119   -0.2684   -4.2069 H   0  0  0  0  0  0  0  0  0  0  0  0
    0.6297   -1.8037   -4.2179 H   0  0  0  0  0  0  0  0  0  0  0  0
   -0.2525   -0.2684   -4.2069 H   0  0  0  0  0  0  0  0  0  0  0  0
    1.5019   -1.3385   -1.9249 H   0  0  0  0  0  0  0  0  0  0  0  0
   -0.2425   -1.3385   -1.9249 H   0  0  0  0  0  0  0  0  0  0  0  0
    0.6297    0.4392   -0.5458 H   0  0  0  0  0  0  0  0  0  0  0  0
    0.5069   -2.1978    0.9584 C   0  0  0  0  0  0  0  0  0  0  0  0
    1.3412   -0.9441    1.1853 C   0  0  0  0  0  0  0  0  0  0  0  0
    0.6297    0.3277    0.7713 C   0  0  0  0  0  3  0  0  0  0  0  0
   -0.5164    0.5000    1.5662 O   0  0  0  0  0  0  0  0  0  0  0  0
   -1.2618    1.6415    1.2272 C   0  0  0  0  0  0  0  0  0  0  0  0
   -2.4651    1.7300    2.1370 C   0  0  0  0  0  0  0  0  0  0  0  0
    0.2461   -2.3065   -0.0973 H   0  0  0  0  0  0  0  0  0  0  0  0
    1.0522   -3.0926    1.2622 H   0  0  0  0  0  0  0  0  0  0  0  0
   -0.4203   -2.1531    1.5296 H   0  0  0  0  0  0  0  0  0  0  0  0
    1.6147   -0.8612    2.2403 H   0  0  0  0  0  0  0  0  0  0  0  0
    2.2751   -1.0062    0.6198 H   0  0  0  0  0  0  0  0  0  0  0  0
    1.2988    1.1933    0.8852 H   0  0  0  0  0  0  0  0  0  0  0  0
   -0.6367    2.5412    1.3279 H   0  0  0  0  0  0  0  0  0  0  0  0
   -1.5784    1.5836    0.1754 H   0  0  0  0  0  0  0  0  0  0  0  0
   -2.1519    1.8014    3.1791 H   0  0  0  0  0  0  0  0  0  0  0  0
   -3.0601    2.6113    1.8923 H   0  0  0  0  0  0  0  0  0  0  0  0
   -3.0936    0.8456    2.0265 H   0  0  0  0  0  0  0  0  0  0  0  0
  1  2  1  0
  1  4  1  0
  1  5  1  0
  1  6  1  0
  2  3  1  0
  2  7  1  0
  2  8  1  0
  3  9  1  0
 10 11  1  0
 10 16  1  0
 10 17  1  0
 10 18  1  0
 11 12  1  0
 11 19  1  0
 11 20  1  0
 12 13  1  0
 12 21  1  0
 13 14  1  0
 14 15  1  0
 14 22  1  0
 14 23  1  0
 15 24  1  0
 15 25  1  0
 15 26  1  0
M  RAD  2   3   2  12   2
M  END
>  <reaction>  (6) 
rmg_rxn_320

>  <mol_properties>  (6) 
{"1": {"label": "*0", "atom_type": "Cs"}, "2": {"label": "*1", "atom_type": "N3s"}, "8": {"label": "*2", "atom_type": "H0"}, "11": {"label": "*3", "atom_type": "Cs"}, "12": {"label": "*4", "atom_type": "O2s"}}

>  <type>  (6) 
unop_2

>  <geom_source>  (6) 
Heuristics

$$$$

     RDKit          3D

 26 24  0  0  0  0  0  0  0  0999 V2000
   -0.2823   -0.3463   -3.8771 C   0  0  0  0  0  0  0  0  0  0  0  0
   -0.2823   -0.3463   -2.3591 C   0  0  0  0  0  0  0  0  0  0  0  0
   -0.2823    0.9812   -1.8194 N   0  0  0  0  0  2  0  0  0  0  0  0
    0.5999    0.1702   -4.2572 H   0  0  0  0  0  0  0  0  0  0  0  0
   -0.2823   -1.3652   -4.2682 H   0  0  0  0  0  0  0  0  0  0  0  0
   -1.1645    0.1702   -4.2572 H   0  0  0  0  0  0  0  0  0  0  0  0
    0.5899   -0.9000   -1.9752 H   0  0  0  0  0  0  0  0  0  0  0  0
   -1.1545   -0.9000   -1.9752 H   0  0  0  0  0  0  0  0  0  0  0  0
   -0.2823    0.8777   -0.5962 H   0  0  0  0  0  0  0  0  0  0  0  0
    1.9381    1.7635    1.4309 C   0  0  0  0  0  0  0  0  0  0  0  0
    0.4292    1.9504    1.3429 C   0  0  0  0  0  0  0  0  0  0  0  0
   -0.2823    0.7662    0.7210 C   0  0  0  0  0  3  0  0  0  0  0  0
   -0.0989   -0.3661    1.5329 O   0  0  0  0  0  0  0  0  0  0  0  0
   -0.6977   -1.5259    1.0132 C   0  0  0  0  0  0  0  0  0  0  0  0
   -0.4403   -2.6767    1.9581 C   0  0  0  0  0  0  0  0  0  0  0  0
    2.3709    1.6155    0.4383 H   0  0  0  0  0  0  0  0  0  0  0  0
    2.4165    2.6362    1.8778 H   0  0  0  0  0  0  0  0  0  0  0  0
    2.1844    0.8917    2.0370 H   0  0  0  0  0  0  0  0  0  0  0  0
    0.0135    2.1211    2.3393 H   0  0  0  0  0  0  0  0  0  0  0  0
    0.1940    2.8356    0.7455 H   0  0  0  0  0  0  0  0  0  0  0  0
   -1.3557    0.9803    0.6127 H   0  0  0  0  0  0  0  0  0  0  0  0
   -1.7789   -1.3659    0.8877 H   0  0  0  0  0  0  0  0  0  0  0  0
   -0.2855   -1.7464    0.0175 H   0  0  0  0  0  0  0  0  0  0  0  0
   -0.8607   -2.4648    2.9418 H   0  0  0  0  0  0  0  0  0  0  0  0
   -0.8976   -3.5902    1.5747 H   0  0  0  0  0  0  0  0  0  0  0  0
    0.6311   -2.8462    2.0711 H   0  0  0  0  0  0  0  0  0  0  0  0
  1  2  1  0
  1  4  1  0
  1  5  1  0
  1  6  1  0
  2  3  1  0
  2  7  1  0
  2  8  1  0
  3  9  1  0
 10 11  1  0
 10 16  1  0
 10 17  1  0
 10 18  1  0
 11 12  1  0
 11 19  1  0
 11 20  1  0
 12 13  1  0
 12 21  1  0
 13 14  1  0
 14 15  1  0
 14 22  1  0
 14 23  1  0
 15 24  1  0
 15 25  1  0
 15 26  1  0
M  RAD  2   3   2  12   2
M  END
>  <reaction>  (7) 
rmg_rxn_320

>  <mol_properties>  (7) 
{"1": {"label": "*0", "atom_type": "Cs"}, "2": {"label": "*1", "atom_type": "N3s"}, "8": {"label": "*2", "atom_type": "H0"}, "11": {"label": "*3", "atom_type": "Cs"}, "12": {"label": "*4", "atom_type": "O2s"}}

>  <type>  (7) 
unop_3

>  <geom_source>  (7) 
Heuristics

$$$$

     RDKit          3D

 26 24  0  0  0  0  0  0  0  0999 V2000
    0.3085   -1.5378   -3.3303 C   0  0  0  0  0  0  0  0  0  0  0  0
    0.3085   -1.5378   -1.8123 C   0  0  0  0  0  0  0  0  0  0  0  0
    0.3085   -0.2103   -1.2725 N   0  0  0  0  0  2  0  0  0  0  0  0
    1.1907   -1.0213   -3.7103 H   0  0  0  0  0  0  0  0  0  0  0  0
    0.3085   -2.5567   -3.7213 H   0  0  0  0  0  0  0  0  0  0  0  0
   -0.5737   -1.0213   -3.7103 H   0  0  0  0  0  0  0  0  0  0  0  0
    1.1807   -2.0915   -1.4284 H   0  0  0  0  0  0  0  0  0  0  0  0
   -0.5637   -2.0915   -1.4284 H   0  0  0  0  0  0  0  0  0  0  0  0
    0.3085   -0.3138   -0.0493 H   0  0  0  0  0  0  0  0  0  0  0  0
   -2.0930   -1.0581    0.7572 C   0  0  0  0  0  0  0  0  0  0  0  0
   -0.9239   -1.1781    1.7258 C   0  0  0  0  0  0  0  0  0  0  0  0
    0.3085   -0.4253    1.2678 C   0  0  0  0  0  3  0  0  0  0  0  0
    0.0197    0.9488    1.2087 O   0  0  0  0  0  0  0  0  0  0  0  0
    1.0998    1.7252    0.7572 C   0  0  0  0  0  0  0  0  0  0  0  0
    0.6834    3.1776    0.7310 C   0  0  0  0  0  0  0  0  0  0  0  0
   -1.8255   -1.4510   -0.2269 H   0  0  0  0  0  0  0  0  0  0  0  0
   -2.9591   -1.6160    1.1162 H   0  0  0  0  0  0  0  0  0  0  0  0
   -2.3862   -0.0157    0.6333 H   0  0  0  0  0  0  0  0  0  0  0  0
   -1.2131   -0.8039    2.7112 H   0  0  0  0  0  0  0  0  0  0  0  0
   -0.6479   -2.2284    1.8541 H   0  0  0  0  0  0  0  0  0  0  0  0
    1.1437   -0.6035    1.9611 H   0  0  0  0  0  0  0  0  0  0  0  0
    1.9658    1.5855    1.4213 H   0  0  0  0  0  0  0  0  0  0  0  0
    1.4052    1.3946   -0.2465 H   0  0  0  0  0  0  0  0  0  0  0  0
    0.3936    3.5101    1.7284 H   0  0  0  0  0  0  0  0  0  0  0  0
    1.5084    3.8013    0.3833 H   0  0  0  0  0  0  0  0  0  0  0  0
   -0.1652    3.3198    0.0609 H   0  0  0  0  0  0  0  0  0  0  0  0
  1  2  1  0
  1  4  1  0
  1  5  1  0
  1  6  1  0
  2  3  1  0
  2  7  1  0
  2  8  1  0
  3  9  1  0
 10 11  1  0
 10 16  1  0
 10 17  1  0
 10 18  1  0
 11 12  1  0
 11 19  1  0
 11 20  1  0
 12 13  1  0
 12 21  1  0
 13 14  1  0
 14 15  1  0
 14 22  1  0
 14 23  1  0
 15 24  1  0
 15 25  1  0
 15 26  1  0
M  RAD  2   3   2  12   2
M  END
>  <reaction>  (8) 
rmg_rxn_320

>  <mol_properties>  (8) 
{"1": {"label": "*0", "atom_type": "Cs"}, "2": {"label": "*1", "atom_type": "N3s"}, "8": {"label": "*2", "atom_type": "H0"}, "11": {"label": "*3", "atom_type": "Cs"}, "12": {"label": "*4", "atom_type": "O2s"}}

>  <type>  (8) 
unop_4

>  <geom_source>  (8) 
Heuristics

$$$$

     RDKit          3D

 26 24  0  0  0  0  0  0  0  0999 V2000
   -0.6862   -0.6768   -3.6289 C   0  0  0  0  0  0  0  0  0  0  0  0
   -0.6862   -0.6768   -2.1109 C   0  0  0  0  0  0  0  0  0  0  0  0
   -0.6862    0.6508   -1.5712 N   0  0  0  0  0  2  0  0  0  0  0  0
    0.1961   -0.1603   -4.0090 H   0  0  0  0  0  0  0  0  0  0  0  0
   -0.6862   -1.6957   -4.0200 H   0  0  0  0  0  0  0  0  0  0  0  0
   -1.5684   -0.1603   -4.0090 H   0  0  0  0  0  0  0  0  0  0  0  0
    0.1861   -1.2305   -1.7270 H   0  0  0  0  0  0  0  0  0  0  0  0
   -1.5584   -1.2305   -1.7270 H   0  0  0  0  0  0  0  0  0  0  0  0
   -0.6862    0.5472   -0.3480 H   0  0  0  0  0  0  0  0  0  0  0  0
    0.4969    2.6683    1.1798 C   0  0  0  0  0  0  0  0  0  0  0  0
   -0.6862    1.8099    1.6072 C   0  0  0  0  0  0  0  0  0  0  0  0
   -0.6862    0.4357    0.9692 C   0  0  0  0  0  3  0  0  0  0  0  0
    0.4526   -0.2726    1.3891 O   0  0  0  0  0  0  0  0  0  0  0  0
    0.5546   -1.5514    0.8165 C   0  0  0  0  0  0  0  0  0  0  0  0
    1.8072   -2.2215    1.3317 C   0  0  0  0  0  0  0  0  0  0  0  0
    0.4986    2.8183    0.0972 H   0  0  0  0  0  0  0  0  0  0  0  0
    0.4610    3.6503    1.6536 H   0  0  0  0  0  0  0  0  0  0  0  0
    1.4383    2.1919    1.4533 H   0  0  0  0  0  0  0  0  0  0  0  0
   -0.6886    1.6883    2.6934 H   0  0  0  0  0  0  0  0  0  0  0  0
   -1.6249    2.3039    1.3415 H   0  0  0  0  0  0  0  0  0  0  0  0
   -1.5956   -0.1153    1.2506 H   0  0  0  0  0  0  0  0  0  0  0  0
   -0.3335   -2.1486    1.0715 H   0  0  0  0  0  0  0  0  0  0  0  0
    0.5856   -1.4696   -0.2800 H   0  0  0  0  0  0  0  0  0  0  0  0
    1.7713   -2.3155    2.4176 H   0  0  0  0  0  0  0  0  0  0  0  0
    1.9075   -3.2186    0.9001 H   0  0  0  0  0  0  0  0  0  0  0  0
    2.6896   -1.6383    1.0659 H   0  0  0  0  0  0  0  0  0  0  0  0
  1  2  1  0
  1  4  1  0
  1  5  1  0
  1  6  1  0
  2  3  1  0
  2  7  1  0
  2  8  1  0
  3  9  1  0
 10 11  1  0
 10 16  1  0
 10 17  1  0
 10 18  1  0
 11 12  1  0
 11 19  1  0
 11 20  1  0
 12 13  1  0
 12 21  1  0
 13 14  1  0
 14 15  1  0
 14 22  1  0
 14 23  1  0
 15 24  1  0
 15 25  1  0
 15 26  1  0
M  RAD  2   3   2  12   2
M  END
>  <reaction>  (9) 
rmg_rxn_320

>  <mol_properties>  (9) 
{"1": {"label": "*0", "atom_type": "Cs"}, "2": {"label": "*1", "atom_type": "N3s"}, "8": {"label": "*2", "atom_type": "H0"}, "11": {"label": "*3", "atom_type": "Cs"}, "12": {"label": "*4", "atom_type": "O2s"}}

>  <type>  (9) 
unop_5

>  <geom_source>  (9) 
Heuristics

$$$$

     RDKit          3D

 26 24  0  0  0  0  0  0  0  0999 V2000
   -0.0236   -1.5875   -3.2499 C   0  0  0  0  0  0  0  0  0  0  0  0
   -0.0236   -1.5875   -1.7319 C   0  0  0  0  0  0  0  0  0  0  0  0
   -0.0236   -0.2599   -1.1922 N   0  0  0  0  0  2  0  0  0  0  0  0
    0.8586   -1.0710   -3.6300 H   0  0  0  0  0  0  0  0  0  0  0  0
   -0.0236   -2.6064   -3.6410 H   0  0  0  0  0  0  0  0  0  0  0  0
   -0.9058   -1.0710   -3.6300 H   0  0  0  0  0  0  0  0  0  0  0  0
    0.8486   -2.1412   -1.3480 H   0  0  0  0  0  0  0  0  0  0  0  0
   -0.8959   -2.1412   -1.3480 H   0  0  0  0  0  0  0  0  0  0  0  0
   -0.0236   -0.3635    0.0310 H   0  0  0  0  0  0  0  0  0  0  0  0
   -2.4637    0.0188    0.8682 C   0  0  0  0  0  0  0  0  0  0  0  0
   -1.4467   -0.5188    1.8661 C   0  0  0  0  0  0  0  0  0  0  0  0
   -0.0236   -0.4750    1.3482 C   0  0  0  0  0  3  0  0  0  0  0  0
    0.3502    0.8614    1.1262 O   0  0  0  0  0  0  0  0  0  0  0  0
    1.6493    0.9970    0.6090 C   0  0  0  0  0  0  0  0  0  0  0  0
    1.9471    2.4648    0.4083 C   0  0  0  0  0  0  0  0  0  0  0  0
   -2.4430   -0.5593   -0.0590 H   0  0  0  0  0  0  0  0  0  0  0  0
   -3.4758   -0.0332    1.2724 H   0  0  0  0  0  0  0  0  0  0  0  0
   -2.2488    1.0581    0.6199 H   0  0  0  0  0  0  0  0  0  0  0  0
   -1.4953    0.0530    2.7964 H   0  0  0  0  0  0  0  0  0  0  0  0
   -1.6804   -1.5566    2.1195 H   0  0  0  0  0  0  0  0  0  0  0  0
    0.6604   -0.9403    2.0730 H   0  0  0  0  0  0  0  0  0  0  0  0
    2.3773    0.5481    1.3010 H   0  0  0  0  0  0  0  0  0  0  0  0
    1.7317    0.4541   -0.3441 H   0  0  0  0  0  0  0  0  0  0  0  0
    1.8792    3.0015    1.3552 H   0  0  0  0  0  0  0  0  0  0  0  0
    2.9534    2.5950    0.0069 H   0  0  0  0  0  0  0  0  0  0  0  0
    1.2354    2.9072   -0.2897 H   0  0  0  0  0  0  0  0  0  0  0  0
  1  2  1  0
  1  4  1  0
  1  5  1  0
  1  6  1  0
  2  3  1  0
  2  7  1  0
  2  8  1  0
  3  9  1  0
 10 11  1  0
 10 16  1  0
 10 17  1  0
 10 18  1  0
 11 12  1  0
 11 19  1  0
 11 20  1  0
 12 13  1  0
 12 21  1  0
 13 14  1  0
 14 15  1  0
 14 22  1  0
 14 23  1  0
 15 24  1  0
 15 25  1  0
 15 26  1  0
M  RAD  2   3   2  12   2
M  END
>  <reaction>  (10) 
rmg_rxn_320

>  <mol_properties>  (10) 
{"1": {"label": "*0", "atom_type": "Cs"}, "2": {"label": "*1", "atom_type": "N3s"}, "8": {"label": "*2", "atom_type": "H0"}, "11": {"label": "*3", "atom_type": "Cs"}, "12": {"label": "*4", "atom_type": "O2s"}}

>  <type>  (10) 
unop_6

>  <geom_source>  (10) 
Heuristics

$$$$

     RDKit          3D

 26 24  0  0  0  0  0  0  0  0999 V2000
   -0.3626   -1.4841   -3.2396 C   0  0  0  0  0  0  0  0  0  0  0  0
   -0.3626   -1.4841   -1.7216 C   0  0  0  0  0  0  0  0  0  0  0  0
   -0.3626   -0.1565   -1.1819 N   0  0  0  0  0  2  0  0  0  0  0  0
    0.5196   -0.9676   -3.6197 H   0  0  0  0  0  0  0  0  0  0  0  0
   -0.3626   -2.5030   -3.6307 H   0  0  0  0  0  0  0  0  0  0  0  0
   -1.2448   -0.9676   -3.6197 H   0  0  0  0  0  0  0  0  0  0  0  0
    0.5096   -2.0378   -1.3377 H   0  0  0  0  0  0  0  0  0  0  0  0
   -1.2349   -2.0378   -1.3377 H   0  0  0  0  0  0  0  0  0  0  0  0
   -0.3626   -0.2600    0.0413 H   0  0  0  0  0  0  0  0  0  0  0  0
   -2.2519    1.2752    0.9751 C   0  0  0  0  0  0  0  0  0  0  0  0
   -1.5950    0.2936    1.9364 C   0  0  0  0  0  0  0  0  0  0  0  0
   -0.3626   -0.3715    1.3585 C   0  0  0  0  0  3  0  0  0  0  0  0
    0.6164    0.6038    1.1030 O   0  0  0  0  0  0  0  0  0  0  0  0
    1.7871    0.0798    0.5298 C   0  0  0  0  0  0  0  0  0  0  0  0
    2.7666    1.2067    0.2970 C   0  0  0  0  0  0  0  0  0  0  0  0
   -2.5616    0.7721    0.0557 H   0  0  0  0  0  0  0  0  0  0  0  0
   -3.1372    1.7298    1.4222 H   0  0  0  0  0  0  0  0  0  0  0  0
   -1.5594    2.0721    0.7040 H   0  0  0  0  0  0  0  0  0  0  0  0
   -1.3125    0.8051    2.8602 H   0  0  0  0  0  0  0  0  0  0  0  0
   -2.3028   -0.4926    2.2133 H   0  0  0  0  0  0  0  0  0  0  0  0
    0.0299   -1.1223    2.0600 H   0  0  0  0  0  0  0  0  0  0  0  0
    2.2245   -0.6782    1.1965 H   0  0  0  0  0  0  0  0  0  0  0  0
    1.5472   -0.4233   -0.4186 H   0  0  0  0  0  0  0  0  0  0  0  0
    3.0156    1.6972    1.2386 H   0  0  0  0  0  0  0  0  0  0  0  0
    3.6858    0.8227   -0.1481 H   0  0  0  0  0  0  0  0  0  0  0  0
    2.3398    1.9510   -0.3763 H   0  0  0  0  0  0  0  0  0  0  0  0
  1  2  1  0
  1  4  1  0
  1  5  1  0
  1  6  1  0
  2  3  1  0
  2  7  1  0
  2  8  1  0
  3  9  1  0
 10 11  1  0
 10 16  1  0
 10 17  1  0
 10 18  1  0
 11 12  1  0
 11 19  1  0
 11 20  1  0
 12 13  1  0
 12 21  1  0
 13 14  1  0
 14 15  1  0
 14 22  1  0
 14 23  1  0
 15 24  1  0
 15 25  1  0
 15 26  1  0
M  RAD  2   3   2  12   2
M  END
>  <reaction>  (11) 
rmg_rxn_320

>  <mol_properties>  (11) 
{"1": {"label": "*0", "atom_type": "Cs"}, "2": {"label": "*1", "atom_type": "N3s"}, "8": {"label": "*2", "atom_type": "H0"}, "11": {"label": "*3", "atom_type": "Cs"}, "12": {"label": "*4", "atom_type": "O2s"}}

>  <type>  (11) 
unop_7

>  <geom_source>  (11) 
Heuristics

$$$$

     RDKit          3D

 26 24  0  0  0  0  0  0  0  0999 V2000
    0.3190   -0.4543   -3.9655 C   0  0  0  0  0  0  0  0  0  0  0  0
    0.3190   -0.4543   -2.4475 C   0  0  0  0  0  0  0  0  0  0  0  0
    0.3190    0.8733   -1.9077 N   0  0  0  0  0  2  0  0  0  0  0  0
    1.2012    0.0622   -4.3455 H   0  0  0  0  0  0  0  0  0  0  0  0
    0.3190   -1.4732   -4.3565 H   0  0  0  0  0  0  0  0  0  0  0  0
   -0.5633    0.0622   -4.3455 H   0  0  0  0  0  0  0  0  0  0  0  0
    1.1912   -1.0080   -2.0635 H   0  0  0  0  0  0  0  0  0  0  0  0
   -0.5533   -1.0080   -2.0635 H   0  0  0  0  0  0  0  0  0  0  0  0
    0.3190    0.7697   -0.6845 H   0  0  0  0  0  0  0  0  0  0  0  0
    2.2499   -0.8018    1.3864 C   0  0  0  0  0  0  0  0  0  0  0  0
    1.7420    0.6144    1.1506 C   0  0  0  0  0  0  0  0  0  0  0  0
    0.3190    0.6582    0.6327 C   0  0  0  0  0  3  0  0  0  0  0  0
   -0.5450    0.1139    1.5982 O   0  0  0  0  0  0  0  0  0  0  0  0
   -1.8880    0.0810    1.1874 C   0  0  0  0  0  0  0  0  0  0  0  0
   -2.7250   -0.5198    2.2928 C   0  0  0  0  0  0  0  0  0  0  0  0
    2.2284   -1.3826    0.4609 H   0  0  0  0  0  0  0  0  0  0  0  0
    3.2773   -0.7946    1.7532 H   0  0  0  0  0  0  0  0  0  0  0  0
    1.6297   -1.3172    2.1198 H   0  0  0  0  0  0  0  0  0  0  0  0
    1.7917    1.1902    2.0783 H   0  0  0  0  0  0  0  0  0  0  0  0
    2.3798    1.1269    0.4250 H   0  0  0  0  0  0  0  0  0  0  0  0
    0.0263    1.6947    0.4091 H   0  0  0  0  0  0  0  0  0  0  0  0
   -2.2338    1.0989    0.9533 H   0  0  0  0  0  0  0  0  0  0  0  0
   -1.9837   -0.5130    0.2665 H   0  0  0  0  0  0  0  0  0  0  0  0
   -2.6416    0.0763    3.2023 H   0  0  0  0  0  0  0  0  0  0  0  0
   -3.7744   -0.5551    1.9960 H   0  0  0  0  0  0  0  0  0  0  0  0
   -2.3930   -1.5346    2.5150 H   0  0  0  0  0  0  0  0  0  0  0  0
  1  2  1  0
  1  4  1  0
  1  5  1  0
  1  6  1  0
  2  3  1  0
  2  7  1  0
  2  8  1  0
  3  9  1  0
 10 11  1  0
 10 16  1  0
 10 17  1  0
 10 18  1  0
 11 12  1  0
 11 19  1  0
 11 20  1  0
 12 13  1  0
 12 21  1  0
 13 14  1  0
 14 15  1  0
 14 22  1  0
 14 23  1  0
 15 24  1  0
 15 25  1  0
 15 26  1  0
M  RAD  2   3   2  12   2
M  END
>  <reaction>  (12) 
rmg_rxn_320

>  <mol_properties>  (12) 
{"1": {"label": "*0", "atom_type": "Cs"}, "2": {"label": "*1", "atom_type": "N3s"}, "8": {"label": "*2", "atom_type": "H0"}, "11": {"label": "*3", "atom_type": "Cs"}, "12": {"label": "*4", "atom_type": "O2s"}}

>  <type>  (12) 
unop_8

>  <geom_source>  (12) 
Heuristics

$$$$

     RDKit          3D

 26 24  0  0  0  0  0  0  0  0999 V2000
    0.5734   -1.3431   -3.4743 C   0  0  0  0  0  0  0  0  0  0  0  0
    0.5734   -1.3431   -1.9563 C   0  0  0  0  0  0  0  0  0  0  0  0
    0.5734   -0.0156   -1.4165 N   0  0  0  0  0  2  0  0  0  0  0  0
    1.4556   -0.8267   -3.8543 H   0  0  0  0  0  0  0  0  0  0  0  0
    0.5734   -2.3620   -3.8653 H   0  0  0  0  0  0  0  0  0  0  0  0
   -0.3088   -0.8267   -3.8543 H   0  0  0  0  0  0  0  0  0  0  0  0
    1.4456   -1.8968   -1.5724 H   0  0  0  0  0  0  0  0  0  0  0  0
   -0.2989   -1.8968   -1.5724 H   0  0  0  0  0  0  0  0  0  0  0  0
    0.5734   -0.1191   -0.1933 H   0  0  0  0  0  0  0  0  0  0  0  0
   -1.3782   -1.7935    0.7031 C   0  0  0  0  0  0  0  0  0  0  0  0
   -0.1381   -1.5024    1.5378 C   0  0  0  0  0  0  0  0  0  0  0  0
    0.5734   -0.2306    1.1238 C   0  0  0  0  0  3  0  0  0  0  0  0
   -0.2772    0.8683    1.3336 O   0  0  0  0  0  0  0  0  0  0  0  0
    0.2894    2.0928    0.9423 C   0  0  0  0  0  0  0  0  0  0  0  0
   -0.7035    3.2004    1.2085 C   0  0  0  0  0  0  0  0  0  0  0  0
   -1.1203   -1.9008   -0.3535 H   0  0  0  0  0  0  0  0  0  0  0  0
   -1.8605   -2.7175    1.0253 H   0  0  0  0  0  0  0  0  0  0  0  0
   -2.1015   -0.9828    0.7906 H   0  0  0  0  0  0  0  0  0  0  0  0
   -0.4073   -1.4215    2.5941 H   0  0  0  0  0  0  0  0  0  0  0  0
    0.5738   -2.3283    1.4546 H   0  0  0  0  0  0  0  0  0  0  0  0
    1.4988   -0.1050    1.7050 H   0  0  0  0  0  0  0  0  0  0  0  0
    1.2214    2.2699    1.4993 H   0  0  0  0  0  0  0  0  0  0  0  0
    0.5518    2.0600   -0.1255 H   0  0  0  0  0  0  0  0  0  0  0  0
   -0.9537    3.2426    2.2691 H   0  0  0  0  0  0  0  0  0  0  0  0
   -0.2842    4.1633    0.9123 H   0  0  0  0  0  0  0  0  0  0  0  0
   -1.6220    3.0339    0.6447 H   0  0  0  0  0  0  0  0  0  0  0  0
  1  2  1  0
  1  4  1  0
  1  5  1  0
  1  6  1  0
  2  3  1  0
  2  7  1  0
  2  8  1  0
  3  9  1  0
 10 11  1  0
 10 16  1  0
 10 17  1  0
 10 18  1  0
 11 12  1  0
 11 19  1  0
 11 20  1  0
 12 13  1  0
 12 21  1  0
 13 14  1  0
 14 15  1  0
 14 22  1  0
 14 23  1  0
 15 24  1  0
 15 25  1  0
 15 26  1  0
M  RAD  2   3   2  12   2
M  END
>  <reaction>  (13) 
rmg_rxn_320

>  <mol_properties>  (13) 
{"1": {"label": "*0", "atom_type": "Cs"}, "2": {"label": "*1", "atom_type": "N3s"}, "8": {"label": "*2", "atom_type": "H0"}, "11": {"label": "*3", "atom_type": "Cs"}, "12": {"label": "*4", "atom_type": "O2s"}}

>  <type>  (13) 
unop_9

>  <geom_source>  (13) 
Heuristics

$$$$

     RDKit          3D

 26 24  0  0  0  0  0  0  0  0999 V2000
    0.4896   -0.5938   -3.9263 C   0  0  0  0  0  0  0  0  0  0  0  0
    0.4896   -0.5938   -2.4083 C   0  0  0  0  0  0  0  0  0  0  0  0
    0.4896    0.7337   -1.8686 N   0  0  0  0  0  2  0  0  0  0  0  0
    1.3718   -0.0774   -4.3064 H   0  0  0  0  0  0  0  0  0  0  0  0
    0.4896   -1.6127   -4.3174 H   0  0  0  0  0  0  0  0  0  0  0  0
   -0.3926   -0.0774   -4.3064 H   0  0  0  0  0  0  0  0  0  0  0  0
    1.3618   -1.1475   -2.0244 H   0  0  0  0  0  0  0  0  0  0  0  0
   -0.3826   -1.1475   -2.0244 H   0  0  0  0  0  0  0  0  0  0  0  0
    0.4896    0.6302   -0.6454 H   0  0  0  0  0  0  0  0  0  0  0  0
    1.5150   -1.7417    1.1889 C   0  0  0  0  0  0  0  0  0  0  0  0
    1.7220   -0.2341    1.1297 C   0  0  0  0  0  0  0  0  0  0  0  0
    0.4896    0.5187    0.6718 C   0  0  0  0  0  3  0  0  0  0  0  0
   -0.5461    0.3261    1.6019 O   0  0  0  0  0  0  0  0  0  0  0  0
   -1.7449    0.9623    1.2390 C   0  0  0  0  0  0  0  0  0  0  0  0
   -2.7854    0.6914    2.3009 C   0  0  0  0  0  0  0  0  0  0  0  0
    1.2456   -2.1369    0.2062 H   0  0  0  0  0  0  0  0  0  0  0  0
    2.4229   -2.2502    1.5166 H   0  0  0  0  0  0  0  0  0  0  0  0
    0.7132   -1.9944    1.8827 H   0  0  0  0  0  0  0  0  0  0  0  0
    2.0140    0.1434    2.1130 H   0  0  0  0  0  0  0  0  0  0  0  0
    2.5379    0.0070    0.4426 H   0  0  0  0  0  0  0  0  0  0  0  0
    0.7122    1.5915    0.5750 H   0  0  0  0  0  0  0  0  0  0  0  0
   -1.5779    2.0443    1.1316 H   0  0  0  0  0  0  0  0  0  0  0  0
   -2.0863    0.5891    0.2621 H   0  0  0  0  0  0  0  0  0  0  0  0
   -2.4538    1.0734    3.2670 H   0  0  0  0  0  0  0  0  0  0  0  0
   -3.7270    1.1772    2.0402 H   0  0  0  0  0  0  0  0  0  0  0  0
   -2.9631   -0.3803    2.3972 H   0  0  0  0  0  0  0  0  0  0  0  0
  1  2  1  0
  1  4  1  0
  1  5  1  0
  1  6  1  0
  2  3  1  0
  2  7  1  0
  2  8  1  0
  3  9  1  0
 10 11  1  0
 10 16  1  0
 10 17  1  0
 10 18  1  0
 11 12  1  0
 11 19  1  0
 11 20  1  0
 12 13  1  0
 12 21  1  0
 13 14  1  0
 14 15  1  0
 14 22  1  0
 14 23  1  0
 15 24  1  0
 15 25  1  0
 15 26  1  0
M  RAD  2   3   2  12   2
M  END
>  <reaction>  (14) 
rmg_rxn_320

>  <mol_properties>  (14) 
{"1": {"label": "*0", "atom_type": "Cs"}, "2": {"label": "*1", "atom_type": "N3s"}, "8": {"label": "*2", "atom_type": "H0"}, "11": {"label": "*3", "atom_type": "Cs"}, "12": {"label": "*4", "atom_type": "O2s"}}

>  <type>  (14) 
unop_10

>  <geom_source>  (14) 
Heuristics

$$$$

     RDKit          3D

 26 24  0  0  0  0  0  0  0  0999 V2000
   -0.6580   -1.1916   -3.3434 C   0  0  0  0  0  0  0  0  0  0  0  0
   -0.6580   -1.1916   -1.8254 C   0  0  0  0  0  0  0  0  0  0  0  0
   -0.6580    0.1360   -1.2857 N   0  0  0  0  0  2  0  0  0  0  0  0
    0.2243   -0.6751   -3.7235 H   0  0  0  0  0  0  0  0  0  0  0  0
   -0.6580   -2.2104   -3.7345 H   0  0  0  0  0  0  0  0  0  0  0  0
   -1.5402   -0.6751   -3.7235 H   0  0  0  0  0  0  0  0  0  0  0  0
    0.2143   -1.7453   -1.4415 H   0  0  0  0  0  0  0  0  0  0  0  0
   -1.5302   -1.7453   -1.4415 H   0  0  0  0  0  0  0  0  0  0  0  0
   -0.6580    0.0325   -0.0624 H   0  0  0  0  0  0  0  0  0  0  0  0
   -1.2571    2.3756    1.0443 C   0  0  0  0  0  0  0  0  0  0  0  0
   -1.3695    1.1052    1.8766 C   0  0  0  0  0  0  0  0  0  0  0  0
   -0.6580   -0.0790    1.2547 C   0  0  0  0  0  3  0  0  0  0  0  0
    0.7191    0.1914    1.1808 O   0  0  0  0  0  0  0  0  0  0  0  0
    1.4576   -0.8427    0.5819 C   0  0  0  0  0  0  0  0  0  0  0  0
    2.9167   -0.4506    0.5524 C   0  0  0  0  0  0  0  0  0  0  0  0
   -1.6877    2.2297    0.0505 H   0  0  0  0  0  0  0  0  0  0  0  0
   -1.7847    3.2041    1.5193 H   0  0  0  0  0  0  0  0  0  0  0  0
   -0.2135    2.6635    0.9182 H   0  0  0  0  0  0  0  0  0  0  0  0
   -0.9571    1.2728    2.8749 H   0  0  0  0  0  0  0  0  0  0  0  0
   -2.4205    0.8340    2.0093 H   0  0  0  0  0  0  0  0  0  0  0  0
   -0.8306   -0.9852    1.8538 H   0  0  0  0  0  0  0  0  0  0  0  0
    1.3219   -1.7767    1.1471 H   0  0  0  0  0  0  0  0  0  0  0  0
    1.0879   -1.0251   -0.4380 H   0  0  0  0  0  0  0  0  0  0  0  0
    3.2878   -0.2830    1.5641 H   0  0  0  0  0  0  0  0  0  0  0  0
    3.5113   -1.2406    0.0910 H   0  0  0  0  0  0  0  0  0  0  0  0
    3.0544    0.4669   -0.0209 H   0  0  0  0  0  0  0  0  0  0  0  0
  1  2  1  0
  1  4  1  0
  1  5  1  0
  1  6  1  0
  2  3  1  0
  2  7  1  0
  2  8  1  0
  3  9  1  0
 10 11  1  0
 10 16  1  0
 10 17  1  0
 10 18  1  0
 11 12  1  0
 11 19  1  0
 11 20  1  0
 12 13  1  0
 12 21  1  0
 13 14  1  0
 14 15  1  0
 14 22  1  0
 14 23  1  0
 15 24  1  0
 15 25  1  0
 15 26  1  0
M  RAD  2   3   2  12   2
M  END
>  <reaction>  (15) 
rmg_rxn_320

>  <mol_properties>  (15) 
{"1": {"label": "*0", "atom_type": "Cs"}, "2": {"label": "*1", "atom_type": "N3s"}, "8": {"label": "*2", "atom_type": "H0"}, "11": {"label": "*3", "atom_type": "Cs"}, "12": {"label": "*4", "atom_type": "O2s"}}

>  <type>  (15) 
unop_11

>  <geom_source>  (15) 
Heuristics

$$$$

     RDKit          3D

 26 24  0  0  0  0  0  0  0  0999 V2000
    0.6862   -1.0547   -3.6609 C   0  0  0  0  0  0  0  0  0  0  0  0
    0.6862   -1.0547   -2.1429 C   0  0  0  0  0  0  0  0  0  0  0  0
    0.6862    0.2729   -1.6031 N   0  0  0  0  0  2  0  0  0  0  0  0
    1.5684   -0.5382   -4.0410 H   0  0  0  0  0  0  0  0  0  0  0  0
    0.6862   -2.0736   -4.0520 H   0  0  0  0  0  0  0  0  0  0  0  0
   -0.1961   -0.5382   -4.0410 H   0  0  0  0  0  0  0  0  0  0  0  0
    1.5584   -1.6084   -1.7590 H   0  0  0  0  0  0  0  0  0  0  0  0
   -0.1861   -1.6084   -1.7590 H   0  0  0  0  0  0  0  0  0  0  0  0
    0.6862    0.1693   -0.3799 H   0  0  0  0  0  0  0  0  0  0  0  0
   -0.4969   -2.1783    0.7696 C   0  0  0  0  0  0  0  0  0  0  0  0
    0.6862   -1.4040    1.3351 C   0  0  0  0  0  0  0  0  0  0  0  0
    0.6862    0.0579    0.9372 C   0  0  0  0  0  3  0  0  0  0  0  0
   -0.4526    0.6856    1.4702 O   0  0  0  0  0  0  0  0  0  0  0  0
   -0.5546    2.0424    1.1207 C   0  0  0  0  0  0  0  0  0  0  0  0
   -1.8072    2.6164    1.7412 C   0  0  0  0  0  0  0  0  0  0  0  0
   -0.4986   -2.1443   -0.3228 H   0  0  0  0  0  0  0  0  0  0  0  0
   -0.4610   -3.2260    1.0716 H   0  0  0  0  0  0  0  0  0  0  0  0
   -1.4383   -1.7547    1.1193 H   0  0  0  0  0  0  0  0  0  0  0  0
    0.6886   -1.4667    2.4264 H   0  0  0  0  0  0  0  0  0  0  0  0
    1.6249   -1.8463    0.9902 H   0  0  0  0  0  0  0  0  0  0  0  0
    1.5956    0.5537    1.3073 H   0  0  0  0  0  0  0  0  0  0  0  0
    0.3335    2.5882    1.4724 H   0  0  0  0  0  0  0  0  0  0  0  0
   -0.5856    2.1460    0.0260 H   0  0  0  0  0  0  0  0  0  0  0  0
   -1.7713    2.5266    2.8275 H   0  0  0  0  0  0  0  0  0  0  0  0
   -1.9075    3.6718    1.4833 H   0  0  0  0  0  0  0  0  0  0  0  0
   -2.6896    2.0861    1.3812 H   0  0  0  0  0  0  0  0  0  0  0  0
  1  2  1  0
  1  4  1  0
  1  5  1  0
  1  6  1  0
  2  3  1  0
  2  7  1  0
  2  8  1  0
  3  9  1  0
 10 11  1  0
 10 16  1  0
 10 17  1  0
 10 18  1  0
 11 12  1  0
 11 19  1  0
 11 20  1  0
 12 13  1  0
 12 21  1  0
 13 14  1  0
 14 15  1  0
 14 22  1  0
 14 23  1  0
 15 24  1  0
 15 25  1  0
 15 26  1  0
M  RAD  2   3   2  12   2
M  END
>  <reaction>  (16) 
rmg_rxn_320

>  <mol_properties>  (16) 
{"1": {"label": "*0", "atom_type": "Cs"}, "2": {"label": "*1", "atom_type": "N3s"}, "8": {"label": "*2", "atom_type": "H0"}, "11": {"label": "*3", "atom_type": "Cs"}, "12": {"label": "*4", "atom_type": "O2s"}}

>  <type>  (16) 
unop_12

>  <geom_source>  (16) 
Heuristics

$$$$

     RDKit          3D

 26 24  0  0  0  0  0  0  0  0999 V2000
    0.6297   -0.7848   -3.8268 C   0  0  0  0  0  0  0  0  0  0  0  0
    0.6297   -0.7848   -2.3088 C   0  0  0  0  0  0  0  0  0  0  0  0
    0.6297    0.5427   -1.7691 N   0  0  0  0  0  2  0  0  0  0  0  0
    1.5119   -0.2684   -4.2069 H   0  0  0  0  0  0  0  0  0  0  0  0
    0.6297   -1.8037   -4.2179 H   0  0  0  0  0  0  0  0  0  0  0  0
   -0.2525   -0.2684   -4.2069 H   0  0  0  0  0  0  0  0  0  0  0  0
    1.5019   -1.3385   -1.9249 H   0  0  0  0  0  0  0  0  0  0  0  0
   -0.2425   -1.3385   -1.9249 H   0  0  0  0  0  0  0  0  0  0  0  0
    0.6297    0.4392   -0.5458 H   0  0  0  0  0  0  0  0  0  0  0  0
    0.5069   -2.1978    0.9584 C   0  0  0  0  0  0  0  0  0  0  0  0
    1.3412   -0.9441    1.1853 C   0  0  0  0  0  0  0  0  0  0  0  0
    0.6297    0.3277    0.7713 C   0  0  0  0  0  3  0  0  0  0  0  0
   -0.5164    0.5000    1.5662 O   0  0  0  0  0  0  0  0  0  0  0  0
   -1.2618    1.6415    1.2272 C   0  0  0  0  0  0  0  0  0  0  0  0
   -2.4651    1.7300    2.1370 C   0  0  0  0  0  0  0  0  0  0  0  0
    0.2461   -2.3065   -0.0973 H   0  0  0  0  0  0  0  0  0  0  0  0
    1.0522   -3.0926    1.2622 H   0  0  0  0  0  0  0  0  0  0  0  0
   -0.4203   -2.1531    1.5296 H   0  0  0  0  0  0  0  0  0  0  0  0
    1.6147   -0.8612    2.2403 H   0  0  0  0  0  0  0  0  0  0  0  0
    2.2751   -1.0062    0.6198 H   0  0  0  0  0  0  0  0  0  0  0  0
    1.2988    1.1932    0.8852 H   0  0  0  0  0  0  0  0  0  0  0  0
   -0.6367    2.5412    1.3279 H   0  0  0  0  0  0  0  0  0  0  0  0
   -1.5784    1.5836    0.1754 H   0  0  0  0  0  0  0  0  0  0  0  0
   -2.1519    1.8014    3.1791 H   0  0  0  0  0  0  0  0  0  0  0  0
   -3.0601    2.6113    1.8923 H   0  0  0  0  0  0  0  0  0  0  0  0
   -3.0936    0.8456    2.0265 H   0  0  0  0  0  0  0  0  0  0  0  0
  1  2  1  0
  1  4  1  0
  1  5  1  0
  1  6  1  0
  2  3  1  0
  2  7  1  0
  2  8  1  0
  3  9  1  0
 10 11  1  0
 10 16  1  0
 10 17  1  0
 10 18  1  0
 11 12  1  0
 11 19  1  0
 11 20  1  0
 12 13  1  0
 12 21  1  0
 13 14  1  0
 14 15  1  0
 14 22  1  0
 14 23  1  0
 15 24  1  0
 15 25  1  0
 15 26  1  0
M  RAD  2   3   2  12   2
M  END
>  <reaction>  (17) 
rmg_rxn_320

>  <mol_properties>  (17) 
{"1": {"label": "*0", "atom_type": "Cs"}, "2": {"label": "*1", "atom_type": "N3s"}, "8": {"label": "*2", "atom_type": "H0"}, "11": {"label": "*3", "atom_type": "Cs"}, "12": {"label": "*4", "atom_type": "O2s"}}

>  <type>  (17) 
unop_13

>  <geom_source>  (17) 
gaussian_log

$$$$
