
     RDKit          3D

  8  7  0  0  0  0  0  0  0  0999 V2000
    0.9548    0.1194   -0.0790 C   0  0  0  0  0  0  0  0  0  0  0  0
   -0.4838   -0.2649    0.0193 C   0  0  0  0  0  0  0  0  0  0  0  0
   -0.8933   -1.1081    0.8664 N   0  0  0  0  0  0  0  0  0  0  0  0
    1.3360   -0.0983   -1.0800 H   0  0  0  0  0  0  0  0  0  0  0  0
    1.0698    1.1948    0.0786 H   0  0  0  0  0  0  0  0  0  0  0  0
    1.5426   -0.4219    0.6602 H   0  0  0  0  0  0  0  0  0  0  0  0
   -1.1575    0.2324   -0.6905 H   0  0  0  0  0  0  0  0  0  0  0  0
   -1.8989   -1.2455    0.7886 H   0  0  0  0  0  0  0  0  0  0  0  0
  1  2  1  0
  1  4  1  0
  1  5  1  0
  1  6  1  0
  2  3  2  3
  2  7  1  0
  3  8  1  0
M  END
>  <reaction>  (1) 
rmg_rxn_16597

>  <mol_properties>  (1) 
{"1": {"label": "donator", "atom_type": "Cd"}, "6": {"label": "d_hydrogen", "atom_type": "H0"}}

>  <type>  (1) 
r1h

$$$$

     RDKit          3D

  8  7  0  0  0  0  0  0  0  0999 V2000
    0.9383    0.2996   -0.2216 C   0  0  0  0  0  3  0  0  0  0  0  0
   -0.2599   -0.3612    0.3424 C   0  0  0  0  0  0  0  0  0  0  0  0
   -1.4623    0.3337    0.0690 O   0  0  0  0  0  0  0  0  0  0  0  0
    1.8278   -0.2698   -0.4548 H   0  0  0  0  0  0  0  0  0  0  0  0
    0.9841    1.3806   -0.2544 H   0  0  0  0  0  0  0  0  0  0  0  0
   -0.3172   -1.4027   -0.0032 H   0  0  0  0  0  0  0  0  0  0  0  0
   -0.1994   -0.4050    1.4381 H   0  0  0  0  0  0  0  0  0  0  0  0
   -1.5169    0.4672   -0.8790 H   0  0  0  0  0  0  0  0  0  0  0  0
  1  2  1  0
  1  4  1  0
  1  5  1  0
  2  3  1  0
  2  6  1  0
  2  7  1  0
  3  8  1  0
M  RAD  1   1   2
M  END
>  <reaction>  (2) 
rmg_rxn_16597

>  <mol_properties>  (2) 
{"0": {"label": "acceptor", "atom_type": "Cs"}}

>  <type>  (2) 
r2

$$$$

     RDKit          3D

  9  8  0  0  0  0  0  0  0  0999 V2000
   -0.9895    0.3048    0.1041 C   0  0  0  0  0  0  0  0  0  0  0  0
    0.3761   -0.3562    0.0721 C   0  0  0  0  0  0  0  0  0  0  0  0
    0.3441   -1.6564   -0.4834 O   0  0  0  0  0  0  0  0  0  0  0  0
   -1.6997   -0.3114    0.6572 H   0  0  0  0  0  0  0  0  0  0  0  0
   -0.9320    1.2848    0.5822 H   0  0  0  0  0  0  0  0  0  0  0  0
   -1.3774    0.4507   -0.9077 H   0  0  0  0  0  0  0  0  0  0  0  0
    0.7581   -0.4813    1.0862 H   0  0  0  0  0  0  0  0  0  0  0  0
    1.0900    0.2787   -0.4681 H   0  0  0  0  0  0  0  0  0  0  0  0
    0.0089   -1.5959   -1.3792 H   0  0  0  0  0  0  0  0  0  0  0  0
  1  2  1  0
  1  4  1  0
  1  5  1  0
  1  6  1  0
  2  3  1  0
  2  7  1  0
  2  8  1  0
  3  9  1  0
M  END
>  <reaction>  (3) 
rmg_rxn_16597

>  <mol_properties>  (3) 
{"0": {"label": "acceptor", "atom_type": "Cs"}, "8": {"label": "a_hydrogen", "atom_type": "H0"}}

>  <type>  (3) 
r2h

$$$$

     RDKit          3D

 16 14  0  0  0  0  0  0  0  0999 V2000
   -0.9551   -1.3395    0.2173 C   0  0  0  0  0  3  0  0  0  0  0  0
   -1.9266   -0.3833   -0.4106 C   0  0  0  0  0  0  0  0  0  0  0  0
   -1.9408    0.8872    0.2251 O   0  0  0  0  0  0  0  0  0  0  0  0
   -0.7988   -2.2607   -0.3406 H   0  0  0  0  0  0  0  0  0  0  0  0
   -1.1102   -1.5226    1.2808 H   0  0  0  0  0  0  0  0  0  0  0  0
   -1.6473   -0.1869   -1.4475 H   0  0  0  0  0  0  0  0  0  0  0  0
   -2.9416   -0.8063   -0.4272 H   0  0  0  0  0  0  0  0  0  0  0  0
   -2.1727    0.7643    1.1472 H   0  0  0  0  0  0  0  0  0  0  0  0
    2.6304   -0.6352   -0.0168 C   0  0  0  0  0  0  0  0  0  0  0  0
    1.3360    0.1029    0.0224 C   0  0  0  0  0  0  0  0  0  0  0  0
    1.1932    1.3383   -0.0734 N   0  0  0  0  0  0  0  0  0  0  0  0
    3.4646    0.0568   -0.1373 H   0  0  0  0  0  0  0  0  0  0  0  0
    2.7597   -1.2085    0.9038 H   0  0  0  0  0  0  0  0  0  0  0  0
    2.6254   -1.3498   -0.8427 H   0  0  0  0  0  0  0  0  0  0  0  0
    0.2907   -0.6590    0.1546 H   0  0  0  0  0  0  0  0  0  0  0  0
    0.2113    1.6153   -0.0181 H   0  0  0  0  0  0  0  0  0  0  0  0
  1  2  1  0
  1  4  1  0
  1  5  1  0
  2  3  1  0
  2  6  1  0
  2  7  1  0
  3  8  1  0
  9 10  1  0
  9 12  1  0
  9 13  1  0
  9 14  1  0
 10 11  2  3
 10 15  1  0
 11 16  1  0
M  RAD  1   1   2
M  END
>  <reaction>  (4) 
rmg_rxn_16597

>  <mol_properties>  (4) 
{"0": {"label": "*3", "atom_type": "Cs"}, "1": {"label": "*4", "atom_type": "Cs"}, "9": {"label": "*1", "atom_type": "Cd"}, "10": {"label": "*0", "atom_type": "N3d"}, "14": {"label": "*2", "atom_type": "H0"}}

>  <type>  (4) 
ts

$$$$

     RDKit          3D

 16 14  0  0  0  0  0  0  0  0999 V2000
   -0.9019   -1.3428    0.1557 C   0  0  0  0  0  0  0  0  0  0  0  0
   -1.9457   -0.3942   -0.3863 C   0  0  0  0  0  0  0  0  0  0  0  0
   -1.8898    0.8788    0.2334 O   0  0  0  0  0  0  0  0  0  0  0  0
   -0.8101   -2.2398   -0.4449 H   0  0  0  0  0  0  0  0  0  0  0  0
   -1.0661   -1.5907    1.2012 H   0  0  0  0  0  0  0  0  0  0  0  0
   -1.7722   -0.2028   -1.4484 H   0  0  0  0  0  0  0  0  0  0  0  0
   -2.9610   -0.8132   -0.2769 H   0  0  0  0  0  0  0  0  0  0  0  0
   -1.9953    0.7567    1.1837 H   0  0  0  0  0  0  0  0  0  0  0  0
    2.6068   -0.6223    0.0425 C   0  0  0  0  0  0  0  0  0  0  0  0
    1.3183    0.1027   -0.0027 C   0  0  0  0  0  3  0  0  0  0  0  0
    1.1886    1.3298   -0.1261 N   0  0  0  0  0  0  0  0  0  0  0  0
    3.4535    0.0604   -0.0327 H   0  0  0  0  0  0  0  0  0  0  0  0
    2.6726   -1.1827    0.9741 H   0  0  0  0  0  0  0  0  0  0  0  0
    2.6429   -1.3373   -0.7783 H   0  0  0  0  0  0  0  0  0  0  0  0
    0.2303   -0.7029    0.0908 H   0  0  0  0  0  0  0  0  0  0  0  0
    0.2475    1.7136   -0.1481 H   0  0  0  0  0  0  0  0  0  0  0  0
  1  2  1  0
  1  4  1  0
  1  5  1  0
  1 15  1  0
  2  3  1  0
  2  6  1  0
  2  7  1  0
  3  8  1  0
  9 10  1  0
  9 12  1  0
  9 13  1  0
  9 14  1  0
 10 11  2  3
 11 16  1  0
M  RAD  1  10   2
M  END
>  <reaction>  (5) 
rmg_rxn_16597

>  <mol_properties>  (5) 
{"0": {"label": "*3", "atom_type": "Cs"}, "1": {"label": "*4", "atom_type": "Cs"}, "9": {"label": "*1", "atom_type": "Cd"}, "10": {"label": "*0", "atom_type": "N3d"}, "14": {"label": "*2", "atom_type": "H0"}}

>  <type>  (5) 
unop_1

>  <geom_source>  (5) 
crest_best.xyz

$$$$

     RDKit          3D

 16 14  0  0  0  0  0  0  0  0999 V2000
   -0.6144   -1.1103    0.4934 C   0  0  0  0  0  0  0  0  0  0  0  0
    0.6128   -1.2934    1.3670 C   0  0  0  0  0  0  0  0  0  0  0  0
    1.6027   -2.1016    0.7612 O   0  0  0  0  0  0  0  0  0  0  0  0
   -1.3733   -0.5222    1.0136 H   0  0  0  0  0  0  0  0  0  0  0  0
   -1.0438   -2.0777    0.2296 H   0  0  0  0  0  0  0  0  0  0  0  0
    1.0272   -0.3159    1.6452 H   0  0  0  0  0  0  0  0  0  0  0  0
    0.3439   -1.8054    2.2920 H   0  0  0  0  0  0  0  0  0  0  0  0
    1.8684   -1.6902   -0.0626 H   0  0  0  0  0  0  0  0  0  0  0  0
   -0.6144    1.2604   -2.1359 C   0  0  0  0  0  0  0  0  0  0  0  0
   -0.6144    1.2604   -0.6436 C   0  0  0  0  0  3  0  0  0  0  0  0
   -0.6144    2.3330    0.0241 N   0  0  0  0  0  0  0  0  0  0  0  0
    0.2639    0.7304   -2.5133 H   0  0  0  0  0  0  0  0  0  0  0  0
   -1.4927    0.7304   -2.5133 H   0  0  0  0  0  0  0  0  0  0  0  0
   -0.6144    2.2810   -2.5145 H   0  0  0  0  0  0  0  0  0  0  0  0
   -0.6144    0.0727   -0.0740 H   0  0  0  0  0  0  0  0  0  0  0  0
   -0.6144    2.1412    1.0238 H   0  0  0  0  0  0  0  0  0  0  0  0
  1  2  1  0
  1  4  1  0
  1  5  1  0
  1 15  1  0
  2  3  1  0
  2  6  1  0
  2  7  1  0
  3  8  1  0
  9 10  1  0
  9 12  1  0
  9 13  1  0
  9 14  1  0
 10 11  2  3
 11 16  1  0
M  RAD  1  10   2
M  END
>  <reaction>  (6) 
rmg_rxn_16597

>  <mol_properties>  (6) 
{"0": {"label": "*3", "atom_type": "Cs"}, "1": {"label": "*4", "atom_type": "Cs"}, "9": {"label": "*1", "atom_type": "Cd"}, "10": {"label": "*0", "atom_type": "N3d"}, "14": {"label": "*2", "atom_type": "H0"}}

>  <type>  (6) 
unop_2

>  <geom_source>  (6) 
Heuristics

$$$$

     RDKit          3D

 16 14  0  0  0  0  0  0  0  0999 V2000
   -0.0982   -0.8701    1.1876 C   0  0  0  0  0  0  0  0  0  0  0  0
    0.6103   -1.8903    0.3158 C   0  0  0  0  0  0  0  0  0  0  0  0
   -0.2132   -2.3978   -0.7158 O   0  0  0  0  0  0  0  0  0  0  0  0
    0.5528   -0.5384    1.9990 H   0  0  0  0  0  0  0  0  0  0  0  0
   -1.0029   -1.2994    1.6202 H   0  0  0  0  0  0  0  0  0  0  0  0
    1.5298   -1.4582   -0.0994 H   0  0  0  0  0  0  0  0  0  0  0  0
    0.9008   -2.7574    0.9107 H   0  0  0  0  0  0  0  0  0  0  0  0
   -0.4975   -1.6659   -1.2654 H   0  0  0  0  0  0  0  0  0  0  0  0
   -0.0982    1.5006   -1.4417 C   0  0  0  0  0  0  0  0  0  0  0  0
   -0.0982    1.5006    0.0506 C   0  0  0  0  0  3  0  0  0  0  0  0
   -0.0982    2.5732    0.7183 N   0  0  0  0  0  0  0  0  0  0  0  0
    0.7800    0.9706   -1.8191 H   0  0  0  0  0  0  0  0  0  0  0  0
   -0.9765    0.9706   -1.8191 H   0  0  0  0  0  0  0  0  0  0  0  0
   -0.0982    2.5212   -1.8203 H   0  0  0  0  0  0  0  0  0  0  0  0
   -0.0982    0.3129    0.6202 H   0  0  0  0  0  0  0  0  0  0  0  0
   -0.0982    2.3814    1.7179 H   0  0  0  0  0  0  0  0  0  0  0  0
  1  2  1  0
  1  4  1  0
  1  5  1  0
  1 15  1  0
  2  3  1  0
  2  6  1  0
  2  7  1  0
  3  8  1  0
  9 10  1  0
  9 12  1  0
  9 13  1  0
  9 14  1  0
 10 11  2  3
 11 16  1  0
M  RAD  1  10   2
M  END
>  <reaction>  (7) 
rmg_rxn_16597

>  <mol_properties>  (7) 
{"0": {"label": "*3", "atom_type": "Cs"}, "1": {"label": "*4", "atom_type": "Cs"}, "9": {"label": "*1", "atom_type": "Cd"}, "10": {"label": "*0", "atom_type": "N3d"}, "14": {"label": "*2", "atom_type": "H0"}}

>  <type>  (7) 
unop_3

>  <geom_source>  (7) 
Heuristics

$$$$

     RDKit          3D

 16 14  0  0  0  0  0  0  0  0999 V2000
   -0.5028   -1.2811    0.2352 C   0  0  0  0  0  0  0  0  0  0  0  0
    0.2057   -1.2399    1.5765 C   0  0  0  0  0  0  0  0  0  0  0  0
    1.5827   -1.5479    1.4801 O   0  0  0  0  0  0  0  0  0  0  0  0
   -1.5702   -1.0856    0.3572 H   0  0  0  0  0  0  0  0  0  0  0  0
   -0.3790   -2.2586   -0.2328 H   0  0  0  0  0  0  0  0  0  0  0  0
    0.0597   -0.2608    2.0504 H   0  0  0  0  0  0  0  0  0  0  0  0
   -0.2148   -1.9898    2.2480 H   0  0  0  0  0  0  0  0  0  0  0  0
    1.9956   -0.9129    0.8928 H   0  0  0  0  0  0  0  0  0  0  0  0
   -0.5028    1.0896   -2.3941 C   0  0  0  0  0  0  0  0  0  0  0  0
   -0.5028    1.0896   -0.9018 C   0  0  0  0  0  3  0  0  0  0  0  0
   -0.5028    2.1622   -0.2341 N   0  0  0  0  0  0  0  0  0  0  0  0
    0.3755    0.5596   -2.7715 H   0  0  0  0  0  0  0  0  0  0  0  0
   -1.3810    0.5596   -2.7715 H   0  0  0  0  0  0  0  0  0  0  0  0
   -0.5028    2.1102   -2.7727 H   0  0  0  0  0  0  0  0  0  0  0  0
   -0.5028   -0.0981   -0.3322 H   0  0  0  0  0  0  0  0  0  0  0  0
   -0.5028    1.9704    0.7656 H   0  0  0  0  0  0  0  0  0  0  0  0
  1  2  1  0
  1  4  1  0
  1  5  1  0
  1 15  1  0
  2  3  1  0
  2  6  1  0
  2  7  1  0
  3  8  1  0
  9 10  1  0
  9 12  1  0
  9 13  1  0
  9 14  1  0
 10 11  2  3
 11 16  1  0
M  RAD  1  10   2
M  END
>  <reaction>  (8) 
rmg_rxn_16597

>  <mol_properties>  (8) 
{"0": {"label": "*3", "atom_type": "Cs"}, "1": {"label": "*4", "atom_type": "Cs"}, "9": {"label": "*1", "atom_type": "Cd"}, "10": {"label": "*0", "atom_type": "N3d"}, "14": {"label": "*2", "atom_type": "H0"}}

>  <type>  (8) 
unop_4

>  <geom_source>  (8) 
Heuristics

$$$$

     RDKit          3D

 16 14  0  0  0  0  0  0  0  0999 V2000
    0.6414   -1.1939    0.8765 C   0  0  0  0  0  0  0  0  0  0  0  0
   -0.5858   -1.9898    0.4724 C   0  0  0  0  0  0  0  0  0  0  0  0
   -1.7151   -1.1734    0.2309 O   0  0  0  0  0  0  0  0  0  0  0  0
    1.4766   -1.8608    1.1002 H   0  0  0  0  0  0  0  0  0  0  0  0
    0.4315   -0.5900    1.7603 H   0  0  0  0  0  0  0  0  0  0  0  0
   -0.3612   -2.6101   -0.4047 H   0  0  0  0  0  0  0  0  0  0  0  0
   -0.8799   -2.6640    1.2781 H   0  0  0  0  0  0  0  0  0  0  0  0
   -1.5005   -0.5582   -0.4719 H   0  0  0  0  0  0  0  0  0  0  0  0
    0.6414    1.1768   -1.7528 C   0  0  0  0  0  0  0  0  0  0  0  0
    0.6414    1.1768   -0.2605 C   0  0  0  0  0  3  0  0  0  0  0  0
    0.6414    2.2494    0.4072 N   0  0  0  0  0  0  0  0  0  0  0  0
    1.5196    0.6468   -2.1302 H   0  0  0  0  0  0  0  0  0  0  0  0
   -0.2369    0.6468   -2.1302 H   0  0  0  0  0  0  0  0  0  0  0  0
    0.6414    2.1974   -2.1314 H   0  0  0  0  0  0  0  0  0  0  0  0
    0.6414   -0.0109    0.3091 H   0  0  0  0  0  0  0  0  0  0  0  0
    0.6414    2.0576    1.4069 H   0  0  0  0  0  0  0  0  0  0  0  0
  1  2  1  0
  1  4  1  0
  1  5  1  0
  1 15  1  0
  2  3  1  0
  2  6  1  0
  2  7  1  0
  3  8  1  0
  9 10  1  0
  9 12  1  0
  9 13  1  0
  9 14  1  0
 10 11  2  3
 11 16  1  0
M  RAD  1  10   2
M  END
>  <reaction>  (9) 
rmg_rxn_16597

>  <mol_properties>  (9) 
{"0": {"label": "*3", "atom_type": "Cs"}, "1": {"label": "*4", "atom_type": "Cs"}, "9": {"label": "*1", "atom_type": "Cd"}, "10": {"label": "*0", "atom_type": "N3d"}, "14": {"label": "*2", "atom_type": "H0"}}

>  <type>  (9) 
unop_5

>  <geom_source>  (9) 
Heuristics

$$$$

     RDKit          3D

 16 14  0  0  0  0  0  0  0  0999 V2000
   -0.2147   -1.4826    0.0653 C   0  0  0  0  0  0  0  0  0  0  0  0
   -0.2147   -1.3593    1.5778 C   0  0  0  0  0  0  0  0  0  0  0  0
    0.9486   -0.7293    2.0776 O   0  0  0  0  0  0  0  0  0  0  0  0
   -1.1039   -2.0154   -0.2778 H   0  0  0  0  0  0  0  0  0  0  0  0
    0.6689   -2.0248   -0.2741 H   0  0  0  0  0  0  0  0  0  0  0  0
   -1.1163   -0.8309    1.9133 H   0  0  0  0  0  0  0  0  0  0  0  0
   -0.2308   -2.3490    2.0366 H   0  0  0  0  0  0  0  0  0  0  0  0
    1.0069    0.1479    1.6960 H   0  0  0  0  0  0  0  0  0  0  0  0
   -0.2147    0.8881   -2.5640 C   0  0  0  0  0  0  0  0  0  0  0  0
   -0.2147    0.8881   -1.0716 C   0  0  0  0  0  3  0  0  0  0  0  0
   -0.2147    1.9607   -0.4039 N   0  0  0  0  0  0  0  0  0  0  0  0
    0.6636    0.3581   -2.9414 H   0  0  0  0  0  0  0  0  0  0  0  0
   -1.0929    0.3581   -2.9414 H   0  0  0  0  0  0  0  0  0  0  0  0
   -0.2147    1.9087   -2.9425 H   0  0  0  0  0  0  0  0  0  0  0  0
   -0.2147   -0.2996   -0.5020 H   0  0  0  0  0  0  0  0  0  0  0  0
   -0.2147    1.7689    0.5957 H   0  0  0  0  0  0  0  0  0  0  0  0
  1  2  1  0
  1  4  1  0
  1  5  1  0
  1 15  1  0
  2  3  1  0
  2  6  1  0
  2  7  1  0
  3  8  1  0
  9 10  1  0
  9 12  1  0
  9 13  1  0
  9 14  1  0
 10 11  2  3
 11 16  1  0
M  RAD  1  10   2
M  END
>  <reaction>  (10) 
rmg_rxn_16597

>  <mol_properties>  (10) 
{"0": {"label": "*3", "atom_type": "Cs"}, "1": {"label": "*4", "atom_type": "Cs"}, "9": {"label": "*1", "atom_type": "Cd"}, "10": {"label": "*0", "atom_type": "N3d"}, "14": {"label": "*2", "atom_type": "H0"}}

>  <type>  (10) 
unop_6

>  <geom_source>  (10) 
Heuristics

$$$$

     RDKit          3D

 16 14  0  0  0  0  0  0  0  0999 V2000
    0.6726   -1.3461    0.5914 C   0  0  0  0  0  0  0  0  0  0  0  0
   -0.7444   -1.8356    0.8262 C   0  0  0  0  0  0  0  0  0  0  0  0
   -1.6834   -0.7812    0.9082 O   0  0  0  0  0  0  0  0  0  0  0  0
    1.3730   -2.1838    0.5820 H   0  0  0  0  0  0  0  0  0  0  0  0
    0.9719   -0.6507    1.3767 H   0  0  0  0  0  0  0  0  0  0  0  0
   -1.0312   -2.5502    0.0440 H   0  0  0  0  0  0  0  0  0  0  0  0
   -0.8090   -2.3590    1.7812 H   0  0  0  0  0  0  0  0  0  0  0  0
   -1.6589   -0.2881    0.0868 H   0  0  0  0  0  0  0  0  0  0  0  0
    0.6726    1.0246   -2.0379 C   0  0  0  0  0  0  0  0  0  0  0  0
    0.6726    1.0246   -0.5455 C   0  0  0  0  0  3  0  0  0  0  0  0
    0.6726    2.0972    0.1222 N   0  0  0  0  0  0  0  0  0  0  0  0
    1.5509    0.4946   -2.4153 H   0  0  0  0  0  0  0  0  0  0  0  0
   -0.2056    0.4946   -2.4153 H   0  0  0  0  0  0  0  0  0  0  0  0
    0.6726    2.0452   -2.4164 H   0  0  0  0  0  0  0  0  0  0  0  0
    0.6726   -0.1631    0.0241 H   0  0  0  0  0  0  0  0  0  0  0  0
    0.6726    1.9054    1.1218 H   0  0  0  0  0  0  0  0  0  0  0  0
  1  2  1  0
  1  4  1  0
  1  5  1  0
  1 15  1  0
  2  3  1  0
  2  6  1  0
  2  7  1  0
  3  8  1  0
  9 10  1  0
  9 12  1  0
  9 13  1  0
  9 14  1  0
 10 11  2  3
 11 16  1  0
M  RAD  1  10   2
M  END
>  <reaction>  (11) 
rmg_rxn_16597

>  <mol_properties>  (11) 
{"0": {"label": "*3", "atom_type": "Cs"}, "1": {"label": "*4", "atom_type": "Cs"}, "9": {"label": "*1", "atom_type": "Cd"}, "10": {"label": "*0", "atom_type": "N3d"}, "14": {"label": "*2", "atom_type": "H0"}}

>  <type>  (11) 
unop_7

>  <geom_source>  (11) 
Heuristics

$$$$

     RDKit          3D

 16 14  0  0  0  0  0  0  0  0999 V2000
    0.5339   -1.4858    0.3015 C   0  0  0  0  0  0  0  0  0  0  0  0
   -0.6934   -1.6690    1.1752 C   0  0  0  0  0  0  0  0  0  0  0  0
   -1.2468   -0.4420    1.6091 O   0  0  0  0  0  0  0  0  0  0  0  0
    0.9591   -2.4534    0.0269 H   0  0  0  0  0  0  0  0  0  0  0  0
    1.2947   -0.9076    0.8275 H   0  0  0  0  0  0  0  0  0  0  0  0
   -1.4461   -2.2687    0.6474 H   0  0  0  0  0  0  0  0  0  0  0  0
   -0.4305   -2.2091    2.0858 H   0  0  0  0  0  0  0  0  0  0  0  0
   -1.4906    0.0712    0.8373 H   0  0  0  0  0  0  0  0  0  0  0  0
    0.5339    0.8848   -2.3278 C   0  0  0  0  0  0  0  0  0  0  0  0
    0.5339    0.8848   -0.8354 C   0  0  0  0  0  3  0  0  0  0  0  0
    0.5339    1.9575   -0.1678 N   0  0  0  0  0  0  0  0  0  0  0  0
    1.4121    0.3548   -2.7052 H   0  0  0  0  0  0  0  0  0  0  0  0
   -0.3444    0.3548   -2.7052 H   0  0  0  0  0  0  0  0  0  0  0  0
    0.5339    1.9055   -2.7064 H   0  0  0  0  0  0  0  0  0  0  0  0
    0.5339   -0.3028   -0.2659 H   0  0  0  0  0  0  0  0  0  0  0  0
    0.5339    1.7657    0.8319 H   0  0  0  0  0  0  0  0  0  0  0  0
  1  2  1  0
  1  4  1  0
  1  5  1  0
  1 15  1  0
  2  3  1  0
  2  6  1  0
  2  7  1  0
  3  8  1  0
  9 10  1  0
  9 12  1  0
  9 13  1  0
  9 14  1  0
 10 11  2  3
 11 16  1  0
M  RAD  1  10   2
M  END
>  <reaction>  (12) 
rmg_rxn_16597

>  <mol_properties>  (12) 
{"0": {"label": "*3", "atom_type": "Cs"}, "1": {"label": "*4", "atom_type": "Cs"}, "9": {"label": "*1", "atom_type": "Cd"}, "10": {"label": "*0", "atom_type": "N3d"}, "14": {"label": "*2", "atom_type": "H0"}}

>  <type>  (12) 
unop_8

>  <geom_source>  (12) 
Heuristics

$$$$

     RDKit          3D

 16 14  0  0  0  0  0  0  0  0999 V2000
   -0.5755   -0.9737    0.7817 C   0  0  0  0  0  0  0  0  0  0  0  0
    0.8416   -1.4632    1.0165 C   0  0  0  0  0  0  0  0  0  0  0  0
    1.2542   -2.4270    0.0673 O   0  0  0  0  0  0  0  0  0  0  0  0
   -0.8735   -0.2687    1.5605 H   0  0  0  0  0  0  0  0  0  0  0  0
   -1.2745   -1.8110    0.7838 H   0  0  0  0  0  0  0  0  0  0  0  0
    1.5363   -0.6137    1.0335 H   0  0  0  0  0  0  0  0  0  0  0  0
    0.9134   -1.9586    1.9857 H   0  0  0  0  0  0  0  0  0  0  0  0
    1.2033   -2.0347   -0.8057 H   0  0  0  0  0  0  0  0  0  0  0  0
   -0.5755    1.3970   -1.8476 C   0  0  0  0  0  0  0  0  0  0  0  0
   -0.5755    1.3970   -0.3552 C   0  0  0  0  0  3  0  0  0  0  0  0
   -0.5755    2.4696    0.3124 N   0  0  0  0  0  0  0  0  0  0  0  0
    0.3028    0.8670   -2.2250 H   0  0  0  0  0  0  0  0  0  0  0  0
   -1.4537    0.8670   -2.2250 H   0  0  0  0  0  0  0  0  0  0  0  0
   -0.5755    2.4176   -2.2262 H   0  0  0  0  0  0  0  0  0  0  0  0
   -0.5755    0.2094    0.2143 H   0  0  0  0  0  0  0  0  0  0  0  0
   -0.5755    2.2778    1.3121 H   0  0  0  0  0  0  0  0  0  0  0  0
  1  2  1  0
  1  4  1  0
  1  5  1  0
  1 15  1  0
  2  3  1  0
  2  6  1  0
  2  7  1  0
  3  8  1  0
  9 10  1  0
  9 12  1  0
  9 13  1  0
  9 14  1  0
 10 11  2  3
 11 16  1  0
M  RAD  1  10   2
M  END
>  <reaction>  (13) 
rmg_rxn_16597

>  <mol_properties>  (13) 
{"0": {"label": "*3", "atom_type": "Cs"}, "1": {"label": "*4", "atom_type": "Cs"}, "9": {"label": "*1", "atom_type": "Cd"}, "10": {"label": "*0", "atom_type": "N3d"}, "14": {"label": "*2", "atom_type": "H0"}}

>  <type>  (13) 
unop_9

>  <geom_source>  (13) 
Heuristics

$$$$

     RDKit          3D

 16 14  0  0  0  0  0  0  0  0999 V2000
   -0.9019   -1.3428    0.1557 C   0  0  0  0  0  0  0  0  0  0  0  0
   -1.9457   -0.3942   -0.3863 C   0  0  0  0  0  0  0  0  0  0  0  0
   -1.8898    0.8788    0.2334 O   0  0  0  0  0  0  0  0  0  0  0  0
   -0.8101   -2.2398   -0.4449 H   0  0  0  0  0  0  0  0  0  0  0  0
   -1.0661   -1.5907    1.2012 H   0  0  0  0  0  0  0  0  0  0  0  0
   -1.7722   -0.2028   -1.4484 H   0  0  0  0  0  0  0  0  0  0  0  0
   -2.9610   -0.8132   -0.2769 H   0  0  0  0  0  0  0  0  0  0  0  0
   -1.9953    0.7567    1.1837 H   0  0  0  0  0  0  0  0  0  0  0  0
    2.6068   -0.6223    0.0425 C   0  0  0  0  0  0  0  0  0  0  0  0
    1.3183    0.1027   -0.0027 C   0  0  0  0  0  3  0  0  0  0  0  0
    1.1886    1.3298   -0.1261 N   0  0  0  0  0  0  0  0  0  0  0  0
    3.4535    0.0604   -0.0327 H   0  0  0  0  0  0  0  0  0  0  0  0
    2.6726   -1.1827    0.9741 H   0  0  0  0  0  0  0  0  0  0  0  0
    2.6429   -1.3373   -0.7783 H   0  0  0  0  0  0  0  0  0  0  0  0
    0.2303   -0.7029    0.0908 H   0  0  0  0  0  0  0  0  0  0  0  0
    0.2475    1.7136   -0.1481 H   0  0  0  0  0  0  0  0  0  0  0  0
  1  2  1  0
  1  4  1  0
  1  5  1  0
  1 15  1  0
  2  3  1  0
  2  6  1  0
  2  7  1  0
  3  8  1  0
  9 10  1  0
  9 12  1  0
  9 13  1  0
  9 14  1  0
 10 11  2  3
 11 16  1  0
M  RAD  1  10   2
M  END
>  <reaction>  (14) 
rmg_rxn_16597

>  <mol_properties>  (14) 
{"0": {"label": "*3", "atom_type": "Cs"}, "1": {"label": "*4", "atom_type": "Cs"}, "9": {"label": "*1", "atom_type": "Cd"}, "10": {"label": "*0", "atom_type": "N3d"}, "14": {"label": "*2", "atom_type": "H0"}}

>  <type>  (14) 
unop_10

>  <geom_source>  (14) 
Heuristics

$$$$

     RDKit          3D

 16 14  0  0  0  0  0  0  0  0999 V2000
    0.4756   -1.0525    1.0944 C   0  0  0  0  0  0  0  0  0  0  0  0
   -0.2330   -2.0728    0.2226 C   0  0  0  0  0  0  0  0  0  0  0  0
   -1.4542   -1.5918   -0.3040 O   0  0  0  0  0  0  0  0  0  0  0  0
    1.3876   -1.4764    1.5198 H   0  0  0  0  0  0  0  0  0  0  0  0
   -0.1727   -0.7310    1.9106 H   0  0  0  0  0  0  0  0  0  0  0  0
    0.4322   -2.4067   -0.5840 H   0  0  0  0  0  0  0  0  0  0  0  0
   -0.4952   -2.9535    0.8105 H   0  0  0  0  0  0  0  0  0  0  0  0
   -1.2722   -0.8104   -0.8283 H   0  0  0  0  0  0  0  0  0  0  0  0
    0.4756    1.3181   -1.5349 C   0  0  0  0  0  0  0  0  0  0  0  0
    0.4756    1.3181   -0.0426 C   0  0  0  0  0  3  0  0  0  0  0  0
    0.4756    2.3908    0.6251 N   0  0  0  0  0  0  0  0  0  0  0  0
    1.3538    0.7882   -1.9123 H   0  0  0  0  0  0  0  0  0  0  0  0
   -0.4027    0.7882   -1.9123 H   0  0  0  0  0  0  0  0  0  0  0  0
    0.4756    2.3388   -1.9135 H   0  0  0  0  0  0  0  0  0  0  0  0
    0.4756    0.1305    0.5270 H   0  0  0  0  0  0  0  0  0  0  0  0
    0.4756    2.1990    1.6247 H   0  0  0  0  0  0  0  0  0  0  0  0
  1  2  1  0
  1  4  1  0
  1  5  1  0
  1 15  1  0
  2  3  1  0
  2  6  1  0
  2  7  1  0
  3  8  1  0
  9 10  1  0
  9 12  1  0
  9 13  1  0
  9 14  1  0
 10 11  2  3
 11 16  1  0
M  RAD  1  10   2
M  END
>  <reaction>  (15) 
rmg_rxn_16597

>  <mol_properties>  (15) 
{"0": {"label": "*3", "atom_type": "Cs"}, "1": {"label": "*4", "atom_type": "Cs"}, "9": {"label": "*1", "atom_type": "Cd"}, "10": {"label": "*0", "atom_type": "N3d"}, "14": {"label": "*2", "atom_type": "H0"}}

>  <type>  (15) 
unop_11

>  <geom_source>  (15) 
Heuristics

$$$$

     RDKit          3D

 16 14  0  0  0  0  0  0  0  0999 V2000
   -0.3888   -0.8847    1.0345 C   0  0  0  0  0  0  0  0  0  0  0  0
    0.8384   -1.6806    0.6304 C   0  0  0  0  0  0  0  0  0  0  0  0
    0.5991   -2.5398   -0.4672 O   0  0  0  0  0  0  0  0  0  0  0  0
   -0.1779   -0.2708    1.9126 H   0  0  0  0  0  0  0  0  0  0  0  0
   -1.2184   -1.5534    1.2681 H   0  0  0  0  0  0  0  0  0  0  0  0
    1.6744   -1.0024    0.4167 H   0  0  0  0  0  0  0  0  0  0  0  0
    1.1513   -2.3316    1.4479 H   0  0  0  0  0  0  0  0  0  0  0  0
    0.3160   -2.0084   -1.2129 H   0  0  0  0  0  0  0  0  0  0  0  0
   -0.3888    1.4860   -1.5948 C   0  0  0  0  0  0  0  0  0  0  0  0
   -0.3888    1.4860   -0.1025 C   0  0  0  0  0  3  0  0  0  0  0  0
   -0.3888    2.5586    0.5652 N   0  0  0  0  0  0  0  0  0  0  0  0
    0.4894    0.9560   -1.9722 H   0  0  0  0  0  0  0  0  0  0  0  0
   -1.2671    0.9560   -1.9722 H   0  0  0  0  0  0  0  0  0  0  0  0
   -0.3888    2.5066   -1.9734 H   0  0  0  0  0  0  0  0  0  0  0  0
   -0.3888    0.2983    0.4671 H   0  0  0  0  0  0  0  0  0  0  0  0
   -0.3888    2.3668    1.5649 H   0  0  0  0  0  0  0  0  0  0  0  0
  1  2  1  0
  1  4  1  0
  1  5  1  0
  1 15  1  0
  2  3  1  0
  2  6  1  0
  2  7  1  0
  3  8  1  0
  9 10  1  0
  9 12  1  0
  9 13  1  0
  9 14  1  0
 10 11  2  3
 11 16  1  0
M  RAD  1  10   2
M  END
>  <reaction>  (16) 
rmg_rxn_16597

>  <mol_properties>  (16) 
{"0": {"label": "*3", "atom_type": "Cs"}, "1": {"label": "*4", "atom_type": "Cs"}, "9": {"label": "*1", "atom_type": "Cd"}, "10": {"label": "*0", "atom_type": "N3d"}, "14": {"label": "*2", "atom_type": "H0"}}

>  <type>  (16) 
unop_12

>  <geom_source>  (16) 
Heuristics

$$$$

     RDKit          3D

 16 14  0  0  0  0  0  0  0  0999 V2000
    0.2133   -1.5634    0.0909 C   0  0  0  0  0  0  0  0  0  0  0  0
   -0.4952   -1.5223    1.4323 C   0  0  0  0  0  0  0  0  0  0  0  0
   -0.3034   -0.3002    2.1176 O   0  0  0  0  0  0  0  0  0  0  0  0
    0.0815   -2.5375   -0.3847 H   0  0  0  0  0  0  0  0  0  0  0  0
    1.2810   -1.3789    0.2167 H   0  0  0  0  0  0  0  0  0  0  0  0
   -1.5651   -1.7289    1.3003 H   0  0  0  0  0  0  0  0  0  0  0  0
   -0.0964   -2.2933    2.0929 H   0  0  0  0  0  0  0  0  0  0  0  0
   -0.6378    0.4113    1.5694 H   0  0  0  0  0  0  0  0  0  0  0  0
    0.2133    0.8072   -2.5384 C   0  0  0  0  0  0  0  0  0  0  0  0
    0.2133    0.8072   -1.0460 C   0  0  0  0  0  3  0  0  0  0  0  0
    0.2133    1.8799   -0.3783 N   0  0  0  0  0  0  0  0  0  0  0  0
    1.0915    0.2772   -2.9158 H   0  0  0  0  0  0  0  0  0  0  0  0
   -0.6650    0.2772   -2.9158 H   0  0  0  0  0  0  0  0  0  0  0  0
    0.2133    1.8279   -2.9169 H   0  0  0  0  0  0  0  0  0  0  0  0
    0.2133   -0.3804   -0.4764 H   0  0  0  0  0  0  0  0  0  0  0  0
    0.2133    1.6881    0.6213 H   0  0  0  0  0  0  0  0  0  0  0  0
  1  2  1  0
  1  4  1  0
  1  5  1  0
  1 15  1  0
  2  3  1  0
  2  6  1  0
  2  7  1  0
  3  8  1  0
  9 10  1  0
  9 12  1  0
  9 13  1  0
  9 14  1  0
 10 11  2  3
 11 16  1  0
M  RAD  1  10   2
M  END
>  <reaction>  (17) 
rmg_rxn_16597

>  <mol_properties>  (17) 
{"0": {"label": "*3", "atom_type": "Cs"}, "1": {"label": "*4", "atom_type": "Cs"}, "9": {"label": "*1", "atom_type": "Cd"}, "10": {"label": "*0", "atom_type": "N3d"}, "14": {"label": "*2", "atom_type": "H0"}}

>  <type>  (17) 
unop_13

>  <geom_source>  (17) 
Heuristics

$$$$

     RDKit          3D

 16 14  0  0  0  0  0  0  0  0999 V2000
    0.2147   -0.9355    1.2061 C   0  0  0  0  0  0  0  0  0  0  0  0
    0.2147   -2.0378    0.1632 C   0  0  0  0  0  0  0  0  0  0  0  0
   -0.9486   -2.0332   -0.6410 O   0  0  0  0  0  0  0  0  0  0  0  0
    1.1039   -1.0015    1.8364 H   0  0  0  0  0  0  0  0  0  0  0  0
   -0.6689   -1.0102    1.8414 H   0  0  0  0  0  0  0  0  0  0  0  0
    1.1163   -1.9686   -0.4589 H   0  0  0  0  0  0  0  0  0  0  0  0
    0.2308   -3.0150    0.6477 H   0  0  0  0  0  0  0  0  0  0  0  0
   -1.0069   -1.1864   -1.0862 H   0  0  0  0  0  0  0  0  0  0  0  0
    0.2147    1.4352   -1.4232 C   0  0  0  0  0  0  0  0  0  0  0  0
    0.2147    1.4352    0.0692 C   0  0  0  0  0  3  0  0  0  0  0  0
    0.2147    2.5078    0.7368 N   0  0  0  0  0  0  0  0  0  0  0  0
    1.0929    0.9052   -1.8006 H   0  0  0  0  0  0  0  0  0  0  0  0
   -0.6636    0.9052   -1.8006 H   0  0  0  0  0  0  0  0  0  0  0  0
    0.2147    2.4558   -1.8018 H   0  0  0  0  0  0  0  0  0  0  0  0
    0.2147    0.2476    0.6387 H   0  0  0  0  0  0  0  0  0  0  0  0
    0.2147    2.3160    1.7365 H   0  0  0  0  0  0  0  0  0  0  0  0
  1  2  1  0
  1  4  1  0
  1  5  1  0
  1 15  1  0
  2  3  1  0
  2  6  1  0
  2  7  1  0
  3  8  1  0
  9 10  1  0
  9 12  1  0
  9 13  1  0
  9 14  1  0
 10 11  2  3
 11 16  1  0
M  RAD  1  10   2
M  END
>  <reaction>  (18) 
rmg_rxn_16597

>  <mol_properties>  (18) 
{"0": {"label": "*3", "atom_type": "Cs"}, "1": {"label": "*4", "atom_type": "Cs"}, "9": {"label": "*1", "atom_type": "Cd"}, "10": {"label": "*0", "atom_type": "N3d"}, "14": {"label": "*2", "atom_type": "H0"}}

>  <type>  (18) 
unop_14

>  <geom_source>  (18) 
Heuristics

$$$$

     RDKit          3D

 16 14  0  0  0  0  0  0  0  0999 V2000
    2.1947    0.8215   -0.4951 O   0  0  0  0  0  0  0  0  0  0  0  0
   -1.2589    1.7886    0.9689 N   0  0  0  0  0  0  0  0  0  0  0  0
    2.0391   -0.4493    0.0704 C   0  0  0  0  0  0  0  0  0  0  0  0
    0.5850   -0.8771   -0.0359 C   0  0  0  0  0  3  0  0  0  0  0  0
   -2.1545   -0.1026   -0.2577 C   0  0  0  0  0  0  0  0  0  0  0  0
   -1.3957    0.5155    0.8730 C   0  0  0  0  0  0  0  0  0  0  0  0
    2.6782   -1.1849   -0.4669 H   0  0  0  0  0  0  0  0  0  0  0  0
    2.3322   -0.4242    1.1432 H   0  0  0  0  0  0  0  0  0  0  0  0
    0.4541   -1.8810    0.4204 H   0  0  0  0  0  0  0  0  0  0  0  0
    0.2779   -0.9219   -1.1024 H   0  0  0  0  0  0  0  0  0  0  0  0
   -0.2108    0.0225    0.6264 H   0  0  0  0  0  0  0  0  0  0  0  0
   -2.1469   -1.2060   -0.1433 H   0  0  0  0  0  0  0  0  0  0  0  0
   -3.2049    0.2568   -0.2489 H   0  0  0  0  0  0  0  0  0  0  0  0
   -1.6780    0.1662   -1.2238 H   0  0  0  0  0  0  0  0  0  0  0  0
    3.1558    1.0490   -0.3981 H   0  0  0  0  0  0  0  0  0  0  0  0
   -1.6674    2.4268    0.2698 H   0  0  0  0  0  0  0  0  0  0  0  0
  1  3  1  0
  1 15  1  0
  2  6  2  3
  2 16  1  0
  3  4  1  0
  3  7  1  0
  3  8  1  0
  4  9  1  0
  4 10  1  0
  5  6  1  0
  5 12  1  0
  5 13  1  0
  5 14  1  0
  6 11  1  0
M  RAD  1   4   2
M  END
>  <reaction>  (19) 
rmg_rxn_16597

>  <mol_properties>  (19) 
{"0": {"label": "*3", "atom_type": "Cs"}, "1": {"label": "*4", "atom_type": "Cs"}, "9": {"label": "*1", "atom_type": "Cd"}, "10": {"label": "*0", "atom_type": "N3d"}, "14": {"label": "*2", "atom_type": "H0"}}

>  <type>  (19) 
unop_15

>  <geom_source>  (19) 
AutoTST

$$$$

     RDKit          3D

 16 14  0  0  0  0  0  0  0  0999 V2000
   -0.0982   -0.8701    1.1876 C   0  0  0  0  0  0  0  0  0  0  0  0
    0.6103   -1.8903    0.3158 C   0  0  0  0  0  0  0  0  0  0  0  0
   -0.2132   -2.3978   -0.7158 O   0  0  0  0  0  0  0  0  0  0  0  0
    0.5527   -0.5384    1.9990 H   0  0  0  0  0  0  0  0  0  0  0  0
   -1.0029   -1.2994    1.6202 H   0  0  0  0  0  0  0  0  0  0  0  0
    1.5298   -1.4582   -0.0994 H   0  0  0  0  0  0  0  0  0  0  0  0
    0.9008   -2.7574    0.9107 H   0  0  0  0  0  0  0  0  0  0  0  0
   -0.4975   -1.6659   -1.2654 H   0  0  0  0  0  0  0  0  0  0  0  0
   -0.0982    1.5006   -1.4417 C   0  0  0  0  0  0  0  0  0  0  0  0
   -0.0982    1.5006    0.0506 C   0  0  0  0  0  3  0  0  0  0  0  0
   -0.0982    2.5732    0.7183 N   0  0  0  0  0  0  0  0  0  0  0  0
    0.7800    0.9706   -1.8191 H   0  0  0  0  0  0  0  0  0  0  0  0
   -0.9765    0.9706   -1.8191 H   0  0  0  0  0  0  0  0  0  0  0  0
   -0.0982    2.5212   -1.8203 H   0  0  0  0  0  0  0  0  0  0  0  0
   -0.0982    0.3129    0.6202 H   0  0  0  0  0  0  0  0  0  0  0  0
   -0.0982    2.3814    1.7180 H   0  0  0  0  0  0  0  0  0  0  0  0
  1  2  1  0
  1  4  1  0
  1  5  1  0
  1 15  1  0
  2  3  1  0
  2  6  1  0
  2  7  1  0
  3  8  1  0
  9 10  1  0
  9 12  1  0
  9 13  1  0
  9 14  1  0
 10 11  2  3
 11 16  1  0
M  RAD  1  10   2
M  END
>  <reaction>  (20) 
rmg_rxn_16597

>  <mol_properties>  (20) 
{"0": {"label": "*3", "atom_type": "Cs"}, "1": {"label": "*4", "atom_type": "Cs"}, "9": {"label": "*1", "atom_type": "Cd"}, "10": {"label": "*0", "atom_type": "N3d"}, "14": {"label": "*2", "atom_type": "H0"}}

>  <type>  (20) 
unop_16

>  <geom_source>  (20) 
gaussian_log

$$$$
