
     RDKit          3D

  5  4  0  0  0  0  0  0  0  0999 V2000
   -0.4583    0.0384    0.1517 N   0  0  0  0  0  0  0  0  0  0  0  0
    0.7454   -0.3487    0.5322 N   0  0  0  0  0  0  0  0  0  0  0  0
    0.7566   -1.0388    1.5193 O   0  0  0  0  0  0  0  0  0  0  0  0
   -1.2688   -0.2521    0.6850 H   0  0  0  0  0  0  0  0  0  0  0  0
   -0.5137    0.6154   -0.6670 H   0  0  0  0  0  0  0  0  0  0  0  0
  1  2  1  0
  1  4  1  0
  1  5  1  0
  2  3  2  0
M  END
>  <reaction>  (1) 
rmg_rxn_1532

>  <mol_properties>  (1) 
{"0": {"label": "donator", "atom_type": "N3s"}, "3": {"label": "d_hydrogen", "atom_type": "H0"}}

>  <type>  (1) 
r1h

$$$$

     RDKit          3D

 10  9  0  0  0  0  0  0  0  0999 V2000
    1.4352    0.2660   -0.1351 C   0  0  0  0  0  3  0  0  0  0  0  0
    0.2236   -0.3243    0.4850 C   0  0  0  0  0  0  0  0  0  0  0  0
   -0.8893    0.6872    0.7364 C   0  0  0  0  0  0  0  0  0  0  0  0
    2.3577   -0.2958   -0.1940 H   0  0  0  0  0  0  0  0  0  0  0  0
    1.3935    1.2286   -0.6287 H   0  0  0  0  0  0  0  0  0  0  0  0
   -0.1633   -1.1318   -0.1556 H   0  0  0  0  0  0  0  0  0  0  0  0
    0.4945   -0.8215    1.4240 H   0  0  0  0  0  0  0  0  0  0  0  0
   -1.1991    1.1627   -0.1967 H   0  0  0  0  0  0  0  0  0  0  0  0
   -1.7660    0.2103    1.1768 H   0  0  0  0  0  0  0  0  0  0  0  0
   -0.5545    1.4732    1.4159 H   0  0  0  0  0  0  0  0  0  0  0  0
  1  2  1  0
  1  4  1  0
  1  5  1  0
  2  3  1  0
  2  6  1  0
  2  7  1  0
  3  8  1  0
  3  9  1  0
  3 10  1  0
M  RAD  1   1   2
M  END
>  <reaction>  (2) 
rmg_rxn_1532

>  <mol_properties>  (2) 
{"0": {"label": "acceptor", "atom_type": "Cs"}}

>  <type>  (2) 
r2

$$$$

     RDKit          3D

 11 10  0  0  0  0  0  0  0  0999 V2000
   -1.2710    0.1907   -0.2084 C   0  0  0  0  0  0  0  0  0  0  0  0
    0.0202   -0.6130   -0.2928 C   0  0  0  0  0  0  0  0  0  0  0  0
    0.1086   -1.6953    0.7756 C   0  0  0  0  0  0  0  0  0  0  0  0
   -1.3607    0.6851    0.7620 H   0  0  0  0  0  0  0  0  0  0  0  0
   -2.1429   -0.4567   -0.3299 H   0  0  0  0  0  0  0  0  0  0  0  0
   -1.3158    0.9602   -0.9809 H   0  0  0  0  0  0  0  0  0  0  0  0
    0.8757    0.0616   -0.1992 H   0  0  0  0  0  0  0  0  0  0  0  0
    0.0997   -1.0712   -1.2825 H   0  0  0  0  0  0  0  0  0  0  0  0
   -0.7198   -2.4022    0.6850 H   0  0  0  0  0  0  0  0  0  0  0  0
    1.0395   -2.2596    0.6989 H   0  0  0  0  0  0  0  0  0  0  0  0
    0.0624   -1.2603    1.7770 H   0  0  0  0  0  0  0  0  0  0  0  0
  1  2  1  0
  1  4  1  0
  1  5  1  0
  1  6  1  0
  2  3  1  0
  2  7  1  0
  2  8  1  0
  3  9  1  0
  3 10  1  0
  3 11  1  0
M  END
>  <reaction>  (3) 
rmg_rxn_1532

>  <mol_properties>  (3) 
{"0": {"label": "a_hydrogen", "atom_type": "H0"}, "1": {"label": "acceptor", "atom_type": "Cs"}}

>  <type>  (3) 
r2h

$$$$

     RDKit          3D

 15 13  0  0  0  0  0  0  0  0999 V2000
    1.2193    0.8849   -0.4058 N   0  0  0  0  0  0  0  0  0  0  0  0
    1.9903    0.2316    0.3940 N   0  0  0  0  0  0  0  0  0  0  0  0
    1.4970   -0.5029    1.2121 O   0  0  0  0  0  0  0  0  0  0  0  0
    0.0184    1.0124   -0.0464 H   0  0  0  0  0  0  0  0  0  0  0  0
    1.7074    1.6161   -0.9091 H   0  0  0  0  0  0  0  0  0  0  0  0
   -1.2585    1.1510    0.3946 C   0  0  0  0  0  3  0  0  0  0  0  0
   -2.0612    0.1275   -0.3574 C   0  0  0  0  0  0  0  0  0  0  0  0
   -1.6806   -1.3085   -0.0225 C   0  0  0  0  0  0  0  0  0  0  0  0
   -1.4675    2.1918    0.1502 H   0  0  0  0  0  0  0  0  0  0  0  0
   -1.1666    0.9815    1.4655 H   0  0  0  0  0  0  0  0  0  0  0  0
   -3.1226    0.2876   -0.1243 H   0  0  0  0  0  0  0  0  0  0  0  0
   -1.9660    0.3014   -1.4331 H   0  0  0  0  0  0  0  0  0  0  0  0
   -0.6356   -1.5023   -0.2692 H   0  0  0  0  0  0  0  0  0  0  0  0
   -1.8029   -1.5046    1.0443 H   0  0  0  0  0  0  0  0  0  0  0  0
   -2.3017   -2.0167   -0.5724 H   0  0  0  0  0  0  0  0  0  0  0  0
  1  2  1  0
  1  4  1  0
  1  5  1  0
  2  3  2  0
  6  7  1  0
  6  9  1  0
  6 10  1  0
  7  8  1  0
  7 11  1  0
  7 12  1  0
  8 13  1  0
  8 14  1  0
  8 15  1  0
M  RAD  1   6   2
M  END
>  <reaction>  (4) 
rmg_rxn_1532

>  <mol_properties>  (4) 
{"0": {"label": "*1", "atom_type": "N3s"}, "1": {"label": "*0", "atom_type": "N3d"}, "3": {"label": "*2", "atom_type": "H0"}, "5": {"label": "*3", "atom_type": "Cs"}, "6": {"label": "*4", "atom_type": "Cs"}}

>  <type>  (4) 
ts

$$$$

     RDKit          3D

 15 13  0  0  0  0  0  0  0  0999 V2000
    1.2102    1.0430    0.0485 N   0  0  0  0  0  0  0  0  0  0  0  0
    1.9779    0.0510    0.0059 N   0  0  0  0  0  0  0  0  0  0  0  0
    1.6199   -1.1052    0.0310 O   0  0  0  0  0  0  0  0  0  0  0  0
   -0.0147    1.0863   -0.0809 H   0  0  0  0  0  0  0  0  0  0  0  0
    1.6893    1.9352   -0.0205 H   0  0  0  0  0  0  0  0  0  0  0  0
   -1.2974    1.2269   -0.2575 C   0  0  0  0  0  3  0  0  0  0  0  0
   -2.0046    0.0770    0.4115 C   0  0  0  0  0  0  0  0  0  0  0  0
   -1.6611   -1.2692   -0.2128 C   0  0  0  0  0  0  0  0  0  0  0  0
   -1.4417    1.2427   -1.3334 H   0  0  0  0  0  0  0  0  0  0  0  0
   -1.5383    2.1891    0.1836 H   0  0  0  0  0  0  0  0  0  0  0  0
   -1.7588    0.0623    1.4767 H   0  0  0  0  0  0  0  0  0  0  0  0
   -3.0887    0.2342    0.3361 H   0  0  0  0  0  0  0  0  0  0  0  0
   -2.2137   -2.0687    0.2747 H   0  0  0  0  0  0  0  0  0  0  0  0
   -1.9116   -1.2743   -1.2718 H   0  0  0  0  0  0  0  0  0  0  0  0
   -0.5974   -1.4791   -0.1111 H   0  0  0  0  0  0  0  0  0  0  0  0
  1  2  1  0
  1  4  1  0
  1  5  1  0
  2  3  2  0
  6  7  1  0
  6  9  1  0
  6 10  1  0
  7  8  1  0
  7 11  1  0
  7 12  1  0
  8 13  1  0
  8 14  1  0
  8 15  1  0
M  RAD  1   6   2
M  END
>  <reaction>  (5) 
rmg_rxn_1532

>  <mol_properties>  (5) 
{"0": {"label": "*1", "atom_type": "N3s"}, "1": {"label": "*0", "atom_type": "N3d"}, "3": {"label": "*2", "atom_type": "H0"}, "5": {"label": "*3", "atom_type": "Cs"}, "6": {"label": "*4", "atom_type": "Cs"}}

>  <type>  (5) 
unop_1

>  <geom_source>  (5) 
crest_best.xyz

$$$$

     RDKit          3D

 15 13  0  0  0  0  0  0  0  0999 V2000
    0.5069   -0.8385    0.8041 N   0  0  0  0  0  0  0  0  0  0  0  0
    0.5069   -2.0413    0.2594 N   0  0  0  0  0  0  0  0  0  0  0  0
    0.5069   -2.0413   -0.9451 O   0  0  0  0  0  0  0  0  0  0  0  0
    0.5069    0.1441    0.0889 H   0  0  0  0  0  0  0  0  0  0  0  0
    0.5069   -0.7922    1.8062 H   0  0  0  0  0  0  0  0  0  0  0  0
    0.5069    1.2043   -0.6827 C   0  0  0  0  0  3  0  0  0  0  0  0
   -0.7251    2.0632   -0.4281 C   0  0  0  0  0  0  0  0  0  0  0  0
   -1.3666    1.7824    0.9248 C   0  0  0  0  0  0  0  0  0  0  0  0
    0.9519    1.4196   -1.6556 H   0  0  0  0  0  0  0  0  0  0  0  0
    1.2695    1.3791    0.0802 H   0  0  0  0  0  0  0  0  0  0  0  0
   -0.4509    3.1200   -0.4886 H   0  0  0  0  0  0  0  0  0  0  0  0
   -1.4583    1.8921   -1.2211 H   0  0  0  0  0  0  0  0  0  0  0  0
   -0.6631    1.9755    1.7383 H   0  0  0  0  0  0  0  0  0  0  0  0
   -2.2467    2.4066    1.0887 H   0  0  0  0  0  0  0  0  0  0  0  0
   -1.6785    0.7379    1.0000 H   0  0  0  0  0  0  0  0  0  0  0  0
  1  2  1  0
  1  4  1  0
  1  5  1  0
  2  3  2  0
  6  7  1  0
  6  9  1  0
  6 10  1  0
  7  8  1  0
  7 11  1  0
  7 12  1  0
  8 13  1  0
  8 14  1  0
  8 15  1  0
M  RAD  1   6   2
M  END
>  <reaction>  (6) 
rmg_rxn_1532

>  <mol_properties>  (6) 
{"0": {"label": "*1", "atom_type": "N3s"}, "1": {"label": "*0", "atom_type": "N3d"}, "3": {"label": "*2", "atom_type": "H0"}, "5": {"label": "*3", "atom_type": "Cs"}, "6": {"label": "*4", "atom_type": "Cs"}}

>  <type>  (6) 
unop_2

>  <geom_source>  (6) 
Heuristics

$$$$

     RDKit          3D

 15 13  0  0  0  0  0  0  0  0999 V2000
    1.2102    1.0430   -0.0482 N   0  0  0  0  0  0  0  0  0  0  0  0
    1.9779    0.0510   -0.0058 N   0  0  0  0  0  0  0  0  0  0  0  0
    1.6200   -1.1052   -0.0312 O   0  0  0  0  0  0  0  0  0  0  0  0
   -0.0147    1.0863    0.0809 H   0  0  0  0  0  0  0  0  0  0  0  0
    1.6893    1.9352    0.0207 H   0  0  0  0  0  0  0  0  0  0  0  0
   -1.2975    1.2270    0.2572 C   0  0  0  0  0  3  0  0  0  0  0  0
   -2.0046    0.0769   -0.4115 C   0  0  0  0  0  0  0  0  0  0  0  0
   -1.6611   -1.2693    0.2131 C   0  0  0  0  0  0  0  0  0  0  0  0
   -1.5384    2.1892   -0.1842 H   0  0  0  0  0  0  0  0  0  0  0  0
   -1.4421    1.2431    1.3331 H   0  0  0  0  0  0  0  0  0  0  0  0
   -3.0887    0.2340   -0.3362 H   0  0  0  0  0  0  0  0  0  0  0  0
   -1.7587    0.0620   -1.4767 H   0  0  0  0  0  0  0  0  0  0  0  0
   -0.5974   -1.4792    0.1114 H   0  0  0  0  0  0  0  0  0  0  0  0
   -1.9116   -1.2741    1.2720 H   0  0  0  0  0  0  0  0  0  0  0  0
   -2.2137   -2.0689   -0.2743 H   0  0  0  0  0  0  0  0  0  0  0  0
  1  2  1  0
  1  4  1  0
  1  5  1  0
  2  3  2  0
  6  7  1  0
  6  9  1  0
  6 10  1  0
  7  8  1  0
  7 11  1  0
  7 12  1  0
  8 13  1  0
  8 14  1  0
  8 15  1  0
M  RAD  1   6   2
M  END
>  <reaction>  (7) 
rmg_rxn_1532

>  <mol_properties>  (7) 
{"0": {"label": "*1", "atom_type": "N3s"}, "1": {"label": "*0", "atom_type": "N3d"}, "3": {"label": "*2", "atom_type": "H0"}, "5": {"label": "*3", "atom_type": "Cs"}, "6": {"label": "*4", "atom_type": "Cs"}}

>  <type>  (7) 
unop_3

>  <geom_source>  (7) 
Heuristics

$$$$

     RDKit          3D

 15 13  0  0  0  0  0  0  0  0999 V2000
    0.4496   -0.3735    1.5187 N   0  0  0  0  0  0  0  0  0  0  0  0
    0.4496   -1.5764    0.9740 N   0  0  0  0  0  0  0  0  0  0  0  0
    0.4496   -1.5764   -0.2306 O   0  0  0  0  0  0  0  0  0  0  0  0
    0.4496    0.6091    0.8035 H   0  0  0  0  0  0  0  0  0  0  0  0
    0.4496   -0.3272    2.5208 H   0  0  0  0  0  0  0  0  0  0  0  0
    0.4496    1.6693    0.0318 C   0  0  0  0  0  3  0  0  0  0  0  0
   -0.2617    1.3845   -1.2848 C   0  0  0  0  0  0  0  0  0  0  0  0
   -1.5330    0.5660   -1.0997 C   0  0  0  0  0  0  0  0  0  0  0  0
    1.3570    2.2560   -0.1211 H   0  0  0  0  0  0  0  0  0  0  0  0
   -0.1981    2.2261    0.7133 H   0  0  0  0  0  0  0  0  0  0  0  0
   -0.5057    2.3293   -1.7784 H   0  0  0  0  0  0  0  0  0  0  0  0
    0.4175    0.8547   -1.9583 H   0  0  0  0  0  0  0  0  0  0  0  0
   -2.2432    1.0881   -0.4539 H   0  0  0  0  0  0  0  0  0  0  0  0
   -2.0279    0.3725   -2.0529 H   0  0  0  0  0  0  0  0  0  0  0  0
   -1.3127   -0.3982   -0.6352 H   0  0  0  0  0  0  0  0  0  0  0  0
  1  2  1  0
  1  4  1  0
  1  5  1  0
  2  3  2  0
  6  7  1  0
  6  9  1  0
  6 10  1  0
  7  8  1  0
  7 11  1  0
  7 12  1  0
  8 13  1  0
  8 14  1  0
  8 15  1  0
M  RAD  1   6   2
M  END
>  <reaction>  (8) 
rmg_rxn_1532

>  <mol_properties>  (8) 
{"0": {"label": "*1", "atom_type": "N3s"}, "1": {"label": "*0", "atom_type": "N3d"}, "3": {"label": "*2", "atom_type": "H0"}, "5": {"label": "*3", "atom_type": "Cs"}, "6": {"label": "*4", "atom_type": "Cs"}}

>  <type>  (8) 
unop_4

>  <geom_source>  (8) 
Heuristics

$$$$

     RDKit          3D

 15 13  0  0  0  0  0  0  0  0999 V2000
    1.2102   -1.0430   -0.0476 N   0  0  0  0  0  0  0  0  0  0  0  0
    1.9778   -0.0510   -0.0054 N   0  0  0  0  0  0  0  0  0  0  0  0
    1.6199    1.1051   -0.0322 O   0  0  0  0  0  0  0  0  0  0  0  0
   -0.0148   -1.0864    0.0807 H   0  0  0  0  0  0  0  0  0  0  0  0
    1.6894   -1.9352    0.0227 H   0  0  0  0  0  0  0  0  0  0  0  0
   -1.2976   -1.2272    0.2563 C   0  0  0  0  0  3  0  0  0  0  0  0
   -2.0045   -0.0765   -0.4117 C   0  0  0  0  0  0  0  0  0  0  0  0
   -1.6609    1.2691    0.2140 C   0  0  0  0  0  0  0  0  0  0  0  0
   -1.4426   -1.2443    1.3321 H   0  0  0  0  0  0  0  0  0  0  0  0
   -1.5384   -2.1889   -0.1860 H   0  0  0  0  0  0  0  0  0  0  0  0
   -1.7585   -0.0609   -1.4768 H   0  0  0  0  0  0  0  0  0  0  0  0
   -3.0886   -0.2335   -0.3365 H   0  0  0  0  0  0  0  0  0  0  0  0
   -1.9110    1.2731    1.2730 H   0  0  0  0  0  0  0  0  0  0  0  0
   -0.5973    1.4791    0.1122 H   0  0  0  0  0  0  0  0  0  0  0  0
   -2.2136    2.0692   -0.2726 H   0  0  0  0  0  0  0  0  0  0  0  0
  1  2  1  0
  1  4  1  0
  1  5  1  0
  2  3  2  0
  6  7  1  0
  6  9  1  0
  6 10  1  0
  7  8  1  0
  7 11  1  0
  7 12  1  0
  8 13  1  0
  8 14  1  0
  8 15  1  0
M  RAD  1   6   2
M  END
>  <reaction>  (9) 
rmg_rxn_1532

>  <mol_properties>  (9) 
{"0": {"label": "*1", "atom_type": "N3s"}, "1": {"label": "*0", "atom_type": "N3d"}, "3": {"label": "*2", "atom_type": "H0"}, "5": {"label": "*3", "atom_type": "Cs"}, "6": {"label": "*4", "atom_type": "Cs"}}

>  <type>  (9) 
unop_5

>  <geom_source>  (9) 
Heuristics

$$$$

     RDKit          3D

 15 13  0  0  0  0  0  0  0  0999 V2000
    0.2037   -0.9800    0.6429 N   0  0  0  0  0  0  0  0  0  0  0  0
    0.2037   -2.1828    0.0982 N   0  0  0  0  0  0  0  0  0  0  0  0
    0.2037   -2.1828   -1.1063 O   0  0  0  0  0  0  0  0  0  0  0  0
    0.2037    0.0027   -0.0723 H   0  0  0  0  0  0  0  0  0  0  0  0
    0.2037   -0.9336    1.6450 H   0  0  0  0  0  0  0  0  0  0  0  0
    0.2037    1.0628   -0.8439 C   0  0  0  0  0  3  0  0  0  0  0  0
   -0.5076    2.2282   -0.1683 C   0  0  0  0  0  0  0  0  0  0  0  0
   -0.3682    2.2009    1.3484 C   0  0  0  0  0  0  0  0  0  0  0  0
    0.0926    1.0997   -1.9290 H   0  0  0  0  0  0  0  0  0  0  0  0
    1.2725    1.0727   -0.6165 H   0  0  0  0  0  0  0  0  0  0  0  0
   -0.1089    3.1708   -0.5535 H   0  0  0  0  0  0  0  0  0  0  0  0
   -1.5676    2.2127   -0.4367 H   0  0  0  0  0  0  0  0  0  0  0  0
    0.6825    2.2466    1.6450 H   0  0  0  0  0  0  0  0  0  0  0  0
   -0.8838    3.0426    1.8139 H   0  0  0  0  0  0  0  0  0  0  0  0
   -0.7877    1.2809    1.7627 H   0  0  0  0  0  0  0  0  0  0  0  0
  1  2  1  0
  1  4  1  0
  1  5  1  0
  2  3  2  0
  6  7  1  0
  6  9  1  0
  6 10  1  0
  7  8  1  0
  7 11  1  0
  7 12  1  0
  8 13  1  0
  8 14  1  0
  8 15  1  0
M  RAD  1   6   2
M  END
>  <reaction>  (10) 
rmg_rxn_1532

>  <mol_properties>  (10) 
{"0": {"label": "*1", "atom_type": "N3s"}, "1": {"label": "*0", "atom_type": "N3d"}, "3": {"label": "*2", "atom_type": "H0"}, "5": {"label": "*3", "atom_type": "Cs"}, "6": {"label": "*4", "atom_type": "Cs"}}

>  <type>  (10) 
unop_6

>  <geom_source>  (10) 
Heuristics

$$$$

     RDKit          3D

 15 13  0  0  0  0  0  0  0  0999 V2000
   -0.3647   -0.4982    1.6361 N   0  0  0  0  0  0  0  0  0  0  0  0
   -0.3647   -1.7010    1.0914 N   0  0  0  0  0  0  0  0  0  0  0  0
   -0.3647   -1.7010   -0.1131 O   0  0  0  0  0  0  0  0  0  0  0  0
   -0.3647    0.4844    0.9209 H   0  0  0  0  0  0  0  0  0  0  0  0
   -0.3647   -0.4519    2.6382 H   0  0  0  0  0  0  0  0  0  0  0  0
   -0.3647    1.5446    0.1493 C   0  0  0  0  0  3  0  0  0  0  0  0
    0.8673    1.5663   -0.7463 C   0  0  0  0  0  0  0  0  0  0  0  0
    0.6284    0.8883   -2.0894 C   0  0  0  0  0  0  0  0  0  0  0  0
   -0.1741    2.0343    1.1057 H   0  0  0  0  0  0  0  0  0  0  0  0
   -1.2036    2.0571   -0.3279 H   0  0  0  0  0  0  0  0  0  0  0  0
    1.1792    2.6013   -0.9114 H   0  0  0  0  0  0  0  0  0  0  0  0
    1.6989    1.0750   -0.2334 H   0  0  0  0  0  0  0  0  0  0  0  0
   -0.1792    1.3802   -2.6371 H   0  0  0  0  0  0  0  0  0  0  0  0
    1.5214    0.9140   -2.7162 H   0  0  0  0  0  0  0  0  0  0  0  0
    0.3447   -0.1581   -1.9538 H   0  0  0  0  0  0  0  0  0  0  0  0
  1  2  1  0
  1  4  1  0
  1  5  1  0
  2  3  2  0
  6  7  1  0
  6  9  1  0
  6 10  1  0
  7  8  1  0
  7 11  1  0
  7 12  1  0
  8 13  1  0
  8 14  1  0
  8 15  1  0
M  RAD  1   6   2
M  END
>  <reaction>  (11) 
rmg_rxn_1532

>  <mol_properties>  (11) 
{"0": {"label": "*1", "atom_type": "N3s"}, "1": {"label": "*0", "atom_type": "N3d"}, "3": {"label": "*2", "atom_type": "H0"}, "5": {"label": "*3", "atom_type": "Cs"}, "6": {"label": "*4", "atom_type": "Cs"}}

>  <type>  (11) 
unop_7

>  <geom_source>  (11) 
Heuristics

$$$$

     RDKit          3D

 15 13  0  0  0  0  0  0  0  0999 V2000
    1.2102    1.0430    0.0484 N   0  0  0  0  0  0  0  0  0  0  0  0
    1.9779    0.0510    0.0056 N   0  0  0  0  0  0  0  0  0  0  0  0
    1.6200   -1.1052    0.0314 O   0  0  0  0  0  0  0  0  0  0  0  0
   -0.0148    1.0863   -0.0806 H   0  0  0  0  0  0  0  0  0  0  0  0
    1.6893    1.9353   -0.0212 H   0  0  0  0  0  0  0  0  0  0  0  0
   -1.2975    1.2270   -0.2572 C   0  0  0  0  0  3  0  0  0  0  0  0
   -2.0047    0.0768    0.4114 C   0  0  0  0  0  0  0  0  0  0  0  0
   -1.6610   -1.2693   -0.2131 C   0  0  0  0  0  0  0  0  0  0  0  0
   -1.4418    1.2432   -1.3331 H   0  0  0  0  0  0  0  0  0  0  0  0
   -1.5384    2.1891    0.1843 H   0  0  0  0  0  0  0  0  0  0  0  0
   -1.7592    0.0619    1.4767 H   0  0  0  0  0  0  0  0  0  0  0  0
   -3.0887    0.2339    0.3358 H   0  0  0  0  0  0  0  0  0  0  0  0
   -0.5973   -1.4792   -0.1110 H   0  0  0  0  0  0  0  0  0  0  0  0
   -2.2137   -2.0690    0.2740 H   0  0  0  0  0  0  0  0  0  0  0  0
   -1.9110   -1.2741   -1.2722 H   0  0  0  0  0  0  0  0  0  0  0  0
  1  2  1  0
  1  4  1  0
  1  5  1  0
  2  3  2  0
  6  7  1  0
  6  9  1  0
  6 10  1  0
  7  8  1  0
  7 11  1  0
  7 12  1  0
  8 13  1  0
  8 14  1  0
  8 15  1  0
M  RAD  1   6   2
M  END
>  <reaction>  (12) 
rmg_rxn_1532

>  <mol_properties>  (12) 
{"0": {"label": "*1", "atom_type": "N3s"}, "1": {"label": "*0", "atom_type": "N3d"}, "3": {"label": "*2", "atom_type": "H0"}, "5": {"label": "*3", "atom_type": "Cs"}, "6": {"label": "*4", "atom_type": "Cs"}}

>  <type>  (12) 
unop_8

>  <geom_source>  (12) 
Heuristics

$$$$

     RDKit          3D

 15 13  0  0  0  0  0  0  0  0999 V2000
   -0.2050   -1.0382    0.6979 N   0  0  0  0  0  0  0  0  0  0  0  0
   -0.2050   -2.2410    0.1531 N   0  0  0  0  0  0  0  0  0  0  0  0
   -0.2050   -2.2410   -1.0514 O   0  0  0  0  0  0  0  0  0  0  0  0
   -0.2050   -0.0556   -0.0174 H   0  0  0  0  0  0  0  0  0  0  0  0
   -0.2050   -0.9919    1.6999 H   0  0  0  0  0  0  0  0  0  0  0  0
   -0.2050    1.0046   -0.7890 C   0  0  0  0  0  3  0  0  0  0  0  0
   -0.2050    2.2821    0.0408 C   0  0  0  0  0  0  0  0  0  0  0  0
    1.0093    2.3882    0.9545 C   0  0  0  0  0  0  0  0  0  0  0  0
   -1.0816    0.9467   -1.4364 H   0  0  0  0  0  0  0  0  0  0  0  0
    0.6834    0.9505   -1.4229 H   0  0  0  0  0  0  0  0  0  0  0  0
   -0.2362    3.1488   -0.6253 H   0  0  0  0  0  0  0  0  0  0  0  0
   -1.1176    2.3259    0.6416 H   0  0  0  0  0  0  0  0  0  0  0  0
    1.9359    2.3778    0.3755 H   0  0  0  0  0  0  0  0  0  0  0  0
    0.9914    3.3089    1.5401 H   0  0  0  0  0  0  0  0  0  0  0  0
    1.0475    1.5484    1.6525 H   0  0  0  0  0  0  0  0  0  0  0  0
  1  2  1  0
  1  4  1  0
  1  5  1  0
  2  3  2  0
  6  7  1  0
  6  9  1  0
  6 10  1  0
  7  8  1  0
  7 11  1  0
  7 12  1  0
  8 13  1  0
  8 14  1  0
  8 15  1  0
M  RAD  1   6   2
M  END
>  <reaction>  (13) 
rmg_rxn_1532

>  <mol_properties>  (13) 
{"0": {"label": "*1", "atom_type": "N3s"}, "1": {"label": "*0", "atom_type": "N3d"}, "3": {"label": "*2", "atom_type": "H0"}, "5": {"label": "*3", "atom_type": "Cs"}, "6": {"label": "*4", "atom_type": "Cs"}}

>  <type>  (13) 
unop_9

>  <geom_source>  (13) 
Heuristics

$$$$

     RDKit          3D

 15 13  0  0  0  0  0  0  0  0999 V2000
    1.2102    1.0430   -0.0484 N   0  0  0  0  0  0  0  0  0  0  0  0
    1.9779    0.0510   -0.0056 N   0  0  0  0  0  0  0  0  0  0  0  0
    1.6200   -1.1051   -0.0314 O   0  0  0  0  0  0  0  0  0  0  0  0
   -0.0147    1.0863    0.0807 H   0  0  0  0  0  0  0  0  0  0  0  0
    1.6893    1.9352    0.0211 H   0  0  0  0  0  0  0  0  0  0  0  0
   -1.2975    1.2269    0.2572 C   0  0  0  0  0  3  0  0  0  0  0  0
   -2.0047    0.0769   -0.4115 C   0  0  0  0  0  0  0  0  0  0  0  0
   -1.6610   -1.2692    0.2131 C   0  0  0  0  0  0  0  0  0  0  0  0
   -1.5384    2.1891   -0.1841 H   0  0  0  0  0  0  0  0  0  0  0  0
   -1.4419    1.2431    1.3331 H   0  0  0  0  0  0  0  0  0  0  0  0
   -3.0888    0.2339   -0.3359 H   0  0  0  0  0  0  0  0  0  0  0  0
   -1.7590    0.0620   -1.4767 H   0  0  0  0  0  0  0  0  0  0  0  0
   -2.2137   -2.0688   -0.2742 H   0  0  0  0  0  0  0  0  0  0  0  0
   -0.5973   -1.4791    0.1112 H   0  0  0  0  0  0  0  0  0  0  0  0
   -1.9112   -1.2741    1.2721 H   0  0  0  0  0  0  0  0  0  0  0  0
  1  2  1  0
  1  4  1  0
  1  5  1  0
  2  3  2  0
  6  7  1  0
  6  9  1  0
  6 10  1  0
  7  8  1  0
  7 11  1  0
  7 12  1  0
  8 13  1  0
  8 14  1  0
  8 15  1  0
M  RAD  1   6   2
M  END
>  <reaction>  (14) 
rmg_rxn_1532

>  <mol_properties>  (14) 
{"0": {"label": "*1", "atom_type": "N3s"}, "1": {"label": "*0", "atom_type": "N3d"}, "3": {"label": "*2", "atom_type": "H0"}, "5": {"label": "*3", "atom_type": "Cs"}, "6": {"label": "*4", "atom_type": "Cs"}}

>  <type>  (14) 
unop_10

>  <geom_source>  (14) 
Heuristics

$$$$

     RDKit          3D

 15 13  0  0  0  0  0  0  0  0999 V2000
   -0.5438   -0.6684    1.4503 N   0  0  0  0  0  0  0  0  0  0  0  0
   -0.5438   -1.8712    0.9056 N   0  0  0  0  0  0  0  0  0  0  0  0
   -0.5438   -1.8712   -0.2990 O   0  0  0  0  0  0  0  0  0  0  0  0
   -0.5438    0.3142    0.7351 H   0  0  0  0  0  0  0  0  0  0  0  0
   -0.5438   -0.6221    2.4524 H   0  0  0  0  0  0  0  0  0  0  0  0
   -0.5438    1.3744   -0.0366 C   0  0  0  0  0  3  0  0  0  0  0  0
    0.8789    1.8147   -0.3570 C   0  0  0  0  0  0  0  0  0  0  0  0
    1.3484    1.3327   -1.7237 C   0  0  0  0  0  0  0  0  0  0  0  0
   -0.8619    1.7288    0.9454 H   0  0  0  0  0  0  0  0  0  0  0  0
   -1.2486    1.7614   -0.7765 H   0  0  0  0  0  0  0  0  0  0  0  0
    0.9405    2.9056   -0.3149 H   0  0  0  0  0  0  0  0  0  0  0  0
    1.5581    1.4406    0.4140 H   0  0  0  0  0  0  0  0  0  0  0  0
    0.7033    1.7184   -2.5168 H   0  0  0  0  0  0  0  0  0  0  0  0
    2.3686    1.6576   -1.9349 H   0  0  0  0  0  0  0  0  0  0  0  0
    1.3258    0.2417   -1.7821 H   0  0  0  0  0  0  0  0  0  0  0  0
  1  2  1  0
  1  4  1  0
  1  5  1  0
  2  3  2  0
  6  7  1  0
  6  9  1  0
  6 10  1  0
  7  8  1  0
  7 11  1  0
  7 12  1  0
  8 13  1  0
  8 14  1  0
  8 15  1  0
M  RAD  1   6   2
M  END
>  <reaction>  (15) 
rmg_rxn_1532

>  <mol_properties>  (15) 
{"0": {"label": "*1", "atom_type": "N3s"}, "1": {"label": "*0", "atom_type": "N3d"}, "3": {"label": "*2", "atom_type": "H0"}, "5": {"label": "*3", "atom_type": "Cs"}, "6": {"label": "*4", "atom_type": "Cs"}}

>  <type>  (15) 
unop_11

>  <geom_source>  (15) 
Heuristics

$$$$

     RDKit          3D

 15 13  0  0  0  0  0  0  0  0999 V2000
    1.2102    1.0430   -0.0483 N   0  0  0  0  0  0  0  0  0  0  0  0
    1.9778    0.0510   -0.0055 N   0  0  0  0  0  0  0  0  0  0  0  0
    1.6199   -1.1052   -0.0316 O   0  0  0  0  0  0  0  0  0  0  0  0
   -0.0147    1.0863    0.0806 H   0  0  0  0  0  0  0  0  0  0  0  0
    1.6894    1.9352    0.0216 H   0  0  0  0  0  0  0  0  0  0  0  0
   -1.2975    1.2270    0.2570 C   0  0  0  0  0  3  0  0  0  0  0  0
   -2.0047    0.0768   -0.4115 C   0  0  0  0  0  0  0  0  0  0  0  0
   -1.6610   -1.2692    0.2132 C   0  0  0  0  0  0  0  0  0  0  0  0
   -1.5383    2.1891   -0.1845 H   0  0  0  0  0  0  0  0  0  0  0  0
   -1.4419    1.2434    1.3329 H   0  0  0  0  0  0  0  0  0  0  0  0
   -3.0887    0.2339   -0.3359 H   0  0  0  0  0  0  0  0  0  0  0  0
   -1.7590    0.0618   -1.4767 H   0  0  0  0  0  0  0  0  0  0  0  0
   -1.9111   -1.2739    1.2723 H   0  0  0  0  0  0  0  0  0  0  0  0
   -2.2137   -2.0689   -0.2738 H   0  0  0  0  0  0  0  0  0  0  0  0
   -0.5973   -1.4792    0.1113 H   0  0  0  0  0  0  0  0  0  0  0  0
  1  2  1  0
  1  4  1  0
  1  5  1  0
  2  3  2  0
  6  7  1  0
  6  9  1  0
  6 10  1  0
  7  8  1  0
  7 11  1  0
  7 12  1  0
  8 13  1  0
  8 14  1  0
  8 15  1  0
M  RAD  1   6   2
M  END
>  <reaction>  (16) 
rmg_rxn_1532

>  <mol_properties>  (16) 
{"0": {"label": "*1", "atom_type": "N3s"}, "1": {"label": "*0", "atom_type": "N3d"}, "3": {"label": "*2", "atom_type": "H0"}, "5": {"label": "*3", "atom_type": "Cs"}, "6": {"label": "*4", "atom_type": "Cs"}}

>  <type>  (16) 
unop_12

>  <geom_source>  (16) 
Heuristics

$$$$

     RDKit          3D

 15 13  0  0  0  0  0  0  0  0999 V2000
   -0.5839   -0.8475    1.2067 N   0  0  0  0  0  0  0  0  0  0  0  0
   -0.5839   -2.0503    0.6620 N   0  0  0  0  0  0  0  0  0  0  0  0
   -0.5839   -2.0503   -0.5425 O   0  0  0  0  0  0  0  0  0  0  0  0
   -0.5839    0.1351    0.4915 H   0  0  0  0  0  0  0  0  0  0  0  0
   -0.5839   -0.8012    2.2088 H   0  0  0  0  0  0  0  0  0  0  0  0
   -0.5839    1.1953   -0.2801 C   0  0  0  0  0  3  0  0  0  0  0  0
    0.6482    2.0542   -0.0255 C   0  0  0  0  0  0  0  0  0  0  0  0
    1.7454    1.8268   -1.0574 C   0  0  0  0  0  0  0  0  0  0  0  0
   -1.3579    1.3721    0.4686 H   0  0  0  0  0  0  0  0  0  0  0  0
   -1.0130    1.4091   -1.2620 H   0  0  0  0  0  0  0  0  0  0  0  0
    0.3623    3.1097   -0.0248 H   0  0  0  0  0  0  0  0  0  0  0  0
    1.0389    1.8431    0.9738 H   0  0  0  0  0  0  0  0  0  0  0  0
    1.3897    2.0605   -2.0638 H   0  0  0  0  0  0  0  0  0  0  0  0
    2.6188    2.4502   -0.8584 H   0  0  0  0  0  0  0  0  0  0  0  0
    2.0717    0.7839   -1.0574 H   0  0  0  0  0  0  0  0  0  0  0  0
  1  2  1  0
  1  4  1  0
  1  5  1  0
  2  3  2  0
  6  7  1  0
  6  9  1  0
  6 10  1  0
  7  8  1  0
  7 11  1  0
  7 12  1  0
  8 13  1  0
  8 14  1  0
  8 15  1  0
M  RAD  1   6   2
M  END
>  <reaction>  (17) 
rmg_rxn_1532

>  <mol_properties>  (17) 
{"0": {"label": "*1", "atom_type": "N3s"}, "1": {"label": "*0", "atom_type": "N3d"}, "3": {"label": "*2", "atom_type": "H0"}, "5": {"label": "*3", "atom_type": "Cs"}, "6": {"label": "*4", "atom_type": "Cs"}}

>  <type>  (17) 
unop_13

>  <geom_source>  (17) 
Heuristics

$$$$

     RDKit          3D

 15 13  0  0  0  0  0  0  0  0999 V2000
    0.6365   -0.6595    1.0511 N   0  0  0  0  0  0  0  0  0  0  0  0
    0.6365   -1.8623    0.5063 N   0  0  0  0  0  0  0  0  0  0  0  0
    0.6365   -1.8623   -0.6982 O   0  0  0  0  0  0  0  0  0  0  0  0
    0.6365    0.3231    0.3359 H   0  0  0  0  0  0  0  0  0  0  0  0
    0.6365   -0.6132    2.0532 H   0  0  0  0  0  0  0  0  0  0  0  0
    0.6365    1.3833   -0.4358 C   0  0  0  0  0  3  0  0  0  0  0  0
   -0.7862    1.8236   -0.7563 C   0  0  0  0  0  0  0  0  0  0  0  0
   -1.8048    1.2887    0.2421 C   0  0  0  0  0  0  0  0  0  0  0  0
    1.3510    1.7759   -1.1613 H   0  0  0  0  0  0  0  0  0  0  0  0
    0.9395    1.7317    0.5546 H   0  0  0  0  0  0  0  0  0  0  0  0
   -0.8337    2.9159   -0.7749 H   0  0  0  0  0  0  0  0  0  0  0  0
   -1.0527    1.4892   -1.7627 H   0  0  0  0  0  0  0  0  0  0  0  0
   -1.5788    1.6341    1.2539 H   0  0  0  0  0  0  0  0  0  0  0  0
   -2.8169    1.6144   -0.0039 H   0  0  0  0  0  0  0  0  0  0  0  0
   -1.7995    0.1961    0.2582 H   0  0  0  0  0  0  0  0  0  0  0  0
  1  2  1  0
  1  4  1  0
  1  5  1  0
  2  3  2  0
  6  7  1  0
  6  9  1  0
  6 10  1  0
  7  8  1  0
  7 11  1  0
  7 12  1  0
  8 13  1  0
  8 14  1  0
  8 15  1  0
M  RAD  1   6   2
M  END
>  <reaction>  (18) 
rmg_rxn_1532

>  <mol_properties>  (18) 
{"0": {"label": "*1", "atom_type": "N3s"}, "1": {"label": "*0", "atom_type": "N3d"}, "3": {"label": "*2", "atom_type": "H0"}, "5": {"label": "*3", "atom_type": "Cs"}, "6": {"label": "*4", "atom_type": "Cs"}}

>  <type>  (18) 
unop_14

>  <geom_source>  (18) 
Heuristics

$$$$

     RDKit          3D

 15 13  0  0  0  0  0  0  0  0999 V2000
    1.2102    1.0430    0.0485 N   0  0  0  0  0  0  0  0  0  0  0  0
    1.9779    0.0510    0.0059 N   0  0  0  0  0  0  0  0  0  0  0  0
    1.6199   -1.1052    0.0310 O   0  0  0  0  0  0  0  0  0  0  0  0
   -0.0147    1.0863   -0.0809 H   0  0  0  0  0  0  0  0  0  0  0  0
    1.6893    1.9352   -0.0205 H   0  0  0  0  0  0  0  0  0  0  0  0
   -1.2974    1.2269   -0.2575 C   0  0  0  0  0  3  0  0  0  0  0  0
   -2.0046    0.0770    0.4115 C   0  0  0  0  0  0  0  0  0  0  0  0
   -1.6611   -1.2692   -0.2128 C   0  0  0  0  0  0  0  0  0  0  0  0
   -1.4417    1.2427   -1.3334 H   0  0  0  0  0  0  0  0  0  0  0  0
   -1.5383    2.1891    0.1836 H   0  0  0  0  0  0  0  0  0  0  0  0
   -1.7588    0.0623    1.4767 H   0  0  0  0  0  0  0  0  0  0  0  0
   -3.0887    0.2342    0.3361 H   0  0  0  0  0  0  0  0  0  0  0  0
   -2.2137   -2.0687    0.2747 H   0  0  0  0  0  0  0  0  0  0  0  0
   -1.9116   -1.2743   -1.2718 H   0  0  0  0  0  0  0  0  0  0  0  0
   -0.5974   -1.4791   -0.1111 H   0  0  0  0  0  0  0  0  0  0  0  0
  1  2  1  0
  1  4  1  0
  1  5  1  0
  2  3  2  0
  6  7  1  0
  6  9  1  0
  6 10  1  0
  7  8  1  0
  7 11  1  0
  7 12  1  0
  8 13  1  0
  8 14  1  0
  8 15  1  0
M  RAD  1   6   2
M  END
>  <reaction>  (19) 
rmg_rxn_1532

>  <mol_properties>  (19) 
{"0": {"label": "*1", "atom_type": "N3s"}, "1": {"label": "*0", "atom_type": "N3d"}, "3": {"label": "*2", "atom_type": "H0"}, "5": {"label": "*3", "atom_type": "Cs"}, "6": {"label": "*4", "atom_type": "Cs"}}

>  <type>  (19) 
unop_15

>  <geom_source>  (19) 
Heuristics

$$$$

     RDKit          3D

 15 13  0  0  0  0  0  0  0  0999 V2000
   -0.0894   -0.3779    1.7143 N   0  0  0  0  0  0  0  0  0  0  0  0
   -0.0894   -1.5807    1.1695 N   0  0  0  0  0  0  0  0  0  0  0  0
   -0.0894   -1.5807   -0.0350 O   0  0  0  0  0  0  0  0  0  0  0  0
   -0.0894    0.6047    0.9991 H   0  0  0  0  0  0  0  0  0  0  0  0
   -0.0894   -0.3316    2.7164 H   0  0  0  0  0  0  0  0  0  0  0  0
   -0.0894    1.6649    0.2274 C   0  0  0  0  0  3  0  0  0  0  0  0
    0.6220    1.3801   -1.0892 C   0  0  0  0  0  0  0  0  0  0  0  0
   -0.2408    0.5875   -2.0628 C   0  0  0  0  0  0  0  0  0  0  0  0
    0.5440    2.2329    0.9109 H   0  0  0  0  0  0  0  0  0  0  0  0
   -1.0031    2.2407    0.0612 H   0  0  0  0  0  0  0  0  0  0  0  0
    0.9208    2.3242   -1.5531 H   0  0  0  0  0  0  0  0  0  0  0  0
    1.5467    0.8308   -0.8919 H   0  0  0  0  0  0  0  0  0  0  0  0
   -1.1593    1.1294   -2.3011 H   0  0  0  0  0  0  0  0  0  0  0  0
    0.2854    0.3936   -2.9989 H   0  0  0  0  0  0  0  0  0  0  0  0
   -0.5284   -0.3759   -1.6348 H   0  0  0  0  0  0  0  0  0  0  0  0
  1  2  1  0
  1  4  1  0
  1  5  1  0
  2  3  2  0
  6  7  1  0
  6  9  1  0
  6 10  1  0
  7  8  1  0
  7 11  1  0
  7 12  1  0
  8 13  1  0
  8 14  1  0
  8 15  1  0
M  RAD  1   6   2
M  END
>  <reaction>  (20) 
rmg_rxn_1532

>  <mol_properties>  (20) 
{"0": {"label": "*1", "atom_type": "N3s"}, "1": {"label": "*0", "atom_type": "N3d"}, "3": {"label": "*2", "atom_type": "H0"}, "5": {"label": "*3", "atom_type": "Cs"}, "6": {"label": "*4", "atom_type": "Cs"}}

>  <type>  (20) 
unop_16

>  <geom_source>  (20) 
Heuristics

$$$$

     RDKit          3D

 15 13  0  0  0  0  0  0  0  0999 V2000
    0.6058   -0.4908    1.3046 N   0  0  0  0  0  0  0  0  0  0  0  0
    0.6058   -1.6936    0.7599 N   0  0  0  0  0  0  0  0  0  0  0  0
    0.6058   -1.6936   -0.4446 O   0  0  0  0  0  0  0  0  0  0  0  0
    0.6058    0.4918    0.5894 H   0  0  0  0  0  0  0  0  0  0  0  0
    0.6058   -0.4445    2.3067 H   0  0  0  0  0  0  0  0  0  0  0  0
    0.6058    1.5520   -0.1822 C   0  0  0  0  0  3  0  0  0  0  0  0
   -0.6262    1.5737   -1.0778 C   0  0  0  0  0  0  0  0  0  0  0  0
   -1.8155    0.8518   -0.4572 C   0  0  0  0  0  0  0  0  0  0  0  0
    1.4463    2.0734   -0.6434 H   0  0  0  0  0  0  0  0  0  0  0  0
    0.3998    2.0324    0.7773 H   0  0  0  0  0  0  0  0  0  0  0  0
   -0.9014    2.6099   -1.2933 H   0  0  0  0  0  0  0  0  0  0  0  0
   -0.3844    1.1154   -2.0408 H   0  0  0  0  0  0  0  0  0  0  0  0
   -2.0979    1.3102    0.4937 H   0  0  0  0  0  0  0  0  0  0  0  0
   -2.6875    0.8781   -1.1129 H   0  0  0  0  0  0  0  0  0  0  0  0
   -1.5768   -0.1960   -0.2597 H   0  0  0  0  0  0  0  0  0  0  0  0
  1  2  1  0
  1  4  1  0
  1  5  1  0
  2  3  2  0
  6  7  1  0
  6  9  1  0
  6 10  1  0
  7  8  1  0
  7 11  1  0
  7 12  1  0
  8 13  1  0
  8 14  1  0
  8 15  1  0
M  RAD  1   6   2
M  END
>  <reaction>  (21) 
rmg_rxn_1532

>  <mol_properties>  (21) 
{"0": {"label": "*1", "atom_type": "N3s"}, "1": {"label": "*0", "atom_type": "N3d"}, "3": {"label": "*2", "atom_type": "H0"}, "5": {"label": "*3", "atom_type": "Cs"}, "6": {"label": "*4", "atom_type": "Cs"}}

>  <type>  (21) 
unop_17

>  <geom_source>  (21) 
Heuristics

$$$$

     RDKit          3D

 15 13  0  0  0  0  0  0  0  0999 V2000
   -0.4801   -0.9867    0.9456 N   0  0  0  0  0  0  0  0  0  0  0  0
   -0.4801   -2.1895    0.4008 N   0  0  0  0  0  0  0  0  0  0  0  0
   -0.4801   -2.1895   -0.8037 O   0  0  0  0  0  0  0  0  0  0  0  0
   -0.4801   -0.0041    0.2304 H   0  0  0  0  0  0  0  0  0  0  0  0
   -0.4801   -0.9404    1.9477 H   0  0  0  0  0  0  0  0  0  0  0  0
   -0.4801    1.0561   -0.5413 C   0  0  0  0  0  3  0  0  0  0  0  0
    0.2312    2.2214    0.1344 C   0  0  0  0  0  0  0  0  0  0  0  0
    1.7292    2.2342   -0.1419 C   0  0  0  0  0  0  0  0  0  0  0  0
   -1.5511    1.0640   -0.3318 H   0  0  0  0  0  0  0  0  0  0  0  0
   -0.3509    1.0952   -1.6256 H   0  0  0  0  0  0  0  0  0  0  0  0
   -0.2096    3.1630   -0.2048 H   0  0  0  0  0  0  0  0  0  0  0  0
    0.0605    2.1757    1.2136 H   0  0  0  0  0  0  0  0  0  0  0  0
    1.9281    2.3105   -1.2137 H   0  0  0  0  0  0  0  0  0  0  0  0
    2.2207    3.0753    0.3499 H   0  0  0  0  0  0  0  0  0  0  0  0
    2.2003    1.3155    0.2159 H   0  0  0  0  0  0  0  0  0  0  0  0
  1  2  1  0
  1  4  1  0
  1  5  1  0
  2  3  2  0
  6  7  1  0
  6  9  1  0
  6 10  1  0
  7  8  1  0
  7 11  1  0
  7 12  1  0
  8 13  1  0
  8 14  1  0
  8 15  1  0
M  RAD  1   6   2
M  END
>  <reaction>  (22) 
rmg_rxn_1532

>  <mol_properties>  (22) 
{"0": {"label": "*1", "atom_type": "N3s"}, "1": {"label": "*0", "atom_type": "N3d"}, "3": {"label": "*2", "atom_type": "H0"}, "5": {"label": "*3", "atom_type": "Cs"}, "6": {"label": "*4", "atom_type": "Cs"}}

>  <type>  (22) 
unop_18

>  <geom_source>  (22) 
Heuristics

$$$$

     RDKit          3D

 15 13  0  0  0  0  0  0  0  0999 V2000
    0.2050   -0.3334    1.6662 N   0  0  0  0  0  0  0  0  0  0  0  0
    0.2050   -1.5362    1.1215 N   0  0  0  0  0  0  0  0  0  0  0  0
    0.2050   -1.5362   -0.0830 O   0  0  0  0  0  0  0  0  0  0  0  0
    0.2050    0.6493    0.9510 H   0  0  0  0  0  0  0  0  0  0  0  0
    0.2050   -0.2870    2.6683 H   0  0  0  0  0  0  0  0  0  0  0  0
    0.2050    1.7094    0.1794 C   0  0  0  0  0  3  0  0  0  0  0  0
    0.2050    1.3125   -1.2913 C   0  0  0  0  0  0  0  0  0  0  0  0
   -1.0093    0.4757   -1.6732 C   0  0  0  0  0  0  0  0  0  0  0  0
    1.0816    2.3077    0.4334 H   0  0  0  0  0  0  0  0  0  0  0  0
   -0.6834    2.2961    0.4257 H   0  0  0  0  0  0  0  0  0  0  0  0
    0.2362    2.2128   -1.9113 H   0  0  0  0  0  0  0  0  0  0  0  0
    1.1176    0.7542   -1.5177 H   0  0  0  0  0  0  0  0  0  0  0  0
   -1.9359    1.0234   -1.4853 H   0  0  0  0  0  0  0  0  0  0  0  0
   -0.9914    0.2014   -2.7293 H   0  0  0  0  0  0  0  0  0  0  0  0
   -1.0475   -0.4467   -1.0885 H   0  0  0  0  0  0  0  0  0  0  0  0
  1  2  1  0
  1  4  1  0
  1  5  1  0
  2  3  2  0
  6  7  1  0
  6  9  1  0
  6 10  1  0
  7  8  1  0
  7 11  1  0
  7 12  1  0
  8 13  1  0
  8 14  1  0
  8 15  1  0
M  RAD  1   6   2
M  END
>  <reaction>  (23) 
rmg_rxn_1532

>  <mol_properties>  (23) 
{"0": {"label": "*1", "atom_type": "N3s"}, "1": {"label": "*0", "atom_type": "N3d"}, "3": {"label": "*2", "atom_type": "H0"}, "5": {"label": "*3", "atom_type": "Cs"}, "6": {"label": "*4", "atom_type": "Cs"}}

>  <type>  (23) 
unop_19

>  <geom_source>  (23) 
Heuristics

$$$$

     RDKit          3D

 15 13  0  0  0  0  0  0  0  0999 V2000
    0.4496   -0.3735    1.5187 N   0  0  0  0  0  0  0  0  0  0  0  0
    0.4496   -1.5763    0.9739 N   0  0  0  0  0  0  0  0  0  0  0  0
    0.4496   -1.5763   -0.2306 O   0  0  0  0  0  0  0  0  0  0  0  0
    0.4496    0.6091    0.8035 H   0  0  0  0  0  0  0  0  0  0  0  0
    0.4496   -0.3272    2.5208 H   0  0  0  0  0  0  0  0  0  0  0  0
    0.4496    1.6693    0.0318 C   0  0  0  0  0  3  0  0  0  0  0  0
   -0.2617    1.3845   -1.2848 C   0  0  0  0  0  0  0  0  0  0  0  0
   -1.5331    0.5660   -1.0997 C   0  0  0  0  0  0  0  0  0  0  0  0
    1.3570    2.2560   -0.1211 H   0  0  0  0  0  0  0  0  0  0  0  0
   -0.1981    2.2261    0.7133 H   0  0  0  0  0  0  0  0  0  0  0  0
   -0.5057    2.3293   -1.7784 H   0  0  0  0  0  0  0  0  0  0  0  0
    0.4175    0.8547   -1.9583 H   0  0  0  0  0  0  0  0  0  0  0  0
   -2.2432    1.0881   -0.4539 H   0  0  0  0  0  0  0  0  0  0  0  0
   -2.0279    0.3725   -2.0529 H   0  0  0  0  0  0  0  0  0  0  0  0
   -1.3127   -0.3982   -0.6352 H   0  0  0  0  0  0  0  0  0  0  0  0
  1  2  1  0
  1  4  1  0
  1  5  1  0
  2  3  2  0
  6  7  1  0
  6  9  1  0
  6 10  1  0
  7  8  1  0
  7 11  1  0
  7 12  1  0
  8 13  1  0
  8 14  1  0
  8 15  1  0
M  RAD  1   6   2
M  END
>  <reaction>  (24) 
rmg_rxn_1532

>  <mol_properties>  (24) 
{"0": {"label": "*1", "atom_type": "N3s"}, "1": {"label": "*0", "atom_type": "N3d"}, "3": {"label": "*2", "atom_type": "H0"}, "5": {"label": "*3", "atom_type": "Cs"}, "6": {"label": "*4", "atom_type": "Cs"}}

>  <type>  (24) 
unop_20

>  <geom_source>  (24) 
gaussian_log

$$$$
