
     RDKit          3D

  9  8  0  0  0  0  0  0  0  0999 V2000
   -1.0314    0.2323   -0.1227 C   0  0  0  0  0  0  0  0  0  0  0  0
    0.3094   -0.4511    0.0063 C   0  0  0  0  0  0  0  0  0  0  0  0
    0.3197   -1.7698    0.6841 N   0  0  0  0  0  0  0  0  0  0  0  0
   -0.7498   -2.1455    1.0557 O   0  0  0  0  0  0  0  0  0  0  0  0
   -1.4744    0.4198    0.8552 H   0  0  0  0  0  0  0  0  0  0  0  0
   -0.9073    1.1865   -0.6350 H   0  0  0  0  0  0  0  0  0  0  0  0
   -1.7319   -0.3778   -0.6927 H   0  0  0  0  0  0  0  0  0  0  0  0
    1.0375    0.1401    0.5713 H   0  0  0  0  0  0  0  0  0  0  0  0
    0.7826   -0.6494   -0.9609 H   0  0  0  0  0  0  0  0  0  0  0  0
  1  2  1  0
  1  5  1  0
  1  6  1  0
  1  7  1  0
  2  3  1  0
  2  8  1  0
  2  9  1  0
  3  4  2  0
M  END
>  <reaction>  (1) 
rmg_rxn_357

>  <mol_properties>  (1) 
{"0": {"label": "donator", "atom_type": "Cs"}, "4": {"label": "d_hydrogen", "atom_type": "H0"}}

>  <type>  (1) 
r1h

$$$$

     RDKit          3D

  8  7  0  0  0  0  0  0  0  0999 V2000
    1.3778   -0.6812    0.2772 C   0  0  0  0  0  3  0  0  0  0  0  0
    0.4890    0.2108   -0.0590 C   0  0  0  0  0  0  0  0  0  0  0  0
   -1.0010    0.0286   -0.0323 C   0  0  0  0  0  0  0  0  0  0  0  0
    2.4535   -0.7507    0.3287 H   0  0  0  0  0  0  0  0  0  0  0  0
    0.8447    1.1899   -0.3945 H   0  0  0  0  0  0  0  0  0  0  0  0
   -1.4635    0.7638    0.6301 H   0  0  0  0  0  0  0  0  0  0  0  0
   -1.2709   -0.9687    0.3117 H   0  0  0  0  0  0  0  0  0  0  0  0
   -1.4218    0.1801   -1.0289 H   0  0  0  0  0  0  0  0  0  0  0  0
  1  2  2  3
  1  4  1  0
  2  3  1  0
  2  5  1  0
  3  6  1  0
  3  7  1  0
  3  8  1  0
M  RAD  1   1   2
M  END
>  <reaction>  (2) 
rmg_rxn_357

>  <mol_properties>  (2) 
{"0": {"label": "acceptor", "atom_type": "Cd"}}

>  <type>  (2) 
r2

$$$$

     RDKit          3D

  9  8  0  0  0  0  0  0  0  0999 V2000
    1.1303   -0.2933   -0.7510 C   0  0  0  0  0  0  0  0  0  0  0  0
    0.2866    0.4560   -0.0588 C   0  0  0  0  0  0  0  0  0  0  0  0
   -0.9719   -0.0331    0.5823 C   0  0  0  0  0  0  0  0  0  0  0  0
    2.0274    0.1230   -1.1916 H   0  0  0  0  0  0  0  0  0  0  0  0
    0.9532   -1.3530   -0.9023 H   0  0  0  0  0  0  0  0  0  0  0  0
    0.5065    1.5132    0.0659 H   0  0  0  0  0  0  0  0  0  0  0  0
   -0.9526    0.1426    1.6610 H   0  0  0  0  0  0  0  0  0  0  0  0
   -1.1182   -1.1002    0.4106 H   0  0  0  0  0  0  0  0  0  0  0  0
   -1.8412    0.5010    0.1901 H   0  0  0  0  0  0  0  0  0  0  0  0
  1  2  2  3
  1  4  1  0
  1  5  1  0
  2  3  1  0
  2  6  1  0
  3  7  1  0
  3  8  1  0
  3  9  1  0
M  END
>  <reaction>  (3) 
rmg_rxn_357

>  <mol_properties>  (3) 
{"0": {"label": "a_hydrogen", "atom_type": "H0"}, "1": {"label": "acceptor", "atom_type": "Cd"}}

>  <type>  (3) 
r2h

$$$$

     RDKit          3D

 17 15  0  0  0  0  0  0  0  0999 V2000
    1.4541    1.0161    0.4600 C   0  0  0  0  0  0  0  0  0  0  0  0
    1.2985    0.2724    1.7496 C   0  0  0  0  0  0  0  0  0  0  0  0
    0.9404   -1.1636    1.6633 N   0  0  0  0  0  0  0  0  0  0  0  0
    0.8909   -1.6019    0.5545 O   0  0  0  0  0  0  0  0  0  0  0  0
    0.2816    1.1628   -0.0567 H   0  0  0  0  0  0  0  0  0  0  0  0
    1.8093    2.0343    0.6041 H   0  0  0  0  0  0  0  0  0  0  0  0
    2.0277    0.4885   -0.2978 H   0  0  0  0  0  0  0  0  0  0  0  0
    0.5280    0.7016    2.3983 H   0  0  0  0  0  0  0  0  0  0  0  0
    2.2142    0.2645    2.3555 H   0  0  0  0  0  0  0  0  0  0  0  0
   -1.0020    1.2670   -0.5587 C   0  0  0  0  0  3  0  0  0  0  0  0
   -1.5105    0.1886   -1.1123 C   0  0  0  0  0  0  0  0  0  0  0  0
   -2.8791    0.0895   -1.7195 C   0  0  0  0  0  0  0  0  0  0  0  0
   -1.4591    2.2444   -0.4462 H   0  0  0  0  0  0  0  0  0  0  0  0
   -0.9052   -0.7151   -1.1411 H   0  0  0  0  0  0  0  0  0  0  0  0
   -2.8101   -0.1921   -2.7731 H   0  0  0  0  0  0  0  0  0  0  0  0
   -3.4200    1.0333   -1.6481 H   0  0  0  0  0  0  0  0  0  0  0  0
   -3.4640   -0.6851   -1.2177 H   0  0  0  0  0  0  0  0  0  0  0  0
  1  2  1  0
  1  5  1  0
  1  6  1  0
  1  7  1  0
  2  3  1  0
  2  8  1  0
  2  9  1  0
  3  4  2  0
 10 11  2  3
 10 13  1  0
 11 12  1  0
 11 14  1  0
 12 15  1  0
 12 16  1  0
 12 17  1  0
M  RAD  1  10   2
M  END
>  <reaction>  (4) 
rmg_rxn_357

>  <mol_properties>  (4) 
{"0": {"label": "*1", "atom_type": "Cs"}, "1": {"label": "*0", "atom_type": "Cs"}, "4": {"label": "*2", "atom_type": "H0"}, "9": {"label": "*3", "atom_type": "Cd"}, "10": {"label": "*4", "atom_type": "Cd"}}

>  <type>  (4) 
ts

$$$$

     RDKit          3D

 17 15  0  0  0  0  0  0  0  0999 V2000
    1.1996    0.5426    0.7771 C   0  0  0  0  0  3  0  0  0  0  0  0
    1.1996   -0.6343    1.7239 C   0  0  0  0  0  0  0  0  0  0  0  0
    1.1996   -1.9825    1.1066 N   0  0  0  0  0  0  0  0  0  0  0  0
    1.1996   -1.9825   -0.0864 O   0  0  0  0  0  0  0  0  0  0  0  0
    0.1435    0.5299    0.0060 H   0  0  0  0  0  0  0  0  0  0  0  0
    1.1996    1.4710    1.3486 H   0  0  0  0  0  0  0  0  0  0  0  0
    2.0798    0.5320    0.1345 H   0  0  0  0  0  0  0  0  0  0  0  0
    0.3284   -0.6492    2.3869 H   0  0  0  0  0  0  0  0  0  0  0  0
    2.0708   -0.6492    2.3869 H   0  0  0  0  0  0  0  0  0  0  0  0
   -0.9058    0.5172   -0.7601 C   0  0  0  0  0  0  0  0  0  0  0  0
   -1.7762    1.5146   -0.7590 C   0  0  0  0  0  0  0  0  0  0  0  0
   -2.3507    2.1567   -1.9805 C   0  0  0  0  0  0  0  0  0  0  0  0
   -0.5402    0.0860   -1.6861 H   0  0  0  0  0  0  0  0  0  0  0  0
   -2.1137    1.9140    0.1940 H   0  0  0  0  0  0  0  0  0  0  0  0
   -3.4402    2.0702   -1.9894 H   0  0  0  0  0  0  0  0  0  0  0  0
   -1.9622    1.6995   -2.8914 H   0  0  0  0  0  0  0  0  0  0  0  0
   -2.1177    3.2243   -2.0047 H   0  0  0  0  0  0  0  0  0  0  0  0
  1  2  1  0
  1  6  1  0
  1  7  1  0
  2  3  1  0
  2  8  1  0
  2  9  1  0
  3  4  2  0
  5 10  1  0
 10 11  2  3
 10 13  1  0
 11 12  1  0
 11 14  1  0
 12 15  1  0
 12 16  1  0
 12 17  1  0
M  RAD  1   1   2
M  END
>  <reaction>  (5) 
rmg_rxn_357

>  <mol_properties>  (5) 
{"0": {"label": "*1", "atom_type": "Cs"}, "1": {"label": "*0", "atom_type": "Cs"}, "4": {"label": "*2", "atom_type": "H0"}, "9": {"label": "*3", "atom_type": "Cd"}, "10": {"label": "*4", "atom_type": "Cd"}}

>  <type>  (5) 
unop_1

>  <geom_source>  (5) 
Heuristics

$$$$

     RDKit          3D

 17 15  0  0  0  0  0  0  0  0999 V2000
    1.3968    1.0281    0.5698 C   0  0  0  0  0  3  0  0  0  0  0  0
    1.3968   -0.1489    1.5165 C   0  0  0  0  0  0  0  0  0  0  0  0
    1.3968   -1.4970    0.8992 N   0  0  0  0  0  0  0  0  0  0  0  0
    1.3968   -1.4970   -0.2937 O   0  0  0  0  0  0  0  0  0  0  0  0
    0.3406    1.0153   -0.2013 H   0  0  0  0  0  0  0  0  0  0  0  0
    1.3968    1.9565    1.1412 H   0  0  0  0  0  0  0  0  0  0  0  0
    2.2769    1.0175   -0.0728 H   0  0  0  0  0  0  0  0  0  0  0  0
    0.5256   -0.1638    2.1795 H   0  0  0  0  0  0  0  0  0  0  0  0
    2.2680   -0.1638    2.1795 H   0  0  0  0  0  0  0  0  0  0  0  0
   -0.7087    1.0027   -0.9675 C   0  0  0  0  0  0  0  0  0  0  0  0
   -1.8561    0.4819   -0.5619 C   0  0  0  0  0  0  0  0  0  0  0  0
   -3.1884    0.7431   -1.1871 C   0  0  0  0  0  0  0  0  0  0  0  0
   -0.6622    1.6796   -1.8140 H   0  0  0  0  0  0  0  0  0  0  0  0
   -1.8528   -0.1916    0.2914 H   0  0  0  0  0  0  0  0  0  0  0  0
   -3.6420   -0.1871   -1.5390 H   0  0  0  0  0  0  0  0  0  0  0  0
   -3.1047    1.4262   -2.0332 H   0  0  0  0  0  0  0  0  0  0  0  0
   -3.8803    1.1776   -0.4609 H   0  0  0  0  0  0  0  0  0  0  0  0
  1  2  1  0
  1  6  1  0
  1  7  1  0
  2  3  1  0
  2  8  1  0
  2  9  1  0
  3  4  2  0
  5 10  1  0
 10 11  2  3
 10 13  1  0
 11 12  1  0
 11 14  1  0
 12 15  1  0
 12 16  1  0
 12 17  1  0
M  RAD  1   1   2
M  END
>  <reaction>  (6) 
rmg_rxn_357

>  <mol_properties>  (6) 
{"0": {"label": "*1", "atom_type": "Cs"}, "1": {"label": "*0", "atom_type": "Cs"}, "4": {"label": "*2", "atom_type": "H0"}, "9": {"label": "*3", "atom_type": "Cd"}, "10": {"label": "*4", "atom_type": "Cd"}}

>  <type>  (6) 
unop_2

>  <geom_source>  (6) 
Heuristics

$$$$

     RDKit          3D

 17 15  0  0  0  0  0  0  0  0999 V2000
    1.1080    0.5819    0.9288 C   0  0  0  0  0  3  0  0  0  0  0  0
    1.1080   -0.5950    1.8755 C   0  0  0  0  0  0  0  0  0  0  0  0
    1.1080   -1.9432    1.2582 N   0  0  0  0  0  0  0  0  0  0  0  0
    1.1080   -1.9432    0.0653 O   0  0  0  0  0  0  0  0  0  0  0  0
    0.0518    0.5692    0.1576 H   0  0  0  0  0  0  0  0  0  0  0  0
    1.1080    1.5103    1.5002 H   0  0  0  0  0  0  0  0  0  0  0  0
    1.9881    0.5713    0.2862 H   0  0  0  0  0  0  0  0  0  0  0  0
    0.2368   -0.6099    2.5385 H   0  0  0  0  0  0  0  0  0  0  0  0
    1.9792   -0.6099    2.5385 H   0  0  0  0  0  0  0  0  0  0  0  0
   -0.9975    0.5565   -0.6085 C   0  0  0  0  0  0  0  0  0  0  0  0
   -1.5322    1.6764   -1.0692 C   0  0  0  0  0  0  0  0  0  0  0  0
   -2.1218    1.8516   -2.4316 C   0  0  0  0  0  0  0  0  0  0  0  0
   -0.9522   -0.3410   -1.2163 H   0  0  0  0  0  0  0  0  0  0  0  0
   -1.5549    2.5502   -0.4231 H   0  0  0  0  0  0  0  0  0  0  0  0
   -3.1721    2.1470   -2.3657 H   0  0  0  0  0  0  0  0  0  0  0  0
   -2.0595    0.9316   -3.0142 H   0  0  0  0  0  0  0  0  0  0  0  0
   -1.6043    2.6425   -2.9805 H   0  0  0  0  0  0  0  0  0  0  0  0
  1  2  1  0
  1  6  1  0
  1  7  1  0
  2  3  1  0
  2  8  1  0
  2  9  1  0
  3  4  2  0
  5 10  1  0
 10 11  2  3
 10 13  1  0
 11 12  1  0
 11 14  1  0
 12 15  1  0
 12 16  1  0
 12 17  1  0
M  RAD  1   1   2
M  END
>  <reaction>  (7) 
rmg_rxn_357

>  <mol_properties>  (7) 
{"0": {"label": "*1", "atom_type": "Cs"}, "1": {"label": "*0", "atom_type": "Cs"}, "4": {"label": "*2", "atom_type": "H0"}, "9": {"label": "*3", "atom_type": "Cd"}, "10": {"label": "*4", "atom_type": "Cd"}}

>  <type>  (7) 
unop_3

>  <geom_source>  (7) 
Heuristics

$$$$

     RDKit          3D

 17 15  0  0  0  0  0  0  0  0999 V2000
    1.0421    1.1888    1.0231 C   0  0  0  0  0  3  0  0  0  0  0  0
    1.0421    0.0118    1.9698 C   0  0  0  0  0  0  0  0  0  0  0  0
    1.0421   -1.3363    1.3525 N   0  0  0  0  0  0  0  0  0  0  0  0
    1.0421   -1.3363    0.1596 O   0  0  0  0  0  0  0  0  0  0  0  0
   -0.0141    1.1760    0.2520 H   0  0  0  0  0  0  0  0  0  0  0  0
    1.0421    2.1172    1.5945 H   0  0  0  0  0  0  0  0  0  0  0  0
    1.9222    1.1782    0.3805 H   0  0  0  0  0  0  0  0  0  0  0  0
    0.1709   -0.0031    2.6328 H   0  0  0  0  0  0  0  0  0  0  0  0
    1.9133   -0.0031    2.6328 H   0  0  0  0  0  0  0  0  0  0  0  0
   -1.0634    1.1634   -0.5142 C   0  0  0  0  0  0  0  0  0  0  0  0
   -1.3117    0.1525   -1.3320 C   0  0  0  0  0  0  0  0  0  0  0  0
   -1.9923    0.2655   -2.6579 C   0  0  0  0  0  0  0  0  0  0  0  0
   -1.3505    2.1789   -0.7661 H   0  0  0  0  0  0  0  0  0  0  0  0
   -1.0052   -0.8476   -1.0362 H   0  0  0  0  0  0  0  0  0  0  0  0
   -1.3444   -0.0976   -3.4599 H   0  0  0  0  0  0  0  0  0  0  0  0
   -2.2664    1.2979   -2.8786 H   0  0  0  0  0  0  0  0  0  0  0  0
   -2.8990   -0.3444   -2.6829 H   0  0  0  0  0  0  0  0  0  0  0  0
  1  2  1  0
  1  6  1  0
  1  7  1  0
  2  3  1  0
  2  8  1  0
  2  9  1  0
  3  4  2  0
  5 10  1  0
 10 11  2  3
 10 13  1  0
 11 12  1  0
 11 14  1  0
 12 15  1  0
 12 16  1  0
 12 17  1  0
M  RAD  1   1   2
M  END
>  <reaction>  (8) 
rmg_rxn_357

>  <mol_properties>  (8) 
{"0": {"label": "*1", "atom_type": "Cs"}, "1": {"label": "*0", "atom_type": "Cs"}, "4": {"label": "*2", "atom_type": "H0"}, "9": {"label": "*3", "atom_type": "Cd"}, "10": {"label": "*4", "atom_type": "Cd"}}

>  <type>  (8) 
unop_4

>  <geom_source>  (8) 
Heuristics

$$$$

     RDKit          3D

 17 15  0  0  0  0  0  0  0  0999 V2000
    1.1081    0.6497    0.9847 C   0  0  0  0  0  3  0  0  0  0  0  0
    1.1081   -0.5273    1.9314 C   0  0  0  0  0  0  0  0  0  0  0  0
    1.1081   -1.8754    1.3141 N   0  0  0  0  0  0  0  0  0  0  0  0
    1.1081   -1.8754    0.1212 O   0  0  0  0  0  0  0  0  0  0  0  0
    0.0519    0.6369    0.2136 H   0  0  0  0  0  0  0  0  0  0  0  0
    1.1081    1.5781    1.5561 H   0  0  0  0  0  0  0  0  0  0  0  0
    1.9882    0.6391    0.3421 H   0  0  0  0  0  0  0  0  0  0  0  0
    0.2369   -0.5422    2.5944 H   0  0  0  0  0  0  0  0  0  0  0  0
    1.9793   -0.5422    2.5944 H   0  0  0  0  0  0  0  0  0  0  0  0
   -0.9974    0.6243   -0.5525 C   0  0  0  0  0  0  0  0  0  0  0  0
   -1.2029    1.5648   -1.4611 C   0  0  0  0  0  0  0  0  0  0  0  0
   -2.3782    1.6291   -2.3824 C   0  0  0  0  0  0  0  0  0  0  0  0
   -1.6984   -0.1922   -0.4144 H   0  0  0  0  0  0  0  0  0  0  0  0
   -0.4723    2.3631   -1.5627 H   0  0  0  0  0  0  0  0  0  0  0  0
   -2.9323    2.5607   -2.2415 H   0  0  0  0  0  0  0  0  0  0  0  0
   -3.0610    0.7949   -2.2164 H   0  0  0  0  0  0  0  0  0  0  0  0
   -2.0556    1.6075   -3.4265 H   0  0  0  0  0  0  0  0  0  0  0  0
  1  2  1  0
  1  6  1  0
  1  7  1  0
  2  3  1  0
  2  8  1  0
  2  9  1  0
  3  4  2  0
  5 10  1  0
 10 11  2  3
 10 13  1  0
 11 12  1  0
 11 14  1  0
 12 15  1  0
 12 16  1  0
 12 17  1  0
M  RAD  1   1   2
M  END
>  <reaction>  (9) 
rmg_rxn_357

>  <mol_properties>  (9) 
{"0": {"label": "*1", "atom_type": "Cs"}, "1": {"label": "*0", "atom_type": "Cs"}, "4": {"label": "*2", "atom_type": "H0"}, "9": {"label": "*3", "atom_type": "Cd"}, "10": {"label": "*4", "atom_type": "Cd"}}

>  <type>  (9) 
unop_5

>  <geom_source>  (9) 
Heuristics

$$$$

     RDKit          3D

 17 15  0  0  0  0  0  0  0  0999 V2000
    0.9589    1.0125    1.1112 C   0  0  0  0  0  3  0  0  0  0  0  0
    0.9589   -0.1645    2.0579 C   0  0  0  0  0  0  0  0  0  0  0  0
    0.9589   -1.5127    1.4406 N   0  0  0  0  0  0  0  0  0  0  0  0
    0.9589   -1.5127    0.2477 O   0  0  0  0  0  0  0  0  0  0  0  0
   -0.0972    0.9997    0.3401 H   0  0  0  0  0  0  0  0  0  0  0  0
    0.9589    1.9409    1.6826 H   0  0  0  0  0  0  0  0  0  0  0  0
    1.8390    1.0018    0.4686 H   0  0  0  0  0  0  0  0  0  0  0  0
    0.0877   -0.1794    2.7210 H   0  0  0  0  0  0  0  0  0  0  0  0
    1.8301   -0.1794    2.7210 H   0  0  0  0  0  0  0  0  0  0  0  0
   -1.1466    0.9871   -0.4260 C   0  0  0  0  0  0  0  0  0  0  0  0
   -1.1425    0.3677   -1.5960 C   0  0  0  0  0  0  0  0  0  0  0  0
   -1.7442    0.9031   -2.8551 C   0  0  0  0  0  0  0  0  0  0  0  0
   -1.6060    1.9622   -0.3034 H   0  0  0  0  0  0  0  0  0  0  0  0
   -0.6698   -0.6083   -1.6700 H   0  0  0  0  0  0  0  0  0  0  0  0
   -0.9878    0.9963   -3.6386 H   0  0  0  0  0  0  0  0  0  0  0  0
   -2.1963    1.8828   -2.6958 H   0  0  0  0  0  0  0  0  0  0  0  0
   -2.5135    0.2269   -3.2367 H   0  0  0  0  0  0  0  0  0  0  0  0
  1  2  1  0
  1  6  1  0
  1  7  1  0
  2  3  1  0
  2  8  1  0
  2  9  1  0
  3  4  2  0
  5 10  1  0
 10 11  2  3
 10 13  1  0
 11 12  1  0
 11 14  1  0
 12 15  1  0
 12 16  1  0
 12 17  1  0
M  RAD  1   1   2
M  END
>  <reaction>  (10) 
rmg_rxn_357

>  <mol_properties>  (10) 
{"0": {"label": "*1", "atom_type": "Cs"}, "1": {"label": "*0", "atom_type": "Cs"}, "4": {"label": "*2", "atom_type": "H0"}, "9": {"label": "*3", "atom_type": "Cd"}, "10": {"label": "*4", "atom_type": "Cd"}}

>  <type>  (10) 
unop_6

>  <geom_source>  (10) 
Heuristics

$$$$

     RDKit          3D

 17 15  0  0  0  0  0  0  0  0999 V2000
    0.9560    0.8076    1.1065 C   0  0  0  0  0  3  0  0  0  0  0  0
    0.9560   -0.3694    2.0532 C   0  0  0  0  0  0  0  0  0  0  0  0
    0.9560   -1.7176    1.4359 N   0  0  0  0  0  0  0  0  0  0  0  0
    0.9560   -1.7176    0.2430 O   0  0  0  0  0  0  0  0  0  0  0  0
   -0.1002    0.7948    0.3354 H   0  0  0  0  0  0  0  0  0  0  0  0
    0.9560    1.7360    1.6779 H   0  0  0  0  0  0  0  0  0  0  0  0
    1.8361    0.7969    0.4639 H   0  0  0  0  0  0  0  0  0  0  0  0
    0.0848   -0.3843    2.7163 H   0  0  0  0  0  0  0  0  0  0  0  0
    1.8272   -0.3843    2.7163 H   0  0  0  0  0  0  0  0  0  0  0  0
   -1.1495    0.7822   -0.4307 C   0  0  0  0  0  0  0  0  0  0  0  0
   -1.0440    0.7185   -1.7487 C   0  0  0  0  0  0  0  0  0  0  0  0
   -1.8073    1.5659   -2.7150 C   0  0  0  0  0  0  0  0  0  0  0  0
   -1.8246    1.4824    0.0499 H   0  0  0  0  0  0  0  0  0  0  0  0
   -0.3539    0.0007   -2.1846 H   0  0  0  0  0  0  0  0  0  0  0  0
   -1.1278    2.1481   -3.3428 H   0  0  0  0  0  0  0  0  0  0  0  0
   -2.4748    2.2568   -2.1986 H   0  0  0  0  0  0  0  0  0  0  0  0
   -2.4062    0.9460   -3.3871 H   0  0  0  0  0  0  0  0  0  0  0  0
  1  2  1  0
  1  6  1  0
  1  7  1  0
  2  3  1  0
  2  8  1  0
  2  9  1  0
  3  4  2  0
  5 10  1  0
 10 11  2  3
 10 13  1  0
 11 12  1  0
 11 14  1  0
 12 15  1  0
 12 16  1  0
 12 17  1  0
M  RAD  1   1   2
M  END
>  <reaction>  (11) 
rmg_rxn_357

>  <mol_properties>  (11) 
{"0": {"label": "*1", "atom_type": "Cs"}, "1": {"label": "*0", "atom_type": "Cs"}, "4": {"label": "*2", "atom_type": "H0"}, "9": {"label": "*3", "atom_type": "Cd"}, "10": {"label": "*4", "atom_type": "Cd"}}

>  <type>  (11) 
unop_7

>  <geom_source>  (11) 
Heuristics

$$$$

     RDKit          3D

 17 15  0  0  0  0  0  0  0  0999 V2000
    1.3154    0.6249    0.6293 C   0  0  0  0  0  3  0  0  0  0  0  0
    1.3154   -0.5521    1.5760 C   0  0  0  0  0  0  0  0  0  0  0  0
    1.3154   -1.9003    0.9588 N   0  0  0  0  0  0  0  0  0  0  0  0
    1.3154   -1.9003   -0.2342 O   0  0  0  0  0  0  0  0  0  0  0  0
    0.2593    0.6121   -0.1418 H   0  0  0  0  0  0  0  0  0  0  0  0
    1.3154    1.5533    1.2008 H   0  0  0  0  0  0  0  0  0  0  0  0
    2.1955    0.6142   -0.0133 H   0  0  0  0  0  0  0  0  0  0  0  0
    0.4442   -0.5670    2.2391 H   0  0  0  0  0  0  0  0  0  0  0  0
    2.1866   -0.5670    2.2391 H   0  0  0  0  0  0  0  0  0  0  0  0
   -0.7901    0.5995   -0.9079 C   0  0  0  0  0  0  0  0  0  0  0  0
   -1.9128    1.2053   -0.5547 C   0  0  0  0  0  0  0  0  0  0  0  0
   -2.7730    2.0217   -1.4645 C   0  0  0  0  0  0  0  0  0  0  0  0
   -0.4087    0.6605   -1.9218 H   0  0  0  0  0  0  0  0  0  0  0  0
   -2.2552    1.1155    0.4730 H   0  0  0  0  0  0  0  0  0  0  0  0
   -3.7826    1.6067   -1.5212 H   0  0  0  0  0  0  0  0  0  0  0  0
   -2.3607    2.0617   -2.4735 H   0  0  0  0  0  0  0  0  0  0  0  0
   -2.8717    3.0446   -1.0921 H   0  0  0  0  0  0  0  0  0  0  0  0
  1  2  1  0
  1  6  1  0
  1  7  1  0
  2  3  1  0
  2  8  1  0
  2  9  1  0
  3  4  2  0
  5 10  1  0
 10 11  2  3
 10 13  1  0
 11 12  1  0
 11 14  1  0
 12 15  1  0
 12 16  1  0
 12 17  1  0
M  RAD  1   1   2
M  END
>  <reaction>  (12) 
rmg_rxn_357

>  <mol_properties>  (12) 
{"0": {"label": "*1", "atom_type": "Cs"}, "1": {"label": "*0", "atom_type": "Cs"}, "4": {"label": "*2", "atom_type": "H0"}, "9": {"label": "*3", "atom_type": "Cd"}, "10": {"label": "*4", "atom_type": "Cd"}}

>  <type>  (12) 
unop_8

>  <geom_source>  (12) 
Heuristics

$$$$

     RDKit          3D

 17 15  0  0  0  0  0  0  0  0999 V2000
    1.1782    1.2657    0.8652 C   0  0  0  0  0  3  0  0  0  0  0  0
    1.1782    0.0887    1.8119 C   0  0  0  0  0  0  0  0  0  0  0  0
    1.1782   -1.2594    1.1946 N   0  0  0  0  0  0  0  0  0  0  0  0
    1.1782   -1.2594    0.0017 O   0  0  0  0  0  0  0  0  0  0  0  0
    0.1221    1.2529    0.0941 H   0  0  0  0  0  0  0  0  0  0  0  0
    1.1782    2.1941    1.4366 H   0  0  0  0  0  0  0  0  0  0  0  0
    2.0584    1.2551    0.2226 H   0  0  0  0  0  0  0  0  0  0  0  0
    0.3070    0.0738    2.4749 H   0  0  0  0  0  0  0  0  0  0  0  0
    2.0494    0.0738    2.4749 H   0  0  0  0  0  0  0  0  0  0  0  0
   -0.9272    1.2403   -0.6721 C   0  0  0  0  0  0  0  0  0  0  0  0
   -1.5112    0.1069   -1.0280 C   0  0  0  0  0  0  0  0  0  0  0  0
   -2.4588   -0.0502   -2.1733 C   0  0  0  0  0  0  0  0  0  0  0  0
   -1.1077    2.1639   -1.2120 H   0  0  0  0  0  0  0  0  0  0  0  0
   -1.2995   -0.7931   -0.4565 H   0  0  0  0  0  0  0  0  0  0  0  0
   -2.0802   -0.7795   -2.8941 H   0  0  0  0  0  0  0  0  0  0  0  0
   -2.6169    0.8958   -2.6926 H   0  0  0  0  0  0  0  0  0  0  0  0
   -3.4279   -0.4198   -1.8283 H   0  0  0  0  0  0  0  0  0  0  0  0
  1  2  1  0
  1  6  1  0
  1  7  1  0
  2  3  1  0
  2  8  1  0
  2  9  1  0
  3  4  2  0
  5 10  1  0
 10 11  2  3
 10 13  1  0
 11 12  1  0
 11 14  1  0
 12 15  1  0
 12 16  1  0
 12 17  1  0
M  RAD  1   1   2
M  END
>  <reaction>  (13) 
rmg_rxn_357

>  <mol_properties>  (13) 
{"0": {"label": "*1", "atom_type": "Cs"}, "1": {"label": "*0", "atom_type": "Cs"}, "4": {"label": "*2", "atom_type": "H0"}, "9": {"label": "*3", "atom_type": "Cd"}, "10": {"label": "*4", "atom_type": "Cd"}}

>  <type>  (13) 
unop_9

>  <geom_source>  (13) 
Heuristics

$$$$

     RDKit          3D

 17 15  0  0  0  0  0  0  0  0999 V2000
    1.3933    0.8069    0.5483 C   0  0  0  0  0  3  0  0  0  0  0  0
    1.3933   -0.3701    1.4951 C   0  0  0  0  0  0  0  0  0  0  0  0
    1.3933   -1.7182    0.8778 N   0  0  0  0  0  0  0  0  0  0  0  0
    1.3933   -1.7182   -0.3152 O   0  0  0  0  0  0  0  0  0  0  0  0
    0.3371    0.7942   -0.2228 H   0  0  0  0  0  0  0  0  0  0  0  0
    1.3933    1.7353    1.1198 H   0  0  0  0  0  0  0  0  0  0  0  0
    2.2734    0.7963   -0.0943 H   0  0  0  0  0  0  0  0  0  0  0  0
    0.5221   -0.3849    2.1581 H   0  0  0  0  0  0  0  0  0  0  0  0
    2.2645   -0.3849    2.1581 H   0  0  0  0  0  0  0  0  0  0  0  0
   -0.7122    0.7815   -0.9889 C   0  0  0  0  0  0  0  0  0  0  0  0
   -1.9363    0.8316   -0.4876 C   0  0  0  0  0  0  0  0  0  0  0  0
   -3.1102    1.4810   -1.1469 C   0  0  0  0  0  0  0  0  0  0  0  0
   -0.4751    1.2272   -1.9493 H   0  0  0  0  0  0  0  0  0  0  0  0
   -2.1257    0.3707    0.4784 H   0  0  0  0  0  0  0  0  0  0  0  0
   -3.9122    0.7572   -1.3134 H   0  0  0  0  0  0  0  0  0  0  0  0
   -2.8365    1.9177   -2.1081 H   0  0  0  0  0  0  0  0  0  0  0  0
   -3.5232    2.2713   -0.5147 H   0  0  0  0  0  0  0  0  0  0  0  0
  1  2  1  0
  1  6  1  0
  1  7  1  0
  2  3  1  0
  2  8  1  0
  2  9  1  0
  3  4  2  0
  5 10  1  0
 10 11  2  3
 10 13  1  0
 11 12  1  0
 11 14  1  0
 12 15  1  0
 12 16  1  0
 12 17  1  0
M  RAD  1   1   2
M  END
>  <reaction>  (14) 
rmg_rxn_357

>  <mol_properties>  (14) 
{"0": {"label": "*1", "atom_type": "Cs"}, "1": {"label": "*0", "atom_type": "Cs"}, "4": {"label": "*2", "atom_type": "H0"}, "9": {"label": "*3", "atom_type": "Cd"}, "10": {"label": "*4", "atom_type": "Cd"}}

>  <type>  (14) 
unop_10

>  <geom_source>  (14) 
Heuristics

$$$$

     RDKit          3D

 17 15  0  0  0  0  0  0  0  0999 V2000
    1.0336    0.6628    1.0293 C   0  0  0  0  0  3  0  0  0  0  0  0
    1.0336   -0.5142    1.9760 C   0  0  0  0  0  0  0  0  0  0  0  0
    1.0336   -1.8623    1.3587 N   0  0  0  0  0  0  0  0  0  0  0  0
    1.0336   -1.8623    0.1658 O   0  0  0  0  0  0  0  0  0  0  0  0
   -0.0226    0.6501    0.2582 H   0  0  0  0  0  0  0  0  0  0  0  0
    1.0336    1.5912    1.6007 H   0  0  0  0  0  0  0  0  0  0  0  0
    1.9137    0.6522    0.3867 H   0  0  0  0  0  0  0  0  0  0  0  0
    0.1624   -0.5290    2.6391 H   0  0  0  0  0  0  0  0  0  0  0  0
    1.9048   -0.5290    2.6391 H   0  0  0  0  0  0  0  0  0  0  0  0
   -1.0719    0.6374   -0.5079 C   0  0  0  0  0  0  0  0  0  0  0  0
   -1.0431    1.1447   -1.7303 C   0  0  0  0  0  0  0  0  0  0  0  0
   -2.1622    1.8955   -2.3769 C   0  0  0  0  0  0  0  0  0  0  0  0
   -1.9459    0.7394    0.1268 H   0  0  0  0  0  0  0  0  0  0  0  0
   -0.1449    1.0172   -2.3290 H   0  0  0  0  0  0  0  0  0  0  0  0
   -1.8441    2.9032   -2.6564 H   0  0  0  0  0  0  0  0  0  0  0  0
   -3.0228    1.9790   -1.7121 H   0  0  0  0  0  0  0  0  0  0  0  0
   -2.4839    1.3988   -3.2959 H   0  0  0  0  0  0  0  0  0  0  0  0
  1  2  1  0
  1  6  1  0
  1  7  1  0
  2  3  1  0
  2  8  1  0
  2  9  1  0
  3  4  2  0
  5 10  1  0
 10 11  2  3
 10 13  1  0
 11 12  1  0
 11 14  1  0
 12 15  1  0
 12 16  1  0
 12 17  1  0
M  RAD  1   1   2
M  END
>  <reaction>  (15) 
rmg_rxn_357

>  <mol_properties>  (15) 
{"0": {"label": "*1", "atom_type": "Cs"}, "1": {"label": "*0", "atom_type": "Cs"}, "4": {"label": "*2", "atom_type": "H0"}, "9": {"label": "*3", "atom_type": "Cd"}, "10": {"label": "*4", "atom_type": "Cd"}}

>  <type>  (15) 
unop_11

>  <geom_source>  (15) 
Heuristics

$$$$

     RDKit          3D

 17 15  0  0  0  0  0  0  0  0999 V2000
    1.3156    1.2054    0.6912 C   0  0  0  0  0  3  0  0  0  0  0  0
    1.3156    0.0284    1.6380 C   0  0  0  0  0  0  0  0  0  0  0  0
    1.3156   -1.3197    1.0207 N   0  0  0  0  0  0  0  0  0  0  0  0
    1.3156   -1.3197   -0.1723 O   0  0  0  0  0  0  0  0  0  0  0  0
    0.2595    1.1926   -0.0799 H   0  0  0  0  0  0  0  0  0  0  0  0
    1.3156    2.1338    1.2627 H   0  0  0  0  0  0  0  0  0  0  0  0
    2.1958    1.1948    0.0486 H   0  0  0  0  0  0  0  0  0  0  0  0
    0.4444    0.0135    2.3010 H   0  0  0  0  0  0  0  0  0  0  0  0
    2.1868    0.0135    2.3010 H   0  0  0  0  0  0  0  0  0  0  0  0
   -0.7898    1.1800   -0.8460 C   0  0  0  0  0  0  0  0  0  0  0  0
   -1.7029    0.2260   -0.7542 C   0  0  0  0  0  0  0  0  0  0  0  0
   -2.9371    0.1326   -1.5921 C   0  0  0  0  0  0  0  0  0  0  0  0
   -0.8846    1.9868   -1.5651 H   0  0  0  0  0  0  0  0  0  0  0  0
   -1.5647   -0.5619   -0.0181 H   0  0  0  0  0  0  0  0  0  0  0  0
   -2.9570   -0.8060   -2.1520 H   0  0  0  0  0  0  0  0  0  0  0  0
   -3.0001    0.9578   -2.3025 H   0  0  0  0  0  0  0  0  0  0  0  0
   -3.8337    0.1472   -0.9670 H   0  0  0  0  0  0  0  0  0  0  0  0
  1  2  1  0
  1  6  1  0
  1  7  1  0
  2  3  1  0
  2  8  1  0
  2  9  1  0
  3  4  2  0
  5 10  1  0
 10 11  2  3
 10 13  1  0
 11 12  1  0
 11 14  1  0
 12 15  1  0
 12 16  1  0
 12 17  1  0
M  RAD  1   1   2
M  END
>  <reaction>  (16) 
rmg_rxn_357

>  <mol_properties>  (16) 
{"0": {"label": "*1", "atom_type": "Cs"}, "1": {"label": "*0", "atom_type": "Cs"}, "4": {"label": "*2", "atom_type": "H0"}, "9": {"label": "*3", "atom_type": "Cd"}, "10": {"label": "*4", "atom_type": "Cd"}}

>  <type>  (16) 
unop_12

>  <geom_source>  (16) 
Heuristics

$$$$

     RDKit          3D

 17 15  0  0  0  0  0  0  0  0999 V2000
   -2.3895    0.8221    1.4941 O   0  0  0  0  0  0  0  0  0  0  0  0
   -1.3880    0.2520    1.1813 N   0  0  0  0  0  0  0  0  0  0  0  0
   -1.4233   -0.8323    0.2322 C   0  0  0  0  0  0  0  0  0  0  0  0
    2.5802    0.3532    0.5771 C   0  0  0  0  0  0  0  0  0  0  0  0
    1.2837   -0.0292   -0.0663 C   0  0  0  0  0  0  0  0  0  0  0  0
   -1.7642   -0.3098   -1.1560 C   0  0  0  0  0  3  0  0  0  0  0  0
    0.4360    0.8976   -0.5166 C   0  0  0  0  0  0  0  0  0  0  0  0
   -2.1720   -1.5902    0.5498 H   0  0  0  0  0  0  0  0  0  0  0  0
   -0.4232   -1.3128    0.2000 H   0  0  0  0  0  0  0  0  0  0  0  0
    3.2034    0.9296   -0.1389 H   0  0  0  0  0  0  0  0  0  0  0  0
    2.3880    0.9704    1.4801 H   0  0  0  0  0  0  0  0  0  0  0  0
    3.1326   -0.5613    0.8784 H   0  0  0  0  0  0  0  0  0  0  0  0
    1.0272   -1.0790   -0.1690 H   0  0  0  0  0  0  0  0  0  0  0  0
   -1.7146   -1.1372   -1.8948 H   0  0  0  0  0  0  0  0  0  0  0  0
   -2.7859    0.1258   -1.1662 H   0  0  0  0  0  0  0  0  0  0  0  0
    0.6657    1.9553   -0.4275 H   0  0  0  0  0  0  0  0  0  0  0  0
   -0.6561    0.5457   -1.0577 H   0  0  0  0  0  0  0  0  0  0  0  0
  1  2  2  0
  2  3  1  0
  3  6  1  0
  3  8  1  0
  3  9  1  0
  4  5  1  0
  4 10  1  0
  4 11  1  0
  4 12  1  0
  5  7  2  3
  5 13  1  0
  6 14  1  0
  6 15  1  0
  7 16  1  0
  7 17  1  0
M  RAD  1   6   2
M  END
>  <reaction>  (17) 
rmg_rxn_357

>  <mol_properties>  (17) 
{"0": {"label": "*1", "atom_type": "Cs"}, "1": {"label": "*0", "atom_type": "Cs"}, "4": {"label": "*2", "atom_type": "H0"}, "9": {"label": "*3", "atom_type": "Cd"}, "10": {"label": "*4", "atom_type": "Cd"}}

>  <type>  (17) 
unop_13

>  <geom_source>  (17) 
AutoTST

$$$$

     RDKit          3D

 17 15  0  0  0  0  0  0  0  0999 V2000
    1.3968    1.0281    0.5698 C   0  0  0  0  0  3  0  0  0  0  0  0
    1.3968   -0.1489    1.5165 C   0  0  0  0  0  0  0  0  0  0  0  0
    1.3968   -1.4970    0.8992 N   0  0  0  0  0  0  0  0  0  0  0  0
    1.3968   -1.4970   -0.2937 O   0  0  0  0  0  0  0  0  0  0  0  0
    0.3406    1.0153   -0.2013 H   0  0  0  0  0  0  0  0  0  0  0  0
    1.3968    1.9565    1.1412 H   0  0  0  0  0  0  0  0  0  0  0  0
    2.2769    1.0175   -0.0728 H   0  0  0  0  0  0  0  0  0  0  0  0
    0.5256   -0.1638    2.1795 H   0  0  0  0  0  0  0  0  0  0  0  0
    2.2680   -0.1638    2.1795 H   0  0  0  0  0  0  0  0  0  0  0  0
   -0.7087    1.0027   -0.9675 C   0  0  0  0  0  0  0  0  0  0  0  0
   -1.8561    0.4819   -0.5618 C   0  0  0  0  0  0  0  0  0  0  0  0
   -3.1884    0.7431   -1.1870 C   0  0  0  0  0  0  0  0  0  0  0  0
   -0.6622    1.6796   -1.8140 H   0  0  0  0  0  0  0  0  0  0  0  0
   -1.8528   -0.1916    0.2914 H   0  0  0  0  0  0  0  0  0  0  0  0
   -3.6420   -0.1871   -1.5390 H   0  0  0  0  0  0  0  0  0  0  0  0
   -3.1047    1.4262   -2.0332 H   0  0  0  0  0  0  0  0  0  0  0  0
   -3.8803    1.1776   -0.4609 H   0  0  0  0  0  0  0  0  0  0  0  0
  1  2  1  0
  1  6  1  0
  1  7  1  0
  2  3  1  0
  2  8  1  0
  2  9  1  0
  3  4  2  0
  5 10  1  0
 10 11  2  3
 10 13  1  0
 11 12  1  0
 11 14  1  0
 12 15  1  0
 12 16  1  0
 12 17  1  0
M  RAD  1   1   2
M  END
>  <reaction>  (18) 
rmg_rxn_357

>  <mol_properties>  (18) 
{"0": {"label": "*1", "atom_type": "Cs"}, "1": {"label": "*0", "atom_type": "Cs"}, "4": {"label": "*2", "atom_type": "H0"}, "9": {"label": "*3", "atom_type": "Cd"}, "10": {"label": "*4", "atom_type": "Cd"}}

>  <type>  (18) 
unop_14

>  <geom_source>  (18) 
gaussian_log

$$$$
