
     RDKit          3D

  8  7  0  0  0  0  0  0  0  0999 V2000
    0.9548    0.1194   -0.0790 C   0  0  0  0  0  0  0  0  0  0  0  0
   -0.4838   -0.2649    0.0193 C   0  0  0  0  0  0  0  0  0  0  0  0
   -0.8933   -1.1081    0.8664 N   0  0  0  0  0  0  0  0  0  0  0  0
    1.3360   -0.0983   -1.0800 H   0  0  0  0  0  0  0  0  0  0  0  0
    1.0698    1.1948    0.0786 H   0  0  0  0  0  0  0  0  0  0  0  0
    1.5426   -0.4219    0.6602 H   0  0  0  0  0  0  0  0  0  0  0  0
   -1.1575    0.2324   -0.6905 H   0  0  0  0  0  0  0  0  0  0  0  0
   -1.8989   -1.2455    0.7886 H   0  0  0  0  0  0  0  0  0  0  0  0
  1  2  1  0
  1  4  1  0
  1  5  1  0
  1  6  1  0
  2  3  2  3
  2  7  1  0
  3  8  1  0
M  END
>  <reaction>  (1) 
rmg_rxn_16474

>  <mol_properties>  (1) 
{"2": {"label": "donator", "atom_type": "N3d"}, "7": {"label": "d_hydrogen", "atom_type": "H0"}}

>  <type>  (1) 
r1h

$$$$

     RDKit          3D

  8  7  0  0  0  0  0  0  0  0999 V2000
   -1.0336    0.3440   -0.0356 C   0  0  0  0  0  3  0  0  0  0  0  0
    0.1991   -0.4325   -0.0698 C   0  0  0  0  0  0  0  0  0  0  0  0
    0.9631   -0.0368    1.2269 N   0  0  0  0  0  0  0  0  0  0  0  0
    0.8138   -0.8074    2.1160 O   0  0  0  0  0  0  0  0  0  0  0  0
   -1.0668    1.3490   -0.4320 H   0  0  0  0  0  0  0  0  0  0  0  0
   -1.8598    0.0102    0.5774 H   0  0  0  0  0  0  0  0  0  0  0  0
    0.0447   -1.5108   -0.0264 H   0  0  0  0  0  0  0  0  0  0  0  0
    0.8639   -0.1518   -0.8851 H   0  0  0  0  0  0  0  0  0  0  0  0
  1  2  1  0
  1  5  1  0
  1  6  1  0
  2  3  1  0
  2  7  1  0
  2  8  1  0
  3  4  2  0
M  RAD  1   1   2
M  END
>  <reaction>  (2) 
rmg_rxn_16474

>  <mol_properties>  (2) 
{"0": {"label": "acceptor", "atom_type": "Cs"}}

>  <type>  (2) 
r2

$$$$

     RDKit          3D

  9  8  0  0  0  0  0  0  0  0999 V2000
   -1.0314    0.2323   -0.1227 C   0  0  0  0  0  0  0  0  0  0  0  0
    0.3094   -0.4511    0.0063 C   0  0  0  0  0  0  0  0  0  0  0  0
    0.3197   -1.7698    0.6841 N   0  0  0  0  0  0  0  0  0  0  0  0
   -0.7498   -2.1455    1.0557 O   0  0  0  0  0  0  0  0  0  0  0  0
   -1.4744    0.4198    0.8552 H   0  0  0  0  0  0  0  0  0  0  0  0
   -0.9073    1.1865   -0.6350 H   0  0  0  0  0  0  0  0  0  0  0  0
   -1.7319   -0.3778   -0.6927 H   0  0  0  0  0  0  0  0  0  0  0  0
    1.0375    0.1401    0.5713 H   0  0  0  0  0  0  0  0  0  0  0  0
    0.7826   -0.6494   -0.9609 H   0  0  0  0  0  0  0  0  0  0  0  0
  1  2  1  0
  1  5  1  0
  1  6  1  0
  1  7  1  0
  2  3  1  0
  2  8  1  0
  2  9  1  0
  3  4  2  0
M  END
>  <reaction>  (3) 
rmg_rxn_16474

>  <mol_properties>  (3) 
{"0": {"label": "acceptor", "atom_type": "Cs"}, "8": {"label": "a_hydrogen", "atom_type": "H0"}}

>  <type>  (3) 
r2h

$$$$

     RDKit          3D

 16 14  0  0  0  0  0  0  0  0999 V2000
    0.9044    0.4425    0.6519 C   0  0  0  0  0  3  0  0  0  0  0  0
   -0.3589    0.8919    1.3036 C   0  0  0  0  0  0  0  0  0  0  0  0
   -1.4601   -0.0943    1.4048 N   0  0  0  0  0  0  0  0  0  0  0  0
   -1.2029   -1.1806    0.9822 O   0  0  0  0  0  0  0  0  0  0  0  0
    1.7094    1.1708    0.6953 H   0  0  0  0  0  0  0  0  0  0  0  0
    1.2204   -0.5703    0.8841 H   0  0  0  0  0  0  0  0  0  0  0  0
   -0.2167    1.2169    2.3439 H   0  0  0  0  0  0  0  0  0  0  0  0
   -0.8157    1.7508    0.7995 H   0  0  0  0  0  0  0  0  0  0  0  0
   -0.4038   -1.3433   -3.4627 C   0  0  0  0  0  0  0  0  0  0  0  0
    0.0253   -0.8803   -2.1055 C   0  0  0  0  0  0  0  0  0  0  0  0
    0.3361    0.3167   -1.8771 N   0  0  0  0  0  0  0  0  0  0  0  0
    0.2661   -2.1313   -3.8145 H   0  0  0  0  0  0  0  0  0  0  0  0
   -1.4067   -1.7727   -3.4057 H   0  0  0  0  0  0  0  0  0  0  0  0
   -0.3999   -0.5183   -4.1725 H   0  0  0  0  0  0  0  0  0  0  0  0
    0.0470   -1.6400   -1.3157 H   0  0  0  0  0  0  0  0  0  0  0  0
    0.6424    0.4228   -0.7256 H   0  0  0  0  0  0  0  0  0  0  0  0
  1  2  1  0
  1  5  1  0
  1  6  1  0
  2  3  1  0
  2  7  1  0
  2  8  1  0
  3  4  2  0
  9 10  1  0
  9 12  1  0
  9 13  1  0
  9 14  1  0
 10 11  2  3
 10 15  1  0
 11 16  1  0
M  RAD  1   1   2
M  END
>  <reaction>  (4) 
rmg_rxn_16474

>  <mol_properties>  (4) 
{"0": {"label": "*3", "atom_type": "Cs"}, "1": {"label": "*4", "atom_type": "Cs"}, "9": {"label": "*0", "atom_type": "Cd"}, "10": {"label": "*1", "atom_type": "N3d"}, "15": {"label": "*2", "atom_type": "H0"}}

>  <type>  (4) 
ts

$$$$

     RDKit          3D

 16 14  0  0  0  0  0  0  0  0999 V2000
    0.6738    0.9440    0.0252 C   0  0  0  0  0  3  0  0  0  0  0  0
    1.1564   -0.4096    0.3994 C   0  0  0  0  0  0  0  0  0  0  0  0
    2.5995   -0.1248    0.4323 N   0  0  0  0  0  0  0  0  0  0  0  0
    3.2410   -0.3522   -0.5772 O   0  0  0  0  0  0  0  0  0  0  0  0
    0.8725    1.7083    0.7671 H   0  0  0  0  0  0  0  0  0  0  0  0
    0.9525    1.2541   -0.9762 H   0  0  0  0  0  0  0  0  0  0  0  0
    0.8583   -0.7048    1.4050 H   0  0  0  0  0  0  0  0  0  0  0  0
    0.9074   -1.1734   -0.3445 H   0  0  0  0  0  0  0  0  0  0  0  0
   -3.7744   -0.5636   -0.0828 C   0  0  0  0  0  0  0  0  0  0  0  0
   -2.3076   -0.2822   -0.0285 C   0  0  0  0  0  0  0  0  0  0  0  0
   -1.8547    0.8723   -0.0849 N   0  0  0  0  0  0  0  0  0  0  0  0
   -4.3335    0.3631   -0.1724 H   0  0  0  0  0  0  0  0  0  0  0  0
   -3.9862   -1.2065   -0.9356 H   0  0  0  0  0  0  0  0  0  0  0  0
   -4.0738   -1.0899    0.8220 H   0  0  0  0  0  0  0  0  0  0  0  0
   -1.6815   -1.1819    0.0650 H   0  0  0  0  0  0  0  0  0  0  0  0
   -0.6461    0.9449   -0.0294 H   0  0  0  0  0  0  0  0  0  0  0  0
  1  2  1  0
  1  5  1  0
  1  6  1  0
  2  3  1  0
  2  7  1  0
  2  8  1  0
  3  4  2  0
  9 10  1  0
  9 12  1  0
  9 13  1  0
  9 14  1  0
 10 11  2  3
 10 15  1  0
 11 16  1  0
M  RAD  1   1   2
M  END
>  <reaction>  (5) 
rmg_rxn_16474

>  <mol_properties>  (5) 
{"0": {"label": "*3", "atom_type": "Cs"}, "1": {"label": "*4", "atom_type": "Cs"}, "9": {"label": "*0", "atom_type": "Cd"}, "10": {"label": "*1", "atom_type": "N3d"}, "15": {"label": "*2", "atom_type": "H0"}}

>  <type>  (5) 
unop_1

>  <geom_source>  (5) 
crest_best.xyz

$$$$

     RDKit          3D

 16 14  0  0  0  0  0  0  0  0999 V2000
   -0.3091   -0.3340    0.7211 C   0  0  0  0  0  3  0  0  0  0  0  0
    0.9234    0.2694    1.3522 C   0  0  0  0  0  0  0  0  0  0  0  0
    0.7480    0.8941    2.6854 N   0  0  0  0  0  0  0  0  0  0  0  0
   -0.3646    0.8475    3.1133 O   0  0  0  0  0  0  0  0  0  0  0  0
   -0.7250   -1.1248    1.3451 H   0  0  0  0  0  0  0  0  0  0  0  0
   -1.0856    0.4167    0.5755 H   0  0  0  0  0  0  0  0  0  0  0  0
    1.7246   -0.4604    1.5076 H   0  0  0  0  0  0  0  0  0  0  0  0
    1.3677    1.0654    0.7457 H   0  0  0  0  0  0  0  0  0  0  0  0
   -0.3091   -0.9300   -3.9233 C   0  0  0  0  0  0  0  0  0  0  0  0
   -0.3091   -0.9300   -2.4310 C   0  0  0  0  0  0  0  0  0  0  0  0
   -0.3091    0.1426   -1.7633 N   0  0  0  0  0  0  0  0  0  0  0  0
    0.5691   -1.4600   -4.3007 H   0  0  0  0  0  0  0  0  0  0  0  0
   -1.1874   -1.4600   -4.3007 H   0  0  0  0  0  0  0  0  0  0  0  0
   -0.3091    0.0906   -4.3019 H   0  0  0  0  0  0  0  0  0  0  0  0
   -0.3091   -1.9197   -1.9563 H   0  0  0  0  0  0  0  0  0  0  0  0
   -0.3091   -0.0875   -0.5637 H   0  0  0  0  0  0  0  0  0  0  0  0
  1  2  1  0
  1  5  1  0
  1  6  1  0
  2  3  1  0
  2  7  1  0
  2  8  1  0
  3  4  2  0
  9 10  1  0
  9 12  1  0
  9 13  1  0
  9 14  1  0
 10 11  2  3
 10 15  1  0
 11 16  1  0
M  RAD  1   1   2
M  END
>  <reaction>  (6) 
rmg_rxn_16474

>  <mol_properties>  (6) 
{"0": {"label": "*3", "atom_type": "Cs"}, "1": {"label": "*4", "atom_type": "Cs"}, "9": {"label": "*0", "atom_type": "Cd"}, "10": {"label": "*1", "atom_type": "N3d"}, "15": {"label": "*2", "atom_type": "H0"}}

>  <type>  (6) 
unop_2

>  <geom_source>  (6) 
Heuristics

$$$$

     RDKit          3D

 16 14  0  0  0  0  0  0  0  0999 V2000
   -0.4072    0.6062    0.8111 C   0  0  0  0  0  3  0  0  0  0  0  0
    0.3044   -0.6996    1.0759 C   0  0  0  0  0  0  0  0  0  0  0  0
    0.7641   -0.9348    2.4658 N   0  0  0  0  0  0  0  0  0  0  0  0
    0.5151   -0.0511    3.2275 O   0  0  0  0  0  0  0  0  0  0  0  0
   -1.3069    0.6956    1.4196 H   0  0  0  0  0  0  0  0  0  0  0  0
    0.2334    1.4579    1.0390 H   0  0  0  0  0  0  0  0  0  0  0  0
   -0.3131   -1.5756    0.8519 H   0  0  0  0  0  0  0  0  0  0  0  0
    1.2116   -0.8211    0.4751 H   0  0  0  0  0  0  0  0  0  0  0  0
   -0.4072    0.0103   -3.8333 C   0  0  0  0  0  0  0  0  0  0  0  0
   -0.4072    0.0103   -2.3409 C   0  0  0  0  0  0  0  0  0  0  0  0
   -0.4072    1.0829   -1.6733 N   0  0  0  0  0  0  0  0  0  0  0  0
    0.4710   -0.5197   -4.2107 H   0  0  0  0  0  0  0  0  0  0  0  0
   -1.2855   -0.5197   -4.2107 H   0  0  0  0  0  0  0  0  0  0  0  0
   -0.4072    1.0309   -4.2119 H   0  0  0  0  0  0  0  0  0  0  0  0
   -0.4072   -0.9794   -1.8663 H   0  0  0  0  0  0  0  0  0  0  0  0
   -0.4072    0.8527   -0.4737 H   0  0  0  0  0  0  0  0  0  0  0  0
  1  2  1  0
  1  5  1  0
  1  6  1  0
  2  3  1  0
  2  7  1  0
  2  8  1  0
  3  4  2  0
  9 10  1  0
  9 12  1  0
  9 13  1  0
  9 14  1  0
 10 11  2  3
 10 15  1  0
 11 16  1  0
M  RAD  1   1   2
M  END
>  <reaction>  (7) 
rmg_rxn_16474

>  <mol_properties>  (7) 
{"0": {"label": "*3", "atom_type": "Cs"}, "1": {"label": "*4", "atom_type": "Cs"}, "9": {"label": "*0", "atom_type": "Cd"}, "10": {"label": "*1", "atom_type": "N3d"}, "15": {"label": "*2", "atom_type": "H0"}}

>  <type>  (7) 
unop_3

>  <geom_source>  (7) 
Heuristics

$$$$

     RDKit          3D

 16 14  0  0  0  0  0  0  0  0999 V2000
   -0.0478   -0.3406    0.6641 C   0  0  0  0  0  3  0  0  0  0  0  0
    0.6638    0.7745    1.3933 C   0  0  0  0  0  0  0  0  0  0  0  0
    0.2420    1.0277    2.7921 N   0  0  0  0  0  0  0  0  0  0  0  0
   -0.6251    0.3099    3.1870 O   0  0  0  0  0  0  0  0  0  0  0  0
    0.0896   -1.2949    1.1721 H   0  0  0  0  0  0  0  0  0  0  0  0
   -1.1188   -0.1498    0.6003 H   0  0  0  0  0  0  0  0  0  0  0  0
    1.7441    0.6136    1.4700 H   0  0  0  0  0  0  0  0  0  0  0  0
    0.5480    1.7471    0.9040 H   0  0  0  0  0  0  0  0  0  0  0  0
   -0.0478   -0.9365   -3.9803 C   0  0  0  0  0  0  0  0  0  0  0  0
   -0.0478   -0.9365   -2.4880 C   0  0  0  0  0  0  0  0  0  0  0  0
   -0.0478    0.1361   -1.8203 N   0  0  0  0  0  0  0  0  0  0  0  0
    0.8305   -1.4665   -4.3577 H   0  0  0  0  0  0  0  0  0  0  0  0
   -0.9260   -1.4665   -4.3577 H   0  0  0  0  0  0  0  0  0  0  0  0
   -0.0478    0.0841   -4.3589 H   0  0  0  0  0  0  0  0  0  0  0  0
   -0.0478   -1.9262   -2.0133 H   0  0  0  0  0  0  0  0  0  0  0  0
   -0.0478   -0.0941   -0.6207 H   0  0  0  0  0  0  0  0  0  0  0  0
  1  2  1  0
  1  5  1  0
  1  6  1  0
  2  3  1  0
  2  7  1  0
  2  8  1  0
  3  4  2  0
  9 10  1  0
  9 12  1  0
  9 13  1  0
  9 14  1  0
 10 11  2  3
 10 15  1  0
 11 16  1  0
M  RAD  1   1   2
M  END
>  <reaction>  (8) 
rmg_rxn_16474

>  <mol_properties>  (8) 
{"0": {"label": "*3", "atom_type": "Cs"}, "1": {"label": "*4", "atom_type": "Cs"}, "9": {"label": "*0", "atom_type": "Cd"}, "10": {"label": "*1", "atom_type": "N3d"}, "15": {"label": "*2", "atom_type": "H0"}}

>  <type>  (8) 
unop_4

>  <geom_source>  (8) 
Heuristics

$$$$

     RDKit          3D

 16 14  0  0  0  0  0  0  0  0999 V2000
    0.6102    0.2587    0.7961 C   0  0  0  0  0  3  0  0  0  0  0  0
   -0.6223   -0.5355    1.1591 C   0  0  0  0  0  0  0  0  0  0  0  0
   -1.1853   -0.3059    2.5114 N   0  0  0  0  0  0  0  0  0  0  0  0
   -0.5903    0.4929    3.1680 O   0  0  0  0  0  0  0  0  0  0  0  0
    0.4152    1.3301    0.8369 H   0  0  0  0  0  0  0  0  0  0  0  0
    1.4324    0.0448    1.4786 H   0  0  0  0  0  0  0  0  0  0  0  0
   -1.4661   -0.3454    0.4877 H   0  0  0  0  0  0  0  0  0  0  0  0
   -0.4592   -1.6176    1.1229 H   0  0  0  0  0  0  0  0  0  0  0  0
    0.6102   -0.3373   -3.8483 C   0  0  0  0  0  0  0  0  0  0  0  0
    0.6102   -0.3373   -2.3559 C   0  0  0  0  0  0  0  0  0  0  0  0
    0.6102    0.7354   -1.6883 N   0  0  0  0  0  0  0  0  0  0  0  0
    1.4884   -0.8673   -4.2257 H   0  0  0  0  0  0  0  0  0  0  0  0
   -0.2681   -0.8673   -4.2257 H   0  0  0  0  0  0  0  0  0  0  0  0
    0.6102    0.6833   -4.2269 H   0  0  0  0  0  0  0  0  0  0  0  0
    0.6102   -1.3270   -1.8813 H   0  0  0  0  0  0  0  0  0  0  0  0
    0.6102    0.5052   -0.4887 H   0  0  0  0  0  0  0  0  0  0  0  0
  1  2  1  0
  1  5  1  0
  1  6  1  0
  2  3  1  0
  2  7  1  0
  2  8  1  0
  3  4  2  0
  9 10  1  0
  9 12  1  0
  9 13  1  0
  9 14  1  0
 10 11  2  3
 10 15  1  0
 11 16  1  0
M  RAD  1   1   2
M  END
>  <reaction>  (9) 
rmg_rxn_16474

>  <mol_properties>  (9) 
{"0": {"label": "*3", "atom_type": "Cs"}, "1": {"label": "*4", "atom_type": "Cs"}, "9": {"label": "*0", "atom_type": "Cd"}, "10": {"label": "*1", "atom_type": "N3d"}, "15": {"label": "*2", "atom_type": "H0"}}

>  <type>  (9) 
unop_5

>  <geom_source>  (9) 
Heuristics

$$$$

     RDKit          3D

 16 14  0  0  0  0  0  0  0  0999 V2000
    0.0000   -0.2545    0.6201 C   0  0  0  0  0  3  0  0  0  0  0  0
    0.0000    1.0478    1.3853 C   0  0  0  0  0  0  0  0  0  0  0  0
   -0.0000    0.9482    2.8647 N   0  0  0  0  0  0  0  0  0  0  0  0
   -0.0000   -0.1674    3.2873 O   0  0  0  0  0  0  0  0  0  0  0  0
    0.8801   -0.8517    0.8577 H   0  0  0  0  0  0  0  0  0  0  0  0
   -0.8801   -0.8517    0.8577 H   0  0  0  0  0  0  0  0  0  0  0  0
    0.8712    1.6731    1.1643 H   0  0  0  0  0  0  0  0  0  0  0  0
   -0.8712    1.6731    1.1643 H   0  0  0  0  0  0  0  0  0  0  0  0
    0.0000   -0.8505   -4.0243 C   0  0  0  0  0  0  0  0  0  0  0  0
    0.0000   -0.8505   -2.5320 C   0  0  0  0  0  0  0  0  0  0  0  0
    0.0000    0.2221   -1.8643 N   0  0  0  0  0  0  0  0  0  0  0  0
    0.8783   -1.3805   -4.4017 H   0  0  0  0  0  0  0  0  0  0  0  0
   -0.8783   -1.3805   -4.4017 H   0  0  0  0  0  0  0  0  0  0  0  0
   -0.0000    0.1701   -4.4029 H   0  0  0  0  0  0  0  0  0  0  0  0
    0.0000   -1.8402   -2.0573 H   0  0  0  0  0  0  0  0  0  0  0  0
    0.0000   -0.0080   -0.6647 H   0  0  0  0  0  0  0  0  0  0  0  0
  1  2  1  0
  1  5  1  0
  1  6  1  0
  2  3  1  0
  2  7  1  0
  2  8  1  0
  3  4  2  0
  9 10  1  0
  9 12  1  0
  9 13  1  0
  9 14  1  0
 10 11  2  3
 10 15  1  0
 11 16  1  0
M  RAD  1   1   2
M  END
>  <reaction>  (10) 
rmg_rxn_16474

>  <mol_properties>  (10) 
{"0": {"label": "*3", "atom_type": "Cs"}, "1": {"label": "*4", "atom_type": "Cs"}, "9": {"label": "*0", "atom_type": "Cd"}, "10": {"label": "*1", "atom_type": "N3d"}, "15": {"label": "*2", "atom_type": "H0"}}

>  <type>  (10) 
unop_6

>  <geom_source>  (10) 
Heuristics

$$$$

     RDKit          3D

 16 14  0  0  0  0  0  0  0  0999 V2000
    0.5538   -0.1064    0.7644 C   0  0  0  0  0  3  0  0  0  0  0  0
   -0.8694   -0.2018    1.2614 C   0  0  0  0  0  0  0  0  0  0  0  0
   -1.1496    0.3939    2.5900 N   0  0  0  0  0  0  0  0  0  0  0  0
   -0.2033    0.8881    3.1223 O   0  0  0  0  0  0  0  0  0  0  0  0
    0.8717    0.9322    0.6751 H   0  0  0  0  0  0  0  0  0  0  0  0
    1.2433   -0.6072    1.4437 H   0  0  0  0  0  0  0  0  0  0  0  0
   -1.5878    0.2892    0.5968 H   0  0  0  0  0  0  0  0  0  0  0  0
   -1.2200   -1.2346    1.3576 H   0  0  0  0  0  0  0  0  0  0  0  0
    0.5538   -0.7024   -3.8800 C   0  0  0  0  0  0  0  0  0  0  0  0
    0.5538   -0.7024   -2.3877 C   0  0  0  0  0  0  0  0  0  0  0  0
    0.5538    0.3703   -1.7200 N   0  0  0  0  0  0  0  0  0  0  0  0
    1.4320   -1.2323   -4.2574 H   0  0  0  0  0  0  0  0  0  0  0  0
   -0.3245   -1.2323   -4.2574 H   0  0  0  0  0  0  0  0  0  0  0  0
    0.5538    0.3183   -4.2586 H   0  0  0  0  0  0  0  0  0  0  0  0
    0.5538   -1.6920   -1.9130 H   0  0  0  0  0  0  0  0  0  0  0  0
    0.5538    0.1401   -0.5204 H   0  0  0  0  0  0  0  0  0  0  0  0
  1  2  1  0
  1  5  1  0
  1  6  1  0
  2  3  1  0
  2  7  1  0
  2  8  1  0
  3  4  2  0
  9 10  1  0
  9 12  1  0
  9 13  1  0
  9 14  1  0
 10 11  2  3
 10 15  1  0
 11 16  1  0
M  RAD  1   1   2
M  END
>  <reaction>  (11) 
rmg_rxn_16474

>  <mol_properties>  (11) 
{"0": {"label": "*3", "atom_type": "Cs"}, "1": {"label": "*4", "atom_type": "Cs"}, "9": {"label": "*0", "atom_type": "Cd"}, "10": {"label": "*1", "atom_type": "N3d"}, "15": {"label": "*2", "atom_type": "H0"}}

>  <type>  (11) 
unop_7

>  <geom_source>  (11) 
Heuristics

$$$$

     RDKit          3D

 16 14  0  0  0  0  0  0  0  0999 V2000
    0.3091   -0.3340    0.7211 C   0  0  0  0  0  3  0  0  0  0  0  0
   -0.9234    0.2694    1.3522 C   0  0  0  0  0  0  0  0  0  0  0  0
   -0.7480    0.8941    2.6854 N   0  0  0  0  0  0  0  0  0  0  0  0
    0.3646    0.8475    3.1133 O   0  0  0  0  0  0  0  0  0  0  0  0
    1.0856    0.4167    0.5755 H   0  0  0  0  0  0  0  0  0  0  0  0
    0.7250   -1.1248    1.3451 H   0  0  0  0  0  0  0  0  0  0  0  0
   -1.3677    1.0654    0.7457 H   0  0  0  0  0  0  0  0  0  0  0  0
   -1.7246   -0.4604    1.5076 H   0  0  0  0  0  0  0  0  0  0  0  0
    0.3091   -0.9300   -3.9233 C   0  0  0  0  0  0  0  0  0  0  0  0
    0.3091   -0.9300   -2.4310 C   0  0  0  0  0  0  0  0  0  0  0  0
    0.3091    0.1426   -1.7633 N   0  0  0  0  0  0  0  0  0  0  0  0
    1.1874   -1.4600   -4.3007 H   0  0  0  0  0  0  0  0  0  0  0  0
   -0.5691   -1.4600   -4.3007 H   0  0  0  0  0  0  0  0  0  0  0  0
    0.3091    0.0906   -4.3019 H   0  0  0  0  0  0  0  0  0  0  0  0
    0.3091   -1.9197   -1.9563 H   0  0  0  0  0  0  0  0  0  0  0  0
    0.3091   -0.0875   -0.5637 H   0  0  0  0  0  0  0  0  0  0  0  0
  1  2  1  0
  1  5  1  0
  1  6  1  0
  2  3  1  0
  2  7  1  0
  2  8  1  0
  3  4  2  0
  9 10  1  0
  9 12  1  0
  9 13  1  0
  9 14  1  0
 10 11  2  3
 10 15  1  0
 11 16  1  0
M  RAD  1   1   2
M  END
>  <reaction>  (12) 
rmg_rxn_16474

>  <mol_properties>  (12) 
{"0": {"label": "*3", "atom_type": "Cs"}, "1": {"label": "*4", "atom_type": "Cs"}, "9": {"label": "*0", "atom_type": "Cd"}, "10": {"label": "*1", "atom_type": "N3d"}, "15": {"label": "*2", "atom_type": "H0"}}

>  <type>  (12) 
unop_8

>  <geom_source>  (12) 
Heuristics

$$$$

     RDKit          3D

 16 14  0  0  0  0  0  0  0  0999 V2000
   -0.5538   -0.1064    0.7644 C   0  0  0  0  0  3  0  0  0  0  0  0
    0.8694   -0.2018    1.2614 C   0  0  0  0  0  0  0  0  0  0  0  0
    1.1496    0.3939    2.5900 N   0  0  0  0  0  0  0  0  0  0  0  0
    0.2033    0.8881    3.1223 O   0  0  0  0  0  0  0  0  0  0  0  0
   -1.2433   -0.6072    1.4437 H   0  0  0  0  0  0  0  0  0  0  0  0
   -0.8717    0.9322    0.6751 H   0  0  0  0  0  0  0  0  0  0  0  0
    1.2200   -1.2346    1.3576 H   0  0  0  0  0  0  0  0  0  0  0  0
    1.5878    0.2892    0.5968 H   0  0  0  0  0  0  0  0  0  0  0  0
   -0.5538   -0.7024   -3.8800 C   0  0  0  0  0  0  0  0  0  0  0  0
   -0.5538   -0.7024   -2.3877 C   0  0  0  0  0  0  0  0  0  0  0  0
   -0.5538    0.3703   -1.7200 N   0  0  0  0  0  0  0  0  0  0  0  0
    0.3245   -1.2323   -4.2574 H   0  0  0  0  0  0  0  0  0  0  0  0
   -1.4320   -1.2323   -4.2574 H   0  0  0  0  0  0  0  0  0  0  0  0
   -0.5538    0.3183   -4.2586 H   0  0  0  0  0  0  0  0  0  0  0  0
   -0.5538   -1.6920   -1.9130 H   0  0  0  0  0  0  0  0  0  0  0  0
   -0.5538    0.1401   -0.5204 H   0  0  0  0  0  0  0  0  0  0  0  0
  1  2  1  0
  1  5  1  0
  1  6  1  0
  2  3  1  0
  2  7  1  0
  2  8  1  0
  3  4  2  0
  9 10  1  0
  9 12  1  0
  9 13  1  0
  9 14  1  0
 10 11  2  3
 10 15  1  0
 11 16  1  0
M  RAD  1   1   2
M  END
>  <reaction>  (13) 
rmg_rxn_16474

>  <mol_properties>  (13) 
{"0": {"label": "*3", "atom_type": "Cs"}, "1": {"label": "*4", "atom_type": "Cs"}, "9": {"label": "*0", "atom_type": "Cd"}, "10": {"label": "*1", "atom_type": "N3d"}, "15": {"label": "*2", "atom_type": "H0"}}

>  <type>  (13) 
unop_9

>  <geom_source>  (13) 
Heuristics

$$$$

     RDKit          3D

 16 14  0  0  0  0  0  0  0  0999 V2000
    0.6738    0.9440    0.0252 C   0  0  0  0  0  3  0  0  0  0  0  0
    1.1564   -0.4096    0.3994 C   0  0  0  0  0  0  0  0  0  0  0  0
    2.5995   -0.1248    0.4323 N   0  0  0  0  0  0  0  0  0  0  0  0
    3.2410   -0.3522   -0.5772 O   0  0  0  0  0  0  0  0  0  0  0  0
    0.8725    1.7083    0.7671 H   0  0  0  0  0  0  0  0  0  0  0  0
    0.9525    1.2541   -0.9762 H   0  0  0  0  0  0  0  0  0  0  0  0
    0.8583   -0.7048    1.4050 H   0  0  0  0  0  0  0  0  0  0  0  0
    0.9074   -1.1734   -0.3445 H   0  0  0  0  0  0  0  0  0  0  0  0
   -3.7744   -0.5636   -0.0828 C   0  0  0  0  0  0  0  0  0  0  0  0
   -2.3076   -0.2822   -0.0285 C   0  0  0  0  0  0  0  0  0  0  0  0
   -1.8547    0.8723   -0.0849 N   0  0  0  0  0  0  0  0  0  0  0  0
   -4.3335    0.3631   -0.1724 H   0  0  0  0  0  0  0  0  0  0  0  0
   -3.9862   -1.2065   -0.9356 H   0  0  0  0  0  0  0  0  0  0  0  0
   -4.0738   -1.0899    0.8220 H   0  0  0  0  0  0  0  0  0  0  0  0
   -1.6815   -1.1819    0.0650 H   0  0  0  0  0  0  0  0  0  0  0  0
   -0.6461    0.9449   -0.0294 H   0  0  0  0  0  0  0  0  0  0  0  0
  1  2  1  0
  1  5  1  0
  1  6  1  0
  2  3  1  0
  2  7  1  0
  2  8  1  0
  3  4  2  0
  9 10  1  0
  9 12  1  0
  9 13  1  0
  9 14  1  0
 10 11  2  3
 10 15  1  0
 11 16  1  0
M  RAD  1   1   2
M  END
>  <reaction>  (14) 
rmg_rxn_16474

>  <mol_properties>  (14) 
{"0": {"label": "*3", "atom_type": "Cs"}, "1": {"label": "*4", "atom_type": "Cs"}, "9": {"label": "*0", "atom_type": "Cd"}, "10": {"label": "*1", "atom_type": "N3d"}, "15": {"label": "*2", "atom_type": "H0"}}

>  <type>  (14) 
unop_10

>  <geom_source>  (14) 
Heuristics

$$$$

     RDKit          3D

 16 14  0  0  0  0  0  0  0  0999 V2000
    0.4072    0.6062    0.8111 C   0  0  0  0  0  3  0  0  0  0  0  0
   -0.3044   -0.6996    1.0759 C   0  0  0  0  0  0  0  0  0  0  0  0
   -0.7641   -0.9348    2.4658 N   0  0  0  0  0  0  0  0  0  0  0  0
   -0.5151   -0.0511    3.2275 O   0  0  0  0  0  0  0  0  0  0  0  0
   -0.2334    1.4579    1.0390 H   0  0  0  0  0  0  0  0  0  0  0  0
    1.3069    0.6956    1.4196 H   0  0  0  0  0  0  0  0  0  0  0  0
   -1.2116   -0.8211    0.4752 H   0  0  0  0  0  0  0  0  0  0  0  0
    0.3131   -1.5756    0.8519 H   0  0  0  0  0  0  0  0  0  0  0  0
    0.4072    0.0103   -3.8333 C   0  0  0  0  0  0  0  0  0  0  0  0
    0.4072    0.0103   -2.3409 C   0  0  0  0  0  0  0  0  0  0  0  0
    0.4072    1.0829   -1.6733 N   0  0  0  0  0  0  0  0  0  0  0  0
    1.2855   -0.5197   -4.2107 H   0  0  0  0  0  0  0  0  0  0  0  0
   -0.4710   -0.5197   -4.2107 H   0  0  0  0  0  0  0  0  0  0  0  0
    0.4072    1.0309   -4.2119 H   0  0  0  0  0  0  0  0  0  0  0  0
    0.4072   -0.9794   -1.8663 H   0  0  0  0  0  0  0  0  0  0  0  0
    0.4072    0.8527   -0.4737 H   0  0  0  0  0  0  0  0  0  0  0  0
  1  2  1  0
  1  5  1  0
  1  6  1  0
  2  3  1  0
  2  7  1  0
  2  8  1  0
  3  4  2  0
  9 10  1  0
  9 12  1  0
  9 13  1  0
  9 14  1  0
 10 11  2  3
 10 15  1  0
 11 16  1  0
M  RAD  1   1   2
M  END
>  <reaction>  (15) 
rmg_rxn_16474

>  <mol_properties>  (15) 
{"0": {"label": "*3", "atom_type": "Cs"}, "1": {"label": "*4", "atom_type": "Cs"}, "9": {"label": "*0", "atom_type": "Cd"}, "10": {"label": "*1", "atom_type": "N3d"}, "15": {"label": "*2", "atom_type": "H0"}}

>  <type>  (15) 
unop_11

>  <geom_source>  (15) 
Heuristics

$$$$

     RDKit          3D

 16 14  0  0  0  0  0  0  0  0999 V2000
   -0.6102    0.2587    0.7961 C   0  0  0  0  0  3  0  0  0  0  0  0
    0.6223   -0.5355    1.1591 C   0  0  0  0  0  0  0  0  0  0  0  0
    1.1853   -0.3059    2.5114 N   0  0  0  0  0  0  0  0  0  0  0  0
    0.5903    0.4929    3.1680 O   0  0  0  0  0  0  0  0  0  0  0  0
   -1.4324    0.0448    1.4786 H   0  0  0  0  0  0  0  0  0  0  0  0
   -0.4152    1.3301    0.8369 H   0  0  0  0  0  0  0  0  0  0  0  0
    0.4592   -1.6176    1.1229 H   0  0  0  0  0  0  0  0  0  0  0  0
    1.4661   -0.3454    0.4877 H   0  0  0  0  0  0  0  0  0  0  0  0
   -0.6102   -0.3373   -3.8483 C   0  0  0  0  0  0  0  0  0  0  0  0
   -0.6102   -0.3373   -2.3559 C   0  0  0  0  0  0  0  0  0  0  0  0
   -0.6102    0.7354   -1.6883 N   0  0  0  0  0  0  0  0  0  0  0  0
    0.2681   -0.8673   -4.2257 H   0  0  0  0  0  0  0  0  0  0  0  0
   -1.4884   -0.8673   -4.2257 H   0  0  0  0  0  0  0  0  0  0  0  0
   -0.6102    0.6833   -4.2269 H   0  0  0  0  0  0  0  0  0  0  0  0
   -0.6102   -1.3270   -1.8813 H   0  0  0  0  0  0  0  0  0  0  0  0
   -0.6102    0.5052   -0.4887 H   0  0  0  0  0  0  0  0  0  0  0  0
  1  2  1  0
  1  5  1  0
  1  6  1  0
  2  3  1  0
  2  7  1  0
  2  8  1  0
  3  4  2  0
  9 10  1  0
  9 12  1  0
  9 13  1  0
  9 14  1  0
 10 11  2  3
 10 15  1  0
 11 16  1  0
M  RAD  1   1   2
M  END
>  <reaction>  (16) 
rmg_rxn_16474

>  <mol_properties>  (16) 
{"0": {"label": "*3", "atom_type": "Cs"}, "1": {"label": "*4", "atom_type": "Cs"}, "9": {"label": "*0", "atom_type": "Cd"}, "10": {"label": "*1", "atom_type": "N3d"}, "15": {"label": "*2", "atom_type": "H0"}}

>  <type>  (16) 
unop_12

>  <geom_source>  (16) 
Heuristics

$$$$

     RDKit          3D

 16 14  0  0  0  0  0  0  0  0999 V2000
    0.0478   -0.3406    0.6641 C   0  0  0  0  0  3  0  0  0  0  0  0
   -0.6638    0.7745    1.3933 C   0  0  0  0  0  0  0  0  0  0  0  0
   -0.2420    1.0277    2.7921 N   0  0  0  0  0  0  0  0  0  0  0  0
    0.6251    0.3099    3.1870 O   0  0  0  0  0  0  0  0  0  0  0  0
    1.1188   -0.1498    0.6003 H   0  0  0  0  0  0  0  0  0  0  0  0
   -0.0896   -1.2949    1.1721 H   0  0  0  0  0  0  0  0  0  0  0  0
   -0.5480    1.7471    0.9040 H   0  0  0  0  0  0  0  0  0  0  0  0
   -1.7441    0.6136    1.4700 H   0  0  0  0  0  0  0  0  0  0  0  0
    0.0478   -0.9365   -3.9803 C   0  0  0  0  0  0  0  0  0  0  0  0
    0.0478   -0.9365   -2.4880 C   0  0  0  0  0  0  0  0  0  0  0  0
    0.0478    0.1361   -1.8203 N   0  0  0  0  0  0  0  0  0  0  0  0
    0.9260   -1.4665   -4.3577 H   0  0  0  0  0  0  0  0  0  0  0  0
   -0.8305   -1.4665   -4.3577 H   0  0  0  0  0  0  0  0  0  0  0  0
    0.0478    0.0841   -4.3589 H   0  0  0  0  0  0  0  0  0  0  0  0
    0.0478   -1.9262   -2.0133 H   0  0  0  0  0  0  0  0  0  0  0  0
    0.0478   -0.0941   -0.6207 H   0  0  0  0  0  0  0  0  0  0  0  0
  1  2  1  0
  1  5  1  0
  1  6  1  0
  2  3  1  0
  2  7  1  0
  2  8  1  0
  3  4  2  0
  9 10  1  0
  9 12  1  0
  9 13  1  0
  9 14  1  0
 10 11  2  3
 10 15  1  0
 11 16  1  0
M  RAD  1   1   2
M  END
>  <reaction>  (17) 
rmg_rxn_16474

>  <mol_properties>  (17) 
{"0": {"label": "*3", "atom_type": "Cs"}, "1": {"label": "*4", "atom_type": "Cs"}, "9": {"label": "*0", "atom_type": "Cd"}, "10": {"label": "*1", "atom_type": "N3d"}, "15": {"label": "*2", "atom_type": "H0"}}

>  <type>  (17) 
unop_13

>  <geom_source>  (17) 
Heuristics

$$$$

     RDKit          3D

 16 14  0  0  0  0  0  0  0  0999 V2000
   -0.0000    0.7537    0.8135 C   0  0  0  0  0  3  0  0  0  0  0  0
   -0.0000   -0.7394    1.0424 C   0  0  0  0  0  0  0  0  0  0  0  0
    0.0000   -1.1944    2.4536 N   0  0  0  0  0  0  0  0  0  0  0  0
   -0.0000   -0.3145    3.2591 O   0  0  0  0  0  0  0  0  0  0  0  0
   -0.8801    1.2205    1.2553 H   0  0  0  0  0  0  0  0  0  0  0  0
    0.8801    1.2205    1.2553 H   0  0  0  0  0  0  0  0  0  0  0  0
   -0.8712   -1.2385    0.6056 H   0  0  0  0  0  0  0  0  0  0  0  0
    0.8712   -1.2385    0.6056 H   0  0  0  0  0  0  0  0  0  0  0  0
    0.0000    0.1577   -3.8309 C   0  0  0  0  0  0  0  0  0  0  0  0
    0.0000    0.1577   -2.3385 C   0  0  0  0  0  0  0  0  0  0  0  0
    0.0000    1.2303   -1.6708 N   0  0  0  0  0  0  0  0  0  0  0  0
    0.8783   -0.3723   -4.2083 H   0  0  0  0  0  0  0  0  0  0  0  0
   -0.8783   -0.3723   -4.2083 H   0  0  0  0  0  0  0  0  0  0  0  0
   -0.0000    1.1783   -4.2095 H   0  0  0  0  0  0  0  0  0  0  0  0
    0.0000   -0.8320   -1.8639 H   0  0  0  0  0  0  0  0  0  0  0  0
   -0.0000    1.0002   -0.4713 H   0  0  0  0  0  0  0  0  0  0  0  0
  1  2  1  0
  1  5  1  0
  1  6  1  0
  2  3  1  0
  2  7  1  0
  2  8  1  0
  3  4  2  0
  9 10  1  0
  9 12  1  0
  9 13  1  0
  9 14  1  0
 10 11  2  3
 10 15  1  0
 11 16  1  0
M  RAD  1   1   2
M  END
>  <reaction>  (18) 
rmg_rxn_16474

>  <mol_properties>  (18) 
{"0": {"label": "*3", "atom_type": "Cs"}, "1": {"label": "*4", "atom_type": "Cs"}, "9": {"label": "*0", "atom_type": "Cd"}, "10": {"label": "*1", "atom_type": "N3d"}, "15": {"label": "*2", "atom_type": "H0"}}

>  <type>  (18) 
unop_14

>  <geom_source>  (18) 
Heuristics

$$$$

     RDKit          3D

 16 14  0  0  0  0  0  0  0  0999 V2000
   -0.4072    0.6062    0.8111 C   0  0  0  0  0  3  0  0  0  0  0  0
    0.3044   -0.6996    1.0759 C   0  0  0  0  0  0  0  0  0  0  0  0
    0.7641   -0.9348    2.4658 N   0  0  0  0  0  0  0  0  0  0  0  0
    0.5151   -0.0511    3.2275 O   0  0  0  0  0  0  0  0  0  0  0  0
   -1.3069    0.6956    1.4196 H   0  0  0  0  0  0  0  0  0  0  0  0
    0.2334    1.4579    1.0390 H   0  0  0  0  0  0  0  0  0  0  0  0
   -0.3131   -1.5756    0.8519 H   0  0  0  0  0  0  0  0  0  0  0  0
    1.2116   -0.8211    0.4752 H   0  0  0  0  0  0  0  0  0  0  0  0
   -0.4072    0.0103   -3.8333 C   0  0  0  0  0  0  0  0  0  0  0  0
   -0.4072    0.0103   -2.3409 C   0  0  0  0  0  0  0  0  0  0  0  0
   -0.4072    1.0829   -1.6733 N   0  0  0  0  0  0  0  0  0  0  0  0
    0.4710   -0.5197   -4.2107 H   0  0  0  0  0  0  0  0  0  0  0  0
   -1.2855   -0.5197   -4.2107 H   0  0  0  0  0  0  0  0  0  0  0  0
   -0.4072    1.0309   -4.2119 H   0  0  0  0  0  0  0  0  0  0  0  0
   -0.4072   -0.9794   -1.8663 H   0  0  0  0  0  0  0  0  0  0  0  0
   -0.4072    0.8527   -0.4737 H   0  0  0  0  0  0  0  0  0  0  0  0
  1  2  1  0
  1  5  1  0
  1  6  1  0
  2  3  1  0
  2  7  1  0
  2  8  1  0
  3  4  2  0
  9 10  1  0
  9 12  1  0
  9 13  1  0
  9 14  1  0
 10 11  2  3
 10 15  1  0
 11 16  1  0
M  RAD  1   1   2
M  END
>  <reaction>  (19) 
rmg_rxn_16474

>  <mol_properties>  (19) 
{"0": {"label": "*3", "atom_type": "Cs"}, "1": {"label": "*4", "atom_type": "Cs"}, "9": {"label": "*0", "atom_type": "Cd"}, "10": {"label": "*1", "atom_type": "N3d"}, "15": {"label": "*2", "atom_type": "H0"}}

>  <type>  (19) 
unop_15

>  <geom_source>  (19) 
gaussian_log

$$$$
