
     RDKit          3D

 14 14  0  0  0  0  0  0  0  0999 V2000
   -1.1778    0.2241    0.1818 C   0  0  0  0  0  0  0  0  0  0  0  0
   -0.5633   -1.1636    0.0678 C   0  0  0  0  0  0  0  0  0  0  0  0
    0.6943   -1.1996    0.7146 O   0  0  0  0  0  0  0  0  0  0  0  0
    1.5547   -0.2288    0.2011 C   0  0  0  0  0  0  0  0  0  0  0  0
    1.0729    1.0696    0.3698 O   0  0  0  0  0  0  0  0  0  0  0  0
   -0.1607    1.2493   -0.2989 C   0  0  0  0  0  0  0  0  0  0  0  0
   -2.0927    0.2866   -0.4117 H   0  0  0  0  0  0  0  0  0  0  0  0
   -1.4303    0.4248    1.2248 H   0  0  0  0  0  0  0  0  0  0  0  0
   -1.1822   -1.9235    0.5431 H   0  0  0  0  0  0  0  0  0  0  0  0
   -0.4389   -1.4347   -0.9919 H   0  0  0  0  0  0  0  0  0  0  0  0
    1.7250   -0.4207   -0.8742 H   0  0  0  0  0  0  0  0  0  0  0  0
    2.4896   -0.3010    0.7524 H   0  0  0  0  0  0  0  0  0  0  0  0
   -0.0080    1.1481   -1.3844 H   0  0  0  0  0  0  0  0  0  0  0  0
   -0.4826    2.2695   -0.0942 H   0  0  0  0  0  0  0  0  0  0  0  0
  1  2  1  0
  1  6  1  0
  1  7  1  0
  1  8  1  0
  2  3  1  0
  2  9  1  0
  2 10  1  0
  3  4  1  0
  4  5  1  0
  4 11  1  0
  4 12  1  0
  5  6  1  0
  6 13  1  0
  6 14  1  0
M  END
>  <reaction>  (1) 
rmg_rxn_195

>  <mol_properties>  (1) 
{"0": {"label": "donator", "atom_type": "Cs"}, "6": {"label": "d_hydrogen", "atom_type": "H0"}}

>  <type>  (1) 
r1h

$$$$

     RDKit          3D

 14 13  0  0  0  0  0  0  0  0999 V2000
    2.5796   -0.5432    0.2329 C   0  0  0  0  0  3  0  0  0  0  0  0
    1.2594    0.0982    0.3029 C   0  0  0  0  0  0  0  0  0  0  0  0
   -0.0483   -1.0244    0.9576 S   0  0  0  0  0  0  0  0  0  0  0  0
   -0.0049   -2.3732   -0.2491 C   0  0  0  0  0  0  0  0  0  0  0  0
   -0.3891   -1.9781   -1.6653 C   0  0  0  0  0  0  0  0  0  0  0  0
    2.9359   -0.9798   -0.6903 H   0  0  0  0  0  0  0  0  0  0  0  0
    3.1327   -0.7454    1.1400 H   0  0  0  0  0  0  0  0  0  0  0  0
    0.9347    0.4858   -0.6621 H   0  0  0  0  0  0  0  0  0  0  0  0
    1.2442    0.9220    1.0193 H   0  0  0  0  0  0  0  0  0  0  0  0
    0.9819   -2.8380   -0.2257 H   0  0  0  0  0  0  0  0  0  0  0  0
   -0.7110   -3.1037    0.1493 H   0  0  0  0  0  0  0  0  0  0  0  0
    0.3274   -1.2737   -2.0913 H   0  0  0  0  0  0  0  0  0  0  0  0
   -0.4075   -2.8581   -2.3121 H   0  0  0  0  0  0  0  0  0  0  0  0
   -1.3749   -1.5123   -1.6865 H   0  0  0  0  0  0  0  0  0  0  0  0
  1  2  1  0
  1  6  1  0
  1  7  1  0
  2  3  1  0
  2  8  1  0
  2  9  1  0
  3  4  1  0
  4  5  1  0
  4 10  1  0
  4 11  1  0
  5 12  1  0
  5 13  1  0
  5 14  1  0
M  RAD  1   1   2
M  END
>  <reaction>  (2) 
rmg_rxn_195

>  <mol_properties>  (2) 
{"0": {"label": "acceptor", "atom_type": "Cs"}}

>  <type>  (2) 
r2

$$$$

     RDKit          3D

 15 14  0  0  0  0  0  0  0  0999 V2000
   -2.0554    0.0723   -0.4910 C   0  0  0  0  0  0  0  0  0  0  0  0
   -0.7461   -0.6266   -0.8178 C   0  0  0  0  0  0  0  0  0  0  0  0
    0.3249    0.2591   -1.9782 S   0  0  0  0  0  0  0  0  0  0  0  0
   -0.7172    0.3642   -3.4551 C   0  0  0  0  0  0  0  0  0  0  0  0
   -1.1375   -0.9737   -4.0409 C   0  0  0  0  0  0  0  0  0  0  0  0
   -2.7005    0.1427   -1.3684 H   0  0  0  0  0  0  0  0  0  0  0  0
   -2.6016   -0.4848    0.2733 H   0  0  0  0  0  0  0  0  0  0  0  0
   -1.8758    1.0825   -0.1213 H   0  0  0  0  0  0  0  0  0  0  0  0
   -0.1320   -0.7246    0.0789 H   0  0  0  0  0  0  0  0  0  0  0  0
   -0.9254   -1.6374   -1.1879 H   0  0  0  0  0  0  0  0  0  0  0  0
   -1.5873    0.9874   -3.2422 H   0  0  0  0  0  0  0  0  0  0  0  0
   -0.1021    0.9161   -4.1678 H   0  0  0  0  0  0  0  0  0  0  0  0
   -1.7876   -1.5224   -3.3574 H   0  0  0  0  0  0  0  0  0  0  0  0
   -0.2676   -1.5962   -4.2534 H   0  0  0  0  0  0  0  0  0  0  0  0
   -1.6916   -0.8229   -4.9700 H   0  0  0  0  0  0  0  0  0  0  0  0
  1  2  1  0
  1  6  1  0
  1  7  1  0
  1  8  1  0
  2  3  1  0
  2  9  1  0
  2 10  1  0
  3  4  1  0
  4  5  1  0
  4 11  1  0
  4 12  1  0
  5 13  1  0
  5 14  1  0
  5 15  1  0
M  END
>  <reaction>  (3) 
rmg_rxn_195

>  <mol_properties>  (3) 
{"0": {"label": "a_hydrogen", "atom_type": "H0"}, "1": {"label": "acceptor", "atom_type": "Cs"}}

>  <type>  (3) 
r2h

$$$$

     RDKit          3D

 28 27  0  0  0  0  0  0  0  0999 V2000
    1.1286    1.1649    0.6929 C   0  0  0  0  0  0  0  0  0  0  0  0
    1.5945    1.2933   -0.7360 C   0  0  0  0  0  0  0  0  0  0  0  0
    1.4360    2.6379   -1.1741 O   0  0  0  0  0  0  0  0  0  0  0  0
    0.1135    3.0584   -1.0210 C   0  0  0  0  0  0  0  0  0  0  0  0
   -0.3127    3.0448    0.3089 O   0  0  0  0  0  0  0  0  0  0  0  0
   -0.2630    1.7275    0.8429 C   0  0  0  0  0  0  0  0  0  0  0  0
    1.0624   -0.1389    0.9953 H   0  0  0  0  0  0  0  0  0  0  0  0
    1.8369    1.5726    1.4133 H   0  0  0  0  0  0  0  0  0  0  0  0
    2.6500    1.0510   -0.8511 H   0  0  0  0  0  0  0  0  0  0  0  0
    1.0050    0.6292   -1.3839 H   0  0  0  0  0  0  0  0  0  0  0  0
   -0.5492    2.4136   -1.6254 H   0  0  0  0  0  0  0  0  0  0  0  0
    0.0615    4.0892   -1.3651 H   0  0  0  0  0  0  0  0  0  0  0  0
   -0.9806    1.0898    0.3070 H   0  0  0  0  0  0  0  0  0  0  0  0
   -0.5683    1.8022    1.8858 H   0  0  0  0  0  0  0  0  0  0  0  0
    0.9910   -1.4466    1.3190 C   0  0  0  0  0  3  0  0  0  0  0  0
    0.6677   -2.2434    0.0861 C   0  0  0  0  0  0  0  0  0  0  0  0
   -0.8472   -1.7657   -0.7909 S   0  0  0  0  0  0  0  0  0  0  0  0
   -2.0965   -1.8803    0.5135 C   0  0  0  0  0  0  0  0  0  0  0  0
   -2.2424   -3.2561    1.1418 C   0  0  0  0  0  0  0  0  0  0  0  0
    0.2328   -1.4772    2.0996 H   0  0  0  0  0  0  0  0  0  0  0  0
    1.9798   -1.6572    1.7244 H   0  0  0  0  0  0  0  0  0  0  0  0
    0.6174   -3.3115    0.3180 H   0  0  0  0  0  0  0  0  0  0  0  0
    1.4535   -2.1269   -0.6630 H   0  0  0  0  0  0  0  0  0  0  0  0
   -1.8981   -1.1221    1.2735 H   0  0  0  0  0  0  0  0  0  0  0  0
   -3.0209   -1.5879    0.0127 H   0  0  0  0  0  0  0  0  0  0  0  0
   -1.3370   -3.5485    1.6763 H   0  0  0  0  0  0  0  0  0  0  0  0
   -3.0636   -3.2572    1.8616 H   0  0  0  0  0  0  0  0  0  0  0  0
   -2.4468   -4.0115    0.3824 H   0  0  0  0  0  0  0  0  0  0  0  0
  1  2  1  0
  1  6  1  0
  1  7  1  0
  1  8  1  0
  2  3  1  0
  2  9  1  0
  2 10  1  0
  3  4  1  0
  4  5  1  0
  4 11  1  0
  4 12  1  0
  5  6  1  0
  6 13  1  0
  6 14  1  0
 15 16  1  0
 15 20  1  0
 15 21  1  0
 16 17  1  0
 16 22  1  0
 16 23  1  0
 17 18  1  0
 18 19  1  0
 18 24  1  0
 18 25  1  0
 19 26  1  0
 19 27  1  0
 19 28  1  0
M  RAD  1  15   2
M  END
>  <reaction>  (4) 
rmg_rxn_195

>  <mol_properties>  (4) 
{"0": {"label": "*1", "atom_type": "Cs"}, "1": {"label": "*0", "atom_type": "Cs"}, "6": {"label": "*2", "atom_type": "H0"}, "14": {"label": "*3", "atom_type": "Cs"}, "15": {"label": "*4", "atom_type": "Cs"}}

>  <type>  (4) 
ts

$$$$

     RDKit          3D

 28 27  0  0  0  0  0  0  0  0999 V2000
   -0.3333    1.4886   -0.1329 C   0  0  0  0  0  3  0  0  0  0  0  0
   -0.3333    1.4886   -1.6549 C   0  0  0  0  0  0  0  0  0  0  0  0
   -0.3333    2.8150   -2.1470 O   0  0  0  0  0  0  0  0  0  0  0  0
   -1.4161    3.5393   -1.6477 C   0  0  0  0  0  0  0  0  0  0  0  0
   -1.4048    3.6456   -0.2566 O   0  0  0  0  0  0  0  0  0  0  0  0
   -1.4727    2.3719    0.3553 C   0  0  0  0  0  0  0  0  0  0  0  0
   -0.4709    0.2683    0.3254 H   0  0  0  0  0  0  0  0  0  0  0  0
    0.6160    1.8871    0.2302 H   0  0  0  0  0  0  0  0  0  0  0  0
    0.5525    1.0031   -2.0622 H   0  0  0  0  0  0  0  0  0  0  0  0
   -1.2208    0.9574   -2.0316 H   0  0  0  0  0  0  0  0  0  0  0  0
   -2.3587    3.0612   -1.9719 H   0  0  0  0  0  0  0  0  0  0  0  0
   -1.3438    4.5475   -2.0497 H   0  0  0  0  0  0  0  0  0  0  0  0
   -2.4404    1.9028    0.1200 H   0  0  0  0  0  0  0  0  0  0  0  0
   -1.4274    2.5379    1.4307 H   0  0  0  0  0  0  0  0  0  0  0  0
   -0.6082   -0.9501    0.7829 C   0  0  0  0  0  0  0  0  0  0  0  0
    0.5843   -1.3465    1.6376 C   0  0  0  0  0  0  0  0  0  0  0  0
    1.8848   -2.2528    0.7628 S   0  0  0  0  0  0  0  0  0  0  0  0
    1.0036   -3.7274    0.1908 C   0  0  0  0  0  0  0  0  0  0  0  0
    0.4104   -4.5889    1.2933 C   0  0  0  0  0  0  0  0  0  0  0  0
   -1.1559   -1.8259    0.4307 H   0  0  0  0  0  0  0  0  0  0  0  0
   -1.3040   -0.3402    1.3632 H   0  0  0  0  0  0  0  0  0  0  0  0
    0.2657   -1.9197    2.5098 H   0  0  0  0  0  0  0  0  0  0  0  0
    1.0952   -0.4588    2.0143 H   0  0  0  0  0  0  0  0  0  0  0  0
    0.2387   -3.4364   -0.5311 H   0  0  0  0  0  0  0  0  0  0  0  0
    1.7618   -4.2845   -0.3621 H   0  0  0  0  0  0  0  0  0  0  0  0
   -0.3793   -4.0614    1.8311 H   0  0  0  0  0  0  0  0  0  0  0  0
   -0.0299   -5.4947    0.8706 H   0  0  0  0  0  0  0  0  0  0  0  0
    1.1750   -4.8794    2.0146 H   0  0  0  0  0  0  0  0  0  0  0  0
  1  2  1  0
  1  6  1  0
  1  8  1  0
  2  3  1  0
  2  9  1  0
  2 10  1  0
  3  4  1  0
  4  5  1  0
  4 11  1  0
  4 12  1  0
  5  6  1  0
  6 13  1  0
  6 14  1  0
  7 15  1  0
 15 16  1  0
 15 20  1  0
 15 21  1  0
 16 17  1  0
 16 22  1  0
 16 23  1  0
 17 18  1  0
 18 19  1  0
 18 24  1  0
 18 25  1  0
 19 26  1  0
 19 27  1  0
 19 28  1  0
M  RAD  1   1   2
M  END
>  <reaction>  (5) 
rmg_rxn_195

>  <mol_properties>  (5) 
{"0": {"label": "*1", "atom_type": "Cs"}, "1": {"label": "*0", "atom_type": "Cs"}, "6": {"label": "*2", "atom_type": "H0"}, "14": {"label": "*3", "atom_type": "Cs"}, "15": {"label": "*4", "atom_type": "Cs"}}

>  <type>  (5) 
unop_1

>  <geom_source>  (5) 
Heuristics

$$$$

     RDKit          3D

 28 27  0  0  0  0  0  0  0  0999 V2000
    0.7429    1.4282    0.6772 C   0  0  0  0  0  3  0  0  0  0  0  0
    0.7429    1.4282   -0.8449 C   0  0  0  0  0  0  0  0  0  0  0  0
    0.7429    2.7546   -1.3370 O   0  0  0  0  0  0  0  0  0  0  0  0
   -0.3399    3.4789   -0.8376 C   0  0  0  0  0  0  0  0  0  0  0  0
   -0.3286    3.5852    0.5534 O   0  0  0  0  0  0  0  0  0  0  0  0
   -0.3965    2.3114    1.1653 C   0  0  0  0  0  0  0  0  0  0  0  0
    0.6053    0.2078    1.1354 H   0  0  0  0  0  0  0  0  0  0  0  0
    1.6922    1.8267    1.0402 H   0  0  0  0  0  0  0  0  0  0  0  0
    1.6287    0.9427   -1.2522 H   0  0  0  0  0  0  0  0  0  0  0  0
   -0.1446    0.8969   -1.2216 H   0  0  0  0  0  0  0  0  0  0  0  0
   -1.2825    3.0008   -1.1618 H   0  0  0  0  0  0  0  0  0  0  0  0
   -0.2676    4.4870   -1.2396 H   0  0  0  0  0  0  0  0  0  0  0  0
   -1.3642    1.8423    0.9300 H   0  0  0  0  0  0  0  0  0  0  0  0
   -0.3512    2.4774    2.2407 H   0  0  0  0  0  0  0  0  0  0  0  0
    0.4680   -1.0106    1.5929 C   0  0  0  0  0  0  0  0  0  0  0  0
    1.0682   -2.0223    0.6308 C   0  0  0  0  0  0  0  0  0  0  0  0
    0.1124   -2.3001   -0.8816 S   0  0  0  0  0  0  0  0  0  0  0  0
   -1.4633   -2.9097   -0.2306 C   0  0  0  0  0  0  0  0  0  0  0  0
   -1.3704   -4.1931    0.5780 C   0  0  0  0  0  0  0  0  0  0  0  0
   -0.4819   -1.3612    2.0000 H   0  0  0  0  0  0  0  0  0  0  0  0
    1.1430   -0.8420    2.4349 H   0  0  0  0  0  0  0  0  0  0  0  0
    1.2454   -2.9769    1.1291 H   0  0  0  0  0  0  0  0  0  0  0  0
    2.0358   -1.6740    0.2658 H   0  0  0  0  0  0  0  0  0  0  0  0
   -1.9483   -2.1200    0.3455 H   0  0  0  0  0  0  0  0  0  0  0  0
   -2.0703   -3.0651   -1.1240 H   0  0  0  0  0  0  0  0  0  0  0  0
   -0.8005   -4.0458    1.4969 H   0  0  0  0  0  0  0  0  0  0  0  0
   -2.3682   -4.5344    0.8625 H   0  0  0  0  0  0  0  0  0  0  0  0
   -0.8855   -4.9821    0.0020 H   0  0  0  0  0  0  0  0  0  0  0  0
  1  2  1  0
  1  6  1  0
  1  8  1  0
  2  3  1  0
  2  9  1  0
  2 10  1  0
  3  4  1  0
  4  5  1  0
  4 11  1  0
  4 12  1  0
  5  6  1  0
  6 13  1  0
  6 14  1  0
  7 15  1  0
 15 16  1  0
 15 20  1  0
 15 21  1  0
 16 17  1  0
 16 22  1  0
 16 23  1  0
 17 18  1  0
 18 19  1  0
 18 24  1  0
 18 25  1  0
 19 26  1  0
 19 27  1  0
 19 28  1  0
M  RAD  1   1   2
M  END
>  <reaction>  (6) 
rmg_rxn_195

>  <mol_properties>  (6) 
{"0": {"label": "*1", "atom_type": "Cs"}, "1": {"label": "*0", "atom_type": "Cs"}, "6": {"label": "*2", "atom_type": "H0"}, "14": {"label": "*3", "atom_type": "Cs"}, "15": {"label": "*4", "atom_type": "Cs"}}

>  <type>  (6) 
unop_2

>  <geom_source>  (6) 
Heuristics

$$$$

     RDKit          3D

 28 27  0  0  0  0  0  0  0  0999 V2000
   -0.4242    1.2388   -0.5105 C   0  0  0  0  0  3  0  0  0  0  0  0
   -0.4242    1.2388   -2.0325 C   0  0  0  0  0  0  0  0  0  0  0  0
   -0.4242    2.5652   -2.5246 O   0  0  0  0  0  0  0  0  0  0  0  0
   -1.5070    3.2895   -2.0253 C   0  0  0  0  0  0  0  0  0  0  0  0
   -1.4957    3.3958   -0.6342 O   0  0  0  0  0  0  0  0  0  0  0  0
   -1.5636    2.1221   -0.0224 C   0  0  0  0  0  0  0  0  0  0  0  0
   -0.5618    0.0185   -0.0522 H   0  0  0  0  0  0  0  0  0  0  0  0
    0.5251    1.6373   -0.1475 H   0  0  0  0  0  0  0  0  0  0  0  0
    0.4615    0.7533   -2.4398 H   0  0  0  0  0  0  0  0  0  0  0  0
   -1.3117    0.7076   -2.4092 H   0  0  0  0  0  0  0  0  0  0  0  0
   -2.4496    2.8114   -2.3495 H   0  0  0  0  0  0  0  0  0  0  0  0
   -1.4348    4.2976   -2.4273 H   0  0  0  0  0  0  0  0  0  0  0  0
   -2.5313    1.6529   -0.2577 H   0  0  0  0  0  0  0  0  0  0  0  0
   -1.5184    2.2881    1.0531 H   0  0  0  0  0  0  0  0  0  0  0  0
   -0.6991   -1.1999    0.4053 C   0  0  0  0  0  0  0  0  0  0  0  0
   -0.0026   -1.3576    1.7468 C   0  0  0  0  0  0  0  0  0  0  0  0
    1.7708   -1.7097    1.6511 S   0  0  0  0  0  0  0  0  0  0  0  0
    1.8006   -3.2739    0.7398 C   0  0  0  0  0  0  0  0  0  0  0  0
    1.0700   -4.4236    1.4136 C   0  0  0  0  0  0  0  0  0  0  0  0
   -0.6953   -2.1341   -0.1590 H   0  0  0  0  0  0  0  0  0  0  0  0
   -1.7419   -0.9100    0.5518 H   0  0  0  0  0  0  0  0  0  0  0  0
   -0.4925   -2.1212    2.3532 H   0  0  0  0  0  0  0  0  0  0  0  0
   -0.0520   -0.4265    2.3138 H   0  0  0  0  0  0  0  0  0  0  0  0
    1.4246   -3.1122   -0.2718 H   0  0  0  0  0  0  0  0  0  0  0  0
    2.8642   -3.4999    0.6473 H   0  0  0  0  0  0  0  0  0  0  0  0
   -0.0025   -4.2324    1.4778 H   0  0  0  0  0  0  0  0  0  0  0  0
    1.2049   -5.3447    0.8423 H   0  0  0  0  0  0  0  0  0  0  0  0
    1.4460   -4.5848    2.4245 H   0  0  0  0  0  0  0  0  0  0  0  0
  1  2  1  0
  1  6  1  0
  1  8  1  0
  2  3  1  0
  2  9  1  0
  2 10  1  0
  3  4  1  0
  4  5  1  0
  4 11  1  0
  4 12  1  0
  5  6  1  0
  6 13  1  0
  6 14  1  0
  7 15  1  0
 15 16  1  0
 15 20  1  0
 15 21  1  0
 16 17  1  0
 16 22  1  0
 16 23  1  0
 17 18  1  0
 18 19  1  0
 18 24  1  0
 18 25  1  0
 19 26  1  0
 19 27  1  0
 19 28  1  0
M  RAD  1   1   2
M  END
>  <reaction>  (7) 
rmg_rxn_195

>  <mol_properties>  (7) 
{"0": {"label": "*1", "atom_type": "Cs"}, "1": {"label": "*0", "atom_type": "Cs"}, "6": {"label": "*2", "atom_type": "H0"}, "14": {"label": "*3", "atom_type": "Cs"}, "15": {"label": "*4", "atom_type": "Cs"}}

>  <type>  (7) 
unop_3

>  <geom_source>  (7) 
Heuristics

$$$$

     RDKit          3D

 28 27  0  0  0  0  0  0  0  0999 V2000
    1.4927    0.4686   -0.0728 C   0  0  0  0  0  3  0  0  0  0  0  0
    1.4927    0.4686   -1.5948 C   0  0  0  0  0  0  0  0  0  0  0  0
    1.4927    1.7950   -2.0869 O   0  0  0  0  0  0  0  0  0  0  0  0
    0.4099    2.5193   -1.5876 C   0  0  0  0  0  0  0  0  0  0  0  0
    0.4212    2.6256   -0.1965 O   0  0  0  0  0  0  0  0  0  0  0  0
    0.3533    1.3518    0.4153 C   0  0  0  0  0  0  0  0  0  0  0  0
    1.3551   -0.7518    0.3855 H   0  0  0  0  0  0  0  0  0  0  0  0
    2.4420    0.8671    0.2902 H   0  0  0  0  0  0  0  0  0  0  0  0
    2.3784   -0.0169   -2.0021 H   0  0  0  0  0  0  0  0  0  0  0  0
    0.6052   -0.0626   -1.9715 H   0  0  0  0  0  0  0  0  0  0  0  0
   -0.5327    2.0412   -1.9118 H   0  0  0  0  0  0  0  0  0  0  0  0
    0.4822    3.5274   -1.9896 H   0  0  0  0  0  0  0  0  0  0  0  0
   -0.6144    0.8827    0.1800 H   0  0  0  0  0  0  0  0  0  0  0  0
    0.3986    1.5179    1.4908 H   0  0  0  0  0  0  0  0  0  0  0  0
    1.2178   -1.9701    0.8430 C   0  0  0  0  0  0  0  0  0  0  0  0
   -0.0886   -2.5842    0.3677 C   0  0  0  0  0  0  0  0  0  0  0  0
   -1.3735   -1.3922   -0.0864 S   0  0  0  0  0  0  0  0  0  0  0  0
   -1.6284   -0.4960    1.4660 C   0  0  0  0  0  0  0  0  0  0  0  0
   -2.0916   -1.3522    2.6330 C   0  0  0  0  0  0  0  0  0  0  0  0
    1.0863   -1.4278    1.7808 H   0  0  0  0  0  0  0  0  0  0  0  0
    1.9617   -2.7506    1.0174 H   0  0  0  0  0  0  0  0  0  0  0  0
   -0.4846   -3.2806    1.1087 H   0  0  0  0  0  0  0  0  0  0  0  0
    0.0699   -3.1562   -0.5481 H   0  0  0  0  0  0  0  0  0  0  0  0
   -0.7208    0.0535    1.7215 H   0  0  0  0  0  0  0  0  0  0  0  0
   -2.3860    0.2481    1.2146 H   0  0  0  0  0  0  0  0  0  0  0  0
   -1.3287   -2.0758    2.9251 H   0  0  0  0  0  0  0  0  0  0  0  0
   -2.2991   -0.7257    3.5034 H   0  0  0  0  0  0  0  0  0  0  0  0
   -2.9985   -1.9013    2.3773 H   0  0  0  0  0  0  0  0  0  0  0  0
  1  2  1  0
  1  6  1  0
  1  8  1  0
  2  3  1  0
  2  9  1  0
  2 10  1  0
  3  4  1  0
  4  5  1  0
  4 11  1  0
  4 12  1  0
  5  6  1  0
  6 13  1  0
  6 14  1  0
  7 15  1  0
 15 16  1  0
 15 20  1  0
 15 21  1  0
 16 17  1  0
 16 22  1  0
 16 23  1  0
 17 18  1  0
 18 19  1  0
 18 24  1  0
 18 25  1  0
 19 26  1  0
 19 27  1  0
 19 28  1  0
M  RAD  1   1   2
M  END
>  <reaction>  (8) 
rmg_rxn_195

>  <mol_properties>  (8) 
{"0": {"label": "*1", "atom_type": "Cs"}, "1": {"label": "*0", "atom_type": "Cs"}, "6": {"label": "*2", "atom_type": "H0"}, "14": {"label": "*3", "atom_type": "Cs"}, "15": {"label": "*4", "atom_type": "Cs"}}

>  <type>  (8) 
unop_4

>  <geom_source>  (8) 
Heuristics

$$$$

     RDKit          3D

 28 27  0  0  0  0  0  0  0  0999 V2000
   -0.2966    0.7284   -0.9011 C   0  0  0  0  0  3  0  0  0  0  0  0
   -0.2966    0.7284   -2.4232 C   0  0  0  0  0  0  0  0  0  0  0  0
   -0.2966    2.0548   -2.9153 O   0  0  0  0  0  0  0  0  0  0  0  0
   -1.3794    2.7791   -2.4159 C   0  0  0  0  0  0  0  0  0  0  0  0
   -1.3681    2.8854   -1.0249 O   0  0  0  0  0  0  0  0  0  0  0  0
   -1.4360    1.6116   -0.4130 C   0  0  0  0  0  0  0  0  0  0  0  0
   -0.4342   -0.4920   -0.4429 H   0  0  0  0  0  0  0  0  0  0  0  0
    0.6527    1.1269   -0.5381 H   0  0  0  0  0  0  0  0  0  0  0  0
    0.5891    0.2429   -2.8305 H   0  0  0  0  0  0  0  0  0  0  0  0
   -1.1841    0.1971   -2.7999 H   0  0  0  0  0  0  0  0  0  0  0  0
   -2.3220    2.3010   -2.7402 H   0  0  0  0  0  0  0  0  0  0  0  0
   -1.3071    3.7872   -2.8179 H   0  0  0  0  0  0  0  0  0  0  0  0
   -2.4037    1.1425   -0.6483 H   0  0  0  0  0  0  0  0  0  0  0  0
   -1.3907    1.7776    0.6624 H   0  0  0  0  0  0  0  0  0  0  0  0
   -0.5715   -1.7104    0.0146 C   0  0  0  0  0  0  0  0  0  0  0  0
   -0.5729   -1.7224    1.5343 C   0  0  0  0  0  0  0  0  0  0  0  0
    0.8694   -0.9469    2.3067 S   0  0  0  0  0  0  0  0  0  0  0  0
    2.2315   -1.9564    1.6713 C   0  0  0  0  0  0  0  0  0  0  0  0
    2.1645   -3.4296    2.0387 C   0  0  0  0  0  0  0  0  0  0  0  0
    0.2409   -2.3170   -0.3889 H   0  0  0  0  0  0  0  0  0  0  0  0
   -1.5084   -2.1211   -0.3682 H   0  0  0  0  0  0  0  0  0  0  0  0
   -0.6872   -2.7383    1.9162 H   0  0  0  0  0  0  0  0  0  0  0  0
   -1.4151   -1.1452    1.9194 H   0  0  0  0  0  0  0  0  0  0  0  0
    2.3061   -1.8271    0.5903 H   0  0  0  0  0  0  0  0  0  0  0  0
    3.1204   -1.4953    2.1050 H   0  0  0  0  0  0  0  0  0  0  0  0
    1.3029   -3.9170    1.5794 H   0  0  0  0  0  0  0  0  0  0  0  0
    3.0596   -3.9483    1.6885 H   0  0  0  0  0  0  0  0  0  0  0  0
    2.0899   -3.5584    3.1191 H   0  0  0  0  0  0  0  0  0  0  0  0
  1  2  1  0
  1  6  1  0
  1  8  1  0
  2  3  1  0
  2  9  1  0
  2 10  1  0
  3  4  1  0
  4  5  1  0
  4 11  1  0
  4 12  1  0
  5  6  1  0
  6 13  1  0
  6 14  1  0
  7 15  1  0
 15 16  1  0
 15 20  1  0
 15 21  1  0
 16 17  1  0
 16 22  1  0
 16 23  1  0
 17 18  1  0
 18 19  1  0
 18 24  1  0
 18 25  1  0
 19 26  1  0
 19 27  1  0
 19 28  1  0
M  RAD  1   1   2
M  END
>  <reaction>  (9) 
rmg_rxn_195

>  <mol_properties>  (9) 
{"0": {"label": "*1", "atom_type": "Cs"}, "1": {"label": "*0", "atom_type": "Cs"}, "6": {"label": "*2", "atom_type": "H0"}, "14": {"label": "*3", "atom_type": "Cs"}, "15": {"label": "*4", "atom_type": "Cs"}}

>  <type>  (9) 
unop_5

>  <geom_source>  (9) 
Heuristics

$$$$

     RDKit          3D

 28 27  0  0  0  0  0  0  0  0999 V2000
    1.3269    0.2535   -0.5005 C   0  0  0  0  0  3  0  0  0  0  0  0
    1.3269    0.2535   -2.0226 C   0  0  0  0  0  0  0  0  0  0  0  0
    1.3269    1.5798   -2.5147 O   0  0  0  0  0  0  0  0  0  0  0  0
    0.2441    2.3042   -2.0154 C   0  0  0  0  0  0  0  0  0  0  0  0
    0.2554    2.4104   -0.6243 O   0  0  0  0  0  0  0  0  0  0  0  0
    0.1875    1.1367   -0.0124 C   0  0  0  0  0  0  0  0  0  0  0  0
    1.1894   -0.9669   -0.0423 H   0  0  0  0  0  0  0  0  0  0  0  0
    2.2763    0.6520   -0.1375 H   0  0  0  0  0  0  0  0  0  0  0  0
    2.2127   -0.2320   -2.4299 H   0  0  0  0  0  0  0  0  0  0  0  0
    0.4394   -0.2778   -2.3993 H   0  0  0  0  0  0  0  0  0  0  0  0
   -0.6985    1.8261   -2.3396 H   0  0  0  0  0  0  0  0  0  0  0  0
    0.3164    3.3123   -2.4173 H   0  0  0  0  0  0  0  0  0  0  0  0
   -0.7801    0.6676   -0.2477 H   0  0  0  0  0  0  0  0  0  0  0  0
    0.2328    1.3027    1.0630 H   0  0  0  0  0  0  0  0  0  0  0  0
    1.0520   -2.1853    0.4152 C   0  0  0  0  0  0  0  0  0  0  0  0
   -0.4155   -2.5315    0.6049 C   0  0  0  0  0  0  0  0  0  0  0  0
   -1.5420   -1.1140    0.6045 S   0  0  0  0  0  0  0  0  0  0  0  0
   -0.9378   -0.1460    2.0102 C   0  0  0  0  0  0  0  0  0  0  0  0
   -0.9887   -0.8601    3.3508 C   0  0  0  0  0  0  0  0  0  0  0  0
    1.4371   -1.6042    1.2548 H   0  0  0  0  0  0  0  0  0  0  0  0
    1.6502   -3.0966    0.3458 H   0  0  0  0  0  0  0  0  0  0  0  0
   -0.5644   -3.1136    1.5159 H   0  0  0  0  0  0  0  0  0  0  0  0
   -0.7723   -3.1465   -0.2229 H   0  0  0  0  0  0  0  0  0  0  0  0
    0.0706    0.2129    1.7976 H   0  0  0  0  0  0  0  0  0  0  0  0
   -1.5878    0.7305    2.0201 H   0  0  0  0  0  0  0  0  0  0  0  0
   -0.3129   -1.7167    3.3730 H   0  0  0  0  0  0  0  0  0  0  0  0
   -0.6856   -0.1828    4.1523 H   0  0  0  0  0  0  0  0  0  0  0  0
   -1.9965   -1.2187    3.5629 H   0  0  0  0  0  0  0  0  0  0  0  0
  1  2  1  0
  1  6  1  0
  1  8  1  0
  2  3  1  0
  2  9  1  0
  2 10  1  0
  3  4  1  0
  4  5  1  0
  4 11  1  0
  4 12  1  0
  5  6  1  0
  6 13  1  0
  6 14  1  0
  7 15  1  0
 15 16  1  0
 15 20  1  0
 15 21  1  0
 16 17  1  0
 16 22  1  0
 16 23  1  0
 17 18  1  0
 18 19  1  0
 18 24  1  0
 18 25  1  0
 19 26  1  0
 19 27  1  0
 19 28  1  0
M  RAD  1   1   2
M  END
>  <reaction>  (10) 
rmg_rxn_195

>  <mol_properties>  (10) 
{"0": {"label": "*1", "atom_type": "Cs"}, "1": {"label": "*0", "atom_type": "Cs"}, "6": {"label": "*2", "atom_type": "H0"}, "14": {"label": "*3", "atom_type": "Cs"}, "15": {"label": "*4", "atom_type": "Cs"}}

>  <type>  (10) 
unop_6

>  <geom_source>  (10) 
Heuristics

$$$$

     RDKit          3D

 28 27  0  0  0  0  0  0  0  0999 V2000
    0.9271    0.1531   -0.8784 C   0  0  0  0  0  3  0  0  0  0  0  0
    0.9271    0.1531   -2.4004 C   0  0  0  0  0  0  0  0  0  0  0  0
    0.9271    1.4794   -2.8925 O   0  0  0  0  0  0  0  0  0  0  0  0
   -0.1557    2.2038   -2.3932 C   0  0  0  0  0  0  0  0  0  0  0  0
   -0.1444    2.3100   -1.0021 O   0  0  0  0  0  0  0  0  0  0  0  0
   -0.2123    1.0363   -0.3902 C   0  0  0  0  0  0  0  0  0  0  0  0
    0.7896   -1.0673   -0.4201 H   0  0  0  0  0  0  0  0  0  0  0  0
    1.8765    0.5516   -0.5153 H   0  0  0  0  0  0  0  0  0  0  0  0
    1.8129   -0.3324   -2.8077 H   0  0  0  0  0  0  0  0  0  0  0  0
    0.0396   -0.3782   -2.7771 H   0  0  0  0  0  0  0  0  0  0  0  0
   -1.0982    1.7257   -2.7174 H   0  0  0  0  0  0  0  0  0  0  0  0
   -0.0834    3.2119   -2.7952 H   0  0  0  0  0  0  0  0  0  0  0  0
   -1.1799    0.5672   -0.6255 H   0  0  0  0  0  0  0  0  0  0  0  0
   -0.1670    1.2023    0.6852 H   0  0  0  0  0  0  0  0  0  0  0  0
    0.6523   -2.2857    0.0374 C   0  0  0  0  0  0  0  0  0  0  0  0
   -0.5985   -2.4066    0.8921 C   0  0  0  0  0  0  0  0  0  0  0  0
   -1.3161   -0.8320    1.4249 S   0  0  0  0  0  0  0  0  0  0  0  0
    0.0342   -0.1033    2.3863 C   0  0  0  0  0  0  0  0  0  0  0  0
    0.4758   -0.9167    3.5917 C   0  0  0  0  0  0  0  0  0  0  0  0
    1.4802   -1.8515    0.6003 H   0  0  0  0  0  0  0  0  0  0  0  0
    0.9720   -3.2715   -0.3075 H   0  0  0  0  0  0  0  0  0  0  0  0
   -0.4155   -3.0362    1.7644 H   0  0  0  0  0  0  0  0  0  0  0  0
   -1.4027   -2.8798    0.3262 H   0  0  0  0  0  0  0  0  0  0  0  0
    0.8779    0.1061    1.7267 H   0  0  0  0  0  0  0  0  0  0  0  0
   -0.3644    0.8619    2.7029 H   0  0  0  0  0  0  0  0  0  0  0  0
    0.9152   -1.8694    3.2914 H   0  0  0  0  0  0  0  0  0  0  0  0
    1.2327   -0.3714    4.1597 H   0  0  0  0  0  0  0  0  0  0  0  0
   -0.3678   -1.1259    4.2505 H   0  0  0  0  0  0  0  0  0  0  0  0
  1  2  1  0
  1  6  1  0
  1  8  1  0
  2  3  1  0
  2  9  1  0
  2 10  1  0
  3  4  1  0
  4  5  1  0
  4 11  1  0
  4 12  1  0
  5  6  1  0
  6 13  1  0
  6 14  1  0
  7 15  1  0
 15 16  1  0
 15 20  1  0
 15 21  1  0
 16 17  1  0
 16 22  1  0
 16 23  1  0
 17 18  1  0
 18 19  1  0
 18 24  1  0
 18 25  1  0
 19 26  1  0
 19 27  1  0
 19 28  1  0
M  RAD  1   1   2
M  END
>  <reaction>  (11) 
rmg_rxn_195

>  <mol_properties>  (11) 
{"0": {"label": "*1", "atom_type": "Cs"}, "1": {"label": "*0", "atom_type": "Cs"}, "6": {"label": "*2", "atom_type": "H0"}, "14": {"label": "*3", "atom_type": "Cs"}, "15": {"label": "*4", "atom_type": "Cs"}}

>  <type>  (11) 
unop_7

>  <geom_source>  (11) 
Heuristics

$$$$

     RDKit          3D

 28 27  0  0  0  0  0  0  0  0999 V2000
   -0.1159    1.5997    0.2387 C   0  0  0  0  0  3  0  0  0  0  0  0
   -0.1159    1.5997   -1.2833 C   0  0  0  0  0  0  0  0  0  0  0  0
   -0.1159    2.9260   -1.7754 O   0  0  0  0  0  0  0  0  0  0  0  0
   -1.1987    3.6504   -1.2761 C   0  0  0  0  0  0  0  0  0  0  0  0
   -1.1874    3.7566    0.1150 O   0  0  0  0  0  0  0  0  0  0  0  0
   -1.2553    2.4829    0.7269 C   0  0  0  0  0  0  0  0  0  0  0  0
   -0.2535    0.3793    0.6970 H   0  0  0  0  0  0  0  0  0  0  0  0
    0.8334    1.9982    0.6018 H   0  0  0  0  0  0  0  0  0  0  0  0
    0.7699    1.1141   -1.6906 H   0  0  0  0  0  0  0  0  0  0  0  0
   -1.0034    1.0684   -1.6600 H   0  0  0  0  0  0  0  0  0  0  0  0
   -2.1413    3.1723   -1.6003 H   0  0  0  0  0  0  0  0  0  0  0  0
   -1.1264    4.6585   -1.6781 H   0  0  0  0  0  0  0  0  0  0  0  0
   -2.2230    2.0138    0.4916 H   0  0  0  0  0  0  0  0  0  0  0  0
   -1.2100    2.6489    1.8023 H   0  0  0  0  0  0  0  0  0  0  0  0
   -0.3908   -0.8391    1.1545 C   0  0  0  0  0  0  0  0  0  0  0  0
    0.9629   -1.5033    1.3442 C   0  0  0  0  0  0  0  0  0  0  0  0
    1.5230   -2.5107   -0.0521 S   0  0  0  0  0  0  0  0  0  0  0  0
    0.2194   -3.7620   -0.1670 C   0  0  0  0  0  0  0  0  0  0  0  0
    0.0477   -4.6258    1.0716 C   0  0  0  0  0  0  0  0  0  0  0  0
   -1.1918   -1.5771    1.0866 H   0  0  0  0  0  0  0  0  0  0  0  0
   -0.6156   -0.1887    2.0027 H   0  0  0  0  0  0  0  0  0  0  0  0
    0.9783   -2.1042    2.2550 H   0  0  0  0  0  0  0  0  0  0  0  0
    1.7454   -0.7503    1.4511 H   0  0  0  0  0  0  0  0  0  0  0  0
   -0.7215   -3.2823   -0.4414 H   0  0  0  0  0  0  0  0  0  0  0  0
    0.5209   -4.3731   -1.0193 H   0  0  0  0  0  0  0  0  0  0  0  0
   -0.2936   -4.0373    1.9248 H   0  0  0  0  0  0  0  0  0  0  0  0
   -0.6979   -5.4032    0.8906 H   0  0  0  0  0  0  0  0  0  0  0  0
    0.9883   -5.1050    1.3456 H   0  0  0  0  0  0  0  0  0  0  0  0
  1  2  1  0
  1  6  1  0
  1  8  1  0
  2  3  1  0
  2  9  1  0
  2 10  1  0
  3  4  1  0
  4  5  1  0
  4 11  1  0
  4 12  1  0
  5  6  1  0
  6 13  1  0
  6 14  1  0
  7 15  1  0
 15 16  1  0
 15 20  1  0
 15 21  1  0
 16 17  1  0
 16 22  1  0
 16 23  1  0
 17 18  1  0
 18 19  1  0
 18 24  1  0
 18 25  1  0
 19 26  1  0
 19 27  1  0
 19 28  1  0
M  RAD  1   1   2
M  END
>  <reaction>  (12) 
rmg_rxn_195

>  <mol_properties>  (12) 
{"0": {"label": "*1", "atom_type": "Cs"}, "1": {"label": "*0", "atom_type": "Cs"}, "6": {"label": "*2", "atom_type": "H0"}, "14": {"label": "*3", "atom_type": "Cs"}, "15": {"label": "*4", "atom_type": "Cs"}}

>  <type>  (12) 
unop_8

>  <geom_source>  (12) 
Heuristics

$$$$

     RDKit          3D

 28 27  0  0  0  0  0  0  0  0999 V2000
    1.4435    0.7692    0.3148 C   0  0  0  0  0  3  0  0  0  0  0  0
    1.4435    0.7692   -1.2072 C   0  0  0  0  0  0  0  0  0  0  0  0
    1.4435    2.0955   -1.6993 O   0  0  0  0  0  0  0  0  0  0  0  0
    0.3607    2.8199   -1.2000 C   0  0  0  0  0  0  0  0  0  0  0  0
    0.3720    2.9261    0.1911 O   0  0  0  0  0  0  0  0  0  0  0  0
    0.3041    1.6524    0.8030 C   0  0  0  0  0  0  0  0  0  0  0  0
    1.3059   -0.4512    0.7731 H   0  0  0  0  0  0  0  0  0  0  0  0
    2.3928    1.1677    0.6779 H   0  0  0  0  0  0  0  0  0  0  0  0
    2.3292    0.2836   -1.6145 H   0  0  0  0  0  0  0  0  0  0  0  0
    0.5560    0.2379   -1.5839 H   0  0  0  0  0  0  0  0  0  0  0  0
   -0.5819    2.3418   -1.5242 H   0  0  0  0  0  0  0  0  0  0  0  0
    0.4330    3.8280   -1.6020 H   0  0  0  0  0  0  0  0  0  0  0  0
   -0.6636    1.1833    0.5677 H   0  0  0  0  0  0  0  0  0  0  0  0
    0.3493    1.8184    1.8784 H   0  0  0  0  0  0  0  0  0  0  0  0
    1.1686   -1.6696    1.2306 C   0  0  0  0  0  0  0  0  0  0  0  0
    0.3582   -2.5224    0.2685 C   0  0  0  0  0  0  0  0  0  0  0  0
   -1.0010   -1.6594   -0.5598 S   0  0  0  0  0  0  0  0  0  0  0  0
   -2.0289   -1.1376    0.8365 C   0  0  0  0  0  0  0  0  0  0  0  0
   -2.5681   -2.2697    1.6951 C   0  0  0  0  0  0  0  0  0  0  0  0
    0.5673   -1.3475    2.0825 H   0  0  0  0  0  0  0  0  0  0  0  0
    2.0133   -2.2401    1.6229 H   0  0  0  0  0  0  0  0  0  0  0  0
   -0.0273   -3.4134    0.7668 H   0  0  0  0  0  0  0  0  0  0  0  0
    0.9852   -2.8691   -0.5546 H   0  0  0  0  0  0  0  0  0  0  0  0
   -1.4789   -0.4161    1.4428 H   0  0  0  0  0  0  0  0  0  0  0  0
   -2.8486   -0.5925    0.3656 H   0  0  0  0  0  0  0  0  0  0  0  0
   -1.7637   -2.8010    2.2067 H   0  0  0  0  0  0  0  0  0  0  0  0
   -3.2403   -1.8769    2.4611 H   0  0  0  0  0  0  0  0  0  0  0  0
   -3.1175   -2.9907    1.0887 H   0  0  0  0  0  0  0  0  0  0  0  0
  1  2  1  0
  1  6  1  0
  1  8  1  0
  2  3  1  0
  2  9  1  0
  2 10  1  0
  3  4  1  0
  4  5  1  0
  4 11  1  0
  4 12  1  0
  5  6  1  0
  6 13  1  0
  6 14  1  0
  7 15  1  0
 15 16  1  0
 15 20  1  0
 15 21  1  0
 16 17  1  0
 16 22  1  0
 16 23  1  0
 17 18  1  0
 18 19  1  0
 18 24  1  0
 18 25  1  0
 19 26  1  0
 19 27  1  0
 19 28  1  0
M  RAD  1   1   2
M  END
>  <reaction>  (13) 
rmg_rxn_195

>  <mol_properties>  (13) 
{"0": {"label": "*1", "atom_type": "Cs"}, "1": {"label": "*0", "atom_type": "Cs"}, "6": {"label": "*2", "atom_type": "H0"}, "14": {"label": "*3", "atom_type": "Cs"}, "15": {"label": "*4", "atom_type": "Cs"}}

>  <type>  (13) 
unop_9

>  <geom_source>  (13) 
Heuristics

$$$$

     RDKit          3D

 28 27  0  0  0  0  0  0  0  0999 V2000
    0.2608    1.5903    0.5412 C   0  0  0  0  0  3  0  0  0  0  0  0
    0.2608    1.5903   -0.9809 C   0  0  0  0  0  0  0  0  0  0  0  0
    0.2608    2.9167   -1.4730 O   0  0  0  0  0  0  0  0  0  0  0  0
   -0.8220    3.6410   -0.9737 C   0  0  0  0  0  0  0  0  0  0  0  0
   -0.8107    3.7473    0.4174 O   0  0  0  0  0  0  0  0  0  0  0  0
   -0.8786    2.4736    1.0293 C   0  0  0  0  0  0  0  0  0  0  0  0
    0.1232    0.3700    0.9994 H   0  0  0  0  0  0  0  0  0  0  0  0
    1.2101    1.9888    0.9042 H   0  0  0  0  0  0  0  0  0  0  0  0
    1.1466    1.1048   -1.3882 H   0  0  0  0  0  0  0  0  0  0  0  0
   -0.6267    1.0591   -1.3576 H   0  0  0  0  0  0  0  0  0  0  0  0
   -1.7646    3.1629   -1.2979 H   0  0  0  0  0  0  0  0  0  0  0  0
   -0.7497    4.6492   -1.3756 H   0  0  0  0  0  0  0  0  0  0  0  0
   -1.8463    2.0045    0.7940 H   0  0  0  0  0  0  0  0  0  0  0  0
   -0.8333    2.6396    2.1047 H   0  0  0  0  0  0  0  0  0  0  0  0
   -0.0141   -0.8484    1.4569 C   0  0  0  0  0  0  0  0  0  0  0  0
    1.1228   -1.7379    0.9816 C   0  0  0  0  0  0  0  0  0  0  0  0
    0.8612   -2.5170   -0.6317 S   0  0  0  0  0  0  0  0  0  0  0  0
   -0.6294   -3.5031   -0.3420 C   0  0  0  0  0  0  0  0  0  0  0  0
   -0.4985   -4.5619    0.7403 C   0  0  0  0  0  0  0  0  0  0  0  0
   -0.9221   -1.4250    1.6411 H   0  0  0  0  0  0  0  0  0  0  0  0
    0.2567   -0.3557    2.3933 H   0  0  0  0  0  0  0  0  0  0  0  0
    1.3536   -2.5051    1.7225 H   0  0  0  0  0  0  0  0  0  0  0  0
    2.0327   -1.1518    0.8421 H   0  0  0  0  0  0  0  0  0  0  0  0
   -1.4706   -2.8386   -0.1378 H   0  0  0  0  0  0  0  0  0  0  0  0
   -0.8244   -3.9688   -1.3094 H   0  0  0  0  0  0  0  0  0  0  0  0
   -0.3437   -4.1122    1.7225 H   0  0  0  0  0  0  0  0  0  0  0  0
   -1.4092   -5.1624    0.7948 H   0  0  0  0  0  0  0  0  0  0  0  0
    0.3424   -5.2257    0.5360 H   0  0  0  0  0  0  0  0  0  0  0  0
  1  2  1  0
  1  6  1  0
  1  8  1  0
  2  3  1  0
  2  9  1  0
  2 10  1  0
  3  4  1  0
  4  5  1  0
  4 11  1  0
  4 12  1  0
  5  6  1  0
  6 13  1  0
  6 14  1  0
  7 15  1  0
 15 16  1  0
 15 20  1  0
 15 21  1  0
 16 17  1  0
 16 22  1  0
 16 23  1  0
 17 18  1  0
 18 19  1  0
 18 24  1  0
 18 25  1  0
 19 26  1  0
 19 27  1  0
 19 28  1  0
M  RAD  1   1   2
M  END
>  <reaction>  (14) 
rmg_rxn_195

>  <mol_properties>  (14) 
{"0": {"label": "*1", "atom_type": "Cs"}, "1": {"label": "*0", "atom_type": "Cs"}, "6": {"label": "*2", "atom_type": "H0"}, "14": {"label": "*3", "atom_type": "Cs"}, "15": {"label": "*4", "atom_type": "Cs"}}

>  <type>  (14) 
unop_10

>  <geom_source>  (14) 
Heuristics

$$$$

     RDKit          3D

 28 27  0  0  0  0  0  0  0  0999 V2000
    0.3037    0.2591   -1.0712 C   0  0  0  0  0  3  0  0  0  0  0  0
    0.3037    0.2591   -2.5933 C   0  0  0  0  0  0  0  0  0  0  0  0
    0.3037    1.5854   -3.0854 O   0  0  0  0  0  0  0  0  0  0  0  0
   -0.7791    2.3098   -2.5860 C   0  0  0  0  0  0  0  0  0  0  0  0
   -0.7678    2.4160   -1.1950 O   0  0  0  0  0  0  0  0  0  0  0  0
   -0.8357    1.1423   -0.5831 C   0  0  0  0  0  0  0  0  0  0  0  0
    0.1661   -0.9613   -0.6130 H   0  0  0  0  0  0  0  0  0  0  0  0
    1.2530    0.6576   -0.7082 H   0  0  0  0  0  0  0  0  0  0  0  0
    1.1894   -0.2265   -3.0006 H   0  0  0  0  0  0  0  0  0  0  0  0
   -0.5838   -0.2722   -2.9700 H   0  0  0  0  0  0  0  0  0  0  0  0
   -1.7217    1.8317   -2.9103 H   0  0  0  0  0  0  0  0  0  0  0  0
   -0.7068    3.3179   -2.9880 H   0  0  0  0  0  0  0  0  0  0  0  0
   -1.8034    0.6732   -0.8184 H   0  0  0  0  0  0  0  0  0  0  0  0
   -0.7905    1.3083    0.4923 H   0  0  0  0  0  0  0  0  0  0  0  0
    0.0288   -2.1797   -0.1555 C   0  0  0  0  0  0  0  0  0  0  0  0
   -0.6853   -2.1783    1.1860 C   0  0  0  0  0  0  0  0  0  0  0  0
   -0.5009   -0.6563    2.1492 S   0  0  0  0  0  0  0  0  0  0  0  0
    1.2915   -0.5728    2.3911 C   0  0  0  0  0  0  0  0  0  0  0  0
    1.8935   -1.7487    3.1423 C   0  0  0  0  0  0  0  0  0  0  0  0
    1.1120   -2.1335   -0.0314 H   0  0  0  0  0  0  0  0  0  0  0  0
   -0.1993   -3.0957   -0.7049 H   0  0  0  0  0  0  0  0  0  0  0  0
   -0.3776   -3.0317    1.7926 H   0  0  0  0  0  0  0  0  0  0  0  0
   -1.7637   -2.2663    1.0440 H   0  0  0  0  0  0  0  0  0  0  0  0
    1.7823   -0.4338    1.4264 H   0  0  0  0  0  0  0  0  0  0  0  0
    1.4346    0.3519    2.9527 H   0  0  0  0  0  0  0  0  0  0  0  0
    1.7958   -2.6766    2.5762 H   0  0  0  0  0  0  0  0  0  0  0  0
    2.9588   -1.5817    3.3162 H   0  0  0  0  0  0  0  0  0  0  0  0
    1.4027   -1.8874    4.1063 H   0  0  0  0  0  0  0  0  0  0  0  0
  1  2  1  0
  1  6  1  0
  1  8  1  0
  2  3  1  0
  2  9  1  0
  2 10  1  0
  3  4  1  0
  4  5  1  0
  4 11  1  0
  4 12  1  0
  5  6  1  0
  6 13  1  0
  6 14  1  0
  7 15  1  0
 15 16  1  0
 15 20  1  0
 15 21  1  0
 16 17  1  0
 16 22  1  0
 16 23  1  0
 17 18  1  0
 18 19  1  0
 18 24  1  0
 18 25  1  0
 19 26  1  0
 19 27  1  0
 19 28  1  0
M  RAD  1   1   2
M  END
>  <reaction>  (15) 
rmg_rxn_195

>  <mol_properties>  (15) 
{"0": {"label": "*1", "atom_type": "Cs"}, "1": {"label": "*0", "atom_type": "Cs"}, "6": {"label": "*2", "atom_type": "H0"}, "14": {"label": "*3", "atom_type": "Cs"}, "15": {"label": "*4", "atom_type": "Cs"}}

>  <type>  (15) 
unop_11

>  <geom_source>  (15) 
Heuristics

$$$$

     RDKit          3D

 28 27  0  0  0  0  0  0  0  0999 V2000
    1.1828    1.1217    0.5905 C   0  0  0  0  0  3  0  0  0  0  0  0
    1.1828    1.1217   -0.9315 C   0  0  0  0  0  0  0  0  0  0  0  0
    1.1828    2.4481   -1.4236 O   0  0  0  0  0  0  0  0  0  0  0  0
    0.1000    3.1724   -0.9243 C   0  0  0  0  0  0  0  0  0  0  0  0
    0.1113    3.2787    0.4668 O   0  0  0  0  0  0  0  0  0  0  0  0
    0.0434    2.0050    1.0786 C   0  0  0  0  0  0  0  0  0  0  0  0
    1.0453   -0.0986    1.0488 H   0  0  0  0  0  0  0  0  0  0  0  0
    2.1322    1.5202    0.9536 H   0  0  0  0  0  0  0  0  0  0  0  0
    2.0686    0.6362   -1.3388 H   0  0  0  0  0  0  0  0  0  0  0  0
    0.2953    0.5905   -1.3082 H   0  0  0  0  0  0  0  0  0  0  0  0
   -0.8425    2.6943   -1.2485 H   0  0  0  0  0  0  0  0  0  0  0  0
    0.1723    4.1806   -1.3263 H   0  0  0  0  0  0  0  0  0  0  0  0
   -0.9242    1.5359    0.8433 H   0  0  0  0  0  0  0  0  0  0  0  0
    0.0887    2.1710    2.1541 H   0  0  0  0  0  0  0  0  0  0  0  0
    0.9079   -1.3170    1.5063 C   0  0  0  0  0  0  0  0  0  0  0  0
    0.7954   -2.3154    0.3660 C   0  0  0  0  0  0  0  0  0  0  0  0
   -0.5202   -1.9674   -0.8282 S   0  0  0  0  0  0  0  0  0  0  0  0
   -2.0030   -2.0282    0.2091 C   0  0  0  0  0  0  0  0  0  0  0  0
   -2.2523   -3.3611    0.8953 C   0  0  0  0  0  0  0  0  0  0  0  0
    0.0245   -1.3406    2.1465 H   0  0  0  0  0  0  0  0  0  0  0  0
    1.7720   -1.5522    2.1316 H   0  0  0  0  0  0  0  0  0  0  0  0
    0.6808   -3.3315    0.7471 H   0  0  0  0  0  0  0  0  0  0  0  0
    1.7036   -2.3072   -0.2389 H   0  0  0  0  0  0  0  0  0  0  0  0
   -1.9713   -1.2151    0.9362 H   0  0  0  0  0  0  0  0  0  0  0  0
   -2.8140   -1.7986   -0.4840 H   0  0  0  0  0  0  0  0  0  0  0  0
   -1.4712   -3.5880    1.6229 H   0  0  0  0  0  0  0  0  0  0  0  0
   -3.2033   -3.3387    1.4319 H   0  0  0  0  0  0  0  0  0  0  0  0
   -2.2837   -4.1734    0.1683 H   0  0  0  0  0  0  0  0  0  0  0  0
  1  2  1  0
  1  6  1  0
  1  8  1  0
  2  3  1  0
  2  9  1  0
  2 10  1  0
  3  4  1  0
  4  5  1  0
  4 11  1  0
  4 12  1  0
  5  6  1  0
  6 13  1  0
  6 14  1  0
  7 15  1  0
 15 16  1  0
 15 20  1  0
 15 21  1  0
 16 17  1  0
 16 22  1  0
 16 23  1  0
 17 18  1  0
 18 19  1  0
 18 24  1  0
 18 25  1  0
 19 26  1  0
 19 27  1  0
 19 28  1  0
M  RAD  1   1   2
M  END
>  <reaction>  (16) 
rmg_rxn_195

>  <mol_properties>  (16) 
{"0": {"label": "*1", "atom_type": "Cs"}, "1": {"label": "*0", "atom_type": "Cs"}, "6": {"label": "*2", "atom_type": "H0"}, "14": {"label": "*3", "atom_type": "Cs"}, "15": {"label": "*4", "atom_type": "Cs"}}

>  <type>  (16) 
unop_12

>  <geom_source>  (16) 
Heuristics

$$$$

     RDKit          3D

 28 25  0  0  0  0  0  0  0  0999 V2000
   -1.9248    0.8073    0.7747 S   0  0  0  0  0  0  0  0  0  0  0  0
    3.6806    1.0659   -1.0737 O   0  0  0  0  0  0  0  0  0  0  0  0
    3.5476    0.0233    1.0824 O   0  0  0  0  0  3  0  0  0  0  0  0
   -1.4790   -0.9547    0.5749 C   0  0  0  0  0  0  0  0  0  0  0  0
   -3.4874    0.7491   -0.1743 C   0  0  0  0  0  0  0  0  0  0  0  0
    2.2767    1.0967   -0.9400 C   0  0  0  0  0  3  0  0  0  0  0  0
    2.8256   -0.9507    0.3610 C   0  0  0  0  0  0  0  0  0  0  0  0
   -0.6625   -1.1556   -0.6937 C   0  0  0  0  0  0  0  0  0  0  0  0
   -4.6521    0.3811    0.7353 C   0  0  0  0  0  0  0  0  0  0  0  0
    4.2952    0.8484    0.1932 C   0  0  0  0  0  0  0  0  0  0  0  0
    1.7673   -0.2761   -0.5085 C   0  0  0  0  0  1  0  0  0  0  0  0
   -2.3805   -1.6020    0.5547 H   0  0  0  0  0  0  0  0  0  0  0  0
   -0.8612   -1.2561    1.4464 H   0  0  0  0  0  0  0  0  0  0  0  0
   -3.4221    0.0305   -1.0179 H   0  0  0  0  0  0  0  0  0  0  0  0
   -3.6716    1.7578   -0.6003 H   0  0  0  0  0  0  0  0  0  0  0  0
   -0.3655   -2.2219   -0.7807 H   0  0  0  0  0  0  0  0  0  0  0  0
   -1.2571   -0.8775   -1.5886 H   0  0  0  0  0  0  0  0  0  0  0  0
    0.4109   -0.4237   -0.6487 H   0  0  0  0  0  0  0  0  0  0  0  0
   -4.5045   -0.6303    1.1675 H   0  0  0  0  0  0  0  0  0  0  0  0
   -4.7411    1.1205    1.5593 H   0  0  0  0  0  0  0  0  0  0  0  0
   -5.5959    0.3834    0.1505 H   0  0  0  0  0  0  0  0  0  0  0  0
    1.8247    1.3510   -1.9208 H   0  0  0  0  0  0  0  0  0  0  0  0
    1.9679    1.8806   -0.2103 H   0  0  0  0  0  0  0  0  0  0  0  0
    2.3312   -1.6415    1.0759 H   0  0  0  0  0  0  0  0  0  0  0  0
    3.5084   -1.5590   -0.2745 H   0  0  0  0  0  0  0  0  0  0  0  0
    4.4673    1.8307    0.6820 H   0  0  0  0  0  0  0  0  0  0  0  0
    5.2920    0.3872    0.0286 H   0  0  0  0  0  0  0  0  0  0  0  0
    0.8099   -0.1647    0.0453 H   0  0  0  0  0  0  0  0  0  0  0  0
  1  4  1  0
  1  5  1  0
  2  6  1  0
  2 10  1  0
  3  7  2  3
  3 10  1  0
  4  8  1  0
  4 12  1  0
  4 13  1  0
  5  9  1  0
  5 14  1  0
  5 15  1  0
  6 22  1  0
  6 23  1  0
  7 24  1  0
  7 25  1  0
  8 16  1  0
  8 17  1  0
  8 18  1  0
  9 19  1  0
  9 20  1  0
  9 21  1  0
 10 26  1  0
 10 27  1  0
 11 28  1  0
M  CHG  2   3   1   6  -1
M  RAD  1  11   2
M  END
>  <reaction>  (17) 
rmg_rxn_195

>  <mol_properties>  (17) 
{"0": {"label": "*1", "atom_type": "Cs"}, "1": {"label": "*0", "atom_type": "Cs"}, "6": {"label": "*2", "atom_type": "H0"}, "14": {"label": "*3", "atom_type": "Cs"}, "15": {"label": "*4", "atom_type": "Cs"}}

>  <type>  (17) 
unop_13

>  <geom_source>  (17) 
AutoTST

$$$$

     RDKit          3D

 28 27  0  0  0  0  0  0  0  0999 V2000
    0.7429    1.4282    0.6772 C   0  0  0  0  0  3  0  0  0  0  0  0
    0.7429    1.4282   -0.8448 C   0  0  0  0  0  0  0  0  0  0  0  0
    0.7429    2.7546   -1.3370 O   0  0  0  0  0  0  0  0  0  0  0  0
   -0.3399    3.4789   -0.8376 C   0  0  0  0  0  0  0  0  0  0  0  0
   -0.3286    3.5852    0.5534 O   0  0  0  0  0  0  0  0  0  0  0  0
   -0.3965    2.3114    1.1653 C   0  0  0  0  0  0  0  0  0  0  0  0
    0.6053    0.2078    1.1354 H   0  0  0  0  0  0  0  0  0  0  0  0
    1.6922    1.8267    1.0402 H   0  0  0  0  0  0  0  0  0  0  0  0
    1.6287    0.9427   -1.2522 H   0  0  0  0  0  0  0  0  0  0  0  0
   -0.1446    0.8969   -1.2216 H   0  0  0  0  0  0  0  0  0  0  0  0
   -1.2825    3.0008   -1.1619 H   0  0  0  0  0  0  0  0  0  0  0  0
   -0.2676    4.4870   -1.2396 H   0  0  0  0  0  0  0  0  0  0  0  0
   -1.3642    1.8423    0.9300 H   0  0  0  0  0  0  0  0  0  0  0  0
   -0.3512    2.4774    2.2407 H   0  0  0  0  0  0  0  0  0  0  0  0
    0.4680   -1.0106    1.5929 C   0  0  0  0  0  0  0  0  0  0  0  0
    1.0682   -2.0223    0.6308 C   0  0  0  0  0  0  0  0  0  0  0  0
    0.1124   -2.3001   -0.8816 S   0  0  0  0  0  0  0  0  0  0  0  0
   -1.4633   -2.9097   -0.2306 C   0  0  0  0  0  0  0  0  0  0  0  0
   -1.3704   -4.1931    0.5780 C   0  0  0  0  0  0  0  0  0  0  0  0
   -0.4819   -1.3612    2.0000 H   0  0  0  0  0  0  0  0  0  0  0  0
    1.1430   -0.8420    2.4349 H   0  0  0  0  0  0  0  0  0  0  0  0
    1.2454   -2.9769    1.1291 H   0  0  0  0  0  0  0  0  0  0  0  0
    2.0358   -1.6740    0.2658 H   0  0  0  0  0  0  0  0  0  0  0  0
   -1.9483   -2.1200    0.3455 H   0  0  0  0  0  0  0  0  0  0  0  0
   -2.0703   -3.0650   -1.1240 H   0  0  0  0  0  0  0  0  0  0  0  0
   -0.8005   -4.0458    1.4969 H   0  0  0  0  0  0  0  0  0  0  0  0
   -2.3682   -4.5344    0.8625 H   0  0  0  0  0  0  0  0  0  0  0  0
   -0.8855   -4.9821    0.0020 H   0  0  0  0  0  0  0  0  0  0  0  0
  1  2  1  0
  1  6  1  0
  1  8  1  0
  2  3  1  0
  2  9  1  0
  2 10  1  0
  3  4  1  0
  4  5  1  0
  4 11  1  0
  4 12  1  0
  5  6  1  0
  6 13  1  0
  6 14  1  0
  7 15  1  0
 15 16  1  0
 15 20  1  0
 15 21  1  0
 16 17  1  0
 16 22  1  0
 16 23  1  0
 17 18  1  0
 18 19  1  0
 18 24  1  0
 18 25  1  0
 19 26  1  0
 19 27  1  0
 19 28  1  0
M  RAD  1   1   2
M  END
>  <reaction>  (18) 
rmg_rxn_195

>  <mol_properties>  (18) 
{"0": {"label": "*1", "atom_type": "Cs"}, "1": {"label": "*0", "atom_type": "Cs"}, "6": {"label": "*2", "atom_type": "H0"}, "14": {"label": "*3", "atom_type": "Cs"}, "15": {"label": "*4", "atom_type": "Cs"}}

>  <type>  (18) 
unop_14

>  <geom_source>  (18) 
gaussian_log

$$$$
