
     RDKit          3D

 10  9  0  0  0  0  0  0  0  0999 V2000
    2.0403   -0.0576    0.0117 C   0  0  0  0  0  0  0  0  0  0  0  0
    0.5945   -0.0168    0.1897 C   0  0  0  0  0  0  0  0  0  0  0  0
   -0.5945    0.0167    0.3361 C   0  0  0  0  0  0  0  0  0  0  0  0
   -2.0403    0.0576    0.5141 C   0  0  0  0  0  0  0  0  0  0  0  0
    2.4704    0.9425    0.0887 H   0  0  0  0  0  0  0  0  0  0  0  0
    2.3007   -0.4622   -0.9679 H   0  0  0  0  0  0  0  0  0  0  0  0
    2.5086   -0.6856    0.7714 H   0  0  0  0  0  0  0  0  0  0  0  0
   -2.3710    1.0616    0.7852 H   0  0  0  0  0  0  0  0  0  0  0  0
   -2.3547   -0.6260    1.3046 H   0  0  0  0  0  0  0  0  0  0  0  0
   -2.5540   -0.2302   -0.4048 H   0  0  0  0  0  0  0  0  0  0  0  0
  1  2  1  0
  1  5  1  0
  1  6  1  0
  1  7  1  0
  2  3  3  0
  3  4  1  0
  4  8  1  0
  4  9  1  0
  4 10  1  0
M  END
>  <reaction>  (1) 
rmg_rxn_505

>  <mol_properties>  (1) 
{"3": {"label": "donator", "atom_type": "Cs"}, "9": {"label": "d_hydrogen", "atom_type": "H0"}}

>  <type>  (1) 
r1h

$$$$

     RDKit          3D

 10  9  0  0  0  0  0  0  0  0999 V2000
    1.4352    0.2660   -0.1351 C   0  0  0  0  0  3  0  0  0  0  0  0
    0.2236   -0.3243    0.4850 C   0  0  0  0  0  0  0  0  0  0  0  0
   -0.8893    0.6872    0.7364 C   0  0  0  0  0  0  0  0  0  0  0  0
    2.3577   -0.2958   -0.1940 H   0  0  0  0  0  0  0  0  0  0  0  0
    1.3935    1.2286   -0.6287 H   0  0  0  0  0  0  0  0  0  0  0  0
   -0.1633   -1.1318   -0.1556 H   0  0  0  0  0  0  0  0  0  0  0  0
    0.4945   -0.8215    1.4240 H   0  0  0  0  0  0  0  0  0  0  0  0
   -1.1991    1.1627   -0.1967 H   0  0  0  0  0  0  0  0  0  0  0  0
   -1.7660    0.2103    1.1768 H   0  0  0  0  0  0  0  0  0  0  0  0
   -0.5545    1.4732    1.4159 H   0  0  0  0  0  0  0  0  0  0  0  0
  1  2  1  0
  1  4  1  0
  1  5  1  0
  2  3  1  0
  2  6  1  0
  2  7  1  0
  3  8  1  0
  3  9  1  0
  3 10  1  0
M  RAD  1   1   2
M  END
>  <reaction>  (2) 
rmg_rxn_505

>  <mol_properties>  (2) 
{"0": {"label": "acceptor", "atom_type": "Cs"}}

>  <type>  (2) 
r2

$$$$

     RDKit          3D

 11 10  0  0  0  0  0  0  0  0999 V2000
   -1.2710    0.1907   -0.2084 C   0  0  0  0  0  0  0  0  0  0  0  0
    0.0202   -0.6130   -0.2928 C   0  0  0  0  0  0  0  0  0  0  0  0
    0.1086   -1.6953    0.7756 C   0  0  0  0  0  0  0  0  0  0  0  0
   -1.3607    0.6851    0.7620 H   0  0  0  0  0  0  0  0  0  0  0  0
   -2.1429   -0.4567   -0.3299 H   0  0  0  0  0  0  0  0  0  0  0  0
   -1.3158    0.9602   -0.9809 H   0  0  0  0  0  0  0  0  0  0  0  0
    0.8757    0.0616   -0.1992 H   0  0  0  0  0  0  0  0  0  0  0  0
    0.0997   -1.0712   -1.2825 H   0  0  0  0  0  0  0  0  0  0  0  0
   -0.7198   -2.4022    0.6850 H   0  0  0  0  0  0  0  0  0  0  0  0
    1.0395   -2.2596    0.6989 H   0  0  0  0  0  0  0  0  0  0  0  0
    0.0624   -1.2603    1.7770 H   0  0  0  0  0  0  0  0  0  0  0  0
  1  2  1  0
  1  4  1  0
  1  5  1  0
  1  6  1  0
  2  3  1  0
  2  7  1  0
  2  8  1  0
  3  9  1  0
  3 10  1  0
  3 11  1  0
M  END
>  <reaction>  (3) 
rmg_rxn_505

>  <mol_properties>  (3) 
{"0": {"label": "acceptor", "atom_type": "Cs"}, "10": {"label": "a_hydrogen", "atom_type": "H0"}}

>  <type>  (3) 
r2h

$$$$

     RDKit          3D

 20 18  0  0  0  0  0  0  0  0999 V2000
    0.8850    0.7769    2.0800 C   0  0  0  0  0  3  0  0  0  0  0  0
    0.1098    1.7173    1.2010 C   0  0  0  0  0  0  0  0  0  0  0  0
   -1.3917    1.4592    1.2311 C   0  0  0  0  0  0  0  0  0  0  0  0
    1.9656    0.9035    2.0736 H   0  0  0  0  0  0  0  0  0  0  0  0
    0.4860    0.6328    3.0833 H   0  0  0  0  0  0  0  0  0  0  0  0
    0.3099    2.7517    1.5083 H   0  0  0  0  0  0  0  0  0  0  0  0
    0.4751    1.6312    0.1732 H   0  0  0  0  0  0  0  0  0  0  0  0
   -1.7835    1.5488    2.2471 H   0  0  0  0  0  0  0  0  0  0  0  0
   -1.9279    2.1704    0.6009 H   0  0  0  0  0  0  0  0  0  0  0  0
   -1.6184    0.4552    0.8675 H   0  0  0  0  0  0  0  0  0  0  0  0
   -0.3128   -0.5624   -3.0104 C   0  0  0  0  0  0  0  0  0  0  0  0
    0.0043   -0.9530   -1.6442 C   0  0  0  0  0  0  0  0  0  0  0  0
    0.2636   -1.2870   -0.5173 C   0  0  0  0  0  0  0  0  0  0  0  0
    0.5682   -1.6004    0.8422 C   0  0  0  0  0  0  0  0  0  0  0  0
    0.4997   -0.8255   -3.6899 H   0  0  0  0  0  0  0  0  0  0  0  0
   -0.4747    0.5153   -3.0808 H   0  0  0  0  0  0  0  0  0  0  0  0
   -1.2192   -1.0612   -3.3584 H   0  0  0  0  0  0  0  0  0  0  0  0
    1.5175   -2.1136    0.9839 H   0  0  0  0  0  0  0  0  0  0  0  0
   -0.2397   -2.0933    1.3800 H   0  0  0  0  0  0  0  0  0  0  0  0
    0.7292   -0.4760    1.4869 H   0  0  0  0  0  0  0  0  0  0  0  0
  1  2  1  0
  1  4  1  0
  1  5  1  0
  2  3  1  0
  2  6  1  0
  2  7  1  0
  3  8  1  0
  3  9  1  0
  3 10  1  0
 11 12  1  0
 11 15  1  0
 11 16  1  0
 11 17  1  0
 12 13  3  0
 13 14  1  0
 14 18  1  0
 14 19  1  0
 14 20  1  0
M  RAD  1   1   2
M  END
>  <reaction>  (4) 
rmg_rxn_505

>  <mol_properties>  (4) 
{"0": {"label": "*3", "atom_type": "Cs"}, "1": {"label": "*4", "atom_type": "Cs"}, "12": {"label": "*0", "atom_type": "Ct"}, "13": {"label": "*1", "atom_type": "Cs"}, "19": {"label": "*2", "atom_type": "H0"}}

>  <type>  (4) 
ts

$$$$

     RDKit          3D

 20 18  0  0  0  0  0  0  0  0999 V2000
    0.9922    1.1894    1.3207 C   0  0  0  0  0  3  0  0  0  0  0  0
   -0.0501    1.8940    2.1795 C   0  0  0  0  0  0  0  0  0  0  0  0
   -1.1331    0.9479    2.6819 C   0  0  0  0  0  0  0  0  0  0  0  0
    1.7587    1.8829    0.9705 H   0  0  0  0  0  0  0  0  0  0  0  0
    1.4904    0.3961    1.8832 H   0  0  0  0  0  0  0  0  0  0  0  0
    0.4420    2.3696    3.0323 H   0  0  0  0  0  0  0  0  0  0  0  0
   -0.5108    2.7015    1.6036 H   0  0  0  0  0  0  0  0  0  0  0  0
   -0.7020    0.1469    3.2874 H   0  0  0  0  0  0  0  0  0  0  0  0
   -1.8697    1.4704    3.2945 H   0  0  0  0  0  0  0  0  0  0  0  0
   -1.6623    0.4814    1.8474 H   0  0  0  0  0  0  0  0  0  0  0  0
    0.0606   -1.0748   -3.7274 C   0  0  0  0  0  0  0  0  0  0  0  0
    0.0606   -1.0748   -2.2701 C   0  0  0  0  0  0  0  0  0  0  0  0
    0.0606   -1.0748   -1.0716 C   0  0  0  0  0  0  0  0  0  0  0  0
    0.0606   -1.0748    0.3856 C   0  0  0  0  0  0  0  0  0  0  0  0
    0.7602   -1.8164   -4.1167 H   0  0  0  0  0  0  0  0  0  0  0  0
    0.3531   -0.0981   -4.1167 H   0  0  0  0  0  0  0  0  0  0  0  0
   -0.9314   -1.3098   -4.1168 H   0  0  0  0  0  0  0  0  0  0  0  0
    0.6832   -1.8821    0.7749 H   0  0  0  0  0  0  0  0  0  0  0  0
   -0.9499   -1.2103    0.7749 H   0  0  0  0  0  0  0  0  0  0  0  0
    0.5261    0.0566    0.8528 H   0  0  0  0  0  0  0  0  0  0  0  0
  1  2  1  0
  1  4  1  0
  1  5  1  0
  2  3  1  0
  2  6  1  0
  2  7  1  0
  3  8  1  0
  3  9  1  0
  3 10  1  0
 11 12  1  0
 11 15  1  0
 11 16  1  0
 11 17  1  0
 12 13  3  0
 13 14  1  0
 14 18  1  0
 14 19  1  0
 14 20  1  0
M  RAD  1   1   2
M  END
>  <reaction>  (5) 
rmg_rxn_505

>  <mol_properties>  (5) 
{"0": {"label": "*3", "atom_type": "Cs"}, "1": {"label": "*4", "atom_type": "Cs"}, "12": {"label": "*0", "atom_type": "Ct"}, "13": {"label": "*1", "atom_type": "Cs"}, "19": {"label": "*2", "atom_type": "H0"}}

>  <type>  (5) 
unop_1

>  <geom_source>  (5) 
Heuristics

$$$$

     RDKit          3D

 20 18  0  0  0  0  0  0  0  0999 V2000
    0.8231    0.9165    2.0356 C   0  0  0  0  0  3  0  0  0  0  0  0
    0.5261    2.0641    1.0789 C   0  0  0  0  0  0  0  0  0  0  0  0
   -0.8785    1.9916    0.4938 C   0  0  0  0  0  0  0  0  0  0  0  0
    1.8327    0.9857    2.4440 H   0  0  0  0  0  0  0  0  0  0  0  0
    0.1223    0.9155    2.8740 H   0  0  0  0  0  0  0  0  0  0  0  0
    0.6539    3.0161    1.6016 H   0  0  0  0  0  0  0  0  0  0  0  0
    1.2591    2.0605    0.2675 H   0  0  0  0  0  0  0  0  0  0  0  0
   -1.6329    2.0245    1.2836 H   0  0  0  0  0  0  0  0  0  0  0  0
   -1.0723    2.8212   -0.1883 H   0  0  0  0  0  0  0  0  0  0  0  0
   -1.0230    1.0614   -0.0611 H   0  0  0  0  0  0  0  0  0  0  0  0
   -0.1085   -1.3477   -3.0124 C   0  0  0  0  0  0  0  0  0  0  0  0
   -0.1085   -1.3477   -1.5552 C   0  0  0  0  0  0  0  0  0  0  0  0
   -0.1085   -1.3477   -0.3567 C   0  0  0  0  0  0  0  0  0  0  0  0
   -0.1085   -1.3477    1.1006 C   0  0  0  0  0  0  0  0  0  0  0  0
    0.5910   -2.0894   -3.4017 H   0  0  0  0  0  0  0  0  0  0  0  0
    0.1839   -0.3711   -3.4017 H   0  0  0  0  0  0  0  0  0  0  0  0
   -1.1006   -1.5828   -3.4018 H   0  0  0  0  0  0  0  0  0  0  0  0
    0.5140   -2.1551    1.4899 H   0  0  0  0  0  0  0  0  0  0  0  0
   -1.1190   -1.4832    1.4899 H   0  0  0  0  0  0  0  0  0  0  0  0
    0.3570   -0.2164    1.5678 H   0  0  0  0  0  0  0  0  0  0  0  0
  1  2  1  0
  1  4  1  0
  1  5  1  0
  2  3  1  0
  2  6  1  0
  2  7  1  0
  3  8  1  0
  3  9  1  0
  3 10  1  0
 11 12  1  0
 11 15  1  0
 11 16  1  0
 11 17  1  0
 12 13  3  0
 13 14  1  0
 14 18  1  0
 14 19  1  0
 14 20  1  0
M  RAD  1   1   2
M  END
>  <reaction>  (6) 
rmg_rxn_505

>  <mol_properties>  (6) 
{"0": {"label": "*3", "atom_type": "Cs"}, "1": {"label": "*4", "atom_type": "Cs"}, "12": {"label": "*0", "atom_type": "Ct"}, "13": {"label": "*1", "atom_type": "Cs"}, "19": {"label": "*2", "atom_type": "H0"}}

>  <type>  (6) 
unop_2

>  <geom_source>  (6) 
Heuristics

$$$$

     RDKit          3D

 20 18  0  0  0  0  0  0  0  0999 V2000
    0.7553    1.3445    1.1313 C   0  0  0  0  0  3  0  0  0  0  0  0
    0.1238    1.6791    2.4765 C   0  0  0  0  0  0  0  0  0  0  0  0
   -0.2367    0.4366    3.2808 C   0  0  0  0  0  0  0  0  0  0  0  0
    1.0062    2.2464    0.5704 H   0  0  0  0  0  0  0  0  0  0  0  0
    1.6731    0.7664    1.2635 H   0  0  0  0  0  0  0  0  0  0  0  0
    0.8109    2.3014    3.0565 H   0  0  0  0  0  0  0  0  0  0  0  0
   -0.7741    2.2827    2.3171 H   0  0  0  0  0  0  0  0  0  0  0  0
    0.6499   -0.1700    3.4808 H   0  0  0  0  0  0  0  0  0  0  0  0
   -0.6873    0.6965    4.2401 H   0  0  0  0  0  0  0  0  0  0  0  0
   -0.9477   -0.1889    2.7356 H   0  0  0  0  0  0  0  0  0  0  0  0
   -0.1763   -0.9197   -3.9168 C   0  0  0  0  0  0  0  0  0  0  0  0
   -0.1763   -0.9197   -2.4595 C   0  0  0  0  0  0  0  0  0  0  0  0
   -0.1763   -0.9197   -1.2610 C   0  0  0  0  0  0  0  0  0  0  0  0
   -0.1763   -0.9197    0.1962 C   0  0  0  0  0  0  0  0  0  0  0  0
    0.5232   -1.6614   -4.3061 H   0  0  0  0  0  0  0  0  0  0  0  0
    0.1161    0.0569   -4.3061 H   0  0  0  0  0  0  0  0  0  0  0  0
   -1.1684   -1.1548   -4.3062 H   0  0  0  0  0  0  0  0  0  0  0  0
    0.4462   -1.7271    0.5855 H   0  0  0  0  0  0  0  0  0  0  0  0
   -1.1868   -1.0552    0.5855 H   0  0  0  0  0  0  0  0  0  0  0  0
    0.2892    0.2117    0.6634 H   0  0  0  0  0  0  0  0  0  0  0  0
  1  2  1  0
  1  4  1  0
  1  5  1  0
  2  3  1  0
  2  6  1  0
  2  7  1  0
  3  8  1  0
  3  9  1  0
  3 10  1  0
 11 12  1  0
 11 15  1  0
 11 16  1  0
 11 17  1  0
 12 13  3  0
 13 14  1  0
 14 18  1  0
 14 19  1  0
 14 20  1  0
M  RAD  1   1   2
M  END
>  <reaction>  (7) 
rmg_rxn_505

>  <mol_properties>  (7) 
{"0": {"label": "*3", "atom_type": "Cs"}, "1": {"label": "*4", "atom_type": "Cs"}, "12": {"label": "*0", "atom_type": "Ct"}, "13": {"label": "*1", "atom_type": "Cs"}, "19": {"label": "*2", "atom_type": "H0"}}

>  <type>  (7) 
unop_3

>  <geom_source>  (7) 
Heuristics

$$$$

     RDKit          3D

 20 18  0  0  0  0  0  0  0  0999 V2000
    0.0742    1.0595    1.9985 C   0  0  0  0  0  3  0  0  0  0  0  0
    1.5037    1.2959    1.5283 C   0  0  0  0  0  0  0  0  0  0  0  0
    1.5704    2.0860    0.2276 C   0  0  0  0  0  0  0  0  0  0  0  0
    0.0470    0.4926    2.9306 H   0  0  0  0  0  0  0  0  0  0  0  0
   -0.4431    2.0071    2.1679 H   0  0  0  0  0  0  0  0  0  0  0  0
    2.0595    1.8272    2.3058 H   0  0  0  0  0  0  0  0  0  0  0  0
    2.0071    0.3342    1.3962 H   0  0  0  0  0  0  0  0  0  0  0  0
    1.1003    3.0659    0.3412 H   0  0  0  0  0  0  0  0  0  0  0  0
    2.6014    2.2450   -0.0928 H   0  0  0  0  0  0  0  0  0  0  0  0
    1.0476    1.5610   -0.5756 H   0  0  0  0  0  0  0  0  0  0  0  0
   -0.8575   -1.2047   -3.0495 C   0  0  0  0  0  0  0  0  0  0  0  0
   -0.8575   -1.2047   -1.5923 C   0  0  0  0  0  0  0  0  0  0  0  0
   -0.8575   -1.2047   -0.3938 C   0  0  0  0  0  0  0  0  0  0  0  0
   -0.8575   -1.2047    1.0635 C   0  0  0  0  0  0  0  0  0  0  0  0
   -0.1579   -1.9463   -3.4389 H   0  0  0  0  0  0  0  0  0  0  0  0
   -0.5650   -0.2280   -3.4389 H   0  0  0  0  0  0  0  0  0  0  0  0
   -1.8495   -1.4397   -3.4389 H   0  0  0  0  0  0  0  0  0  0  0  0
   -0.2349   -2.0121    1.4528 H   0  0  0  0  0  0  0  0  0  0  0  0
   -1.8679   -1.3402    1.4528 H   0  0  0  0  0  0  0  0  0  0  0  0
   -0.3919   -0.0733    1.5307 H   0  0  0  0  0  0  0  0  0  0  0  0
  1  2  1  0
  1  4  1  0
  1  5  1  0
  2  3  1  0
  2  6  1  0
  2  7  1  0
  3  8  1  0
  3  9  1  0
  3 10  1  0
 11 12  1  0
 11 15  1  0
 11 16  1  0
 11 17  1  0
 12 13  3  0
 13 14  1  0
 14 18  1  0
 14 19  1  0
 14 20  1  0
M  RAD  1   1   2
M  END
>  <reaction>  (8) 
rmg_rxn_505

>  <mol_properties>  (8) 
{"0": {"label": "*3", "atom_type": "Cs"}, "1": {"label": "*4", "atom_type": "Cs"}, "12": {"label": "*0", "atom_type": "Ct"}, "13": {"label": "*1", "atom_type": "Cs"}, "19": {"label": "*2", "atom_type": "H0"}}

>  <type>  (8) 
unop_4

>  <geom_source>  (8) 
Heuristics

$$$$

     RDKit          3D

 20 18  0  0  0  0  0  0  0  0999 V2000
    0.3814    1.4211    1.1139 C   0  0  0  0  0  3  0  0  0  0  0  0
    0.3818    1.4222    2.6373 C   0  0  0  0  0  0  0  0  0  0  0  0
    1.2354    0.3054    3.2245 C   0  0  0  0  0  0  0  0  0  0  0  0
   -0.2348    2.2273    0.7124 H   0  0  0  0  0  0  0  0  0  0  0  0
    1.3939    1.5472    0.7229 H   0  0  0  0  0  0  0  0  0  0  0  0
    0.7453    2.3875    3.0005 H   0  0  0  0  0  0  0  0  0  0  0  0
   -0.6447    1.3258    3.0016 H   0  0  0  0  0  0  0  0  0  0  0  0
    2.2748    0.3964    2.9000 H   0  0  0  0  0  0  0  0  0  0  0  0
    1.2231    0.3227    4.3156 H   0  0  0  0  0  0  0  0  0  0  0  0
    0.8739   -0.6737    2.9012 H   0  0  0  0  0  0  0  0  0  0  0  0
   -0.5502   -0.8431   -3.9341 C   0  0  0  0  0  0  0  0  0  0  0  0
   -0.5502   -0.8431   -2.4769 C   0  0  0  0  0  0  0  0  0  0  0  0
   -0.5502   -0.8431   -1.2784 C   0  0  0  0  0  0  0  0  0  0  0  0
   -0.5502   -0.8431    0.1789 C   0  0  0  0  0  0  0  0  0  0  0  0
    0.1494   -1.5847   -4.3234 H   0  0  0  0  0  0  0  0  0  0  0  0
   -0.2577    0.1336   -4.3234 H   0  0  0  0  0  0  0  0  0  0  0  0
   -1.5423   -1.0781   -4.3235 H   0  0  0  0  0  0  0  0  0  0  0  0
    0.0723   -1.6505    0.5682 H   0  0  0  0  0  0  0  0  0  0  0  0
   -1.5607   -0.9786    0.5682 H   0  0  0  0  0  0  0  0  0  0  0  0
   -0.0847    0.2883    0.6461 H   0  0  0  0  0  0  0  0  0  0  0  0
  1  2  1  0
  1  4  1  0
  1  5  1  0
  2  3  1  0
  2  6  1  0
  2  7  1  0
  3  8  1  0
  3  9  1  0
  3 10  1  0
 11 12  1  0
 11 15  1  0
 11 16  1  0
 11 17  1  0
 12 13  3  0
 13 14  1  0
 14 18  1  0
 14 19  1  0
 14 20  1  0
M  RAD  1   1   2
M  END
>  <reaction>  (9) 
rmg_rxn_505

>  <mol_properties>  (9) 
{"0": {"label": "*3", "atom_type": "Cs"}, "1": {"label": "*4", "atom_type": "Cs"}, "12": {"label": "*0", "atom_type": "Ct"}, "13": {"label": "*1", "atom_type": "Cs"}, "19": {"label": "*2", "atom_type": "H0"}}

>  <type>  (9) 
unop_5

>  <geom_source>  (9) 
Heuristics

$$$$

     RDKit          3D

 20 18  0  0  0  0  0  0  0  0999 V2000
   -0.0558    1.1754    1.7747 C   0  0  0  0  0  3  0  0  0  0  0  0
    1.4534    1.1046    1.9690 C   0  0  0  0  0  0  0  0  0  0  0  0
    2.2235    1.7422    0.8196 C   0  0  0  0  0  0  0  0  0  0  0  0
   -0.5895    0.7141    2.6073 H   0  0  0  0  0  0  0  0  0  0  0  0
   -0.3912    2.2124    1.6956 H   0  0  0  0  0  0  0  0  0  0  0  0
    1.7234    1.5987    2.9064 H   0  0  0  0  0  0  0  0  0  0  0  0
    1.7580    0.0598    2.0759 H   0  0  0  0  0  0  0  0  0  0  0  0
    1.9599    2.7970    0.7104 H   0  0  0  0  0  0  0  0  0  0  0  0
    3.3018    1.6817    0.9768 H   0  0  0  0  0  0  0  0  0  0  0  0
    1.9949    1.2459   -0.1266 H   0  0  0  0  0  0  0  0  0  0  0  0
   -0.9874   -1.0888   -3.2734 C   0  0  0  0  0  0  0  0  0  0  0  0
   -0.9874   -1.0888   -1.8161 C   0  0  0  0  0  0  0  0  0  0  0  0
   -0.9874   -1.0888   -0.6176 C   0  0  0  0  0  0  0  0  0  0  0  0
   -0.9874   -1.0888    0.8396 C   0  0  0  0  0  0  0  0  0  0  0  0
   -0.2878   -1.8304   -3.6627 H   0  0  0  0  0  0  0  0  0  0  0  0
   -0.6949   -0.1121   -3.6627 H   0  0  0  0  0  0  0  0  0  0  0  0
   -1.9794   -1.3238   -3.6627 H   0  0  0  0  0  0  0  0  0  0  0  0
   -0.3648   -1.8962    1.2290 H   0  0  0  0  0  0  0  0  0  0  0  0
   -1.9979   -1.2243    1.2290 H   0  0  0  0  0  0  0  0  0  0  0  0
   -0.5219    0.0426    1.3069 H   0  0  0  0  0  0  0  0  0  0  0  0
  1  2  1  0
  1  4  1  0
  1  5  1  0
  2  3  1  0
  2  6  1  0
  2  7  1  0
  3  8  1  0
  3  9  1  0
  3 10  1  0
 11 12  1  0
 11 15  1  0
 11 16  1  0
 11 17  1  0
 12 13  3  0
 13 14  1  0
 14 18  1  0
 14 19  1  0
 14 20  1  0
M  RAD  1   1   2
M  END
>  <reaction>  (10) 
rmg_rxn_505

>  <mol_properties>  (10) 
{"0": {"label": "*3", "atom_type": "Cs"}, "1": {"label": "*4", "atom_type": "Cs"}, "12": {"label": "*0", "atom_type": "Ct"}, "13": {"label": "*1", "atom_type": "Cs"}, "19": {"label": "*2", "atom_type": "H0"}}

>  <type>  (10) 
unop_6

>  <geom_source>  (10) 
Heuristics

$$$$

     RDKit          3D

 20 18  0  0  0  0  0  0  0  0999 V2000
   -0.0526    1.2798    1.5151 C   0  0  0  0  0  3  0  0  0  0  0  0
    1.1838    1.0467    2.3739 C   0  0  0  0  0  0  0  0  0  0  0  0
    2.4804    1.3145    1.6205 C   0  0  0  0  0  0  0  0  0  0  0  0
   -0.9705    1.0830    2.0716 H   0  0  0  0  0  0  0  0  0  0  0  0
   -0.0919    2.3120    1.1589 H   0  0  0  0  0  0  0  0  0  0  0  0
    1.1382    1.6873    3.2590 H   0  0  0  0  0  0  0  0  0  0  0  0
    1.1826    0.0170    2.7419 H   0  0  0  0  0  0  0  0  0  0  0  0
    2.5210    2.3478    1.2676 H   0  0  0  0  0  0  0  0  0  0  0  0
    3.3540    1.1423    2.2516 H   0  0  0  0  0  0  0  0  0  0  0  0
    2.5657    0.6643    0.7464 H   0  0  0  0  0  0  0  0  0  0  0  0
   -0.9842   -0.9845   -3.5329 C   0  0  0  0  0  0  0  0  0  0  0  0
   -0.9842   -0.9845   -2.0757 C   0  0  0  0  0  0  0  0  0  0  0  0
   -0.9842   -0.9845   -0.8772 C   0  0  0  0  0  0  0  0  0  0  0  0
   -0.9842   -0.9845    0.5801 C   0  0  0  0  0  0  0  0  0  0  0  0
   -0.2846   -1.7261   -3.9223 H   0  0  0  0  0  0  0  0  0  0  0  0
   -0.6917   -0.0078   -3.9223 H   0  0  0  0  0  0  0  0  0  0  0  0
   -1.9762   -1.2195   -3.9223 H   0  0  0  0  0  0  0  0  0  0  0  0
   -0.3616   -1.7918    0.9694 H   0  0  0  0  0  0  0  0  0  0  0  0
   -1.9947   -1.1200    0.9694 H   0  0  0  0  0  0  0  0  0  0  0  0
   -0.5187    0.1469    1.0473 H   0  0  0  0  0  0  0  0  0  0  0  0
  1  2  1  0
  1  4  1  0
  1  5  1  0
  2  3  1  0
  2  6  1  0
  2  7  1  0
  3  8  1  0
  3  9  1  0
  3 10  1  0
 11 12  1  0
 11 15  1  0
 11 16  1  0
 11 17  1  0
 12 13  3  0
 13 14  1  0
 14 18  1  0
 14 19  1  0
 14 20  1  0
M  RAD  1   1   2
M  END
>  <reaction>  (11) 
rmg_rxn_505

>  <mol_properties>  (11) 
{"0": {"label": "*3", "atom_type": "Cs"}, "1": {"label": "*4", "atom_type": "Cs"}, "12": {"label": "*0", "atom_type": "Ct"}, "13": {"label": "*1", "atom_type": "Cs"}, "19": {"label": "*2", "atom_type": "H0"}}

>  <type>  (11) 
unop_7

>  <geom_source>  (11) 
Heuristics

$$$$

     RDKit          3D

 20 18  0  0  0  0  0  0  0  0999 V2000
    1.0640    1.0515    1.5818 C   0  0  0  0  0  3  0  0  0  0  0  0
   -0.0581    2.0633    1.7761 C   0  0  0  0  0  0  0  0  0  0  0  0
   -1.4296    1.4072    1.8722 C   0  0  0  0  0  0  0  0  0  0  0  0
    2.0376    1.5400    1.5153 H   0  0  0  0  0  0  0  0  0  0  0  0
    1.1006    0.3442    2.4139 H   0  0  0  0  0  0  0  0  0  0  0  0
    0.1306    2.6467    2.6815 H   0  0  0  0  0  0  0  0  0  0  0  0
   -0.0530    2.7762    0.9470 H   0  0  0  0  0  0  0  0  0  0  0  0
   -1.4715    0.7111    2.7135 H   0  0  0  0  0  0  0  0  0  0  0  0
   -2.2194    2.1473    2.0111 H   0  0  0  0  0  0  0  0  0  0  0  0
   -1.6565    0.8417    0.9652 H   0  0  0  0  0  0  0  0  0  0  0  0
    0.1324   -1.2128   -3.4662 C   0  0  0  0  0  0  0  0  0  0  0  0
    0.1324   -1.2128   -2.0090 C   0  0  0  0  0  0  0  0  0  0  0  0
    0.1324   -1.2128   -0.8105 C   0  0  0  0  0  0  0  0  0  0  0  0
    0.1324   -1.2128    0.6468 C   0  0  0  0  0  0  0  0  0  0  0  0
    0.8320   -1.9544   -3.8556 H   0  0  0  0  0  0  0  0  0  0  0  0
    0.4249   -0.2361   -3.8556 H   0  0  0  0  0  0  0  0  0  0  0  0
   -0.8597   -1.4478   -3.8556 H   0  0  0  0  0  0  0  0  0  0  0  0
    0.7549   -2.0201    1.0361 H   0  0  0  0  0  0  0  0  0  0  0  0
   -0.8781   -1.3482    1.0361 H   0  0  0  0  0  0  0  0  0  0  0  0
    0.5979   -0.0814    1.1140 H   0  0  0  0  0  0  0  0  0  0  0  0
  1  2  1  0
  1  4  1  0
  1  5  1  0
  2  3  1  0
  2  6  1  0
  2  7  1  0
  3  8  1  0
  3  9  1  0
  3 10  1  0
 11 12  1  0
 11 15  1  0
 11 16  1  0
 11 17  1  0
 12 13  3  0
 13 14  1  0
 14 18  1  0
 14 19  1  0
 14 20  1  0
M  RAD  1   1   2
M  END
>  <reaction>  (12) 
rmg_rxn_505

>  <mol_properties>  (12) 
{"0": {"label": "*3", "atom_type": "Cs"}, "1": {"label": "*4", "atom_type": "Cs"}, "12": {"label": "*0", "atom_type": "Ct"}, "13": {"label": "*1", "atom_type": "Cs"}, "19": {"label": "*2", "atom_type": "H0"}}

>  <type>  (12) 
unop_8

>  <geom_source>  (12) 
Heuristics

$$$$

     RDKit          3D

 20 18  0  0  0  0  0  0  0  0999 V2000
    0.3078    0.9635    2.1301 C   0  0  0  0  0  3  0  0  0  0  0  0
    1.3264    1.5698    1.1734 C   0  0  0  0  0  0  0  0  0  0  0  0
    0.6746    2.2530   -0.0219 C   0  0  0  0  0  0  0  0  0  0  0  0
    0.7934    0.4792    2.9790 H   0  0  0  0  0  0  0  0  0  0  0  0
   -0.3647    1.7304    2.5221 H   0  0  0  0  0  0  0  0  0  0  0  0
    1.9466    2.2918    1.7118 H   0  0  0  0  0  0  0  0  0  0  0  0
    2.0047    0.7880    0.8205 H   0  0  0  0  0  0  0  0  0  0  0  0
    0.0136    3.0606    0.3023 H   0  0  0  0  0  0  0  0  0  0  0  0
    1.4196    2.6807   -0.6950 H   0  0  0  0  0  0  0  0  0  0  0  0
    0.0722    1.5448   -0.5960 H   0  0  0  0  0  0  0  0  0  0  0  0
   -0.6238   -1.3007   -2.9179 C   0  0  0  0  0  0  0  0  0  0  0  0
   -0.6238   -1.3007   -1.4607 C   0  0  0  0  0  0  0  0  0  0  0  0
   -0.6238   -1.3007   -0.2622 C   0  0  0  0  0  0  0  0  0  0  0  0
   -0.6238   -1.3007    1.1951 C   0  0  0  0  0  0  0  0  0  0  0  0
    0.0758   -2.0423   -3.3073 H   0  0  0  0  0  0  0  0  0  0  0  0
   -0.3313   -0.3241   -3.3073 H   0  0  0  0  0  0  0  0  0  0  0  0
   -1.6159   -1.5358   -3.3073 H   0  0  0  0  0  0  0  0  0  0  0  0
   -0.0013   -2.1081    1.5844 H   0  0  0  0  0  0  0  0  0  0  0  0
   -1.6343   -1.4362    1.5844 H   0  0  0  0  0  0  0  0  0  0  0  0
   -0.1583   -0.1693    1.6623 H   0  0  0  0  0  0  0  0  0  0  0  0
  1  2  1  0
  1  4  1  0
  1  5  1  0
  2  3  1  0
  2  6  1  0
  2  7  1  0
  3  8  1  0
  3  9  1  0
  3 10  1  0
 11 12  1  0
 11 15  1  0
 11 16  1  0
 11 17  1  0
 12 13  3  0
 13 14  1  0
 14 18  1  0
 14 19  1  0
 14 20  1  0
M  RAD  1   1   2
M  END
>  <reaction>  (13) 
rmg_rxn_505

>  <mol_properties>  (13) 
{"0": {"label": "*3", "atom_type": "Cs"}, "1": {"label": "*4", "atom_type": "Cs"}, "12": {"label": "*0", "atom_type": "Ct"}, "13": {"label": "*1", "atom_type": "Cs"}, "19": {"label": "*2", "atom_type": "H0"}}

>  <type>  (13) 
unop_9

>  <geom_source>  (13) 
Heuristics

$$$$

     RDKit          3D

 20 18  0  0  0  0  0  0  0  0999 V2000
    0.9959    0.9599    1.8384 C   0  0  0  0  0  3  0  0  0  0  0  0
    0.1466    2.1339    1.3681 C   0  0  0  0  0  0  0  0  0  0  0  0
   -1.3009    1.7413    1.1015 C   0  0  0  0  0  0  0  0  0  0  0  0
    2.0284    1.2606    2.0239 H   0  0  0  0  0  0  0  0  0  0  0  0
    0.5990    0.5368    2.7644 H   0  0  0  0  0  0  0  0  0  0  0  0
    0.1759    2.9282    2.1191 H   0  0  0  0  0  0  0  0  0  0  0  0
    0.5823    2.5572    0.4589 H   0  0  0  0  0  0  0  0  0  0  0  0
   -1.7702    1.3428    2.0043 H   0  0  0  0  0  0  0  0  0  0  0  0
   -1.8927    2.5945    0.7660 H   0  0  0  0  0  0  0  0  0  0  0  0
   -1.3606    0.9688    0.3309 H   0  0  0  0  0  0  0  0  0  0  0  0
    0.0643   -1.3043   -3.2097 C   0  0  0  0  0  0  0  0  0  0  0  0
    0.0643   -1.3043   -1.7524 C   0  0  0  0  0  0  0  0  0  0  0  0
    0.0643   -1.3043   -0.5539 C   0  0  0  0  0  0  0  0  0  0  0  0
    0.0643   -1.3043    0.9033 C   0  0  0  0  0  0  0  0  0  0  0  0
    0.7638   -2.0459   -3.5990 H   0  0  0  0  0  0  0  0  0  0  0  0
    0.3568   -0.3277   -3.5990 H   0  0  0  0  0  0  0  0  0  0  0  0
   -0.9278   -1.5394   -3.5990 H   0  0  0  0  0  0  0  0  0  0  0  0
    0.6868   -2.1117    1.2927 H   0  0  0  0  0  0  0  0  0  0  0  0
   -0.9462   -1.4398    1.2927 H   0  0  0  0  0  0  0  0  0  0  0  0
    0.5298   -0.1729    1.3706 H   0  0  0  0  0  0  0  0  0  0  0  0
  1  2  1  0
  1  4  1  0
  1  5  1  0
  2  3  1  0
  2  6  1  0
  2  7  1  0
  3  8  1  0
  3  9  1  0
  3 10  1  0
 11 12  1  0
 11 15  1  0
 11 16  1  0
 11 17  1  0
 12 13  3  0
 13 14  1  0
 14 18  1  0
 14 19  1  0
 14 20  1  0
M  RAD  1   1   2
M  END
>  <reaction>  (14) 
rmg_rxn_505

>  <mol_properties>  (14) 
{"0": {"label": "*3", "atom_type": "Cs"}, "1": {"label": "*4", "atom_type": "Cs"}, "12": {"label": "*0", "atom_type": "Ct"}, "13": {"label": "*1", "atom_type": "Cs"}, "19": {"label": "*2", "atom_type": "H0"}}

>  <type>  (14) 
unop_10

>  <geom_source>  (14) 
Heuristics

$$$$

     RDKit          3D

 20 18  0  0  0  0  0  0  0  0999 V2000
    0.0853    1.3648    1.2775 C   0  0  0  0  0  3  0  0  0  0  0  0
    0.7694    1.1581    2.6227 C   0  0  0  0  0  0  0  0  0  0  0  0
    2.2456    0.8088    2.4827 C   0  0  0  0  0  0  0  0  0  0  0  0
   -0.9703    1.6140    1.3983 H   0  0  0  0  0  0  0  0  0  0  0  0
    0.5588    2.1759    0.7189 H   0  0  0  0  0  0  0  0  0  0  0  0
    0.6654    2.0636    3.2269 H   0  0  0  0  0  0  0  0  0  0  0  0
    0.2579    0.3635    3.1730 H   0  0  0  0  0  0  0  0  0  0  0  0
    2.7871    1.6023    1.9622 H   0  0  0  0  0  0  0  0  0  0  0  0
    2.7177    0.6647    3.4560 H   0  0  0  0  0  0  0  0  0  0  0  0
    2.3764   -0.1112    1.9078 H   0  0  0  0  0  0  0  0  0  0  0  0
   -0.8463   -0.8994   -3.7706 C   0  0  0  0  0  0  0  0  0  0  0  0
   -0.8463   -0.8994   -2.3133 C   0  0  0  0  0  0  0  0  0  0  0  0
   -0.8463   -0.8994   -1.1148 C   0  0  0  0  0  0  0  0  0  0  0  0
   -0.8463   -0.8994    0.3424 C   0  0  0  0  0  0  0  0  0  0  0  0
   -0.1467   -1.6410   -4.1599 H   0  0  0  0  0  0  0  0  0  0  0  0
   -0.5538    0.0773   -4.1599 H   0  0  0  0  0  0  0  0  0  0  0  0
   -1.8384   -1.1344   -4.1599 H   0  0  0  0  0  0  0  0  0  0  0  0
   -0.2238   -1.7068    0.7317 H   0  0  0  0  0  0  0  0  0  0  0  0
   -1.8568   -1.0349    0.7318 H   0  0  0  0  0  0  0  0  0  0  0  0
   -0.3808    0.2320    0.8096 H   0  0  0  0  0  0  0  0  0  0  0  0
  1  2  1  0
  1  4  1  0
  1  5  1  0
  2  3  1  0
  2  6  1  0
  2  7  1  0
  3  8  1  0
  3  9  1  0
  3 10  1  0
 11 12  1  0
 11 15  1  0
 11 16  1  0
 11 17  1  0
 12 13  3  0
 13 14  1  0
 14 18  1  0
 14 19  1  0
 14 20  1  0
M  RAD  1   1   2
M  END
>  <reaction>  (15) 
rmg_rxn_505

>  <mol_properties>  (15) 
{"0": {"label": "*3", "atom_type": "Cs"}, "1": {"label": "*4", "atom_type": "Cs"}, "12": {"label": "*0", "atom_type": "Ct"}, "13": {"label": "*1", "atom_type": "Cs"}, "19": {"label": "*2", "atom_type": "H0"}}

>  <type>  (15) 
unop_11

>  <geom_source>  (15) 
Heuristics

$$$$

     RDKit          3D

 20 18  0  0  0  0  0  0  0  0999 V2000
    0.5800    0.9155    2.1403 C   0  0  0  0  0  3  0  0  0  0  0  0
    0.9667    1.8554    1.0056 C   0  0  0  0  0  0  0  0  0  0  0  0
   -0.2081    2.1914    0.0959 C   0  0  0  0  0  0  0  0  0  0  0  0
    1.4338    0.6868    2.7804 H   0  0  0  0  0  0  0  0  0  0  0  0
   -0.1984    1.3585    2.7664 H   0  0  0  0  0  0  0  0  0  0  0  0
    1.3801    2.7781    1.4220 H   0  0  0  0  0  0  0  0  0  0  0  0
    1.7670    1.4020    0.4141 H   0  0  0  0  0  0  0  0  0  0  0  0
   -1.0113    2.6746    0.6575 H   0  0  0  0  0  0  0  0  0  0  0  0
    0.0884    2.8649   -0.7100 H   0  0  0  0  0  0  0  0  0  0  0  0
   -0.6213    1.2876   -0.3584 H   0  0  0  0  0  0  0  0  0  0  0  0
   -0.3516   -1.3487   -2.9077 C   0  0  0  0  0  0  0  0  0  0  0  0
   -0.3516   -1.3487   -1.4505 C   0  0  0  0  0  0  0  0  0  0  0  0
   -0.3516   -1.3487   -0.2520 C   0  0  0  0  0  0  0  0  0  0  0  0
   -0.3516   -1.3487    1.2053 C   0  0  0  0  0  0  0  0  0  0  0  0
    0.3480   -2.0903   -3.2971 H   0  0  0  0  0  0  0  0  0  0  0  0
   -0.0591   -0.3720   -3.2971 H   0  0  0  0  0  0  0  0  0  0  0  0
   -1.3436   -1.5837   -3.2971 H   0  0  0  0  0  0  0  0  0  0  0  0
    0.2710   -2.1561    1.5946 H   0  0  0  0  0  0  0  0  0  0  0  0
   -1.3621   -1.4842    1.5946 H   0  0  0  0  0  0  0  0  0  0  0  0
    0.1139   -0.2173    1.6725 H   0  0  0  0  0  0  0  0  0  0  0  0
  1  2  1  0
  1  4  1  0
  1  5  1  0
  2  3  1  0
  2  6  1  0
  2  7  1  0
  3  8  1  0
  3  9  1  0
  3 10  1  0
 11 12  1  0
 11 15  1  0
 11 16  1  0
 11 17  1  0
 12 13  3  0
 13 14  1  0
 14 18  1  0
 14 19  1  0
 14 20  1  0
M  RAD  1   1   2
M  END
>  <reaction>  (16) 
rmg_rxn_505

>  <mol_properties>  (16) 
{"0": {"label": "*3", "atom_type": "Cs"}, "1": {"label": "*4", "atom_type": "Cs"}, "12": {"label": "*0", "atom_type": "Ct"}, "13": {"label": "*1", "atom_type": "Cs"}, "19": {"label": "*2", "atom_type": "H0"}}

>  <type>  (16) 
unop_12

>  <geom_source>  (16) 
Heuristics

$$$$

     RDKit          3D

 20 18  0  0  0  0  0  0  0  0999 V2000
    2.5824    0.4750    0.0196 C   0  0  0  0  0  0  0  0  0  0  0  0
    2.9386   -0.8440    0.6975 C   0  0  0  0  0  0  0  0  0  0  0  0
    1.0737    0.6925   -0.0037 C   0  0  0  0  0  0  0  0  0  0  0  0
   -4.0768    0.7715    0.3641 C   0  0  0  0  0  0  0  0  0  0  0  0
   -0.6210   -0.9777   -1.0734 C   0  0  0  0  0  0  0  0  0  0  0  0
   -2.8530    0.1521   -0.1449 C   0  0  0  0  0  3  0  0  0  0  0  0
   -1.8447   -0.3584   -0.5644 C   0  0  0  0  0  0  0  0  0  0  0  0
    2.9660    0.4664   -1.0232 H   0  0  0  0  0  0  0  0  0  0  0  0
    3.0666    1.3125    0.5666 H   0  0  0  0  0  0  0  0  0  0  0  0
    4.0413   -0.9749    0.6986 H   0  0  0  0  0  0  0  0  0  0  0  0
    2.4804   -1.6954    0.1504 H   0  0  0  0  0  0  0  0  0  0  0  0
    2.5796   -0.8470    1.7488 H   0  0  0  0  0  0  0  0  0  0  0  0
    0.6726    0.7298    1.0317 H   0  0  0  0  0  0  0  0  0  0  0  0
    0.8440    1.6540   -0.5094 H   0  0  0  0  0  0  0  0  0  0  0  0
    0.4927   -0.2732   -0.6569 H   0  0  0  0  0  0  0  0  0  0  0  0
   -4.8731    0.7047   -0.4055 H   0  0  0  0  0  0  0  0  0  0  0  0
   -3.8809    1.8373    0.6017 H   0  0  0  0  0  0  0  0  0  0  0  0
   -4.4050    0.2424    1.2824 H   0  0  0  0  0  0  0  0  0  0  0  0
   -0.4887   -1.9751   -0.6057 H   0  0  0  0  0  0  0  0  0  0  0  0
   -0.6946   -1.0925   -2.1745 H   0  0  0  0  0  0  0  0  0  0  0  0
  1  2  1  0
  1  3  1  0
  1  8  1  0
  1  9  1  0
  2 10  1  0
  2 11  1  0
  2 12  1  0
  3 13  1  0
  3 14  1  0
  3 15  1  0
  4  6  1  0
  4 16  1  0
  4 17  1  0
  4 18  1  0
  5  7  2  0
  5 19  1  0
  5 20  1  0
  6  7  2  0
M  RAD  1   6   2
M  END
>  <reaction>  (17) 
rmg_rxn_505

>  <mol_properties>  (17) 
{"0": {"label": "*3", "atom_type": "Cs"}, "1": {"label": "*4", "atom_type": "Cs"}, "12": {"label": "*0", "atom_type": "Ct"}, "13": {"label": "*1", "atom_type": "Cs"}, "19": {"label": "*2", "atom_type": "H0"}}

>  <type>  (17) 
unop_13

>  <geom_source>  (17) 
AutoTST

$$$$

     RDKit          3D

 20 18  0  0  0  0  0  0  0  0999 V2000
    0.8231    0.9165    2.0356 C   0  0  0  0  0  3  0  0  0  0  0  0
    0.5261    2.0641    1.0789 C   0  0  0  0  0  0  0  0  0  0  0  0
   -0.8785    1.9916    0.4938 C   0  0  0  0  0  0  0  0  0  0  0  0
    1.8327    0.9857    2.4440 H   0  0  0  0  0  0  0  0  0  0  0  0
    0.1223    0.9155    2.8740 H   0  0  0  0  0  0  0  0  0  0  0  0
    0.6539    3.0161    1.6016 H   0  0  0  0  0  0  0  0  0  0  0  0
    1.2591    2.0605    0.2675 H   0  0  0  0  0  0  0  0  0  0  0  0
   -1.6329    2.0245    1.2836 H   0  0  0  0  0  0  0  0  0  0  0  0
   -1.0723    2.8212   -0.1883 H   0  0  0  0  0  0  0  0  0  0  0  0
   -1.0230    1.0614   -0.0611 H   0  0  0  0  0  0  0  0  0  0  0  0
   -0.1085   -1.3478   -3.0124 C   0  0  0  0  0  0  0  0  0  0  0  0
   -0.1085   -1.3478   -1.5552 C   0  0  0  0  0  0  0  0  0  0  0  0
   -0.1085   -1.3478   -0.3567 C   0  0  0  0  0  0  0  0  0  0  0  0
   -0.1085   -1.3478    1.1006 C   0  0  0  0  0  0  0  0  0  0  0  0
    0.5910   -2.0894   -3.4017 H   0  0  0  0  0  0  0  0  0  0  0  0
    0.1840   -0.3711   -3.4017 H   0  0  0  0  0  0  0  0  0  0  0  0
   -1.1006   -1.5828   -3.4018 H   0  0  0  0  0  0  0  0  0  0  0  0
    0.5140   -2.1551    1.4899 H   0  0  0  0  0  0  0  0  0  0  0  0
   -1.1190   -1.4832    1.4899 H   0  0  0  0  0  0  0  0  0  0  0  0
    0.3570   -0.2164    1.5678 H   0  0  0  0  0  0  0  0  0  0  0  0
  1  2  1  0
  1  4  1  0
  1  5  1  0
  2  3  1  0
  2  6  1  0
  2  7  1  0
  3  8  1  0
  3  9  1  0
  3 10  1  0
 11 12  1  0
 11 15  1  0
 11 16  1  0
 11 17  1  0
 12 13  3  0
 13 14  1  0
 14 18  1  0
 14 19  1  0
 14 20  1  0
M  RAD  1   1   2
M  END
>  <reaction>  (18) 
rmg_rxn_505

>  <mol_properties>  (18) 
{"0": {"label": "*3", "atom_type": "Cs"}, "1": {"label": "*4", "atom_type": "Cs"}, "12": {"label": "*0", "atom_type": "Ct"}, "13": {"label": "*1", "atom_type": "Cs"}, "19": {"label": "*2", "atom_type": "H0"}}

>  <type>  (18) 
unop_14

>  <geom_source>  (18) 
gaussian_log

$$$$
