
     RDKit          3D

  9  8  0  0  0  0  0  0  0  0999 V2000
   -1.0314    0.2323   -0.1227 C   0  0  0  0  0  0  0  0  0  0  0  0
    0.3094   -0.4511    0.0063 C   0  0  0  0  0  0  0  0  0  0  0  0
    0.3197   -1.7698    0.6841 N   0  0  0  0  0  0  0  0  0  0  0  0
   -0.7498   -2.1455    1.0557 O   0  0  0  0  0  0  0  0  0  0  0  0
   -1.4744    0.4198    0.8552 H   0  0  0  0  0  0  0  0  0  0  0  0
   -0.9073    1.1865   -0.6350 H   0  0  0  0  0  0  0  0  0  0  0  0
   -1.7319   -0.3778   -0.6927 H   0  0  0  0  0  0  0  0  0  0  0  0
    1.0375    0.1401    0.5713 H   0  0  0  0  0  0  0  0  0  0  0  0
    0.7826   -0.6494   -0.9609 H   0  0  0  0  0  0  0  0  0  0  0  0
  1  2  1  0
  1  5  1  0
  1  6  1  0
  1  7  1  0
  2  3  1  0
  2  8  1  0
  2  9  1  0
  3  4  2  0
M  END
>  <reaction>  (1) 
rmg_rxn_501

>  <mol_properties>  (1) 
{"0": {"label": "donator", "atom_type": "Cs"}, "4": {"label": "d_hydrogen", "atom_type": "H0"}}

>  <type>  (1) 
r1h

$$$$

     RDKit          3D

 10  9  0  0  0  0  0  0  0  0999 V2000
    1.4352    0.2660   -0.1351 C   0  0  0  0  0  3  0  0  0  0  0  0
    0.2236   -0.3243    0.4850 C   0  0  0  0  0  0  0  0  0  0  0  0
   -0.8893    0.6872    0.7364 C   0  0  0  0  0  0  0  0  0  0  0  0
    2.3577   -0.2958   -0.1940 H   0  0  0  0  0  0  0  0  0  0  0  0
    1.3935    1.2286   -0.6287 H   0  0  0  0  0  0  0  0  0  0  0  0
   -0.1633   -1.1318   -0.1556 H   0  0  0  0  0  0  0  0  0  0  0  0
    0.4945   -0.8215    1.4240 H   0  0  0  0  0  0  0  0  0  0  0  0
   -1.1991    1.1627   -0.1967 H   0  0  0  0  0  0  0  0  0  0  0  0
   -1.7660    0.2103    1.1768 H   0  0  0  0  0  0  0  0  0  0  0  0
   -0.5545    1.4732    1.4159 H   0  0  0  0  0  0  0  0  0  0  0  0
  1  2  1  0
  1  4  1  0
  1  5  1  0
  2  3  1  0
  2  6  1  0
  2  7  1  0
  3  8  1  0
  3  9  1  0
  3 10  1  0
M  RAD  1   1   2
M  END
>  <reaction>  (2) 
rmg_rxn_501

>  <mol_properties>  (2) 
{"0": {"label": "acceptor", "atom_type": "Cs"}}

>  <type>  (2) 
r2

$$$$

     RDKit          3D

 11 10  0  0  0  0  0  0  0  0999 V2000
   -1.2710    0.1907   -0.2084 C   0  0  0  0  0  0  0  0  0  0  0  0
    0.0202   -0.6130   -0.2928 C   0  0  0  0  0  0  0  0  0  0  0  0
    0.1086   -1.6953    0.7756 C   0  0  0  0  0  0  0  0  0  0  0  0
   -1.3607    0.6851    0.7620 H   0  0  0  0  0  0  0  0  0  0  0  0
   -2.1429   -0.4567   -0.3299 H   0  0  0  0  0  0  0  0  0  0  0  0
   -1.3158    0.9602   -0.9809 H   0  0  0  0  0  0  0  0  0  0  0  0
    0.8757    0.0616   -0.1992 H   0  0  0  0  0  0  0  0  0  0  0  0
    0.0997   -1.0712   -1.2825 H   0  0  0  0  0  0  0  0  0  0  0  0
   -0.7198   -2.4022    0.6850 H   0  0  0  0  0  0  0  0  0  0  0  0
    1.0395   -2.2596    0.6989 H   0  0  0  0  0  0  0  0  0  0  0  0
    0.0624   -1.2603    1.7770 H   0  0  0  0  0  0  0  0  0  0  0  0
  1  2  1  0
  1  4  1  0
  1  5  1  0
  1  6  1  0
  2  3  1  0
  2  7  1  0
  2  8  1  0
  3  9  1  0
  3 10  1  0
  3 11  1  0
M  END
>  <reaction>  (3) 
rmg_rxn_501

>  <mol_properties>  (3) 
{"0": {"label": "a_hydrogen", "atom_type": "H0"}, "1": {"label": "acceptor", "atom_type": "Cs"}}

>  <type>  (3) 
r2h

$$$$

     RDKit          3D

 19 17  0  0  0  0  0  0  0  0999 V2000
    0.3841    0.0971    1.3894 C   0  0  0  0  0  3  0  0  0  0  0  0
    1.1834   -1.0958    0.9792 C   0  0  0  0  0  0  0  0  0  0  0  0
    1.9777   -0.9786   -0.2687 N   0  0  0  0  0  0  0  0  0  0  0  0
    1.9825    0.1101   -0.7572 O   0  0  0  0  0  0  0  0  0  0  0  0
   -0.5915    0.2457    0.4581 H   0  0  0  0  0  0  0  0  0  0  0  0
   -0.1643   -0.0521    2.3161 H   0  0  0  0  0  0  0  0  0  0  0  0
    0.9236    1.0399    1.3707 H   0  0  0  0  0  0  0  0  0  0  0  0
    0.5685   -1.9886    0.8251 H   0  0  0  0  0  0  0  0  0  0  0  0
    1.9372   -1.3928    1.7216 H   0  0  0  0  0  0  0  0  0  0  0  0
   -1.5677    0.3675   -0.4372 C   0  0  0  0  0  0  0  0  0  0  0  0
   -1.8003    1.8441   -0.6283 C   0  0  0  0  0  0  0  0  0  0  0  0
   -0.6168    2.5548   -1.2730 C   0  0  0  0  0  0  0  0  0  0  0  0
   -2.3963   -0.1742    0.0171 H   0  0  0  0  0  0  0  0  0  0  0  0
   -1.1815   -0.1482   -1.3164 H   0  0  0  0  0  0  0  0  0  0  0  0
   -2.6942    1.9925   -1.2459 H   0  0  0  0  0  0  0  0  0  0  0  0
   -2.0275    2.3035    0.3388 H   0  0  0  0  0  0  0  0  0  0  0  0
   -0.4062    2.1402   -2.2611 H   0  0  0  0  0  0  0  0  0  0  0  0
   -0.8119    3.6219   -1.3899 H   0  0  0  0  0  0  0  0  0  0  0  0
    0.2868    2.4352   -0.6733 H   0  0  0  0  0  0  0  0  0  0  0  0
  1  2  1  0
  1  6  1  0
  1  7  1  0
  2  3  1  0
  2  8  1  0
  2  9  1  0
  3  4  2  0
  5 10  1  0
 10 11  1  0
 10 13  1  0
 10 14  1  0
 11 12  1  0
 11 15  1  0
 11 16  1  0
 12 17  1  0
 12 18  1  0
 12 19  1  0
M  RAD  1   1   2
M  END
>  <reaction>  (4) 
rmg_rxn_501

>  <mol_properties>  (4) 
{"0": {"label": "*3", "atom_type": "Cs"}, "1": {"label": "*4", "atom_type": "Cs"}, "4": {"label": "*2", "atom_type": "H0"}, "9": {"label": "*1", "atom_type": "Cs"}, "10": {"label": "*0", "atom_type": "Cs"}}

>  <type>  (4) 
ts

$$$$

     RDKit          3D

 19 17  0  0  0  0  0  0  0  0999 V2000
    1.0168    0.3760    0.4685 C   0  0  0  0  0  0  0  0  0  0  0  0
    1.0168   -0.8010    1.4153 C   0  0  0  0  0  0  0  0  0  0  0  0
    1.0168   -2.1492    0.7980 N   0  0  0  0  0  0  0  0  0  0  0  0
    1.0168   -2.1492   -0.3950 O   0  0  0  0  0  0  0  0  0  0  0  0
   -0.0394    0.3632   -0.3026 H   0  0  0  0  0  0  0  0  0  0  0  0
    1.0168    1.3044    1.0400 H   0  0  0  0  0  0  0  0  0  0  0  0
    1.8969    0.3653   -0.1740 H   0  0  0  0  0  0  0  0  0  0  0  0
    0.1456   -0.8159    2.0783 H   0  0  0  0  0  0  0  0  0  0  0  0
    1.8880   -0.8159    2.0783 H   0  0  0  0  0  0  0  0  0  0  0  0
   -1.0984    0.3504   -1.0757 C   0  0  0  0  0  3  0  0  0  0  0  0
   -1.9304    1.6114   -0.8805 C   0  0  0  0  0  0  0  0  0  0  0  0
   -1.1334    2.7495   -0.2559 C   0  0  0  0  0  0  0  0  0  0  0  0
   -1.6860   -0.4526   -1.5238 H   0  0  0  0  0  0  0  0  0  0  0  0
   -0.2434    0.5437   -1.7283 H   0  0  0  0  0  0  0  0  0  0  0  0
   -2.3327    1.9350   -1.8445 H   0  0  0  0  0  0  0  0  0  0  0  0
   -2.7945    1.3834   -0.2503 H   0  0  0  0  0  0  0  0  0  0  0  0
   -0.2795    3.0183   -0.8826 H   0  0  0  0  0  0  0  0  0  0  0  0
   -1.7458    3.6431   -0.1242 H   0  0  0  0  0  0  0  0  0  0  0  0
   -0.7450    2.4624    0.7243 H   0  0  0  0  0  0  0  0  0  0  0  0
  1  2  1  0
  1  5  1  0
  1  6  1  0
  1  7  1  0
  2  3  1  0
  2  8  1  0
  2  9  1  0
  3  4  2  0
 10 11  1  0
 10 13  1  0
 10 14  1  0
 11 12  1  0
 11 15  1  0
 11 16  1  0
 12 17  1  0
 12 18  1  0
 12 19  1  0
M  RAD  1  10   2
M  END
>  <reaction>  (5) 
rmg_rxn_501

>  <mol_properties>  (5) 
{"0": {"label": "*3", "atom_type": "Cs"}, "1": {"label": "*4", "atom_type": "Cs"}, "4": {"label": "*2", "atom_type": "H0"}, "9": {"label": "*1", "atom_type": "Cs"}, "10": {"label": "*0", "atom_type": "Cs"}}

>  <type>  (5) 
unop_1

>  <geom_source>  (5) 
Heuristics

$$$$

     RDKit          3D

 19 17  0  0  0  0  0  0  0  0999 V2000
    1.2561    1.0272    0.1959 C   0  0  0  0  0  0  0  0  0  0  0  0
    1.2561   -0.1498    1.1426 C   0  0  0  0  0  0  0  0  0  0  0  0
    1.2561   -1.4979    0.5253 N   0  0  0  0  0  0  0  0  0  0  0  0
    1.2561   -1.4979   -0.6676 O   0  0  0  0  0  0  0  0  0  0  0  0
    0.2000    1.0144   -0.5752 H   0  0  0  0  0  0  0  0  0  0  0  0
    1.2561    1.9556    0.7673 H   0  0  0  0  0  0  0  0  0  0  0  0
    2.1363    1.0166   -0.4467 H   0  0  0  0  0  0  0  0  0  0  0  0
    0.3849   -0.1647    1.8056 H   0  0  0  0  0  0  0  0  0  0  0  0
    2.1273   -0.1647    1.8056 H   0  0  0  0  0  0  0  0  0  0  0  0
   -0.8590    1.0017   -1.3484 C   0  0  0  0  0  3  0  0  0  0  0  0
   -2.0405    0.3481   -0.6430 C   0  0  0  0  0  0  0  0  0  0  0  0
   -2.1571    0.7671    0.8169 C   0  0  0  0  0  0  0  0  0  0  0  0
   -0.7922    0.6895   -2.3920 H   0  0  0  0  0  0  0  0  0  0  0  0
   -0.9467    2.0907   -1.3298 H   0  0  0  0  0  0  0  0  0  0  0  0
   -2.9646    0.6020   -1.1696 H   0  0  0  0  0  0  0  0  0  0  0  0
   -1.9439   -0.7395   -0.7030 H   0  0  0  0  0  0  0  0  0  0  0  0
   -2.2857    1.8487    0.9038 H   0  0  0  0  0  0  0  0  0  0  0  0
   -3.0083    0.2891    1.3047 H   0  0  0  0  0  0  0  0  0  0  0  0
   -1.2569    0.4966    1.3741 H   0  0  0  0  0  0  0  0  0  0  0  0
  1  2  1  0
  1  5  1  0
  1  6  1  0
  1  7  1  0
  2  3  1  0
  2  8  1  0
  2  9  1  0
  3  4  2  0
 10 11  1  0
 10 13  1  0
 10 14  1  0
 11 12  1  0
 11 15  1  0
 11 16  1  0
 12 17  1  0
 12 18  1  0
 12 19  1  0
M  RAD  1  10   2
M  END
>  <reaction>  (6) 
rmg_rxn_501

>  <mol_properties>  (6) 
{"0": {"label": "*3", "atom_type": "Cs"}, "1": {"label": "*4", "atom_type": "Cs"}, "4": {"label": "*2", "atom_type": "H0"}, "9": {"label": "*1", "atom_type": "Cs"}, "10": {"label": "*0", "atom_type": "Cs"}}

>  <type>  (6) 
unop_2

>  <geom_source>  (6) 
Heuristics

$$$$

     RDKit          3D

 19 17  0  0  0  0  0  0  0  0999 V2000
    0.8399    0.3633    0.7398 C   0  0  0  0  0  0  0  0  0  0  0  0
    0.8399   -0.8137    1.6865 C   0  0  0  0  0  0  0  0  0  0  0  0
    0.8399   -2.1618    1.0692 N   0  0  0  0  0  0  0  0  0  0  0  0
    0.8399   -2.1618   -0.1237 O   0  0  0  0  0  0  0  0  0  0  0  0
   -0.2162    0.3505   -0.0313 H   0  0  0  0  0  0  0  0  0  0  0  0
    0.8399    1.2917    1.3112 H   0  0  0  0  0  0  0  0  0  0  0  0
    1.7201    0.3527    0.0972 H   0  0  0  0  0  0  0  0  0  0  0  0
   -0.0313   -0.8286    2.3495 H   0  0  0  0  0  0  0  0  0  0  0  0
    1.7111   -0.8286    2.3495 H   0  0  0  0  0  0  0  0  0  0  0  0
   -1.2752    0.3378   -0.8045 C   0  0  0  0  0  3  0  0  0  0  0  0
   -1.6839    1.7533   -1.1917 C   0  0  0  0  0  0  0  0  0  0  0  0
   -0.4961    2.7026   -1.2831 C   0  0  0  0  0  0  0  0  0  0  0  0
   -2.1387   -0.3268   -0.7442 H   0  0  0  0  0  0  0  0  0  0  0  0
   -0.5803   -0.0820   -1.5358 H   0  0  0  0  0  0  0  0  0  0  0  0
   -2.2071    1.7313   -2.1517 H   0  0  0  0  0  0  0  0  0  0  0  0
   -2.4016    2.1375   -0.4616 H   0  0  0  0  0  0  0  0  0  0  0  0
    0.2234    2.3573   -2.0295 H   0  0  0  0  0  0  0  0  0  0  0  0
   -0.8086    3.7105   -1.5613 H   0  0  0  0  0  0  0  0  0  0  0  0
    0.0273    2.7667   -0.3261 H   0  0  0  0  0  0  0  0  0  0  0  0
  1  2  1  0
  1  5  1  0
  1  6  1  0
  1  7  1  0
  2  3  1  0
  2  8  1  0
  2  9  1  0
  3  4  2  0
 10 11  1  0
 10 13  1  0
 10 14  1  0
 11 12  1  0
 11 15  1  0
 11 16  1  0
 12 17  1  0
 12 18  1  0
 12 19  1  0
M  RAD  1  10   2
M  END
>  <reaction>  (7) 
rmg_rxn_501

>  <mol_properties>  (7) 
{"0": {"label": "*3", "atom_type": "Cs"}, "1": {"label": "*4", "atom_type": "Cs"}, "4": {"label": "*2", "atom_type": "H0"}, "9": {"label": "*1", "atom_type": "Cs"}, "10": {"label": "*0", "atom_type": "Cs"}}

>  <type>  (7) 
unop_3

>  <geom_source>  (7) 
Heuristics

$$$$

     RDKit          3D

 19 17  0  0  0  0  0  0  0  0999 V2000
    1.0269    1.4302    0.7546 C   0  0  0  0  0  0  0  0  0  0  0  0
    1.0269    0.2532    1.7013 C   0  0  0  0  0  0  0  0  0  0  0  0
    1.0269   -1.0949    1.0840 N   0  0  0  0  0  0  0  0  0  0  0  0
    1.0269   -1.0949   -0.1089 O   0  0  0  0  0  0  0  0  0  0  0  0
   -0.0293    1.4175   -0.0165 H   0  0  0  0  0  0  0  0  0  0  0  0
    1.0269    2.3586    1.3260 H   0  0  0  0  0  0  0  0  0  0  0  0
    1.9070    1.4196    0.1120 H   0  0  0  0  0  0  0  0  0  0  0  0
    0.1557    0.2384    2.3643 H   0  0  0  0  0  0  0  0  0  0  0  0
    1.8981    0.2384    2.3643 H   0  0  0  0  0  0  0  0  0  0  0  0
   -1.0882    1.4047   -0.7897 C   0  0  0  0  0  3  0  0  0  0  0  0
   -1.1358    0.1331   -1.6271 C   0  0  0  0  0  0  0  0  0  0  0  0
   -1.9164   -0.9863   -0.9503 C   0  0  0  0  0  0  0  0  0  0  0  0
   -0.5254    2.1941   -1.2906 H   0  0  0  0  0  0  0  0  0  0  0  0
   -2.0950    1.7828   -0.5960 H   0  0  0  0  0  0  0  0  0  0  0  0
   -1.5852    0.3541   -2.5993 H   0  0  0  0  0  0  0  0  0  0  0  0
   -0.1166   -0.2061   -1.8320 H   0  0  0  0  0  0  0  0  0  0  0  0
   -2.9493   -0.6836   -0.7617 H   0  0  0  0  0  0  0  0  0  0  0  0
   -1.9392   -1.8878   -1.5648 H   0  0  0  0  0  0  0  0  0  0  0  0
   -1.4691   -1.2482    0.0116 H   0  0  0  0  0  0  0  0  0  0  0  0
  1  2  1  0
  1  5  1  0
  1  6  1  0
  1  7  1  0
  2  3  1  0
  2  8  1  0
  2  9  1  0
  3  4  2  0
 10 11  1  0
 10 13  1  0
 10 14  1  0
 11 12  1  0
 11 15  1  0
 11 16  1  0
 12 17  1  0
 12 18  1  0
 12 19  1  0
M  RAD  1  10   2
M  END
>  <reaction>  (8) 
rmg_rxn_501

>  <mol_properties>  (8) 
{"0": {"label": "*3", "atom_type": "Cs"}, "1": {"label": "*4", "atom_type": "Cs"}, "4": {"label": "*2", "atom_type": "H0"}, "9": {"label": "*1", "atom_type": "Cs"}, "10": {"label": "*0", "atom_type": "Cs"}}

>  <type>  (8) 
unop_4

>  <geom_source>  (8) 
Heuristics

$$$$

     RDKit          3D

 19 17  0  0  0  0  0  0  0  0999 V2000
    0.7206    0.5650    1.0174 C   0  0  0  0  0  0  0  0  0  0  0  0
    0.7206   -0.6120    1.9642 C   0  0  0  0  0  0  0  0  0  0  0  0
    0.7206   -1.9601    1.3469 N   0  0  0  0  0  0  0  0  0  0  0  0
    0.7206   -1.9601    0.1539 O   0  0  0  0  0  0  0  0  0  0  0  0
   -0.3356    0.5523    0.2463 H   0  0  0  0  0  0  0  0  0  0  0  0
    0.7206    1.4934    1.5889 H   0  0  0  0  0  0  0  0  0  0  0  0
    1.6007    0.5544    0.3748 H   0  0  0  0  0  0  0  0  0  0  0  0
   -0.1506   -0.6268    2.6272 H   0  0  0  0  0  0  0  0  0  0  0  0
    1.5918   -0.6268    2.6272 H   0  0  0  0  0  0  0  0  0  0  0  0
   -1.3946    0.5395   -0.5269 C   0  0  0  0  0  3  0  0  0  0  0  0
   -1.3882    1.7288   -1.4788 C   0  0  0  0  0  0  0  0  0  0  0  0
   -0.1656    1.7466   -2.3873 C   0  0  0  0  0  0  0  0  0  0  0  0
   -2.2771    0.5441    0.1150 H   0  0  0  0  0  0  0  0  0  0  0  0
   -1.3876   -0.4032   -1.0794 H   0  0  0  0  0  0  0  0  0  0  0  0
   -2.2952    1.7111   -2.0894 H   0  0  0  0  0  0  0  0  0  0  0  0
   -1.4266    2.6570   -0.9019 H   0  0  0  0  0  0  0  0  0  0  0  0
   -0.1199    0.8419   -2.9985 H   0  0  0  0  0  0  0  0  0  0  0  0
   -0.1790    2.6049   -3.0611 H   0  0  0  0  0  0  0  0  0  0  0  0
    0.7556    1.7953   -1.8016 H   0  0  0  0  0  0  0  0  0  0  0  0
  1  2  1  0
  1  5  1  0
  1  6  1  0
  1  7  1  0
  2  3  1  0
  2  8  1  0
  2  9  1  0
  3  4  2  0
 10 11  1  0
 10 13  1  0
 10 14  1  0
 11 12  1  0
 11 15  1  0
 11 16  1  0
 12 17  1  0
 12 18  1  0
 12 19  1  0
M  RAD  1  10   2
M  END
>  <reaction>  (9) 
rmg_rxn_501

>  <mol_properties>  (9) 
{"0": {"label": "*3", "atom_type": "Cs"}, "1": {"label": "*4", "atom_type": "Cs"}, "4": {"label": "*2", "atom_type": "H0"}, "9": {"label": "*1", "atom_type": "Cs"}, "10": {"label": "*0", "atom_type": "Cs"}}

>  <type>  (9) 
unop_5

>  <geom_source>  (9) 
Heuristics

$$$$

     RDKit          3D

 19 17  0  0  0  0  0  0  0  0999 V2000
    0.9003    1.3319    0.9715 C   0  0  0  0  0  0  0  0  0  0  0  0
    0.9003    0.1549    1.9182 C   0  0  0  0  0  0  0  0  0  0  0  0
    0.9003   -1.1933    1.3009 N   0  0  0  0  0  0  0  0  0  0  0  0
    0.9003   -1.1933    0.1080 O   0  0  0  0  0  0  0  0  0  0  0  0
   -0.1559    1.3191    0.2004 H   0  0  0  0  0  0  0  0  0  0  0  0
    0.9003    2.2603    1.5429 H   0  0  0  0  0  0  0  0  0  0  0  0
    1.7804    1.3212    0.3289 H   0  0  0  0  0  0  0  0  0  0  0  0
    0.0291    0.1400    2.5812 H   0  0  0  0  0  0  0  0  0  0  0  0
    1.7715    0.1400    2.5812 H   0  0  0  0  0  0  0  0  0  0  0  0
   -1.2149    1.3063   -0.5728 C   0  0  0  0  0  3  0  0  0  0  0  0
   -0.9441    0.5285   -1.8543 C   0  0  0  0  0  0  0  0  0  0  0  0
   -1.4799   -0.8965   -1.8000 C   0  0  0  0  0  0  0  0  0  0  0  0
   -0.8241    2.3236   -0.6309 H   0  0  0  0  0  0  0  0  0  0  0  0
   -2.2874    1.3707   -0.3741 H   0  0  0  0  0  0  0  0  0  0  0  0
   -1.3937    1.0544   -2.7012 H   0  0  0  0  0  0  0  0  0  0  0  0
    0.1323    0.5057   -2.0458 H   0  0  0  0  0  0  0  0  0  0  0  0
   -2.5608   -0.9016   -1.6400 H   0  0  0  0  0  0  0  0  0  0  0  0
   -1.2766   -1.4370   -2.7260 H   0  0  0  0  0  0  0  0  0  0  0  0
   -1.0228   -1.4546   -0.9794 H   0  0  0  0  0  0  0  0  0  0  0  0
  1  2  1  0
  1  5  1  0
  1  6  1  0
  1  7  1  0
  2  3  1  0
  2  8  1  0
  2  9  1  0
  3  4  2  0
 10 11  1  0
 10 13  1  0
 10 14  1  0
 11 12  1  0
 11 15  1  0
 11 16  1  0
 12 17  1  0
 12 18  1  0
 12 19  1  0
M  RAD  1  10   2
M  END
>  <reaction>  (10) 
rmg_rxn_501

>  <mol_properties>  (10) 
{"0": {"label": "*3", "atom_type": "Cs"}, "1": {"label": "*4", "atom_type": "Cs"}, "4": {"label": "*2", "atom_type": "H0"}, "9": {"label": "*1", "atom_type": "Cs"}, "10": {"label": "*0", "atom_type": "Cs"}}

>  <type>  (10) 
unop_6

>  <geom_source>  (10) 
Heuristics

$$$$

     RDKit          3D

 19 17  0  0  0  0  0  0  0  0999 V2000
    0.8011    1.1294    1.1128 C   0  0  0  0  0  0  0  0  0  0  0  0
    0.8011   -0.0476    2.0595 C   0  0  0  0  0  0  0  0  0  0  0  0
    0.8011   -1.3958    1.4422 N   0  0  0  0  0  0  0  0  0  0  0  0
    0.8011   -1.3958    0.2492 O   0  0  0  0  0  0  0  0  0  0  0  0
   -0.2550    1.1166    0.3416 H   0  0  0  0  0  0  0  0  0  0  0  0
    0.8011    2.0578    1.6842 H   0  0  0  0  0  0  0  0  0  0  0  0
    1.6813    1.1187    0.4702 H   0  0  0  0  0  0  0  0  0  0  0  0
   -0.0701   -0.0625    2.7225 H   0  0  0  0  0  0  0  0  0  0  0  0
    1.6723   -0.0625    2.7225 H   0  0  0  0  0  0  0  0  0  0  0  0
   -1.3140    1.1038   -0.4315 C   0  0  0  0  0  3  0  0  0  0  0  0
   -0.9154    1.0268   -1.8998 C   0  0  0  0  0  0  0  0  0  0  0  0
   -1.0130   -0.3861   -2.4609 C   0  0  0  0  0  0  0  0  0  0  0  0
   -1.2377    2.1227   -0.0481 H   0  0  0  0  0  0  0  0  0  0  0  0
   -2.3441    0.7686   -0.2883 H   0  0  0  0  0  0  0  0  0  0  0  0
   -1.5521    1.6958   -2.4854 H   0  0  0  0  0  0  0  0  0  0  0  0
    0.1069    1.3961   -2.0193 H   0  0  0  0  0  0  0  0  0  0  0  0
   -2.0336   -0.7682   -2.3816 H   0  0  0  0  0  0  0  0  0  0  0  0
   -0.7238   -0.4209   -3.5126 H   0  0  0  0  0  0  0  0  0  0  0  0
   -0.3615   -1.0703   -1.9118 H   0  0  0  0  0  0  0  0  0  0  0  0
  1  2  1  0
  1  5  1  0
  1  6  1  0
  1  7  1  0
  2  3  1  0
  2  8  1  0
  2  9  1  0
  3  4  2  0
 10 11  1  0
 10 13  1  0
 10 14  1  0
 11 12  1  0
 11 15  1  0
 11 16  1  0
 12 17  1  0
 12 18  1  0
 12 19  1  0
M  RAD  1  10   2
M  END
>  <reaction>  (11) 
rmg_rxn_501

>  <mol_properties>  (11) 
{"0": {"label": "*3", "atom_type": "Cs"}, "1": {"label": "*4", "atom_type": "Cs"}, "4": {"label": "*2", "atom_type": "H0"}, "9": {"label": "*1", "atom_type": "Cs"}, "10": {"label": "*0", "atom_type": "Cs"}}

>  <type>  (11) 
unop_7

>  <geom_source>  (11) 
Heuristics

$$$$

     RDKit          3D

 19 17  0  0  0  0  0  0  0  0999 V2000
    1.1571    0.5380    0.2745 C   0  0  0  0  0  0  0  0  0  0  0  0
    1.1571   -0.6390    1.2213 C   0  0  0  0  0  0  0  0  0  0  0  0
    1.1571   -1.9871    0.6040 N   0  0  0  0  0  0  0  0  0  0  0  0
    1.1571   -1.9871   -0.5890 O   0  0  0  0  0  0  0  0  0  0  0  0
    0.1009    0.5253   -0.4966 H   0  0  0  0  0  0  0  0  0  0  0  0
    1.1571    1.4664    0.8460 H   0  0  0  0  0  0  0  0  0  0  0  0
    2.0372    0.5274   -0.3681 H   0  0  0  0  0  0  0  0  0  0  0  0
    0.2859   -0.6539    1.8843 H   0  0  0  0  0  0  0  0  0  0  0  0
    2.0283   -0.6539    1.8843 H   0  0  0  0  0  0  0  0  0  0  0  0
   -0.9581    0.5125   -1.2697 C   0  0  0  0  0  3  0  0  0  0  0  0
   -2.1084    1.2797   -0.6304 C   0  0  0  0  0  0  0  0  0  0  0  0
   -1.6390    2.2562    0.4403 C   0  0  0  0  0  0  0  0  0  0  0  0
   -1.3139   -0.1812   -2.0333 H   0  0  0  0  0  0  0  0  0  0  0  0
   -0.2481    1.1954   -1.7427 H   0  0  0  0  0  0  0  0  0  0  0  0
   -2.6574    1.8239   -1.4039 H   0  0  0  0  0  0  0  0  0  0  0  0
   -2.8184    0.5728   -0.1923 H   0  0  0  0  0  0  0  0  0  0  0  0
   -0.9505    2.9941    0.0213 H   0  0  0  0  0  0  0  0  0  0  0  0
   -2.4763    2.7958    0.8861 H   0  0  0  0  0  0  0  0  0  0  0  0
   -1.1128    1.7331    1.2425 H   0  0  0  0  0  0  0  0  0  0  0  0
  1  2  1  0
  1  5  1  0
  1  6  1  0
  1  7  1  0
  2  3  1  0
  2  8  1  0
  2  9  1  0
  3  4  2  0
 10 11  1  0
 10 13  1  0
 10 14  1  0
 11 12  1  0
 11 15  1  0
 11 16  1  0
 12 17  1  0
 12 18  1  0
 12 19  1  0
M  RAD  1  10   2
M  END
>  <reaction>  (12) 
rmg_rxn_501

>  <mol_properties>  (12) 
{"0": {"label": "*3", "atom_type": "Cs"}, "1": {"label": "*4", "atom_type": "Cs"}, "4": {"label": "*2", "atom_type": "H0"}, "9": {"label": "*1", "atom_type": "Cs"}, "10": {"label": "*0", "atom_type": "Cs"}}

>  <type>  (12) 
unop_8

>  <geom_source>  (12) 
Heuristics

$$$$

     RDKit          3D

 19 17  0  0  0  0  0  0  0  0999 V2000
    1.1474    1.3975    0.5142 C   0  0  0  0  0  0  0  0  0  0  0  0
    1.1474    0.2205    1.4609 C   0  0  0  0  0  0  0  0  0  0  0  0
    1.1474   -1.1276    0.8436 N   0  0  0  0  0  0  0  0  0  0  0  0
    1.1474   -1.1276   -0.3493 O   0  0  0  0  0  0  0  0  0  0  0  0
    0.0913    1.3847   -0.2569 H   0  0  0  0  0  0  0  0  0  0  0  0
    1.1474    2.3259    1.0856 H   0  0  0  0  0  0  0  0  0  0  0  0
    2.0276    1.3869   -0.1284 H   0  0  0  0  0  0  0  0  0  0  0  0
    0.2762    0.2056    2.1239 H   0  0  0  0  0  0  0  0  0  0  0  0
    2.0186    0.2056    2.1239 H   0  0  0  0  0  0  0  0  0  0  0  0
   -0.9677    1.3720   -1.0301 C   0  0  0  0  0  3  0  0  0  0  0  0
   -1.4386   -0.0541   -1.2851 C   0  0  0  0  0  0  0  0  0  0  0  0
   -2.2078   -0.6376   -0.1068 C   0  0  0  0  0  0  0  0  0  0  0  0
   -0.4193    1.7722   -1.8845 H   0  0  0  0  0  0  0  0  0  0  0  0
   -1.8149    2.0343   -0.8361 H   0  0  0  0  0  0  0  0  0  0  0  0
   -2.0697   -0.0749   -2.1779 H   0  0  0  0  0  0  0  0  0  0  0  0
   -0.5757   -0.6883   -1.5064 H   0  0  0  0  0  0  0  0  0  0  0  0
   -3.0941   -0.0385    0.1163 H   0  0  0  0  0  0  0  0  0  0  0  0
   -2.5365   -1.6585   -0.3082 H   0  0  0  0  0  0  0  0  0  0  0  0
   -1.5883   -0.6568    0.7931 H   0  0  0  0  0  0  0  0  0  0  0  0
  1  2  1  0
  1  5  1  0
  1  6  1  0
  1  7  1  0
  2  3  1  0
  2  8  1  0
  2  9  1  0
  3  4  2  0
 10 11  1  0
 10 13  1  0
 10 14  1  0
 11 12  1  0
 11 15  1  0
 11 16  1  0
 12 17  1  0
 12 18  1  0
 12 19  1  0
M  RAD  1  10   2
M  END
>  <reaction>  (13) 
rmg_rxn_501

>  <mol_properties>  (13) 
{"0": {"label": "*3", "atom_type": "Cs"}, "1": {"label": "*4", "atom_type": "Cs"}, "4": {"label": "*2", "atom_type": "H0"}, "9": {"label": "*1", "atom_type": "Cs"}, "10": {"label": "*0", "atom_type": "Cs"}}

>  <type>  (13) 
unop_9

>  <geom_source>  (13) 
Heuristics

$$$$

     RDKit          3D

 19 17  0  0  0  0  0  0  0  0999 V2000
    1.2360    0.7756    0.1815 C   0  0  0  0  0  0  0  0  0  0  0  0
    1.2360   -0.4014    1.1282 C   0  0  0  0  0  0  0  0  0  0  0  0
    1.2360   -1.7495    0.5109 N   0  0  0  0  0  0  0  0  0  0  0  0
    1.2360   -1.7495   -0.6820 O   0  0  0  0  0  0  0  0  0  0  0  0
    0.1798    0.7628   -0.5896 H   0  0  0  0  0  0  0  0  0  0  0  0
    1.2360    1.7040    0.7529 H   0  0  0  0  0  0  0  0  0  0  0  0
    2.1161    0.7650   -0.4611 H   0  0  0  0  0  0  0  0  0  0  0  0
    0.3648   -0.4163    1.7913 H   0  0  0  0  0  0  0  0  0  0  0  0
    2.1072   -0.4163    1.7913 H   0  0  0  0  0  0  0  0  0  0  0  0
   -0.8791    0.7501   -1.3628 C   0  0  0  0  0  3  0  0  0  0  0  0
   -2.1573    0.8165   -0.5368 C   0  0  0  0  0  0  0  0  0  0  0  0
   -1.9609    1.5361    0.7914 C   0  0  0  0  0  0  0  0  0  0  0  0
   -1.0398    0.2315   -2.3095 H   0  0  0  0  0  0  0  0  0  0  0  0
   -0.5078    1.7525   -1.5891 H   0  0  0  0  0  0  0  0  0  0  0  0
   -2.9372    1.3222   -1.1129 H   0  0  0  0  0  0  0  0  0  0  0  0
   -2.5237   -0.1970   -0.3509 H   0  0  0  0  0  0  0  0  0  0  0  0
   -1.6236    2.5633    0.6330 H   0  0  0  0  0  0  0  0  0  0  0  0
   -2.8865    1.5735    1.3682 H   0  0  0  0  0  0  0  0  0  0  0  0
   -1.2068    1.0322    1.4010 H   0  0  0  0  0  0  0  0  0  0  0  0
  1  2  1  0
  1  5  1  0
  1  6  1  0
  1  7  1  0
  2  3  1  0
  2  8  1  0
  2  9  1  0
  3  4  2  0
 10 11  1  0
 10 13  1  0
 10 14  1  0
 11 12  1  0
 11 15  1  0
 11 16  1  0
 12 17  1  0
 12 18  1  0
 12 19  1  0
M  RAD  1  10   2
M  END
>  <reaction>  (14) 
rmg_rxn_501

>  <mol_properties>  (14) 
{"0": {"label": "*3", "atom_type": "Cs"}, "1": {"label": "*4", "atom_type": "Cs"}, "4": {"label": "*2", "atom_type": "H0"}, "9": {"label": "*1", "atom_type": "Cs"}, "10": {"label": "*0", "atom_type": "Cs"}}

>  <type>  (14) 
unop_10

>  <geom_source>  (14) 
Heuristics

$$$$

     RDKit          3D

 19 17  0  0  0  0  0  0  0  0999 V2000
    0.7372    0.8652    1.1439 C   0  0  0  0  0  0  0  0  0  0  0  0
    0.7372   -0.3118    2.0906 C   0  0  0  0  0  0  0  0  0  0  0  0
    0.7372   -1.6599    1.4733 N   0  0  0  0  0  0  0  0  0  0  0  0
    0.7372   -1.6599    0.2804 O   0  0  0  0  0  0  0  0  0  0  0  0
   -0.3190    0.8525    0.3728 H   0  0  0  0  0  0  0  0  0  0  0  0
    0.7372    1.7936    1.7153 H   0  0  0  0  0  0  0  0  0  0  0  0
    1.6173    0.8546    0.5013 H   0  0  0  0  0  0  0  0  0  0  0  0
   -0.1340   -0.3267    2.7536 H   0  0  0  0  0  0  0  0  0  0  0  0
    1.6084   -0.3267    2.7536 H   0  0  0  0  0  0  0  0  0  0  0  0
   -1.3780    0.8397   -0.4004 C   0  0  0  0  0  3  0  0  0  0  0  0
   -1.0761    1.4827   -1.7480 C   0  0  0  0  0  0  0  0  0  0  0  0
   -0.5354    0.4863   -2.7655 C   0  0  0  0  0  0  0  0  0  0  0  0
   -1.7639    1.5685    0.3143 H   0  0  0  0  0  0  0  0  0  0  0  0
   -2.1220    0.0462   -0.5041 H   0  0  0  0  0  0  0  0  0  0  0  0
   -1.9845    1.9476   -2.1411 H   0  0  0  0  0  0  0  0  0  0  0  0
   -0.3535    2.2920   -1.6115 H   0  0  0  0  0  0  0  0  0  0  0  0
   -1.2529   -0.3184   -2.9437 H   0  0  0  0  0  0  0  0  0  0  0  0
   -0.3254    0.9651   -3.7234 H   0  0  0  0  0  0  0  0  0  0  0  0
    0.3910    0.0287   -2.4099 H   0  0  0  0  0  0  0  0  0  0  0  0
  1  2  1  0
  1  5  1  0
  1  6  1  0
  1  7  1  0
  2  3  1  0
  2  8  1  0
  2  9  1  0
  3  4  2  0
 10 11  1  0
 10 13  1  0
 10 14  1  0
 11 12  1  0
 11 15  1  0
 11 16  1  0
 12 17  1  0
 12 18  1  0
 12 19  1  0
M  RAD  1  10   2
M  END
>  <reaction>  (15) 
rmg_rxn_501

>  <mol_properties>  (15) 
{"0": {"label": "*3", "atom_type": "Cs"}, "1": {"label": "*4", "atom_type": "Cs"}, "4": {"label": "*2", "atom_type": "H0"}, "9": {"label": "*1", "atom_type": "Cs"}, "10": {"label": "*0", "atom_type": "Cs"}}

>  <type>  (15) 
unop_11

>  <geom_source>  (15) 
Heuristics

$$$$

     RDKit          3D

 19 17  0  0  0  0  0  0  0  0999 V2000
    1.2269    1.2482    0.3126 C   0  0  0  0  0  0  0  0  0  0  0  0
    1.2269    0.0713    1.2594 C   0  0  0  0  0  0  0  0  0  0  0  0
    1.2269   -1.2769    0.6421 N   0  0  0  0  0  0  0  0  0  0  0  0
    1.2269   -1.2769   -0.5509 O   0  0  0  0  0  0  0  0  0  0  0  0
    0.1708    1.2355   -0.4585 H   0  0  0  0  0  0  0  0  0  0  0  0
    1.2269    2.1767    0.8841 H   0  0  0  0  0  0  0  0  0  0  0  0
    2.1071    1.2376   -0.3300 H   0  0  0  0  0  0  0  0  0  0  0  0
    0.3557    0.0564    1.9224 H   0  0  0  0  0  0  0  0  0  0  0  0
    2.0981    0.0564    1.9224 H   0  0  0  0  0  0  0  0  0  0  0  0
   -0.8882    1.2227   -1.2316 C   0  0  0  0  0  3  0  0  0  0  0  0
   -1.7742    0.0228   -0.9219 C   0  0  0  0  0  0  0  0  0  0  0  0
   -2.2669    0.0138    0.5195 C   0  0  0  0  0  0  0  0  0  0  0  0
   -0.5455    1.2116   -2.2677 H   0  0  0  0  0  0  0  0  0  0  0  0
   -1.4272    2.1590   -1.0675 H   0  0  0  0  0  0  0  0  0  0  0  0
   -2.6321    0.0192   -1.6000 H   0  0  0  0  0  0  0  0  0  0  0  0
   -1.2218   -0.8992   -1.1236 H   0  0  0  0  0  0  0  0  0  0  0  0
   -2.8493    0.9120    0.7388 H   0  0  0  0  0  0  0  0  0  0  0  0
   -2.8993   -0.8523    0.7218 H   0  0  0  0  0  0  0  0  0  0  0  0
   -1.4279   -0.0136    1.2190 H   0  0  0  0  0  0  0  0  0  0  0  0
  1  2  1  0
  1  5  1  0
  1  6  1  0
  1  7  1  0
  2  3  1  0
  2  8  1  0
  2  9  1  0
  3  4  2  0
 10 11  1  0
 10 13  1  0
 10 14  1  0
 11 12  1  0
 11 15  1  0
 11 16  1  0
 12 17  1  0
 12 18  1  0
 12 19  1  0
M  RAD  1  10   2
M  END
>  <reaction>  (16) 
rmg_rxn_501

>  <mol_properties>  (16) 
{"0": {"label": "*3", "atom_type": "Cs"}, "1": {"label": "*4", "atom_type": "Cs"}, "4": {"label": "*2", "atom_type": "H0"}, "9": {"label": "*1", "atom_type": "Cs"}, "10": {"label": "*0", "atom_type": "Cs"}}

>  <type>  (16) 
unop_12

>  <geom_source>  (16) 
Heuristics

$$$$

     RDKit          3D

 19 17  0  0  0  0  0  0  0  0999 V2000
   -2.6963   -1.1449    1.4459 O   0  0  0  0  0  0  0  0  0  0  0  0
   -2.3744   -0.0024    1.3162 N   0  0  0  0  0  0  0  0  0  0  0  0
    1.8686   -0.2249    0.6892 C   0  0  0  0  0  0  0  0  0  0  0  0
    0.7022   -1.0353    0.1356 C   0  0  0  0  0  0  0  0  0  0  0  0
    2.3346    0.8253   -0.3137 C   0  0  0  0  0  0  0  0  0  0  0  0
   -2.4410    0.6401    0.0275 C   0  0  0  0  0  0  0  0  0  0  0  0
   -1.3914    0.0586   -0.9086 C   0  0  0  0  0  3  0  0  0  0  0  0
    2.7124   -0.9084    0.9257 H   0  0  0  0  0  0  0  0  0  0  0  0
    1.5498    0.2795    1.6265 H   0  0  0  0  0  0  0  0  0  0  0  0
    0.3780   -1.7838    0.8890 H   0  0  0  0  0  0  0  0  0  0  0  0
    1.0074   -1.5698   -0.7892 H   0  0  0  0  0  0  0  0  0  0  0  0
   -0.3211   -0.2330   -0.1371 H   0  0  0  0  0  0  0  0  0  0  0  0
    2.6756    0.3383   -1.2522 H   0  0  0  0  0  0  0  0  0  0  0  0
    1.5088    1.5313   -0.5453 H   0  0  0  0  0  0  0  0  0  0  0  0
    3.1821    1.3993    0.1166 H   0  0  0  0  0  0  0  0  0  0  0  0
   -3.4554    0.5113   -0.4085 H   0  0  0  0  0  0  0  0  0  0  0  0
   -2.2454    1.7249    0.1576 H   0  0  0  0  0  0  0  0  0  0  0  0
   -1.3971    0.6094   -1.8728 H   0  0  0  0  0  0  0  0  0  0  0  0
   -1.5971   -1.0156   -1.1025 H   0  0  0  0  0  0  0  0  0  0  0  0
  1  2  2  0
  2  6  1  0
  3  4  1  0
  3  5  1  0
  3  8  1  0
  3  9  1  0
  4 10  1  0
  4 11  1  0
  4 12  1  0
  5 13  1  0
  5 14  1  0
  5 15  1  0
  6  7  1  0
  6 16  1  0
  6 17  1  0
  7 18  1  0
  7 19  1  0
M  RAD  1   7   2
M  END
>  <reaction>  (17) 
rmg_rxn_501

>  <mol_properties>  (17) 
{"0": {"label": "*3", "atom_type": "Cs"}, "1": {"label": "*4", "atom_type": "Cs"}, "4": {"label": "*2", "atom_type": "H0"}, "9": {"label": "*1", "atom_type": "Cs"}, "10": {"label": "*0", "atom_type": "Cs"}}

>  <type>  (17) 
unop_13

>  <geom_source>  (17) 
AutoTST

$$$$

     RDKit          3D

 19 17  0  0  0  0  0  0  0  0999 V2000
    1.2561    1.0272    0.1959 C   0  0  0  0  0  0  0  0  0  0  0  0
    1.2561   -0.1498    1.1426 C   0  0  0  0  0  0  0  0  0  0  0  0
    1.2561   -1.4979    0.5253 N   0  0  0  0  0  0  0  0  0  0  0  0
    1.2561   -1.4979   -0.6676 O   0  0  0  0  0  0  0  0  0  0  0  0
    0.2000    1.0144   -0.5752 H   0  0  0  0  0  0  0  0  0  0  0  0
    1.2561    1.9556    0.7673 H   0  0  0  0  0  0  0  0  0  0  0  0
    2.1362    1.0166   -0.4467 H   0  0  0  0  0  0  0  0  0  0  0  0
    0.3849   -0.1647    1.8056 H   0  0  0  0  0  0  0  0  0  0  0  0
    2.1273   -0.1647    1.8056 H   0  0  0  0  0  0  0  0  0  0  0  0
   -0.8590    1.0017   -1.3484 C   0  0  0  0  0  3  0  0  0  0  0  0
   -2.0404    0.3481   -0.6430 C   0  0  0  0  0  0  0  0  0  0  0  0
   -2.1571    0.7671    0.8169 C   0  0  0  0  0  0  0  0  0  0  0  0
   -0.7922    0.6895   -2.3920 H   0  0  0  0  0  0  0  0  0  0  0  0
   -0.9467    2.0907   -1.3298 H   0  0  0  0  0  0  0  0  0  0  0  0
   -2.9646    0.6020   -1.1696 H   0  0  0  0  0  0  0  0  0  0  0  0
   -1.9439   -0.7395   -0.7030 H   0  0  0  0  0  0  0  0  0  0  0  0
   -2.2857    1.8487    0.9038 H   0  0  0  0  0  0  0  0  0  0  0  0
   -3.0083    0.2891    1.3047 H   0  0  0  0  0  0  0  0  0  0  0  0
   -1.2569    0.4966    1.3741 H   0  0  0  0  0  0  0  0  0  0  0  0
  1  2  1  0
  1  5  1  0
  1  6  1  0
  1  7  1  0
  2  3  1  0
  2  8  1  0
  2  9  1  0
  3  4  2  0
 10 11  1  0
 10 13  1  0
 10 14  1  0
 11 12  1  0
 11 15  1  0
 11 16  1  0
 12 17  1  0
 12 18  1  0
 12 19  1  0
M  RAD  1  10   2
M  END
>  <reaction>  (18) 
rmg_rxn_501

>  <mol_properties>  (18) 
{"0": {"label": "*3", "atom_type": "Cs"}, "1": {"label": "*4", "atom_type": "Cs"}, "4": {"label": "*2", "atom_type": "H0"}, "9": {"label": "*1", "atom_type": "Cs"}, "10": {"label": "*0", "atom_type": "Cs"}}

>  <type>  (18) 
unop_14

>  <geom_source>  (18) 
gaussian_log

$$$$
