
     RDKit          3D

 11 10  0  0  0  0  0  0  0  0999 V2000
   -1.2710    0.1907   -0.2084 C   0  0  0  0  0  0  0  0  0  0  0  0
    0.0202   -0.6130   -0.2928 C   0  0  0  0  0  0  0  0  0  0  0  0
    0.1086   -1.6953    0.7756 C   0  0  0  0  0  0  0  0  0  0  0  0
   -1.3607    0.6851    0.7620 H   0  0  0  0  0  0  0  0  0  0  0  0
   -2.1429   -0.4567   -0.3299 H   0  0  0  0  0  0  0  0  0  0  0  0
   -1.3158    0.9602   -0.9809 H   0  0  0  0  0  0  0  0  0  0  0  0
    0.8757    0.0616   -0.1992 H   0  0  0  0  0  0  0  0  0  0  0  0
    0.0997   -1.0712   -1.2825 H   0  0  0  0  0  0  0  0  0  0  0  0
   -0.7198   -2.4022    0.6850 H   0  0  0  0  0  0  0  0  0  0  0  0
    1.0395   -2.2596    0.6989 H   0  0  0  0  0  0  0  0  0  0  0  0
    0.0624   -1.2603    1.7770 H   0  0  0  0  0  0  0  0  0  0  0  0
  1  2  1  0
  1  4  1  0
  1  5  1  0
  1  6  1  0
  2  3  1  0
  2  7  1  0
  2  8  1  0
  3  9  1  0
  3 10  1  0
  3 11  1  0
M  END
>  <reaction>  (1) 
rmg_rxn_15397

>  <mol_properties>  (1) 
{"0": {"label": "donator", "atom_type": "Cs"}, "3": {"label": "d_hydrogen", "atom_type": "H0"}}

>  <type>  (1) 
r1h

$$$$

     RDKit          3D

  5  4  0  0  0  0  0  0  0  0999 V2000
    0.8934    0.3742    0.4948 O   0  0  0  0  0  0  0  0  0  0  0  0
    0.1582   -0.1610   -0.5904 N   0  0  0  0  0  0  0  0  0  0  0  0
   -1.0297   -0.3739   -0.4689 C   0  0  0  0  0  3  0  0  0  0  0  0
    1.7805    0.4382    0.1306 H   0  0  0  0  0  0  0  0  0  0  0  0
   -1.8023   -0.2775    0.2859 H   0  0  0  0  0  0  0  0  0  0  0  0
  1  2  1  0
  1  4  1  0
  2  3  2  3
  3  5  1  0
M  RAD  1   3   2
M  END
>  <reaction>  (2) 
rmg_rxn_15397

>  <mol_properties>  (2) 
{"2": {"label": "acceptor", "atom_type": "Cd"}}

>  <type>  (2) 
r2

$$$$

     RDKit          3D

  6  5  0  0  0  0  0  0  0  0999 V2000
    1.2314    0.0428    0.5088 O   0  0  0  0  0  0  0  0  0  0  0  0
    0.2987    0.2341   -0.4915 N   0  0  0  0  0  0  0  0  0  0  0  0
   -0.8599   -0.1122   -0.1290 C   0  0  0  0  0  0  0  0  0  0  0  0
    2.0507    0.3401    0.1082 H   0  0  0  0  0  0  0  0  0  0  0  0
   -1.0700   -0.5112    0.8610 H   0  0  0  0  0  0  0  0  0  0  0  0
   -1.6509    0.0064   -0.8574 H   0  0  0  0  0  0  0  0  0  0  0  0
  1  2  1  0
  1  4  1  0
  2  3  2  3
  3  5  1  0
  3  6  1  0
M  END
>  <reaction>  (3) 
rmg_rxn_15397

>  <mol_properties>  (3) 
{"2": {"label": "acceptor", "atom_type": "Cd"}, "5": {"label": "a_hydrogen", "atom_type": "H0"}}

>  <type>  (3) 
r2h

$$$$

     RDKit          3D

 16 14  0  0  0  0  0  0  0  0999 V2000
   -2.8159   -0.3054    0.2519 O   0  0  0  0  0  0  0  0  0  0  0  0
   -1.4311   -0.0994    0.3146 N   0  0  0  0  0  0  0  0  0  0  0  0
   -1.0336    0.8729   -0.3533 C   0  0  0  0  0  3  0  0  0  0  0  0
   -2.9410   -1.0765    0.8098 H   0  0  0  0  0  0  0  0  0  0  0  0
   -1.6364    1.5524   -0.9559 H   0  0  0  0  0  0  0  0  0  0  0  0
    1.6106    1.1827   -0.0503 C   0  0  0  0  0  0  0  0  0  0  0  0
    2.0672   -0.1353    0.5219 C   0  0  0  0  0  0  0  0  0  0  0  0
    1.9598   -1.2855   -0.4711 C   0  0  0  0  0  0  0  0  0  0  0  0
    0.3532    1.0827   -0.2603 H   0  0  0  0  0  0  0  0  0  0  0  0
    2.0278    1.4210   -1.0295 H   0  0  0  0  0  0  0  0  0  0  0  0
    1.6879    2.0281    0.6322 H   0  0  0  0  0  0  0  0  0  0  0  0
    1.4772   -0.3631    1.4138 H   0  0  0  0  0  0  0  0  0  0  0  0
    3.1057   -0.0363    0.8594 H   0  0  0  0  0  0  0  0  0  0  0  0
    0.9241   -1.4288   -0.7835 H   0  0  0  0  0  0  0  0  0  0  0  0
    2.5586   -1.0883   -1.3637 H   0  0  0  0  0  0  0  0  0  0  0  0
    2.3110   -2.2203   -0.0319 H   0  0  0  0  0  0  0  0  0  0  0  0
  1  2  1  0
  1  4  1  0
  2  3  2  3
  3  5  1  0
  6  7  1  0
  6  9  1  0
  6 10  1  0
  6 11  1  0
  7  8  1  0
  7 12  1  0
  7 13  1  0
  8 14  1  0
  8 15  1  0
  8 16  1  0
M  RAD  1   3   2
M  END
>  <reaction>  (4) 
rmg_rxn_15397

>  <mol_properties>  (4) 
{"1": {"label": "*4", "atom_type": "N3d"}, "2": {"label": "*3", "atom_type": "Cd"}, "5": {"label": "*1", "atom_type": "Cs"}, "6": {"label": "*0", "atom_type": "Cs"}, "8": {"label": "*2", "atom_type": "H0"}}

>  <type>  (4) 
ts

$$$$

     RDKit          3D

 16 14  0  0  0  0  0  0  0  0999 V2000
   -2.8269   -0.4096    0.0924 O   0  0  0  0  0  0  0  0  0  0  0  0
   -1.4364   -0.1633    0.0695 N   0  0  0  0  0  0  0  0  0  0  0  0
   -1.0056    0.9606   -0.2096 C   0  0  0  0  0  3  0  0  0  0  0  0
   -2.9014   -1.3425    0.3362 H   0  0  0  0  0  0  0  0  0  0  0  0
   -1.5387    1.8692   -0.4600 H   0  0  0  0  0  0  0  0  0  0  0  0
    1.6095    1.1765   -0.1072 C   0  0  0  0  0  0  0  0  0  0  0  0
    2.1584   -0.0842    0.5026 C   0  0  0  0  0  0  0  0  0  0  0  0
    1.8505   -1.3106   -0.3487 C   0  0  0  0  0  0  0  0  0  0  0  0
    0.3063    1.0562   -0.1664 H   0  0  0  0  0  0  0  0  0  0  0  0
    1.9175    1.3285   -1.1361 H   0  0  0  0  0  0  0  0  0  0  0  0
    1.7778    2.0622    0.4957 H   0  0  0  0  0  0  0  0  0  0  0  0
    1.7390   -0.2190    1.5024 H   0  0  0  0  0  0  0  0  0  0  0  0
    3.2458    0.0118    0.6174 H   0  0  0  0  0  0  0  0  0  0  0  0
    2.2754   -1.1999   -1.3440 H   0  0  0  0  0  0  0  0  0  0  0  0
    2.2679   -2.2062    0.1051 H   0  0  0  0  0  0  0  0  0  0  0  0
    0.7750   -1.4345   -0.4421 H   0  0  0  0  0  0  0  0  0  0  0  0
  1  2  1  0
  1  4  1  0
  2  3  2  3
  3  5  1  0
  6  7  1  0
  6  9  1  0
  6 10  1  0
  6 11  1  0
  7  8  1  0
  7 12  1  0
  7 13  1  0
  8 14  1  0
  8 15  1  0
  8 16  1  0
M  RAD  1   3   2
M  END
>  <reaction>  (5) 
rmg_rxn_15397

>  <mol_properties>  (5) 
{"1": {"label": "*4", "atom_type": "N3d"}, "2": {"label": "*3", "atom_type": "Cd"}, "5": {"label": "*1", "atom_type": "Cs"}, "6": {"label": "*0", "atom_type": "Cs"}, "8": {"label": "*2", "atom_type": "H0"}}

>  <type>  (5) 
unop_1

>  <geom_source>  (5) 
crest_best.xyz

$$$$

     RDKit          3D

 16 14  0  0  0  0  0  0  0  0999 V2000
   -1.8923    2.4304    0.4713 O   0  0  0  0  0  0  0  0  0  0  0  0
   -1.4674    1.1367    0.7011 N   0  0  0  0  0  0  0  0  0  0  0  0
   -0.6932    0.7258   -0.2074 C   0  0  0  0  0  0  0  0  0  0  0  0
   -2.4619    2.6135    1.2210 H   0  0  0  0  0  0  0  0  0  0  0  0
   -0.4108    1.3401   -1.0597 H   0  0  0  0  0  0  0  0  0  0  0  0
    1.4118   -0.6081    0.5667 C   0  0  0  0  0  3  0  0  0  0  0  0
    1.4118   -2.0139   -0.0200 C   0  0  0  0  0  0  0  0  0  0  0  0
    1.4118   -2.0139   -1.5433 C   0  0  0  0  0  0  0  0  0  0  0  0
    0.3540    0.0622    0.1777 H   0  0  0  0  0  0  0  0  0  0  0  0
    2.2932   -0.0495    0.2426 H   0  0  0  0  0  0  0  0  0  0  0  0
    1.4118   -0.6288    1.6578 H   0  0  0  0  0  0  0  0  0  0  0  0
    0.5372   -2.5602    0.3440 H   0  0  0  0  0  0  0  0  0  0  0  0
    2.2863   -2.5602    0.3440 H   0  0  0  0  0  0  0  0  0  0  0  0
    2.2932   -1.4996   -1.9340 H   0  0  0  0  0  0  0  0  0  0  0  0
    1.4118   -3.0288   -1.9445 H   0  0  0  0  0  0  0  0  0  0  0  0
    0.5303   -1.4996   -1.9340 H   0  0  0  0  0  0  0  0  0  0  0  0
  1  2  1  0
  1  4  1  0
  2  3  2  3
  3  5  1  0
  3  9  1  0
  6  7  1  0
  6 10  1  0
  6 11  1  0
  7  8  1  0
  7 12  1  0
  7 13  1  0
  8 14  1  0
  8 15  1  0
  8 16  1  0
M  RAD  1   6   2
M  END
>  <reaction>  (6) 
rmg_rxn_15397

>  <mol_properties>  (6) 
{"1": {"label": "*4", "atom_type": "N3d"}, "2": {"label": "*3", "atom_type": "Cd"}, "5": {"label": "*1", "atom_type": "Cs"}, "6": {"label": "*0", "atom_type": "Cs"}, "8": {"label": "*2", "atom_type": "H0"}}

>  <type>  (6) 
unop_2

>  <geom_source>  (6) 
Heuristics

$$$$

     RDKit          3D

 16 14  0  0  0  0  0  0  0  0999 V2000
   -2.8284   -0.4103    0.0927 O   0  0  0  0  0  0  0  0  0  0  0  0
   -1.4379   -0.1637    0.0721 N   0  0  0  0  0  0  0  0  0  0  0  0
   -1.0067    0.9580   -0.2147 C   0  0  0  0  0  3  0  0  0  0  0  0
   -2.9035   -1.3411    0.3442 H   0  0  0  0  0  0  0  0  0  0  0  0
   -1.5390    1.8647   -0.4739 H   0  0  0  0  0  0  0  0  0  0  0  0
    1.6078    1.1772   -0.1044 C   0  0  0  0  0  0  0  0  0  0  0  0
    2.1574   -0.0835    0.5046 C   0  0  0  0  0  0  0  0  0  0  0  0
    1.8573   -1.3085   -0.3515 C   0  0  0  0  0  0  0  0  0  0  0  0
    0.3050    1.0548   -0.1676 H   0  0  0  0  0  0  0  0  0  0  0  0
    1.9184    1.3317   -1.1321 H   0  0  0  0  0  0  0  0  0  0  0  0
    1.7729    2.0620    0.5007 H   0  0  0  0  0  0  0  0  0  0  0  0
    1.7335   -0.2224    1.5019 H   0  0  0  0  0  0  0  0  0  0  0  0
    3.2439    0.0154    0.6251 H   0  0  0  0  0  0  0  0  0  0  0  0
    0.7827   -1.4354   -0.4507 H   0  0  0  0  0  0  0  0  0  0  0  0
    2.2870   -1.1939   -1.3444 H   0  0  0  0  0  0  0  0  0  0  0  0
    2.2750   -2.2041    0.1020 H   0  0  0  0  0  0  0  0  0  0  0  0
  1  2  1  0
  1  4  1  0
  2  3  2  3
  3  5  1  0
  6  7  1  0
  6  9  1  0
  6 10  1  0
  6 11  1  0
  7  8  1  0
  7 12  1  0
  7 13  1  0
  8 14  1  0
  8 15  1  0
  8 16  1  0
M  RAD  1   3   2
M  END
>  <reaction>  (7) 
rmg_rxn_15397

>  <mol_properties>  (7) 
{"1": {"label": "*4", "atom_type": "N3d"}, "2": {"label": "*3", "atom_type": "Cd"}, "5": {"label": "*1", "atom_type": "Cs"}, "6": {"label": "*0", "atom_type": "Cs"}, "8": {"label": "*2", "atom_type": "H0"}}

>  <type>  (7) 
unop_3

>  <geom_source>  (7) 
Heuristics

$$$$

     RDKit          3D

 16 14  0  0  0  0  0  0  0  0999 V2000
   -2.8269   -0.4097   -0.0923 O   0  0  0  0  0  0  0  0  0  0  0  0
   -1.4364   -0.1651   -0.0608 N   0  0  0  0  0  0  0  0  0  0  0  0
   -1.0063    0.9642    0.1970 C   0  0  0  0  0  3  0  0  0  0  0  0
   -2.9007   -1.3478   -0.3151 H   0  0  0  0  0  0  0  0  0  0  0  0
   -1.5405    1.8792    0.4209 H   0  0  0  0  0  0  0  0  0  0  0  0
    1.6099    1.1753    0.1155 C   0  0  0  0  0  0  0  0  0  0  0  0
    2.1610   -0.0816   -0.5003 C   0  0  0  0  0  0  0  0  0  0  0  0
    1.8485   -1.3134    0.3415 C   0  0  0  0  0  0  0  0  0  0  0  0
    0.3060    1.0571    0.1646 H   0  0  0  0  0  0  0  0  0  0  0  0
    1.7840    2.0653   -0.4795 H   0  0  0  0  0  0  0  0  0  0  0  0
    1.9109    1.3187    1.1476 H   0  0  0  0  0  0  0  0  0  0  0  0
    3.2489    0.0147   -0.6096 H   0  0  0  0  0  0  0  0  0  0  0  0
    1.7461   -0.2096   -1.5028 H   0  0  0  0  0  0  0  0  0  0  0  0
    0.7725   -1.4360    0.4312 H   0  0  0  0  0  0  0  0  0  0  0  0
    2.2656   -2.2065   -0.1175 H   0  0  0  0  0  0  0  0  0  0  0  0
    2.2709   -1.2104    1.3387 H   0  0  0  0  0  0  0  0  0  0  0  0
  1  2  1  0
  1  4  1  0
  2  3  2  3
  3  5  1  0
  6  7  1  0
  6  9  1  0
  6 10  1  0
  6 11  1  0
  7  8  1  0
  7 12  1  0
  7 13  1  0
  8 14  1  0
  8 15  1  0
  8 16  1  0
M  RAD  1   3   2
M  END
>  <reaction>  (8) 
rmg_rxn_15397

>  <mol_properties>  (8) 
{"1": {"label": "*4", "atom_type": "N3d"}, "2": {"label": "*3", "atom_type": "Cd"}, "5": {"label": "*1", "atom_type": "Cs"}, "6": {"label": "*0", "atom_type": "Cs"}, "8": {"label": "*2", "atom_type": "H0"}}

>  <type>  (8) 
unop_4

>  <geom_source>  (8) 
Heuristics

$$$$

     RDKit          3D

 16 14  0  0  0  0  0  0  0  0999 V2000
   -2.6323    1.3247   -0.0928 O   0  0  0  0  0  0  0  0  0  0  0  0
   -1.4993    0.5353   -0.0809 N   0  0  0  0  0  0  0  0  0  0  0  0
   -0.4572    1.2090    0.1510 C   0  0  0  0  0  0  0  0  0  0  0  0
   -3.3364    0.6997   -0.2763 H   0  0  0  0  0  0  0  0  0  0  0  0
   -0.4785    2.2838    0.3181 H   0  0  0  0  0  0  0  0  0  0  0  0
    1.6478   -0.1249    0.9251 C   0  0  0  0  0  3  0  0  0  0  0  0
    1.6478   -1.5308    0.3384 C   0  0  0  0  0  0  0  0  0  0  0  0
    1.6478   -1.5308   -1.1850 C   0  0  0  0  0  0  0  0  0  0  0  0
    0.5901    0.5453    0.5361 H   0  0  0  0  0  0  0  0  0  0  0  0
    2.5293    0.4336    0.6010 H   0  0  0  0  0  0  0  0  0  0  0  0
    1.6478   -0.1456    2.0162 H   0  0  0  0  0  0  0  0  0  0  0  0
    0.7733   -2.0771    0.7024 H   0  0  0  0  0  0  0  0  0  0  0  0
    2.5223   -2.0771    0.7024 H   0  0  0  0  0  0  0  0  0  0  0  0
    2.5292   -1.0165   -1.5756 H   0  0  0  0  0  0  0  0  0  0  0  0
    1.6478   -2.5457   -1.5861 H   0  0  0  0  0  0  0  0  0  0  0  0
    0.7663   -1.0165   -1.5756 H   0  0  0  0  0  0  0  0  0  0  0  0
  1  2  1  0
  1  4  1  0
  2  3  2  3
  3  5  1  0
  3  9  1  0
  6  7  1  0
  6 10  1  0
  6 11  1  0
  7  8  1  0
  7 12  1  0
  7 13  1  0
  8 14  1  0
  8 15  1  0
  8 16  1  0
M  RAD  1   6   2
M  END
>  <reaction>  (9) 
rmg_rxn_15397

>  <mol_properties>  (9) 
{"1": {"label": "*4", "atom_type": "N3d"}, "2": {"label": "*3", "atom_type": "Cd"}, "5": {"label": "*1", "atom_type": "Cs"}, "6": {"label": "*0", "atom_type": "Cs"}, "8": {"label": "*2", "atom_type": "H0"}}

>  <type>  (9) 
unop_5

>  <geom_source>  (9) 
Heuristics

$$$$

     RDKit          3D

 16 14  0  0  0  0  0  0  0  0999 V2000
   -2.8262   -0.4096    0.0924 O   0  0  0  0  0  0  0  0  0  0  0  0
   -1.4357   -0.1646    0.0617 N   0  0  0  0  0  0  0  0  0  0  0  0
   -1.0059    0.9642   -0.1986 C   0  0  0  0  0  3  0  0  0  0  0  0
   -2.8999   -1.3471    0.3178 H   0  0  0  0  0  0  0  0  0  0  0  0
   -1.5401    1.8783   -0.4255 H   0  0  0  0  0  0  0  0  0  0  0  0
    1.6102    1.1754   -0.1143 C   0  0  0  0  0  0  0  0  0  0  0  0
    2.1600   -0.0824    0.5007 C   0  0  0  0  0  0  0  0  0  0  0  0
    1.8472   -1.3132   -0.3425 C   0  0  0  0  0  0  0  0  0  0  0  0
    0.3064    1.0575   -0.1657 H   0  0  0  0  0  0  0  0  0  0  0  0
    1.9127    1.3200   -1.1459 H   0  0  0  0  0  0  0  0  0  0  0  0
    1.7836    2.0647    0.4819 H   0  0  0  0  0  0  0  0  0  0  0  0
    1.7444   -0.2110    1.5028 H   0  0  0  0  0  0  0  0  0  0  0  0
    3.2480    0.0129    0.6108 H   0  0  0  0  0  0  0  0  0  0  0  0
    0.7712   -1.4347   -0.4333 H   0  0  0  0  0  0  0  0  0  0  0  0
    2.2707   -1.2097   -1.3393 H   0  0  0  0  0  0  0  0  0  0  0  0
    2.2631   -2.2071    0.1161 H   0  0  0  0  0  0  0  0  0  0  0  0
  1  2  1  0
  1  4  1  0
  2  3  2  3
  3  5  1  0
  6  7  1  0
  6  9  1  0
  6 10  1  0
  6 11  1  0
  7  8  1  0
  7 12  1  0
  7 13  1  0
  8 14  1  0
  8 15  1  0
  8 16  1  0
M  RAD  1   3   2
M  END
>  <reaction>  (10) 
rmg_rxn_15397

>  <mol_properties>  (10) 
{"1": {"label": "*4", "atom_type": "N3d"}, "2": {"label": "*3", "atom_type": "Cd"}, "5": {"label": "*1", "atom_type": "Cs"}, "6": {"label": "*0", "atom_type": "Cs"}, "8": {"label": "*2", "atom_type": "H0"}}

>  <type>  (10) 
unop_6

>  <geom_source>  (10) 
Heuristics

$$$$

     RDKit          3D

 16 14  0  0  0  0  0  0  0  0999 V2000
   -1.7763    2.5569    0.0482 O   0  0  0  0  0  0  0  0  0  0  0  0
   -1.2246    1.4814    0.7162 N   0  0  0  0  0  0  0  0  0  0  0  0
   -0.7862    0.6056   -0.0803 C   0  0  0  0  0  0  0  0  0  0  0  0
   -2.0641    3.1348    0.7576 H   0  0  0  0  0  0  0  0  0  0  0  0
   -0.8488    0.7117   -1.1612 H   0  0  0  0  0  0  0  0  0  0  0  0
    1.3187   -0.7283    0.6938 C   0  0  0  0  0  3  0  0  0  0  0  0
    1.3187   -2.1341    0.1071 C   0  0  0  0  0  0  0  0  0  0  0  0
    1.3187   -2.1341   -1.4163 C   0  0  0  0  0  0  0  0  0  0  0  0
    0.2610   -0.0580    0.3048 H   0  0  0  0  0  0  0  0  0  0  0  0
    2.2002   -0.1697    0.3697 H   0  0  0  0  0  0  0  0  0  0  0  0
    1.3187   -0.7490    1.7849 H   0  0  0  0  0  0  0  0  0  0  0  0
    0.4442   -2.6805    0.4711 H   0  0  0  0  0  0  0  0  0  0  0  0
    2.1933   -2.6805    0.4711 H   0  0  0  0  0  0  0  0  0  0  0  0
    2.2002   -1.6198   -1.8069 H   0  0  0  0  0  0  0  0  0  0  0  0
    1.3187   -3.1490   -1.8174 H   0  0  0  0  0  0  0  0  0  0  0  0
    0.4373   -1.6199   -1.8069 H   0  0  0  0  0  0  0  0  0  0  0  0
  1  2  1  0
  1  4  1  0
  2  3  2  3
  3  5  1  0
  3  9  1  0
  6  7  1  0
  6 10  1  0
  6 11  1  0
  7  8  1  0
  7 12  1  0
  7 13  1  0
  8 14  1  0
  8 15  1  0
  8 16  1  0
M  RAD  1   6   2
M  END
>  <reaction>  (11) 
rmg_rxn_15397

>  <mol_properties>  (11) 
{"1": {"label": "*4", "atom_type": "N3d"}, "2": {"label": "*3", "atom_type": "Cd"}, "5": {"label": "*1", "atom_type": "Cs"}, "6": {"label": "*0", "atom_type": "Cs"}, "8": {"label": "*2", "atom_type": "H0"}}

>  <type>  (11) 
unop_7

>  <geom_source>  (11) 
Heuristics

$$$$

     RDKit          3D

 16 14  0  0  0  0  0  0  0  0999 V2000
   -1.6392    2.1944   -0.9742 O   0  0  0  0  0  0  0  0  0  0  0  0
   -1.0153    0.9981   -0.6795 N   0  0  0  0  0  0  0  0  0  0  0  0
   -0.8778    0.8314    0.5642 C   0  0  0  0  0  0  0  0  0  0  0  0
   -1.6791    2.1938   -1.9325 H   0  0  0  0  0  0  0  0  0  0  0  0
   -1.2200    1.5608    1.2953 H   0  0  0  0  0  0  0  0  0  0  0  0
    1.2271   -0.5025    1.3383 C   0  0  0  0  0  3  0  0  0  0  0  0
    1.2271   -1.9083    0.7516 C   0  0  0  0  0  0  0  0  0  0  0  0
    1.2271   -1.9083   -0.7718 C   0  0  0  0  0  0  0  0  0  0  0  0
    0.1694    0.1678    0.9493 H   0  0  0  0  0  0  0  0  0  0  0  0
    2.1086    0.0560    1.0142 H   0  0  0  0  0  0  0  0  0  0  0  0
    1.2271   -0.5232    2.4294 H   0  0  0  0  0  0  0  0  0  0  0  0
    0.3526   -2.4547    1.1156 H   0  0  0  0  0  0  0  0  0  0  0  0
    2.1016   -2.4547    1.1156 H   0  0  0  0  0  0  0  0  0  0  0  0
    2.1086   -1.3941   -1.1624 H   0  0  0  0  0  0  0  0  0  0  0  0
    1.2271   -2.9232   -1.1729 H   0  0  0  0  0  0  0  0  0  0  0  0
    0.3457   -1.3941   -1.1624 H   0  0  0  0  0  0  0  0  0  0  0  0
  1  2  1  0
  1  4  1  0
  2  3  2  3
  3  5  1  0
  3  9  1  0
  6  7  1  0
  6 10  1  0
  6 11  1  0
  7  8  1  0
  7 12  1  0
  7 13  1  0
  8 14  1  0
  8 15  1  0
  8 16  1  0
M  RAD  1   6   2
M  END
>  <reaction>  (12) 
rmg_rxn_15397

>  <mol_properties>  (12) 
{"1": {"label": "*4", "atom_type": "N3d"}, "2": {"label": "*3", "atom_type": "Cd"}, "5": {"label": "*1", "atom_type": "Cs"}, "6": {"label": "*0", "atom_type": "Cs"}, "8": {"label": "*2", "atom_type": "H0"}}

>  <type>  (12) 
unop_8

>  <geom_source>  (12) 
Heuristics

$$$$

     RDKit          3D

 16 14  0  0  0  0  0  0  0  0999 V2000
   -2.8275   -0.4104    0.0933 O   0  0  0  0  0  0  0  0  0  0  0  0
   -1.4371   -0.1639    0.0695 N   0  0  0  0  0  0  0  0  0  0  0  0
   -1.0065    0.9593   -0.2126 C   0  0  0  0  0  3  0  0  0  0  0  0
   -2.9020   -1.3425    0.3400 H   0  0  0  0  0  0  0  0  0  0  0  0
   -1.5398    1.8673   -0.4651 H   0  0  0  0  0  0  0  0  0  0  0  0
    1.6082    1.1770   -0.1058 C   0  0  0  0  0  0  0  0  0  0  0  0
    2.1566   -0.0836    0.5047 C   0  0  0  0  0  0  0  0  0  0  0  0
    1.8558   -1.3091   -0.3504 C   0  0  0  0  0  0  0  0  0  0  0  0
    0.3052    1.0556   -0.1682 H   0  0  0  0  0  0  0  0  0  0  0  0
    1.9185    1.3299   -1.1338 H   0  0  0  0  0  0  0  0  0  0  0  0
    1.7743    2.0624    0.4981 H   0  0  0  0  0  0  0  0  0  0  0  0
    1.7321   -0.2211    1.5019 H   0  0  0  0  0  0  0  0  0  0  0  0
    3.2431    0.0146    0.6255 H   0  0  0  0  0  0  0  0  0  0  0  0
    2.2723   -2.2047    0.1043 H   0  0  0  0  0  0  0  0  0  0  0  0
    0.7811   -1.4350   -0.4503 H   0  0  0  0  0  0  0  0  0  0  0  0
    2.2863   -1.1959   -1.3431 H   0  0  0  0  0  0  0  0  0  0  0  0
  1  2  1  0
  1  4  1  0
  2  3  2  3
  3  5  1  0
  6  7  1  0
  6  9  1  0
  6 10  1  0
  6 11  1  0
  7  8  1  0
  7 12  1  0
  7 13  1  0
  8 14  1  0
  8 15  1  0
  8 16  1  0
M  RAD  1   3   2
M  END
>  <reaction>  (13) 
rmg_rxn_15397

>  <mol_properties>  (13) 
{"1": {"label": "*4", "atom_type": "N3d"}, "2": {"label": "*3", "atom_type": "Cd"}, "5": {"label": "*1", "atom_type": "Cs"}, "6": {"label": "*0", "atom_type": "Cs"}, "8": {"label": "*2", "atom_type": "H0"}}

>  <type>  (13) 
unop_9

>  <geom_source>  (13) 
Heuristics

$$$$

     RDKit          3D

 16 14  0  0  0  0  0  0  0  0999 V2000
   -2.0364    2.3878   -0.0308 O   0  0  0  0  0  0  0  0  0  0  0  0
   -0.8916    1.7726    0.4362 N   0  0  0  0  0  0  0  0  0  0  0  0
   -0.7843    0.5892    0.0101 C   0  0  0  0  0  0  0  0  0  0  0  0
   -1.9941    3.2623    0.3609 H   0  0  0  0  0  0  0  0  0  0  0  0
   -1.5220    0.1330   -0.6466 H   0  0  0  0  0  0  0  0  0  0  0  0
    1.3206   -0.7447    0.7842 C   0  0  0  0  0  3  0  0  0  0  0  0
    1.3206   -2.1505    0.1975 C   0  0  0  0  0  0  0  0  0  0  0  0
    1.3206   -2.1505   -1.3259 C   0  0  0  0  0  0  0  0  0  0  0  0
    0.2629   -0.0744    0.3952 H   0  0  0  0  0  0  0  0  0  0  0  0
    2.2021   -0.1861    0.4600 H   0  0  0  0  0  0  0  0  0  0  0  0
    1.3206   -0.7654    1.8753 H   0  0  0  0  0  0  0  0  0  0  0  0
    0.4461   -2.6969    0.5615 H   0  0  0  0  0  0  0  0  0  0  0  0
    2.1952   -2.6969    0.5615 H   0  0  0  0  0  0  0  0  0  0  0  0
    2.2021   -1.6362   -1.7165 H   0  0  0  0  0  0  0  0  0  0  0  0
    1.3206   -3.1654   -1.7270 H   0  0  0  0  0  0  0  0  0  0  0  0
    0.4392   -1.6362   -1.7165 H   0  0  0  0  0  0  0  0  0  0  0  0
  1  2  1  0
  1  4  1  0
  2  3  2  3
  3  5  1  0
  3  9  1  0
  6  7  1  0
  6 10  1  0
  6 11  1  0
  7  8  1  0
  7 12  1  0
  7 13  1  0
  8 14  1  0
  8 15  1  0
  8 16  1  0
M  RAD  1   6   2
M  END
>  <reaction>  (14) 
rmg_rxn_15397

>  <mol_properties>  (14) 
{"1": {"label": "*4", "atom_type": "N3d"}, "2": {"label": "*3", "atom_type": "Cd"}, "5": {"label": "*1", "atom_type": "Cs"}, "6": {"label": "*0", "atom_type": "Cs"}, "8": {"label": "*2", "atom_type": "H0"}}

>  <type>  (14) 
unop_10

>  <geom_source>  (14) 
Heuristics

$$$$

     RDKit          3D

 16 14  0  0  0  0  0  0  0  0999 V2000
   -2.8262   -0.4100   -0.0930 O   0  0  0  0  0  0  0  0  0  0  0  0
   -1.4357   -0.1641   -0.0645 N   0  0  0  0  0  0  0  0  0  0  0  0
   -1.0059    0.9627    0.2043 C   0  0  0  0  0  3  0  0  0  0  0  0
   -2.8997   -1.3457   -0.3263 H   0  0  0  0  0  0  0  0  0  0  0  0
   -1.5398    1.8746    0.4409 H   0  0  0  0  0  0  0  0  0  0  0  0
    1.6097    1.1760    0.1108 C   0  0  0  0  0  0  0  0  0  0  0  0
    2.1579   -0.0833   -0.5025 C   0  0  0  0  0  0  0  0  0  0  0  0
    1.8497   -1.3117    0.3459 C   0  0  0  0  0  0  0  0  0  0  0  0
    0.3063    1.0571    0.1665 H   0  0  0  0  0  0  0  0  0  0  0  0
    1.7807    2.0636   -0.4886 H   0  0  0  0  0  0  0  0  0  0  0  0
    1.9158    1.3238    1.1409 H   0  0  0  0  0  0  0  0  0  0  0  0
    3.2453    0.0126   -0.6176 H   0  0  0  0  0  0  0  0  0  0  0  0
    1.7380   -0.2154   -1.5024 H   0  0  0  0  0  0  0  0  0  0  0  0
    2.2769   -1.2046    1.3407 H   0  0  0  0  0  0  0  0  0  0  0  0
    0.7742   -1.4342    0.4411 H   0  0  0  0  0  0  0  0  0  0  0  0
    2.2648   -2.2066   -0.1114 H   0  0  0  0  0  0  0  0  0  0  0  0
  1  2  1  0
  1  4  1  0
  2  3  2  3
  3  5  1  0
  6  7  1  0
  6  9  1  0
  6 10  1  0
  6 11  1  0
  7  8  1  0
  7 12  1  0
  7 13  1  0
  8 14  1  0
  8 15  1  0
  8 16  1  0
M  RAD  1   3   2
M  END
>  <reaction>  (15) 
rmg_rxn_15397

>  <mol_properties>  (15) 
{"1": {"label": "*4", "atom_type": "N3d"}, "2": {"label": "*3", "atom_type": "Cd"}, "5": {"label": "*1", "atom_type": "Cs"}, "6": {"label": "*0", "atom_type": "Cs"}, "8": {"label": "*2", "atom_type": "H0"}}

>  <type>  (15) 
unop_11

>  <geom_source>  (15) 
Heuristics

$$$$

     RDKit          3D

 16 14  0  0  0  0  0  0  0  0999 V2000
   -1.4695    2.5462   -0.5507 O   0  0  0  0  0  0  0  0  0  0  0  0
   -0.8550    1.3129   -0.6426 N   0  0  0  0  0  0  0  0  0  0  0  0
   -0.9680    0.6486    0.4248 C   0  0  0  0  0  0  0  0  0  0  0  0
   -1.3108    2.9380   -1.4117 H   0  0  0  0  0  0  0  0  0  0  0  0
   -1.4932    1.0276    1.2989 H   0  0  0  0  0  0  0  0  0  0  0  0
    1.1370   -0.6853    1.1988 C   0  0  0  0  0  3  0  0  0  0  0  0
    1.1370   -2.0911    0.6121 C   0  0  0  0  0  0  0  0  0  0  0  0
    1.1370   -2.0911   -0.9112 C   0  0  0  0  0  0  0  0  0  0  0  0
    0.0792   -0.0150    0.8099 H   0  0  0  0  0  0  0  0  0  0  0  0
    2.0184   -0.1268    0.8747 H   0  0  0  0  0  0  0  0  0  0  0  0
    1.1369   -0.7060    2.2899 H   0  0  0  0  0  0  0  0  0  0  0  0
    0.2624   -2.6375    0.9761 H   0  0  0  0  0  0  0  0  0  0  0  0
    2.0115   -2.6375    0.9761 H   0  0  0  0  0  0  0  0  0  0  0  0
    2.0184   -1.5769   -1.3018 H   0  0  0  0  0  0  0  0  0  0  0  0
    1.1370   -3.1060   -1.3124 H   0  0  0  0  0  0  0  0  0  0  0  0
    0.2555   -1.5769   -1.3018 H   0  0  0  0  0  0  0  0  0  0  0  0
  1  2  1  0
  1  4  1  0
  2  3  2  3
  3  5  1  0
  3  9  1  0
  6  7  1  0
  6 10  1  0
  6 11  1  0
  7  8  1  0
  7 12  1  0
  7 13  1  0
  8 14  1  0
  8 15  1  0
  8 16  1  0
M  RAD  1   6   2
M  END
>  <reaction>  (16) 
rmg_rxn_15397

>  <mol_properties>  (16) 
{"1": {"label": "*4", "atom_type": "N3d"}, "2": {"label": "*3", "atom_type": "Cd"}, "5": {"label": "*1", "atom_type": "Cs"}, "6": {"label": "*0", "atom_type": "Cs"}, "8": {"label": "*2", "atom_type": "H0"}}

>  <type>  (16) 
unop_12

>  <geom_source>  (16) 
Heuristics

$$$$

     RDKit          3D

 16 14  0  0  0  0  0  0  0  0999 V2000
   -2.8273    0.4093    0.0915 O   0  0  0  0  0  0  0  0  0  0  0  0
   -1.4366    0.1647    0.0635 N   0  0  0  0  0  0  0  0  0  0  0  0
   -1.0061   -0.9633   -0.1988 C   0  0  0  0  0  3  0  0  0  0  0  0
   -2.9019    1.3462    0.3192 H   0  0  0  0  0  0  0  0  0  0  0  0
   -1.5398   -1.8768   -0.4297 H   0  0  0  0  0  0  0  0  0  0  0  0
    1.6100   -1.1755   -0.1141 C   0  0  0  0  0  0  0  0  0  0  0  0
    2.1615    0.0820    0.5001 C   0  0  0  0  0  0  0  0  0  0  0  0
    1.8483    1.3131   -0.3426 C   0  0  0  0  0  0  0  0  0  0  0  0
    0.3062   -1.0568   -0.1647 H   0  0  0  0  0  0  0  0  0  0  0  0
    1.7835   -2.0647    0.4822 H   0  0  0  0  0  0  0  0  0  0  0  0
    1.9113   -1.3204   -1.1460 H   0  0  0  0  0  0  0  0  0  0  0  0
    3.2496   -0.0141    0.6085 H   0  0  0  0  0  0  0  0  0  0  0  0
    1.7475    0.2108    1.5029 H   0  0  0  0  0  0  0  0  0  0  0  0
    2.2651    2.2068    0.1158 H   0  0  0  0  0  0  0  0  0  0  0  0
    2.2708    1.2095   -1.3397 H   0  0  0  0  0  0  0  0  0  0  0  0
    0.7723    1.4350   -0.4323 H   0  0  0  0  0  0  0  0  0  0  0  0
  1  2  1  0
  1  4  1  0
  2  3  2  3
  3  5  1  0
  6  7  1  0
  6  9  1  0
  6 10  1  0
  6 11  1  0
  7  8  1  0
  7 12  1  0
  7 13  1  0
  8 14  1  0
  8 15  1  0
  8 16  1  0
M  RAD  1   3   2
M  END
>  <reaction>  (17) 
rmg_rxn_15397

>  <mol_properties>  (17) 
{"1": {"label": "*4", "atom_type": "N3d"}, "2": {"label": "*3", "atom_type": "Cd"}, "5": {"label": "*1", "atom_type": "Cs"}, "6": {"label": "*0", "atom_type": "Cs"}, "8": {"label": "*2", "atom_type": "H0"}}

>  <type>  (17) 
unop_13

>  <geom_source>  (17) 
Heuristics

$$$$

     RDKit          3D

 16 14  0  0  0  0  0  0  0  0999 V2000
   -1.5764    2.6390   -0.0284 O   0  0  0  0  0  0  0  0  0  0  0  0
   -0.7489    1.6110   -0.4354 N   0  0  0  0  0  0  0  0  0  0  0  0
   -0.9600    0.5497    0.2146 C   0  0  0  0  0  0  0  0  0  0  0  0
   -1.3158    3.3701   -0.5919 H   0  0  0  0  0  0  0  0  0  0  0  0
   -1.7118    0.4813    0.9980 H   0  0  0  0  0  0  0  0  0  0  0  0
    1.1450   -0.7842    0.9887 C   0  0  0  0  0  3  0  0  0  0  0  0
    1.1450   -2.1900    0.4020 C   0  0  0  0  0  0  0  0  0  0  0  0
    1.1450   -2.1900   -1.1213 C   0  0  0  0  0  0  0  0  0  0  0  0
    0.0872   -0.1139    0.5997 H   0  0  0  0  0  0  0  0  0  0  0  0
    2.0264   -0.2256    0.6646 H   0  0  0  0  0  0  0  0  0  0  0  0
    1.1450   -0.8049    2.0798 H   0  0  0  0  0  0  0  0  0  0  0  0
    0.2704   -2.7364    0.7660 H   0  0  0  0  0  0  0  0  0  0  0  0
    2.0195   -2.7364    0.7660 H   0  0  0  0  0  0  0  0  0  0  0  0
    2.0264   -1.6757   -1.5120 H   0  0  0  0  0  0  0  0  0  0  0  0
    1.1450   -3.2049   -1.5225 H   0  0  0  0  0  0  0  0  0  0  0  0
    0.2635   -1.6758   -1.5120 H   0  0  0  0  0  0  0  0  0  0  0  0
  1  2  1  0
  1  4  1  0
  2  3  2  3
  3  5  1  0
  3  9  1  0
  6  7  1  0
  6 10  1  0
  6 11  1  0
  7  8  1  0
  7 12  1  0
  7 13  1  0
  8 14  1  0
  8 15  1  0
  8 16  1  0
M  RAD  1   6   2
M  END
>  <reaction>  (18) 
rmg_rxn_15397

>  <mol_properties>  (18) 
{"1": {"label": "*4", "atom_type": "N3d"}, "2": {"label": "*3", "atom_type": "Cd"}, "5": {"label": "*1", "atom_type": "Cs"}, "6": {"label": "*0", "atom_type": "Cs"}, "8": {"label": "*2", "atom_type": "H0"}}

>  <type>  (18) 
unop_14

>  <geom_source>  (18) 
Heuristics

$$$$

     RDKit          3D

 16 14  0  0  0  0  0  0  0  0999 V2000
   -2.8266   -0.4107   -0.0933 O   0  0  0  0  0  0  0  0  0  0  0  0
   -1.4365   -0.1623   -0.0740 N   0  0  0  0  0  0  0  0  0  0  0  0
   -1.0059    0.9582    0.2187 C   0  0  0  0  0  3  0  0  0  0  0  0
   -2.9009   -1.3402   -0.3497 H   0  0  0  0  0  0  0  0  0  0  0  0
   -1.5387    1.8626    0.4846 H   0  0  0  0  0  0  0  0  0  0  0  0
    1.6083    1.1775    0.1017 C   0  0  0  0  0  0  0  0  0  0  0  0
    2.1549   -0.0854   -0.5056 C   0  0  0  0  0  0  0  0  0  0  0  0
    1.8549   -1.3080    0.3540 C   0  0  0  0  0  0  0  0  0  0  0  0
    0.3056    1.0560    0.1690 H   0  0  0  0  0  0  0  0  0  0  0  0
    1.7723    2.0605   -0.5062 H   0  0  0  0  0  0  0  0  0  0  0  0
    1.9220    1.3344    1.1281 H   0  0  0  0  0  0  0  0  0  0  0  0
    3.2414    0.0117   -0.6286 H   0  0  0  0  0  0  0  0  0  0  0  0
    1.7287   -0.2260   -1.5016 H   0  0  0  0  0  0  0  0  0  0  0  0
    2.2859   -1.1912    1.3461 H   0  0  0  0  0  0  0  0  0  0  0  0
    0.7804   -1.4338    0.4549 H   0  0  0  0  0  0  0  0  0  0  0  0
    2.2713   -2.2051   -0.0978 H   0  0  0  0  0  0  0  0  0  0  0  0
  1  2  1  0
  1  4  1  0
  2  3  2  3
  3  5  1  0
  6  7  1  0
  6  9  1  0
  6 10  1  0
  6 11  1  0
  7  8  1  0
  7 12  1  0
  7 13  1  0
  8 14  1  0
  8 15  1  0
  8 16  1  0
M  RAD  1   3   2
M  END
>  <reaction>  (19) 
rmg_rxn_15397

>  <mol_properties>  (19) 
{"1": {"label": "*4", "atom_type": "N3d"}, "2": {"label": "*3", "atom_type": "Cd"}, "5": {"label": "*1", "atom_type": "Cs"}, "6": {"label": "*0", "atom_type": "Cs"}, "8": {"label": "*2", "atom_type": "H0"}}

>  <type>  (19) 
unop_15

>  <geom_source>  (19) 
Heuristics

$$$$

     RDKit          3D

 16 14  0  0  0  0  0  0  0  0999 V2000
   -2.2282    2.0453    0.6494 O   0  0  0  0  0  0  0  0  0  0  0  0
   -1.5861    0.8303    0.5139 N   0  0  0  0  0  0  0  0  0  0  0  0
   -0.5615    0.9169   -0.2183 C   0  0  0  0  0  0  0  0  0  0  0  0
   -2.9732    1.8406    1.2178 H   0  0  0  0  0  0  0  0  0  0  0  0
   -0.2448    1.8518   -0.6758 H   0  0  0  0  0  0  0  0  0  0  0  0
    1.5435   -0.4170    0.5558 C   0  0  0  0  0  3  0  0  0  0  0  0
    1.5435   -1.8228   -0.0309 C   0  0  0  0  0  0  0  0  0  0  0  0
    1.5435   -1.8228   -1.5542 C   0  0  0  0  0  0  0  0  0  0  0  0
    0.4857    0.2533    0.1668 H   0  0  0  0  0  0  0  0  0  0  0  0
    2.4249    0.1416    0.2317 H   0  0  0  0  0  0  0  0  0  0  0  0
    1.5435   -0.4376    1.6469 H   0  0  0  0  0  0  0  0  0  0  0  0
    0.6689   -2.3691    0.3331 H   0  0  0  0  0  0  0  0  0  0  0  0
    2.4180   -2.3691    0.3331 H   0  0  0  0  0  0  0  0  0  0  0  0
    2.4249   -1.3085   -1.9449 H   0  0  0  0  0  0  0  0  0  0  0  0
    1.5435   -2.8377   -1.9554 H   0  0  0  0  0  0  0  0  0  0  0  0
    0.6620   -1.3085   -1.9449 H   0  0  0  0  0  0  0  0  0  0  0  0
  1  2  1  0
  1  4  1  0
  2  3  2  3
  3  5  1  0
  3  9  1  0
  6  7  1  0
  6 10  1  0
  6 11  1  0
  7  8  1  0
  7 12  1  0
  7 13  1  0
  8 14  1  0
  8 15  1  0
  8 16  1  0
M  RAD  1   6   2
M  END
>  <reaction>  (20) 
rmg_rxn_15397

>  <mol_properties>  (20) 
{"1": {"label": "*4", "atom_type": "N3d"}, "2": {"label": "*3", "atom_type": "Cd"}, "5": {"label": "*1", "atom_type": "Cs"}, "6": {"label": "*0", "atom_type": "Cs"}, "8": {"label": "*2", "atom_type": "H0"}}

>  <type>  (20) 
unop_16

>  <geom_source>  (20) 
Heuristics

$$$$

     RDKit          3D

 16 14  0  0  0  0  0  0  0  0999 V2000
   -2.8269   -0.4096    0.0924 O   0  0  0  0  0  0  0  0  0  0  0  0
   -1.4364   -0.1633    0.0695 N   0  0  0  0  0  0  0  0  0  0  0  0
   -1.0056    0.9606   -0.2096 C   0  0  0  0  0  3  0  0  0  0  0  0
   -2.9014   -1.3425    0.3362 H   0  0  0  0  0  0  0  0  0  0  0  0
   -1.5387    1.8692   -0.4600 H   0  0  0  0  0  0  0  0  0  0  0  0
    1.6095    1.1765   -0.1072 C   0  0  0  0  0  0  0  0  0  0  0  0
    2.1584   -0.0842    0.5026 C   0  0  0  0  0  0  0  0  0  0  0  0
    1.8505   -1.3106   -0.3487 C   0  0  0  0  0  0  0  0  0  0  0  0
    0.3063    1.0562   -0.1664 H   0  0  0  0  0  0  0  0  0  0  0  0
    1.9175    1.3285   -1.1361 H   0  0  0  0  0  0  0  0  0  0  0  0
    1.7778    2.0622    0.4957 H   0  0  0  0  0  0  0  0  0  0  0  0
    1.7390   -0.2190    1.5024 H   0  0  0  0  0  0  0  0  0  0  0  0
    3.2458    0.0118    0.6174 H   0  0  0  0  0  0  0  0  0  0  0  0
    2.2754   -1.1999   -1.3440 H   0  0  0  0  0  0  0  0  0  0  0  0
    2.2679   -2.2062    0.1051 H   0  0  0  0  0  0  0  0  0  0  0  0
    0.7750   -1.4345   -0.4421 H   0  0  0  0  0  0  0  0  0  0  0  0
  1  2  1  0
  1  4  1  0
  2  3  2  3
  3  5  1  0
  6  7  1  0
  6  9  1  0
  6 10  1  0
  6 11  1  0
  7  8  1  0
  7 12  1  0
  7 13  1  0
  8 14  1  0
  8 15  1  0
  8 16  1  0
M  RAD  1   3   2
M  END
>  <reaction>  (21) 
rmg_rxn_15397

>  <mol_properties>  (21) 
{"1": {"label": "*4", "atom_type": "N3d"}, "2": {"label": "*3", "atom_type": "Cd"}, "5": {"label": "*1", "atom_type": "Cs"}, "6": {"label": "*0", "atom_type": "Cs"}, "8": {"label": "*2", "atom_type": "H0"}}

>  <type>  (21) 
unop_17

>  <geom_source>  (21) 
Heuristics

$$$$

     RDKit          3D

 16 14  0  0  0  0  0  0  0  0999 V2000
   -2.0230    1.7269   -1.0566 O   0  0  0  0  0  0  0  0  0  0  0  0
   -1.1912    0.7387   -0.5682 N   0  0  0  0  0  0  0  0  0  0  0  0
   -0.7179    1.0368    0.5635 C   0  0  0  0  0  0  0  0  0  0  0  0
   -2.3073    1.3790   -1.9040 H   0  0  0  0  0  0  0  0  0  0  0  0
   -0.9545    1.9695    1.0711 H   0  0  0  0  0  0  0  0  0  0  0  0
    1.3871   -0.2971    1.3375 C   0  0  0  0  0  3  0  0  0  0  0  0
    1.3871   -1.7029    0.7508 C   0  0  0  0  0  0  0  0  0  0  0  0
    1.3871   -1.7029   -0.7725 C   0  0  0  0  0  0  0  0  0  0  0  0
    0.3293    0.3732    0.9486 H   0  0  0  0  0  0  0  0  0  0  0  0
    2.2685    0.2615    1.0134 H   0  0  0  0  0  0  0  0  0  0  0  0
    1.3871   -0.3178    2.4286 H   0  0  0  0  0  0  0  0  0  0  0  0
    0.5125   -2.2492    1.1148 H   0  0  0  0  0  0  0  0  0  0  0  0
    2.2616   -2.2492    1.1148 H   0  0  0  0  0  0  0  0  0  0  0  0
    2.2685   -1.1886   -1.1632 H   0  0  0  0  0  0  0  0  0  0  0  0
    1.3871   -2.7178   -1.1737 H   0  0  0  0  0  0  0  0  0  0  0  0
    0.5056   -1.1886   -1.1632 H   0  0  0  0  0  0  0  0  0  0  0  0
  1  2  1  0
  1  4  1  0
  2  3  2  3
  3  5  1  0
  3  9  1  0
  6  7  1  0
  6 10  1  0
  6 11  1  0
  7  8  1  0
  7 12  1  0
  7 13  1  0
  8 14  1  0
  8 15  1  0
  8 16  1  0
M  RAD  1   6   2
M  END
>  <reaction>  (22) 
rmg_rxn_15397

>  <mol_properties>  (22) 
{"1": {"label": "*4", "atom_type": "N3d"}, "2": {"label": "*3", "atom_type": "Cd"}, "5": {"label": "*1", "atom_type": "Cs"}, "6": {"label": "*0", "atom_type": "Cs"}, "8": {"label": "*2", "atom_type": "H0"}}

>  <type>  (22) 
unop_18

>  <geom_source>  (22) 
Heuristics

$$$$

     RDKit          3D

 16 14  0  0  0  0  0  0  0  0999 V2000
   -2.5340    1.6037    0.4411 O   0  0  0  0  0  0  0  0  0  0  0  0
   -1.5891    0.6194    0.2281 N   0  0  0  0  0  0  0  0  0  0  0  0
   -0.4664    1.1030   -0.0866 C   0  0  0  0  0  0  0  0  0  0  0  0
   -3.3233    1.1083    0.6682 H   0  0  0  0  0  0  0  0  0  0  0  0
   -0.2920    2.1734   -0.1726 H   0  0  0  0  0  0  0  0  0  0  0  0
    1.6386   -0.2309    0.6874 C   0  0  0  0  0  3  0  0  0  0  0  0
    1.6386   -1.6367    0.1007 C   0  0  0  0  0  0  0  0  0  0  0  0
    1.6386   -1.6367   -1.4226 C   0  0  0  0  0  0  0  0  0  0  0  0
    0.5808    0.4394    0.2985 H   0  0  0  0  0  0  0  0  0  0  0  0
    2.5200    0.3277    0.3633 H   0  0  0  0  0  0  0  0  0  0  0  0
    1.6386   -0.2516    1.7785 H   0  0  0  0  0  0  0  0  0  0  0  0
    0.7641   -2.1831    0.4647 H   0  0  0  0  0  0  0  0  0  0  0  0
    2.5131   -2.1831    0.4647 H   0  0  0  0  0  0  0  0  0  0  0  0
    2.5200   -1.1224   -1.8132 H   0  0  0  0  0  0  0  0  0  0  0  0
    1.6386   -2.6516   -1.8238 H   0  0  0  0  0  0  0  0  0  0  0  0
    0.7571   -1.1224   -1.8132 H   0  0  0  0  0  0  0  0  0  0  0  0
  1  2  1  0
  1  4  1  0
  2  3  2  3
  3  5  1  0
  3  9  1  0
  6  7  1  0
  6 10  1  0
  6 11  1  0
  7  8  1  0
  7 12  1  0
  7 13  1  0
  8 14  1  0
  8 15  1  0
  8 16  1  0
M  RAD  1   6   2
M  END
>  <reaction>  (23) 
rmg_rxn_15397

>  <mol_properties>  (23) 
{"1": {"label": "*4", "atom_type": "N3d"}, "2": {"label": "*3", "atom_type": "Cd"}, "5": {"label": "*1", "atom_type": "Cs"}, "6": {"label": "*0", "atom_type": "Cs"}, "8": {"label": "*2", "atom_type": "H0"}}

>  <type>  (23) 
unop_19

>  <geom_source>  (23) 
Heuristics

$$$$

     RDKit          3D

 16 14  0  0  0  0  0  0  0  0999 V2000
   -1.9015    2.4741    0.2464 O   0  0  0  0  0  0  0  0  0  0  0  0
   -0.7329    1.8060   -0.0616 N   0  0  0  0  0  0  0  0  0  0  0  0
   -0.8634    0.5547    0.0417 C   0  0  0  0  0  0  0  0  0  0  0  0
   -1.6671    3.3969    0.1297 H   0  0  0  0  0  0  0  0  0  0  0  0
   -1.7981    0.0850    0.3404 H   0  0  0  0  0  0  0  0  0  0  0  0
    1.2416   -0.7792    0.8158 C   0  0  0  0  0  3  0  0  0  0  0  0
    1.2416   -2.1850    0.2291 C   0  0  0  0  0  0  0  0  0  0  0  0
    1.2416   -2.1850   -1.2942 C   0  0  0  0  0  0  0  0  0  0  0  0
    0.1839   -0.1089    0.4268 H   0  0  0  0  0  0  0  0  0  0  0  0
    2.1231   -0.2207    0.4917 H   0  0  0  0  0  0  0  0  0  0  0  0
    1.2416   -0.7999    1.9069 H   0  0  0  0  0  0  0  0  0  0  0  0
    0.3671   -2.7314    0.5931 H   0  0  0  0  0  0  0  0  0  0  0  0
    2.1161   -2.7314    0.5931 H   0  0  0  0  0  0  0  0  0  0  0  0
    2.1231   -1.6708   -1.6849 H   0  0  0  0  0  0  0  0  0  0  0  0
    1.2416   -3.1999   -1.6954 H   0  0  0  0  0  0  0  0  0  0  0  0
    0.3601   -1.6708   -1.6849 H   0  0  0  0  0  0  0  0  0  0  0  0
  1  2  1  0
  1  4  1  0
  2  3  2  3
  3  5  1  0
  3  9  1  0
  6  7  1  0
  6 10  1  0
  6 11  1  0
  7  8  1  0
  7 12  1  0
  7 13  1  0
  8 14  1  0
  8 15  1  0
  8 16  1  0
M  RAD  1   6   2
M  END
>  <reaction>  (24) 
rmg_rxn_15397

>  <mol_properties>  (24) 
{"1": {"label": "*4", "atom_type": "N3d"}, "2": {"label": "*3", "atom_type": "Cd"}, "5": {"label": "*1", "atom_type": "Cs"}, "6": {"label": "*0", "atom_type": "Cs"}, "8": {"label": "*2", "atom_type": "H0"}}

>  <type>  (24) 
unop_20

>  <geom_source>  (24) 
Heuristics

$$$$

     RDKit          3D

 16 14  0  0  0  0  0  0  0  0999 V2000
   -2.4326    1.3708   -0.7057 O   0  0  0  0  0  0  0  0  0  0  0  0
   -1.3568    0.5788   -0.3561 N   0  0  0  0  0  0  0  0  0  0  0  0
   -0.5524    1.1845    0.4052 C   0  0  0  0  0  0  0  0  0  0  0  0
   -2.9536    0.7996   -1.2735 H   0  0  0  0  0  0  0  0  0  0  0  0
   -0.7128    2.2098    0.7317 H   0  0  0  0  0  0  0  0  0  0  0  0
    1.5526   -0.1494    1.1792 C   0  0  0  0  0  3  0  0  0  0  0  0
    1.5526   -1.5552    0.5925 C   0  0  0  0  0  0  0  0  0  0  0  0
    1.5526   -1.5552   -0.9308 C   0  0  0  0  0  0  0  0  0  0  0  0
    0.4948    0.5209    0.7903 H   0  0  0  0  0  0  0  0  0  0  0  0
    2.4340    0.4091    0.8551 H   0  0  0  0  0  0  0  0  0  0  0  0
    1.5526   -0.1701    2.2703 H   0  0  0  0  0  0  0  0  0  0  0  0
    0.6780   -2.1016    0.9565 H   0  0  0  0  0  0  0  0  0  0  0  0
    2.4271   -2.1016    0.9565 H   0  0  0  0  0  0  0  0  0  0  0  0
    2.4340   -1.0410   -1.3215 H   0  0  0  0  0  0  0  0  0  0  0  0
    1.5526   -2.5701   -1.3320 H   0  0  0  0  0  0  0  0  0  0  0  0
    0.6711   -1.0410   -1.3215 H   0  0  0  0  0  0  0  0  0  0  0  0
  1  2  1  0
  1  4  1  0
  2  3  2  3
  3  5  1  0
  3  9  1  0
  6  7  1  0
  6 10  1  0
  6 11  1  0
  7  8  1  0
  7 12  1  0
  7 13  1  0
  8 14  1  0
  8 15  1  0
  8 16  1  0
M  RAD  1   6   2
M  END
>  <reaction>  (25) 
rmg_rxn_15397

>  <mol_properties>  (25) 
{"1": {"label": "*4", "atom_type": "N3d"}, "2": {"label": "*3", "atom_type": "Cd"}, "5": {"label": "*1", "atom_type": "Cs"}, "6": {"label": "*0", "atom_type": "Cs"}, "8": {"label": "*2", "atom_type": "H0"}}

>  <type>  (25) 
unop_21

>  <geom_source>  (25) 
Heuristics

$$$$

     RDKit          3D

 16 14  0  0  0  0  0  0  0  0999 V2000
   -2.8278    0.4088   -0.0905 O   0  0  0  0  0  0  0  0  0  0  0  0
   -1.4370    0.1654   -0.0601 N   0  0  0  0  0  0  0  0  0  0  0  0
   -1.0061   -0.9650    0.1913 C   0  0  0  0  0  3  0  0  0  0  0  0
   -2.9024    1.3482   -0.3080 H   0  0  0  0  0  0  0  0  0  0  0  0
   -1.5393   -1.8818    0.4100 H   0  0  0  0  0  0  0  0  0  0  0  0
    1.6105   -1.1746    0.1187 C   0  0  0  0  0  0  0  0  0  0  0  0
    2.1646    0.0807   -0.4977 C   0  0  0  0  0  0  0  0  0  0  0  0
    1.8457    1.3150    0.3381 C   0  0  0  0  0  0  0  0  0  0  0  0
    0.3065   -1.0564    0.1624 H   0  0  0  0  0  0  0  0  0  0  0  0
    1.9070   -1.3153    1.1526 H   0  0  0  0  0  0  0  0  0  0  0  0
    1.7873   -2.0662   -0.4731 H   0  0  0  0  0  0  0  0  0  0  0  0
    1.7563    0.2050   -1.5033 H   0  0  0  0  0  0  0  0  0  0  0  0
    3.2533   -0.0152   -0.5995 H   0  0  0  0  0  0  0  0  0  0  0  0
    2.2656    2.2069   -0.1208 H   0  0  0  0  0  0  0  0  0  0  0  0
    0.7692    1.4372    0.4201 H   0  0  0  0  0  0  0  0  0  0  0  0
    2.2614    1.2153    1.3385 H   0  0  0  0  0  0  0  0  0  0  0  0
  1  2  1  0
  1  4  1  0
  2  3  2  3
  3  5  1  0
  6  7  1  0
  6  9  1  0
  6 10  1  0
  6 11  1  0
  7  8  1  0
  7 12  1  0
  7 13  1  0
  8 14  1  0
  8 15  1  0
  8 16  1  0
M  RAD  1   3   2
M  END
>  <reaction>  (26) 
rmg_rxn_15397

>  <mol_properties>  (26) 
{"1": {"label": "*4", "atom_type": "N3d"}, "2": {"label": "*3", "atom_type": "Cd"}, "5": {"label": "*1", "atom_type": "Cs"}, "6": {"label": "*0", "atom_type": "Cs"}, "8": {"label": "*2", "atom_type": "H0"}}

>  <type>  (26) 
unop_22

>  <geom_source>  (26) 
Heuristics

$$$$

     RDKit          3D

 16 14  0  0  0  0  0  0  0  0999 V2000
    2.2071    1.5315    0.5865 O   0  0  0  0  0  0  0  0  0  0  0  0
    2.8149    0.4099    0.0743 N   0  0  0  0  0  0  0  0  0  0  0  0
   -1.7384   -0.4743   -0.2376 C   0  0  0  0  0  0  0  0  0  0  0  0
   -1.5557    0.9566    0.2538 C   0  0  0  0  0  0  0  0  0  0  0  0
   -0.3944   -1.1793   -0.3568 C   0  0  0  0  0  3  0  0  0  0  0  0
    2.1034   -0.5724   -0.3691 C   0  0  0  0  0  0  0  0  0  0  0  0
   -2.2296   -0.4582   -1.2339 H   0  0  0  0  0  0  0  0  0  0  0  0
   -2.3888   -1.0315    0.4707 H   0  0  0  0  0  0  0  0  0  0  0  0
   -2.5450    1.4567    0.3178 H   0  0  0  0  0  0  0  0  0  0  0  0
   -0.9132    1.5264   -0.4511 H   0  0  0  0  0  0  0  0  0  0  0  0
   -1.0892    0.9619    1.2621 H   0  0  0  0  0  0  0  0  0  0  0  0
   -0.5360   -2.1951   -0.7824 H   0  0  0  0  0  0  0  0  0  0  0  0
    0.0882   -1.2667    0.6400 H   0  0  0  0  0  0  0  0  0  0  0  0
    2.5891   -1.4512   -0.7704 H   0  0  0  0  0  0  0  0  0  0  0  0
    0.8181   -0.5129   -0.3367 H   0  0  0  0  0  0  0  0  0  0  0  0
    2.7695    2.2985    0.9327 H   0  0  0  0  0  0  0  0  0  0  0  0
  1  2  1  0
  1 16  1  0
  2  6  2  3
  3  5  1  0
  3  4  1  0
  3  7  1  0
  3  8  1  0
  4  9  1  0
  4 10  1  0
  4 11  1  0
  5 12  1  0
  5 13  1  0
  6 14  1  0
  6 15  1  0
M  RAD  1   5   2
M  END
>  <reaction>  (27) 
rmg_rxn_15397

>  <mol_properties>  (27) 
{"1": {"label": "*4", "atom_type": "N3d"}, "2": {"label": "*3", "atom_type": "Cd"}, "5": {"label": "*1", "atom_type": "Cs"}, "6": {"label": "*0", "atom_type": "Cs"}, "8": {"label": "*2", "atom_type": "H0"}}

>  <type>  (27) 
unop_23

>  <geom_source>  (27) 
AutoTST

$$$$

     RDKit          3D

 16 14  0  0  0  0  0  0  0  0999 V2000
   -2.6323    1.3247   -0.0928 O   0  0  0  0  0  0  0  0  0  0  0  0
   -1.4993    0.5353   -0.0809 N   0  0  0  0  0  0  0  0  0  0  0  0
   -0.4572    1.2089    0.1510 C   0  0  0  0  0  0  0  0  0  0  0  0
   -3.3364    0.6997   -0.2763 H   0  0  0  0  0  0  0  0  0  0  0  0
   -0.4785    2.2838    0.3181 H   0  0  0  0  0  0  0  0  0  0  0  0
    1.6478   -0.1250    0.9251 C   0  0  0  0  0  3  0  0  0  0  0  0
    1.6478   -1.5308    0.3384 C   0  0  0  0  0  0  0  0  0  0  0  0
    1.6478   -1.5308   -1.1849 C   0  0  0  0  0  0  0  0  0  0  0  0
    0.5900    0.5453    0.5361 H   0  0  0  0  0  0  0  0  0  0  0  0
    2.5293    0.4336    0.6010 H   0  0  0  0  0  0  0  0  0  0  0  0
    1.6478   -0.1456    2.0162 H   0  0  0  0  0  0  0  0  0  0  0  0
    0.7733   -2.0771    0.7024 H   0  0  0  0  0  0  0  0  0  0  0  0
    2.5223   -2.0771    0.7024 H   0  0  0  0  0  0  0  0  0  0  0  0
    2.5293   -1.0165   -1.5756 H   0  0  0  0  0  0  0  0  0  0  0  0
    1.6478   -2.5457   -1.5861 H   0  0  0  0  0  0  0  0  0  0  0  0
    0.7663   -1.0165   -1.5756 H   0  0  0  0  0  0  0  0  0  0  0  0
  1  2  1  0
  1  4  1  0
  2  3  2  3
  3  5  1  0
  3  9  1  0
  6  7  1  0
  6 10  1  0
  6 11  1  0
  7  8  1  0
  7 12  1  0
  7 13  1  0
  8 14  1  0
  8 15  1  0
  8 16  1  0
M  RAD  1   6   2
M  END
>  <reaction>  (28) 
rmg_rxn_15397

>  <mol_properties>  (28) 
{"1": {"label": "*4", "atom_type": "N3d"}, "2": {"label": "*3", "atom_type": "Cd"}, "5": {"label": "*1", "atom_type": "Cs"}, "6": {"label": "*0", "atom_type": "Cs"}, "8": {"label": "*2", "atom_type": "H0"}}

>  <type>  (28) 
unop_24

>  <geom_source>  (28) 
gaussian_log

$$$$
