
     RDKit          3D

  8  7  0  0  0  0  0  0  0  0999 V2000
    0.9548    0.1194   -0.0790 C   0  0  0  0  0  0  0  0  0  0  0  0
   -0.4838   -0.2649    0.0193 C   0  0  0  0  0  0  0  0  0  0  0  0
   -0.8933   -1.1081    0.8664 N   0  0  0  0  0  0  0  0  0  0  0  0
    1.3360   -0.0983   -1.0800 H   0  0  0  0  0  0  0  0  0  0  0  0
    1.0698    1.1948    0.0786 H   0  0  0  0  0  0  0  0  0  0  0  0
    1.5426   -0.4219    0.6602 H   0  0  0  0  0  0  0  0  0  0  0  0
   -1.1575    0.2324   -0.6905 H   0  0  0  0  0  0  0  0  0  0  0  0
   -1.8989   -1.2455    0.7886 H   0  0  0  0  0  0  0  0  0  0  0  0
  1  2  1  0
  1  4  1  0
  1  5  1  0
  1  6  1  0
  2  3  2  3
  2  7  1  0
  3  8  1  0
M  END
>  <reaction>  (1) 
rmg_rxn_16469

>  <mol_properties>  (1) 
{"2": {"label": "donator", "atom_type": "N3d"}, "7": {"label": "d_hydrogen", "atom_type": "H0"}}

>  <type>  (1) 
r1h

$$$$

     RDKit          3D

 13 13  0  0  0  0  0  0  0  0999 V2000
    0.5794    1.5990    0.2108 C   0  0  0  0  0  3  0  0  0  0  0  0
    1.4528    0.6621   -0.2496 O   0  0  0  0  0  0  0  0  0  0  0  0
    1.0751   -0.6763    0.0423 C   0  0  0  0  0  0  0  0  0  0  0  0
   -0.3579   -0.9282   -0.3924 C   0  0  0  0  0  0  0  0  0  0  0  0
   -1.2426    0.1393    0.2269 C   0  0  0  0  0  0  0  0  0  0  0  0
   -0.7410    1.4341   -0.0749 O   0  0  0  0  0  0  0  0  0  0  0  0
    0.9183    2.6078    0.0084 H   0  0  0  0  0  0  0  0  0  0  0  0
    1.1839   -0.8508    1.1199 H   0  0  0  0  0  0  0  0  0  0  0  0
    1.7816   -1.3130   -0.4874 H   0  0  0  0  0  0  0  0  0  0  0  0
   -0.6818   -1.9210   -0.0736 H   0  0  0  0  0  0  0  0  0  0  0  0
   -0.4271   -0.8785   -1.4810 H   0  0  0  0  0  0  0  0  0  0  0  0
   -1.2832    0.0173    1.3164 H   0  0  0  0  0  0  0  0  0  0  0  0
   -2.2575    0.1083   -0.1657 H   0  0  0  0  0  0  0  0  0  0  0  0
  1  2  1  0
  1  6  1  0
  1  7  1  0
  2  3  1  0
  3  4  1  0
  3  8  1  0
  3  9  1  0
  4  5  1  0
  4 10  1  0
  4 11  1  0
  5  6  1  0
  5 12  1  0
  5 13  1  0
M  RAD  1   1   2
M  END
>  <reaction>  (2) 
rmg_rxn_16469

>  <mol_properties>  (2) 
{"0": {"label": "acceptor", "atom_type": "Cs"}}

>  <type>  (2) 
r2

$$$$

     RDKit          3D

 14 14  0  0  0  0  0  0  0  0999 V2000
   -1.1778    0.2241    0.1818 C   0  0  0  0  0  0  0  0  0  0  0  0
   -0.5633   -1.1636    0.0678 C   0  0  0  0  0  0  0  0  0  0  0  0
    0.6943   -1.1996    0.7146 O   0  0  0  0  0  0  0  0  0  0  0  0
    1.5547   -0.2288    0.2011 C   0  0  0  0  0  0  0  0  0  0  0  0
    1.0729    1.0696    0.3698 O   0  0  0  0  0  0  0  0  0  0  0  0
   -0.1607    1.2493   -0.2989 C   0  0  0  0  0  0  0  0  0  0  0  0
   -2.0927    0.2866   -0.4117 H   0  0  0  0  0  0  0  0  0  0  0  0
   -1.4303    0.4248    1.2248 H   0  0  0  0  0  0  0  0  0  0  0  0
   -1.1822   -1.9235    0.5431 H   0  0  0  0  0  0  0  0  0  0  0  0
   -0.4389   -1.4347   -0.9919 H   0  0  0  0  0  0  0  0  0  0  0  0
    1.7250   -0.4207   -0.8742 H   0  0  0  0  0  0  0  0  0  0  0  0
    2.4896   -0.3010    0.7524 H   0  0  0  0  0  0  0  0  0  0  0  0
   -0.0080    1.1481   -1.3844 H   0  0  0  0  0  0  0  0  0  0  0  0
   -0.4826    2.2695   -0.0942 H   0  0  0  0  0  0  0  0  0  0  0  0
  1  2  1  0
  1  6  1  0
  1  7  1  0
  1  8  1  0
  2  3  1  0
  2  9  1  0
  2 10  1  0
  3  4  1  0
  4  5  1  0
  4 11  1  0
  4 12  1  0
  5  6  1  0
  6 13  1  0
  6 14  1  0
M  END
>  <reaction>  (3) 
rmg_rxn_16469

>  <mol_properties>  (3) 
{"0": {"label": "a_hydrogen", "atom_type": "H0"}, "1": {"label": "acceptor", "atom_type": "Cs"}}

>  <type>  (3) 
r2h

$$$$

     RDKit          3D

 21 20  0  0  0  0  0  0  0  0999 V2000
   -3.8279   -0.2749   -0.4190 C   0  0  0  0  0  0  0  0  0  0  0  0
   -2.4310   -0.0369    0.0727 C   0  0  0  0  0  0  0  0  0  0  0  0
   -1.7104    0.8981   -0.3570 N   0  0  0  0  0  0  0  0  0  0  0  0
   -4.0990    0.4578   -1.1769 H   0  0  0  0  0  0  0  0  0  0  0  0
   -3.9103   -1.2809   -0.8376 H   0  0  0  0  0  0  0  0  0  0  0  0
   -4.5314   -0.2131    0.4147 H   0  0  0  0  0  0  0  0  0  0  0  0
   -2.0664   -0.7367    0.8396 H   0  0  0  0  0  0  0  0  0  0  0  0
   -0.6047    0.8191    0.2835 H   0  0  0  0  0  0  0  0  0  0  0  0
    0.4931    0.5712    1.0155 C   0  0  0  0  0  3  0  0  0  0  0  0
    0.6756   -0.7954    1.0630 O   0  0  0  0  0  0  0  0  0  0  0  0
    0.9942   -1.3622   -0.2017 C   0  0  0  0  0  0  0  0  0  0  0  0
    2.1692   -0.6335   -0.8320 C   0  0  0  0  0  0  0  0  0  0  0  0
    1.8659    0.8553   -0.8439 C   0  0  0  0  0  0  0  0  0  0  0  0
    1.5249    1.2913    0.4655 O   0  0  0  0  0  0  0  0  0  0  0  0
    0.2907    0.9385    2.0194 H   0  0  0  0  0  0  0  0  0  0  0  0
    1.2156   -2.4118   -0.0157 H   0  0  0  0  0  0  0  0  0  0  0  0
    0.1156   -1.2989   -0.8553 H   0  0  0  0  0  0  0  0  0  0  0  0
    3.0742   -0.8191   -0.2499 H   0  0  0  0  0  0  0  0  0  0  0  0
    2.3346   -0.9960   -1.8486 H   0  0  0  0  0  0  0  0  0  0  0  0
    1.0331    1.0741   -1.5230 H   0  0  0  0  0  0  0  0  0  0  0  0
    2.7285    1.4462   -1.1464 H   0  0  0  0  0  0  0  0  0  0  0  0
  1  2  1  0
  1  4  1  0
  1  5  1  0
  1  6  1  0
  2  3  2  3
  2  7  1  0
  3  8  1  0
  9 10  1  0
  9 14  1  0
  9 15  1  0
 10 11  1  0
 11 12  1  0
 11 16  1  0
 11 17  1  0
 12 13  1  0
 12 18  1  0
 12 19  1  0
 13 14  1  0
 13 20  1  0
 13 21  1  0
M  RAD  1   9   2
M  END
>  <reaction>  (4) 
rmg_rxn_16469

>  <mol_properties>  (4) 
{"1": {"label": "*0", "atom_type": "Cd"}, "2": {"label": "*1", "atom_type": "N3d"}, "7": {"label": "*2", "atom_type": "H0"}, "8": {"label": "*3", "atom_type": "Cs"}, "9": {"label": "*4", "atom_type": "O2s"}}

>  <type>  (4) 
ts

$$$$

     RDKit          3D

 21 20  0  0  0  0  0  0  0  0999 V2000
   -3.9493   -0.1544   -0.4291 C   0  0  0  0  0  0  0  0  0  0  0  0
   -2.5968   -0.0300    0.2021 C   0  0  0  0  0  0  0  0  0  0  0  0
   -1.6429    0.5236   -0.3697 N   0  0  0  0  0  0  0  0  0  0  0  0
   -3.9485    0.2963   -1.4176 H   0  0  0  0  0  0  0  0  0  0  0  0
   -4.2190   -1.2069   -0.5036 H   0  0  0  0  0  0  0  0  0  0  0  0
   -4.6871    0.3415    0.1996 H   0  0  0  0  0  0  0  0  0  0  0  0
   -2.5318   -0.4736    1.2076 H   0  0  0  0  0  0  0  0  0  0  0  0
   -0.6031    0.5313    0.2966 H   0  0  0  0  0  0  0  0  0  0  0  0
    0.5042    0.4102    1.0130 C   0  0  0  0  0  3  0  0  0  0  0  0
    0.8288   -0.9383    1.0122 O   0  0  0  0  0  0  0  0  0  0  0  0
    1.1909   -1.4134   -0.2725 C   0  0  0  0  0  0  0  0  0  0  0  0
    2.3009   -0.5517   -0.8737 C   0  0  0  0  0  0  0  0  0  0  0  0
    1.8252    0.9009   -0.8440 C   0  0  0  0  0  0  0  0  0  0  0  0
    1.4415    1.2683    0.4701 O   0  0  0  0  0  0  0  0  0  0  0  0
    0.2982    0.7179    2.0371 H   0  0  0  0  0  0  0  0  0  0  0  0
    1.5108   -2.4468   -0.1277 H   0  0  0  0  0  0  0  0  0  0  0  0
    0.3067   -1.3932   -0.9270 H   0  0  0  0  0  0  0  0  0  0  0  0
    3.2030   -0.6499   -0.2673 H   0  0  0  0  0  0  0  0  0  0  0  0
    2.5160   -0.8643   -1.8941 H   0  0  0  0  0  0  0  0  0  0  0  0
    0.9672    1.0304   -1.5187 H   0  0  0  0  0  0  0  0  0  0  0  0
    2.6190    1.5943   -1.1265 H   0  0  0  0  0  0  0  0  0  0  0  0
  1  2  1  0
  1  4  1  0
  1  5  1  0
  1  6  1  0
  2  3  2  3
  2  7  1  0
  3  8  1  0
  9 10  1  0
  9 14  1  0
  9 15  1  0
 10 11  1  0
 11 12  1  0
 11 16  1  0
 11 17  1  0
 12 13  1  0
 12 18  1  0
 12 19  1  0
 13 14  1  0
 13 20  1  0
 13 21  1  0
M  RAD  1   9   2
M  END
>  <reaction>  (5) 
rmg_rxn_16469

>  <mol_properties>  (5) 
{"1": {"label": "*0", "atom_type": "Cd"}, "2": {"label": "*1", "atom_type": "N3d"}, "7": {"label": "*2", "atom_type": "H0"}, "8": {"label": "*3", "atom_type": "Cs"}, "9": {"label": "*4", "atom_type": "O2s"}}

>  <type>  (5) 
unop_1

>  <geom_source>  (5) 
crest_best.xyz

$$$$

     RDKit          3D

 21 20  0  0  0  0  0  0  0  0999 V2000
    0.0706   -1.2251   -4.0503 C   0  0  0  0  0  0  0  0  0  0  0  0
    0.0706   -1.2251   -2.5580 C   0  0  0  0  0  0  0  0  0  0  0  0
    0.0706   -0.1525   -1.8903 N   0  0  0  0  0  0  0  0  0  0  0  0
    0.9489   -1.7551   -4.4277 H   0  0  0  0  0  0  0  0  0  0  0  0
   -0.8077   -1.7551   -4.4277 H   0  0  0  0  0  0  0  0  0  0  0  0
    0.0706   -0.2045   -4.4289 H   0  0  0  0  0  0  0  0  0  0  0  0
    0.0706   -2.2148   -2.0833 H   0  0  0  0  0  0  0  0  0  0  0  0
    0.0706   -0.3826   -0.6907 H   0  0  0  0  0  0  0  0  0  0  0  0
    0.0706   -0.6286    0.5912 C   0  0  0  0  0  3  0  0  0  0  0  0
    1.2242   -0.0527    1.1241 O   0  0  0  0  0  0  0  0  0  0  0  0
    0.9677    0.5362    2.3845 C   0  0  0  0  0  0  0  0  0  0  0  0
   -0.1511    1.5620    2.2719 C   0  0  0  0  0  0  0  0  0  0  0  0
   -1.3472    0.9073    1.5955 C   0  0  0  0  0  0  0  0  0  0  0  0
   -0.9528    0.2963    0.3820 O   0  0  0  0  0  0  0  0  0  0  0  0
   -0.2878   -1.4263    1.2674 H   0  0  0  0  0  0  0  0  0  0  0  0
    0.6892   -0.2473    3.1059 H   0  0  0  0  0  0  0  0  0  0  0  0
    1.9020    0.9874    2.7158 H   0  0  0  0  0  0  0  0  0  0  0  0
   -0.4283    1.9349    3.2605 H   0  0  0  0  0  0  0  0  0  0  0  0
    0.1896    2.4061    1.6692 H   0  0  0  0  0  0  0  0  0  0  0  0
   -2.1205    1.6322    1.3447 H   0  0  0  0  0  0  0  0  0  0  0  0
   -1.7886    0.1499    2.2614 H   0  0  0  0  0  0  0  0  0  0  0  0
  1  2  1  0
  1  4  1  0
  1  5  1  0
  1  6  1  0
  2  3  2  3
  2  7  1  0
  3  8  1  0
  9 10  1  0
  9 14  1  0
  9 15  1  0
 10 11  1  0
 11 12  1  0
 11 16  1  0
 11 17  1  0
 12 13  1  0
 12 18  1  0
 12 19  1  0
 13 14  1  0
 13 20  1  0
 13 21  1  0
M  RAD  1   9   2
M  END
>  <reaction>  (6) 
rmg_rxn_16469

>  <mol_properties>  (6) 
{"1": {"label": "*0", "atom_type": "Cd"}, "2": {"label": "*1", "atom_type": "N3d"}, "7": {"label": "*2", "atom_type": "H0"}, "8": {"label": "*3", "atom_type": "Cs"}, "9": {"label": "*4", "atom_type": "O2s"}}

>  <type>  (6) 
unop_2

>  <geom_source>  (6) 
Heuristics

$$$$

     RDKit          3D

 21 20  0  0  0  0  0  0  0  0999 V2000
   -0.6471   -0.4564   -4.1278 C   0  0  0  0  0  0  0  0  0  0  0  0
   -0.6471   -0.4564   -2.6355 C   0  0  0  0  0  0  0  0  0  0  0  0
   -0.6471    0.6162   -1.9678 N   0  0  0  0  0  0  0  0  0  0  0  0
    0.2312   -0.9864   -4.5052 H   0  0  0  0  0  0  0  0  0  0  0  0
   -1.5253   -0.9864   -4.5052 H   0  0  0  0  0  0  0  0  0  0  0  0
   -0.6471    0.5642   -4.5064 H   0  0  0  0  0  0  0  0  0  0  0  0
   -0.6471   -1.4461   -2.1608 H   0  0  0  0  0  0  0  0  0  0  0  0
   -0.6471    0.3861   -0.7682 H   0  0  0  0  0  0  0  0  0  0  0  0
   -0.6471    0.1401    0.5137 C   0  0  0  0  0  3  0  0  0  0  0  0
    0.0190   -1.0710    0.7037 O   0  0  0  0  0  0  0  0  0  0  0  0
    0.4580   -1.2101    2.0414 C   0  0  0  0  0  0  0  0  0  0  0  0
    1.3421   -0.0348    2.4334 C   0  0  0  0  0  0  0  0  0  0  0  0
    0.6056    1.2581    2.1133 C   0  0  0  0  0  0  0  0  0  0  0  0
    0.1578    1.2501    0.7713 O   0  0  0  0  0  0  0  0  0  0  0  0
   -1.5397    0.1745    1.1650 H   0  0  0  0  0  0  0  0  0  0  0  0
   -0.4147   -1.2646    2.7103 H   0  0  0  0  0  0  0  0  0  0  0  0
    0.9911   -2.1580    2.0995 H   0  0  0  0  0  0  0  0  0  0  0  0
    1.5890   -0.0805    3.4965 H   0  0  0  0  0  0  0  0  0  0  0  0
    2.2719   -0.0738    1.8626 H   0  0  0  0  0  0  0  0  0  0  0  0
    1.2477    2.1309    2.2244 H   0  0  0  0  0  0  0  0  0  0  0  0
   -0.2566    1.3773    2.7872 H   0  0  0  0  0  0  0  0  0  0  0  0
  1  2  1  0
  1  4  1  0
  1  5  1  0
  1  6  1  0
  2  3  2  3
  2  7  1  0
  3  8  1  0
  9 10  1  0
  9 14  1  0
  9 15  1  0
 10 11  1  0
 11 12  1  0
 11 16  1  0
 11 17  1  0
 12 13  1  0
 12 18  1  0
 12 19  1  0
 13 14  1  0
 13 20  1  0
 13 21  1  0
M  RAD  1   9   2
M  END
>  <reaction>  (7) 
rmg_rxn_16469

>  <mol_properties>  (7) 
{"1": {"label": "*0", "atom_type": "Cd"}, "2": {"label": "*1", "atom_type": "N3d"}, "7": {"label": "*2", "atom_type": "H0"}, "8": {"label": "*3", "atom_type": "Cs"}, "9": {"label": "*4", "atom_type": "O2s"}}

>  <type>  (7) 
unop_3

>  <geom_source>  (7) 
Heuristics

$$$$

     RDKit          3D

 21 20  0  0  0  0  0  0  0  0999 V2000
    0.4219   -0.9904   -4.1406 C   0  0  0  0  0  0  0  0  0  0  0  0
    0.4219   -0.9904   -2.6483 C   0  0  0  0  0  0  0  0  0  0  0  0
    0.4219    0.0822   -1.9806 N   0  0  0  0  0  0  0  0  0  0  0  0
    1.3002   -1.5204   -4.5180 H   0  0  0  0  0  0  0  0  0  0  0  0
   -0.4563   -1.5204   -4.5180 H   0  0  0  0  0  0  0  0  0  0  0  0
    0.4219    0.0302   -4.5192 H   0  0  0  0  0  0  0  0  0  0  0  0
    0.4219   -1.9801   -2.1737 H   0  0  0  0  0  0  0  0  0  0  0  0
    0.4219   -0.1480   -0.7810 H   0  0  0  0  0  0  0  0  0  0  0  0
    0.4219   -0.3939    0.5009 C   0  0  0  0  0  3  0  0  0  0  0  0
    1.0880    0.6608    1.1256 O   0  0  0  0  0  0  0  0  0  0  0  0
    0.6261    0.8459    2.4500 C   0  0  0  0  0  0  0  0  0  0  0  0
   -0.8792    1.0704    2.4592 C   0  0  0  0  0  0  0  0  0  0  0  0
   -1.5454   -0.0552    1.6810 C   0  0  0  0  0  0  0  0  0  0  0  0
   -0.9542   -0.1866    0.4024 O   0  0  0  0  0  0  0  0  0  0  0  0
    0.6135   -1.3301    1.0568 H   0  0  0  0  0  0  0  0  0  0  0  0
    0.8787   -0.0392    3.0538 H   0  0  0  0  0  0  0  0  0  0  0  0
    1.1678    1.6998    2.8545 H   0  0  0  0  0  0  0  0  0  0  0  0
   -1.2546    1.1000    3.4846 H   0  0  0  0  0  0  0  0  0  0  0  0
   -1.1067    2.0257    1.9822 H   0  0  0  0  0  0  0  0  0  0  0  0
   -2.6056    0.1340    1.5182 H   0  0  0  0  0  0  0  0  0  0  0  0
   -1.4456   -1.0037    2.2307 H   0  0  0  0  0  0  0  0  0  0  0  0
  1  2  1  0
  1  4  1  0
  1  5  1  0
  1  6  1  0
  2  3  2  3
  2  7  1  0
  3  8  1  0
  9 10  1  0
  9 14  1  0
  9 15  1  0
 10 11  1  0
 11 12  1  0
 11 16  1  0
 11 17  1  0
 12 13  1  0
 12 18  1  0
 12 19  1  0
 13 14  1  0
 13 20  1  0
 13 21  1  0
M  RAD  1   9   2
M  END
>  <reaction>  (8) 
rmg_rxn_16469

>  <mol_properties>  (8) 
{"1": {"label": "*0", "atom_type": "Cd"}, "2": {"label": "*1", "atom_type": "N3d"}, "7": {"label": "*2", "atom_type": "H0"}, "8": {"label": "*3", "atom_type": "Cs"}, "9": {"label": "*4", "atom_type": "O2s"}}

>  <type>  (8) 
unop_4

>  <geom_source>  (8) 
Heuristics

$$$$

     RDKit          3D

 21 20  0  0  0  0  0  0  0  0999 V2000
    0.1720   -0.2666   -4.3541 C   0  0  0  0  0  0  0  0  0  0  0  0
    0.1720   -0.2666   -2.8617 C   0  0  0  0  0  0  0  0  0  0  0  0
    0.1720    0.8060   -2.1941 N   0  0  0  0  0  0  0  0  0  0  0  0
    1.0503   -0.7966   -4.7315 H   0  0  0  0  0  0  0  0  0  0  0  0
   -0.7062   -0.7966   -4.7315 H   0  0  0  0  0  0  0  0  0  0  0  0
    0.1720    0.7540   -4.7327 H   0  0  0  0  0  0  0  0  0  0  0  0
    0.1720   -1.2563   -2.3871 H   0  0  0  0  0  0  0  0  0  0  0  0
    0.1720    0.5758   -0.9945 H   0  0  0  0  0  0  0  0  0  0  0  0
    0.1720    0.3299    0.2874 C   0  0  0  0  0  3  0  0  0  0  0  0
   -0.9815   -0.4024    0.5693 O   0  0  0  0  0  0  0  0  0  0  0  0
   -1.4516   -0.1350    1.8766 C   0  0  0  0  0  0  0  0  0  0  0  0
   -0.3616   -0.4203    2.8999 C   0  0  0  0  0  0  0  0  0  0  0  0
    0.9006    0.3244    2.4890 C   0  0  0  0  0  0  0  0  0  0  0  0
    1.2305    0.0296    1.1453 O   0  0  0  0  0  0  0  0  0  0  0  0
   -0.0547    1.4102    0.3479 H   0  0  0  0  0  0  0  0  0  0  0  0
   -1.7666    0.9176    1.9453 H   0  0  0  0  0  0  0  0  0  0  0  0
   -2.3281   -0.7632    2.0292 H   0  0  0  0  0  0  0  0  0  0  0  0
   -0.6821   -0.1080    3.8963 H   0  0  0  0  0  0  0  0  0  0  0  0
   -0.1586   -1.4927    2.9245 H   0  0  0  0  0  0  0  0  0  0  0  0
    1.7592    0.0350    3.0934 H   0  0  0  0  0  0  0  0  0  0  0  0
    0.7511    1.4093    2.6008 H   0  0  0  0  0  0  0  0  0  0  0  0
  1  2  1  0
  1  4  1  0
  1  5  1  0
  1  6  1  0
  2  3  2  3
  2  7  1  0
  3  8  1  0
  9 10  1  0
  9 14  1  0
  9 15  1  0
 10 11  1  0
 11 12  1  0
 11 16  1  0
 11 17  1  0
 12 13  1  0
 12 18  1  0
 12 19  1  0
 13 14  1  0
 13 20  1  0
 13 21  1  0
M  RAD  1   9   2
M  END
>  <reaction>  (9) 
rmg_rxn_16469

>  <mol_properties>  (9) 
{"1": {"label": "*0", "atom_type": "Cd"}, "2": {"label": "*1", "atom_type": "N3d"}, "7": {"label": "*2", "atom_type": "H0"}, "8": {"label": "*3", "atom_type": "Cs"}, "9": {"label": "*4", "atom_type": "O2s"}}

>  <type>  (9) 
unop_5

>  <geom_source>  (9) 
Heuristics

$$$$

     RDKit          3D

 21 20  0  0  0  0  0  0  0  0999 V2000
    0.3996   -0.5867   -4.3087 C   0  0  0  0  0  0  0  0  0  0  0  0
    0.3996   -0.5867   -2.8163 C   0  0  0  0  0  0  0  0  0  0  0  0
    0.3996    0.4859   -2.1487 N   0  0  0  0  0  0  0  0  0  0  0  0
    1.2779   -1.1167   -4.6861 H   0  0  0  0  0  0  0  0  0  0  0  0
   -0.4787   -1.1167   -4.6861 H   0  0  0  0  0  0  0  0  0  0  0  0
    0.3996    0.4339   -4.6873 H   0  0  0  0  0  0  0  0  0  0  0  0
    0.3996   -1.5764   -2.3417 H   0  0  0  0  0  0  0  0  0  0  0  0
    0.3996    0.2558   -0.9491 H   0  0  0  0  0  0  0  0  0  0  0  0
    0.3996    0.0098    0.3328 C   0  0  0  0  0  3  0  0  0  0  0  0
    0.3996    1.2398    0.9912 O   0  0  0  0  0  0  0  0  0  0  0  0
    0.3765    1.0694    2.3955 C   0  0  0  0  0  0  0  0  0  0  0  0
   -0.8252    0.2311    2.8074 C   0  0  0  0  0  0  0  0  0  0  0  0
   -0.8291   -1.0519    1.9884 C   0  0  0  0  0  0  0  0  0  0  0  0
   -0.7341   -0.7551    0.6085 O   0  0  0  0  0  0  0  0  0  0  0  0
    1.3042   -0.5588    0.6167 H   0  0  0  0  0  0  0  0  0  0  0  0
    1.3070    0.5796    2.7211 H   0  0  0  0  0  0  0  0  0  0  0  0
    0.3461    2.0669    2.8318 H   0  0  0  0  0  0  0  0  0  0  0  0
   -0.7837    0.0027    3.8747 H   0  0  0  0  0  0  0  0  0  0  0  0
   -1.7422    0.7899    2.6109 H   0  0  0  0  0  0  0  0  0  0  0  0
   -1.7488   -1.6192    2.1246 H   0  0  0  0  0  0  0  0  0  0  0  0
    0.0166   -1.6909    2.2855 H   0  0  0  0  0  0  0  0  0  0  0  0
  1  2  1  0
  1  4  1  0
  1  5  1  0
  1  6  1  0
  2  3  2  3
  2  7  1  0
  3  8  1  0
  9 10  1  0
  9 14  1  0
  9 15  1  0
 10 11  1  0
 11 12  1  0
 11 16  1  0
 11 17  1  0
 12 13  1  0
 12 18  1  0
 12 19  1  0
 13 14  1  0
 13 20  1  0
 13 21  1  0
M  RAD  1   9   2
M  END
>  <reaction>  (10) 
rmg_rxn_16469

>  <mol_properties>  (10) 
{"1": {"label": "*0", "atom_type": "Cd"}, "2": {"label": "*1", "atom_type": "N3d"}, "7": {"label": "*2", "atom_type": "H0"}, "8": {"label": "*3", "atom_type": "Cs"}, "9": {"label": "*4", "atom_type": "O2s"}}

>  <type>  (10) 
unop_6

>  <geom_source>  (10) 
Heuristics

$$$$

     RDKit          3D

 21 20  0  0  0  0  0  0  0  0999 V2000
    0.1926   -0.4555   -4.3831 C   0  0  0  0  0  0  0  0  0  0  0  0
    0.1926   -0.4555   -2.8908 C   0  0  0  0  0  0  0  0  0  0  0  0
    0.1926    0.6172   -2.2231 N   0  0  0  0  0  0  0  0  0  0  0  0
    1.0708   -0.9855   -4.7605 H   0  0  0  0  0  0  0  0  0  0  0  0
   -0.6857   -0.9855   -4.7605 H   0  0  0  0  0  0  0  0  0  0  0  0
    0.1926    0.5652   -4.7617 H   0  0  0  0  0  0  0  0  0  0  0  0
    0.1926   -1.4452   -2.4161 H   0  0  0  0  0  0  0  0  0  0  0  0
    0.1926    0.3870   -1.0235 H   0  0  0  0  0  0  0  0  0  0  0  0
    0.1926    0.1410    0.2584 C   0  0  0  0  0  3  0  0  0  0  0  0
   -1.1395    0.0629    0.6658 O   0  0  0  0  0  0  0  0  0  0  0  0
   -1.3187    0.6392    1.9453 C   0  0  0  0  0  0  0  0  0  0  0  0
   -0.3990   -0.0262    2.9592 C   0  0  0  0  0  0  0  0  0  0  0  0
    1.0236    0.0002    2.4188 C   0  0  0  0  0  0  0  0  0  0  0  0
    1.0633   -0.5381    1.1111 O   0  0  0  0  0  0  0  0  0  0  0  0
    0.4952    1.2024    0.1936 H   0  0  0  0  0  0  0  0  0  0  0  0
   -1.1061    1.7181    1.8949 H   0  0  0  0  0  0  0  0  0  0  0  0
   -2.3693    0.5109    2.2025 H   0  0  0  0  0  0  0  0  0  0  0  0
   -0.4522    0.4909    3.9200 H   0  0  0  0  0  0  0  0  0  0  0  0
   -0.7116   -1.0615    3.1083 H   0  0  0  0  0  0  0  0  0  0  0  0
    1.7009   -0.5995    3.0253 H   0  0  0  0  0  0  0  0  0  0  0  0
    1.4010    1.0342    2.4017 H   0  0  0  0  0  0  0  0  0  0  0  0
  1  2  1  0
  1  4  1  0
  1  5  1  0
  1  6  1  0
  2  3  2  3
  2  7  1  0
  3  8  1  0
  9 10  1  0
  9 14  1  0
  9 15  1  0
 10 11  1  0
 11 12  1  0
 11 16  1  0
 11 17  1  0
 12 13  1  0
 12 18  1  0
 12 19  1  0
 13 14  1  0
 13 20  1  0
 13 21  1  0
M  RAD  1   9   2
M  END
>  <reaction>  (11) 
rmg_rxn_16469

>  <mol_properties>  (11) 
{"1": {"label": "*0", "atom_type": "Cd"}, "2": {"label": "*1", "atom_type": "N3d"}, "7": {"label": "*2", "atom_type": "H0"}, "8": {"label": "*3", "atom_type": "Cs"}, "9": {"label": "*4", "atom_type": "O2s"}}

>  <type>  (11) 
unop_7

>  <geom_source>  (11) 
Heuristics

$$$$

     RDKit          3D

 21 20  0  0  0  0  0  0  0  0999 V2000
    0.1156   -0.5301   -4.3983 C   0  0  0  0  0  0  0  0  0  0  0  0
    0.1156   -0.5301   -2.9059 C   0  0  0  0  0  0  0  0  0  0  0  0
    0.1156    0.5425   -2.2383 N   0  0  0  0  0  0  0  0  0  0  0  0
    0.9939   -1.0601   -4.7757 H   0  0  0  0  0  0  0  0  0  0  0  0
   -0.7626   -1.0601   -4.7757 H   0  0  0  0  0  0  0  0  0  0  0  0
    0.1156    0.4905   -4.7769 H   0  0  0  0  0  0  0  0  0  0  0  0
    0.1156   -1.5198   -2.4313 H   0  0  0  0  0  0  0  0  0  0  0  0
    0.1156    0.3123   -1.0387 H   0  0  0  0  0  0  0  0  0  0  0  0
    0.1156    0.0664    0.2432 C   0  0  0  0  0  3  0  0  0  0  0  0
   -1.0380    0.6423    0.7761 O   0  0  0  0  0  0  0  0  0  0  0  0
   -0.7922    1.1910    2.0567 C   0  0  0  0  0  0  0  0  0  0  0  0
   -0.2334    0.1268    2.9904 C   0  0  0  0  0  0  0  0  0  0  0  0
    0.9608   -0.5346    2.3174 C   0  0  0  0  0  0  0  0  0  0  0  0
    0.6107   -0.9805    1.0213 O   0  0  0  0  0  0  0  0  0  0  0  0
    0.8956    0.8419    0.1318 H   0  0  0  0  0  0  0  0  0  0  0  0
   -0.0801    2.0258    1.9679 H   0  0  0  0  0  0  0  0  0  0  0  0
   -1.7407    1.5893    2.4144 H   0  0  0  0  0  0  0  0  0  0  0  0
    0.0631    0.5720    3.9428 H   0  0  0  0  0  0  0  0  0  0  0  0
   -1.0015   -0.6239    3.1862 H   0  0  0  0  0  0  0  0  0  0  0  0
    1.3055   -1.4092    2.8674 H   0  0  0  0  0  0  0  0  0  0  0  0
    1.7963    0.1788    2.2469 H   0  0  0  0  0  0  0  0  0  0  0  0
  1  2  1  0
  1  4  1  0
  1  5  1  0
  1  6  1  0
  2  3  2  3
  2  7  1  0
  3  8  1  0
  9 10  1  0
  9 14  1  0
  9 15  1  0
 10 11  1  0
 11 12  1  0
 11 16  1  0
 11 17  1  0
 12 13  1  0
 12 18  1  0
 12 19  1  0
 13 14  1  0
 13 20  1  0
 13 21  1  0
M  RAD  1   9   2
M  END
>  <reaction>  (12) 
rmg_rxn_16469

>  <mol_properties>  (12) 
{"1": {"label": "*0", "atom_type": "Cd"}, "2": {"label": "*1", "atom_type": "N3d"}, "7": {"label": "*2", "atom_type": "H0"}, "8": {"label": "*3", "atom_type": "Cs"}, "9": {"label": "*4", "atom_type": "O2s"}}

>  <type>  (12) 
unop_8

>  <geom_source>  (12) 
Heuristics

$$$$

     RDKit          3D

 21 20  0  0  0  0  0  0  0  0999 V2000
   -0.3413   -1.1576   -4.0316 C   0  0  0  0  0  0  0  0  0  0  0  0
   -0.3413   -1.1576   -2.5392 C   0  0  0  0  0  0  0  0  0  0  0  0
   -0.3413   -0.0850   -1.8716 N   0  0  0  0  0  0  0  0  0  0  0  0
    0.5370   -1.6876   -4.4090 H   0  0  0  0  0  0  0  0  0  0  0  0
   -1.2196   -1.6876   -4.4090 H   0  0  0  0  0  0  0  0  0  0  0  0
   -0.3413   -0.1370   -4.4102 H   0  0  0  0  0  0  0  0  0  0  0  0
   -0.3413   -2.1473   -2.0646 H   0  0  0  0  0  0  0  0  0  0  0  0
   -0.3413   -0.3152   -0.6720 H   0  0  0  0  0  0  0  0  0  0  0  0
   -0.3413   -0.5611    0.6099 C   0  0  0  0  0  3  0  0  0  0  0  0
    0.9907   -0.6393    1.0173 O   0  0  0  0  0  0  0  0  0  0  0  0
    1.1786   -0.0224    2.2765 C   0  0  0  0  0  0  0  0  0  0  0  0
    0.7062    1.4238    2.2333 C   0  0  0  0  0  0  0  0  0  0  0  0
   -0.7150    1.4570    1.6894 C   0  0  0  0  0  0  0  0  0  0  0  0
   -0.7900    0.7519    0.4652 O   0  0  0  0  0  0  0  0  0  0  0  0
   -0.9806   -1.0893    1.3410 H   0  0  0  0  0  0  0  0  0  0  0  0
    0.6197   -0.5785    3.0447 H   0  0  0  0  0  0  0  0  0  0  0  0
    2.2404   -0.0973    2.5070 H   0  0  0  0  0  0  0  0  0  0  0  0
    0.7439    1.8679    3.2306 H   0  0  0  0  0  0  0  0  0  0  0  0
    1.3600    1.9998    1.5756 H   0  0  0  0  0  0  0  0  0  0  0  0
   -1.0500    2.4734    1.4869 H   0  0  0  0  0  0  0  0  0  0  0  0
   -1.4072    1.0050    2.4163 H   0  0  0  0  0  0  0  0  0  0  0  0
  1  2  1  0
  1  4  1  0
  1  5  1  0
  1  6  1  0
  2  3  2  3
  2  7  1  0
  3  8  1  0
  9 10  1  0
  9 14  1  0
  9 15  1  0
 10 11  1  0
 11 12  1  0
 11 16  1  0
 11 17  1  0
 12 13  1  0
 12 18  1  0
 12 19  1  0
 13 14  1  0
 13 20  1  0
 13 21  1  0
M  RAD  1   9   2
M  END
>  <reaction>  (13) 
rmg_rxn_16469

>  <mol_properties>  (13) 
{"1": {"label": "*0", "atom_type": "Cd"}, "2": {"label": "*1", "atom_type": "N3d"}, "7": {"label": "*2", "atom_type": "H0"}, "8": {"label": "*3", "atom_type": "Cs"}, "9": {"label": "*4", "atom_type": "O2s"}}

>  <type>  (13) 
unop_9

>  <geom_source>  (13) 
Heuristics

$$$$

     RDKit          3D

 21 20  0  0  0  0  0  0  0  0999 V2000
   -3.9493   -0.1544   -0.4291 C   0  0  0  0  0  0  0  0  0  0  0  0
   -2.5968   -0.0300    0.2021 C   0  0  0  0  0  0  0  0  0  0  0  0
   -1.6429    0.5236   -0.3697 N   0  0  0  0  0  0  0  0  0  0  0  0
   -3.9485    0.2963   -1.4176 H   0  0  0  0  0  0  0  0  0  0  0  0
   -4.2190   -1.2069   -0.5036 H   0  0  0  0  0  0  0  0  0  0  0  0
   -4.6871    0.3415    0.1996 H   0  0  0  0  0  0  0  0  0  0  0  0
   -2.5318   -0.4736    1.2076 H   0  0  0  0  0  0  0  0  0  0  0  0
   -0.6031    0.5313    0.2966 H   0  0  0  0  0  0  0  0  0  0  0  0
    0.5042    0.4102    1.0130 C   0  0  0  0  0  3  0  0  0  0  0  0
    0.8288   -0.9383    1.0122 O   0  0  0  0  0  0  0  0  0  0  0  0
    1.1909   -1.4134   -0.2725 C   0  0  0  0  0  0  0  0  0  0  0  0
    2.3009   -0.5517   -0.8737 C   0  0  0  0  0  0  0  0  0  0  0  0
    1.8252    0.9009   -0.8440 C   0  0  0  0  0  0  0  0  0  0  0  0
    1.4415    1.2683    0.4701 O   0  0  0  0  0  0  0  0  0  0  0  0
    0.2982    0.7179    2.0371 H   0  0  0  0  0  0  0  0  0  0  0  0
    1.5108   -2.4468   -0.1277 H   0  0  0  0  0  0  0  0  0  0  0  0
    0.3067   -1.3932   -0.9270 H   0  0  0  0  0  0  0  0  0  0  0  0
    3.2030   -0.6499   -0.2673 H   0  0  0  0  0  0  0  0  0  0  0  0
    2.5160   -0.8643   -1.8941 H   0  0  0  0  0  0  0  0  0  0  0  0
    0.9672    1.0304   -1.5187 H   0  0  0  0  0  0  0  0  0  0  0  0
    2.6190    1.5943   -1.1265 H   0  0  0  0  0  0  0  0  0  0  0  0
  1  2  1  0
  1  4  1  0
  1  5  1  0
  1  6  1  0
  2  3  2  3
  2  7  1  0
  3  8  1  0
  9 10  1  0
  9 14  1  0
  9 15  1  0
 10 11  1  0
 11 12  1  0
 11 16  1  0
 11 17  1  0
 12 13  1  0
 12 18  1  0
 12 19  1  0
 13 14  1  0
 13 20  1  0
 13 21  1  0
M  RAD  1   9   2
M  END
>  <reaction>  (14) 
rmg_rxn_16469

>  <mol_properties>  (14) 
{"1": {"label": "*0", "atom_type": "Cd"}, "2": {"label": "*1", "atom_type": "N3d"}, "7": {"label": "*2", "atom_type": "H0"}, "8": {"label": "*3", "atom_type": "Cs"}, "9": {"label": "*4", "atom_type": "O2s"}}

>  <type>  (14) 
unop_10

>  <geom_source>  (14) 
Heuristics

$$$$

     RDKit          3D

 21 20  0  0  0  0  0  0  0  0999 V2000
   -0.0472   -0.1024   -4.3050 C   0  0  0  0  0  0  0  0  0  0  0  0
   -0.0472   -0.1024   -2.8127 C   0  0  0  0  0  0  0  0  0  0  0  0
   -0.0472    0.9702   -2.1450 N   0  0  0  0  0  0  0  0  0  0  0  0
    0.8310   -0.6324   -4.6824 H   0  0  0  0  0  0  0  0  0  0  0  0
   -0.9255   -0.6324   -4.6824 H   0  0  0  0  0  0  0  0  0  0  0  0
   -0.0472    0.9182   -4.6836 H   0  0  0  0  0  0  0  0  0  0  0  0
   -0.0472   -1.0921   -2.3380 H   0  0  0  0  0  0  0  0  0  0  0  0
   -0.0472    0.7401   -0.9454 H   0  0  0  0  0  0  0  0  0  0  0  0
   -0.0472    0.4941    0.3365 C   0  0  0  0  0  3  0  0  0  0  0  0
   -0.7132   -0.7170    0.5265 O   0  0  0  0  0  0  0  0  0  0  0  0
   -1.1121   -0.8765    1.8744 C   0  0  0  0  0  0  0  0  0  0  0  0
    0.0916   -0.7658    2.7994 C   0  0  0  0  0  0  0  0  0  0  0  0
    0.8348    0.5237    2.4810 C   0  0  0  0  0  0  0  0  0  0  0  0
    1.1177    0.5998    1.0969 O   0  0  0  0  0  0  0  0  0  0  0  0
   -0.7262    1.3299    0.5866 H   0  0  0  0  0  0  0  0  0  0  0  0
   -1.8561   -0.1067    2.1306 H   0  0  0  0  0  0  0  0  0  0  0  0
   -1.5924   -1.8514    1.9459 H   0  0  0  0  0  0  0  0  0  0  0  0
   -0.2275   -0.7748    3.8440 H   0  0  0  0  0  0  0  0  0  0  0  0
    0.7550   -1.6172    2.6353 H   0  0  0  0  0  0  0  0  0  0  0  0
    1.7906    0.5817    3.0000 H   0  0  0  0  0  0  0  0  0  0  0  0
    0.2278    1.3920    2.7799 H   0  0  0  0  0  0  0  0  0  0  0  0
  1  2  1  0
  1  4  1  0
  1  5  1  0
  1  6  1  0
  2  3  2  3
  2  7  1  0
  3  8  1  0
  9 10  1  0
  9 14  1  0
  9 15  1  0
 10 11  1  0
 11 12  1  0
 11 16  1  0
 11 17  1  0
 12 13  1  0
 12 18  1  0
 12 19  1  0
 13 14  1  0
 13 20  1  0
 13 21  1  0
M  RAD  1   9   2
M  END
>  <reaction>  (15) 
rmg_rxn_16469

>  <mol_properties>  (15) 
{"1": {"label": "*0", "atom_type": "Cd"}, "2": {"label": "*1", "atom_type": "N3d"}, "7": {"label": "*2", "atom_type": "H0"}, "8": {"label": "*3", "atom_type": "Cs"}, "9": {"label": "*4", "atom_type": "O2s"}}

>  <type>  (15) 
unop_11

>  <geom_source>  (15) 
Heuristics

$$$$

     RDKit          3D

 21 20  0  0  0  0  0  0  0  0999 V2000
   -0.6201   -0.8584   -4.0578 C   0  0  0  0  0  0  0  0  0  0  0  0
   -0.6201   -0.8584   -2.5655 C   0  0  0  0  0  0  0  0  0  0  0  0
   -0.6201    0.2142   -1.8978 N   0  0  0  0  0  0  0  0  0  0  0  0
    0.2582   -1.3884   -4.4352 H   0  0  0  0  0  0  0  0  0  0  0  0
   -1.4983   -1.3884   -4.4352 H   0  0  0  0  0  0  0  0  0  0  0  0
   -0.6201    0.1622   -4.4364 H   0  0  0  0  0  0  0  0  0  0  0  0
   -0.6201   -1.8481   -2.0908 H   0  0  0  0  0  0  0  0  0  0  0  0
   -0.6201   -0.0159   -0.6982 H   0  0  0  0  0  0  0  0  0  0  0  0
   -0.6201   -0.2619    0.5837 C   0  0  0  0  0  3  0  0  0  0  0  0
    0.5335   -0.9942    0.8656 O   0  0  0  0  0  0  0  0  0  0  0  0
    1.0295   -0.6926    2.1557 C   0  0  0  0  0  0  0  0  0  0  0  0
    1.2869    0.8017    2.2880 C   0  0  0  0  0  0  0  0  0  0  0  0
    0.0290    1.5522    1.8743 C   0  0  0  0  0  0  0  0  0  0  0  0
   -0.4074    1.1168    0.6009 O   0  0  0  0  0  0  0  0  0  0  0  0
   -1.4076   -0.5212    1.3149 H   0  0  0  0  0  0  0  0  0  0  0  0
    0.3011   -1.0180    2.9143 H   0  0  0  0  0  0  0  0  0  0  0  0
    1.9400   -1.2758    2.2858 H   0  0  0  0  0  0  0  0  0  0  0  0
    1.5607    1.0526    3.3153 H   0  0  0  0  0  0  0  0  0  0  0  0
    2.1120    1.0873    1.6328 H   0  0  0  0  0  0  0  0  0  0  0  0
    0.2016    2.6248    1.7968 H   0  0  0  0  0  0  0  0  0  0  0  0
   -0.7697    1.3847    2.6131 H   0  0  0  0  0  0  0  0  0  0  0  0
  1  2  1  0
  1  4  1  0
  1  5  1  0
  1  6  1  0
  2  3  2  3
  2  7  1  0
  3  8  1  0
  9 10  1  0
  9 14  1  0
  9 15  1  0
 10 11  1  0
 11 12  1  0
 11 16  1  0
 11 17  1  0
 12 13  1  0
 12 18  1  0
 12 19  1  0
 13 14  1  0
 13 20  1  0
 13 21  1  0
M  RAD  1   9   2
M  END
>  <reaction>  (16) 
rmg_rxn_16469

>  <mol_properties>  (16) 
{"1": {"label": "*0", "atom_type": "Cd"}, "2": {"label": "*1", "atom_type": "N3d"}, "7": {"label": "*2", "atom_type": "H0"}, "8": {"label": "*3", "atom_type": "Cs"}, "9": {"label": "*4", "atom_type": "O2s"}}

>  <type>  (16) 
unop_12

>  <geom_source>  (16) 
Heuristics

$$$$

     RDKit          3D

 21 20  0  0  0  0  0  0  0  0999 V2000
    0.1421   -0.4841   -4.3941 C   0  0  0  0  0  0  0  0  0  0  0  0
    0.1421   -0.4841   -2.9018 C   0  0  0  0  0  0  0  0  0  0  0  0
    0.1421    0.5885   -2.2341 N   0  0  0  0  0  0  0  0  0  0  0  0
    1.0204   -1.0141   -4.7715 H   0  0  0  0  0  0  0  0  0  0  0  0
   -0.7362   -1.0141   -4.7715 H   0  0  0  0  0  0  0  0  0  0  0  0
    0.1421    0.5365   -4.7727 H   0  0  0  0  0  0  0  0  0  0  0  0
    0.1421   -1.4738   -2.4271 H   0  0  0  0  0  0  0  0  0  0  0  0
    0.1421    0.3584   -1.0345 H   0  0  0  0  0  0  0  0  0  0  0  0
    0.1421    0.1124    0.2474 C   0  0  0  0  0  3  0  0  0  0  0  0
   -0.5239    1.1671    0.8721 O   0  0  0  0  0  0  0  0  0  0  0  0
   -0.0947    1.3229    2.2111 C   0  0  0  0  0  0  0  0  0  0  0  0
   -0.2855    0.0249    2.9827 C   0  0  0  0  0  0  0  0  0  0  0  0
    0.3752   -1.1057    2.2069 C   0  0  0  0  0  0  0  0  0  0  0  0
   -0.0820   -1.1168    0.8681 O   0  0  0  0  0  0  0  0  0  0  0  0
    1.2273    0.3224    0.2295 H   0  0  0  0  0  0  0  0  0  0  0  0
    0.9661    1.6168    2.2247 H   0  0  0  0  0  0  0  0  0  0  0  0
   -0.6793    2.1383    2.6349 H   0  0  0  0  0  0  0  0  0  0  0  0
    0.1485    0.1071    3.9817 H   0  0  0  0  0  0  0  0  0  0  0  0
   -1.3524   -0.1817    3.0874 H   0  0  0  0  0  0  0  0  0  0  0  0
    0.1373   -2.0818    2.6275 H   0  0  0  0  0  0  0  0  0  0  0  0
    1.4691   -0.9827    2.2202 H   0  0  0  0  0  0  0  0  0  0  0  0
  1  2  1  0
  1  4  1  0
  1  5  1  0
  1  6  1  0
  2  3  2  3
  2  7  1  0
  3  8  1  0
  9 10  1  0
  9 14  1  0
  9 15  1  0
 10 11  1  0
 11 12  1  0
 11 16  1  0
 11 17  1  0
 12 13  1  0
 12 18  1  0
 12 19  1  0
 13 14  1  0
 13 20  1  0
 13 21  1  0
M  RAD  1   9   2
M  END
>  <reaction>  (17) 
rmg_rxn_16469

>  <mol_properties>  (17) 
{"1": {"label": "*0", "atom_type": "Cd"}, "2": {"label": "*1", "atom_type": "N3d"}, "7": {"label": "*2", "atom_type": "H0"}, "8": {"label": "*3", "atom_type": "Cs"}, "9": {"label": "*4", "atom_type": "O2s"}}

>  <type>  (17) 
unop_13

>  <geom_source>  (17) 
Heuristics

$$$$

     RDKit          3D

 21 20  0  0  0  0  0  0  0  0999 V2000
   -0.3996   -0.1486   -4.2246 C   0  0  0  0  0  0  0  0  0  0  0  0
   -0.3996   -0.1486   -2.7323 C   0  0  0  0  0  0  0  0  0  0  0  0
   -0.3996    0.9240   -2.0646 N   0  0  0  0  0  0  0  0  0  0  0  0
    0.4787   -0.6786   -4.6020 H   0  0  0  0  0  0  0  0  0  0  0  0
   -1.2779   -0.6786   -4.6020 H   0  0  0  0  0  0  0  0  0  0  0  0
   -0.3996    0.8720   -4.6032 H   0  0  0  0  0  0  0  0  0  0  0  0
   -0.3996   -1.1383   -2.2576 H   0  0  0  0  0  0  0  0  0  0  0  0
   -0.3996    0.6938   -0.8650 H   0  0  0  0  0  0  0  0  0  0  0  0
   -0.3996    0.4479    0.4169 C   0  0  0  0  0  3  0  0  0  0  0  0
   -0.3996   -0.9385    0.5733 O   0  0  0  0  0  0  0  0  0  0  0  0
   -0.3765   -1.2999    1.9408 C   0  0  0  0  0  0  0  0  0  0  0  0
    0.8252   -0.6736    2.6338 C   0  0  0  0  0  0  0  0  0  0  0  0
    0.8291    0.8214    2.3479 C   0  0  0  0  0  0  0  0  0  0  0  0
    0.7341    1.0564    0.9560 O   0  0  0  0  0  0  0  0  0  0  0  0
   -1.3042    0.8710    0.8910 H   0  0  0  0  0  0  0  0  0  0  0  0
   -1.3070   -0.9654    2.4247 H   0  0  0  0  0  0  0  0  0  0  0  0
   -0.3461   -2.3881    1.9770 H   0  0  0  0  0  0  0  0  0  0  0  0
    0.7837   -0.8564    3.7099 H   0  0  0  0  0  0  0  0  0  0  0  0
    1.7422   -1.1200    2.2444 H   0  0  0  0  0  0  0  0  0  0  0  0
    1.7488    1.2980    2.6843 H   0  0  0  0  0  0  0  0  0  0  0  0
   -0.0166    1.3051    2.8603 H   0  0  0  0  0  0  0  0  0  0  0  0
  1  2  1  0
  1  4  1  0
  1  5  1  0
  1  6  1  0
  2  3  2  3
  2  7  1  0
  3  8  1  0
  9 10  1  0
  9 14  1  0
  9 15  1  0
 10 11  1  0
 11 12  1  0
 11 16  1  0
 11 17  1  0
 12 13  1  0
 12 18  1  0
 12 19  1  0
 13 14  1  0
 13 20  1  0
 13 21  1  0
M  RAD  1   9   2
M  END
>  <reaction>  (18) 
rmg_rxn_16469

>  <mol_properties>  (18) 
{"1": {"label": "*0", "atom_type": "Cd"}, "2": {"label": "*1", "atom_type": "N3d"}, "7": {"label": "*2", "atom_type": "H0"}, "8": {"label": "*3", "atom_type": "Cs"}, "9": {"label": "*4", "atom_type": "O2s"}}

>  <type>  (18) 
unop_14

>  <geom_source>  (18) 
Heuristics

$$$$

     RDKit          3D

 21 20  0  0  0  0  0  0  0  0999 V2000
   -0.6471   -0.4564   -4.1278 C   0  0  0  0  0  0  0  0  0  0  0  0
   -0.6471   -0.4564   -2.6355 C   0  0  0  0  0  0  0  0  0  0  0  0
   -0.6471    0.6162   -1.9678 N   0  0  0  0  0  0  0  0  0  0  0  0
    0.2312   -0.9864   -4.5052 H   0  0  0  0  0  0  0  0  0  0  0  0
   -1.5253   -0.9864   -4.5052 H   0  0  0  0  0  0  0  0  0  0  0  0
   -0.6471    0.5642   -4.5064 H   0  0  0  0  0  0  0  0  0  0  0  0
   -0.6471   -1.4461   -2.1608 H   0  0  0  0  0  0  0  0  0  0  0  0
   -0.6471    0.3861   -0.7682 H   0  0  0  0  0  0  0  0  0  0  0  0
   -0.6471    0.1401    0.5137 C   0  0  0  0  0  3  0  0  0  0  0  0
    0.0190   -1.0710    0.7037 O   0  0  0  0  0  0  0  0  0  0  0  0
    0.4580   -1.2101    2.0414 C   0  0  0  0  0  0  0  0  0  0  0  0
    1.3421   -0.0348    2.4334 C   0  0  0  0  0  0  0  0  0  0  0  0
    0.6056    1.2581    2.1133 C   0  0  0  0  0  0  0  0  0  0  0  0
    0.1578    1.2502    0.7713 O   0  0  0  0  0  0  0  0  0  0  0  0
   -1.5397    0.1745    1.1650 H   0  0  0  0  0  0  0  0  0  0  0  0
   -0.4147   -1.2646    2.7103 H   0  0  0  0  0  0  0  0  0  0  0  0
    0.9911   -2.1580    2.0995 H   0  0  0  0  0  0  0  0  0  0  0  0
    1.5890   -0.0805    3.4965 H   0  0  0  0  0  0  0  0  0  0  0  0
    2.2719   -0.0738    1.8626 H   0  0  0  0  0  0  0  0  0  0  0  0
    1.2477    2.1309    2.2243 H   0  0  0  0  0  0  0  0  0  0  0  0
   -0.2566    1.3773    2.7872 H   0  0  0  0  0  0  0  0  0  0  0  0
  1  2  1  0
  1  4  1  0
  1  5  1  0
  1  6  1  0
  2  3  2  3
  2  7  1  0
  3  8  1  0
  9 10  1  0
  9 14  1  0
  9 15  1  0
 10 11  1  0
 11 12  1  0
 11 16  1  0
 11 17  1  0
 12 13  1  0
 12 18  1  0
 12 19  1  0
 13 14  1  0
 13 20  1  0
 13 21  1  0
M  RAD  1   9   2
M  END
>  <reaction>  (19) 
rmg_rxn_16469

>  <mol_properties>  (19) 
{"1": {"label": "*0", "atom_type": "Cd"}, "2": {"label": "*1", "atom_type": "N3d"}, "7": {"label": "*2", "atom_type": "H0"}, "8": {"label": "*3", "atom_type": "Cs"}, "9": {"label": "*4", "atom_type": "O2s"}}

>  <type>  (19) 
unop_15

>  <geom_source>  (19) 
gaussian_log

$$$$
