
     RDKit          3D

 14 14  0  0  0  0  0  0  0  0999 V2000
   -1.1778    0.2241    0.1818 C   0  0  0  0  0  0  0  0  0  0  0  0
   -0.5633   -1.1636    0.0678 C   0  0  0  0  0  0  0  0  0  0  0  0
    0.6943   -1.1996    0.7146 O   0  0  0  0  0  0  0  0  0  0  0  0
    1.5547   -0.2288    0.2011 C   0  0  0  0  0  0  0  0  0  0  0  0
    1.0729    1.0696    0.3698 O   0  0  0  0  0  0  0  0  0  0  0  0
   -0.1607    1.2493   -0.2989 C   0  0  0  0  0  0  0  0  0  0  0  0
   -2.0927    0.2866   -0.4117 H   0  0  0  0  0  0  0  0  0  0  0  0
   -1.4303    0.4248    1.2248 H   0  0  0  0  0  0  0  0  0  0  0  0
   -1.1822   -1.9235    0.5431 H   0  0  0  0  0  0  0  0  0  0  0  0
   -0.4389   -1.4347   -0.9919 H   0  0  0  0  0  0  0  0  0  0  0  0
    1.7250   -0.4207   -0.8742 H   0  0  0  0  0  0  0  0  0  0  0  0
    2.4896   -0.3010    0.7524 H   0  0  0  0  0  0  0  0  0  0  0  0
   -0.0080    1.1481   -1.3844 H   0  0  0  0  0  0  0  0  0  0  0  0
   -0.4826    2.2695   -0.0942 H   0  0  0  0  0  0  0  0  0  0  0  0
  1  2  1  0
  1  6  1  0
  1  7  1  0
  1  8  1  0
  2  3  1  0
  2  9  1  0
  2 10  1  0
  3  4  1  0
  4  5  1  0
  4 11  1  0
  4 12  1  0
  5  6  1  0
  6 13  1  0
  6 14  1  0
M  END
>  <reaction>  (1) 
rmg_rxn_665

>  <mol_properties>  (1) 
{"1": {"label": "donator", "atom_type": "Cs"}, "8": {"label": "d_hydrogen", "atom_type": "H0"}}

>  <type>  (1) 
r1h

$$$$

     RDKit          3D

 14 13  0  0  0  0  0  0  0  0999 V2000
    2.7687   -0.0362   -0.0732 C   0  0  0  0  0  3  0  0  0  0  0  0
    1.6543    0.2105    0.6386 O   0  0  0  0  0  0  0  0  0  0  0  0
    1.8652    0.6968    1.9544 C   0  0  0  0  0  0  0  0  0  0  0  0
    0.5252    0.9355    2.6156 C   0  0  0  0  0  0  0  0  0  0  0  0
   -0.2992    2.0181    1.9317 C   0  0  0  0  0  0  0  0  0  0  0  0
    2.5851   -0.4757   -1.0422 H   0  0  0  0  0  0  0  0  0  0  0  0
    3.6974   -0.2083    0.4611 H   0  0  0  0  0  0  0  0  0  0  0  0
    2.4441    1.6271    1.9039 H   0  0  0  0  0  0  0  0  0  0  0  0
    2.4506   -0.0397    2.5179 H   0  0  0  0  0  0  0  0  0  0  0  0
    0.7150    1.2089    3.6572 H   0  0  0  0  0  0  0  0  0  0  0  0
   -0.0287   -0.0066    2.6327 H   0  0  0  0  0  0  0  0  0  0  0  0
   -0.5056    1.7522    0.8949 H   0  0  0  0  0  0  0  0  0  0  0  0
   -1.2524    2.1635    2.4416 H   0  0  0  0  0  0  0  0  0  0  0  0
    0.2319    2.9729    1.9340 H   0  0  0  0  0  0  0  0  0  0  0  0
  1  2  1  0
  1  6  1  0
  1  7  1  0
  2  3  1  0
  3  4  1  0
  3  8  1  0
  3  9  1  0
  4  5  1  0
  4 10  1  0
  4 11  1  0
  5 12  1  0
  5 13  1  0
  5 14  1  0
M  RAD  1   1   2
M  END
>  <reaction>  (2) 
rmg_rxn_665

>  <mol_properties>  (2) 
{"0": {"label": "acceptor", "atom_type": "Cs"}}

>  <type>  (2) 
r2

$$$$

     RDKit          3D

 15 14  0  0  0  0  0  0  0  0999 V2000
   -1.2811   -0.4129    1.0228 C   0  0  0  0  0  0  0  0  0  0  0  0
   -1.0023   -0.5809   -0.4650 C   0  0  0  0  0  0  0  0  0  0  0  0
   -2.0576    0.0568   -1.3449 C   0  0  0  0  0  0  0  0  0  0  0  0
   -2.0663    1.4464   -1.1307 O   0  0  0  0  0  0  0  0  0  0  0  0
   -3.0424    2.1072   -1.8849 C   0  0  0  0  0  0  0  0  0  0  0  0
   -2.2382   -0.8657    1.2935 H   0  0  0  0  0  0  0  0  0  0  0  0
   -1.3219    0.6426    1.2914 H   0  0  0  0  0  0  0  0  0  0  0  0
   -0.5042   -0.8881    1.6236 H   0  0  0  0  0  0  0  0  0  0  0  0
   -0.0316   -0.1460   -0.7167 H   0  0  0  0  0  0  0  0  0  0  0  0
   -0.9494   -1.6429   -0.7203 H   0  0  0  0  0  0  0  0  0  0  0  0
   -1.8518   -0.1570   -2.4041 H   0  0  0  0  0  0  0  0  0  0  0  0
   -3.0491   -0.3636   -1.1124 H   0  0  0  0  0  0  0  0  0  0  0  0
   -4.0521    1.7545   -1.6343 H   0  0  0  0  0  0  0  0  0  0  0  0
   -2.8850    1.9634   -2.9626 H   0  0  0  0  0  0  0  0  0  0  0  0
   -2.9730    3.1700   -1.6570 H   0  0  0  0  0  0  0  0  0  0  0  0
  1  2  1  0
  1  6  1  0
  1  7  1  0
  1  8  1  0
  2  3  1  0
  2  9  1  0
  2 10  1  0
  3  4  1  0
  3 11  1  0
  3 12  1  0
  4  5  1  0
  5 13  1  0
  5 14  1  0
  5 15  1  0
M  END
>  <reaction>  (3) 
rmg_rxn_665

>  <mol_properties>  (3) 
{"0": {"label": "a_hydrogen", "atom_type": "H0"}, "1": {"label": "acceptor", "atom_type": "Cs"}}

>  <type>  (3) 
r2h

$$$$

     RDKit          3D

 28 27  0  0  0  0  0  0  0  0999 V2000
    1.4515    0.9480   -0.5751 C   0  0  0  0  0  0  0  0  0  0  0  0
    0.9590    1.1306    0.8367 C   0  0  0  0  0  3  0  0  0  0  0  0
   -0.3650    1.5774    0.8862 O   0  0  0  0  0  0  0  0  0  0  0  0
   -0.5578    2.7334    0.1133 C   0  0  0  0  0  0  0  0  0  0  0  0
   -0.2389    2.5404   -1.2270 O   0  0  0  0  0  0  0  0  0  0  0  0
    1.1259    2.1996   -1.3867 C   0  0  0  0  0  0  0  0  0  0  0  0
    2.5258    0.7549   -0.5816 H   0  0  0  0  0  0  0  0  0  0  0  0
    0.9525    0.0868   -1.0274 H   0  0  0  0  0  0  0  0  0  0  0  0
    0.8990   -0.1368    1.4024 H   0  0  0  0  0  0  0  0  0  0  0  0
    1.6161    1.7234    1.4840 H   0  0  0  0  0  0  0  0  0  0  0  0
    0.0543    3.5527    0.5289 H   0  0  0  0  0  0  0  0  0  0  0  0
   -1.6159    2.9812    0.1660 H   0  0  0  0  0  0  0  0  0  0  0  0
    1.7547    3.0399   -1.0580 H   0  0  0  0  0  0  0  0  0  0  0  0
    1.2867    2.0454   -2.4531 H   0  0  0  0  0  0  0  0  0  0  0  0
    0.7360   -1.4091    1.7178 C   0  0  0  0  0  0  0  0  0  0  0  0
    0.3343   -2.0894    0.5931 O   0  0  0  0  0  0  0  0  0  0  0  0
   -1.0085   -1.8335    0.2174 C   0  0  0  0  0  0  0  0  0  0  0  0
   -1.3082   -2.5638   -1.0734 C   0  0  0  0  0  0  0  0  0  0  0  0
   -1.1939   -4.0776   -0.9529 C   0  0  0  0  0  0  0  0  0  0  0  0
    1.7153   -1.7639    2.0336 H   0  0  0  0  0  0  0  0  0  0  0  0
   -0.0011   -1.4101    2.5281 H   0  0  0  0  0  0  0  0  0  0  0  0
   -1.1579   -0.7549    0.0988 H   0  0  0  0  0  0  0  0  0  0  0  0
   -1.6774   -2.1779    1.0196 H   0  0  0  0  0  0  0  0  0  0  0  0
   -0.6292   -2.1957   -1.8474 H   0  0  0  0  0  0  0  0  0  0  0  0
   -2.3186   -2.2854   -1.3846 H   0  0  0  0  0  0  0  0  0  0  0  0
   -1.4251   -4.5652   -1.9011 H   0  0  0  0  0  0  0  0  0  0  0  0
   -0.1856   -4.3685   -0.6579 H   0  0  0  0  0  0  0  0  0  0  0  0
   -1.8873   -4.4616   -0.2007 H   0  0  0  0  0  0  0  0  0  0  0  0
  1  2  1  0
  1  6  1  0
  1  7  1  0
  1  8  1  0
  2  3  1  0
  2 10  1  0
  3  4  1  0
  4  5  1  0
  4 11  1  0
  4 12  1  0
  5  6  1  0
  6 13  1  0
  6 14  1  0
  9 15  1  0
 15 16  1  0
 15 20  1  0
 15 21  1  0
 16 17  1  0
 17 18  1  0
 17 22  1  0
 17 23  1  0
 18 19  1  0
 18 24  1  0
 18 25  1  0
 19 26  1  0
 19 27  1  0
 19 28  1  0
M  RAD  1   2   2
M  END
>  <reaction>  (4) 
rmg_rxn_665

>  <mol_properties>  (4) 
{"1": {"label": "*3", "atom_type": "Cs"}, "2": {"label": "*4", "atom_type": "O2s"}, "8": {"label": "*2", "atom_type": "H0"}, "14": {"label": "*1", "atom_type": "Cs"}, "15": {"label": "*0", "atom_type": "O2s"}}

>  <type>  (4) 
ts

$$$$

     RDKit          3D

 28 27  0  0  0  0  0  0  0  0999 V2000
   -0.3252    1.0236   -1.9610 C   0  0  0  0  0  0  0  0  0  0  0  0
   -0.3252    1.0236   -0.4390 C   0  0  0  0  0  0  0  0  0  0  0  0
   -1.3735    1.8362    0.0531 O   0  0  0  0  0  0  0  0  0  0  0  0
   -1.2826    3.1357   -0.4462 C   0  0  0  0  0  0  0  0  0  0  0  0
   -1.3735    3.1919   -1.8372 O   0  0  0  0  0  0  0  0  0  0  0  0
   -0.3252    2.4652   -2.4491 C   0  0  0  0  0  0  0  0  0  0  0  0
    0.5488    0.4911   -2.3429 H   0  0  0  0  0  0  0  0  0  0  0  0
   -1.2218    0.5174   -2.3240 H   0  0  0  0  0  0  0  0  0  0  0  0
   -0.5159   -0.1734    0.0498 H   0  0  0  0  0  0  0  0  0  0  0  0
    0.6384    1.3996   -0.0622 H   0  0  0  0  0  0  0  0  0  0  0  0
   -0.3272    3.5878   -0.1220 H   0  0  0  0  0  0  0  0  0  0  0  0
   -2.1236    3.6963   -0.0442 H   0  0  0  0  0  0  0  0  0  0  0  0
    0.6384    2.9426   -2.2138 H   0  0  0  0  0  0  0  0  0  0  0  0
   -0.4841    2.5312   -3.5246 H   0  0  0  0  0  0  0  0  0  0  0  0
   -0.7083   -1.3808    0.5429 C   0  0  0  0  0  3  0  0  0  0  0  0
    0.3683   -1.7882    1.3385 O   0  0  0  0  0  0  0  0  0  0  0  0
    1.2482   -2.6545    0.6661 C   0  0  0  0  0  0  0  0  0  0  0  0
    2.3577   -3.0746    1.6080 C   0  0  0  0  0  0  0  0  0  0  0  0
    1.8575   -3.8719    2.8053 C   0  0  0  0  0  0  0  0  0  0  0  0
   -1.3295   -0.7163    1.1420 H   0  0  0  0  0  0  0  0  0  0  0  0
   -1.3144   -2.2369    0.2165 H   0  0  0  0  0  0  0  0  0  0  0  0
    1.6675   -2.1501   -0.2170 H   0  0  0  0  0  0  0  0  0  0  0  0
    0.6998   -3.5403    0.3078 H   0  0  0  0  0  0  0  0  0  0  0  0
    2.8833   -2.1781    1.9468 H   0  0  0  0  0  0  0  0  0  0  0  0
    3.0775   -3.6666    1.0359 H   0  0  0  0  0  0  0  0  0  0  0  0
    2.6834   -4.1604    3.4571 H   0  0  0  0  0  0  0  0  0  0  0  0
    1.1495   -3.2859    3.3912 H   0  0  0  0  0  0  0  0  0  0  0  0
    1.3512   -4.7847    2.4816 H   0  0  0  0  0  0  0  0  0  0  0  0
  1  2  1  0
  1  6  1  0
  1  7  1  0
  1  8  1  0
  2  3  1  0
  2  9  1  0
  2 10  1  0
  3  4  1  0
  4  5  1  0
  4 11  1  0
  4 12  1  0
  5  6  1  0
  6 13  1  0
  6 14  1  0
 15 16  1  0
 15 20  1  0
 15 21  1  0
 16 17  1  0
 17 18  1  0
 17 22  1  0
 17 23  1  0
 18 19  1  0
 18 24  1  0
 18 25  1  0
 19 26  1  0
 19 27  1  0
 19 28  1  0
M  RAD  1  15   2
M  END
>  <reaction>  (5) 
rmg_rxn_665

>  <mol_properties>  (5) 
{"1": {"label": "*3", "atom_type": "Cs"}, "2": {"label": "*4", "atom_type": "O2s"}, "8": {"label": "*2", "atom_type": "H0"}, "14": {"label": "*1", "atom_type": "Cs"}, "15": {"label": "*0", "atom_type": "O2s"}}

>  <type>  (5) 
unop_1

>  <geom_source>  (5) 
Heuristics

$$$$

     RDKit          3D

 28 27  0  0  0  0  0  0  0  0999 V2000
    0.3850    1.2452   -0.8841 C   0  0  0  0  0  0  0  0  0  0  0  0
    0.3850    1.2452    0.6380 C   0  0  0  0  0  0  0  0  0  0  0  0
   -0.6633    2.0578    1.1301 O   0  0  0  0  0  0  0  0  0  0  0  0
   -0.5724    3.3574    0.6308 C   0  0  0  0  0  0  0  0  0  0  0  0
   -0.6633    3.4136   -0.7603 O   0  0  0  0  0  0  0  0  0  0  0  0
    0.3850    2.6869   -1.3722 C   0  0  0  0  0  0  0  0  0  0  0  0
    1.2590    0.7128   -1.2659 H   0  0  0  0  0  0  0  0  0  0  0  0
   -0.5116    0.7391   -1.2471 H   0  0  0  0  0  0  0  0  0  0  0  0
    0.1943    0.0482    1.1268 H   0  0  0  0  0  0  0  0  0  0  0  0
    1.3486    1.6212    1.0147 H   0  0  0  0  0  0  0  0  0  0  0  0
    0.3830    3.8095    0.9550 H   0  0  0  0  0  0  0  0  0  0  0  0
   -1.4134    3.9179    1.0327 H   0  0  0  0  0  0  0  0  0  0  0  0
    1.3486    3.1643   -1.1369 H   0  0  0  0  0  0  0  0  0  0  0  0
    0.2261    2.7528   -2.4476 H   0  0  0  0  0  0  0  0  0  0  0  0
    0.0019   -1.1592    1.6198 C   0  0  0  0  0  3  0  0  0  0  0  0
    0.5033   -2.1483    0.7664 O   0  0  0  0  0  0  0  0  0  0  0  0
   -0.3457   -2.4125   -0.3228 C   0  0  0  0  0  0  0  0  0  0  0  0
    0.2522   -3.5169   -1.1699 C   0  0  0  0  0  0  0  0  0  0  0  0
    0.3691   -4.8429   -0.4301 C   0  0  0  0  0  0  0  0  0  0  0  0
    0.7216   -1.0219    2.4258 H   0  0  0  0  0  0  0  0  0  0  0  0
   -0.9647   -1.4521    2.0517 H   0  0  0  0  0  0  0  0  0  0  0  0
   -0.4788   -1.5004   -0.9231 H   0  0  0  0  0  0  0  0  0  0  0  0
   -1.3408   -2.7122    0.0429 H   0  0  0  0  0  0  0  0  0  0  0  0
    1.2364   -3.1930   -1.5180 H   0  0  0  0  0  0  0  0  0  0  0  0
   -0.3747   -3.6355   -2.0580 H   0  0  0  0  0  0  0  0  0  0  0  0
    0.7983   -5.6137   -1.0720 H   0  0  0  0  0  0  0  0  0  0  0  0
    1.0039   -4.7399    0.4499 H   0  0  0  0  0  0  0  0  0  0  0  0
   -0.6119   -5.1916   -0.0978 H   0  0  0  0  0  0  0  0  0  0  0  0
  1  2  1  0
  1  6  1  0
  1  7  1  0
  1  8  1  0
  2  3  1  0
  2  9  1  0
  2 10  1  0
  3  4  1  0
  4  5  1  0
  4 11  1  0
  4 12  1  0
  5  6  1  0
  6 13  1  0
  6 14  1  0
 15 16  1  0
 15 20  1  0
 15 21  1  0
 16 17  1  0
 17 18  1  0
 17 22  1  0
 17 23  1  0
 18 19  1  0
 18 24  1  0
 18 25  1  0
 19 26  1  0
 19 27  1  0
 19 28  1  0
M  RAD  1  15   2
M  END
>  <reaction>  (6) 
rmg_rxn_665

>  <mol_properties>  (6) 
{"1": {"label": "*3", "atom_type": "Cs"}, "2": {"label": "*4", "atom_type": "O2s"}, "8": {"label": "*2", "atom_type": "H0"}, "14": {"label": "*1", "atom_type": "Cs"}, "15": {"label": "*0", "atom_type": "O2s"}}

>  <type>  (6) 
unop_2

>  <geom_source>  (6) 
Heuristics

$$$$

     RDKit          3D

 28 27  0  0  0  0  0  0  0  0999 V2000
   -0.1720    0.8045   -2.3150 C   0  0  0  0  0  0  0  0  0  0  0  0
   -0.1720    0.8045   -0.7930 C   0  0  0  0  0  0  0  0  0  0  0  0
   -1.2203    1.6171   -0.3009 O   0  0  0  0  0  0  0  0  0  0  0  0
   -1.1294    2.9166   -0.8002 C   0  0  0  0  0  0  0  0  0  0  0  0
   -1.2203    2.9728   -2.1912 O   0  0  0  0  0  0  0  0  0  0  0  0
   -0.1720    2.2461   -2.8031 C   0  0  0  0  0  0  0  0  0  0  0  0
    0.7020    0.2720   -2.6969 H   0  0  0  0  0  0  0  0  0  0  0  0
   -1.0686    0.2983   -2.6780 H   0  0  0  0  0  0  0  0  0  0  0  0
   -0.3627   -0.3925   -0.3042 H   0  0  0  0  0  0  0  0  0  0  0  0
    0.7916    1.1804   -0.4163 H   0  0  0  0  0  0  0  0  0  0  0  0
   -0.1741    3.3687   -0.4760 H   0  0  0  0  0  0  0  0  0  0  0  0
   -1.9704    3.4771   -0.3982 H   0  0  0  0  0  0  0  0  0  0  0  0
    0.7916    2.7235   -2.5678 H   0  0  0  0  0  0  0  0  0  0  0  0
   -0.3310    2.3120   -3.8786 H   0  0  0  0  0  0  0  0  0  0  0  0
   -0.5551   -1.5999    0.1889 C   0  0  0  0  0  3  0  0  0  0  0  0
    0.0790   -1.7563    1.4264 O   0  0  0  0  0  0  0  0  0  0  0  0
    1.4018   -2.2181    1.3085 C   0  0  0  0  0  0  0  0  0  0  0  0
    1.9974   -2.3952    2.6900 C   0  0  0  0  0  0  0  0  0  0  0  0
    1.2827   -3.4536    3.5196 C   0  0  0  0  0  0  0  0  0  0  0  0
   -1.5655   -1.2399    0.3782 H   0  0  0  0  0  0  0  0  0  0  0  0
   -0.6126   -2.5513   -0.3573 H   0  0  0  0  0  0  0  0  0  0  0  0
    1.9977   -1.5009    0.7248 H   0  0  0  0  0  0  0  0  0  0  0  0
    1.4164   -3.1758    0.7641 H   0  0  0  0  0  0  0  0  0  0  0  0
    1.9699   -1.4319    3.2058 H   0  0  0  0  0  0  0  0  0  0  0  0
    3.0516   -2.6601    2.5696 H   0  0  0  0  0  0  0  0  0  0  0  0
    1.7415   -3.5564    4.5040 H   0  0  0  0  0  0  0  0  0  0  0  0
    0.2336   -3.1925    3.6581 H   0  0  0  0  0  0  0  0  0  0  0  0
    1.3241   -4.4283    3.0271 H   0  0  0  0  0  0  0  0  0  0  0  0
  1  2  1  0
  1  6  1  0
  1  7  1  0
  1  8  1  0
  2  3  1  0
  2  9  1  0
  2 10  1  0
  3  4  1  0
  4  5  1  0
  4 11  1  0
  4 12  1  0
  5  6  1  0
  6 13  1  0
  6 14  1  0
 15 16  1  0
 15 20  1  0
 15 21  1  0
 16 17  1  0
 17 18  1  0
 17 22  1  0
 17 23  1  0
 18 19  1  0
 18 24  1  0
 18 25  1  0
 19 26  1  0
 19 27  1  0
 19 28  1  0
M  RAD  1  15   2
M  END
>  <reaction>  (7) 
rmg_rxn_665

>  <mol_properties>  (7) 
{"1": {"label": "*3", "atom_type": "Cs"}, "2": {"label": "*4", "atom_type": "O2s"}, "8": {"label": "*2", "atom_type": "H0"}, "14": {"label": "*1", "atom_type": "Cs"}, "15": {"label": "*0", "atom_type": "O2s"}}

>  <type>  (7) 
unop_3

>  <geom_source>  (7) 
Heuristics

$$$$

     RDKit          3D

 28 27  0  0  0  0  0  0  0  0999 V2000
    1.4547    0.6163   -1.3887 C   0  0  0  0  0  0  0  0  0  0  0  0
    1.4547    0.6163    0.1333 C   0  0  0  0  0  0  0  0  0  0  0  0
    0.4064    1.4289    0.6254 O   0  0  0  0  0  0  0  0  0  0  0  0
    0.4973    2.7284    0.1261 C   0  0  0  0  0  0  0  0  0  0  0  0
    0.4064    2.7846   -1.2650 O   0  0  0  0  0  0  0  0  0  0  0  0
    1.4547    2.0579   -1.8769 C   0  0  0  0  0  0  0  0  0  0  0  0
    2.3287    0.0838   -1.7706 H   0  0  0  0  0  0  0  0  0  0  0  0
    0.5581    0.1101   -1.7518 H   0  0  0  0  0  0  0  0  0  0  0  0
    1.2640   -0.5807    0.6221 H   0  0  0  0  0  0  0  0  0  0  0  0
    2.4183    0.9922    0.5100 H   0  0  0  0  0  0  0  0  0  0  0  0
    1.4527    3.1805    0.4503 H   0  0  0  0  0  0  0  0  0  0  0  0
   -0.3437    3.2889    0.5281 H   0  0  0  0  0  0  0  0  0  0  0  0
    2.4183    2.5353   -1.6416 H   0  0  0  0  0  0  0  0  0  0  0  0
    1.2957    2.1238   -2.9523 H   0  0  0  0  0  0  0  0  0  0  0  0
    1.0716   -1.7881    1.1151 C   0  0  0  0  0  3  0  0  0  0  0  0
   -0.1549   -2.3215    0.7036 O   0  0  0  0  0  0  0  0  0  0  0  0
   -1.1257   -1.3344    0.4581 C   0  0  0  0  0  0  0  0  0  0  0  0
   -2.4270   -1.9978    0.0567 C   0  0  0  0  0  0  0  0  0  0  0  0
   -3.0195   -2.8690    1.1564 C   0  0  0  0  0  0  0  0  0  0  0  0
    1.7558   -2.6198    1.2781 H   0  0  0  0  0  0  0  0  0  0  0  0
    0.9707   -1.2215    2.0507 H   0  0  0  0  0  0  0  0  0  0  0  0
   -0.7795   -0.6594   -0.3385 H   0  0  0  0  0  0  0  0  0  0  0  0
   -1.2752   -0.7238    1.3629 H   0  0  0  0  0  0  0  0  0  0  0  0
   -2.2492   -2.5954   -0.8411 H   0  0  0  0  0  0  0  0  0  0  0  0
   -3.1332   -1.2106   -0.2213 H   0  0  0  0  0  0  0  0  0  0  0  0
   -3.9564   -3.3253    0.8333 H   0  0  0  0  0  0  0  0  0  0  0  0
   -2.3293   -3.6663    1.4318 H   0  0  0  0  0  0  0  0  0  0  0  0
   -3.2258   -2.2786    2.0526 H   0  0  0  0  0  0  0  0  0  0  0  0
  1  2  1  0
  1  6  1  0
  1  7  1  0
  1  8  1  0
  2  3  1  0
  2  9  1  0
  2 10  1  0
  3  4  1  0
  4  5  1  0
  4 11  1  0
  4 12  1  0
  5  6  1  0
  6 13  1  0
  6 14  1  0
 15 16  1  0
 15 20  1  0
 15 21  1  0
 16 17  1  0
 17 18  1  0
 17 22  1  0
 17 23  1  0
 18 19  1  0
 18 24  1  0
 18 25  1  0
 19 26  1  0
 19 27  1  0
 19 28  1  0
M  RAD  1  15   2
M  END
>  <reaction>  (8) 
rmg_rxn_665

>  <mol_properties>  (8) 
{"1": {"label": "*3", "atom_type": "Cs"}, "2": {"label": "*4", "atom_type": "O2s"}, "8": {"label": "*2", "atom_type": "H0"}, "14": {"label": "*1", "atom_type": "Cs"}, "15": {"label": "*0", "atom_type": "O2s"}}

>  <type>  (8) 
unop_4

>  <geom_source>  (8) 
Heuristics

$$$$

     RDKit          3D

 28 27  0  0  0  0  0  0  0  0999 V2000
    0.1528    0.5074   -2.5481 C   0  0  0  0  0  0  0  0  0  0  0  0
    0.1528    0.5074   -1.0261 C   0  0  0  0  0  0  0  0  0  0  0  0
   -0.8955    1.3200   -0.5340 O   0  0  0  0  0  0  0  0  0  0  0  0
   -0.8045    2.6196   -1.0333 C   0  0  0  0  0  0  0  0  0  0  0  0
   -0.8955    2.6758   -2.4243 O   0  0  0  0  0  0  0  0  0  0  0  0
    0.1528    1.9491   -3.0362 C   0  0  0  0  0  0  0  0  0  0  0  0
    1.0268   -0.0250   -2.9300 H   0  0  0  0  0  0  0  0  0  0  0  0
   -0.7437    0.0013   -2.9111 H   0  0  0  0  0  0  0  0  0  0  0  0
   -0.0379   -0.6896   -0.5373 H   0  0  0  0  0  0  0  0  0  0  0  0
    1.1165    0.8834   -0.6494 H   0  0  0  0  0  0  0  0  0  0  0  0
    0.1508    3.0717   -0.7091 H   0  0  0  0  0  0  0  0  0  0  0  0
   -1.6456    3.1801   -0.6313 H   0  0  0  0  0  0  0  0  0  0  0  0
    1.1165    2.4265   -2.8009 H   0  0  0  0  0  0  0  0  0  0  0  0
   -0.0061    2.0150   -4.1117 H   0  0  0  0  0  0  0  0  0  0  0  0
   -0.2303   -1.8970   -0.0442 C   0  0  0  0  0  3  0  0  0  0  0  0
   -0.2286   -1.8866    1.3550 O   0  0  0  0  0  0  0  0  0  0  0  0
    0.9855   -1.4293    1.8970 C   0  0  0  0  0  0  0  0  0  0  0  0
    0.9144   -1.4868    3.4091 C   0  0  0  0  0  0  0  0  0  0  0  0
    0.7500   -2.9017    3.9478 C   0  0  0  0  0  0  0  0  0  0  0  0
   -1.2036   -2.2605   -0.3711 H   0  0  0  0  0  0  0  0  0  0  0  0
    0.5496   -2.5599   -0.4429 H   0  0  0  0  0  0  0  0  0  0  0  0
    1.1799   -0.3994    1.5628 H   0  0  0  0  0  0  0  0  0  0  0  0
    1.8165   -2.0543    1.5329 H   0  0  0  0  0  0  0  0  0  0  0  0
    0.0833   -0.8594    3.7414 H   0  0  0  0  0  0  0  0  0  0  0  0
    1.8290   -1.0371    3.8055 H   0  0  0  0  0  0  0  0  0  0  0  0
    0.7076   -2.9039    5.0380 H   0  0  0  0  0  0  0  0  0  0  0  0
   -0.1664   -3.3549    3.5702 H   0  0  0  0  0  0  0  0  0  0  0  0
    1.5877   -3.5342    3.6437 H   0  0  0  0  0  0  0  0  0  0  0  0
  1  2  1  0
  1  6  1  0
  1  7  1  0
  1  8  1  0
  2  3  1  0
  2  9  1  0
  2 10  1  0
  3  4  1  0
  4  5  1  0
  4 11  1  0
  4 12  1  0
  5  6  1  0
  6 13  1  0
  6 14  1  0
 15 16  1  0
 15 20  1  0
 15 21  1  0
 16 17  1  0
 17 18  1  0
 17 22  1  0
 17 23  1  0
 18 19  1  0
 18 24  1  0
 18 25  1  0
 19 26  1  0
 19 27  1  0
 19 28  1  0
M  RAD  1  15   2
M  END
>  <reaction>  (9) 
rmg_rxn_665

>  <mol_properties>  (9) 
{"1": {"label": "*3", "atom_type": "Cs"}, "2": {"label": "*4", "atom_type": "O2s"}, "8": {"label": "*2", "atom_type": "H0"}, "14": {"label": "*1", "atom_type": "Cs"}, "15": {"label": "*0", "atom_type": "O2s"}}

>  <type>  (9) 
unop_5

>  <geom_source>  (9) 
Heuristics

$$$$

     RDKit          3D

 28 27  0  0  0  0  0  0  0  0999 V2000
    1.4400    0.4040   -1.8369 C   0  0  0  0  0  0  0  0  0  0  0  0
    1.4400    0.4040   -0.3149 C   0  0  0  0  0  0  0  0  0  0  0  0
    0.3917    1.2166    0.1772 O   0  0  0  0  0  0  0  0  0  0  0  0
    0.4826    2.5161   -0.3221 C   0  0  0  0  0  0  0  0  0  0  0  0
    0.3917    2.5723   -1.7131 O   0  0  0  0  0  0  0  0  0  0  0  0
    1.4400    1.8456   -2.3250 C   0  0  0  0  0  0  0  0  0  0  0  0
    2.3140   -0.1285   -2.2188 H   0  0  0  0  0  0  0  0  0  0  0  0
    0.5434   -0.1022   -2.1999 H   0  0  0  0  0  0  0  0  0  0  0  0
    1.2493   -0.7931    0.1739 H   0  0  0  0  0  0  0  0  0  0  0  0
    2.4036    0.7799    0.0618 H   0  0  0  0  0  0  0  0  0  0  0  0
    1.4380    2.9682    0.0021 H   0  0  0  0  0  0  0  0  0  0  0  0
   -0.3584    3.0766    0.0799 H   0  0  0  0  0  0  0  0  0  0  0  0
    2.4036    2.3230   -2.0897 H   0  0  0  0  0  0  0  0  0  0  0  0
    1.2811    1.9115   -3.4005 H   0  0  0  0  0  0  0  0  0  0  0  0
    1.0569   -2.0005    0.6670 C   0  0  0  0  0  3  0  0  0  0  0  0
   -0.3035   -2.2660    0.8590 O   0  0  0  0  0  0  0  0  0  0  0  0
   -1.0811   -1.0980    0.9499 C   0  0  0  0  0  0  0  0  0  0  0  0
   -2.5277   -1.4750    1.1948 C   0  0  0  0  0  0  0  0  0  0  0  0
   -2.7431   -2.1963    2.5186 C   0  0  0  0  0  0  0  0  0  0  0  0
    1.5751   -2.9566    0.6067 H   0  0  0  0  0  0  0  0  0  0  0  0
    1.4756   -1.4204    1.5006 H   0  0  0  0  0  0  0  0  0  0  0  0
   -0.9902   -0.5151    0.0215 H   0  0  0  0  0  0  0  0  0  0  0  0
   -0.7103   -0.4650    1.7719 H   0  0  0  0  0  0  0  0  0  0  0  0
   -2.8681   -2.1012    0.3661 H   0  0  0  0  0  0  0  0  0  0  0  0
   -3.1231   -0.5583    1.1645 H   0  0  0  0  0  0  0  0  0  0  0  0
   -3.7952   -2.4469    2.6621 H   0  0  0  0  0  0  0  0  0  0  0  0
   -2.1649   -3.1195    2.5542 H   0  0  0  0  0  0  0  0  0  0  0  0
   -2.4299   -1.5711    3.3585 H   0  0  0  0  0  0  0  0  0  0  0  0
  1  2  1  0
  1  6  1  0
  1  7  1  0
  1  8  1  0
  2  3  1  0
  2  9  1  0
  2 10  1  0
  3  4  1  0
  4  5  1  0
  4 11  1  0
  4 12  1  0
  5  6  1  0
  6 13  1  0
  6 14  1  0
 15 16  1  0
 15 20  1  0
 15 21  1  0
 16 17  1  0
 17 18  1  0
 17 22  1  0
 17 23  1  0
 18 19  1  0
 18 24  1  0
 18 25  1  0
 19 26  1  0
 19 27  1  0
 19 28  1  0
M  RAD  1  15   2
M  END
>  <reaction>  (10) 
rmg_rxn_665

>  <mol_properties>  (10) 
{"1": {"label": "*3", "atom_type": "Cs"}, "2": {"label": "*4", "atom_type": "O2s"}, "8": {"label": "*2", "atom_type": "H0"}, "14": {"label": "*1", "atom_type": "Cs"}, "15": {"label": "*0", "atom_type": "O2s"}}

>  <type>  (10) 
unop_6

>  <geom_source>  (10) 
Heuristics

$$$$

     RDKit          3D

 28 27  0  0  0  0  0  0  0  0999 V2000
    1.1746    0.2695   -2.2649 C   0  0  0  0  0  0  0  0  0  0  0  0
    1.1746    0.2695   -0.7429 C   0  0  0  0  0  0  0  0  0  0  0  0
    0.1263    1.0821   -0.2508 O   0  0  0  0  0  0  0  0  0  0  0  0
    0.2172    2.3816   -0.7501 C   0  0  0  0  0  0  0  0  0  0  0  0
    0.1263    2.4378   -2.1412 O   0  0  0  0  0  0  0  0  0  0  0  0
    1.1746    1.7111   -2.7530 C   0  0  0  0  0  0  0  0  0  0  0  0
    2.0486   -0.2630   -2.6468 H   0  0  0  0  0  0  0  0  0  0  0  0
    0.2780   -0.2367   -2.6279 H   0  0  0  0  0  0  0  0  0  0  0  0
    0.9839   -0.9275   -0.2541 H   0  0  0  0  0  0  0  0  0  0  0  0
    2.1382    0.6454   -0.3662 H   0  0  0  0  0  0  0  0  0  0  0  0
    1.1726    2.8337   -0.4259 H   0  0  0  0  0  0  0  0  0  0  0  0
   -0.6238    2.9421   -0.3481 H   0  0  0  0  0  0  0  0  0  0  0  0
    2.1382    2.1885   -2.5177 H   0  0  0  0  0  0  0  0  0  0  0  0
    1.0157    1.7770   -3.8285 H   0  0  0  0  0  0  0  0  0  0  0  0
    0.7915   -2.1349    0.2390 C   0  0  0  0  0  3  0  0  0  0  0  0
   -0.3584   -2.1875    1.0346 O   0  0  0  0  0  0  0  0  0  0  0  0
   -0.7603   -0.9227    1.4990 C   0  0  0  0  0  0  0  0  0  0  0  0
   -1.9836   -1.0757    2.3792 C   0  0  0  0  0  0  0  0  0  0  0  0
   -1.7183   -1.8918    3.6373 C   0  0  0  0  0  0  0  0  0  0  0  0
    1.0240   -3.1520   -0.0738 H   0  0  0  0  0  0  0  0  0  0  0  0
    1.6475   -1.7288    0.7947 H   0  0  0  0  0  0  0  0  0  0  0  0
   -0.9834   -0.2647    0.6461 H   0  0  0  0  0  0  0  0  0  0  0  0
    0.0594   -0.4553    2.0677 H   0  0  0  0  0  0  0  0  0  0  0  0
   -2.7786   -1.5408    1.7905 H   0  0  0  0  0  0  0  0  0  0  0  0
   -2.3320   -0.0743    2.6468 H   0  0  0  0  0  0  0  0  0  0  0  0
   -2.6189   -1.9763    4.2473 H   0  0  0  0  0  0  0  0  0  0  0  0
   -1.3838   -2.8973    3.3823 H   0  0  0  0  0  0  0  0  0  0  0  0
   -0.9422   -1.4245    4.2485 H   0  0  0  0  0  0  0  0  0  0  0  0
  1  2  1  0
  1  6  1  0
  1  7  1  0
  1  8  1  0
  2  3  1  0
  2  9  1  0
  2 10  1  0
  3  4  1  0
  4  5  1  0
  4 11  1  0
  4 12  1  0
  5  6  1  0
  6 13  1  0
  6 14  1  0
 15 16  1  0
 15 20  1  0
 15 21  1  0
 16 17  1  0
 17 18  1  0
 17 22  1  0
 17 23  1  0
 18 19  1  0
 18 24  1  0
 18 25  1  0
 19 26  1  0
 19 27  1  0
 19 28  1  0
M  RAD  1  15   2
M  END
>  <reaction>  (11) 
rmg_rxn_665

>  <mol_properties>  (11) 
{"1": {"label": "*3", "atom_type": "Cs"}, "2": {"label": "*4", "atom_type": "O2s"}, "8": {"label": "*2", "atom_type": "H0"}, "14": {"label": "*1", "atom_type": "Cs"}, "15": {"label": "*0", "atom_type": "O2s"}}

>  <type>  (11) 
unop_7

>  <geom_source>  (11) 
Heuristics

$$$$

     RDKit          3D

 28 27  0  0  0  0  0  0  0  0999 V2000
   -0.2905    1.1893   -1.5363 C   0  0  0  0  0  0  0  0  0  0  0  0
   -0.2905    1.1893   -0.0142 C   0  0  0  0  0  0  0  0  0  0  0  0
   -1.3388    2.0019    0.4779 O   0  0  0  0  0  0  0  0  0  0  0  0
   -1.2478    3.3014   -0.0215 C   0  0  0  0  0  0  0  0  0  0  0  0
   -1.3388    3.3576   -1.4125 O   0  0  0  0  0  0  0  0  0  0  0  0
   -0.2905    2.6309   -2.0244 C   0  0  0  0  0  0  0  0  0  0  0  0
    0.5835    0.6568   -1.9181 H   0  0  0  0  0  0  0  0  0  0  0  0
   -1.1870    0.6831   -1.8993 H   0  0  0  0  0  0  0  0  0  0  0  0
   -0.4812   -0.0078    0.4746 H   0  0  0  0  0  0  0  0  0  0  0  0
    0.6732    1.5652    0.3625 H   0  0  0  0  0  0  0  0  0  0  0  0
   -0.2925    3.7535    0.3028 H   0  0  0  0  0  0  0  0  0  0  0  0
   -2.0889    3.8619    0.3805 H   0  0  0  0  0  0  0  0  0  0  0  0
    0.6732    3.1083   -1.7891 H   0  0  0  0  0  0  0  0  0  0  0  0
   -0.4494    2.6968   -3.0998 H   0  0  0  0  0  0  0  0  0  0  0  0
   -0.6736   -1.2152    0.9676 C   0  0  0  0  0  3  0  0  0  0  0  0
    0.5369   -1.8903    1.1597 O   0  0  0  0  0  0  0  0  0  0  0  0
    0.8265   -2.7985    0.1260 C   0  0  0  0  0  0  0  0  0  0  0  0
    2.1284   -3.5099    0.4319 C   0  0  0  0  0  0  0  0  0  0  0  0
    2.0656   -4.3575    1.6956 C   0  0  0  0  0  0  0  0  0  0  0  0
   -0.8116   -0.5378    1.8094 H   0  0  0  0  0  0  0  0  0  0  0  0
   -1.5217   -1.9122    0.9286 H   0  0  0  0  0  0  0  0  0  0  0  0
    0.8998   -2.2634   -0.8323 H   0  0  0  0  0  0  0  0  0  0  0  0
    0.0084   -3.5301    0.0310 H   0  0  0  0  0  0  0  0  0  0  0  0
    2.9202   -2.7615    0.5207 H   0  0  0  0  0  0  0  0  0  0  0  0
    2.3792   -4.1358   -0.4289 H   0  0  0  0  0  0  0  0  0  0  0  0
    3.0176   -4.8572    1.8805 H   0  0  0  0  0  0  0  0  0  0  0  0
    1.8300   -3.7411    2.5631 H   0  0  0  0  0  0  0  0  0  0  0  0
    1.2941   -5.1269    1.6108 H   0  0  0  0  0  0  0  0  0  0  0  0
  1  2  1  0
  1  6  1  0
  1  7  1  0
  1  8  1  0
  2  3  1  0
  2  9  1  0
  2 10  1  0
  3  4  1  0
  4  5  1  0
  4 11  1  0
  4 12  1  0
  5  6  1  0
  6 13  1  0
  6 14  1  0
 15 16  1  0
 15 20  1  0
 15 21  1  0
 16 17  1  0
 17 18  1  0
 17 22  1  0
 17 23  1  0
 18 19  1  0
 18 24  1  0
 18 25  1  0
 19 26  1  0
 19 27  1  0
 19 28  1  0
M  RAD  1  15   2
M  END
>  <reaction>  (12) 
rmg_rxn_665

>  <mol_properties>  (12) 
{"1": {"label": "*3", "atom_type": "Cs"}, "2": {"label": "*4", "atom_type": "O2s"}, "8": {"label": "*2", "atom_type": "H0"}, "14": {"label": "*1", "atom_type": "Cs"}, "15": {"label": "*0", "atom_type": "O2s"}}

>  <type>  (12) 
unop_8

>  <geom_source>  (12) 
Heuristics

$$$$

     RDKit          3D

 28 27  0  0  0  0  0  0  0  0999 V2000
    1.2419    0.8603   -1.0306 C   0  0  0  0  0  0  0  0  0  0  0  0
    1.2419    0.8603    0.4914 C   0  0  0  0  0  0  0  0  0  0  0  0
    0.1936    1.6729    0.9835 O   0  0  0  0  0  0  0  0  0  0  0  0
    0.2845    2.9725    0.4842 C   0  0  0  0  0  0  0  0  0  0  0  0
    0.1936    3.0287   -0.9068 O   0  0  0  0  0  0  0  0  0  0  0  0
    1.2419    2.3019   -1.5187 C   0  0  0  0  0  0  0  0  0  0  0  0
    2.1159    0.3278   -1.4125 H   0  0  0  0  0  0  0  0  0  0  0  0
    0.3453    0.3541   -1.3936 H   0  0  0  0  0  0  0  0  0  0  0  0
    1.0512   -0.3367    0.9802 H   0  0  0  0  0  0  0  0  0  0  0  0
    2.2055    1.2363    0.8682 H   0  0  0  0  0  0  0  0  0  0  0  0
    1.2399    3.4245    0.8084 H   0  0  0  0  0  0  0  0  0  0  0  0
   -0.5565    3.5330    0.8862 H   0  0  0  0  0  0  0  0  0  0  0  0
    2.2055    2.7793   -1.2834 H   0  0  0  0  0  0  0  0  0  0  0  0
    1.0830    2.3679   -2.5942 H   0  0  0  0  0  0  0  0  0  0  0  0
    0.8588   -1.5441    1.4733 C   0  0  0  0  0  3  0  0  0  0  0  0
    0.0748   -2.3284    0.6199 O   0  0  0  0  0  0  0  0  0  0  0  0
   -1.0159   -1.6250    0.0788 C   0  0  0  0  0  0  0  0  0  0  0  0
   -1.8288   -2.5550   -0.7980 C   0  0  0  0  0  0  0  0  0  0  0  0
   -2.4492   -3.7139   -0.0289 C   0  0  0  0  0  0  0  0  0  0  0  0
    1.6736   -2.1672    1.8395 H   0  0  0  0  0  0  0  0  0  0  0  0
    0.2778   -1.1776    2.3305 H   0  0  0  0  0  0  0  0  0  0  0  0
   -0.6541   -0.7670   -0.5069 H   0  0  0  0  0  0  0  0  0  0  0  0
   -1.6435   -1.2257    0.8915 H   0  0  0  0  0  0  0  0  0  0  0  0
   -1.1825   -2.9352   -1.5933 H   0  0  0  0  0  0  0  0  0  0  0  0
   -2.6107   -1.9627   -1.2812 H   0  0  0  0  0  0  0  0  0  0  0  0
   -3.0298   -4.3580   -0.6910 H   0  0  0  0  0  0  0  0  0  0  0  0
   -1.6775   -4.3199    0.4456 H   0  0  0  0  0  0  0  0  0  0  0  0
   -3.1180   -3.3482    0.7542 H   0  0  0  0  0  0  0  0  0  0  0  0
  1  2  1  0
  1  6  1  0
  1  7  1  0
  1  8  1  0
  2  3  1  0
  2  9  1  0
  2 10  1  0
  3  4  1  0
  4  5  1  0
  4 11  1  0
  4 12  1  0
  5  6  1  0
  6 13  1  0
  6 14  1  0
 15 16  1  0
 15 20  1  0
 15 21  1  0
 16 17  1  0
 17 18  1  0
 17 22  1  0
 17 23  1  0
 18 19  1  0
 18 24  1  0
 18 25  1  0
 19 26  1  0
 19 27  1  0
 19 28  1  0
M  RAD  1  15   2
M  END
>  <reaction>  (13) 
rmg_rxn_665

>  <mol_properties>  (13) 
{"1": {"label": "*3", "atom_type": "Cs"}, "2": {"label": "*4", "atom_type": "O2s"}, "8": {"label": "*2", "atom_type": "H0"}, "14": {"label": "*1", "atom_type": "Cs"}, "15": {"label": "*0", "atom_type": "O2s"}}

>  <type>  (13) 
unop_9

>  <geom_source>  (13) 
Heuristics

$$$$

     RDKit          3D

 28 27  0  0  0  0  0  0  0  0999 V2000
   -0.0375    1.2761   -1.1398 C   0  0  0  0  0  0  0  0  0  0  0  0
   -0.0375    1.2761    0.3823 C   0  0  0  0  0  0  0  0  0  0  0  0
   -1.0858    2.0887    0.8744 O   0  0  0  0  0  0  0  0  0  0  0  0
   -0.9949    3.3882    0.3751 C   0  0  0  0  0  0  0  0  0  0  0  0
   -1.0858    3.4444   -1.0160 O   0  0  0  0  0  0  0  0  0  0  0  0
   -0.0375    2.7177   -1.6279 C   0  0  0  0  0  0  0  0  0  0  0  0
    0.8365    0.7436   -1.5216 H   0  0  0  0  0  0  0  0  0  0  0  0
   -0.9341    0.7699   -1.5028 H   0  0  0  0  0  0  0  0  0  0  0  0
   -0.2282    0.0791    0.8711 H   0  0  0  0  0  0  0  0  0  0  0  0
    0.9261    1.6520    0.7590 H   0  0  0  0  0  0  0  0  0  0  0  0
   -0.0395    3.8403    0.6993 H   0  0  0  0  0  0  0  0  0  0  0  0
   -1.8359    3.9487    0.7770 H   0  0  0  0  0  0  0  0  0  0  0  0
    0.9261    3.1951   -1.3926 H   0  0  0  0  0  0  0  0  0  0  0  0
   -0.1964    2.7836   -2.7033 H   0  0  0  0  0  0  0  0  0  0  0  0
   -0.4206   -1.1283    1.3641 C   0  0  0  0  0  3  0  0  0  0  0  0
    0.5794   -2.0164    0.9526 O   0  0  0  0  0  0  0  0  0  0  0  0
    0.2448   -2.7094   -0.2243 C   0  0  0  0  0  0  0  0  0  0  0  0
    1.3604   -3.6722   -0.5751 C   0  0  0  0  0  0  0  0  0  0  0  0
    1.5692   -4.7556    0.4747 C   0  0  0  0  0  0  0  0  0  0  0  0
   -0.0749   -0.6398    2.2742 H   0  0  0  0  0  0  0  0  0  0  0  0
   -1.3621   -1.6526    1.5770 H   0  0  0  0  0  0  0  0  0  0  0  0
    0.0841   -1.9955   -1.0457 H   0  0  0  0  0  0  0  0  0  0  0  0
   -0.6986   -3.2595   -0.0789 H   0  0  0  0  0  0  0  0  0  0  0  0
    2.2817   -3.1004   -0.7131 H   0  0  0  0  0  0  0  0  0  0  0  0
    1.1212   -4.1255   -1.5411 H   0  0  0  0  0  0  0  0  0  0  0  0
    2.3755   -5.4314    0.1860 H   0  0  0  0  0  0  0  0  0  0  0  0
    1.8223   -4.3154    1.4391 H   0  0  0  0  0  0  0  0  0  0  0  0
    0.6626   -5.3518    0.6050 H   0  0  0  0  0  0  0  0  0  0  0  0
  1  2  1  0
  1  6  1  0
  1  7  1  0
  1  8  1  0
  2  3  1  0
  2  9  1  0
  2 10  1  0
  3  4  1  0
  4  5  1  0
  4 11  1  0
  4 12  1  0
  5  6  1  0
  6 13  1  0
  6 14  1  0
 15 16  1  0
 15 20  1  0
 15 21  1  0
 16 17  1  0
 17 18  1  0
 17 22  1  0
 17 23  1  0
 18 19  1  0
 18 24  1  0
 18 25  1  0
 19 26  1  0
 19 27  1  0
 19 28  1  0
M  RAD  1  15   2
M  END
>  <reaction>  (14) 
rmg_rxn_665

>  <mol_properties>  (14) 
{"1": {"label": "*3", "atom_type": "Cs"}, "2": {"label": "*4", "atom_type": "O2s"}, "8": {"label": "*2", "atom_type": "H0"}, "14": {"label": "*1", "atom_type": "Cs"}, "15": {"label": "*0", "atom_type": "O2s"}}

>  <type>  (14) 
unop_10

>  <geom_source>  (14) 
Heuristics

$$$$

     RDKit          3D

 28 27  0  0  0  0  0  0  0  0999 V2000
    0.6898    0.2784   -2.5444 C   0  0  0  0  0  0  0  0  0  0  0  0
    0.6898    0.2784   -1.0223 C   0  0  0  0  0  0  0  0  0  0  0  0
   -0.3585    1.0910   -0.5302 O   0  0  0  0  0  0  0  0  0  0  0  0
   -0.2676    2.3906   -1.0296 C   0  0  0  0  0  0  0  0  0  0  0  0
   -0.3585    2.4467   -2.4206 O   0  0  0  0  0  0  0  0  0  0  0  0
    0.6898    1.7200   -3.0325 C   0  0  0  0  0  0  0  0  0  0  0  0
    1.5637   -0.2541   -2.9263 H   0  0  0  0  0  0  0  0  0  0  0  0
   -0.2068   -0.2278   -2.9074 H   0  0  0  0  0  0  0  0  0  0  0  0
    0.4990   -0.9186   -0.5335 H   0  0  0  0  0  0  0  0  0  0  0  0
    1.6534    0.6544   -0.6456 H   0  0  0  0  0  0  0  0  0  0  0  0
    0.6877    2.8426   -0.7054 H   0  0  0  0  0  0  0  0  0  0  0  0
   -1.1087    2.9511   -0.6276 H   0  0  0  0  0  0  0  0  0  0  0  0
    1.6534    2.1974   -2.7972 H   0  0  0  0  0  0  0  0  0  0  0  0
    0.5308    1.7860   -4.1079 H   0  0  0  0  0  0  0  0  0  0  0  0
    0.3066   -2.1260   -0.0405 C   0  0  0  0  0  3  0  0  0  0  0  0
   -0.3447   -2.0776    1.1970 O   0  0  0  0  0  0  0  0  0  0  0  0
   -0.0276   -0.9249    1.9371 C   0  0  0  0  0  0  0  0  0  0  0  0
   -0.7420   -0.9722    3.2720 C   0  0  0  0  0  0  0  0  0  0  0  0
   -0.2996   -2.1371    4.1475 C   0  0  0  0  0  0  0  0  0  0  0  0
    0.0009   -3.0447   -0.5394 H   0  0  0  0  0  0  0  0  0  0  0  0
    1.3986   -2.1322    0.0791 H   0  0  0  0  0  0  0  0  0  0  0  0
   -0.3254   -0.0267    1.3762 H   0  0  0  0  0  0  0  0  0  0  0  0
    1.0616   -0.8681    2.0923 H   0  0  0  0  0  0  0  0  0  0  0  0
   -1.8180   -1.0282    3.0879 H   0  0  0  0  0  0  0  0  0  0  0  0
   -0.5574   -0.0245    3.7853 H   0  0  0  0  0  0  0  0  0  0  0  0
   -0.8310   -2.1357    5.1003 H   0  0  0  0  0  0  0  0  0  0  0  0
   -0.4922   -3.0883    3.6513 H   0  0  0  0  0  0  0  0  0  0  0  0
    0.7707   -2.0800    4.3606 H   0  0  0  0  0  0  0  0  0  0  0  0
  1  2  1  0
  1  6  1  0
  1  7  1  0
  1  8  1  0
  2  3  1  0
  2  9  1  0
  2 10  1  0
  3  4  1  0
  4  5  1  0
  4 11  1  0
  4 12  1  0
  5  6  1  0
  6 13  1  0
  6 14  1  0
 15 16  1  0
 15 20  1  0
 15 21  1  0
 16 17  1  0
 17 18  1  0
 17 22  1  0
 17 23  1  0
 18 19  1  0
 18 24  1  0
 18 25  1  0
 19 26  1  0
 19 27  1  0
 19 28  1  0
M  RAD  1  15   2
M  END
>  <reaction>  (15) 
rmg_rxn_665

>  <mol_properties>  (15) 
{"1": {"label": "*3", "atom_type": "Cs"}, "2": {"label": "*4", "atom_type": "O2s"}, "8": {"label": "*2", "atom_type": "H0"}, "14": {"label": "*1", "atom_type": "Cs"}, "15": {"label": "*0", "atom_type": "O2s"}}

>  <type>  (15) 
unop_11

>  <geom_source>  (15) 
Heuristics

$$$$

     RDKit          3D

 28 27  0  0  0  0  0  0  0  0999 V2000
    0.8560    1.0907   -0.8455 C   0  0  0  0  0  0  0  0  0  0  0  0
    0.8560    1.0907    0.6765 C   0  0  0  0  0  0  0  0  0  0  0  0
   -0.1923    1.9033    1.1686 O   0  0  0  0  0  0  0  0  0  0  0  0
   -0.1014    3.2028    0.6693 C   0  0  0  0  0  0  0  0  0  0  0  0
   -0.1923    3.2590   -0.7218 O   0  0  0  0  0  0  0  0  0  0  0  0
    0.8560    2.5323   -1.3336 C   0  0  0  0  0  0  0  0  0  0  0  0
    1.7300    0.5582   -1.2274 H   0  0  0  0  0  0  0  0  0  0  0  0
   -0.0406    0.5845   -1.2085 H   0  0  0  0  0  0  0  0  0  0  0  0
    0.6652   -0.1064    1.1653 H   0  0  0  0  0  0  0  0  0  0  0  0
    1.8196    1.4666    1.0532 H   0  0  0  0  0  0  0  0  0  0  0  0
    0.8539    3.6549    0.9935 H   0  0  0  0  0  0  0  0  0  0  0  0
   -0.9425    3.7633    1.0713 H   0  0  0  0  0  0  0  0  0  0  0  0
    1.8196    3.0097   -1.0983 H   0  0  0  0  0  0  0  0  0  0  0  0
    0.6970    2.5982   -2.4091 H   0  0  0  0  0  0  0  0  0  0  0  0
    0.4729   -1.3138    1.6584 C   0  0  0  0  0  3  0  0  0  0  0  0
    0.3213   -2.2649    0.6432 O   0  0  0  0  0  0  0  0  0  0  0  0
   -0.7780   -2.0017   -0.1930 C   0  0  0  0  0  0  0  0  0  0  0  0
   -0.8904   -3.0956   -1.2349 C   0  0  0  0  0  0  0  0  0  0  0  0
   -1.1700   -4.4674   -0.6357 C   0  0  0  0  0  0  0  0  0  0  0  0
    1.3433   -1.5964    2.2490 H   0  0  0  0  0  0  0  0  0  0  0  0
   -0.4075   -1.2814    2.3145 H   0  0  0  0  0  0  0  0  0  0  0  0
   -0.6524   -1.0229   -0.6790 H   0  0  0  0  0  0  0  0  0  0  0  0
   -1.7009   -1.9537    0.4068 H   0  0  0  0  0  0  0  0  0  0  0  0
    0.0368   -3.1202   -1.8133 H   0  0  0  0  0  0  0  0  0  0  0  0
   -1.6891   -2.8179   -1.9283 H   0  0  0  0  0  0  0  0  0  0  0  0
   -1.2490   -5.2271   -1.4147 H   0  0  0  0  0  0  0  0  0  0  0  0
   -0.3725   -4.7608    0.0469 H   0  0  0  0  0  0  0  0  0  0  0  0
   -2.1079   -4.4638   -0.0747 H   0  0  0  0  0  0  0  0  0  0  0  0
  1  2  1  0
  1  6  1  0
  1  7  1  0
  1  8  1  0
  2  3  1  0
  2  9  1  0
  2 10  1  0
  3  4  1  0
  4  5  1  0
  4 11  1  0
  4 12  1  0
  5  6  1  0
  6 13  1  0
  6 14  1  0
 15 16  1  0
 15 20  1  0
 15 21  1  0
 16 17  1  0
 17 18  1  0
 17 22  1  0
 17 23  1  0
 18 19  1  0
 18 24  1  0
 18 25  1  0
 19 26  1  0
 19 27  1  0
 19 28  1  0
M  RAD  1  15   2
M  END
>  <reaction>  (16) 
rmg_rxn_665

>  <mol_properties>  (16) 
{"1": {"label": "*3", "atom_type": "Cs"}, "2": {"label": "*4", "atom_type": "O2s"}, "8": {"label": "*2", "atom_type": "H0"}, "14": {"label": "*1", "atom_type": "Cs"}, "15": {"label": "*0", "atom_type": "O2s"}}

>  <type>  (16) 
unop_12

>  <geom_source>  (16) 
Heuristics

$$$$

     RDKit          3D

 28 27  0  0  0  0  0  0  0  0999 V2000
   -3.8692    0.6837    0.8388 O   0  0  0  0  0  0  0  0  0  0  0  0
    1.2165   -0.7248    0.1887 O   0  0  0  0  0  0  0  0  0  0  0  0
   -2.4539    1.3957   -0.8651 O   0  0  0  0  0  0  0  0  0  0  0  0
    3.3335    0.2227   -0.5380 C   0  0  0  0  0  0  0  0  0  0  0  0
   -2.5213   -0.9542   -0.3396 C   0  0  0  0  0  0  0  0  0  0  0  0
    1.9276   -0.2423   -0.9362 C   0  0  0  0  0  0  0  0  0  0  0  0
   -3.2068   -0.5595    0.9690 C   0  0  0  0  0  0  0  0  0  0  0  0
    4.1619   -0.9116    0.0616 C   0  0  0  0  0  0  0  0  0  0  0  0
   -2.9412    1.6736    0.4317 C   0  0  0  0  0  0  0  0  0  0  0  0
    0.4014    0.2930    0.7236 C   0  0  0  0  0  0  0  0  0  0  0  0
   -1.6717    0.2268   -0.7950 C   0  0  0  0  0  3  0  0  0  0  0  0
    3.2643    1.0547    0.1947 H   0  0  0  0  0  0  0  0  0  0  0  0
    3.8542    0.6073   -1.4415 H   0  0  0  0  0  0  0  0  0  0  0  0
   -1.8780   -1.8456   -0.1815 H   0  0  0  0  0  0  0  0  0  0  0  0
   -3.2868   -1.1855   -1.1120 H   0  0  0  0  0  0  0  0  0  0  0  0
    1.4020    0.5803   -1.4775 H   0  0  0  0  0  0  0  0  0  0  0  0
    2.0216   -1.0735   -1.6674 H   0  0  0  0  0  0  0  0  0  0  0  0
   -2.4661   -0.5209    1.8002 H   0  0  0  0  0  0  0  0  0  0  0  0
   -3.9556   -1.3366    1.2303 H   0  0  0  0  0  0  0  0  0  0  0  0
    3.6927   -1.2829    0.9973 H   0  0  0  0  0  0  0  0  0  0  0  0
    5.1803   -0.5400    0.3017 H   0  0  0  0  0  0  0  0  0  0  0  0
    4.2516   -1.7492   -0.6624 H   0  0  0  0  0  0  0  0  0  0  0  0
   -3.4714    2.6475    0.3976 H   0  0  0  0  0  0  0  0  0  0  0  0
   -2.1119    1.7932    1.1705 H   0  0  0  0  0  0  0  0  0  0  0  0
   -0.1166   -0.1021    1.6213 H   0  0  0  0  0  0  0  0  0  0  0  0
    1.0045    1.1723    1.0398 H   0  0  0  0  0  0  0  0  0  0  0  0
   -0.5363    0.6626   -0.1611 H   0  0  0  0  0  0  0  0  0  0  0  0
   -1.2252    0.0157   -1.7893 H   0  0  0  0  0  0  0  0  0  0  0  0
  1  7  1  0
  1  9  1  0
  2 10  1  0
  2  6  1  0
  3 11  1  0
  3  9  1  0
  4  8  1  0
  4  6  1  0
  4 12  1  0
  4 13  1  0
  5 11  1  0
  5  7  1  0
  5 14  1  0
  5 15  1  0
  6 16  1  0
  6 17  1  0
  7 18  1  0
  7 19  1  0
  8 20  1  0
  8 21  1  0
  8 22  1  0
  9 23  1  0
  9 24  1  0
 10 25  1  0
 10 26  1  0
 10 27  1  0
 11 28  1  0
M  RAD  1  11   2
M  END
>  <reaction>  (17) 
rmg_rxn_665

>  <mol_properties>  (17) 
{"1": {"label": "*3", "atom_type": "Cs"}, "2": {"label": "*4", "atom_type": "O2s"}, "8": {"label": "*2", "atom_type": "H0"}, "14": {"label": "*1", "atom_type": "Cs"}, "15": {"label": "*0", "atom_type": "O2s"}}

>  <type>  (17) 
unop_13

>  <geom_source>  (17) 
AutoTST

$$$$

     RDKit          3D

 28 27  0  0  0  0  0  0  0  0999 V2000
    0.3850    1.2452   -0.8841 C   0  0  0  0  0  0  0  0  0  0  0  0
    0.3850    1.2452    0.6380 C   0  0  0  0  0  0  0  0  0  0  0  0
   -0.6633    2.0578    1.1301 O   0  0  0  0  0  0  0  0  0  0  0  0
   -0.5724    3.3574    0.6308 C   0  0  0  0  0  0  0  0  0  0  0  0
   -0.6633    3.4136   -0.7603 O   0  0  0  0  0  0  0  0  0  0  0  0
    0.3850    2.6869   -1.3722 C   0  0  0  0  0  0  0  0  0  0  0  0
    1.2590    0.7128   -1.2659 H   0  0  0  0  0  0  0  0  0  0  0  0
   -0.5116    0.7391   -1.2471 H   0  0  0  0  0  0  0  0  0  0  0  0
    0.1943    0.0482    1.1268 H   0  0  0  0  0  0  0  0  0  0  0  0
    1.3486    1.6212    1.0147 H   0  0  0  0  0  0  0  0  0  0  0  0
    0.3830    3.8095    0.9550 H   0  0  0  0  0  0  0  0  0  0  0  0
   -1.4134    3.9179    1.0328 H   0  0  0  0  0  0  0  0  0  0  0  0
    1.3486    3.1643   -1.1369 H   0  0  0  0  0  0  0  0  0  0  0  0
    0.2261    2.7528   -2.4476 H   0  0  0  0  0  0  0  0  0  0  0  0
    0.0019   -1.1592    1.6198 C   0  0  0  0  0  3  0  0  0  0  0  0
    0.5033   -2.1483    0.7664 O   0  0  0  0  0  0  0  0  0  0  0  0
   -0.3457   -2.4125   -0.3228 C   0  0  0  0  0  0  0  0  0  0  0  0
    0.2522   -3.5169   -1.1699 C   0  0  0  0  0  0  0  0  0  0  0  0
    0.3691   -4.8430   -0.4301 C   0  0  0  0  0  0  0  0  0  0  0  0
    0.7216   -1.0219    2.4258 H   0  0  0  0  0  0  0  0  0  0  0  0
   -0.9647   -1.4521    2.0517 H   0  0  0  0  0  0  0  0  0  0  0  0
   -0.4788   -1.5004   -0.9231 H   0  0  0  0  0  0  0  0  0  0  0  0
   -1.3408   -2.7122    0.0429 H   0  0  0  0  0  0  0  0  0  0  0  0
    1.2364   -3.1930   -1.5180 H   0  0  0  0  0  0  0  0  0  0  0  0
   -0.3747   -3.6355   -2.0580 H   0  0  0  0  0  0  0  0  0  0  0  0
    0.7983   -5.6137   -1.0719 H   0  0  0  0  0  0  0  0  0  0  0  0
    1.0038   -4.7398    0.4499 H   0  0  0  0  0  0  0  0  0  0  0  0
   -0.6119   -5.1916   -0.0978 H   0  0  0  0  0  0  0  0  0  0  0  0
  1  2  1  0
  1  6  1  0
  1  7  1  0
  1  8  1  0
  2  3  1  0
  2  9  1  0
  2 10  1  0
  3  4  1  0
  4  5  1  0
  4 11  1  0
  4 12  1  0
  5  6  1  0
  6 13  1  0
  6 14  1  0
 15 16  1  0
 15 20  1  0
 15 21  1  0
 16 17  1  0
 17 18  1  0
 17 22  1  0
 17 23  1  0
 18 19  1  0
 18 24  1  0
 18 25  1  0
 19 26  1  0
 19 27  1  0
 19 28  1  0
M  RAD  1  15   2
M  END
>  <reaction>  (18) 
rmg_rxn_665

>  <mol_properties>  (18) 
{"1": {"label": "*3", "atom_type": "Cs"}, "2": {"label": "*4", "atom_type": "O2s"}, "8": {"label": "*2", "atom_type": "H0"}, "14": {"label": "*1", "atom_type": "Cs"}, "15": {"label": "*0", "atom_type": "O2s"}}

>  <type>  (18) 
unop_14

>  <geom_source>  (18) 
gaussian_log

$$$$
