
     RDKit          3D

 18 17  0  0  0  0  0  0  0  0999 V2000
    2.2026   -0.7213   -0.2612 C   0  0  0  0  0  0  0  0  0  0  0  0
    1.5384    0.2638    0.6915 C   0  0  0  0  0  0  0  0  0  0  0  0
    2.2584    1.5946    0.7694 C   0  0  0  0  0  0  0  0  0  0  0  0
    2.2212    2.2185   -0.4893 O   0  0  0  0  0  0  0  0  0  0  0  0
    2.8988    3.4488   -0.5204 C   0  0  0  0  0  0  0  0  0  0  0  0
    2.7981    4.0296   -1.9118 C   0  0  0  0  0  0  0  0  0  0  0  0
    3.2294   -0.9309    0.0486 H   0  0  0  0  0  0  0  0  0  0  0  0
    2.2338   -0.3181   -1.2734 H   0  0  0  0  0  0  0  0  0  0  0  0
    1.6610   -1.6680   -0.2875 H   0  0  0  0  0  0  0  0  0  0  0  0
    1.4990   -0.1566    1.7002 H   0  0  0  0  0  0  0  0  0  0  0  0
    0.5055    0.4455    0.3835 H   0  0  0  0  0  0  0  0  0  0  0  0
    3.3038    1.4410    1.0808 H   0  0  0  0  0  0  0  0  0  0  0  0
    1.7844    2.2410    1.5226 H   0  0  0  0  0  0  0  0  0  0  0  0
    2.4596    4.1376    0.2164 H   0  0  0  0  0  0  0  0  0  0  0  0
    3.9524    3.3035   -0.2397 H   0  0  0  0  0  0  0  0  0  0  0  0
    1.7543    4.1869   -2.1856 H   0  0  0  0  0  0  0  0  0  0  0  0
    3.2472    3.3545   -2.6411 H   0  0  0  0  0  0  0  0  0  0  0  0
    3.3178    4.9878   -1.9600 H   0  0  0  0  0  0  0  0  0  0  0  0
  1  2  1  0
  1  7  1  0
  1  8  1  0
  1  9  1  0
  2  3  1  0
  2 10  1  0
  2 11  1  0
  3  4  1  0
  3 12  1  0
  3 13  1  0
  4  5  1  0
  5  6  1  0
  5 14  1  0
  5 15  1  0
  6 16  1  0
  6 17  1  0
  6 18  1  0
M  END
>  <reaction>  (1) 
rmg_rxn_336

>  <mol_properties>  (1) 
{"2": {"label": "donator", "atom_type": "Cs"}, "11": {"label": "d_hydrogen", "atom_type": "H0"}}

>  <type>  (1) 
r1h

$$$$

     RDKit          3D

  8  7  0  0  0  0  0  0  0  0999 V2000
   -1.0336    0.3440   -0.0356 C   0  0  0  0  0  3  0  0  0  0  0  0
    0.1991   -0.4326   -0.0698 C   0  0  0  0  0  0  0  0  0  0  0  0
    0.9631   -0.0368    1.2269 N   0  0  0  0  0  0  0  0  0  0  0  0
    0.8138   -0.8074    2.1160 O   0  0  0  0  0  0  0  0  0  0  0  0
   -1.0668    1.3490   -0.4321 H   0  0  0  0  0  0  0  0  0  0  0  0
   -1.8598    0.0102    0.5774 H   0  0  0  0  0  0  0  0  0  0  0  0
    0.0447   -1.5108   -0.0264 H   0  0  0  0  0  0  0  0  0  0  0  0
    0.8639   -0.1518   -0.8851 H   0  0  0  0  0  0  0  0  0  0  0  0
  1  2  1  0
  1  5  1  0
  1  6  1  0
  2  3  1  0
  2  7  1  0
  2  8  1  0
  3  4  2  0
M  RAD  1   1   2
M  END
>  <reaction>  (2) 
rmg_rxn_336

>  <mol_properties>  (2) 
{"0": {"label": "acceptor", "atom_type": "Cs"}}

>  <type>  (2) 
r2

$$$$

     RDKit          3D

  9  8  0  0  0  0  0  0  0  0999 V2000
   -1.0314    0.2323   -0.1227 C   0  0  0  0  0  0  0  0  0  0  0  0
    0.3094   -0.4511    0.0063 C   0  0  0  0  0  0  0  0  0  0  0  0
    0.3197   -1.7698    0.6841 N   0  0  0  0  0  0  0  0  0  0  0  0
   -0.7498   -2.1455    1.0557 O   0  0  0  0  0  0  0  0  0  0  0  0
   -1.4744    0.4198    0.8552 H   0  0  0  0  0  0  0  0  0  0  0  0
   -0.9073    1.1865   -0.6350 H   0  0  0  0  0  0  0  0  0  0  0  0
   -1.7319   -0.3778   -0.6927 H   0  0  0  0  0  0  0  0  0  0  0  0
    1.0375    0.1401    0.5713 H   0  0  0  0  0  0  0  0  0  0  0  0
    0.7826   -0.6494   -0.9609 H   0  0  0  0  0  0  0  0  0  0  0  0
  1  2  1  0
  1  5  1  0
  1  6  1  0
  1  7  1  0
  2  3  1  0
  2  8  1  0
  2  9  1  0
  3  4  2  0
M  END
>  <reaction>  (3) 
rmg_rxn_336

>  <mol_properties>  (3) 
{"0": {"label": "acceptor", "atom_type": "Cs"}, "8": {"label": "a_hydrogen", "atom_type": "H0"}}

>  <type>  (3) 
r2h

$$$$

     RDKit          3D

 26 24  0  0  0  0  0  0  0  0999 V2000
    1.7278   -0.2117    0.2108 C   0  0  0  0  0  3  0  0  0  0  0  0
    1.3604    0.8109   -0.8124 C   0  0  0  0  0  0  0  0  0  0  0  0
    0.8857    2.1281   -0.3317 N   0  0  0  0  0  0  0  0  0  0  0  0
    0.9232    2.2798    0.8522 O   0  0  0  0  0  0  0  0  0  0  0  0
    2.3075   -1.0401   -0.1877 H   0  0  0  0  0  0  0  0  0  0  0  0
    2.1320    0.1833    1.1378 H   0  0  0  0  0  0  0  0  0  0  0  0
    2.1909    1.0830   -1.4791 H   0  0  0  0  0  0  0  0  0  0  0  0
    0.5589    0.4783   -1.4827 H   0  0  0  0  0  0  0  0  0  0  0  0
   -0.4707   -2.3569   -1.6257 C   0  0  0  0  0  0  0  0  0  0  0  0
   -0.6901   -2.6292   -0.1421 C   0  0  0  0  0  0  0  0  0  0  0  0
   -0.6645   -1.3914    0.7167 C   0  0  0  0  0  0  0  0  0  0  0  0
   -1.5932   -0.4580    0.3004 O   0  0  0  0  0  0  0  0  0  0  0  0
   -1.8942    0.5344    1.2658 C   0  0  0  0  0  0  0  0  0  0  0  0
   -2.6676    1.6448    0.5981 C   0  0  0  0  0  0  0  0  0  0  0  0
    0.5194   -1.9337   -1.8060 H   0  0  0  0  0  0  0  0  0  0  0  0
   -1.2141   -1.6556   -2.0053 H   0  0  0  0  0  0  0  0  0  0  0  0
   -0.5473   -3.2785   -2.2037 H   0  0  0  0  0  0  0  0  0  0  0  0
    0.0786   -3.3103    0.2329 H   0  0  0  0  0  0  0  0  0  0  0  0
   -1.6525   -3.1331   -0.0012 H   0  0  0  0  0  0  0  0  0  0  0  0
    0.5094   -0.8510    0.5822 H   0  0  0  0  0  0  0  0  0  0  0  0
   -0.7416   -1.6101    1.7885 H   0  0  0  0  0  0  0  0  0  0  0  0
   -2.4787    0.0794    2.0761 H   0  0  0  0  0  0  0  0  0  0  0  0
   -0.9656    0.9195    1.7005 H   0  0  0  0  0  0  0  0  0  0  0  0
   -3.5792    1.2578    0.1411 H   0  0  0  0  0  0  0  0  0  0  0  0
   -2.0639    2.1205   -0.1759 H   0  0  0  0  0  0  0  0  0  0  0  0
   -2.9414    2.4030    1.3329 H   0  0  0  0  0  0  0  0  0  0  0  0
  1  2  1  0
  1  5  1  0
  1  6  1  0
  2  3  1  0
  2  7  1  0
  2  8  1  0
  3  4  2  0
  9 10  1  0
  9 15  1  0
  9 16  1  0
  9 17  1  0
 10 11  1  0
 10 18  1  0
 10 19  1  0
 11 12  1  0
 11 20  1  0
 11 21  1  0
 12 13  1  0
 13 14  1  0
 13 22  1  0
 13 23  1  0
 14 24  1  0
 14 25  1  0
 14 26  1  0
M  RAD  1   1   2
M  END
>  <reaction>  (4) 
rmg_rxn_336

>  <mol_properties>  (4) 
{"0": {"label": "*3", "atom_type": "Cs"}, "1": {"label": "*4", "atom_type": "Cs"}, "10": {"label": "*1", "atom_type": "Cs"}, "11": {"label": "*0", "atom_type": "O2s"}, "19": {"label": "*2", "atom_type": "H0"}}

>  <type>  (4) 
ts

$$$$

     RDKit          3D

 26 24  0  0  0  0  0  0  0  0999 V2000
    1.6402   -0.0563   -0.0856 C   0  0  0  0  0  0  0  0  0  0  0  0
    1.1763    1.1759   -0.8258 C   0  0  0  0  0  0  0  0  0  0  0  0
    1.9651    2.4134   -0.6143 N   0  0  0  0  0  0  0  0  0  0  0  0
    2.8906    2.2916    0.1284 O   0  0  0  0  0  0  0  0  0  0  0  0
    2.6583   -0.3252   -0.3663 H   0  0  0  0  0  0  0  0  0  0  0  0
    1.6241    0.1018    0.9926 H   0  0  0  0  0  0  0  0  0  0  0  0
    1.1771    1.0467   -1.9131 H   0  0  0  0  0  0  0  0  0  0  0  0
    0.1534    1.4693   -0.5680 H   0  0  0  0  0  0  0  0  0  0  0  0
   -0.4470   -2.7986   -1.3435 C   0  0  0  0  0  0  0  0  0  0  0  0
   -0.4470   -2.7986    0.1794 C   0  0  0  0  0  0  0  0  0  0  0  0
   -0.4470   -1.4055    0.7749 C   0  0  0  0  0  3  0  0  0  0  0  0
   -1.6300   -0.7419    0.4073 O   0  0  0  0  0  0  0  0  0  0  0  0
   -1.7007    0.5762    0.8882 C   0  0  0  0  0  0  0  0  0  0  0  0
   -3.0041    1.1940    0.4374 C   0  0  0  0  0  0  0  0  0  0  0  0
    0.4351   -2.2842   -1.7332 H   0  0  0  0  0  0  0  0  0  0  0  0
   -1.3297   -2.2889   -1.7296 H   0  0  0  0  0  0  0  0  0  0  0  0
   -0.4415   -3.8164   -1.7362 H   0  0  0  0  0  0  0  0  0  0  0  0
    0.4345   -3.3250    0.5556 H   0  0  0  0  0  0  0  0  0  0  0  0
   -1.3214   -3.3365    0.5546 H   0  0  0  0  0  0  0  0  0  0  0  0
    0.6020   -0.7274    0.3424 H   0  0  0  0  0  0  0  0  0  0  0  0
   -0.3722   -1.4594    1.8709 H   0  0  0  0  0  0  0  0  0  0  0  0
   -1.6335    0.5790    1.9863 H   0  0  0  0  0  0  0  0  0  0  0  0
   -0.8479    1.1591    0.5103 H   0  0  0  0  0  0  0  0  0  0  0  0
   -3.8504    0.6245    0.8230 H   0  0  0  0  0  0  0  0  0  0  0  0
   -3.0649    1.2058   -0.6515 H   0  0  0  0  0  0  0  0  0  0  0  0
   -3.0817    2.2200    0.8004 H   0  0  0  0  0  0  0  0  0  0  0  0
  1  2  1  0
  1  5  1  0
  1  6  1  0
  1 20  1  0
  2  3  1  0
  2  7  1  0
  2  8  1  0
  3  4  2  0
  9 10  1  0
  9 15  1  0
  9 16  1  0
  9 17  1  0
 10 11  1  0
 10 18  1  0
 10 19  1  0
 11 12  1  0
 11 21  1  0
 12 13  1  0
 13 14  1  0
 13 22  1  0
 13 23  1  0
 14 24  1  0
 14 25  1  0
 14 26  1  0
M  RAD  1  11   2
M  END
>  <reaction>  (5) 
rmg_rxn_336

>  <mol_properties>  (5) 
{"0": {"label": "*3", "atom_type": "Cs"}, "1": {"label": "*4", "atom_type": "Cs"}, "10": {"label": "*1", "atom_type": "Cs"}, "11": {"label": "*0", "atom_type": "O2s"}, "19": {"label": "*2", "atom_type": "H0"}}

>  <type>  (5) 
unop_1

>  <geom_source>  (5) 
Heuristics

$$$$

     RDKit          3D

 26 24  0  0  0  0  0  0  0  0999 V2000
    1.4392    0.4045    0.3371 C   0  0  0  0  0  0  0  0  0  0  0  0
    1.8175   -0.0751   -1.0443 C   0  0  0  0  0  0  0  0  0  0  0  0
    2.6810    0.8250   -1.8460 N   0  0  0  0  0  0  0  0  0  0  0  0
    2.9826    1.8412   -1.2987 O   0  0  0  0  0  0  0  0  0  0  0  0
    2.3227    0.5639    0.9550 H   0  0  0  0  0  0  0  0  0  0  0  0
    0.8919    1.3458    0.2918 H   0  0  0  0  0  0  0  0  0  0  0  0
    2.3658   -1.0227   -1.0322 H   0  0  0  0  0  0  0  0  0  0  0  0
    0.9495   -0.2488   -1.6887 H   0  0  0  0  0  0  0  0  0  0  0  0
   -0.6480   -2.3377   -0.9208 C   0  0  0  0  0  0  0  0  0  0  0  0
   -0.6480   -2.3377    0.6021 C   0  0  0  0  0  0  0  0  0  0  0  0
   -0.6480   -0.9447    1.1976 C   0  0  0  0  0  3  0  0  0  0  0  0
   -1.8310   -0.2811    0.8300 O   0  0  0  0  0  0  0  0  0  0  0  0
   -1.9017    1.0370    1.3109 C   0  0  0  0  0  0  0  0  0  0  0  0
   -3.2050    1.6548    0.8601 C   0  0  0  0  0  0  0  0  0  0  0  0
    0.2341   -1.8234   -1.3104 H   0  0  0  0  0  0  0  0  0  0  0  0
   -1.5307   -1.8280   -1.3069 H   0  0  0  0  0  0  0  0  0  0  0  0
   -0.6425   -3.3556   -1.3135 H   0  0  0  0  0  0  0  0  0  0  0  0
    0.2335   -2.8642    0.9784 H   0  0  0  0  0  0  0  0  0  0  0  0
   -1.5224   -2.8757    0.9774 H   0  0  0  0  0  0  0  0  0  0  0  0
    0.4010   -0.2665    0.7651 H   0  0  0  0  0  0  0  0  0  0  0  0
   -0.5732   -0.9986    2.2937 H   0  0  0  0  0  0  0  0  0  0  0  0
   -1.8345    1.0399    2.4090 H   0  0  0  0  0  0  0  0  0  0  0  0
   -1.0488    1.6200    0.9330 H   0  0  0  0  0  0  0  0  0  0  0  0
   -4.0514    1.0854    1.2458 H   0  0  0  0  0  0  0  0  0  0  0  0
   -3.2658    1.6666   -0.2287 H   0  0  0  0  0  0  0  0  0  0  0  0
   -3.2826    2.6808    1.2231 H   0  0  0  0  0  0  0  0  0  0  0  0
  1  2  1  0
  1  5  1  0
  1  6  1  0
  1 20  1  0
  2  3  1  0
  2  7  1  0
  2  8  1  0
  3  4  2  0
  9 10  1  0
  9 15  1  0
  9 16  1  0
  9 17  1  0
 10 11  1  0
 10 18  1  0
 10 19  1  0
 11 12  1  0
 11 21  1  0
 12 13  1  0
 13 14  1  0
 13 22  1  0
 13 23  1  0
 14 24  1  0
 14 25  1  0
 14 26  1  0
M  RAD  1  11   2
M  END
>  <reaction>  (6) 
rmg_rxn_336

>  <mol_properties>  (6) 
{"0": {"label": "*3", "atom_type": "Cs"}, "1": {"label": "*4", "atom_type": "Cs"}, "10": {"label": "*1", "atom_type": "Cs"}, "11": {"label": "*0", "atom_type": "O2s"}, "19": {"label": "*2", "atom_type": "H0"}}

>  <type>  (6) 
unop_2

>  <geom_source>  (6) 
Heuristics

$$$$

     RDKit          3D

 26 24  0  0  0  0  0  0  0  0999 V2000
    1.5169   -0.0251   -0.2200 C   0  0  0  0  0  0  0  0  0  0  0  0
    1.1806    1.4464   -0.2754 C   0  0  0  0  0  0  0  0  0  0  0  0
    2.3100    2.3921   -0.1059 N   0  0  0  0  0  0  0  0  0  0  0  0
    3.3718    1.8734    0.0574 O   0  0  0  0  0  0  0  0  0  0  0  0
    2.2260   -0.2973   -1.0015 H   0  0  0  0  0  0  0  0  0  0  0  0
    1.9608   -0.2925    0.7386 H   0  0  0  0  0  0  0  0  0  0  0  0
    0.7281    1.7457   -1.2264 H   0  0  0  0  0  0  0  0  0  0  0  0
    0.4656    1.7505    0.4961 H   0  0  0  0  0  0  0  0  0  0  0  0
   -0.5703   -2.7673   -1.4780 C   0  0  0  0  0  0  0  0  0  0  0  0
   -0.5703   -2.7673    0.0449 C   0  0  0  0  0  0  0  0  0  0  0  0
   -0.5703   -1.3743    0.6404 C   0  0  0  0  0  3  0  0  0  0  0  0
   -1.7533   -0.7107    0.2728 O   0  0  0  0  0  0  0  0  0  0  0  0
   -1.8241    0.6074    0.7537 C   0  0  0  0  0  0  0  0  0  0  0  0
   -3.1274    1.2252    0.3029 C   0  0  0  0  0  0  0  0  0  0  0  0
    0.3117   -2.2530   -1.8676 H   0  0  0  0  0  0  0  0  0  0  0  0
   -1.4531   -2.2577   -1.8641 H   0  0  0  0  0  0  0  0  0  0  0  0
   -0.5649   -3.7852   -1.8707 H   0  0  0  0  0  0  0  0  0  0  0  0
    0.3112   -3.2938    0.4212 H   0  0  0  0  0  0  0  0  0  0  0  0
   -1.4447   -3.3053    0.4202 H   0  0  0  0  0  0  0  0  0  0  0  0
    0.4787   -0.6962    0.2080 H   0  0  0  0  0  0  0  0  0  0  0  0
   -0.4956   -1.4282    1.7365 H   0  0  0  0  0  0  0  0  0  0  0  0
   -1.7568    0.6102    1.8518 H   0  0  0  0  0  0  0  0  0  0  0  0
   -0.9712    1.1904    0.3758 H   0  0  0  0  0  0  0  0  0  0  0  0
   -3.9737    0.6558    0.6886 H   0  0  0  0  0  0  0  0  0  0  0  0
   -3.1882    1.2370   -0.7859 H   0  0  0  0  0  0  0  0  0  0  0  0
   -3.2050    2.2512    0.6659 H   0  0  0  0  0  0  0  0  0  0  0  0
  1  2  1  0
  1  5  1  0
  1  6  1  0
  1 20  1  0
  2  3  1  0
  2  7  1  0
  2  8  1  0
  3  4  2  0
  9 10  1  0
  9 15  1  0
  9 16  1  0
  9 17  1  0
 10 11  1  0
 10 18  1  0
 10 19  1  0
 11 12  1  0
 11 21  1  0
 12 13  1  0
 13 14  1  0
 13 22  1  0
 13 23  1  0
 14 24  1  0
 14 25  1  0
 14 26  1  0
M  RAD  1  11   2
M  END
>  <reaction>  (7) 
rmg_rxn_336

>  <mol_properties>  (7) 
{"0": {"label": "*3", "atom_type": "Cs"}, "1": {"label": "*4", "atom_type": "Cs"}, "10": {"label": "*1", "atom_type": "Cs"}, "11": {"label": "*0", "atom_type": "O2s"}, "19": {"label": "*2", "atom_type": "H0"}}

>  <type>  (7) 
unop_3

>  <geom_source>  (7) 
Heuristics

$$$$

     RDKit          3D

 26 24  0  0  0  0  0  0  0  0999 V2000
    1.1596    0.4679   -0.3491 C   0  0  0  0  0  0  0  0  0  0  0  0
    2.4269   -0.2451    0.0600 C   0  0  0  0  0  0  0  0  0  0  0  0
    3.6084    0.6073    0.3354 N   0  0  0  0  0  0  0  0  0  0  0  0
    3.4192    1.7773    0.2000 O   0  0  0  0  0  0  0  0  0  0  0  0
    0.8282    1.1591    0.4255 H   0  0  0  0  0  0  0  0  0  0  0  0
    1.3073    1.0410   -1.2642 H   0  0  0  0  0  0  0  0  0  0  0  0
    2.3091   -0.8342    0.9753 H   0  0  0  0  0  0  0  0  0  0  0  0
    2.7833   -0.9511   -0.6973 H   0  0  0  0  0  0  0  0  0  0  0  0
   -0.9276   -2.2744   -1.6071 C   0  0  0  0  0  0  0  0  0  0  0  0
   -0.9276   -2.2744   -0.0842 C   0  0  0  0  0  0  0  0  0  0  0  0
   -0.9276   -0.8813    0.5113 C   0  0  0  0  0  3  0  0  0  0  0  0
   -2.1106   -0.2177    0.1437 O   0  0  0  0  0  0  0  0  0  0  0  0
   -2.1813    1.1003    0.6246 C   0  0  0  0  0  0  0  0  0  0  0  0
   -3.4846    1.7181    0.1738 C   0  0  0  0  0  0  0  0  0  0  0  0
   -0.0455   -1.7601   -1.9967 H   0  0  0  0  0  0  0  0  0  0  0  0
   -1.8103   -1.7647   -1.9932 H   0  0  0  0  0  0  0  0  0  0  0  0
   -0.9221   -3.2923   -1.9998 H   0  0  0  0  0  0  0  0  0  0  0  0
   -0.0461   -2.8009    0.2921 H   0  0  0  0  0  0  0  0  0  0  0  0
   -1.8020   -2.8124    0.2911 H   0  0  0  0  0  0  0  0  0  0  0  0
    0.1214   -0.2032    0.0789 H   0  0  0  0  0  0  0  0  0  0  0  0
   -0.8528   -0.9353    1.6074 H   0  0  0  0  0  0  0  0  0  0  0  0
   -2.1141    1.1032    1.7227 H   0  0  0  0  0  0  0  0  0  0  0  0
   -1.3285    1.6833    0.2467 H   0  0  0  0  0  0  0  0  0  0  0  0
   -4.3310    1.1487    0.5595 H   0  0  0  0  0  0  0  0  0  0  0  0
   -3.5454    1.7300   -0.9150 H   0  0  0  0  0  0  0  0  0  0  0  0
   -3.5623    2.7441    0.5368 H   0  0  0  0  0  0  0  0  0  0  0  0
  1  2  1  0
  1  5  1  0
  1  6  1  0
  1 20  1  0
  2  3  1  0
  2  7  1  0
  2  8  1  0
  3  4  2  0
  9 10  1  0
  9 15  1  0
  9 16  1  0
  9 17  1  0
 10 11  1  0
 10 18  1  0
 10 19  1  0
 11 12  1  0
 11 21  1  0
 12 13  1  0
 13 14  1  0
 13 22  1  0
 13 23  1  0
 14 24  1  0
 14 25  1  0
 14 26  1  0
M  RAD  1  11   2
M  END
>  <reaction>  (8) 
rmg_rxn_336

>  <mol_properties>  (8) 
{"0": {"label": "*3", "atom_type": "Cs"}, "1": {"label": "*4", "atom_type": "Cs"}, "10": {"label": "*1", "atom_type": "Cs"}, "11": {"label": "*0", "atom_type": "O2s"}, "19": {"label": "*2", "atom_type": "H0"}}

>  <type>  (8) 
unop_4

>  <geom_source>  (8) 
Heuristics

$$$$

     RDKit          3D

 26 24  0  0  0  0  0  0  0  0999 V2000
    1.4513    0.0065   -0.2039 C   0  0  0  0  0  0  0  0  0  0  0  0
    1.4404    1.3927    0.3962 C   0  0  0  0  0  0  0  0  0  0  0  0
    2.5559    2.2908    0.0120 N   0  0  0  0  0  0  0  0  0  0  0  0
    3.3466    1.8074   -0.7391 O   0  0  0  0  0  0  0  0  0  0  0  0
    1.4120    0.0475   -1.2922 H   0  0  0  0  0  0  0  0  0  0  0  0
    2.3536   -0.5371    0.0753 H   0  0  0  0  0  0  0  0  0  0  0  0
    0.5427    1.9633    0.1369 H   0  0  0  0  0  0  0  0  0  0  0  0
    1.4748    1.3847    1.4905 H   0  0  0  0  0  0  0  0  0  0  0  0
   -0.6359   -2.7357   -1.4619 C   0  0  0  0  0  0  0  0  0  0  0  0
   -0.6359   -2.7357    0.0610 C   0  0  0  0  0  0  0  0  0  0  0  0
   -0.6359   -1.3427    0.6566 C   0  0  0  0  0  3  0  0  0  0  0  0
   -1.8189   -0.6791    0.2890 O   0  0  0  0  0  0  0  0  0  0  0  0
   -1.8896    0.6390    0.7699 C   0  0  0  0  0  0  0  0  0  0  0  0
   -3.1930    1.2568    0.3190 C   0  0  0  0  0  0  0  0  0  0  0  0
    0.2461   -2.2214   -1.8515 H   0  0  0  0  0  0  0  0  0  0  0  0
   -1.5186   -2.2260   -1.8479 H   0  0  0  0  0  0  0  0  0  0  0  0
   -0.6304   -3.7536   -1.8545 H   0  0  0  0  0  0  0  0  0  0  0  0
    0.2456   -3.2622    0.4373 H   0  0  0  0  0  0  0  0  0  0  0  0
   -1.5103   -3.2737    0.4363 H   0  0  0  0  0  0  0  0  0  0  0  0
    0.4131   -0.6646    0.2241 H   0  0  0  0  0  0  0  0  0  0  0  0
   -0.5611   -1.3966    1.7526 H   0  0  0  0  0  0  0  0  0  0  0  0
   -1.8224    0.6419    1.8679 H   0  0  0  0  0  0  0  0  0  0  0  0
   -1.0368    1.2220    0.3920 H   0  0  0  0  0  0  0  0  0  0  0  0
   -4.0393    0.6874    0.7047 H   0  0  0  0  0  0  0  0  0  0  0  0
   -3.2538    1.2686   -0.7698 H   0  0  0  0  0  0  0  0  0  0  0  0
   -3.2706    2.2828    0.6821 H   0  0  0  0  0  0  0  0  0  0  0  0
  1  2  1  0
  1  5  1  0
  1  6  1  0
  1 20  1  0
  2  3  1  0
  2  7  1  0
  2  8  1  0
  3  4  2  0
  9 10  1  0
  9 15  1  0
  9 16  1  0
  9 17  1  0
 10 11  1  0
 10 18  1  0
 10 19  1  0
 11 12  1  0
 11 21  1  0
 12 13  1  0
 13 14  1  0
 13 22  1  0
 13 23  1  0
 14 24  1  0
 14 25  1  0
 14 26  1  0
M  RAD  1  11   2
M  END
>  <reaction>  (9) 
rmg_rxn_336

>  <mol_properties>  (9) 
{"0": {"label": "*3", "atom_type": "Cs"}, "1": {"label": "*4", "atom_type": "Cs"}, "10": {"label": "*1", "atom_type": "Cs"}, "11": {"label": "*0", "atom_type": "O2s"}, "19": {"label": "*2", "atom_type": "H0"}}

>  <type>  (9) 
unop_5

>  <geom_source>  (9) 
Heuristics

$$$$

     RDKit          3D

 26 24  0  0  0  0  0  0  0  0999 V2000
    1.2743    0.2687   -0.4630 C   0  0  0  0  0  0  0  0  0  0  0  0
    2.4372    0.0557    0.4771 C   0  0  0  0  0  0  0  0  0  0  0  0
    3.2913    1.2356    0.7540 N   0  0  0  0  0  0  0  0  0  0  0  0
    2.9563    2.2338    0.1933 O   0  0  0  0  0  0  0  0  0  0  0  0
    0.5885    1.0229   -0.0776 H   0  0  0  0  0  0  0  0  0  0  0  0
    1.6152    0.6003   -1.4435 H   0  0  0  0  0  0  0  0  0  0  0  0
    2.1266   -0.2827    1.4710 H   0  0  0  0  0  0  0  0  0  0  0  0
    3.1429   -0.7010    0.1189 H   0  0  0  0  0  0  0  0  0  0  0  0
   -0.8130   -2.4736   -1.7209 C   0  0  0  0  0  0  0  0  0  0  0  0
   -0.8130   -2.4736   -0.1980 C   0  0  0  0  0  0  0  0  0  0  0  0
   -0.8130   -1.0805    0.3975 C   0  0  0  0  0  3  0  0  0  0  0  0
   -1.9960   -0.4169    0.0299 O   0  0  0  0  0  0  0  0  0  0  0  0
   -2.0667    0.9011    0.5108 C   0  0  0  0  0  0  0  0  0  0  0  0
   -3.3700    1.5189    0.0600 C   0  0  0  0  0  0  0  0  0  0  0  0
    0.0691   -1.9593   -2.1106 H   0  0  0  0  0  0  0  0  0  0  0  0
   -1.6957   -1.9639   -2.1070 H   0  0  0  0  0  0  0  0  0  0  0  0
   -0.8075   -3.4914   -2.1136 H   0  0  0  0  0  0  0  0  0  0  0  0
    0.0685   -3.0000    0.1782 H   0  0  0  0  0  0  0  0  0  0  0  0
   -1.6874   -3.0115    0.1772 H   0  0  0  0  0  0  0  0  0  0  0  0
    0.2361   -0.4024   -0.0350 H   0  0  0  0  0  0  0  0  0  0  0  0
   -0.7382   -1.1344    1.4935 H   0  0  0  0  0  0  0  0  0  0  0  0
   -1.9994    0.9040    1.6089 H   0  0  0  0  0  0  0  0  0  0  0  0
   -1.2138    1.4841    0.1329 H   0  0  0  0  0  0  0  0  0  0  0  0
   -4.2164    0.9495    0.4456 H   0  0  0  0  0  0  0  0  0  0  0  0
   -3.4308    1.5308   -1.0289 H   0  0  0  0  0  0  0  0  0  0  0  0
   -3.4476    2.5449    0.4230 H   0  0  0  0  0  0  0  0  0  0  0  0
  1  2  1  0
  1  5  1  0
  1  6  1  0
  1 20  1  0
  2  3  1  0
  2  7  1  0
  2  8  1  0
  3  4  2  0
  9 10  1  0
  9 15  1  0
  9 16  1  0
  9 17  1  0
 10 11  1  0
 10 18  1  0
 10 19  1  0
 11 12  1  0
 11 21  1  0
 12 13  1  0
 13 14  1  0
 13 22  1  0
 13 23  1  0
 14 24  1  0
 14 25  1  0
 14 26  1  0
M  RAD  1  11   2
M  END
>  <reaction>  (10) 
rmg_rxn_336

>  <mol_properties>  (10) 
{"0": {"label": "*3", "atom_type": "Cs"}, "1": {"label": "*4", "atom_type": "Cs"}, "10": {"label": "*1", "atom_type": "Cs"}, "11": {"label": "*0", "atom_type": "O2s"}, "19": {"label": "*2", "atom_type": "H0"}}

>  <type>  (10) 
unop_6

>  <geom_source>  (10) 
Heuristics

$$$$

     RDKit          3D

 26 24  0  0  0  0  0  0  0  0999 V2000
    1.4114    0.0857   -0.4178 C   0  0  0  0  0  0  0  0  0  0  0  0
    2.2661    0.4993    0.7569 C   0  0  0  0  0  0  0  0  0  0  0  0
    2.8674    1.8533    0.6960 N   0  0  0  0  0  0  0  0  0  0  0  0
    2.6026    2.4704   -0.2899 O   0  0  0  0  0  0  0  0  0  0  0  0
    0.5646    0.7596   -0.5461 H   0  0  0  0  0  0  0  0  0  0  0  0
    1.9846    0.0931   -1.3447 H   0  0  0  0  0  0  0  0  0  0  0  0
    1.7186    0.4976    1.7051 H   0  0  0  0  0  0  0  0  0  0  0  0
    3.1243   -0.1622    0.9146 H   0  0  0  0  0  0  0  0  0  0  0  0
   -0.6758   -2.6565   -1.6758 C   0  0  0  0  0  0  0  0  0  0  0  0
   -0.6758   -2.6565   -0.1529 C   0  0  0  0  0  0  0  0  0  0  0  0
   -0.6758   -1.2635    0.4426 C   0  0  0  0  0  3  0  0  0  0  0  0
   -1.8588   -0.5999    0.0750 O   0  0  0  0  0  0  0  0  0  0  0  0
   -1.9295    0.7182    0.5559 C   0  0  0  0  0  0  0  0  0  0  0  0
   -3.2328    1.3360    0.1051 C   0  0  0  0  0  0  0  0  0  0  0  0
    0.2063   -2.1422   -2.0654 H   0  0  0  0  0  0  0  0  0  0  0  0
   -1.5585   -2.1468   -2.0619 H   0  0  0  0  0  0  0  0  0  0  0  0
   -0.6703   -3.6744   -2.0685 H   0  0  0  0  0  0  0  0  0  0  0  0
    0.2057   -3.1830    0.2234 H   0  0  0  0  0  0  0  0  0  0  0  0
   -1.5502   -3.1945    0.2224 H   0  0  0  0  0  0  0  0  0  0  0  0
    0.3732   -0.5854    0.0102 H   0  0  0  0  0  0  0  0  0  0  0  0
   -0.6010   -1.3174    1.5387 H   0  0  0  0  0  0  0  0  0  0  0  0
   -1.8623    0.7211    1.6540 H   0  0  0  0  0  0  0  0  0  0  0  0
   -1.0767    1.3012    0.1780 H   0  0  0  0  0  0  0  0  0  0  0  0
   -4.0792    0.7666    0.4908 H   0  0  0  0  0  0  0  0  0  0  0  0
   -3.2936    1.3478   -0.9837 H   0  0  0  0  0  0  0  0  0  0  0  0
   -3.3105    2.3620    0.4681 H   0  0  0  0  0  0  0  0  0  0  0  0
  1  2  1  0
  1  5  1  0
  1  6  1  0
  1 20  1  0
  2  3  1  0
  2  7  1  0
  2  8  1  0
  3  4  2  0
  9 10  1  0
  9 15  1  0
  9 16  1  0
  9 17  1  0
 10 11  1  0
 10 18  1  0
 10 19  1  0
 11 12  1  0
 11 21  1  0
 12 13  1  0
 13 14  1  0
 13 22  1  0
 13 23  1  0
 14 24  1  0
 14 25  1  0
 14 26  1  0
M  RAD  1  11   2
M  END
>  <reaction>  (11) 
rmg_rxn_336

>  <mol_properties>  (11) 
{"0": {"label": "*3", "atom_type": "Cs"}, "1": {"label": "*4", "atom_type": "Cs"}, "10": {"label": "*1", "atom_type": "Cs"}, "11": {"label": "*0", "atom_type": "O2s"}, "19": {"label": "*2", "atom_type": "H0"}}

>  <type>  (11) 
unop_7

>  <geom_source>  (11) 
Heuristics

$$$$

     RDKit          3D

 26 24  0  0  0  0  0  0  0  0999 V2000
    1.6841    0.0143    0.1322 C   0  0  0  0  0  0  0  0  0  0  0  0
    1.3244    0.7465   -1.1390 C   0  0  0  0  0  0  0  0  0  0  0  0
    1.8787    2.1126   -1.2975 N   0  0  0  0  0  0  0  0  0  0  0  0
    2.5561    2.4823   -0.3877 O   0  0  0  0  0  0  0  0  0  0  0  0
    2.7627   -0.1121    0.2230 H   0  0  0  0  0  0  0  0  0  0  0  0
    1.3384    0.5573    1.0115 H   0  0  0  0  0  0  0  0  0  0  0  0
    1.6550    0.2227   -2.0419 H   0  0  0  0  0  0  0  0  0  0  0  0
    0.2452    0.8853   -1.2613 H   0  0  0  0  0  0  0  0  0  0  0  0
   -0.4032   -2.7280   -1.1258 C   0  0  0  0  0  0  0  0  0  0  0  0
   -0.4032   -2.7280    0.3971 C   0  0  0  0  0  0  0  0  0  0  0  0
   -0.4032   -1.3349    0.9926 C   0  0  0  0  0  3  0  0  0  0  0  0
   -1.5862   -0.6713    0.6250 O   0  0  0  0  0  0  0  0  0  0  0  0
   -1.6569    0.6467    1.1059 C   0  0  0  0  0  0  0  0  0  0  0  0
   -2.9602    1.2645    0.6551 C   0  0  0  0  0  0  0  0  0  0  0  0
    0.4789   -2.2137   -1.5154 H   0  0  0  0  0  0  0  0  0  0  0  0
   -1.2859   -2.2183   -1.5119 H   0  0  0  0  0  0  0  0  0  0  0  0
   -0.3977   -3.7459   -1.5184 H   0  0  0  0  0  0  0  0  0  0  0  0
    0.4784   -3.2545    0.7734 H   0  0  0  0  0  0  0  0  0  0  0  0
   -1.2775   -3.2660    0.7724 H   0  0  0  0  0  0  0  0  0  0  0  0
    0.6459   -0.6568    0.5602 H   0  0  0  0  0  0  0  0  0  0  0  0
   -0.3284   -1.3889    2.0887 H   0  0  0  0  0  0  0  0  0  0  0  0
   -1.5896    0.6496    2.2040 H   0  0  0  0  0  0  0  0  0  0  0  0
   -0.8040    1.2297    0.7281 H   0  0  0  0  0  0  0  0  0  0  0  0
   -3.8066    0.6951    1.0408 H   0  0  0  0  0  0  0  0  0  0  0  0
   -3.0210    1.2764   -0.4337 H   0  0  0  0  0  0  0  0  0  0  0  0
   -3.0378    2.2905    1.0182 H   0  0  0  0  0  0  0  0  0  0  0  0
  1  2  1  0
  1  5  1  0
  1  6  1  0
  1 20  1  0
  2  3  1  0
  2  7  1  0
  2  8  1  0
  3  4  2  0
  9 10  1  0
  9 15  1  0
  9 16  1  0
  9 17  1  0
 10 11  1  0
 10 18  1  0
 10 19  1  0
 11 12  1  0
 11 21  1  0
 12 13  1  0
 13 14  1  0
 13 22  1  0
 13 23  1  0
 14 24  1  0
 14 25  1  0
 14 26  1  0
M  RAD  1  11   2
M  END
>  <reaction>  (12) 
rmg_rxn_336

>  <mol_properties>  (12) 
{"0": {"label": "*3", "atom_type": "Cs"}, "1": {"label": "*4", "atom_type": "Cs"}, "10": {"label": "*1", "atom_type": "Cs"}, "11": {"label": "*0", "atom_type": "O2s"}, "19": {"label": "*2", "atom_type": "H0"}}

>  <type>  (12) 
unop_8

>  <geom_source>  (12) 
Heuristics

$$$$

     RDKit          3D

 26 24  0  0  0  0  0  0  0  0999 V2000
    1.1379    0.5916   -0.1005 C   0  0  0  0  0  0  0  0  0  0  0  0
    2.2774   -0.3606   -0.3764 C   0  0  0  0  0  0  0  0  0  0  0  0
    3.6329    0.2341   -0.4636 N   0  0  0  0  0  0  0  0  0  0  0  0
    3.6680    1.4157   -0.3033 O   0  0  0  0  0  0  0  0  0  0  0  0
    1.2759    1.1074    0.8495 H   0  0  0  0  0  0  0  0  0  0  0  0
    1.0587    1.3486   -0.8805 H   0  0  0  0  0  0  0  0  0  0  0  0
    2.3802   -1.1369    0.3889 H   0  0  0  0  0  0  0  0  0  0  0  0
    2.1652   -0.8982   -1.3236 H   0  0  0  0  0  0  0  0  0  0  0  0
   -0.9494   -2.1506   -1.3585 C   0  0  0  0  0  0  0  0  0  0  0  0
   -0.9494   -2.1506    0.1644 C   0  0  0  0  0  0  0  0  0  0  0  0
   -0.9494   -0.7575    0.7599 C   0  0  0  0  0  3  0  0  0  0  0  0
   -2.1324   -0.0940    0.3923 O   0  0  0  0  0  0  0  0  0  0  0  0
   -2.2031    1.2241    0.8732 C   0  0  0  0  0  0  0  0  0  0  0  0
   -3.5064    1.8419    0.4224 C   0  0  0  0  0  0  0  0  0  0  0  0
   -0.0673   -1.6363   -1.7481 H   0  0  0  0  0  0  0  0  0  0  0  0
   -1.8321   -1.6409   -1.7446 H   0  0  0  0  0  0  0  0  0  0  0  0
   -0.9439   -3.1685   -1.7511 H   0  0  0  0  0  0  0  0  0  0  0  0
   -0.0678   -2.6771    0.5407 H   0  0  0  0  0  0  0  0  0  0  0  0
   -1.8237   -2.6886    0.5397 H   0  0  0  0  0  0  0  0  0  0  0  0
    0.0997   -0.0794    0.3275 H   0  0  0  0  0  0  0  0  0  0  0  0
   -0.8746   -0.8115    1.8560 H   0  0  0  0  0  0  0  0  0  0  0  0
   -2.1358    1.2270    1.9713 H   0  0  0  0  0  0  0  0  0  0  0  0
   -1.3502    1.8071    0.4954 H   0  0  0  0  0  0  0  0  0  0  0  0
   -4.3528    1.2725    0.8081 H   0  0  0  0  0  0  0  0  0  0  0  0
   -3.5672    1.8537   -0.6664 H   0  0  0  0  0  0  0  0  0  0  0  0
   -3.5840    2.8679    0.7855 H   0  0  0  0  0  0  0  0  0  0  0  0
  1  2  1  0
  1  5  1  0
  1  6  1  0
  1 20  1  0
  2  3  1  0
  2  7  1  0
  2  8  1  0
  3  4  2  0
  9 10  1  0
  9 15  1  0
  9 16  1  0
  9 17  1  0
 10 11  1  0
 10 18  1  0
 10 19  1  0
 11 12  1  0
 11 21  1  0
 12 13  1  0
 13 14  1  0
 13 22  1  0
 13 23  1  0
 14 24  1  0
 14 25  1  0
 14 26  1  0
M  RAD  1  11   2
M  END
>  <reaction>  (13) 
rmg_rxn_336

>  <mol_properties>  (13) 
{"0": {"label": "*3", "atom_type": "Cs"}, "1": {"label": "*4", "atom_type": "Cs"}, "10": {"label": "*1", "atom_type": "Cs"}, "11": {"label": "*0", "atom_type": "O2s"}, "19": {"label": "*2", "atom_type": "H0"}}

>  <type>  (13) 
unop_9

>  <geom_source>  (13) 
Heuristics

$$$$

     RDKit          3D

 26 24  0  0  0  0  0  0  0  0999 V2000
    1.6112    0.1875    0.3067 C   0  0  0  0  0  0  0  0  0  0  0  0
    1.5598    0.2932   -1.1992 C   0  0  0  0  0  0  0  0  0  0  0  0
    2.1390    1.5195   -1.7986 N   0  0  0  0  0  0  0  0  0  0  0  0
    2.5864    2.2943   -1.0095 O   0  0  0  0  0  0  0  0  0  0  0  0
    2.6386    0.2145    0.6692 H   0  0  0  0  0  0  0  0  0  0  0  0
    1.0712    1.0082    0.7784 H   0  0  0  0  0  0  0  0  0  0  0  0
    2.0907   -0.5211   -1.7030 H   0  0  0  0  0  0  0  0  0  0  0  0
    0.5393    0.2645   -1.5949 H   0  0  0  0  0  0  0  0  0  0  0  0
   -0.4760   -2.5547   -0.9513 C   0  0  0  0  0  0  0  0  0  0  0  0
   -0.4760   -2.5547    0.5716 C   0  0  0  0  0  0  0  0  0  0  0  0
   -0.4760   -1.1617    1.1671 C   0  0  0  0  0  3  0  0  0  0  0  0
   -1.6590   -0.4981    0.7995 O   0  0  0  0  0  0  0  0  0  0  0  0
   -1.7297    0.8200    1.2804 C   0  0  0  0  0  0  0  0  0  0  0  0
   -3.0331    1.4378    0.8296 C   0  0  0  0  0  0  0  0  0  0  0  0
    0.4060   -2.0404   -1.3409 H   0  0  0  0  0  0  0  0  0  0  0  0
   -1.3588   -2.0451   -1.3374 H   0  0  0  0  0  0  0  0  0  0  0  0
   -0.4706   -3.5726   -1.3440 H   0  0  0  0  0  0  0  0  0  0  0  0
    0.4055   -3.0812    0.9479 H   0  0  0  0  0  0  0  0  0  0  0  0
   -1.3504   -3.0927    0.9469 H   0  0  0  0  0  0  0  0  0  0  0  0
    0.5730   -0.4836    0.7347 H   0  0  0  0  0  0  0  0  0  0  0  0
   -0.4012   -1.2156    2.2632 H   0  0  0  0  0  0  0  0  0  0  0  0
   -1.6625    0.8228    2.3785 H   0  0  0  0  0  0  0  0  0  0  0  0
   -0.8769    1.4030    0.9025 H   0  0  0  0  0  0  0  0  0  0  0  0
   -3.8794    0.8684    1.2153 H   0  0  0  0  0  0  0  0  0  0  0  0
   -3.0939    1.4496   -0.2592 H   0  0  0  0  0  0  0  0  0  0  0  0
   -3.1107    2.4638    1.1926 H   0  0  0  0  0  0  0  0  0  0  0  0
  1  2  1  0
  1  5  1  0
  1  6  1  0
  1 20  1  0
  2  3  1  0
  2  7  1  0
  2  8  1  0
  3  4  2  0
  9 10  1  0
  9 15  1  0
  9 16  1  0
  9 17  1  0
 10 11  1  0
 10 18  1  0
 10 19  1  0
 11 12  1  0
 11 21  1  0
 12 13  1  0
 13 14  1  0
 13 22  1  0
 13 23  1  0
 14 24  1  0
 14 25  1  0
 14 26  1  0
M  RAD  1  11   2
M  END
>  <reaction>  (14) 
rmg_rxn_336

>  <mol_properties>  (14) 
{"0": {"label": "*3", "atom_type": "Cs"}, "1": {"label": "*4", "atom_type": "Cs"}, "10": {"label": "*1", "atom_type": "Cs"}, "11": {"label": "*0", "atom_type": "O2s"}, "19": {"label": "*2", "atom_type": "H0"}}

>  <type>  (14) 
unop_10

>  <geom_source>  (14) 
Heuristics

$$$$

     RDKit          3D

 26 24  0  0  0  0  0  0  0  0999 V2000
    1.4815   -0.0031   -0.2714 C   0  0  0  0  0  0  0  0  0  0  0  0
    1.9066    0.9957    0.7789 C   0  0  0  0  0  0  0  0  0  0  0  0
    2.5847    2.2215    0.2930 N   0  0  0  0  0  0  0  0  0  0  0  0
    2.7188    2.2788   -0.8910 O   0  0  0  0  0  0  0  0  0  0  0  0
    0.7795    0.4409   -0.9769 H   0  0  0  0  0  0  0  0  0  0  0  0
    2.3376   -0.3666   -0.8395 H   0  0  0  0  0  0  0  0  0  0  0  0
    1.0676    1.3768    1.3704 H   0  0  0  0  0  0  0  0  0  0  0  0
    2.6099    0.5775    1.5064 H   0  0  0  0  0  0  0  0  0  0  0  0
   -0.6057   -2.7454   -1.5293 C   0  0  0  0  0  0  0  0  0  0  0  0
   -0.6057   -2.7454   -0.0064 C   0  0  0  0  0  0  0  0  0  0  0  0
   -0.6057   -1.3523    0.5891 C   0  0  0  0  0  3  0  0  0  0  0  0
   -1.7887   -0.6887    0.2215 O   0  0  0  0  0  0  0  0  0  0  0  0
   -1.8594    0.6293    0.7024 C   0  0  0  0  0  0  0  0  0  0  0  0
   -3.1627    1.2471    0.2516 C   0  0  0  0  0  0  0  0  0  0  0  0
    0.2764   -2.2311   -1.9190 H   0  0  0  0  0  0  0  0  0  0  0  0
   -1.4884   -2.2357   -1.9154 H   0  0  0  0  0  0  0  0  0  0  0  0
   -0.6002   -3.7633   -1.9220 H   0  0  0  0  0  0  0  0  0  0  0  0
    0.2758   -3.2719    0.3699 H   0  0  0  0  0  0  0  0  0  0  0  0
   -1.4801   -3.2834    0.3688 H   0  0  0  0  0  0  0  0  0  0  0  0
    0.4433   -0.6742    0.1566 H   0  0  0  0  0  0  0  0  0  0  0  0
   -0.5309   -1.4063    1.6851 H   0  0  0  0  0  0  0  0  0  0  0  0
   -1.7922    0.6322    1.8005 H   0  0  0  0  0  0  0  0  0  0  0  0
   -1.0066    1.2123    0.3245 H   0  0  0  0  0  0  0  0  0  0  0  0
   -4.0091    0.6777    0.6372 H   0  0  0  0  0  0  0  0  0  0  0  0
   -3.2235    1.2590   -0.8373 H   0  0  0  0  0  0  0  0  0  0  0  0
   -3.2404    2.2731    0.6146 H   0  0  0  0  0  0  0  0  0  0  0  0
  1  2  1  0
  1  5  1  0
  1  6  1  0
  1 20  1  0
  2  3  1  0
  2  7  1  0
  2  8  1  0
  3  4  2  0
  9 10  1  0
  9 15  1  0
  9 16  1  0
  9 17  1  0
 10 11  1  0
 10 18  1  0
 10 19  1  0
 11 12  1  0
 11 21  1  0
 12 13  1  0
 13 14  1  0
 13 22  1  0
 13 23  1  0
 14 24  1  0
 14 25  1  0
 14 26  1  0
M  RAD  1  11   2
M  END
>  <reaction>  (15) 
rmg_rxn_336

>  <mol_properties>  (15) 
{"0": {"label": "*3", "atom_type": "Cs"}, "1": {"label": "*4", "atom_type": "Cs"}, "10": {"label": "*1", "atom_type": "Cs"}, "11": {"label": "*0", "atom_type": "O2s"}, "19": {"label": "*2", "atom_type": "H0"}}

>  <type>  (15) 
unop_11

>  <geom_source>  (15) 
Heuristics

$$$$

     RDKit          3D

 26 24  0  0  0  0  0  0  0  0999 V2000
    1.2455    0.5686    0.1781 C   0  0  0  0  0  0  0  0  0  0  0  0
    2.0597   -0.2983   -0.7531 C   0  0  0  0  0  0  0  0  0  0  0  0
    3.2800    0.3134   -1.3319 N   0  0  0  0  0  0  0  0  0  0  0  0
    3.4817    1.4384   -0.9899 O   0  0  0  0  0  0  0  0  0  0  0  0
    1.8337    0.8825    1.0401 H   0  0  0  0  0  0  0  0  0  0  0  0
    0.8921    1.4671   -0.3274 H   0  0  0  0  0  0  0  0  0  0  0  0
    2.4259   -1.2125   -0.2747 H   0  0  0  0  0  0  0  0  0  0  0  0
    1.4938   -0.6338   -1.6283 H   0  0  0  0  0  0  0  0  0  0  0  0
   -0.8418   -2.1736   -1.0798 C   0  0  0  0  0  0  0  0  0  0  0  0
   -0.8418   -2.1736    0.4431 C   0  0  0  0  0  0  0  0  0  0  0  0
   -0.8418   -0.7806    1.0386 C   0  0  0  0  0  3  0  0  0  0  0  0
   -2.0248   -0.1170    0.6710 O   0  0  0  0  0  0  0  0  0  0  0  0
   -2.0955    1.2011    1.1519 C   0  0  0  0  0  0  0  0  0  0  0  0
   -3.3988    1.8189    0.7011 C   0  0  0  0  0  0  0  0  0  0  0  0
    0.0403   -1.6593   -1.4695 H   0  0  0  0  0  0  0  0  0  0  0  0
   -1.7245   -1.6639   -1.4659 H   0  0  0  0  0  0  0  0  0  0  0  0
   -0.8363   -3.1915   -1.4725 H   0  0  0  0  0  0  0  0  0  0  0  0
    0.0398   -2.7001    0.8194 H   0  0  0  0  0  0  0  0  0  0  0  0
   -1.7161   -2.7116    0.8183 H   0  0  0  0  0  0  0  0  0  0  0  0
    0.2073   -0.1025    0.6061 H   0  0  0  0  0  0  0  0  0  0  0  0
   -0.7670   -0.8345    2.1346 H   0  0  0  0  0  0  0  0  0  0  0  0
   -2.0282    1.2039    2.2500 H   0  0  0  0  0  0  0  0  0  0  0  0
   -1.2426    1.7841    0.7740 H   0  0  0  0  0  0  0  0  0  0  0  0
   -4.2452    1.2495    1.0867 H   0  0  0  0  0  0  0  0  0  0  0  0
   -3.4596    1.8307   -0.3878 H   0  0  0  0  0  0  0  0  0  0  0  0
   -3.4764    2.8449    1.0641 H   0  0  0  0  0  0  0  0  0  0  0  0
  1  2  1  0
  1  5  1  0
  1  6  1  0
  1 20  1  0
  2  3  1  0
  2  7  1  0
  2  8  1  0
  3  4  2  0
  9 10  1  0
  9 15  1  0
  9 16  1  0
  9 17  1  0
 10 11  1  0
 10 18  1  0
 10 19  1  0
 11 12  1  0
 11 21  1  0
 12 13  1  0
 13 14  1  0
 13 22  1  0
 13 23  1  0
 14 24  1  0
 14 25  1  0
 14 26  1  0
M  RAD  1  11   2
M  END
>  <reaction>  (16) 
rmg_rxn_336

>  <mol_properties>  (16) 
{"0": {"label": "*3", "atom_type": "Cs"}, "1": {"label": "*4", "atom_type": "Cs"}, "10": {"label": "*1", "atom_type": "Cs"}, "11": {"label": "*0", "atom_type": "O2s"}, "19": {"label": "*2", "atom_type": "H0"}}

>  <type>  (16) 
unop_12

>  <geom_source>  (16) 
Heuristics

$$$$

     RDKit          3D

 26 24  0  0  0  0  0  0  0  0999 V2000
   -1.5162    0.1173   -0.3551 O   0  0  0  0  0  0  0  0  0  0  0  0
    3.5236   -0.9049    1.7310 O   0  0  0  0  0  0  0  0  0  0  0  0
    2.6783   -1.5370    1.1727 N   0  0  0  0  0  0  0  0  0  0  0  0
   -0.3405    1.8651    0.8186 C   0  0  0  0  0  0  0  0  0  0  0  0
   -1.2375   -1.2526   -0.1982 C   0  0  0  0  0  0  0  0  0  0  0  0
    2.5588   -1.5006   -0.2639 C   0  0  0  0  0  0  0  0  0  0  0  0
   -1.3429    2.9705    0.4959 C   0  0  0  0  0  0  0  0  0  0  0  0
    2.0858   -0.1281   -0.7264 C   0  0  0  0  0  0  0  0  0  0  0  0
   -2.5383   -2.0380   -0.2666 C   0  0  0  0  0  0  0  0  0  0  0  0
   -0.2938    0.8033   -0.2777 C   0  0  0  0  0  3  0  0  0  0  0  0
   -0.6120    1.3865    1.7839 H   0  0  0  0  0  0  0  0  0  0  0  0
    0.6711    2.3112    0.9257 H   0  0  0  0  0  0  0  0  0  0  0  0
    3.5386   -1.7420   -0.7302 H   0  0  0  0  0  0  0  0  0  0  0  0
    1.8186   -2.2643   -0.5820 H   0  0  0  0  0  0  0  0  0  0  0  0
   -0.5669   -1.6152   -1.0120 H   0  0  0  0  0  0  0  0  0  0  0  0
   -0.7631   -1.4493    0.7916 H   0  0  0  0  0  0  0  0  0  0  0  0
    2.8313    0.6488   -0.4533 H   0  0  0  0  0  0  0  0  0  0  0  0
    1.9587   -0.1290   -1.8295 H   0  0  0  0  0  0  0  0  0  0  0  0
    0.9561    0.1540   -0.1763 H   0  0  0  0  0  0  0  0  0  0  0  0
   -2.3298   -3.1218   -0.1434 H   0  0  0  0  0  0  0  0  0  0  0  0
   -3.0296   -1.8751   -1.2493 H   0  0  0  0  0  0  0  0  0  0  0  0
   -3.2239   -1.7087    0.5429 H   0  0  0  0  0  0  0  0  0  0  0  0
   -1.3287    3.7313    1.3046 H   0  0  0  0  0  0  0  0  0  0  0  0
   -2.3697    2.5537    0.4209 H   0  0  0  0  0  0  0  0  0  0  0  0
   -1.0764    3.4658   -0.4620 H   0  0  0  0  0  0  0  0  0  0  0  0
   -0.0516    1.2591   -1.2619 H   0  0  0  0  0  0  0  0  0  0  0  0
  1  5  1  0
  1 10  1  0
  2  3  2  0
  3  6  1  0
  4  7  1  0
  4 10  1  0
  4 11  1  0
  4 12  1  0
  5  9  1  0
  5 15  1  0
  5 16  1  0
  6  8  1  0
  6 13  1  0
  6 14  1  0
  7 23  1  0
  7 24  1  0
  7 25  1  0
  8 17  1  0
  8 18  1  0
  8 19  1  0
  9 20  1  0
  9 21  1  0
  9 22  1  0
 10 26  1  0
M  RAD  1  10   2
M  END
>  <reaction>  (17) 
rmg_rxn_336

>  <mol_properties>  (17) 
{"0": {"label": "*3", "atom_type": "Cs"}, "1": {"label": "*4", "atom_type": "Cs"}, "10": {"label": "*1", "atom_type": "Cs"}, "11": {"label": "*0", "atom_type": "O2s"}, "19": {"label": "*2", "atom_type": "H0"}}

>  <type>  (17) 
unop_13

>  <geom_source>  (17) 
AutoTST

$$$$

     RDKit          3D

 26 24  0  0  0  0  0  0  0  0999 V2000
    1.4392    0.4046    0.3371 C   0  0  0  0  0  0  0  0  0  0  0  0
    1.8175   -0.0751   -1.0443 C   0  0  0  0  0  0  0  0  0  0  0  0
    2.6810    0.8250   -1.8460 N   0  0  0  0  0  0  0  0  0  0  0  0
    2.9826    1.8412   -1.2987 O   0  0  0  0  0  0  0  0  0  0  0  0
    2.3227    0.5639    0.9550 H   0  0  0  0  0  0  0  0  0  0  0  0
    0.8919    1.3458    0.2918 H   0  0  0  0  0  0  0  0  0  0  0  0
    2.3658   -1.0227   -1.0322 H   0  0  0  0  0  0  0  0  0  0  0  0
    0.9495   -0.2487   -1.6887 H   0  0  0  0  0  0  0  0  0  0  0  0
   -0.6480   -2.3377   -0.9208 C   0  0  0  0  0  0  0  0  0  0  0  0
   -0.6480   -2.3377    0.6021 C   0  0  0  0  0  0  0  0  0  0  0  0
   -0.6480   -0.9446    1.1976 C   0  0  0  0  0  3  0  0  0  0  0  0
   -1.8310   -0.2811    0.8300 O   0  0  0  0  0  0  0  0  0  0  0  0
   -1.9017    1.0370    1.3109 C   0  0  0  0  0  0  0  0  0  0  0  0
   -3.2050    1.6548    0.8601 C   0  0  0  0  0  0  0  0  0  0  0  0
    0.2341   -1.8234   -1.3104 H   0  0  0  0  0  0  0  0  0  0  0  0
   -1.5307   -1.8280   -1.3069 H   0  0  0  0  0  0  0  0  0  0  0  0
   -0.6425   -3.3556   -1.3135 H   0  0  0  0  0  0  0  0  0  0  0  0
    0.2335   -2.8642    0.9784 H   0  0  0  0  0  0  0  0  0  0  0  0
   -1.5224   -2.8757    0.9774 H   0  0  0  0  0  0  0  0  0  0  0  0
    0.4010   -0.2666    0.7651 H   0  0  0  0  0  0  0  0  0  0  0  0
   -0.5732   -0.9986    2.2937 H   0  0  0  0  0  0  0  0  0  0  0  0
   -1.8345    1.0399    2.4090 H   0  0  0  0  0  0  0  0  0  0  0  0
   -1.0488    1.6200    0.9330 H   0  0  0  0  0  0  0  0  0  0  0  0
   -4.0514    1.0854    1.2458 H   0  0  0  0  0  0  0  0  0  0  0  0
   -3.2658    1.6666   -0.2287 H   0  0  0  0  0  0  0  0  0  0  0  0
   -3.2826    2.6808    1.2231 H   0  0  0  0  0  0  0  0  0  0  0  0
  1  2  1  0
  1  5  1  0
  1  6  1  0
  1 20  1  0
  2  3  1  0
  2  7  1  0
  2  8  1  0
  3  4  2  0
  9 10  1  0
  9 15  1  0
  9 16  1  0
  9 17  1  0
 10 11  1  0
 10 18  1  0
 10 19  1  0
 11 12  1  0
 11 21  1  0
 12 13  1  0
 13 14  1  0
 13 22  1  0
 13 23  1  0
 14 24  1  0
 14 25  1  0
 14 26  1  0
M  RAD  1  11   2
M  END
>  <reaction>  (18) 
rmg_rxn_336

>  <mol_properties>  (18) 
{"0": {"label": "*3", "atom_type": "Cs"}, "1": {"label": "*4", "atom_type": "Cs"}, "10": {"label": "*1", "atom_type": "Cs"}, "11": {"label": "*0", "atom_type": "O2s"}, "19": {"label": "*2", "atom_type": "H0"}}

>  <type>  (18) 
unop_14

>  <geom_source>  (18) 
gaussian_log

$$$$
