
     RDKit          3D

 14 13  0  0  0  0  0  0  0  0999 V2000
    2.1277    0.0527   -0.0768 C   0  0  0  0  0  0  0  0  0  0  0  0
    0.8550    0.0849    0.7591 C   0  0  0  0  0  0  0  0  0  0  0  0
    0.7150    1.3361    1.5963 C   0  0  0  0  0  0  0  0  0  0  0  0
    0.5975    2.4604    0.7083 O   0  0  0  0  0  0  0  0  0  0  0  0
    0.5113    3.6572    1.2782 C   0  0  0  0  0  0  0  0  0  0  0  0
    0.5224    3.8788    2.4534 O   0  0  0  0  0  0  0  0  0  0  0  0
    3.0138    0.1211    0.5584 H   0  0  0  0  0  0  0  0  0  0  0  0
    2.1544    0.8845   -0.7813 H   0  0  0  0  0  0  0  0  0  0  0  0
    2.1955   -0.8742   -0.6473 H   0  0  0  0  0  0  0  0  0  0  0  0
    0.8361   -0.7663    1.4449 H   0  0  0  0  0  0  0  0  0  0  0  0
   -0.0232   -0.0114    0.1158 H   0  0  0  0  0  0  0  0  0  0  0  0
   -0.1715    1.3001    2.2317 H   0  0  0  0  0  0  0  0  0  0  0  0
    1.5840    1.4884    2.2407 H   0  0  0  0  0  0  0  0  0  0  0  0
    0.4263    4.4265    0.4986 H   0  0  0  0  0  0  0  0  0  0  0  0
  1  2  1  0
  1  7  1  0
  1  8  1  0
  1  9  1  0
  2  3  1  0
  2 10  1  0
  2 11  1  0
  3  4  1  0
  3 12  1  0
  3 13  1  0
  4  5  1  0
  5  6  2  0
  5 14  1  0
M  END
>  <reaction>  (1) 
rmg_rxn_1449

>  <mol_properties>  (1) 
{"0": {"label": "donator", "atom_type": "Cs"}, "6": {"label": "d_hydrogen", "atom_type": "H0"}}

>  <type>  (1) 
r1h

$$$$

     RDKit          3D

  8  7  0  0  0  0  0  0  0  0999 V2000
    1.3778   -0.6812    0.2772 C   0  0  0  0  0  3  0  0  0  0  0  0
    0.4890    0.2108   -0.0590 C   0  0  0  0  0  0  0  0  0  0  0  0
   -1.0010    0.0286   -0.0323 C   0  0  0  0  0  0  0  0  0  0  0  0
    2.4535   -0.7507    0.3287 H   0  0  0  0  0  0  0  0  0  0  0  0
    0.8447    1.1899   -0.3945 H   0  0  0  0  0  0  0  0  0  0  0  0
   -1.4635    0.7638    0.6301 H   0  0  0  0  0  0  0  0  0  0  0  0
   -1.2709   -0.9687    0.3117 H   0  0  0  0  0  0  0  0  0  0  0  0
   -1.4218    0.1801   -1.0289 H   0  0  0  0  0  0  0  0  0  0  0  0
  1  2  2  3
  1  4  1  0
  2  3  1  0
  2  5  1  0
  3  6  1  0
  3  7  1  0
  3  8  1  0
M  RAD  1   1   2
M  END
>  <reaction>  (2) 
rmg_rxn_1449

>  <mol_properties>  (2) 
{"0": {"label": "acceptor", "atom_type": "Cd"}}

>  <type>  (2) 
r2

$$$$

     RDKit          3D

  9  8  0  0  0  0  0  0  0  0999 V2000
    1.1303   -0.2933   -0.7510 C   0  0  0  0  0  0  0  0  0  0  0  0
    0.2866    0.4560   -0.0588 C   0  0  0  0  0  0  0  0  0  0  0  0
   -0.9719   -0.0331    0.5823 C   0  0  0  0  0  0  0  0  0  0  0  0
    2.0274    0.1230   -1.1916 H   0  0  0  0  0  0  0  0  0  0  0  0
    0.9532   -1.3530   -0.9023 H   0  0  0  0  0  0  0  0  0  0  0  0
    0.5065    1.5132    0.0659 H   0  0  0  0  0  0  0  0  0  0  0  0
   -0.9526    0.1426    1.6610 H   0  0  0  0  0  0  0  0  0  0  0  0
   -1.1182   -1.1002    0.4106 H   0  0  0  0  0  0  0  0  0  0  0  0
   -1.8412    0.5010    0.1901 H   0  0  0  0  0  0  0  0  0  0  0  0
  1  2  2  3
  1  4  1  0
  1  5  1  0
  2  3  1  0
  2  6  1  0
  3  7  1  0
  3  8  1  0
  3  9  1  0
M  END
>  <reaction>  (3) 
rmg_rxn_1449

>  <mol_properties>  (3) 
{"0": {"label": "acceptor", "atom_type": "Cd"}, "8": {"label": "a_hydrogen", "atom_type": "H0"}}

>  <type>  (3) 
r2h

$$$$

     RDKit          3D

 22 20  0  0  0  0  0  0  0  0999 V2000
    2.3411    0.9413   -0.2509 C   0  0  0  0  0  3  0  0  0  0  0  0
    2.2310   -0.3340    0.0533 C   0  0  0  0  0  0  0  0  0  0  0  0
    3.3168   -1.3580   -0.1085 C   0  0  0  0  0  0  0  0  0  0  0  0
    3.2070    1.4563   -0.6541 H   0  0  0  0  0  0  0  0  0  0  0  0
    1.2883   -0.7099    0.4482 H   0  0  0  0  0  0  0  0  0  0  0  0
    4.2260   -0.9194   -0.5205 H   0  0  0  0  0  0  0  0  0  0  0  0
    2.9856   -2.1622   -0.7698 H   0  0  0  0  0  0  0  0  0  0  0  0
    3.5562   -1.8149    0.8548 H   0  0  0  0  0  0  0  0  0  0  0  0
    0.1719    2.4201    0.2732 C   0  0  0  0  0  0  0  0  0  0  0  0
   -0.9293    1.4280    0.5581 C   0  0  0  0  0  0  0  0  0  0  0  0
   -1.2905    0.6283   -0.6797 C   0  0  0  0  0  0  0  0  0  0  0  0
   -2.3800   -0.2759   -0.4278 O   0  0  0  0  0  0  0  0  0  0  0  0
   -2.0820   -1.4446    0.1247 C   0  0  0  0  0  0  0  0  0  0  0  0
   -0.9905   -1.8287    0.4339 O   0  0  0  0  0  0  0  0  0  0  0  0
    1.2411    1.7541   -0.0156 H   0  0  0  0  0  0  0  0  0  0  0  0
    0.4597    3.0149    1.1375 H   0  0  0  0  0  0  0  0  0  0  0  0
   -0.0064    3.0530   -0.5968 H   0  0  0  0  0  0  0  0  0  0  0  0
   -1.8268    1.9437    0.9166 H   0  0  0  0  0  0  0  0  0  0  0  0
   -0.6169    0.7438    1.3504 H   0  0  0  0  0  0  0  0  0  0  0  0
   -1.6538    1.2819   -1.4721 H   0  0  0  0  0  0  0  0  0  0  0  0
   -0.4314    0.0663   -1.0468 H   0  0  0  0  0  0  0  0  0  0  0  0
   -3.0027   -2.0281    0.2580 H   0  0  0  0  0  0  0  0  0  0  0  0
  1  2  2  3
  1  4  1  0
  2  3  1  0
  2  5  1  0
  3  6  1  0
  3  7  1  0
  3  8  1  0
  9 10  1  0
  9 15  1  0
  9 16  1  0
  9 17  1  0
 10 11  1  0
 10 18  1  0
 10 19  1  0
 11 12  1  0
 11 20  1  0
 11 21  1  0
 12 13  1  0
 13 14  2  0
 13 22  1  0
M  RAD  1   1   2
M  END
>  <reaction>  (4) 
rmg_rxn_1449

>  <mol_properties>  (4) 
{"0": {"label": "*3", "atom_type": "Cd"}, "1": {"label": "*4", "atom_type": "Cd"}, "8": {"label": "*1", "atom_type": "Cs"}, "9": {"label": "*0", "atom_type": "Cs"}, "14": {"label": "*2", "atom_type": "H0"}}

>  <type>  (4) 
ts

$$$$

     RDKit          3D

 22 20  0  0  0  0  0  0  0  0999 V2000
    2.2706   -0.8884   -0.2046 C   0  0  0  0  0  0  0  0  0  0  0  0
    2.2402    0.3897    0.0811 C   0  0  0  0  0  0  0  0  0  0  0  0
    3.3808    1.3450   -0.1316 C   0  0  0  0  0  0  0  0  0  0  0  0
    3.1101   -1.4193   -0.6205 H   0  0  0  0  0  0  0  0  0  0  0  0
    1.3522    0.8475    0.4989 H   0  0  0  0  0  0  0  0  0  0  0  0
    3.6708    1.7880    0.8202 H   0  0  0  0  0  0  0  0  0  0  0  0
    3.0661    2.1506   -0.7934 H   0  0  0  0  0  0  0  0  0  0  0  0
    4.2411    0.8411   -0.5662 H   0  0  0  0  0  0  0  0  0  0  0  0
    0.1889   -2.3926    0.2758 C   0  0  0  0  0  3  0  0  0  0  0  0
   -0.9713   -1.4715    0.5459 C   0  0  0  0  0  0  0  0  0  0  0  0
   -1.3245   -0.6532   -0.6946 C   0  0  0  0  0  0  0  0  0  0  0  0
   -2.3952    0.2640   -0.4328 O   0  0  0  0  0  0  0  0  0  0  0  0
   -2.0778    1.4112    0.1304 C   0  0  0  0  0  0  0  0  0  0  0  0
   -0.9855    1.7883    0.4400 O   0  0  0  0  0  0  0  0  0  0  0  0
    1.2394   -1.6449    0.0246 H   0  0  0  0  0  0  0  0  0  0  0  0
    0.0519   -3.0121   -0.6035 H   0  0  0  0  0  0  0  0  0  0  0  0
    0.4657   -2.9844    1.1401 H   0  0  0  0  0  0  0  0  0  0  0  0
   -0.7163   -0.7884    1.3598 H   0  0  0  0  0  0  0  0  0  0  0  0
   -1.8571   -2.0395    0.8559 H   0  0  0  0  0  0  0  0  0  0  0  0
   -0.4474   -0.0925   -1.0325 H   0  0  0  0  0  0  0  0  0  0  0  0
   -1.6865   -1.2968   -1.4985 H   0  0  0  0  0  0  0  0  0  0  0  0
   -2.9992    2.0026    0.2725 H   0  0  0  0  0  0  0  0  0  0  0  0
  1  2  2  3
  1  4  1  0
  1 15  1  0
  2  3  1  0
  2  5  1  0
  3  6  1  0
  3  7  1  0
  3  8  1  0
  9 10  1  0
  9 16  1  0
  9 17  1  0
 10 11  1  0
 10 18  1  0
 10 19  1  0
 11 12  1  0
 11 20  1  0
 11 21  1  0
 12 13  1  0
 13 14  2  0
 13 22  1  0
M  RAD  1   9   2
M  END
>  <reaction>  (5) 
rmg_rxn_1449

>  <mol_properties>  (5) 
{"0": {"label": "*3", "atom_type": "Cd"}, "1": {"label": "*4", "atom_type": "Cd"}, "8": {"label": "*1", "atom_type": "Cs"}, "9": {"label": "*0", "atom_type": "Cs"}, "14": {"label": "*2", "atom_type": "H0"}}

>  <type>  (5) 
unop_1

>  <geom_source>  (5) 
crest_best.xyz

$$$$

     RDKit          3D

 22 20  0  0  0  0  0  0  0  0999 V2000
    1.8112    1.1709   -0.0498 C   0  0  0  0  0  0  0  0  0  0  0  0
    2.6415    2.1908    0.1009 C   0  0  0  0  0  0  0  0  0  0  0  0
    4.1330    2.0930    0.1040 C   0  0  0  0  0  0  0  0  0  0  0  0
    2.1770    0.1586   -0.1861 H   0  0  0  0  0  0  0  0  0  0  0  0
    2.2280    3.1872    0.2343 H   0  0  0  0  0  0  0  0  0  0  0  0
    4.5646    2.7046   -0.6925 H   0  0  0  0  0  0  0  0  0  0  0  0
    4.4653    1.0635   -0.0350 H   0  0  0  0  0  0  0  0  0  0  0  0
    4.5451    2.4636    1.0462 H   0  0  0  0  0  0  0  0  0  0  0  0
   -0.2733    0.8677    1.4916 C   0  0  0  0  0  3  0  0  0  0  0  0
   -1.5595    0.8790    0.6760 C   0  0  0  0  0  0  0  0  0  0  0  0
   -1.6152   -0.2043   -0.3772 C   0  0  0  0  0  0  0  0  0  0  0  0
   -1.6156   -1.4786    0.2882 O   0  0  0  0  0  0  0  0  0  0  0  0
   -1.6156   -2.5531   -0.4927 C   0  0  0  0  0  0  0  0  0  0  0  0
   -1.6156   -2.5531   -1.6887 O   0  0  0  0  0  0  0  0  0  0  0  0
    0.7736    1.0200    0.7174 H   0  0  0  0  0  0  0  0  0  0  0  0
   -0.1592   -0.0739    2.0295 H   0  0  0  0  0  0  0  0  0  0  0  0
   -0.2690    1.6763    2.2232 H   0  0  0  0  0  0  0  0  0  0  0  0
   -1.6670    1.8369    0.1601 H   0  0  0  0  0  0  0  0  0  0  0  0
   -2.4262    0.7787    1.3342 H   0  0  0  0  0  0  0  0  0  0  0  0
   -2.5174   -0.1294   -0.9866 H   0  0  0  0  0  0  0  0  0  0  0  0
   -0.7531   -0.1594   -1.0467 H   0  0  0  0  0  0  0  0  0  0  0  0
   -1.6162   -3.4571    0.1315 H   0  0  0  0  0  0  0  0  0  0  0  0
  1  2  2  3
  1  4  1  0
  1 15  1  0
  2  3  1  0
  2  5  1  0
  3  6  1  0
  3  7  1  0
  3  8  1  0
  9 10  1  0
  9 16  1  0
  9 17  1  0
 10 11  1  0
 10 18  1  0
 10 19  1  0
 11 12  1  0
 11 20  1  0
 11 21  1  0
 12 13  1  0
 13 14  2  0
 13 22  1  0
M  RAD  1   9   2
M  END
>  <reaction>  (6) 
rmg_rxn_1449

>  <mol_properties>  (6) 
{"0": {"label": "*3", "atom_type": "Cd"}, "1": {"label": "*4", "atom_type": "Cd"}, "8": {"label": "*1", "atom_type": "Cs"}, "9": {"label": "*0", "atom_type": "Cs"}, "14": {"label": "*2", "atom_type": "H0"}}

>  <type>  (6) 
unop_2

>  <geom_source>  (6) 
Heuristics

$$$$

     RDKit          3D

 22 20  0  0  0  0  0  0  0  0999 V2000
    2.2703    0.8884   -0.2046 C   0  0  0  0  0  0  0  0  0  0  0  0
    2.2399   -0.3895    0.0814 C   0  0  0  0  0  0  0  0  0  0  0  0
    3.3801   -1.3451   -0.1318 C   0  0  0  0  0  0  0  0  0  0  0  0
    3.1096    1.4191   -0.6214 H   0  0  0  0  0  0  0  0  0  0  0  0
    1.3521   -0.8470    0.4999 H   0  0  0  0  0  0  0  0  0  0  0  0
    4.2402   -0.8416   -0.5674 H   0  0  0  0  0  0  0  0  0  0  0  0
    3.0648   -2.1510   -0.7930 H   0  0  0  0  0  0  0  0  0  0  0  0
    3.6709   -1.7878    0.8199 H   0  0  0  0  0  0  0  0  0  0  0  0
    0.1887    2.3928    0.2760 C   0  0  0  0  0  3  0  0  0  0  0  0
   -0.9714    1.4716    0.5458 C   0  0  0  0  0  0  0  0  0  0  0  0
   -1.3241    0.6531   -0.6947 C   0  0  0  0  0  0  0  0  0  0  0  0
   -2.3948   -0.2642   -0.4332 O   0  0  0  0  0  0  0  0  0  0  0  0
   -2.0774   -1.4113    0.1303 C   0  0  0  0  0  0  0  0  0  0  0  0
   -0.9851   -1.7882    0.4404 O   0  0  0  0  0  0  0  0  0  0  0  0
    1.2394    1.6451    0.0250 H   0  0  0  0  0  0  0  0  0  0  0  0
    0.4652    2.9847    1.1403 H   0  0  0  0  0  0  0  0  0  0  0  0
    0.0519    3.0123   -0.6035 H   0  0  0  0  0  0  0  0  0  0  0  0
   -1.8574    2.0395    0.8554 H   0  0  0  0  0  0  0  0  0  0  0  0
   -0.7167    0.7887    1.3599 H   0  0  0  0  0  0  0  0  0  0  0  0
   -1.6860    1.2966   -1.4987 H   0  0  0  0  0  0  0  0  0  0  0  0
   -0.4468    0.0924   -1.0322 H   0  0  0  0  0  0  0  0  0  0  0  0
   -2.9988   -2.0028    0.2723 H   0  0  0  0  0  0  0  0  0  0  0  0
  1  2  2  3
  1  4  1  0
  1 15  1  0
  2  3  1  0
  2  5  1  0
  3  6  1  0
  3  7  1  0
  3  8  1  0
  9 10  1  0
  9 16  1  0
  9 17  1  0
 10 11  1  0
 10 18  1  0
 10 19  1  0
 11 12  1  0
 11 20  1  0
 11 21  1  0
 12 13  1  0
 13 14  2  0
 13 22  1  0
M  RAD  1   9   2
M  END
>  <reaction>  (7) 
rmg_rxn_1449

>  <mol_properties>  (7) 
{"0": {"label": "*3", "atom_type": "Cd"}, "1": {"label": "*4", "atom_type": "Cd"}, "8": {"label": "*1", "atom_type": "Cs"}, "9": {"label": "*0", "atom_type": "Cs"}, "14": {"label": "*2", "atom_type": "H0"}}

>  <type>  (7) 
unop_3

>  <geom_source>  (7) 
Heuristics

$$$$

     RDKit          3D

 22 20  0  0  0  0  0  0  0  0999 V2000
    2.0448    1.1637    0.3193 C   0  0  0  0  0  0  0  0  0  0  0  0
    1.9781    1.8548   -0.8078 C   0  0  0  0  0  0  0  0  0  0  0  0
    3.1530    2.4003   -1.5535 C   0  0  0  0  0  0  0  0  0  0  0  0
    2.9960    0.9411    0.7912 H   0  0  0  0  0  0  0  0  0  0  0  0
    1.0021    2.0532   -1.2433 H   0  0  0  0  0  0  0  0  0  0  0  0
    3.1911    1.9963   -2.5685 H   0  0  0  0  0  0  0  0  0  0  0  0
    4.0908    2.1584   -1.0520 H   0  0  0  0  0  0  0  0  0  0  0  0
    3.0834    3.4870   -1.6479 H   0  0  0  0  0  0  0  0  0  0  0  0
   -0.0398    0.8605    1.8607 C   0  0  0  0  0  3  0  0  0  0  0  0
   -1.3259    0.8718    1.0451 C   0  0  0  0  0  0  0  0  0  0  0  0
   -1.3817   -0.2115   -0.0081 C   0  0  0  0  0  0  0  0  0  0  0  0
   -1.3821   -1.4858    0.6573 O   0  0  0  0  0  0  0  0  0  0  0  0
   -1.3821   -2.5603   -0.1236 C   0  0  0  0  0  0  0  0  0  0  0  0
   -1.3821   -2.5603   -1.3196 O   0  0  0  0  0  0  0  0  0  0  0  0
    1.0071    1.0128    1.0865 H   0  0  0  0  0  0  0  0  0  0  0  0
    0.0744   -0.0811    2.3986 H   0  0  0  0  0  0  0  0  0  0  0  0
   -0.0355    1.6691    2.5923 H   0  0  0  0  0  0  0  0  0  0  0  0
   -1.4335    1.8296    0.5292 H   0  0  0  0  0  0  0  0  0  0  0  0
   -2.1926    0.7715    1.7033 H   0  0  0  0  0  0  0  0  0  0  0  0
   -2.2839   -0.1366   -0.6175 H   0  0  0  0  0  0  0  0  0  0  0  0
   -0.5195   -0.1666   -0.6776 H   0  0  0  0  0  0  0  0  0  0  0  0
   -1.3826   -3.4643    0.5006 H   0  0  0  0  0  0  0  0  0  0  0  0
  1  2  2  3
  1  4  1  0
  1 15  1  0
  2  3  1  0
  2  5  1  0
  3  6  1  0
  3  7  1  0
  3  8  1  0
  9 10  1  0
  9 16  1  0
  9 17  1  0
 10 11  1  0
 10 18  1  0
 10 19  1  0
 11 12  1  0
 11 20  1  0
 11 21  1  0
 12 13  1  0
 13 14  2  0
 13 22  1  0
M  RAD  1   9   2
M  END
>  <reaction>  (8) 
rmg_rxn_1449

>  <mol_properties>  (8) 
{"0": {"label": "*3", "atom_type": "Cd"}, "1": {"label": "*4", "atom_type": "Cd"}, "8": {"label": "*1", "atom_type": "Cs"}, "9": {"label": "*0", "atom_type": "Cs"}, "14": {"label": "*2", "atom_type": "H0"}}

>  <type>  (8) 
unop_4

>  <geom_source>  (8) 
Heuristics

$$$$

     RDKit          3D

 22 20  0  0  0  0  0  0  0  0999 V2000
    1.7641    1.3024   -0.0670 C   0  0  0  0  0  0  0  0  0  0  0  0
    2.8672    1.8911    0.3677 C   0  0  0  0  0  0  0  0  0  0  0  0
    4.2594    1.4841    0.0067 C   0  0  0  0  0  0  0  0  0  0  0  0
    1.8038    0.4526   -0.7404 H   0  0  0  0  0  0  0  0  0  0  0  0
    2.7772    2.7395    1.0413 H   0  0  0  0  0  0  0  0  0  0  0  0
    4.7921    2.3071   -0.4767 H   0  0  0  0  0  0  0  0  0  0  0  0
    4.2618    0.6287   -0.6700 H   0  0  0  0  0  0  0  0  0  0  0  0
    4.8308    1.2183    0.8997 H   0  0  0  0  0  0  0  0  0  0  0  0
   -0.3204    0.9991    1.4744 C   0  0  0  0  0  3  0  0  0  0  0  0
   -1.6066    1.0105    0.6588 C   0  0  0  0  0  0  0  0  0  0  0  0
   -1.6623   -0.0729   -0.3944 C   0  0  0  0  0  0  0  0  0  0  0  0
   -1.6628   -1.3471    0.2711 O   0  0  0  0  0  0  0  0  0  0  0  0
   -1.6628   -2.4216   -0.5099 C   0  0  0  0  0  0  0  0  0  0  0  0
   -1.6628   -2.4216   -1.7059 O   0  0  0  0  0  0  0  0  0  0  0  0
    0.7265    1.1514    0.7003 H   0  0  0  0  0  0  0  0  0  0  0  0
   -0.2063    0.0576    2.0123 H   0  0  0  0  0  0  0  0  0  0  0  0
   -0.3161    1.8078    2.2061 H   0  0  0  0  0  0  0  0  0  0  0  0
   -1.7141    1.9683    0.1429 H   0  0  0  0  0  0  0  0  0  0  0  0
   -2.4733    0.9101    1.3170 H   0  0  0  0  0  0  0  0  0  0  0  0
   -2.5645    0.0021   -1.0038 H   0  0  0  0  0  0  0  0  0  0  0  0
   -0.8002   -0.0279   -1.0638 H   0  0  0  0  0  0  0  0  0  0  0  0
   -1.6633   -3.3256    0.1143 H   0  0  0  0  0  0  0  0  0  0  0  0
  1  2  2  3
  1  4  1  0
  1 15  1  0
  2  3  1  0
  2  5  1  0
  3  6  1  0
  3  7  1  0
  3  8  1  0
  9 10  1  0
  9 16  1  0
  9 17  1  0
 10 11  1  0
 10 18  1  0
 10 19  1  0
 11 12  1  0
 11 20  1  0
 11 21  1  0
 12 13  1  0
 13 14  2  0
 13 22  1  0
M  RAD  1   9   2
M  END
>  <reaction>  (9) 
rmg_rxn_1449

>  <mol_properties>  (9) 
{"0": {"label": "*3", "atom_type": "Cd"}, "1": {"label": "*4", "atom_type": "Cd"}, "8": {"label": "*1", "atom_type": "Cs"}, "9": {"label": "*0", "atom_type": "Cs"}, "14": {"label": "*2", "atom_type": "H0"}}

>  <type>  (9) 
unop_5

>  <geom_source>  (9) 
Heuristics

$$$$

     RDKit          3D

 22 20  0  0  0  0  0  0  0  0999 V2000
    1.9460    1.6111    0.2506 C   0  0  0  0  0  0  0  0  0  0  0  0
    2.2219    0.7521   -0.7181 C   0  0  0  0  0  0  0  0  0  0  0  0
    3.5960    0.3923   -1.1836 C   0  0  0  0  0  0  0  0  0  0  0  0
    2.7328    2.1287    0.7891 H   0  0  0  0  0  0  0  0  0  0  0  0
    1.3998    0.2576   -1.2292 H   0  0  0  0  0  0  0  0  0  0  0  0
    3.7762   -0.6800   -1.0713 H   0  0  0  0  0  0  0  0  0  0  0  0
    4.3608    0.9299   -0.6217 H   0  0  0  0  0  0  0  0  0  0  0  0
    3.7206    0.6249   -2.2443 H   0  0  0  0  0  0  0  0  0  0  0  0
   -0.1385    1.3079    1.7920 C   0  0  0  0  0  3  0  0  0  0  0  0
   -1.4247    1.3192    0.9765 C   0  0  0  0  0  0  0  0  0  0  0  0
   -1.4804    0.2359   -0.0768 C   0  0  0  0  0  0  0  0  0  0  0  0
   -1.4809   -1.0384    0.5887 O   0  0  0  0  0  0  0  0  0  0  0  0
   -1.4809   -2.1129   -0.1923 C   0  0  0  0  0  0  0  0  0  0  0  0
   -1.4809   -2.1129   -1.3883 O   0  0  0  0  0  0  0  0  0  0  0  0
    0.9084    1.4602    1.0179 H   0  0  0  0  0  0  0  0  0  0  0  0
   -0.0244    0.3663    2.3299 H   0  0  0  0  0  0  0  0  0  0  0  0
   -0.1342    2.1165    2.5237 H   0  0  0  0  0  0  0  0  0  0  0  0
   -1.5322    2.2770    0.4605 H   0  0  0  0  0  0  0  0  0  0  0  0
   -2.2914    1.2189    1.6346 H   0  0  0  0  0  0  0  0  0  0  0  0
   -2.3826    0.3108   -0.6862 H   0  0  0  0  0  0  0  0  0  0  0  0
   -0.6183    0.2808   -0.7462 H   0  0  0  0  0  0  0  0  0  0  0  0
   -1.4814   -3.0169    0.4320 H   0  0  0  0  0  0  0  0  0  0  0  0
  1  2  2  3
  1  4  1  0
  1 15  1  0
  2  3  1  0
  2  5  1  0
  3  6  1  0
  3  7  1  0
  3  8  1  0
  9 10  1  0
  9 16  1  0
  9 17  1  0
 10 11  1  0
 10 18  1  0
 10 19  1  0
 11 12  1  0
 11 20  1  0
 11 21  1  0
 12 13  1  0
 13 14  2  0
 13 22  1  0
M  RAD  1   9   2
M  END
>  <reaction>  (10) 
rmg_rxn_1449

>  <mol_properties>  (10) 
{"0": {"label": "*3", "atom_type": "Cd"}, "1": {"label": "*4", "atom_type": "Cd"}, "8": {"label": "*1", "atom_type": "Cs"}, "9": {"label": "*0", "atom_type": "Cs"}, "14": {"label": "*2", "atom_type": "H0"}}

>  <type>  (10) 
unop_6

>  <geom_source>  (10) 
Heuristics

$$$$

     RDKit          3D

 22 20  0  0  0  0  0  0  0  0999 V2000
    2.2703    0.8885    0.2053 C   0  0  0  0  0  0  0  0  0  0  0  0
    2.2399   -0.3893   -0.0813 C   0  0  0  0  0  0  0  0  0  0  0  0
    3.3802   -1.3449    0.1311 C   0  0  0  0  0  0  0  0  0  0  0  0
    3.1096    1.4190    0.6223 H   0  0  0  0  0  0  0  0  0  0  0  0
    1.3520   -0.8466   -0.4999 H   0  0  0  0  0  0  0  0  0  0  0  0
    3.0649   -2.1519    0.7910 H   0  0  0  0  0  0  0  0  0  0  0  0
    4.2400   -0.8418    0.5675 H   0  0  0  0  0  0  0  0  0  0  0  0
    3.6712   -1.7861   -0.8212 H   0  0  0  0  0  0  0  0  0  0  0  0
    0.1888    2.3929   -0.2755 C   0  0  0  0  0  3  0  0  0  0  0  0
   -0.9711    1.4715   -0.5462 C   0  0  0  0  0  0  0  0  0  0  0  0
   -1.3250    0.6534    0.6943 C   0  0  0  0  0  0  0  0  0  0  0  0
   -2.3953   -0.2641    0.4319 O   0  0  0  0  0  0  0  0  0  0  0  0
   -2.0772   -1.4116   -0.1303 C   0  0  0  0  0  0  0  0  0  0  0  0
   -0.9845   -1.7886   -0.4388 O   0  0  0  0  0  0  0  0  0  0  0  0
    1.2393    1.6451   -0.0240 H   0  0  0  0  0  0  0  0  0  0  0  0
    0.0514    3.0122    0.6039 H   0  0  0  0  0  0  0  0  0  0  0  0
    0.4658    2.9848   -1.1396 H   0  0  0  0  0  0  0  0  0  0  0  0
   -0.7156    0.7883   -1.3598 H   0  0  0  0  0  0  0  0  0  0  0  0
   -1.8569    2.0393   -0.8568 H   0  0  0  0  0  0  0  0  0  0  0  0
   -0.4480    0.0929    1.0329 H   0  0  0  0  0  0  0  0  0  0  0  0
   -1.6877    1.2971    1.4977 H   0  0  0  0  0  0  0  0  0  0  0  0
   -2.9984   -2.0032   -0.2731 H   0  0  0  0  0  0  0  0  0  0  0  0
  1  2  2  3
  1  4  1  0
  1 15  1  0
  2  3  1  0
  2  5  1  0
  3  6  1  0
  3  7  1  0
  3  8  1  0
  9 10  1  0
  9 16  1  0
  9 17  1  0
 10 11  1  0
 10 18  1  0
 10 19  1  0
 11 12  1  0
 11 20  1  0
 11 21  1  0
 12 13  1  0
 13 14  2  0
 13 22  1  0
M  RAD  1   9   2
M  END
>  <reaction>  (11) 
rmg_rxn_1449

>  <mol_properties>  (11) 
{"0": {"label": "*3", "atom_type": "Cd"}, "1": {"label": "*4", "atom_type": "Cd"}, "8": {"label": "*1", "atom_type": "Cs"}, "9": {"label": "*0", "atom_type": "Cs"}, "14": {"label": "*2", "atom_type": "H0"}}

>  <type>  (11) 
unop_7

>  <geom_source>  (11) 
Heuristics

$$$$

     RDKit          3D

 22 20  0  0  0  0  0  0  0  0999 V2000
    1.7546    1.3553   -0.0252 C   0  0  0  0  0  0  0  0  0  0  0  0
    2.9830    1.3766    0.4675 C   0  0  0  0  0  0  0  0  0  0  0  0
    4.2306    1.5450   -0.3384 C   0  0  0  0  0  0  0  0  0  0  0  0
    1.5693    1.4632   -1.0888 H   0  0  0  0  0  0  0  0  0  0  0  0
    3.1189    1.2646    1.5401 H   0  0  0  0  0  0  0  0  0  0  0  0
    4.7869    2.4282   -0.0140 H   0  0  0  0  0  0  0  0  0  0  0  0
    4.0077    1.6505   -1.4009 H   0  0  0  0  0  0  0  0  0  0  0  0
    4.8955    0.6871   -0.2096 H   0  0  0  0  0  0  0  0  0  0  0  0
   -0.3300    1.0521    1.5162 C   0  0  0  0  0  3  0  0  0  0  0  0
   -1.6161    1.0634    0.7006 C   0  0  0  0  0  0  0  0  0  0  0  0
   -1.6719   -0.0199   -0.3526 C   0  0  0  0  0  0  0  0  0  0  0  0
   -1.6723   -1.2942    0.3128 O   0  0  0  0  0  0  0  0  0  0  0  0
   -1.6723   -2.3687   -0.4681 C   0  0  0  0  0  0  0  0  0  0  0  0
   -1.6723   -2.3687   -1.6641 O   0  0  0  0  0  0  0  0  0  0  0  0
    0.7169    1.2044    0.7420 H   0  0  0  0  0  0  0  0  0  0  0  0
   -0.2159    0.1105    2.0541 H   0  0  0  0  0  0  0  0  0  0  0  0
   -0.3257    1.8607    2.2478 H   0  0  0  0  0  0  0  0  0  0  0  0
   -1.7237    2.0212    0.1847 H   0  0  0  0  0  0  0  0  0  0  0  0
   -2.4828    0.9631    1.3588 H   0  0  0  0  0  0  0  0  0  0  0  0
   -2.5741    0.0550   -0.9620 H   0  0  0  0  0  0  0  0  0  0  0  0
   -0.8097    0.0250   -1.0220 H   0  0  0  0  0  0  0  0  0  0  0  0
   -1.6728   -3.2727    0.1561 H   0  0  0  0  0  0  0  0  0  0  0  0
  1  2  2  3
  1  4  1  0
  1 15  1  0
  2  3  1  0
  2  5  1  0
  3  6  1  0
  3  7  1  0
  3  8  1  0
  9 10  1  0
  9 16  1  0
  9 17  1  0
 10 11  1  0
 10 18  1  0
 10 19  1  0
 11 12  1  0
 11 20  1  0
 11 21  1  0
 12 13  1  0
 13 14  2  0
 13 22  1  0
M  RAD  1   9   2
M  END
>  <reaction>  (12) 
rmg_rxn_1449

>  <mol_properties>  (12) 
{"0": {"label": "*3", "atom_type": "Cd"}, "1": {"label": "*4", "atom_type": "Cd"}, "8": {"label": "*1", "atom_type": "Cs"}, "9": {"label": "*0", "atom_type": "Cs"}, "14": {"label": "*2", "atom_type": "H0"}}

>  <type>  (12) 
unop_8

>  <geom_source>  (12) 
Heuristics

$$$$

     RDKit          3D

 22 20  0  0  0  0  0  0  0  0999 V2000
    2.2705    0.8882   -0.2053 C   0  0  0  0  0  0  0  0  0  0  0  0
    2.2403   -0.3896    0.0814 C   0  0  0  0  0  0  0  0  0  0  0  0
    3.3807   -1.3451   -0.1313 C   0  0  0  0  0  0  0  0  0  0  0  0
    3.1095    1.4188   -0.6225 H   0  0  0  0  0  0  0  0  0  0  0  0
    1.3524   -0.8471    0.4998 H   0  0  0  0  0  0  0  0  0  0  0  0
    3.6716   -1.7872    0.8205 H   0  0  0  0  0  0  0  0  0  0  0  0
    4.2406   -0.8416   -0.5672 H   0  0  0  0  0  0  0  0  0  0  0  0
    3.0653   -2.1514   -0.7920 H   0  0  0  0  0  0  0  0  0  0  0  0
    0.1890    2.3927    0.2760 C   0  0  0  0  0  3  0  0  0  0  0  0
   -0.9710    1.4713    0.5462 C   0  0  0  0  0  0  0  0  0  0  0  0
   -1.3245    0.6534   -0.6945 C   0  0  0  0  0  0  0  0  0  0  0  0
   -2.3952   -0.2638   -0.4328 O   0  0  0  0  0  0  0  0  0  0  0  0
   -2.0779   -1.4112    0.1301 C   0  0  0  0  0  0  0  0  0  0  0  0
   -0.9855   -1.7883    0.4397 O   0  0  0  0  0  0  0  0  0  0  0  0
    1.2394    1.6448    0.0243 H   0  0  0  0  0  0  0  0  0  0  0  0
    0.4661    2.9843    1.1403 H   0  0  0  0  0  0  0  0  0  0  0  0
    0.0518    3.0123   -0.6033 H   0  0  0  0  0  0  0  0  0  0  0  0
   -1.8568    2.0392    0.8565 H   0  0  0  0  0  0  0  0  0  0  0  0
   -0.7158    0.7880    1.3598 H   0  0  0  0  0  0  0  0  0  0  0  0
   -1.6867    1.2972   -1.4981 H   0  0  0  0  0  0  0  0  0  0  0  0
   -0.4475    0.0926   -1.0326 H   0  0  0  0  0  0  0  0  0  0  0  0
   -2.9993   -2.0024    0.2728 H   0  0  0  0  0  0  0  0  0  0  0  0
  1  2  2  3
  1  4  1  0
  1 15  1  0
  2  3  1  0
  2  5  1  0
  3  6  1  0
  3  7  1  0
  3  8  1  0
  9 10  1  0
  9 16  1  0
  9 17  1  0
 10 11  1  0
 10 18  1  0
 10 19  1  0
 11 12  1  0
 11 20  1  0
 11 21  1  0
 12 13  1  0
 13 14  2  0
 13 22  1  0
M  RAD  1   9   2
M  END
>  <reaction>  (13) 
rmg_rxn_1449

>  <mol_properties>  (13) 
{"0": {"label": "*3", "atom_type": "Cd"}, "1": {"label": "*4", "atom_type": "Cd"}, "8": {"label": "*1", "atom_type": "Cs"}, "9": {"label": "*0", "atom_type": "Cs"}, "14": {"label": "*2", "atom_type": "H0"}}

>  <type>  (13) 
unop_9

>  <geom_source>  (13) 
Heuristics

$$$$

     RDKit          3D

 22 20  0  0  0  0  0  0  0  0999 V2000
    1.8573    1.6254    0.1112 C   0  0  0  0  0  0  0  0  0  0  0  0
    2.4802    0.5869   -0.4235 C   0  0  0  0  0  0  0  0  0  0  0  0
    3.9635    0.4294   -0.5199 C   0  0  0  0  0  0  0  0  0  0  0  0
    2.4076    2.4613    0.5300 H   0  0  0  0  0  0  0  0  0  0  0  0
    1.8861   -0.2272   -0.8307 H   0  0  0  0  0  0  0  0  0  0  0  0
    4.2937   -0.4719    0.0030 H   0  0  0  0  0  0  0  0  0  0  0  0
    4.4841    1.2861   -0.0902 H   0  0  0  0  0  0  0  0  0  0  0  0
    4.2764    0.3234   -1.5618 H   0  0  0  0  0  0  0  0  0  0  0  0
   -0.2273    1.3221    1.6526 C   0  0  0  0  0  3  0  0  0  0  0  0
   -1.5134    1.3334    0.8371 C   0  0  0  0  0  0  0  0  0  0  0  0
   -1.5692    0.2501   -0.2162 C   0  0  0  0  0  0  0  0  0  0  0  0
   -1.5696   -1.0241    0.4493 O   0  0  0  0  0  0  0  0  0  0  0  0
   -1.5696   -2.0987   -0.3317 C   0  0  0  0  0  0  0  0  0  0  0  0
   -1.5696   -2.0987   -1.5277 O   0  0  0  0  0  0  0  0  0  0  0  0
    0.8197    1.4744    0.8785 H   0  0  0  0  0  0  0  0  0  0  0  0
   -0.1131    0.3806    2.1905 H   0  0  0  0  0  0  0  0  0  0  0  0
   -0.2229    2.1307    2.3843 H   0  0  0  0  0  0  0  0  0  0  0  0
   -1.6210    2.2913    0.3211 H   0  0  0  0  0  0  0  0  0  0  0  0
   -2.3801    1.2331    1.4952 H   0  0  0  0  0  0  0  0  0  0  0  0
   -2.4714    0.3250   -0.8255 H   0  0  0  0  0  0  0  0  0  0  0  0
   -0.7070    0.2951   -0.8856 H   0  0  0  0  0  0  0  0  0  0  0  0
   -1.5701   -3.0026    0.2926 H   0  0  0  0  0  0  0  0  0  0  0  0
  1  2  2  3
  1  4  1  0
  1 15  1  0
  2  3  1  0
  2  5  1  0
  3  6  1  0
  3  7  1  0
  3  8  1  0
  9 10  1  0
  9 16  1  0
  9 17  1  0
 10 11  1  0
 10 18  1  0
 10 19  1  0
 11 12  1  0
 11 20  1  0
 11 21  1  0
 12 13  1  0
 13 14  2  0
 13 22  1  0
M  RAD  1   9   2
M  END
>  <reaction>  (14) 
rmg_rxn_1449

>  <mol_properties>  (14) 
{"0": {"label": "*3", "atom_type": "Cd"}, "1": {"label": "*4", "atom_type": "Cd"}, "8": {"label": "*1", "atom_type": "Cs"}, "9": {"label": "*0", "atom_type": "Cs"}, "14": {"label": "*2", "atom_type": "H0"}}

>  <type>  (14) 
unop_10

>  <geom_source>  (14) 
Heuristics

$$$$

     RDKit          3D

 22 20  0  0  0  0  0  0  0  0999 V2000
    2.2706   -0.8884    0.2044 C   0  0  0  0  0  0  0  0  0  0  0  0
    2.2402    0.3897   -0.0812 C   0  0  0  0  0  0  0  0  0  0  0  0
    3.3807    1.3450    0.1317 C   0  0  0  0  0  0  0  0  0  0  0  0
    3.1101   -1.4193    0.6203 H   0  0  0  0  0  0  0  0  0  0  0  0
    1.3520    0.8476   -0.4986 H   0  0  0  0  0  0  0  0  0  0  0  0
    3.0661    2.1504    0.7938 H   0  0  0  0  0  0  0  0  0  0  0  0
    3.6705    1.7883   -0.8200 H   0  0  0  0  0  0  0  0  0  0  0  0
    4.2412    0.8411    0.5659 H   0  0  0  0  0  0  0  0  0  0  0  0
    0.1888   -2.3927   -0.2758 C   0  0  0  0  0  3  0  0  0  0  0  0
   -0.9714   -1.4716   -0.5458 C   0  0  0  0  0  0  0  0  0  0  0  0
   -1.3243   -0.6531    0.6946 C   0  0  0  0  0  0  0  0  0  0  0  0
   -2.3951    0.2640    0.4329 O   0  0  0  0  0  0  0  0  0  0  0  0
   -2.0778    1.4112   -0.1304 C   0  0  0  0  0  0  0  0  0  0  0  0
   -0.9855    1.7883   -0.4401 O   0  0  0  0  0  0  0  0  0  0  0  0
    1.2395   -1.6450   -0.0251 H   0  0  0  0  0  0  0  0  0  0  0  0
    0.4654   -2.9846   -1.1400 H   0  0  0  0  0  0  0  0  0  0  0  0
    0.0521   -3.0120    0.6037 H   0  0  0  0  0  0  0  0  0  0  0  0
   -1.8573   -2.0396   -0.8555 H   0  0  0  0  0  0  0  0  0  0  0  0
   -0.7167   -0.7886   -1.3599 H   0  0  0  0  0  0  0  0  0  0  0  0
   -1.6862   -1.2967    1.4986 H   0  0  0  0  0  0  0  0  0  0  0  0
   -0.4471   -0.0924    1.0323 H   0  0  0  0  0  0  0  0  0  0  0  0
   -2.9992    2.0025   -0.2726 H   0  0  0  0  0  0  0  0  0  0  0  0
  1  2  2  3
  1  4  1  0
  1 15  1  0
  2  3  1  0
  2  5  1  0
  3  6  1  0
  3  7  1  0
  3  8  1  0
  9 10  1  0
  9 16  1  0
  9 17  1  0
 10 11  1  0
 10 18  1  0
 10 19  1  0
 11 12  1  0
 11 20  1  0
 11 21  1  0
 12 13  1  0
 13 14  2  0
 13 22  1  0
M  RAD  1   9   2
M  END
>  <reaction>  (15) 
rmg_rxn_1449

>  <mol_properties>  (15) 
{"0": {"label": "*3", "atom_type": "Cd"}, "1": {"label": "*4", "atom_type": "Cd"}, "8": {"label": "*1", "atom_type": "Cs"}, "9": {"label": "*0", "atom_type": "Cs"}, "14": {"label": "*2", "atom_type": "H0"}}

>  <type>  (15) 
unop_11

>  <geom_source>  (15) 
Heuristics

$$$$

     RDKit          3D

 22 20  0  0  0  0  0  0  0  0999 V2000
    1.7878    1.5461   -0.0077 C   0  0  0  0  0  0  0  0  0  0  0  0
    2.7391    0.6280   -0.0747 C   0  0  0  0  0  0  0  0  0  0  0  0
    4.2072    0.9051   -0.0294 C   0  0  0  0  0  0  0  0  0  0  0  0
    2.0246    2.6005    0.0882 H   0  0  0  0  0  0  0  0  0  0  0  0
    2.4529   -0.4163   -0.1704 H   0  0  0  0  0  0  0  0  0  0  0  0
    4.6746    0.3889    0.8131 H   0  0  0  0  0  0  0  0  0  0  0  0
    4.4086    1.9727    0.0671 H   0  0  0  0  0  0  0  0  0  0  0  0
    4.6995    0.5424   -0.9354 H   0  0  0  0  0  0  0  0  0  0  0  0
   -0.2967    1.2428    1.5337 C   0  0  0  0  0  3  0  0  0  0  0  0
   -1.5829    1.2542    0.7182 C   0  0  0  0  0  0  0  0  0  0  0  0
   -1.6386    0.1708   -0.3351 C   0  0  0  0  0  0  0  0  0  0  0  0
   -1.6391   -1.1034    0.3304 O   0  0  0  0  0  0  0  0  0  0  0  0
   -1.6391   -2.1779   -0.4506 C   0  0  0  0  0  0  0  0  0  0  0  0
   -1.6391   -2.1779   -1.6466 O   0  0  0  0  0  0  0  0  0  0  0  0
    0.7502    1.3951    0.7596 H   0  0  0  0  0  0  0  0  0  0  0  0
   -0.1826    0.3013    2.0716 H   0  0  0  0  0  0  0  0  0  0  0  0
   -0.2924    2.0515    2.2654 H   0  0  0  0  0  0  0  0  0  0  0  0
   -1.6904    2.2120    0.2022 H   0  0  0  0  0  0  0  0  0  0  0  0
   -2.4496    1.1538    1.3763 H   0  0  0  0  0  0  0  0  0  0  0  0
   -2.5408    0.2458   -0.9445 H   0  0  0  0  0  0  0  0  0  0  0  0
   -0.7765    0.2158   -1.0045 H   0  0  0  0  0  0  0  0  0  0  0  0
   -1.6396   -3.0819    0.1737 H   0  0  0  0  0  0  0  0  0  0  0  0
  1  2  2  3
  1  4  1  0
  1 15  1  0
  2  3  1  0
  2  5  1  0
  3  6  1  0
  3  7  1  0
  3  8  1  0
  9 10  1  0
  9 16  1  0
  9 17  1  0
 10 11  1  0
 10 18  1  0
 10 19  1  0
 11 12  1  0
 11 20  1  0
 11 21  1  0
 12 13  1  0
 13 14  2  0
 13 22  1  0
M  RAD  1   9   2
M  END
>  <reaction>  (16) 
rmg_rxn_1449

>  <mol_properties>  (16) 
{"0": {"label": "*3", "atom_type": "Cd"}, "1": {"label": "*4", "atom_type": "Cd"}, "8": {"label": "*1", "atom_type": "Cs"}, "9": {"label": "*0", "atom_type": "Cs"}, "14": {"label": "*2", "atom_type": "H0"}}

>  <type>  (16) 
unop_12

>  <geom_source>  (16) 
Heuristics

$$$$

     RDKit          3D

 22 20  0  0  0  0  0  0  0  0999 V2000
    1.8915    1.0765    0.0496 C   0  0  0  0  0  0  0  0  0  0  0  0
    2.3748    2.2759   -0.2338 C   0  0  0  0  0  0  0  0  0  0  0  0
    3.8260    2.6317   -0.2725 C   0  0  0  0  0  0  0  0  0  0  0  0
    2.5461    0.2427    0.2808 H   0  0  0  0  0  0  0  0  0  0  0  0
    1.6796    3.0806   -0.4591 H   0  0  0  0  0  0  0  0  0  0  0  0
    4.1091    3.0029   -1.2608 H   0  0  0  0  0  0  0  0  0  0  0  0
    4.4538    1.7718   -0.0357 H   0  0  0  0  0  0  0  0  0  0  0  0
    4.0502    3.4287    0.4411 H   0  0  0  0  0  0  0  0  0  0  0  0
   -0.1930    0.7732    1.5910 C   0  0  0  0  0  3  0  0  0  0  0  0
   -1.4792    0.7846    0.7754 C   0  0  0  0  0  0  0  0  0  0  0  0
   -1.5349   -0.2988   -0.2778 C   0  0  0  0  0  0  0  0  0  0  0  0
   -1.5353   -1.5730    0.3876 O   0  0  0  0  0  0  0  0  0  0  0  0
   -1.5353   -2.6475   -0.3933 C   0  0  0  0  0  0  0  0  0  0  0  0
   -1.5353   -2.6475   -1.5893 O   0  0  0  0  0  0  0  0  0  0  0  0
    0.8539    0.9255    0.8168 H   0  0  0  0  0  0  0  0  0  0  0  0
   -0.0789   -0.1683    2.1289 H   0  0  0  0  0  0  0  0  0  0  0  0
   -0.1887    1.5819    2.3226 H   0  0  0  0  0  0  0  0  0  0  0  0
   -1.5867    1.7424    0.2595 H   0  0  0  0  0  0  0  0  0  0  0  0
   -2.3458    0.6842    1.4336 H   0  0  0  0  0  0  0  0  0  0  0  0
   -2.4371   -0.2238   -0.8872 H   0  0  0  0  0  0  0  0  0  0  0  0
   -0.6728   -0.2538   -0.9473 H   0  0  0  0  0  0  0  0  0  0  0  0
   -1.5359   -3.5515    0.2309 H   0  0  0  0  0  0  0  0  0  0  0  0
  1  2  2  3
  1  4  1  0
  1 15  1  0
  2  3  1  0
  2  5  1  0
  3  6  1  0
  3  7  1  0
  3  8  1  0
  9 10  1  0
  9 16  1  0
  9 17  1  0
 10 11  1  0
 10 18  1  0
 10 19  1  0
 11 12  1  0
 11 20  1  0
 11 21  1  0
 12 13  1  0
 13 14  2  0
 13 22  1  0
M  RAD  1   9   2
M  END
>  <reaction>  (17) 
rmg_rxn_1449

>  <mol_properties>  (17) 
{"0": {"label": "*3", "atom_type": "Cd"}, "1": {"label": "*4", "atom_type": "Cd"}, "8": {"label": "*1", "atom_type": "Cs"}, "9": {"label": "*0", "atom_type": "Cs"}, "14": {"label": "*2", "atom_type": "H0"}}

>  <type>  (17) 
unop_13

>  <geom_source>  (17) 
Heuristics

$$$$

     RDKit          3D

 22 20  0  0  0  0  0  0  0  0999 V2000
    2.2706   -0.8884   -0.2046 C   0  0  0  0  0  0  0  0  0  0  0  0
    2.2402    0.3897    0.0811 C   0  0  0  0  0  0  0  0  0  0  0  0
    3.3808    1.3450   -0.1316 C   0  0  0  0  0  0  0  0  0  0  0  0
    3.1101   -1.4193   -0.6205 H   0  0  0  0  0  0  0  0  0  0  0  0
    1.3522    0.8475    0.4989 H   0  0  0  0  0  0  0  0  0  0  0  0
    3.6708    1.7880    0.8202 H   0  0  0  0  0  0  0  0  0  0  0  0
    3.0661    2.1506   -0.7934 H   0  0  0  0  0  0  0  0  0  0  0  0
    4.2411    0.8411   -0.5662 H   0  0  0  0  0  0  0  0  0  0  0  0
    0.1889   -2.3926    0.2758 C   0  0  0  0  0  3  0  0  0  0  0  0
   -0.9713   -1.4715    0.5459 C   0  0  0  0  0  0  0  0  0  0  0  0
   -1.3245   -0.6532   -0.6946 C   0  0  0  0  0  0  0  0  0  0  0  0
   -2.3952    0.2640   -0.4328 O   0  0  0  0  0  0  0  0  0  0  0  0
   -2.0778    1.4112    0.1304 C   0  0  0  0  0  0  0  0  0  0  0  0
   -0.9855    1.7883    0.4400 O   0  0  0  0  0  0  0  0  0  0  0  0
    1.2394   -1.6449    0.0246 H   0  0  0  0  0  0  0  0  0  0  0  0
    0.0519   -3.0121   -0.6035 H   0  0  0  0  0  0  0  0  0  0  0  0
    0.4657   -2.9844    1.1401 H   0  0  0  0  0  0  0  0  0  0  0  0
   -0.7163   -0.7884    1.3598 H   0  0  0  0  0  0  0  0  0  0  0  0
   -1.8571   -2.0395    0.8559 H   0  0  0  0  0  0  0  0  0  0  0  0
   -0.4474   -0.0925   -1.0325 H   0  0  0  0  0  0  0  0  0  0  0  0
   -1.6865   -1.2968   -1.4985 H   0  0  0  0  0  0  0  0  0  0  0  0
   -2.9992    2.0026    0.2725 H   0  0  0  0  0  0  0  0  0  0  0  0
  1  2  2  3
  1  4  1  0
  1 15  1  0
  2  3  1  0
  2  5  1  0
  3  6  1  0
  3  7  1  0
  3  8  1  0
  9 10  1  0
  9 16  1  0
  9 17  1  0
 10 11  1  0
 10 18  1  0
 10 19  1  0
 11 12  1  0
 11 20  1  0
 11 21  1  0
 12 13  1  0
 13 14  2  0
 13 22  1  0
M  RAD  1   9   2
M  END
>  <reaction>  (18) 
rmg_rxn_1449

>  <mol_properties>  (18) 
{"0": {"label": "*3", "atom_type": "Cd"}, "1": {"label": "*4", "atom_type": "Cd"}, "8": {"label": "*1", "atom_type": "Cs"}, "9": {"label": "*0", "atom_type": "Cs"}, "14": {"label": "*2", "atom_type": "H0"}}

>  <type>  (18) 
unop_14

>  <geom_source>  (18) 
Heuristics

$$$$

     RDKit          3D

 22 20  0  0  0  0  0  0  0  0999 V2000
    2.0238    1.5002    0.3570 C   0  0  0  0  0  0  0  0  0  0  0  0
    2.0269    1.0724   -0.8957 C   0  0  0  0  0  0  0  0  0  0  0  0
    3.2495    0.8537   -1.7273 C   0  0  0  0  0  0  0  0  0  0  0  0
    2.9468    1.7281    0.8796 H   0  0  0  0  0  0  0  0  0  0  0  0
    1.0767    0.8569   -1.3777 H   0  0  0  0  0  0  0  0  0  0  0  0
    3.3126   -0.1854   -2.0604 H   0  0  0  0  0  0  0  0  0  0  0  0
    4.1574    1.0921   -1.1717 H   0  0  0  0  0  0  0  0  0  0  0  0
    3.2238    1.4736   -2.6272 H   0  0  0  0  0  0  0  0  0  0  0  0
   -0.0608    1.1969    1.8985 C   0  0  0  0  0  3  0  0  0  0  0  0
   -1.3469    1.2083    1.0829 C   0  0  0  0  0  0  0  0  0  0  0  0
   -1.4027    0.1249    0.0297 C   0  0  0  0  0  0  0  0  0  0  0  0
   -1.4031   -1.1493    0.6951 O   0  0  0  0  0  0  0  0  0  0  0  0
   -1.4031   -2.2238   -0.0858 C   0  0  0  0  0  0  0  0  0  0  0  0
   -1.4031   -2.2238   -1.2818 O   0  0  0  0  0  0  0  0  0  0  0  0
    0.9861    1.3492    1.1243 H   0  0  0  0  0  0  0  0  0  0  0  0
    0.0534    0.2554    2.4364 H   0  0  0  0  0  0  0  0  0  0  0  0
   -0.0565    2.0056    2.6301 H   0  0  0  0  0  0  0  0  0  0  0  0
   -1.4545    2.1661    0.5670 H   0  0  0  0  0  0  0  0  0  0  0  0
   -2.2136    1.1079    1.7410 H   0  0  0  0  0  0  0  0  0  0  0  0
   -2.3049    0.1998   -0.5797 H   0  0  0  0  0  0  0  0  0  0  0  0
   -0.5405    0.1699   -0.6398 H   0  0  0  0  0  0  0  0  0  0  0  0
   -1.4036   -3.1278    0.5384 H   0  0  0  0  0  0  0  0  0  0  0  0
  1  2  2  3
  1  4  1  0
  1 15  1  0
  2  3  1  0
  2  5  1  0
  3  6  1  0
  3  7  1  0
  3  8  1  0
  9 10  1  0
  9 16  1  0
  9 17  1  0
 10 11  1  0
 10 18  1  0
 10 19  1  0
 11 12  1  0
 11 20  1  0
 11 21  1  0
 12 13  1  0
 13 14  2  0
 13 22  1  0
M  RAD  1   9   2
M  END
>  <reaction>  (19) 
rmg_rxn_1449

>  <mol_properties>  (19) 
{"0": {"label": "*3", "atom_type": "Cd"}, "1": {"label": "*4", "atom_type": "Cd"}, "8": {"label": "*1", "atom_type": "Cs"}, "9": {"label": "*0", "atom_type": "Cs"}, "14": {"label": "*2", "atom_type": "H0"}}

>  <type>  (19) 
unop_15

>  <geom_source>  (19) 
Heuristics

$$$$

     RDKit          3D

 22 20  0  0  0  0  0  0  0  0999 V2000
    1.9798    1.0704    0.1899 C   0  0  0  0  0  0  0  0  0  0  0  0
    2.1347    2.1494   -0.5611 C   0  0  0  0  0  0  0  0  0  0  0  0
    3.4476    2.7692   -0.9166 C   0  0  0  0  0  0  0  0  0  0  0  0
    2.8316    0.5471    0.6115 H   0  0  0  0  0  0  0  0  0  0  0  0
    1.2511    2.6398   -0.9616 H   0  0  0  0  0  0  0  0  0  0  0  0
    3.5852    2.7938   -2.0007 H   0  0  0  0  0  0  0  0  0  0  0  0
    4.2803    2.2188   -0.4770 H   0  0  0  0  0  0  0  0  0  0  0  0
    3.4964    3.8039   -0.5677 H   0  0  0  0  0  0  0  0  0  0  0  0
   -0.1048    0.7671    1.7313 C   0  0  0  0  0  3  0  0  0  0  0  0
   -1.3909    0.7785    0.9157 C   0  0  0  0  0  0  0  0  0  0  0  0
   -1.4467   -0.3049   -0.1375 C   0  0  0  0  0  0  0  0  0  0  0  0
   -1.4471   -1.5791    0.5279 O   0  0  0  0  0  0  0  0  0  0  0  0
   -1.4471   -2.6536   -0.2530 C   0  0  0  0  0  0  0  0  0  0  0  0
   -1.4471   -2.6536   -1.4490 O   0  0  0  0  0  0  0  0  0  0  0  0
    0.9421    0.9194    0.9571 H   0  0  0  0  0  0  0  0  0  0  0  0
    0.0093   -0.1744    2.2692 H   0  0  0  0  0  0  0  0  0  0  0  0
   -0.1005    1.5758    2.4629 H   0  0  0  0  0  0  0  0  0  0  0  0
   -1.4985    1.7363    0.3998 H   0  0  0  0  0  0  0  0  0  0  0  0
   -2.2576    0.6781    1.5739 H   0  0  0  0  0  0  0  0  0  0  0  0
   -2.3489   -0.2300   -0.7469 H   0  0  0  0  0  0  0  0  0  0  0  0
   -0.5845   -0.2599   -0.8070 H   0  0  0  0  0  0  0  0  0  0  0  0
   -1.4476   -3.5576    0.3712 H   0  0  0  0  0  0  0  0  0  0  0  0
  1  2  2  3
  1  4  1  0
  1 15  1  0
  2  3  1  0
  2  5  1  0
  3  6  1  0
  3  7  1  0
  3  8  1  0
  9 10  1  0
  9 16  1  0
  9 17  1  0
 10 11  1  0
 10 18  1  0
 10 19  1  0
 11 12  1  0
 11 20  1  0
 11 21  1  0
 12 13  1  0
 13 14  2  0
 13 22  1  0
M  RAD  1   9   2
M  END
>  <reaction>  (20) 
rmg_rxn_1449

>  <mol_properties>  (20) 
{"0": {"label": "*3", "atom_type": "Cd"}, "1": {"label": "*4", "atom_type": "Cd"}, "8": {"label": "*1", "atom_type": "Cs"}, "9": {"label": "*0", "atom_type": "Cs"}, "14": {"label": "*2", "atom_type": "H0"}}

>  <type>  (20) 
unop_16

>  <geom_source>  (20) 
Heuristics

$$$$

     RDKit          3D

 22 20  0  0  0  0  0  0  0  0999 V2000
    1.7570    1.4169   -0.0542 C   0  0  0  0  0  0  0  0  0  0  0  0
    2.9299    0.8867    0.2549 C   0  0  0  0  0  0  0  0  0  0  0  0
    4.2564    1.5312    0.0120 C   0  0  0  0  0  0  0  0  0  0  0  0
    1.6827    2.3928   -0.5224 H   0  0  0  0  0  0  0  0  0  0  0  0
    2.9540   -0.0940    0.7231 H   0  0  0  0  0  0  0  0  0  0  0  0
    4.8031    1.6612    0.9495 H   0  0  0  0  0  0  0  0  0  0  0  0
    4.1445    2.5087   -0.4589 H   0  0  0  0  0  0  0  0  0  0  0  0
    4.8795    0.9072   -0.6339 H   0  0  0  0  0  0  0  0  0  0  0  0
   -0.3276    1.1137    1.4873 C   0  0  0  0  0  3  0  0  0  0  0  0
   -1.6137    1.1250    0.6717 C   0  0  0  0  0  0  0  0  0  0  0  0
   -1.6695    0.0417   -0.3815 C   0  0  0  0  0  0  0  0  0  0  0  0
   -1.6699   -1.2326    0.2839 O   0  0  0  0  0  0  0  0  0  0  0  0
   -1.6699   -2.3071   -0.4970 C   0  0  0  0  0  0  0  0  0  0  0  0
   -1.6699   -2.3071   -1.6930 O   0  0  0  0  0  0  0  0  0  0  0  0
    0.7193    1.2660    0.7131 H   0  0  0  0  0  0  0  0  0  0  0  0
   -0.2134    0.1721    2.0252 H   0  0  0  0  0  0  0  0  0  0  0  0
   -0.3233    1.9223    2.2189 H   0  0  0  0  0  0  0  0  0  0  0  0
   -1.7213    2.0828    0.1558 H   0  0  0  0  0  0  0  0  0  0  0  0
   -2.4804    1.0247    1.3298 H   0  0  0  0  0  0  0  0  0  0  0  0
   -2.5717    0.1166   -0.9909 H   0  0  0  0  0  0  0  0  0  0  0  0
   -0.8073    0.0866   -1.0510 H   0  0  0  0  0  0  0  0  0  0  0  0
   -1.6704   -3.2111    0.1272 H   0  0  0  0  0  0  0  0  0  0  0  0
  1  2  2  3
  1  4  1  0
  1 15  1  0
  2  3  1  0
  2  5  1  0
  3  6  1  0
  3  7  1  0
  3  8  1  0
  9 10  1  0
  9 16  1  0
  9 17  1  0
 10 11  1  0
 10 18  1  0
 10 19  1  0
 11 12  1  0
 11 20  1  0
 11 21  1  0
 12 13  1  0
 13 14  2  0
 13 22  1  0
M  RAD  1   9   2
M  END
>  <reaction>  (21) 
rmg_rxn_1449

>  <mol_properties>  (21) 
{"0": {"label": "*3", "atom_type": "Cd"}, "1": {"label": "*4", "atom_type": "Cd"}, "8": {"label": "*1", "atom_type": "Cs"}, "9": {"label": "*0", "atom_type": "Cs"}, "14": {"label": "*2", "atom_type": "H0"}}

>  <type>  (21) 
unop_17

>  <geom_source>  (21) 
Heuristics

$$$$

     RDKit          3D

 22 20  0  0  0  0  0  0  0  0999 V2000
    2.0617    1.3284    0.3848 C   0  0  0  0  0  0  0  0  0  0  0  0
    1.9394    1.4680   -0.9258 C   0  0  0  0  0  0  0  0  0  0  0  0
    3.0746    1.6462   -1.8818 C   0  0  0  0  0  0  0  0  0  0  0  0
    3.0338    1.3350    0.8665 H   0  0  0  0  0  0  0  0  0  0  0  0
    0.9444    1.4550   -1.3631 H   0  0  0  0  0  0  0  0  0  0  0  0
    3.0857    0.8456   -2.6259 H   0  0  0  0  0  0  0  0  0  0  0  0
    4.0348    1.6481   -1.3646 H   0  0  0  0  0  0  0  0  0  0  0  0
    2.9771    2.5867   -2.4303 H   0  0  0  0  0  0  0  0  0  0  0  0
   -0.0228    1.0252    1.9263 C   0  0  0  0  0  3  0  0  0  0  0  0
   -1.3090    1.0365    1.1107 C   0  0  0  0  0  0  0  0  0  0  0  0
   -1.3647   -0.0468    0.0575 C   0  0  0  0  0  0  0  0  0  0  0  0
   -1.3652   -1.3211    0.7229 O   0  0  0  0  0  0  0  0  0  0  0  0
   -1.3652   -2.3956   -0.0580 C   0  0  0  0  0  0  0  0  0  0  0  0
   -1.3652   -2.3956   -1.2540 O   0  0  0  0  0  0  0  0  0  0  0  0
    1.0241    1.1775    1.1521 H   0  0  0  0  0  0  0  0  0  0  0  0
    0.0913    0.0836    2.4642 H   0  0  0  0  0  0  0  0  0  0  0  0
   -0.0185    1.8338    2.6579 H   0  0  0  0  0  0  0  0  0  0  0  0
   -1.4165    1.9943    0.5948 H   0  0  0  0  0  0  0  0  0  0  0  0
   -2.1757    0.9362    1.7688 H   0  0  0  0  0  0  0  0  0  0  0  0
   -2.2669    0.0281   -0.5519 H   0  0  0  0  0  0  0  0  0  0  0  0
   -0.5026   -0.0019   -0.6120 H   0  0  0  0  0  0  0  0  0  0  0  0
   -1.3657   -3.2996    0.5662 H   0  0  0  0  0  0  0  0  0  0  0  0
  1  2  2  3
  1  4  1  0
  1 15  1  0
  2  3  1  0
  2  5  1  0
  3  6  1  0
  3  7  1  0
  3  8  1  0
  9 10  1  0
  9 16  1  0
  9 17  1  0
 10 11  1  0
 10 18  1  0
 10 19  1  0
 11 12  1  0
 11 20  1  0
 11 21  1  0
 12 13  1  0
 13 14  2  0
 13 22  1  0
M  RAD  1   9   2
M  END
>  <reaction>  (22) 
rmg_rxn_1449

>  <mol_properties>  (22) 
{"0": {"label": "*3", "atom_type": "Cd"}, "1": {"label": "*4", "atom_type": "Cd"}, "8": {"label": "*1", "atom_type": "Cs"}, "9": {"label": "*0", "atom_type": "Cs"}, "14": {"label": "*2", "atom_type": "H0"}}

>  <type>  (22) 
unop_18

>  <geom_source>  (22) 
Heuristics

$$$$

     RDKit          3D

 22 20  0  0  0  0  0  0  0  0999 V2000
   -2.8098    0.8329   -0.4789 O   0  0  0  0  0  0  0  0  0  0  0  0
   -2.8016    1.7431    1.6518 O   0  0  0  0  0  0  0  0  0  0  0  0
   -1.6370   -1.0819    0.4867 C   0  0  0  0  0  0  0  0  0  0  0  0
   -2.9571   -0.5217   -0.0534 C   0  0  0  0  0  0  0  0  0  0  0  0
    4.0435    0.6501    0.1059 C   0  0  0  0  0  0  0  0  0  0  0  0
    2.8107   -0.1839    0.2670 C   0  0  0  0  0  0  0  0  0  0  0  0
   -0.5474   -1.0945   -0.5797 C   0  0  0  0  0  3  0  0  0  0  0  0
    1.8861   -0.2428   -0.6932 C   0  0  0  0  0  0  0  0  0  0  0  0
   -2.7157    1.9115    0.4060 C   0  0  0  0  0  0  0  0  0  0  0  0
   -1.2918   -0.4802    1.3535 H   0  0  0  0  0  0  0  0  0  0  0  0
   -1.8019   -2.1228    0.8377 H   0  0  0  0  0  0  0  0  0  0  0  0
   -3.7457   -0.5919    0.7272 H   0  0  0  0  0  0  0  0  0  0  0  0
   -3.2887   -1.1335   -0.9194 H   0  0  0  0  0  0  0  0  0  0  0  0
    3.7647    1.7161   -0.0330 H   0  0  0  0  0  0  0  0  0  0  0  0
    4.6773    0.5601    1.0127 H   0  0  0  0  0  0  0  0  0  0  0  0
    4.6245    0.3022   -0.7743 H   0  0  0  0  0  0  0  0  0  0  0  0
    2.6651   -0.7516    1.1808 H   0  0  0  0  0  0  0  0  0  0  0  0
   -0.8531   -1.7135   -1.4500 H   0  0  0  0  0  0  0  0  0  0  0  0
   -0.3041   -0.0629   -0.9115 H   0  0  0  0  0  0  0  0  0  0  0  0
    2.0046    0.3141   -1.6180 H   0  0  0  0  0  0  0  0  0  0  0  0
    0.8508   -0.9576   -0.5306 H   0  0  0  0  0  0  0  0  0  0  0  0
   -2.5736    2.9086    0.0127 H   0  0  0  0  0  0  0  0  0  0  0  0
  1  4  1  0
  1  9  1  0
  2  9  2  0
  3  7  1  0
  3  4  1  0
  3 10  1  0
  3 11  1  0
  4 12  1  0
  4 13  1  0
  5  6  1  0
  5 14  1  0
  5 15  1  0
  5 16  1  0
  6  8  2  3
  6 17  1  0
  7 18  1  0
  7 19  1  0
  8 20  1  0
  8 21  1  0
  9 22  1  0
M  RAD  1   7   2
M  END
>  <reaction>  (23) 
rmg_rxn_1449

>  <mol_properties>  (23) 
{"0": {"label": "*3", "atom_type": "Cd"}, "1": {"label": "*4", "atom_type": "Cd"}, "8": {"label": "*1", "atom_type": "Cs"}, "9": {"label": "*0", "atom_type": "Cs"}, "14": {"label": "*2", "atom_type": "H0"}}

>  <type>  (23) 
unop_19

>  <geom_source>  (23) 
AutoTST

$$$$

     RDKit          3D

 22 20  0  0  0  0  0  0  0  0999 V2000
    2.0448    1.1637    0.3193 C   0  0  0  0  0  0  0  0  0  0  0  0
    1.9781    1.8549   -0.8078 C   0  0  0  0  0  0  0  0  0  0  0  0
    3.1530    2.4003   -1.5535 C   0  0  0  0  0  0  0  0  0  0  0  0
    2.9960    0.9411    0.7912 H   0  0  0  0  0  0  0  0  0  0  0  0
    1.0021    2.0532   -1.2433 H   0  0  0  0  0  0  0  0  0  0  0  0
    3.1911    1.9963   -2.5684 H   0  0  0  0  0  0  0  0  0  0  0  0
    4.0908    2.1584   -1.0520 H   0  0  0  0  0  0  0  0  0  0  0  0
    3.0834    3.4870   -1.6479 H   0  0  0  0  0  0  0  0  0  0  0  0
   -0.0398    0.8605    1.8607 C   0  0  0  0  0  3  0  0  0  0  0  0
   -1.3259    0.8718    1.0451 C   0  0  0  0  0  0  0  0  0  0  0  0
   -1.3817   -0.2115   -0.0081 C   0  0  0  0  0  0  0  0  0  0  0  0
   -1.3821   -1.4858    0.6573 O   0  0  0  0  0  0  0  0  0  0  0  0
   -1.3821   -2.5603   -0.1236 C   0  0  0  0  0  0  0  0  0  0  0  0
   -1.3821   -2.5603   -1.3196 O   0  0  0  0  0  0  0  0  0  0  0  0
    1.0071    1.0128    1.0865 H   0  0  0  0  0  0  0  0  0  0  0  0
    0.0744   -0.0811    2.3986 H   0  0  0  0  0  0  0  0  0  0  0  0
   -0.0355    1.6691    2.5923 H   0  0  0  0  0  0  0  0  0  0  0  0
   -1.4335    1.8296    0.5292 H   0  0  0  0  0  0  0  0  0  0  0  0
   -2.1926    0.7715    1.7033 H   0  0  0  0  0  0  0  0  0  0  0  0
   -2.2839   -0.1366   -0.6175 H   0  0  0  0  0  0  0  0  0  0  0  0
   -0.5195   -0.1666   -0.6776 H   0  0  0  0  0  0  0  0  0  0  0  0
   -1.3826   -3.4643    0.5006 H   0  0  0  0  0  0  0  0  0  0  0  0
  1  2  2  3
  1  4  1  0
  1 15  1  0
  2  3  1  0
  2  5  1  0
  3  6  1  0
  3  7  1  0
  3  8  1  0
  9 10  1  0
  9 16  1  0
  9 17  1  0
 10 11  1  0
 10 18  1  0
 10 19  1  0
 11 12  1  0
 11 20  1  0
 11 21  1  0
 12 13  1  0
 13 14  2  0
 13 22  1  0
M  RAD  1   9   2
M  END
>  <reaction>  (24) 
rmg_rxn_1449

>  <mol_properties>  (24) 
{"0": {"label": "*3", "atom_type": "Cd"}, "1": {"label": "*4", "atom_type": "Cd"}, "8": {"label": "*1", "atom_type": "Cs"}, "9": {"label": "*0", "atom_type": "Cs"}, "14": {"label": "*2", "atom_type": "H0"}}

>  <type>  (24) 
unop_20

>  <geom_source>  (24) 
gaussian_log

$$$$
