
     RDKit          3D

  9  8  0  0  0  0  0  0  0  0999 V2000
   -0.8818   -0.3578    0.1297 C   0  0  0  0  0  0  0  0  0  0  0  0
    0.6153   -0.3021   -0.1188 C   0  0  0  0  0  0  0  0  0  0  0  0
    1.5354   -1.7170    0.5545 S   0  0  0  0  0  0  0  0  0  0  0  0
   -1.1018   -0.3317    1.1984 H   0  0  0  0  0  0  0  0  0  0  0  0
   -1.3114   -1.2723   -0.2799 H   0  0  0  0  0  0  0  0  0  0  0  0
   -1.3767    0.4976   -0.3363 H   0  0  0  0  0  0  0  0  0  0  0  0
    1.0467    0.6194    0.2718 H   0  0  0  0  0  0  0  0  0  0  0  0
    0.8295   -0.3275   -1.1882 H   0  0  0  0  0  0  0  0  0  0  0  0
    1.2306   -1.5077    1.8423 H   0  0  0  0  0  0  0  0  0  0  0  0
  1  2  1  0
  1  4  1  0
  1  5  1  0
  1  6  1  0
  2  3  1  0
  2  7  1  0
  2  8  1  0
  3  9  1  0
M  END
>  <reaction>  (1) 
rmg_rxn_15588

>  <mol_properties>  (1) 
{"2": {"label": "donator", "atom_type": "S2s"}, "8": {"label": "d_hydrogen", "atom_type": "H0"}}

>  <type>  (1) 
r1h

$$$$

     RDKit          3D

  8  7  0  0  0  0  0  0  0  0999 V2000
    1.7077   -0.1964   -0.0607 C   0  0  0  0  0  3  0  0  0  0  0  0
    0.4209   -0.4565    0.2808 O   0  0  0  0  0  0  0  0  0  0  0  0
   -0.4607    0.4385   -0.2968 N   0  0  0  0  0  0  0  0  0  0  0  0
   -1.6584    0.1416   -0.0244 C   0  0  0  0  0  0  0  0  0  0  0  0
    2.4163   -0.7685    0.5170 H   0  0  0  0  0  0  0  0  0  0  0  0
    1.9214    0.7645   -0.5045 H   0  0  0  0  0  0  0  0  0  0  0  0
   -2.4185    0.7953   -0.4307 H   0  0  0  0  0  0  0  0  0  0  0  0
   -1.9286   -0.7185    0.5831 H   0  0  0  0  0  0  0  0  0  0  0  0
  1  2  1  0
  1  5  1  0
  1  6  1  0
  2  3  1  0
  3  4  2  3
  4  7  1  0
  4  8  1  0
M  RAD  1   1   2
M  END
>  <reaction>  (2) 
rmg_rxn_15588

>  <mol_properties>  (2) 
{"0": {"label": "acceptor", "atom_type": "Cs"}}

>  <type>  (2) 
r2

$$$$

     RDKit          3D

  9  8  0  0  0  0  0  0  0  0999 V2000
   -1.5470   -0.0755   -0.1976 C   0  0  0  0  0  0  0  0  0  0  0  0
   -0.2885    0.4507    0.1749 O   0  0  0  0  0  0  0  0  0  0  0  0
   -0.1502    1.7216   -0.3294 N   0  0  0  0  0  0  0  0  0  0  0  0
    0.9626    2.2353   -0.0219 C   0  0  0  0  0  0  0  0  0  0  0  0
   -1.6392   -0.1356   -1.2844 H   0  0  0  0  0  0  0  0  0  0  0  0
   -2.3597    0.5337    0.2044 H   0  0  0  0  0  0  0  0  0  0  0  0
   -1.5879   -1.0750    0.2318 H   0  0  0  0  0  0  0  0  0  0  0  0
    1.1497    3.2381   -0.3820 H   0  0  0  0  0  0  0  0  0  0  0  0
    1.7060    1.7101    0.5739 H   0  0  0  0  0  0  0  0  0  0  0  0
  1  2  1  0
  1  5  1  0
  1  6  1  0
  1  7  1  0
  2  3  1  0
  3  4  2  3
  4  8  1  0
  4  9  1  0
M  END
>  <reaction>  (3) 
rmg_rxn_15588

>  <mol_properties>  (3) 
{"0": {"label": "acceptor", "atom_type": "Cs"}, "8": {"label": "a_hydrogen", "atom_type": "H0"}}

>  <type>  (3) 
r2h

$$$$

     RDKit          3D

 17 15  0  0  0  0  0  0  0  0999 V2000
    0.8085    1.7021    0.2546 C   0  0  0  0  0  3  0  0  0  0  0  0
    1.2217    1.0087   -0.8440 O   0  0  0  0  0  0  0  0  0  0  0  0
    1.9370   -0.1262   -0.4876 N   0  0  0  0  0  0  0  0  0  0  0  0
    2.1914   -0.8379   -1.4990 C   0  0  0  0  0  0  0  0  0  0  0  0
    1.4388    1.5891    1.1314 H   0  0  0  0  0  0  0  0  0  0  0  0
    0.4934    2.7004   -0.0279 H   0  0  0  0  0  0  0  0  0  0  0  0
    2.7592   -1.7409   -1.3188 H   0  0  0  0  0  0  0  0  0  0  0  0
    1.8673   -0.5731   -2.5022 H   0  0  0  0  0  0  0  0  0  0  0  0
   -1.4362   -1.3477   -0.9398 C   0  0  0  0  0  0  0  0  0  0  0  0
   -1.2237   -1.2019    0.5579 C   0  0  0  0  0  0  0  0  0  0  0  0
   -1.7178    0.4139    1.2240 S   0  0  0  0  0  0  0  0  0  0  0  0
   -0.8565   -0.6033   -1.4879 H   0  0  0  0  0  0  0  0  0  0  0  0
   -2.4862   -1.2072   -1.1988 H   0  0  0  0  0  0  0  0  0  0  0  0
   -1.1275   -2.3414   -1.2763 H   0  0  0  0  0  0  0  0  0  0  0  0
   -0.1810   -1.3787    0.8247 H   0  0  0  0  0  0  0  0  0  0  0  0
   -1.8191   -1.9357    1.1038 H   0  0  0  0  0  0  0  0  0  0  0  0
   -0.4988    1.1200    0.7502 H   0  0  0  0  0  0  0  0  0  0  0  0
  1  2  1  0
  1  5  1  0
  1  6  1  0
  2  3  1  0
  3  4  2  3
  4  7  1  0
  4  8  1  0
  9 10  1  0
  9 12  1  0
  9 13  1  0
  9 14  1  0
 10 11  1  0
 10 15  1  0
 10 16  1  0
 11 17  1  0
M  RAD  1   1   2
M  END
>  <reaction>  (4) 
rmg_rxn_15588

>  <mol_properties>  (4) 
{"0": {"label": "*3", "atom_type": "Cs"}, "1": {"label": "*4", "atom_type": "O2s"}, "9": {"label": "*0", "atom_type": "Cs"}, "10": {"label": "*1", "atom_type": "S2s"}, "16": {"label": "*2", "atom_type": "H0"}}

>  <type>  (4) 
ts

$$$$

     RDKit          3D

 17 15  0  0  0  0  0  0  0  0999 V2000
    1.8082   -1.0747    0.8651 C   0  0  0  0  0  0  0  0  0  0  0  0
    2.6514   -0.0100    0.4522 O   0  0  0  0  0  0  0  0  0  0  0  0
    2.2437    0.8164   -0.5190 N   0  0  0  0  0  0  0  0  0  0  0  0
    1.1488    0.7400   -1.1228 C   0  0  0  0  0  0  0  0  0  0  0  0
    2.3728   -1.5893    1.6379 H   0  0  0  0  0  0  0  0  0  0  0  0
    1.5957   -1.7578    0.0381 H   0  0  0  0  0  0  0  0  0  0  0  0
    0.3550   -0.0020   -0.9574 H   0  0  0  0  0  0  0  0  0  0  0  0
    0.9720    1.4855   -1.8796 H   0  0  0  0  0  0  0  0  0  0  0  0
   -1.9269    1.3202    1.0702 C   0  0  0  0  0  0  0  0  0  0  0  0
   -2.5126    0.5016   -0.0664 C   0  0  0  0  0  0  0  0  0  0  0  0
   -1.5827   -1.0116   -0.3834 S   0  0  0  0  0  1  0  0  0  0  0  0
   -2.5453    2.1974    1.2498 H   0  0  0  0  0  0  0  0  0  0  0  0
   -0.9192    1.6510    0.8247 H   0  0  0  0  0  0  0  0  0  0  0  0
   -1.8866    0.7298    1.9833 H   0  0  0  0  0  0  0  0  0  0  0  0
   -2.5392    1.0694   -0.9958 H   0  0  0  0  0  0  0  0  0  0  0  0
   -3.5307    0.1859    0.1602 H   0  0  0  0  0  0  0  0  0  0  0  0
    0.8664   -0.7016    1.2760 H   0  0  0  0  0  0  0  0  0  0  0  0
  1  2  1  0
  1  5  1  0
  1  6  1  0
  1 17  1  0
  2  3  1  0
  3  4  2  3
  4  7  1  0
  4  8  1  0
  9 10  1  0
  9 12  1  0
  9 13  1  0
  9 14  1  0
 10 11  1  0
 10 15  1  0
 10 16  1  0
M  RAD  1  11   2
M  END
>  <reaction>  (5) 
rmg_rxn_15588

>  <mol_properties>  (5) 
{"0": {"label": "*3", "atom_type": "Cs"}, "1": {"label": "*4", "atom_type": "O2s"}, "9": {"label": "*0", "atom_type": "Cs"}, "10": {"label": "*1", "atom_type": "S2s"}, "16": {"label": "*2", "atom_type": "H0"}}

>  <type>  (5) 
unop_1

>  <geom_source>  (5) 
crest_best.xyz

$$$$

     RDKit          3D

 17 15  0  0  0  0  0  0  0  0999 V2000
    1.1962    0.0956    0.1460 C   0  0  0  0  0  0  0  0  0  0  0  0
    0.9077    1.2381   -0.6359 O   0  0  0  0  0  0  0  0  0  0  0  0
    1.9184    2.1594   -0.5002 N   0  0  0  0  0  0  0  0  0  0  0  0
    1.7051    3.2013   -1.1826 C   0  0  0  0  0  0  0  0  0  0  0  0
    2.1252   -0.3770   -0.1809 H   0  0  0  0  0  0  0  0  0  0  0  0
    1.2716    0.3553    1.2043 H   0  0  0  0  0  0  0  0  0  0  0  0
    2.4566    3.9776   -1.1300 H   0  0  0  0  0  0  0  0  0  0  0  0
    0.8163    3.3277   -1.7971 H   0  0  0  0  0  0  0  0  0  0  0  0
   -1.3590   -2.4354   -1.0225 C   0  0  0  0  0  0  0  0  0  0  0  0
   -1.3590   -2.4354    0.4962 C   0  0  0  0  0  0  0  0  0  0  0  0
   -1.3590   -0.7780    1.2412 S   0  0  0  0  0  1  0  0  0  0  0  0
   -0.4524   -1.9700   -1.4132 H   0  0  0  0  0  0  0  0  0  0  0  0
   -2.2150   -1.8842   -1.4126 H   0  0  0  0  0  0  0  0  0  0  0  0
   -1.4021   -3.4588   -1.4028 H   0  0  0  0  0  0  0  0  0  0  0  0
   -0.5158   -3.0015    0.8913 H   0  0  0  0  0  0  0  0  0  0  0  0
   -2.2666   -2.9025    0.8813 H   0  0  0  0  0  0  0  0  0  0  0  0
    0.0508   -0.2960    0.6369 H   0  0  0  0  0  0  0  0  0  0  0  0
  1  2  1  0
  1  5  1  0
  1  6  1  0
  1 17  1  0
  2  3  1  0
  3  4  2  3
  4  7  1  0
  4  8  1  0
  9 10  1  0
  9 12  1  0
  9 13  1  0
  9 14  1  0
 10 11  1  0
 10 15  1  0
 10 16  1  0
M  RAD  1  11   2
M  END
>  <reaction>  (6) 
rmg_rxn_15588

>  <mol_properties>  (6) 
{"0": {"label": "*3", "atom_type": "Cs"}, "1": {"label": "*4", "atom_type": "O2s"}, "9": {"label": "*0", "atom_type": "Cs"}, "10": {"label": "*1", "atom_type": "S2s"}, "16": {"label": "*2", "atom_type": "H0"}}

>  <type>  (6) 
unop_2

>  <geom_source>  (6) 
Heuristics

$$$$

     RDKit          3D

 17 15  0  0  0  0  0  0  0  0999 V2000
    1.2582    1.4650   -0.8798 C   0  0  0  0  0  0  0  0  0  0  0  0
    2.2162    0.7014   -0.1943 O   0  0  0  0  0  0  0  0  0  0  0  0
    1.7294   -0.5581    0.0993 N   0  0  0  0  0  0  0  0  0  0  0  0
    2.5066   -1.3262    0.7218 C   0  0  0  0  0  0  0  0  0  0  0  0
    1.5814    2.4842   -0.8951 H   0  0  0  0  0  0  0  0  0  0  0  0
    1.0281    1.0737   -1.8676 H   0  0  0  0  0  0  0  0  0  0  0  0
    2.1335   -2.3088    0.9532 H   0  0  0  0  0  0  0  0  0  0  0  0
    3.5114   -1.0574    1.0327 H   0  0  0  0  0  0  0  0  0  0  0  0
   -2.0387   -1.0581   -1.3544 C   0  0  0  0  0  0  0  0  0  0  0  0
   -1.5145   -0.8990    0.0626 C   0  0  0  0  0  0  0  0  0  0  0  0
   -1.9329    0.7030    0.7656 S   0  0  0  0  0  1  0  0  0  0  0  0
   -1.6242   -0.2878   -2.0005 H   0  0  0  0  0  0  0  0  0  0  0  0
   -3.1235   -0.9778   -1.3751 H   0  0  0  0  0  0  0  0  0  0  0  0
   -1.7521   -2.0327   -1.7440 H   0  0  0  0  0  0  0  0  0  0  0  0
   -0.4221   -0.9712    0.0864 H   0  0  0  0  0  0  0  0  0  0  0  0
   -1.9375   -1.6551    0.7266 H   0  0  0  0  0  0  0  0  0  0  0  0
    0.3531    1.6625   -0.2912 H   0  0  0  0  0  0  0  0  0  0  0  0
  1  2  1  0
  1  5  1  0
  1  6  1  0
  1 17  1  0
  2  3  1  0
  3  4  2  3
  4  7  1  0
  4  8  1  0
  9 10  1  0
  9 12  1  0
  9 13  1  0
  9 14  1  0
 10 11  1  0
 10 15  1  0
 10 16  1  0
M  RAD  1  11   2
M  END
>  <reaction>  (7) 
rmg_rxn_15588

>  <mol_properties>  (7) 
{"0": {"label": "*3", "atom_type": "Cs"}, "1": {"label": "*4", "atom_type": "O2s"}, "9": {"label": "*0", "atom_type": "Cs"}, "10": {"label": "*1", "atom_type": "S2s"}, "16": {"label": "*2", "atom_type": "H0"}}

>  <type>  (7) 
unop_3

>  <geom_source>  (7) 
Heuristics

$$$$

     RDKit          3D

 17 15  0  0  0  0  0  0  0  0999 V2000
   -2.0585    1.0176   -0.7281 C   0  0  0  0  0  0  0  0  0  0  0  0
   -1.7436   -0.3525   -0.7876 O   0  0  0  0  0  0  0  0  0  0  0  0
   -1.3803   -1.0053    0.3396 N   0  0  0  0  0  0  0  0  0  0  0  0
   -1.3071   -0.4410    1.4619 C   0  0  0  0  0  0  0  0  0  0  0  0
   -2.9511    1.2314   -0.1433 H   0  0  0  0  0  0  0  0  0  0  0  0
   -2.1175    1.3871   -1.7302 H   0  0  0  0  0  0  0  0  0  0  0  0
   -0.9936   -1.0661    2.2804 H   0  0  0  0  0  0  0  0  0  0  0  0
   -1.5238    0.6005    1.6811 H   0  0  0  0  0  0  0  0  0  0  0  0
    1.9361   -1.5309   -0.2428 C   0  0  0  0  0  0  0  0  0  0  0  0
    1.7146   -0.1505   -0.8343 C   0  0  0  0  0  0  0  0  0  0  0  0
    1.3460    1.0847    0.4218 S   0  0  0  0  0  1  0  0  0  0  0  0
    2.2139   -2.2246   -1.0336 H   0  0  0  0  0  0  0  0  0  0  0  0
    2.7312   -1.5076    0.4995 H   0  0  0  0  0  0  0  0  0  0  0  0
    1.0215   -1.8853    0.2276 H   0  0  0  0  0  0  0  0  0  0  0  0
    2.6020    0.2053   -1.3619 H   0  0  0  0  0  0  0  0  0  0  0  0
    0.8719   -0.1596   -1.5284 H   0  0  0  0  0  0  0  0  0  0  0  0
   -1.2079    1.6484   -0.4332 H   0  0  0  0  0  0  0  0  0  0  0  0
  1  2  1  0
  1  5  1  0
  1  6  1  0
  1 17  1  0
  2  3  1  0
  3  4  2  3
  4  7  1  0
  4  8  1  0
  9 10  1  0
  9 12  1  0
  9 13  1  0
  9 14  1  0
 10 11  1  0
 10 15  1  0
 10 16  1  0
M  RAD  1  11   2
M  END
>  <reaction>  (8) 
rmg_rxn_15588

>  <mol_properties>  (8) 
{"0": {"label": "*3", "atom_type": "Cs"}, "1": {"label": "*4", "atom_type": "O2s"}, "9": {"label": "*0", "atom_type": "Cs"}, "10": {"label": "*1", "atom_type": "S2s"}, "16": {"label": "*2", "atom_type": "H0"}}

>  <type>  (8) 
unop_4

>  <geom_source>  (8) 
Heuristics

$$$$

     RDKit          3D

 17 15  0  0  0  0  0  0  0  0999 V2000
    1.8036   -1.0716   -0.8713 C   0  0  0  0  0  0  0  0  0  0  0  0
    2.6438   -0.0056   -0.4551 O   0  0  0  0  0  0  0  0  0  0  0  0
    2.2381    0.8106    0.5255 N   0  0  0  0  0  0  0  0  0  0  0  0
    1.1475    0.7237    1.1355 C   0  0  0  0  0  0  0  0  0  0  0  0
    0.8566   -0.7004   -1.2718 H   0  0  0  0  0  0  0  0  0  0  0  0
    1.6015   -1.7632   -0.0488 H   0  0  0  0  0  0  0  0  0  0  0  0
    0.9721    1.4620    1.8996 H   0  0  0  0  0  0  0  0  0  0  0  0
    0.3561   -0.0205    0.9689 H   0  0  0  0  0  0  0  0  0  0  0  0
   -1.9067    1.3279   -1.0670 C   0  0  0  0  0  0  0  0  0  0  0  0
   -2.5031    0.5100    0.0646 C   0  0  0  0  0  0  0  0  0  0  0  0
   -1.5878   -1.0127    0.3785 S   0  0  0  0  0  1  0  0  0  0  0  0
   -2.5168    2.2112   -1.2449 H   0  0  0  0  0  0  0  0  0  0  0  0
   -1.8688    0.7409   -1.9824 H   0  0  0  0  0  0  0  0  0  0  0  0
   -0.8969    1.6489   -0.8171 H   0  0  0  0  0  0  0  0  0  0  0  0
   -2.5275    1.0744    0.9961 H   0  0  0  0  0  0  0  0  0  0  0  0
   -3.5233    0.2043   -0.1664 H   0  0  0  0  0  0  0  0  0  0  0  0
    2.3654   -1.5759   -1.6529 H   0  0  0  0  0  0  0  0  0  0  0  0
  1  2  1  0
  1  5  1  0
  1  6  1  0
  1 17  1  0
  2  3  1  0
  3  4  2  3
  4  7  1  0
  4  8  1  0
  9 10  1  0
  9 12  1  0
  9 13  1  0
  9 14  1  0
 10 11  1  0
 10 15  1  0
 10 16  1  0
M  RAD  1  11   2
M  END
>  <reaction>  (9) 
rmg_rxn_15588

>  <mol_properties>  (9) 
{"0": {"label": "*3", "atom_type": "Cs"}, "1": {"label": "*4", "atom_type": "O2s"}, "9": {"label": "*0", "atom_type": "Cs"}, "10": {"label": "*1", "atom_type": "S2s"}, "16": {"label": "*2", "atom_type": "H0"}}

>  <type>  (9) 
unop_5

>  <geom_source>  (9) 
Heuristics

$$$$

     RDKit          3D

 17 15  0  0  0  0  0  0  0  0999 V2000
   -2.9948   -1.1063   -0.0542 C   0  0  0  0  0  0  0  0  0  0  0  0
   -1.7997   -0.3644    0.0043 O   0  0  0  0  0  0  0  0  0  0  0  0
   -2.0559    0.9927   -0.0295 N   0  0  0  0  0  0  0  0  0  0  0  0
   -1.0740    1.7696    0.0262 C   0  0  0  0  0  0  0  0  0  0  0  0
   -3.6037   -0.8481   -0.9100 H   0  0  0  0  0  0  0  0  0  0  0  0
   -2.7069   -2.1522   -0.0654 H   0  0  0  0  0  0  0  0  0  0  0  0
   -1.2914    2.8230   -0.0032 H   0  0  0  0  0  0  0  0  0  0  0  0
   -0.0286    1.4547    0.1006 H   0  0  0  0  0  0  0  0  0  0  0  0
    1.2471   -1.8111    0.3892 C   0  0  0  0  0  0  0  0  0  0  0  0
    2.0285   -0.9092   -0.5494 C   0  0  0  0  0  0  0  0  0  0  0  0
    2.2054    0.7649    0.0952 S   0  0  0  0  0  1  0  0  0  0  0  0
    0.2312   -1.4401    0.5056 H   0  0  0  0  0  0  0  0  0  0  0  0
    1.7216   -1.8457    1.3675 H   0  0  0  0  0  0  0  0  0  0  0  0
    1.2089   -2.8199   -0.0179 H   0  0  0  0  0  0  0  0  0  0  0  0
    1.5358   -0.8290   -1.5200 H   0  0  0  0  0  0  0  0  0  0  0  0
    3.0440   -1.2814   -0.7015 H   0  0  0  0  0  0  0  0  0  0  0  0
   -3.6687   -0.8873    0.8004 H   0  0  0  0  0  0  0  0  0  0  0  0
  1  2  1  0
  1  5  1  0
  1  6  1  0
  1 17  1  0
  2  3  1  0
  3  4  2  3
  4  7  1  0
  4  8  1  0
  9 10  1  0
  9 12  1  0
  9 13  1  0
  9 14  1  0
 10 11  1  0
 10 15  1  0
 10 16  1  0
M  RAD  1  11   2
M  END
>  <reaction>  (10) 
rmg_rxn_15588

>  <mol_properties>  (10) 
{"0": {"label": "*3", "atom_type": "Cs"}, "1": {"label": "*4", "atom_type": "O2s"}, "9": {"label": "*0", "atom_type": "Cs"}, "10": {"label": "*1", "atom_type": "S2s"}, "16": {"label": "*2", "atom_type": "H0"}}

>  <type>  (10) 
unop_6

>  <geom_source>  (10) 
Heuristics

$$$$

     RDKit          3D

 17 15  0  0  0  0  0  0  0  0999 V2000
    1.0120    1.0194    0.5801 C   0  0  0  0  0  0  0  0  0  0  0  0
    1.1532    0.3403   -0.6522 O   0  0  0  0  0  0  0  0  0  0  0  0
    2.0939    0.9763   -1.4263 N   0  0  0  0  0  0  0  0  0  0  0  0
    2.2558    0.4044   -2.5414 C   0  0  0  0  0  0  0  0  0  0  0  0
    1.9533    1.0231    1.1342 H   0  0  0  0  0  0  0  0  0  0  0  0
    0.6764    2.0470    0.4237 H   0  0  0  0  0  0  0  0  0  0  0  0
    2.9819    0.8450   -3.2114 H   0  0  0  0  0  0  0  0  0  0  0  0
    1.7015   -0.4864   -2.8292 H   0  0  0  0  0  0  0  0  0  0  0  0
   -1.5433   -1.5117   -0.5883 C   0  0  0  0  0  0  0  0  0  0  0  0
   -1.5433   -1.5117    0.9303 C   0  0  0  0  0  0  0  0  0  0  0  0
   -1.5433    0.1457    1.6753 S   0  0  0  0  0  1  0  0  0  0  0  0
   -0.6366   -1.0463   -0.9791 H   0  0  0  0  0  0  0  0  0  0  0  0
   -2.3992   -0.9605   -0.9785 H   0  0  0  0  0  0  0  0  0  0  0  0
   -1.5864   -2.5350   -0.9686 H   0  0  0  0  0  0  0  0  0  0  0  0
   -0.7000   -2.0778    1.3254 H   0  0  0  0  0  0  0  0  0  0  0  0
   -2.4509   -1.9787    1.3154 H   0  0  0  0  0  0  0  0  0  0  0  0
   -0.1335    0.6277    1.0711 H   0  0  0  0  0  0  0  0  0  0  0  0
  1  2  1  0
  1  5  1  0
  1  6  1  0
  1 17  1  0
  2  3  1  0
  3  4  2  3
  4  7  1  0
  4  8  1  0
  9 10  1  0
  9 12  1  0
  9 13  1  0
  9 14  1  0
 10 11  1  0
 10 15  1  0
 10 16  1  0
M  RAD  1  11   2
M  END
>  <reaction>  (11) 
rmg_rxn_15588

>  <mol_properties>  (11) 
{"0": {"label": "*3", "atom_type": "Cs"}, "1": {"label": "*4", "atom_type": "O2s"}, "9": {"label": "*0", "atom_type": "Cs"}, "10": {"label": "*1", "atom_type": "S2s"}, "16": {"label": "*2", "atom_type": "H0"}}

>  <type>  (11) 
unop_7

>  <geom_source>  (11) 
Heuristics

$$$$

     RDKit          3D

 17 15  0  0  0  0  0  0  0  0999 V2000
    3.0018   -1.1027   -0.0445 C   0  0  0  0  0  0  0  0  0  0  0  0
    1.8043   -0.3644    0.0100 O   0  0  0  0  0  0  0  0  0  0  0  0
    2.0559    0.9932   -0.0368 N   0  0  0  0  0  0  0  0  0  0  0  0
    1.0717    1.7675    0.0147 C   0  0  0  0  0  0  0  0  0  0  0  0
    2.7176   -2.1497   -0.0419 H   0  0  0  0  0  0  0  0  0  0  0  0
    3.6062   -0.8528   -0.9060 H   0  0  0  0  0  0  0  0  0  0  0  0
    1.2857    2.8212   -0.0253 H   0  0  0  0  0  0  0  0  0  0  0  0
    0.0274    1.4502    0.0948 H   0  0  0  0  0  0  0  0  0  0  0  0
   -1.2453   -1.8135    0.3743 C   0  0  0  0  0  0  0  0  0  0  0  0
   -2.0360   -0.9066   -0.5516 C   0  0  0  0  0  0  0  0  0  0  0  0
   -2.2073    0.7636    0.1042 S   0  0  0  0  0  1  0  0  0  0  0  0
   -1.7110   -1.8544    1.3566 H   0  0  0  0  0  0  0  0  0  0  0  0
   -0.2286   -1.4424    0.4839 H   0  0  0  0  0  0  0  0  0  0  0  0
   -1.2102   -2.8198   -0.0392 H   0  0  0  0  0  0  0  0  0  0  0  0
   -3.0528   -1.2783   -0.6961 H   0  0  0  0  0  0  0  0  0  0  0  0
   -1.5525   -0.8206   -1.5264 H   0  0  0  0  0  0  0  0  0  0  0  0
    3.6784   -0.8708    0.8045 H   0  0  0  0  0  0  0  0  0  0  0  0
  1  2  1  0
  1  5  1  0
  1  6  1  0
  1 17  1  0
  2  3  1  0
  3  4  2  3
  4  7  1  0
  4  8  1  0
  9 10  1  0
  9 12  1  0
  9 13  1  0
  9 14  1  0
 10 11  1  0
 10 15  1  0
 10 16  1  0
M  RAD  1  11   2
M  END
>  <reaction>  (12) 
rmg_rxn_15588

>  <mol_properties>  (12) 
{"0": {"label": "*3", "atom_type": "Cs"}, "1": {"label": "*4", "atom_type": "O2s"}, "9": {"label": "*0", "atom_type": "Cs"}, "10": {"label": "*1", "atom_type": "S2s"}, "16": {"label": "*2", "atom_type": "H0"}}

>  <type>  (12) 
unop_8

>  <geom_source>  (12) 
Heuristics

$$$$

     RDKit          3D

 17 15  0  0  0  0  0  0  0  0999 V2000
    1.0528    0.0604   -0.1302 C   0  0  0  0  0  0  0  0  0  0  0  0
    0.9454    1.4621   -0.2824 O   0  0  0  0  0  0  0  0  0  0  0  0
    2.1950    2.0313   -0.2243 N   0  0  0  0  0  0  0  0  0  0  0  0
    2.1505    3.2873   -0.3559 C   0  0  0  0  0  0  0  0  0  0  0  0
    1.6555   -0.3745   -0.9306 H   0  0  0  0  0  0  0  0  0  0  0  0
    1.4915   -0.1951    0.8370 H   0  0  0  0  0  0  0  0  0  0  0  0
    3.0959    3.8121   -0.3215 H   0  0  0  0  0  0  0  0  0  0  0  0
    1.2179    3.8292   -0.4974 H   0  0  0  0  0  0  0  0  0  0  0  0
   -1.5025   -2.4707   -1.2986 C   0  0  0  0  0  0  0  0  0  0  0  0
   -1.5025   -2.4707    0.2201 C   0  0  0  0  0  0  0  0  0  0  0  0
   -1.5025   -0.8133    0.9651 S   0  0  0  0  0  1  0  0  0  0  0  0
   -0.5958   -2.0052   -1.6893 H   0  0  0  0  0  0  0  0  0  0  0  0
   -2.3584   -1.9195   -1.6887 H   0  0  0  0  0  0  0  0  0  0  0  0
   -1.5455   -3.4940   -1.6789 H   0  0  0  0  0  0  0  0  0  0  0  0
   -0.6592   -3.0368    0.6152 H   0  0  0  0  0  0  0  0  0  0  0  0
   -2.4101   -2.9377    0.6052 H   0  0  0  0  0  0  0  0  0  0  0  0
   -0.0927   -0.3313    0.3608 H   0  0  0  0  0  0  0  0  0  0  0  0
  1  2  1  0
  1  5  1  0
  1  6  1  0
  1 17  1  0
  2  3  1  0
  3  4  2  3
  4  7  1  0
  4  8  1  0
  9 10  1  0
  9 12  1  0
  9 13  1  0
  9 14  1  0
 10 11  1  0
 10 15  1  0
 10 16  1  0
M  RAD  1  11   2
M  END
>  <reaction>  (13) 
rmg_rxn_15588

>  <mol_properties>  (13) 
{"0": {"label": "*3", "atom_type": "Cs"}, "1": {"label": "*4", "atom_type": "O2s"}, "9": {"label": "*0", "atom_type": "Cs"}, "10": {"label": "*1", "atom_type": "S2s"}, "16": {"label": "*2", "atom_type": "H0"}}

>  <type>  (13) 
unop_9

>  <geom_source>  (13) 
Heuristics

$$$$

     RDKit          3D

 17 15  0  0  0  0  0  0  0  0999 V2000
    0.5634    1.1274   -0.4605 C   0  0  0  0  0  0  0  0  0  0  0  0
    1.5242    0.2149    0.0331 O   0  0  0  0  0  0  0  0  0  0  0  0
    2.7275    0.8565    0.2039 N   0  0  0  0  0  0  0  0  0  0  0  0
    3.6209    0.0794    0.6450 C   0  0  0  0  0  0  0  0  0  0  0  0
    0.4072    1.9487    0.2425 H   0  0  0  0  0  0  0  0  0  0  0  0
    0.8681    1.5294   -1.4294 H   0  0  0  0  0  0  0  0  0  0  0  0
    4.6004    0.5091    0.8073 H   0  0  0  0  0  0  0  0  0  0  0  0
    3.4320   -0.9709    0.8563 H   0  0  0  0  0  0  0  0  0  0  0  0
   -1.9918   -1.4036   -1.6290 C   0  0  0  0  0  0  0  0  0  0  0  0
   -1.9918   -1.4036   -0.1103 C   0  0  0  0  0  0  0  0  0  0  0  0
   -1.9918    0.2537    0.6347 S   0  0  0  0  0  1  0  0  0  0  0  0
   -1.0852   -0.9382   -2.0197 H   0  0  0  0  0  0  0  0  0  0  0  0
   -2.8478   -0.8524   -2.0191 H   0  0  0  0  0  0  0  0  0  0  0  0
   -2.0349   -2.4270   -2.0093 H   0  0  0  0  0  0  0  0  0  0  0  0
   -1.1486   -1.9697    0.2848 H   0  0  0  0  0  0  0  0  0  0  0  0
   -2.8994   -1.8707    0.2748 H   0  0  0  0  0  0  0  0  0  0  0  0
   -0.5820    0.7358    0.0304 H   0  0  0  0  0  0  0  0  0  0  0  0
  1  2  1  0
  1  5  1  0
  1  6  1  0
  1 17  1  0
  2  3  1  0
  3  4  2  3
  4  7  1  0
  4  8  1  0
  9 10  1  0
  9 12  1  0
  9 13  1  0
  9 14  1  0
 10 11  1  0
 10 15  1  0
 10 16  1  0
M  RAD  1  11   2
M  END
>  <reaction>  (14) 
rmg_rxn_15588

>  <mol_properties>  (14) 
{"0": {"label": "*3", "atom_type": "Cs"}, "1": {"label": "*4", "atom_type": "O2s"}, "9": {"label": "*0", "atom_type": "Cs"}, "10": {"label": "*1", "atom_type": "S2s"}, "16": {"label": "*2", "atom_type": "H0"}}

>  <type>  (14) 
unop_10

>  <geom_source>  (14) 
Heuristics

$$$$

     RDKit          3D

 17 15  0  0  0  0  0  0  0  0999 V2000
    1.2569    1.4652    0.8793 C   0  0  0  0  0  0  0  0  0  0  0  0
    2.2171    0.7035    0.1946 O   0  0  0  0  0  0  0  0  0  0  0  0
    1.7317   -0.5555   -0.1032 N   0  0  0  0  0  0  0  0  0  0  0  0
    2.5116   -1.3226   -0.7236 C   0  0  0  0  0  0  0  0  0  0  0  0
    1.0243    1.0714    1.8655 H   0  0  0  0  0  0  0  0  0  0  0  0
    1.5797    2.4844    0.8980 H   0  0  0  0  0  0  0  0  0  0  0  0
    2.1398   -2.3049   -0.9579 H   0  0  0  0  0  0  0  0  0  0  0  0
    3.5178   -1.0532   -1.0295 H   0  0  0  0  0  0  0  0  0  0  0  0
   -2.0287   -1.0787    1.3447 C   0  0  0  0  0  0  0  0  0  0  0  0
   -1.5118   -0.8992   -0.0725 C   0  0  0  0  0  0  0  0  0  0  0  0
   -1.9421    0.7090   -0.7539 S   0  0  0  0  0  1  0  0  0  0  0  0
   -1.7342   -2.0561    1.7213 H   0  0  0  0  0  0  0  0  0  0  0  0
   -3.1139   -1.0054    1.3713 H   0  0  0  0  0  0  0  0  0  0  0  0
   -1.6161   -0.3136    1.9982 H   0  0  0  0  0  0  0  0  0  0  0  0
   -1.9335   -1.6493   -0.7440 H   0  0  0  0  0  0  0  0  0  0  0  0
   -0.4191   -0.9653   -0.1016 H   0  0  0  0  0  0  0  0  0  0  0  0
    0.3533    1.6638    0.2889 H   0  0  0  0  0  0  0  0  0  0  0  0
  1  2  1  0
  1  5  1  0
  1  6  1  0
  1 17  1  0
  2  3  1  0
  3  4  2  3
  4  7  1  0
  4  8  1  0
  9 10  1  0
  9 12  1  0
  9 13  1  0
  9 14  1  0
 10 11  1  0
 10 15  1  0
 10 16  1  0
M  RAD  1  11   2
M  END
>  <reaction>  (15) 
rmg_rxn_15588

>  <mol_properties>  (15) 
{"0": {"label": "*3", "atom_type": "Cs"}, "1": {"label": "*4", "atom_type": "O2s"}, "9": {"label": "*0", "atom_type": "Cs"}, "10": {"label": "*1", "atom_type": "S2s"}, "16": {"label": "*2", "atom_type": "H0"}}

>  <type>  (15) 
unop_11

>  <geom_source>  (15) 
Heuristics

$$$$

     RDKit          3D

 17 15  0  0  0  0  0  0  0  0999 V2000
    0.9262    0.1187   -0.2964 C   0  0  0  0  0  0  0  0  0  0  0  0
    1.1189    1.4349    0.1831 O   0  0  0  0  0  0  0  0  0  0  0  0
    2.3111    1.9298   -0.2887 N   0  0  0  0  0  0  0  0  0  0  0  0
    2.5282    3.1076    0.1143 C   0  0  0  0  0  0  0  0  0  0  0  0
    0.8861    0.1024   -1.3879 H   0  0  0  0  0  0  0  0  0  0  0  0
    1.7230   -0.5437    0.0494 H   0  0  0  0  0  0  0  0  0  0  0  0
    3.4493    3.5703   -0.2141 H   0  0  0  0  0  0  0  0  0  0  0  0
    1.8351    3.6437    0.7589 H   0  0  0  0  0  0  0  0  0  0  0  0
   -1.6290   -2.4124   -1.4648 C   0  0  0  0  0  0  0  0  0  0  0  0
   -1.6290   -2.4124    0.0538 C   0  0  0  0  0  0  0  0  0  0  0  0
   -1.6290   -0.7550    0.7988 S   0  0  0  0  0  1  0  0  0  0  0  0
   -0.7224   -1.9470   -1.8556 H   0  0  0  0  0  0  0  0  0  0  0  0
   -2.4850   -1.8612   -1.8549 H   0  0  0  0  0  0  0  0  0  0  0  0
   -1.6721   -3.4357   -1.8451 H   0  0  0  0  0  0  0  0  0  0  0  0
   -0.7858   -2.9785    0.4489 H   0  0  0  0  0  0  0  0  0  0  0  0
   -2.5366   -2.8794    0.4390 H   0  0  0  0  0  0  0  0  0  0  0  0
   -0.2193   -0.2730    0.1946 H   0  0  0  0  0  0  0  0  0  0  0  0
  1  2  1  0
  1  5  1  0
  1  6  1  0
  1 17  1  0
  2  3  1  0
  3  4  2  3
  4  7  1  0
  4  8  1  0
  9 10  1  0
  9 12  1  0
  9 13  1  0
  9 14  1  0
 10 11  1  0
 10 15  1  0
 10 16  1  0
M  RAD  1  11   2
M  END
>  <reaction>  (16) 
rmg_rxn_15588

>  <mol_properties>  (16) 
{"0": {"label": "*3", "atom_type": "Cs"}, "1": {"label": "*4", "atom_type": "O2s"}, "9": {"label": "*0", "atom_type": "Cs"}, "10": {"label": "*1", "atom_type": "S2s"}, "16": {"label": "*2", "atom_type": "H0"}}

>  <type>  (16) 
unop_12

>  <geom_source>  (16) 
Heuristics

$$$$

     RDKit          3D

 17 15  0  0  0  0  0  0  0  0999 V2000
    1.6691   -1.6012   -0.1906 C   0  0  0  0  0  0  0  0  0  0  0  0
    1.9937   -0.2476    0.0175 O   0  0  0  0  0  0  0  0  0  0  0  0
    0.9137    0.5092    0.3754 N   0  0  0  0  0  0  0  0  0  0  0  0
    1.1453    1.7080    0.7213 C   0  0  0  0  0  0  0  0  0  0  0  0
    0.8204   -1.7308   -0.8396 H   0  0  0  0  0  0  0  0  0  0  0  0
    2.5643   -2.0806   -0.5661 H   0  0  0  0  0  0  0  0  0  0  0  0
    0.3011    2.3246    0.9693 H   0  0  0  0  0  0  0  0  0  0  0  0
    2.1414    2.1312    0.7487 H   0  0  0  0  0  0  0  0  0  0  0  0
   -1.9110   -0.9920    1.1497 C   0  0  0  0  0  0  0  0  0  0  0  0
   -2.0591    0.2278    0.2605 C   0  0  0  0  0  0  0  0  0  0  0  0
   -0.8510    0.2716   -1.0800 S   0  0  0  0  0  1  0  0  0  0  0  0
   -0.9465   -0.9700    1.6518 H   0  0  0  0  0  0  0  0  0  0  0  0
   -1.9781   -1.9027    0.5587 H   0  0  0  0  0  0  0  0  0  0  0  0
   -2.6971   -1.0045    1.9027 H   0  0  0  0  0  0  0  0  0  0  0  0
   -1.9646    1.1514    0.8332 H   0  0  0  0  0  0  0  0  0  0  0  0
   -3.0277    0.2287   -0.2429 H   0  0  0  0  0  0  0  0  0  0  0  0
    1.2811   -2.0998    0.7137 H   0  0  0  0  0  0  0  0  0  0  0  0
  1  2  1  0
  1  5  1  0
  1  6  1  0
  1 17  1  0
  2  3  1  0
  3  4  2  3
  4  7  1  0
  4  8  1  0
  9 10  1  0
  9 12  1  0
  9 13  1  0
  9 14  1  0
 10 11  1  0
 10 15  1  0
 10 16  1  0
M  RAD  1  11   2
M  END
>  <reaction>  (17) 
rmg_rxn_15588

>  <mol_properties>  (17) 
{"0": {"label": "*3", "atom_type": "Cs"}, "1": {"label": "*4", "atom_type": "O2s"}, "9": {"label": "*0", "atom_type": "Cs"}, "10": {"label": "*1", "atom_type": "S2s"}, "16": {"label": "*2", "atom_type": "H0"}}

>  <type>  (17) 
unop_13

>  <geom_source>  (17) 
Heuristics

$$$$

     RDKit          3D

 17 15  0  0  0  0  0  0  0  0999 V2000
   -2.9842   -1.1134    0.0593 C   0  0  0  0  0  0  0  0  0  0  0  0
   -1.7943   -0.3656    0.0023 O   0  0  0  0  0  0  0  0  0  0  0  0
   -2.0580    0.9900    0.0229 N   0  0  0  0  0  0  0  0  0  0  0  0
   -1.0799    1.7717   -0.0333 C   0  0  0  0  0  0  0  0  0  0  0  0
   -2.6986   -2.1584    0.0856 H   0  0  0  0  0  0  0  0  0  0  0  0
   -3.6218   -0.8390    0.8825 H   0  0  0  0  0  0  0  0  0  0  0  0
   -1.3031    2.8241   -0.0143 H   0  0  0  0  0  0  0  0  0  0  0  0
   -0.0325    1.4615   -0.0988 H   0  0  0  0  0  0  0  0  0  0  0  0
    1.2534   -1.8101   -0.3995 C   0  0  0  0  0  0  0  0  0  0  0  0
    2.0248   -0.9089    0.5481 C   0  0  0  0  0  0  0  0  0  0  0  0
    2.2013    0.7678   -0.0894 S   0  0  0  0  0  1  0  0  0  0  0  0
    1.2149   -2.8202    0.0041 H   0  0  0  0  0  0  0  0  0  0  0  0
    1.7357   -1.8403   -1.3741 H   0  0  0  0  0  0  0  0  0  0  0  0
    0.2373   -1.4415   -0.5225 H   0  0  0  0  0  0  0  0  0  0  0  0
    3.0402   -1.2784    0.7069 H   0  0  0  0  0  0  0  0  0  0  0  0
    1.5241   -0.8334    1.5150 H   0  0  0  0  0  0  0  0  0  0  0  0
   -3.6705   -0.8966   -0.7766 H   0  0  0  0  0  0  0  0  0  0  0  0
  1  2  1  0
  1  5  1  0
  1  6  1  0
  1 17  1  0
  2  3  1  0
  3  4  2  3
  4  7  1  0
  4  8  1  0
  9 10  1  0
  9 12  1  0
  9 13  1  0
  9 14  1  0
 10 11  1  0
 10 15  1  0
 10 16  1  0
M  RAD  1  11   2
M  END
>  <reaction>  (18) 
rmg_rxn_15588

>  <mol_properties>  (18) 
{"0": {"label": "*3", "atom_type": "Cs"}, "1": {"label": "*4", "atom_type": "O2s"}, "9": {"label": "*0", "atom_type": "Cs"}, "10": {"label": "*1", "atom_type": "S2s"}, "16": {"label": "*2", "atom_type": "H0"}}

>  <type>  (18) 
unop_14

>  <geom_source>  (18) 
Heuristics

$$$$

     RDKit          3D

 17 15  0  0  0  0  0  0  0  0999 V2000
    0.6165    0.7942   -0.6566 C   0  0  0  0  0  0  0  0  0  0  0  0
    1.5911    0.4163    0.2958 O   0  0  0  0  0  0  0  0  0  0  0  0
    2.5514    1.3951    0.3891 N   0  0  0  0  0  0  0  0  0  0  0  0
    3.4472    1.1017    1.2307 C   0  0  0  0  0  0  0  0  0  0  0  0
    0.1206    1.7216   -0.3612 H   0  0  0  0  0  0  0  0  0  0  0  0
    1.0640    0.9185   -1.6453 H   0  0  0  0  0  0  0  0  0  0  0  0
    4.2423    1.8231    1.3637 H   0  0  0  0  0  0  0  0  0  0  0  0
    3.4350    0.1754    1.8010 H   0  0  0  0  0  0  0  0  0  0  0  0
   -1.9387   -1.7368   -1.8250 C   0  0  0  0  0  0  0  0  0  0  0  0
   -1.9387   -1.7368   -0.3063 C   0  0  0  0  0  0  0  0  0  0  0  0
   -1.9387   -0.0795    0.4387 S   0  0  0  0  0  1  0  0  0  0  0  0
   -1.0321   -1.2714   -2.2157 H   0  0  0  0  0  0  0  0  0  0  0  0
   -2.7947   -1.1856   -2.2151 H   0  0  0  0  0  0  0  0  0  0  0  0
   -1.9818   -2.7602   -2.2053 H   0  0  0  0  0  0  0  0  0  0  0  0
   -1.0955   -2.3030    0.0888 H   0  0  0  0  0  0  0  0  0  0  0  0
   -2.8463   -2.2039    0.0788 H   0  0  0  0  0  0  0  0  0  0  0  0
   -0.5289    0.4025   -0.1656 H   0  0  0  0  0  0  0  0  0  0  0  0
  1  2  1  0
  1  5  1  0
  1  6  1  0
  1 17  1  0
  2  3  1  0
  3  4  2  3
  4  7  1  0
  4  8  1  0
  9 10  1  0
  9 12  1  0
  9 13  1  0
  9 14  1  0
 10 11  1  0
 10 15  1  0
 10 16  1  0
M  RAD  1  11   2
M  END
>  <reaction>  (19) 
rmg_rxn_15588

>  <mol_properties>  (19) 
{"0": {"label": "*3", "atom_type": "Cs"}, "1": {"label": "*4", "atom_type": "O2s"}, "9": {"label": "*0", "atom_type": "Cs"}, "10": {"label": "*1", "atom_type": "S2s"}, "16": {"label": "*2", "atom_type": "H0"}}

>  <type>  (19) 
unop_15

>  <geom_source>  (19) 
Heuristics

$$$$

     RDKit          3D

 17 15  0  0  0  0  0  0  0  0999 V2000
    1.9530   -1.2454   -0.4994 C   0  0  0  0  0  0  0  0  0  0  0  0
    2.7684   -0.0880   -0.4024 O   0  0  0  0  0  0  0  0  0  0  0  0
    2.2899    1.0075    0.2021 N   0  0  0  0  0  0  0  0  0  0  0  0
    1.1481    1.1143    0.7067 C   0  0  0  0  0  0  0  0  0  0  0  0
    1.6603   -1.6112    0.4888 H   0  0  0  0  0  0  0  0  0  0  0  0
    2.5766   -1.9811   -1.0002 H   0  0  0  0  0  0  0  0  0  0  0  0
    0.3650    0.3447    0.7361 H   0  0  0  0  0  0  0  0  0  0  0  0
    0.9185    2.0642    1.1592 H   0  0  0  0  0  0  0  0  0  0  0  0
   -2.4866    1.4460   -0.4262 C   0  0  0  0  0  0  0  0  0  0  0  0
   -2.4352   -0.0471   -0.6981 C   0  0  0  0  0  0  0  0  0  0  0  0
   -1.5005   -0.9490    0.5552 S   0  0  0  0  0  1  0  0  0  0  0  0
   -1.4897    1.8797   -0.4828 H   0  0  0  0  0  0  0  0  0  0  0  0
   -2.8924    1.6384    0.5648 H   0  0  0  0  0  0  0  0  0  0  0  0
   -3.1207    1.9324   -1.1648 H   0  0  0  0  0  0  0  0  0  0  0  0
   -1.9828   -0.2611   -1.6664 H   0  0  0  0  0  0  0  0  0  0  0  0
   -3.4348   -0.4808   -0.6941 H   0  0  0  0  0  0  0  0  0  0  0  0
    1.0557   -1.0508   -1.0935 H   0  0  0  0  0  0  0  0  0  0  0  0
  1  2  1  0
  1  5  1  0
  1  6  1  0
  1 17  1  0
  2  3  1  0
  3  4  2  3
  4  7  1  0
  4  8  1  0
  9 10  1  0
  9 12  1  0
  9 13  1  0
  9 14  1  0
 10 11  1  0
 10 15  1  0
 10 16  1  0
M  RAD  1  11   2
M  END
>  <reaction>  (20) 
rmg_rxn_15588

>  <mol_properties>  (20) 
{"0": {"label": "*3", "atom_type": "Cs"}, "1": {"label": "*4", "atom_type": "O2s"}, "9": {"label": "*0", "atom_type": "Cs"}, "10": {"label": "*1", "atom_type": "S2s"}, "16": {"label": "*2", "atom_type": "H0"}}

>  <type>  (20) 
unop_16

>  <geom_source>  (20) 
Heuristics

$$$$

     RDKit          3D

 17 15  0  0  0  0  0  0  0  0999 V2000
    0.7353    0.4514   -0.6456 C   0  0  0  0  0  0  0  0  0  0  0  0
    1.5526    0.7402    0.4716 O   0  0  0  0  0  0  0  0  0  0  0  0
    2.3290    1.8424    0.2049 N   0  0  0  0  0  0  0  0  0  0  0  0
    3.0791    2.1406    1.1771 C   0  0  0  0  0  0  0  0  0  0  0  0
    0.0660    1.2860   -0.8662 H   0  0  0  0  0  0  0  0  0  0  0  0
    1.3419    0.2276   -1.5260 H   0  0  0  0  0  0  0  0  0  0  0  0
    3.7239    2.9994    1.0465 H   0  0  0  0  0  0  0  0  0  0  0  0
    3.0888    1.5734    2.1055 H   0  0  0  0  0  0  0  0  0  0  0  0
   -1.8199   -2.0796   -1.8140 C   0  0  0  0  0  0  0  0  0  0  0  0
   -1.8199   -2.0796   -0.2954 C   0  0  0  0  0  0  0  0  0  0  0  0
   -1.8199   -0.4223    0.4496 S   0  0  0  0  0  1  0  0  0  0  0  0
   -0.9133   -1.6142   -2.2048 H   0  0  0  0  0  0  0  0  0  0  0  0
   -2.6759   -1.5284   -2.2041 H   0  0  0  0  0  0  0  0  0  0  0  0
   -1.8630   -3.1030   -2.1943 H   0  0  0  0  0  0  0  0  0  0  0  0
   -0.9767   -2.6457    0.0997 H   0  0  0  0  0  0  0  0  0  0  0  0
   -2.7275   -2.5467    0.0898 H   0  0  0  0  0  0  0  0  0  0  0  0
   -0.4102    0.0598   -0.1546 H   0  0  0  0  0  0  0  0  0  0  0  0
  1  2  1  0
  1  5  1  0
  1  6  1  0
  1 17  1  0
  2  3  1  0
  3  4  2  3
  4  7  1  0
  4  8  1  0
  9 10  1  0
  9 12  1  0
  9 13  1  0
  9 14  1  0
 10 11  1  0
 10 15  1  0
 10 16  1  0
M  RAD  1  11   2
M  END
>  <reaction>  (21) 
rmg_rxn_15588

>  <mol_properties>  (21) 
{"0": {"label": "*3", "atom_type": "Cs"}, "1": {"label": "*4", "atom_type": "O2s"}, "9": {"label": "*0", "atom_type": "Cs"}, "10": {"label": "*1", "atom_type": "S2s"}, "16": {"label": "*2", "atom_type": "H0"}}

>  <type>  (21) 
unop_17

>  <geom_source>  (21) 
Heuristics

$$$$

     RDKit          3D

 17 15  0  0  0  0  0  0  0  0999 V2000
    3.0103    1.0997   -0.0380 C   0  0  0  0  0  0  0  0  0  0  0  0
    1.8050    0.3630    0.0165 O   0  0  0  0  0  0  0  0  0  0  0  0
    2.0542   -0.9948   -0.0406 N   0  0  0  0  0  0  0  0  0  0  0  0
    1.0691   -1.7679    0.0059 C   0  0  0  0  0  0  0  0  0  0  0  0
    2.7120    2.1452    0.0010 H   0  0  0  0  0  0  0  0  0  0  0  0
    3.6525    0.8621    0.8134 H   0  0  0  0  0  0  0  0  0  0  0  0
    1.2814   -2.8217   -0.0407 H   0  0  0  0  0  0  0  0  0  0  0  0
    0.0252   -1.4496    0.0892 H   0  0  0  0  0  0  0  0  0  0  0  0
   -1.2442    1.8168    0.3647 C   0  0  0  0  0  0  0  0  0  0  0  0
   -2.0356    0.9038   -0.5538 C   0  0  0  0  0  0  0  0  0  0  0  0
   -2.2067   -0.7624    0.1104 S   0  0  0  0  0  1  0  0  0  0  0  0
   -0.2278    1.4454    0.4765 H   0  0  0  0  0  0  0  0  0  0  0  0
   -1.7093    1.8649    1.3469 H   0  0  0  0  0  0  0  0  0  0  0  0
   -1.2084    2.8201   -0.0559 H   0  0  0  0  0  0  0  0  0  0  0  0
   -1.5615    0.8154   -1.5307 H   0  0  0  0  0  0  0  0  0  0  0  0
   -3.0492    1.2744   -0.7076 H   0  0  0  0  0  0  0  0  0  0  0  0
    3.5495    0.8987   -0.9667 H   0  0  0  0  0  0  0  0  0  0  0  0
  1  2  1  0
  1  5  1  0
  1  6  1  0
  1 17  1  0
  2  3  1  0
  3  4  2  3
  4  7  1  0
  4  8  1  0
  9 10  1  0
  9 12  1  0
  9 13  1  0
  9 14  1  0
 10 11  1  0
 10 15  1  0
 10 16  1  0
M  RAD  1  11   2
M  END
>  <reaction>  (22) 
rmg_rxn_15588

>  <mol_properties>  (22) 
{"0": {"label": "*3", "atom_type": "Cs"}, "1": {"label": "*4", "atom_type": "O2s"}, "9": {"label": "*0", "atom_type": "Cs"}, "10": {"label": "*1", "atom_type": "S2s"}, "16": {"label": "*2", "atom_type": "H0"}}

>  <type>  (22) 
unop_18

>  <geom_source>  (22) 
Heuristics

$$$$

     RDKit          3D

 17 15  0  0  0  0  0  0  0  0999 V2000
    1.2544    0.3018    0.4389 C   0  0  0  0  0  0  0  0  0  0  0  0
    0.9522    0.9096   -0.8016 O   0  0  0  0  0  0  0  0  0  0  0  0
    1.7518    2.0123   -0.9841 N   0  0  0  0  0  0  0  0  0  0  0  0
    1.5178    2.5911   -2.0827 C   0  0  0  0  0  0  0  0  0  0  0  0
    2.2943   -0.0313    0.4677 H   0  0  0  0  0  0  0  0  0  0  0  0
    1.0685    0.9898    1.2667 H   0  0  0  0  0  0  0  0  0  0  0  0
    2.1076    3.4710   -2.3024 H   0  0  0  0  0  0  0  0  0  0  0  0
    0.7653    2.2362   -2.7836 H   0  0  0  0  0  0  0  0  0  0  0  0
   -1.3008   -2.2293   -0.7295 C   0  0  0  0  0  0  0  0  0  0  0  0
   -1.3008   -2.2293    0.7892 C   0  0  0  0  0  0  0  0  0  0  0  0
   -1.3008   -0.5719    1.5341 S   0  0  0  0  0  1  0  0  0  0  0  0
   -0.3942   -1.7638   -1.1203 H   0  0  0  0  0  0  0  0  0  0  0  0
   -2.1568   -1.6781   -1.1196 H   0  0  0  0  0  0  0  0  0  0  0  0
   -1.3439   -3.2526   -1.1098 H   0  0  0  0  0  0  0  0  0  0  0  0
   -0.4576   -2.7954    1.1843 H   0  0  0  0  0  0  0  0  0  0  0  0
   -2.2084   -2.6963    1.1743 H   0  0  0  0  0  0  0  0  0  0  0  0
    0.1089   -0.0899    0.9299 H   0  0  0  0  0  0  0  0  0  0  0  0
  1  2  1  0
  1  5  1  0
  1  6  1  0
  1 17  1  0
  2  3  1  0
  3  4  2  3
  4  7  1  0
  4  8  1  0
  9 10  1  0
  9 12  1  0
  9 13  1  0
  9 14  1  0
 10 11  1  0
 10 15  1  0
 10 16  1  0
M  RAD  1  11   2
M  END
>  <reaction>  (23) 
rmg_rxn_15588

>  <mol_properties>  (23) 
{"0": {"label": "*3", "atom_type": "Cs"}, "1": {"label": "*4", "atom_type": "O2s"}, "9": {"label": "*0", "atom_type": "Cs"}, "10": {"label": "*1", "atom_type": "S2s"}, "16": {"label": "*2", "atom_type": "H0"}}

>  <type>  (23) 
unop_19

>  <geom_source>  (23) 
Heuristics

$$$$

     RDKit          3D

 17 15  0  0  0  0  0  0  0  0999 V2000
    1.8082   -1.0747    0.8651 C   0  0  0  0  0  0  0  0  0  0  0  0
    2.6514   -0.0100    0.4522 O   0  0  0  0  0  0  0  0  0  0  0  0
    2.2437    0.8164   -0.5190 N   0  0  0  0  0  0  0  0  0  0  0  0
    1.1488    0.7400   -1.1228 C   0  0  0  0  0  0  0  0  0  0  0  0
    2.3728   -1.5893    1.6379 H   0  0  0  0  0  0  0  0  0  0  0  0
    1.5957   -1.7578    0.0381 H   0  0  0  0  0  0  0  0  0  0  0  0
    0.3550   -0.0020   -0.9574 H   0  0  0  0  0  0  0  0  0  0  0  0
    0.9720    1.4855   -1.8796 H   0  0  0  0  0  0  0  0  0  0  0  0
   -1.9269    1.3202    1.0702 C   0  0  0  0  0  0  0  0  0  0  0  0
   -2.5126    0.5016   -0.0664 C   0  0  0  0  0  0  0  0  0  0  0  0
   -1.5827   -1.0116   -0.3834 S   0  0  0  0  0  1  0  0  0  0  0  0
   -2.5453    2.1974    1.2498 H   0  0  0  0  0  0  0  0  0  0  0  0
   -0.9192    1.6510    0.8247 H   0  0  0  0  0  0  0  0  0  0  0  0
   -1.8866    0.7298    1.9833 H   0  0  0  0  0  0  0  0  0  0  0  0
   -2.5392    1.0694   -0.9958 H   0  0  0  0  0  0  0  0  0  0  0  0
   -3.5307    0.1859    0.1602 H   0  0  0  0  0  0  0  0  0  0  0  0
    0.8664   -0.7016    1.2760 H   0  0  0  0  0  0  0  0  0  0  0  0
  1  2  1  0
  1  5  1  0
  1  6  1  0
  1 17  1  0
  2  3  1  0
  3  4  2  3
  4  7  1  0
  4  8  1  0
  9 10  1  0
  9 12  1  0
  9 13  1  0
  9 14  1  0
 10 11  1  0
 10 15  1  0
 10 16  1  0
M  RAD  1  11   2
M  END
>  <reaction>  (24) 
rmg_rxn_15588

>  <mol_properties>  (24) 
{"0": {"label": "*3", "atom_type": "Cs"}, "1": {"label": "*4", "atom_type": "O2s"}, "9": {"label": "*0", "atom_type": "Cs"}, "10": {"label": "*1", "atom_type": "S2s"}, "16": {"label": "*2", "atom_type": "H0"}}

>  <type>  (24) 
unop_20

>  <geom_source>  (24) 
Heuristics

$$$$

     RDKit          3D

 17 15  0  0  0  0  0  0  0  0999 V2000
    0.6178    1.3236   -0.0968 C   0  0  0  0  0  0  0  0  0  0  0  0
    1.3975    0.1517   -0.2327 O   0  0  0  0  0  0  0  0  0  0  0  0
    2.7253    0.4890   -0.3420 N   0  0  0  0  0  0  0  0  0  0  0  0
    3.4643   -0.5285   -0.4660 C   0  0  0  0  0  0  0  0  0  0  0  0
    0.8972    1.8766    0.8029 H   0  0  0  0  0  0  0  0  0  0  0  0
    0.7275    1.9694   -0.9709 H   0  0  0  0  0  0  0  0  0  0  0  0
    4.5269   -0.3476   -0.5581 H   0  0  0  0  0  0  0  0  0  0  0  0
    3.0688   -1.5419   -0.4812 H   0  0  0  0  0  0  0  0  0  0  0  0
   -1.9374   -1.2074   -1.2652 C   0  0  0  0  0  0  0  0  0  0  0  0
   -1.9374   -1.2074    0.2535 C   0  0  0  0  0  0  0  0  0  0  0  0
   -1.9374    0.4499    0.9984 S   0  0  0  0  0  1  0  0  0  0  0  0
   -1.0308   -0.7420   -1.6560 H   0  0  0  0  0  0  0  0  0  0  0  0
   -2.7934   -0.6562   -1.6553 H   0  0  0  0  0  0  0  0  0  0  0  0
   -1.9805   -2.2308   -1.6455 H   0  0  0  0  0  0  0  0  0  0  0  0
   -1.0942   -1.7736    0.6486 H   0  0  0  0  0  0  0  0  0  0  0  0
   -2.8450   -1.6745    0.6386 H   0  0  0  0  0  0  0  0  0  0  0  0
   -0.5277    0.9319    0.3942 H   0  0  0  0  0  0  0  0  0  0  0  0
  1  2  1  0
  1  5  1  0
  1  6  1  0
  1 17  1  0
  2  3  1  0
  3  4  2  3
  4  7  1  0
  4  8  1  0
  9 10  1  0
  9 12  1  0
  9 13  1  0
  9 14  1  0
 10 11  1  0
 10 15  1  0
 10 16  1  0
M  RAD  1  11   2
M  END
>  <reaction>  (25) 
rmg_rxn_15588

>  <mol_properties>  (25) 
{"0": {"label": "*3", "atom_type": "Cs"}, "1": {"label": "*4", "atom_type": "O2s"}, "9": {"label": "*0", "atom_type": "Cs"}, "10": {"label": "*1", "atom_type": "S2s"}, "16": {"label": "*2", "atom_type": "H0"}}

>  <type>  (25) 
unop_21

>  <geom_source>  (25) 
Heuristics

$$$$

     RDKit          3D

 17 15  0  0  0  0  0  0  0  0999 V2000
    1.1898    0.6439    0.6151 C   0  0  0  0  0  0  0  0  0  0  0  0
    1.0448    0.5850   -0.7903 O   0  0  0  0  0  0  0  0  0  0  0  0
    1.8075    1.5668   -1.3761 N   0  0  0  0  0  0  0  0  0  0  0  0
    1.7104    1.5542   -2.6360 C   0  0  0  0  0  0  0  0  0  0  0  0
    2.2291    0.4788    0.9079 H   0  0  0  0  0  0  0  0  0  0  0  0
    0.8499    1.6069    1.0029 H   0  0  0  0  0  0  0  0  0  0  0  0
    2.2822    2.2986   -3.1737 H   0  0  0  0  0  0  0  0  0  0  0  0
    1.0881    0.8384   -3.1688 H   0  0  0  0  0  0  0  0  0  0  0  0
   -1.3655   -1.8871   -0.5534 C   0  0  0  0  0  0  0  0  0  0  0  0
   -1.3655   -1.8871    0.9653 C   0  0  0  0  0  0  0  0  0  0  0  0
   -1.3655   -0.2297    1.7103 S   0  0  0  0  0  1  0  0  0  0  0  0
   -0.4588   -1.4217   -0.9441 H   0  0  0  0  0  0  0  0  0  0  0  0
   -2.2215   -1.3359   -0.9435 H   0  0  0  0  0  0  0  0  0  0  0  0
   -1.4086   -2.9105   -0.9337 H   0  0  0  0  0  0  0  0  0  0  0  0
   -0.5222   -2.4532    1.3604 H   0  0  0  0  0  0  0  0  0  0  0  0
   -2.2731   -2.3541    1.3504 H   0  0  0  0  0  0  0  0  0  0  0  0
    0.0443    0.2523    1.1060 H   0  0  0  0  0  0  0  0  0  0  0  0
  1  2  1  0
  1  5  1  0
  1  6  1  0
  1 17  1  0
  2  3  1  0
  3  4  2  3
  4  7  1  0
  4  8  1  0
  9 10  1  0
  9 12  1  0
  9 13  1  0
  9 14  1  0
 10 11  1  0
 10 15  1  0
 10 16  1  0
M  RAD  1  11   2
M  END
>  <reaction>  (26) 
rmg_rxn_15588

>  <mol_properties>  (26) 
{"0": {"label": "*3", "atom_type": "Cs"}, "1": {"label": "*4", "atom_type": "O2s"}, "9": {"label": "*0", "atom_type": "Cs"}, "10": {"label": "*1", "atom_type": "S2s"}, "16": {"label": "*2", "atom_type": "H0"}}

>  <type>  (26) 
unop_22

>  <geom_source>  (26) 
Heuristics

$$$$

     RDKit          3D

 17 15  0  0  0  0  0  0  0  0999 V2000
    0.8517    0.2156   -0.4755 C   0  0  0  0  0  0  0  0  0  0  0  0
    1.3828    1.1245    0.4686 O   0  0  0  0  0  0  0  0  0  0  0  0
    2.2318    2.0029   -0.1609 N   0  0  0  0  0  0  0  0  0  0  0  0
    2.7331    2.8376    0.6445 C   0  0  0  0  0  0  0  0  0  0  0  0
    0.2797    0.7404   -1.2441 H   0  0  0  0  0  0  0  0  0  0  0  0
    1.6463   -0.3675   -0.9464 H   0  0  0  0  0  0  0  0  0  0  0  0
    3.4146    3.5661    0.2260 H   0  0  0  0  0  0  0  0  0  0  0  0
    2.5019    2.8380    1.7075 H   0  0  0  0  0  0  0  0  0  0  0  0
   -1.7036   -2.3154   -1.6440 C   0  0  0  0  0  0  0  0  0  0  0  0
   -1.7036   -2.3154   -0.1253 C   0  0  0  0  0  0  0  0  0  0  0  0
   -1.7036   -0.6581    0.6197 S   0  0  0  0  0  1  0  0  0  0  0  0
   -0.7969   -1.8500   -2.0347 H   0  0  0  0  0  0  0  0  0  0  0  0
   -2.5595   -1.7642   -2.0341 H   0  0  0  0  0  0  0  0  0  0  0  0
   -1.7466   -3.3388   -2.0243 H   0  0  0  0  0  0  0  0  0  0  0  0
   -0.8603   -2.8815    0.2698 H   0  0  0  0  0  0  0  0  0  0  0  0
   -2.6112   -2.7825    0.2598 H   0  0  0  0  0  0  0  0  0  0  0  0
   -0.2938   -0.1760    0.0154 H   0  0  0  0  0  0  0  0  0  0  0  0
  1  2  1  0
  1  5  1  0
  1  6  1  0
  1 17  1  0
  2  3  1  0
  3  4  2  3
  4  7  1  0
  4  8  1  0
  9 10  1  0
  9 12  1  0
  9 13  1  0
  9 14  1  0
 10 11  1  0
 10 15  1  0
 10 16  1  0
M  RAD  1  11   2
M  END
>  <reaction>  (27) 
rmg_rxn_15588

>  <mol_properties>  (27) 
{"0": {"label": "*3", "atom_type": "Cs"}, "1": {"label": "*4", "atom_type": "O2s"}, "9": {"label": "*0", "atom_type": "Cs"}, "10": {"label": "*1", "atom_type": "S2s"}, "16": {"label": "*2", "atom_type": "H0"}}

>  <type>  (27) 
unop_23

>  <geom_source>  (27) 
Heuristics

$$$$

     RDKit          3D

 17 15  0  0  0  0  0  0  0  0999 V2000
    0.7868    1.2860    0.3095 C   0  0  0  0  0  0  0  0  0  0  0  0
    1.2664    0.1996   -0.4581 O   0  0  0  0  0  0  0  0  0  0  0  0
    2.4787    0.5268   -1.0169 N   0  0  0  0  0  0  0  0  0  0  0  0
    2.9491   -0.4159   -1.7146 C   0  0  0  0  0  0  0  0  0  0  0  0
    1.4760    1.5242    1.1228 H   0  0  0  0  0  0  0  0  0  0  0  0
    0.6391    2.1703   -0.3145 H   0  0  0  0  0  0  0  0  0  0  0  0
    3.9041   -0.2371   -2.1903 H   0  0  0  0  0  0  0  0  0  0  0  0
    2.4334   -1.3653   -1.8411 H   0  0  0  0  0  0  0  0  0  0  0  0
   -1.7685   -1.2450   -0.8589 C   0  0  0  0  0  0  0  0  0  0  0  0
   -1.7685   -1.2450    0.6597 C   0  0  0  0  0  0  0  0  0  0  0  0
   -1.7685    0.4123    1.4047 S   0  0  0  0  0  1  0  0  0  0  0  0
   -0.8618   -0.7796   -1.2497 H   0  0  0  0  0  0  0  0  0  0  0  0
   -2.6244   -0.6938   -1.2490 H   0  0  0  0  0  0  0  0  0  0  0  0
   -1.8115   -2.2684   -1.2392 H   0  0  0  0  0  0  0  0  0  0  0  0
   -0.9252   -1.8112    1.0548 H   0  0  0  0  0  0  0  0  0  0  0  0
   -2.6761   -1.7121    1.0449 H   0  0  0  0  0  0  0  0  0  0  0  0
   -0.3587    0.8943    0.8005 H   0  0  0  0  0  0  0  0  0  0  0  0
  1  2  1  0
  1  5  1  0
  1  6  1  0
  1 17  1  0
  2  3  1  0
  3  4  2  3
  4  7  1  0
  4  8  1  0
  9 10  1  0
  9 12  1  0
  9 13  1  0
  9 14  1  0
 10 11  1  0
 10 15  1  0
 10 16  1  0
M  RAD  1  11   2
M  END
>  <reaction>  (28) 
rmg_rxn_15588

>  <mol_properties>  (28) 
{"0": {"label": "*3", "atom_type": "Cs"}, "1": {"label": "*4", "atom_type": "O2s"}, "9": {"label": "*0", "atom_type": "Cs"}, "10": {"label": "*1", "atom_type": "S2s"}, "16": {"label": "*2", "atom_type": "H0"}}

>  <type>  (28) 
unop_24

>  <geom_source>  (28) 
Heuristics

$$$$

     RDKit          3D

 17 15  0  0  0  0  0  0  0  0999 V2000
    1.2571    1.4657   -0.8798 C   0  0  0  0  0  0  0  0  0  0  0  0
    2.2143    0.7044   -0.1902 O   0  0  0  0  0  0  0  0  0  0  0  0
    1.7309   -0.5573    0.0989 N   0  0  0  0  0  0  0  0  0  0  0  0
    2.5080   -1.3236    0.7236 C   0  0  0  0  0  0  0  0  0  0  0  0
    1.5849    2.4838   -0.9019 H   0  0  0  0  0  0  0  0  0  0  0  0
    1.0289    1.0693   -1.8663 H   0  0  0  0  0  0  0  0  0  0  0  0
    2.1378   -2.3082    0.9509 H   0  0  0  0  0  0  0  0  0  0  0  0
    3.5104   -1.0516    1.0394 H   0  0  0  0  0  0  0  0  0  0  0  0
   -2.0273   -1.0593   -1.3572 C   0  0  0  0  0  0  0  0  0  0  0  0
   -1.5130   -0.9000    0.0633 C   0  0  0  0  0  0  0  0  0  0  0  0
   -1.9390    0.7009    0.7642 S   0  0  0  0  0  1  0  0  0  0  0  0
   -1.6119   -0.2863   -1.9994 H   0  0  0  0  0  0  0  0  0  0  0  0
   -3.1123   -0.9835   -1.3850 H   0  0  0  0  0  0  0  0  0  0  0  0
   -1.7340   -2.0321   -1.7463 H   0  0  0  0  0  0  0  0  0  0  0  0
   -0.4206   -0.9702    0.0938 H   0  0  0  0  0  0  0  0  0  0  0  0
   -1.9388   -1.6572    0.7242 H   0  0  0  0  0  0  0  0  0  0  0  0
    0.3494    1.6610   -0.2932 H   0  0  0  0  0  0  0  0  0  0  0  0
  1  2  1  0
  1  5  1  0
  1  6  1  0
  1 17  1  0
  2  3  1  0
  3  4  2  3
  4  7  1  0
  4  8  1  0
  9 10  1  0
  9 12  1  0
  9 13  1  0
  9 14  1  0
 10 11  1  0
 10 15  1  0
 10 16  1  0
M  RAD  1  11   2
M  END
>  <reaction>  (29) 
rmg_rxn_15588

>  <mol_properties>  (29) 
{"0": {"label": "*3", "atom_type": "Cs"}, "1": {"label": "*4", "atom_type": "O2s"}, "9": {"label": "*0", "atom_type": "Cs"}, "10": {"label": "*1", "atom_type": "S2s"}, "16": {"label": "*2", "atom_type": "H0"}}

>  <type>  (29) 
unop_25

>  <geom_source>  (29) 
Heuristics

$$$$

     RDKit          3D

 17 15  0  0  0  0  0  0  0  0999 V2000
    1.0120    1.0194    0.5801 C   0  0  0  0  0  0  0  0  0  0  0  0
    1.1532    0.3403   -0.6522 O   0  0  0  0  0  0  0  0  0  0  0  0
    2.0939    0.9763   -1.4263 N   0  0  0  0  0  0  0  0  0  0  0  0
    2.2558    0.4044   -2.5414 C   0  0  0  0  0  0  0  0  0  0  0  0
    1.9533    1.0231    1.1342 H   0  0  0  0  0  0  0  0  0  0  0  0
    0.6764    2.0470    0.4237 H   0  0  0  0  0  0  0  0  0  0  0  0
    2.9819    0.8450   -3.2114 H   0  0  0  0  0  0  0  0  0  0  0  0
    1.7015   -0.4864   -2.8292 H   0  0  0  0  0  0  0  0  0  0  0  0
   -1.5433   -1.5117   -0.5884 C   0  0  0  0  0  0  0  0  0  0  0  0
   -1.5433   -1.5117    0.9303 C   0  0  0  0  0  0  0  0  0  0  0  0
   -1.5433    0.1457    1.6753 S   0  0  0  0  0  1  0  0  0  0  0  0
   -0.6366   -1.0463   -0.9791 H   0  0  0  0  0  0  0  0  0  0  0  0
   -2.3992   -0.9605   -0.9785 H   0  0  0  0  0  0  0  0  0  0  0  0
   -1.5863   -2.5351   -0.9686 H   0  0  0  0  0  0  0  0  0  0  0  0
   -0.7000   -2.0778    1.3254 H   0  0  0  0  0  0  0  0  0  0  0  0
   -2.4509   -1.9787    1.3155 H   0  0  0  0  0  0  0  0  0  0  0  0
   -0.1335    0.6277    1.0711 H   0  0  0  0  0  0  0  0  0  0  0  0
  1  2  1  0
  1  5  1  0
  1  6  1  0
  1 17  1  0
  2  3  1  0
  3  4  2  3
  4  7  1  0
  4  8  1  0
  9 10  1  0
  9 12  1  0
  9 13  1  0
  9 14  1  0
 10 11  1  0
 10 15  1  0
 10 16  1  0
M  RAD  1  11   2
M  END
>  <reaction>  (30) 
rmg_rxn_15588

>  <mol_properties>  (30) 
{"0": {"label": "*3", "atom_type": "Cs"}, "1": {"label": "*4", "atom_type": "O2s"}, "9": {"label": "*0", "atom_type": "Cs"}, "10": {"label": "*1", "atom_type": "S2s"}, "16": {"label": "*2", "atom_type": "H0"}}

>  <type>  (30) 
unop_26

>  <geom_source>  (30) 
gaussian_log

$$$$
