
     RDKit          3D

 12 11  0  0  0  0  0  0  0  0999 V2000
    1.8075    0.1979    0.4695 C   0  0  0  0  0  0  0  0  0  0  0  0
    1.0072   -0.8859   -0.7259 S   0  0  0  0  0  0  0  0  0  0  0  0
   -0.7258   -0.6904   -0.2447 C   0  0  0  0  0  0  0  0  0  0  0  0
   -1.0856   -1.2776    1.1108 C   0  0  0  0  0  0  0  0  0  0  0  0
    1.7126   -0.1777    1.4878 H   0  0  0  0  0  0  0  0  0  0  0  0
    1.4024    1.2089    0.4095 H   0  0  0  0  0  0  0  0  0  0  0  0
    2.8647    0.2298    0.2095 H   0  0  0  0  0  0  0  0  0  0  0  0
   -1.2866   -1.1892   -1.0369 H   0  0  0  0  0  0  0  0  0  0  0  0
   -0.9814    0.3707   -0.2917 H   0  0  0  0  0  0  0  0  0  0  0  0
   -0.5492   -0.7768    1.9180 H   0  0  0  0  0  0  0  0  0  0  0  0
   -0.8418   -2.3397    1.1503 H   0  0  0  0  0  0  0  0  0  0  0  0
   -2.1545   -1.1604    1.3035 H   0  0  0  0  0  0  0  0  0  0  0  0
  1  2  1  0
  1  5  1  0
  1  6  1  0
  1  7  1  0
  2  3  1  0
  3  4  1  0
  3  8  1  0
  3  9  1  0
  4 10  1  0
  4 11  1  0
  4 12  1  0
M  END
>  <reaction>  (1) 
rmg_rxn_521

>  <mol_properties>  (1) 
{"0": {"label": "donator", "atom_type": "Cs"}, "4": {"label": "d_hydrogen", "atom_type": "H0"}}

>  <type>  (1) 
r1h

$$$$

     RDKit          3D

 17 16  0  0  0  0  0  0  0  0999 V2000
    2.3993   -0.7259   -0.8796 C   0  0  0  0  0  0  0  0  0  0  0  0
    1.8173   -0.7170    0.4851 C   0  0  0  0  0  3  0  0  0  0  0  0
    2.6779   -0.5182    1.6852 C   0  0  0  0  0  0  0  0  0  0  0  0
    3.8710   -1.2723    1.6674 O   0  0  0  0  0  0  0  0  0  0  0  0
    3.6589   -2.6587    1.8015 C   0  0  0  0  0  0  0  0  0  0  0  0
    4.9969   -3.3586    1.7556 C   0  0  0  0  0  0  0  0  0  0  0  0
    3.3755   -1.2152   -0.8894 H   0  0  0  0  0  0  0  0  0  0  0  0
    1.7457   -1.2284   -1.5943 H   0  0  0  0  0  0  0  0  0  0  0  0
    2.5578    0.2962   -1.2545 H   0  0  0  0  0  0  0  0  0  0  0  0
    0.7445   -0.6275    0.6059 H   0  0  0  0  0  0  0  0  0  0  0  0
    2.1057   -0.7316    2.5992 H   0  0  0  0  0  0  0  0  0  0  0  0
    3.0103    0.5272    1.7516 H   0  0  0  0  0  0  0  0  0  0  0  0
    3.0050   -3.0235    0.9977 H   0  0  0  0  0  0  0  0  0  0  0  0
    3.1469   -2.8645    2.7531 H   0  0  0  0  0  0  0  0  0  0  0  0
    5.6430   -3.0039    2.5594 H   0  0  0  0  0  0  0  0  0  0  0  0
    4.8641   -4.4360    1.8660 H   0  0  0  0  0  0  0  0  0  0  0  0
    5.4957   -3.1672    0.8046 H   0  0  0  0  0  0  0  0  0  0  0  0
  1  2  1  0
  1  7  1  0
  1  8  1  0
  1  9  1  0
  2  3  1  0
  2 10  1  0
  3  4  1  0
  3 11  1  0
  3 12  1  0
  4  5  1  0
  5  6  1  0
  5 13  1  0
  5 14  1  0
  6 15  1  0
  6 16  1  0
  6 17  1  0
M  RAD  1   2   2
M  END
>  <reaction>  (2) 
rmg_rxn_521

>  <mol_properties>  (2) 
{"1": {"label": "acceptor", "atom_type": "Cs"}}

>  <type>  (2) 
r2

$$$$

     RDKit          3D

 18 17  0  0  0  0  0  0  0  0999 V2000
    2.2026   -0.7213   -0.2612 C   0  0  0  0  0  0  0  0  0  0  0  0
    1.5384    0.2638    0.6915 C   0  0  0  0  0  0  0  0  0  0  0  0
    2.2584    1.5946    0.7694 C   0  0  0  0  0  0  0  0  0  0  0  0
    2.2212    2.2185   -0.4893 O   0  0  0  0  0  0  0  0  0  0  0  0
    2.8988    3.4488   -0.5204 C   0  0  0  0  0  0  0  0  0  0  0  0
    2.7981    4.0296   -1.9118 C   0  0  0  0  0  0  0  0  0  0  0  0
    3.2294   -0.9309    0.0486 H   0  0  0  0  0  0  0  0  0  0  0  0
    2.2338   -0.3181   -1.2734 H   0  0  0  0  0  0  0  0  0  0  0  0
    1.6610   -1.6680   -0.2875 H   0  0  0  0  0  0  0  0  0  0  0  0
    1.4990   -0.1566    1.7002 H   0  0  0  0  0  0  0  0  0  0  0  0
    0.5055    0.4455    0.3835 H   0  0  0  0  0  0  0  0  0  0  0  0
    3.3038    1.4410    1.0808 H   0  0  0  0  0  0  0  0  0  0  0  0
    1.7844    2.2410    1.5226 H   0  0  0  0  0  0  0  0  0  0  0  0
    2.4596    4.1376    0.2164 H   0  0  0  0  0  0  0  0  0  0  0  0
    3.9524    3.3035   -0.2397 H   0  0  0  0  0  0  0  0  0  0  0  0
    1.7543    4.1869   -2.1856 H   0  0  0  0  0  0  0  0  0  0  0  0
    3.2472    3.3545   -2.6411 H   0  0  0  0  0  0  0  0  0  0  0  0
    3.3178    4.9878   -1.9600 H   0  0  0  0  0  0  0  0  0  0  0  0
  1  2  1  0
  1  7  1  0
  1  8  1  0
  1  9  1  0
  2  3  1  0
  2 10  1  0
  2 11  1  0
  3  4  1  0
  3 12  1  0
  3 13  1  0
  4  5  1  0
  5  6  1  0
  5 14  1  0
  5 15  1  0
  6 16  1  0
  6 17  1  0
  6 18  1  0
M  END
>  <reaction>  (3) 
rmg_rxn_521

>  <mol_properties>  (3) 
{"0": {"label": "a_hydrogen", "atom_type": "H0"}, "2": {"label": "acceptor", "atom_type": "Cs"}}

>  <type>  (3) 
r2h

$$$$

     RDKit          3D

 29 27  0  0  0  0  0  0  0  0999 V2000
   -0.6398    0.9331    1.9349 C   0  0  0  0  0  0  0  0  0  0  0  0
   -2.1110   -0.0148    1.7147 S   0  0  0  0  0  0  0  0  0  0  0  0
   -1.5707   -1.6381    2.3024 C   0  0  0  0  0  0  0  0  0  0  0  0
   -0.5380   -2.3263    1.4252 C   0  0  0  0  0  0  0  0  0  0  0  0
    0.2463    0.7228    0.9743 H   0  0  0  0  0  0  0  0  0  0  0  0
   -0.1177    0.7218    2.8682 H   0  0  0  0  0  0  0  0  0  0  0  0
   -0.8659    1.9927    1.8334 H   0  0  0  0  0  0  0  0  0  0  0  0
   -2.4859   -2.2298    2.3559 H   0  0  0  0  0  0  0  0  0  0  0  0
   -1.2015   -1.5225    3.3237 H   0  0  0  0  0  0  0  0  0  0  0  0
    0.3777   -1.7385    1.3574 H   0  0  0  0  0  0  0  0  0  0  0  0
   -0.9211   -2.4742    0.4150 H   0  0  0  0  0  0  0  0  0  0  0  0
   -0.2800   -3.3029    1.8411 H   0  0  0  0  0  0  0  0  0  0  0  0
    1.8326    1.9962   -0.0970 C   0  0  0  0  0  0  0  0  0  0  0  0
    1.1418    0.6608   -0.0698 C   0  0  0  0  0  3  0  0  0  0  0  0
    0.2597    0.3449   -1.2391 C   0  0  0  0  0  0  0  0  0  0  0  0
    1.0422    0.2266   -2.4091 O   0  0  0  0  0  0  0  0  0  0  0  0
    0.2778   -0.0623   -3.5531 C   0  0  0  0  0  0  0  0  0  0  0  0
    1.2000   -0.1642   -4.7458 C   0  0  0  0  0  0  0  0  0  0  0  0
    1.1109    2.8053   -0.2395 H   0  0  0  0  0  0  0  0  0  0  0  0
    2.3748    2.1843    0.8314 H   0  0  0  0  0  0  0  0  0  0  0  0
    2.5493    2.0489   -0.9216 H   0  0  0  0  0  0  0  0  0  0  0  0
    1.7949   -0.1682    0.2040 H   0  0  0  0  0  0  0  0  0  0  0  0
   -0.4884    1.1425   -1.3709 H   0  0  0  0  0  0  0  0  0  0  0  0
   -0.2934   -0.5875   -1.0609 H   0  0  0  0  0  0  0  0  0  0  0  0
   -0.4716    0.7269   -3.7124 H   0  0  0  0  0  0  0  0  0  0  0  0
   -0.2712   -1.0047   -3.4093 H   0  0  0  0  0  0  0  0  0  0  0  0
    1.9348   -0.9557   -4.5942 H   0  0  0  0  0  0  0  0  0  0  0  0
    0.6286   -0.3892   -5.6478 H   0  0  0  0  0  0  0  0  0  0  0  0
    1.7328    0.7751   -4.8983 H   0  0  0  0  0  0  0  0  0  0  0  0
  1  2  1  0
  1  5  1  0
  1  6  1  0
  1  7  1  0
  2  3  1  0
  3  4  1  0
  3  8  1  0
  3  9  1  0
  4 10  1  0
  4 11  1  0
  4 12  1  0
 13 14  1  0
 13 19  1  0
 13 20  1  0
 13 21  1  0
 14 15  1  0
 14 22  1  0
 15 16  1  0
 15 23  1  0
 15 24  1  0
 16 17  1  0
 17 18  1  0
 17 25  1  0
 17 26  1  0
 18 27  1  0
 18 28  1  0
 18 29  1  0
M  RAD  1  14   2
M  END
>  <reaction>  (4) 
rmg_rxn_521

>  <mol_properties>  (4) 
{"0": {"label": "*1", "atom_type": "Cs"}, "1": {"label": "*0", "atom_type": "S2s"}, "4": {"label": "*2", "atom_type": "H0"}, "13": {"label": "*3", "atom_type": "Cs"}, "14": {"label": "*4", "atom_type": "Cs"}}

>  <type>  (4) 
ts

$$$$

     RDKit          3D

 29 27  0  0  0  0  0  0  0  0999 V2000
    0.3854    0.5879    2.5405 C   0  0  0  0  0  0  0  0  0  0  0  0
   -1.2577    0.0091    2.9983 S   0  0  0  0  0  0  0  0  0  0  0  0
   -1.2577   -1.6310    2.2346 C   0  0  0  0  0  0  0  0  0  0  0  0
   -1.2577   -1.6310    0.7142 C   0  0  0  0  0  0  0  0  0  0  0  0
    0.5003    0.7636    1.2501 H   0  0  0  0  0  0  0  0  0  0  0  0
    1.1524   -0.1051    2.8886 H   0  0  0  0  0  0  0  0  0  0  0  0
    0.5319    1.5473    3.0348 H   0  0  0  0  0  0  0  0  0  0  0  0
   -2.1617   -2.1090    2.6155 H   0  0  0  0  0  0  0  0  0  0  0  0
   -0.4084   -2.1959    2.6259 H   0  0  0  0  0  0  0  0  0  0  0  0
   -0.3507   -1.1748    0.3149 H   0  0  0  0  0  0  0  0  0  0  0  0
   -2.1137   -1.0778    0.3265 H   0  0  0  0  0  0  0  0  0  0  0  0
   -1.3061   -2.6543    0.3347 H   0  0  0  0  0  0  0  0  0  0  0  0
    0.9615    2.3918   -0.3476 C   0  0  0  0  0  0  0  0  0  0  0  0
    0.6155    0.9399   -0.0452 C   0  0  0  0  0  3  0  0  0  0  0  0
    0.0318    0.2064   -1.2354 C   0  0  0  0  0  0  0  0  0  0  0  0
    0.9890    0.1499   -2.2627 O   0  0  0  0  0  0  0  0  0  0  0  0
    0.5205   -0.4850   -3.4250 C   0  0  0  0  0  0  0  0  0  0  0  0
    1.6220   -0.4902   -4.4596 C   0  0  0  0  0  0  0  0  0  0  0  0
    0.0738    2.9467   -0.6613 H   0  0  0  0  0  0  0  0  0  0  0  0
    1.3734    2.8888    0.5320 H   0  0  0  0  0  0  0  0  0  0  0  0
    1.6965    2.4545   -1.1501 H   0  0  0  0  0  0  0  0  0  0  0  0
    1.5071    0.4036    0.2900 H   0  0  0  0  0  0  0  0  0  0  0  0
   -0.8717    0.7253   -1.5931 H   0  0  0  0  0  0  0  0  0  0  0  0
   -0.2686   -0.8113   -0.9461 H   0  0  0  0  0  0  0  0  0  0  0  0
   -0.3652    0.0424   -3.8090 H   0  0  0  0  0  0  0  0  0  0  0  0
    0.2083   -1.5136   -3.1908 H   0  0  0  0  0  0  0  0  0  0  0  0
    2.4955   -1.0249   -4.0850 H   0  0  0  0  0  0  0  0  0  0  0  0
    1.2806   -0.9799   -5.3729 H   0  0  0  0  0  0  0  0  0  0  0  0
    1.9215    0.5296   -4.7040 H   0  0  0  0  0  0  0  0  0  0  0  0
  1  2  1  0
  1  5  1  0
  1  6  1  0
  1  7  1  0
  2  3  1  0
  3  4  1  0
  3  8  1  0
  3  9  1  0
  4 10  1  0
  4 11  1  0
  4 12  1  0
 13 14  1  0
 13 19  1  0
 13 20  1  0
 13 21  1  0
 14 15  1  0
 14 22  1  0
 15 16  1  0
 15 23  1  0
 15 24  1  0
 16 17  1  0
 17 18  1  0
 17 25  1  0
 17 26  1  0
 18 27  1  0
 18 28  1  0
 18 29  1  0
M  RAD  1  14   2
M  END
>  <reaction>  (5) 
rmg_rxn_521

>  <mol_properties>  (5) 
{"0": {"label": "*1", "atom_type": "Cs"}, "1": {"label": "*0", "atom_type": "S2s"}, "4": {"label": "*2", "atom_type": "H0"}, "13": {"label": "*3", "atom_type": "Cs"}, "14": {"label": "*4", "atom_type": "Cs"}}

>  <type>  (5) 
unop_1

>  <geom_source>  (5) 
Heuristics

$$$$

     RDKit          3D

 29 27  0  0  0  0  0  0  0  0999 V2000
    0.0951    0.5676    2.4755 C   0  0  0  0  0  0  0  0  0  0  0  0
   -1.5481   -0.0112    2.9333 S   0  0  0  0  0  0  0  0  0  0  0  0
   -1.5481   -1.6513    2.1696 C   0  0  0  0  0  0  0  0  0  0  0  0
   -1.5481   -1.6513    0.6493 C   0  0  0  0  0  0  0  0  0  0  0  0
    0.2099    0.7433    1.1851 H   0  0  0  0  0  0  0  0  0  0  0  0
    0.8621   -0.1254    2.8236 H   0  0  0  0  0  0  0  0  0  0  0  0
    0.2415    1.5270    2.9698 H   0  0  0  0  0  0  0  0  0  0  0  0
   -2.4521   -2.1293    2.5505 H   0  0  0  0  0  0  0  0  0  0  0  0
   -0.6988   -2.2162    2.5609 H   0  0  0  0  0  0  0  0  0  0  0  0
   -0.6411   -1.1951    0.2500 H   0  0  0  0  0  0  0  0  0  0  0  0
   -2.4040   -1.0981    0.2615 H   0  0  0  0  0  0  0  0  0  0  0  0
   -1.5965   -2.6745    0.2697 H   0  0  0  0  0  0  0  0  0  0  0  0
   -1.0212    1.3050   -0.7084 C   0  0  0  0  0  0  0  0  0  0  0  0
    0.3252    0.9196   -0.1102 C   0  0  0  0  0  3  0  0  0  0  0  0
    1.0983   -0.0622   -0.9666 C   0  0  0  0  0  0  0  0  0  0  0  0
    1.4024    0.5359   -2.2015 O   0  0  0  0  0  0  0  0  0  0  0  0
    2.0915   -0.3182   -3.0784 C   0  0  0  0  0  0  0  0  0  0  0  0
    2.3660    0.4199   -4.3681 C   0  0  0  0  0  0  0  0  0  0  0  0
   -1.6561    0.4250   -0.8384 H   0  0  0  0  0  0  0  0  0  0  0  0
   -1.5510    2.0074   -0.0633 H   0  0  0  0  0  0  0  0  0  0  0  0
   -0.8906    1.7709   -1.6851 H   0  0  0  0  0  0  0  0  0  0  0  0
    0.9398    1.8115    0.0364 H   0  0  0  0  0  0  0  0  0  0  0  0
    0.5017   -0.9739   -1.1286 H   0  0  0  0  0  0  0  0  0  0  0  0
    2.0254   -0.3643   -0.4578 H   0  0  0  0  0  0  0  0  0  0  0  0
    1.4918   -1.2200   -3.2716 H   0  0  0  0  0  0  0  0  0  0  0  0
    3.0338   -0.6490   -2.6168 H   0  0  0  0  0  0  0  0  0  0  0  0
    2.9721    1.3066   -4.1794 H   0  0  0  0  0  0  0  0  0  0  0  0
    2.9022   -0.2250   -5.0661 H   0  0  0  0  0  0  0  0  0  0  0  0
    1.4317    0.7346   -4.8345 H   0  0  0  0  0  0  0  0  0  0  0  0
  1  2  1  0
  1  5  1  0
  1  6  1  0
  1  7  1  0
  2  3  1  0
  3  4  1  0
  3  8  1  0
  3  9  1  0
  4 10  1  0
  4 11  1  0
  4 12  1  0
 13 14  1  0
 13 19  1  0
 13 20  1  0
 13 21  1  0
 14 15  1  0
 14 22  1  0
 15 16  1  0
 15 23  1  0
 15 24  1  0
 16 17  1  0
 17 18  1  0
 17 25  1  0
 17 26  1  0
 18 27  1  0
 18 28  1  0
 18 29  1  0
M  RAD  1  14   2
M  END
>  <reaction>  (6) 
rmg_rxn_521

>  <mol_properties>  (6) 
{"0": {"label": "*1", "atom_type": "Cs"}, "1": {"label": "*0", "atom_type": "S2s"}, "4": {"label": "*2", "atom_type": "H0"}, "13": {"label": "*3", "atom_type": "Cs"}, "14": {"label": "*4", "atom_type": "Cs"}}

>  <type>  (6) 
unop_2

>  <geom_source>  (6) 
Heuristics

$$$$

     RDKit          3D

 29 27  0  0  0  0  0  0  0  0999 V2000
    0.7425    0.3961    2.5445 C   0  0  0  0  0  0  0  0  0  0  0  0
   -0.9006   -0.1828    3.0023 S   0  0  0  0  0  0  0  0  0  0  0  0
   -0.9006   -1.8229    2.2386 C   0  0  0  0  0  0  0  0  0  0  0  0
   -0.9006   -1.8229    0.7183 C   0  0  0  0  0  0  0  0  0  0  0  0
    0.8573    0.5717    1.2541 H   0  0  0  0  0  0  0  0  0  0  0  0
    1.5095   -0.2970    2.8926 H   0  0  0  0  0  0  0  0  0  0  0  0
    0.8889    1.3554    3.0388 H   0  0  0  0  0  0  0  0  0  0  0  0
   -1.8047   -2.3009    2.6196 H   0  0  0  0  0  0  0  0  0  0  0  0
   -0.0514   -2.3878    2.6299 H   0  0  0  0  0  0  0  0  0  0  0  0
    0.0063   -1.3667    0.3190 H   0  0  0  0  0  0  0  0  0  0  0  0
   -1.7566   -1.2697    0.3305 H   0  0  0  0  0  0  0  0  0  0  0  0
   -0.9491   -2.8461    0.3387 H   0  0  0  0  0  0  0  0  0  0  0  0
    1.9746    1.8574   -0.3319 C   0  0  0  0  0  0  0  0  0  0  0  0
    0.9726    0.7480   -0.0411 C   0  0  0  0  0  3  0  0  0  0  0  0
   -0.1252    0.6497   -1.0806 C   0  0  0  0  0  0  0  0  0  0  0  0
    0.4393    0.3185   -2.3242 O   0  0  0  0  0  0  0  0  0  0  0  0
   -0.5057    0.2403   -3.3608 C   0  0  0  0  0  0  0  0  0  0  0  0
    0.2038   -0.1184   -4.6458 C   0  0  0  0  0  0  0  0  0  0  0  0
    1.4790    2.8308   -0.3666 H   0  0  0  0  0  0  0  0  0  0  0  0
    2.7458    1.9018    0.4386 H   0  0  0  0  0  0  0  0  0  0  0  0
    2.4620    1.6952   -1.2932 H   0  0  0  0  0  0  0  0  0  0  0  0
    1.4853   -0.2157    0.0145 H   0  0  0  0  0  0  0  0  0  0  0  0
   -0.6614    1.6090   -1.1559 H   0  0  0  0  0  0  0  0  0  0  0  0
   -0.8607   -0.1137   -0.7873 H   0  0  0  0  0  0  0  0  0  0  0  0
   -1.0275    1.2030   -3.4655 H   0  0  0  0  0  0  0  0  0  0  0  0
   -1.2671   -0.5157   -3.1180 H   0  0  0  0  0  0  0  0  0  0  0  0
    0.7100   -1.0794   -4.5474 H   0  0  0  0  0  0  0  0  0  0  0  0
   -0.5118   -0.1856   -5.4668 H   0  0  0  0  0  0  0  0  0  0  0  0
    0.9481    0.6386   -4.8956 H   0  0  0  0  0  0  0  0  0  0  0  0
  1  2  1  0
  1  5  1  0
  1  6  1  0
  1  7  1  0
  2  3  1  0
  3  4  1  0
  3  8  1  0
  3  9  1  0
  4 10  1  0
  4 11  1  0
  4 12  1  0
 13 14  1  0
 13 19  1  0
 13 20  1  0
 13 21  1  0
 14 15  1  0
 14 22  1  0
 15 16  1  0
 15 23  1  0
 15 24  1  0
 16 17  1  0
 17 18  1  0
 17 25  1  0
 17 26  1  0
 18 27  1  0
 18 28  1  0
 18 29  1  0
M  RAD  1  14   2
M  END
>  <reaction>  (7) 
rmg_rxn_521

>  <mol_properties>  (7) 
{"0": {"label": "*1", "atom_type": "Cs"}, "1": {"label": "*0", "atom_type": "S2s"}, "4": {"label": "*2", "atom_type": "H0"}, "13": {"label": "*3", "atom_type": "Cs"}, "14": {"label": "*4", "atom_type": "Cs"}}

>  <type>  (7) 
unop_3

>  <geom_source>  (7) 
Heuristics

$$$$

     RDKit          3D

 29 27  0  0  0  0  0  0  0  0999 V2000
   -0.5524    0.3216    1.8140 C   0  0  0  0  0  0  0  0  0  0  0  0
   -2.1955   -0.2572    2.2718 S   0  0  0  0  0  0  0  0  0  0  0  0
   -2.1955   -1.8973    1.5081 C   0  0  0  0  0  0  0  0  0  0  0  0
   -2.1955   -1.8973   -0.0123 C   0  0  0  0  0  0  0  0  0  0  0  0
   -0.4375    0.4973    0.5236 H   0  0  0  0  0  0  0  0  0  0  0  0
    0.2147   -0.3714    2.1621 H   0  0  0  0  0  0  0  0  0  0  0  0
   -0.4059    1.2810    2.3083 H   0  0  0  0  0  0  0  0  0  0  0  0
   -3.0995   -2.3753    1.8890 H   0  0  0  0  0  0  0  0  0  0  0  0
   -1.3462   -2.4622    1.8994 H   0  0  0  0  0  0  0  0  0  0  0  0
   -1.2885   -1.4412   -0.4116 H   0  0  0  0  0  0  0  0  0  0  0  0
   -3.0514   -1.3441   -0.4000 H   0  0  0  0  0  0  0  0  0  0  0  0
   -2.2439   -2.9206   -0.3918 H   0  0  0  0  0  0  0  0  0  0  0  0
   -0.5762   -0.6375   -1.5037 C   0  0  0  0  0  0  0  0  0  0  0  0
   -0.3222    0.6736   -0.7717 C   0  0  0  0  0  3  0  0  0  0  0  0
    1.1304    0.8704   -0.3891 C   0  0  0  0  0  0  0  0  0  0  0  0
    1.9132    0.9422   -1.5540 O   0  0  0  0  0  0  0  0  0  0  0  0
    3.2858    1.0894   -1.2935 C   0  0  0  0  0  0  0  0  0  0  0  0
    4.0304    1.1548   -2.6068 C   0  0  0  0  0  0  0  0  0  0  0  0
   -0.2902   -1.4913   -0.8843 H   0  0  0  0  0  0  0  0  0  0  0  0
   -1.6314   -0.7472   -1.7580 H   0  0  0  0  0  0  0  0  0  0  0  0
    0.0034   -0.6834   -2.4256 H   0  0  0  0  0  0  0  0  0  0  0  0
   -0.6349    1.5169   -1.3929 H   0  0  0  0  0  0  0  0  0  0  0  0
    1.4719    0.0338    0.2410 H   0  0  0  0  0  0  0  0  0  0  0  0
    1.2482    1.7921    0.1994 H   0  0  0  0  0  0  0  0  0  0  0  0
    3.6453    0.2435   -0.6893 H   0  0  0  0  0  0  0  0  0  0  0  0
    3.4603    2.0035   -0.7068 H   0  0  0  0  0  0  0  0  0  0  0  0
    3.6842    2.0014   -3.2007 H   0  0  0  0  0  0  0  0  0  0  0  0
    5.1008    1.2700   -2.4292 H   0  0  0  0  0  0  0  0  0  0  0  0
    3.8706    0.2424   -3.1825 H   0  0  0  0  0  0  0  0  0  0  0  0
  1  2  1  0
  1  5  1  0
  1  6  1  0
  1  7  1  0
  2  3  1  0
  3  4  1  0
  3  8  1  0
  3  9  1  0
  4 10  1  0
  4 11  1  0
  4 12  1  0
 13 14  1  0
 13 19  1  0
 13 20  1  0
 13 21  1  0
 14 15  1  0
 14 22  1  0
 15 16  1  0
 15 23  1  0
 15 24  1  0
 16 17  1  0
 17 18  1  0
 17 25  1  0
 17 26  1  0
 18 27  1  0
 18 28  1  0
 18 29  1  0
M  RAD  1  14   2
M  END
>  <reaction>  (8) 
rmg_rxn_521

>  <mol_properties>  (8) 
{"0": {"label": "*1", "atom_type": "Cs"}, "1": {"label": "*0", "atom_type": "S2s"}, "4": {"label": "*2", "atom_type": "H0"}, "13": {"label": "*3", "atom_type": "Cs"}, "14": {"label": "*4", "atom_type": "Cs"}}

>  <type>  (8) 
unop_4

>  <geom_source>  (8) 
Heuristics

$$$$

     RDKit          3D

 29 27  0  0  0  0  0  0  0  0999 V2000
    0.9097   -0.2704    2.2958 C   0  0  0  0  0  0  0  0  0  0  0  0
   -0.7334   -0.8492    2.7536 S   0  0  0  0  0  0  0  0  0  0  0  0
   -0.7334   -2.4894    1.9899 C   0  0  0  0  0  0  0  0  0  0  0  0
   -0.7334   -2.4894    0.4696 C   0  0  0  0  0  0  0  0  0  0  0  0
    1.0245   -0.0947    1.0054 H   0  0  0  0  0  0  0  0  0  0  0  0
    1.6767   -0.9634    2.6439 H   0  0  0  0  0  0  0  0  0  0  0  0
    1.0562    0.6890    2.7901 H   0  0  0  0  0  0  0  0  0  0  0  0
   -1.6374   -2.9673    2.3709 H   0  0  0  0  0  0  0  0  0  0  0  0
    0.1158   -3.0542    2.3812 H   0  0  0  0  0  0  0  0  0  0  0  0
    0.1736   -2.0332    0.0703 H   0  0  0  0  0  0  0  0  0  0  0  0
   -1.5894   -1.9361    0.0819 H   0  0  0  0  0  0  0  0  0  0  0  0
   -0.7818   -3.5126    0.0900 H   0  0  0  0  0  0  0  0  0  0  0  0
    2.5417    0.5700   -0.6295 C   0  0  0  0  0  0  0  0  0  0  0  0
    1.1398    0.0816   -0.2898 C   0  0  0  0  0  3  0  0  0  0  0  0
    0.0524    1.0413   -0.7278 C   0  0  0  0  0  0  0  0  0  0  0  0
    0.0715    1.1590   -2.1281 O   0  0  0  0  0  0  0  0  0  0  0  0
   -0.8851    2.0607   -2.6235 C   0  0  0  0  0  0  0  0  0  0  0  0
   -0.7780    2.1115   -4.1300 C   0  0  0  0  0  0  0  0  0  0  0  0
    2.7479    1.5286   -0.1470 H   0  0  0  0  0  0  0  0  0  0  0  0
    3.2974   -0.1423   -0.2952 H   0  0  0  0  0  0  0  0  0  0  0  0
    2.6532    0.7056   -1.7052 H   0  0  0  0  0  0  0  0  0  0  0  0
    0.9564   -0.8884   -0.7591 H   0  0  0  0  0  0  0  0  0  0  0  0
    0.2117    2.0288   -0.2665 H   0  0  0  0  0  0  0  0  0  0  0  0
   -0.9317    0.6799   -0.3951 H   0  0  0  0  0  0  0  0  0  0  0  0
   -0.7178    3.0588   -2.1923 H   0  0  0  0  0  0  0  0  0  0  0  0
   -1.8935    1.7421   -2.3203 H   0  0  0  0  0  0  0  0  0  0  0  0
   -0.9574    1.1251   -4.5592 H   0  0  0  0  0  0  0  0  0  0  0  0
   -1.5134    2.8066   -4.5381 H   0  0  0  0  0  0  0  0  0  0  0  0
    0.2165    2.4422   -4.4315 H   0  0  0  0  0  0  0  0  0  0  0  0
  1  2  1  0
  1  5  1  0
  1  6  1  0
  1  7  1  0
  2  3  1  0
  3  4  1  0
  3  8  1  0
  3  9  1  0
  4 10  1  0
  4 11  1  0
  4 12  1  0
 13 14  1  0
 13 19  1  0
 13 20  1  0
 13 21  1  0
 14 15  1  0
 14 22  1  0
 15 16  1  0
 15 23  1  0
 15 24  1  0
 16 17  1  0
 17 18  1  0
 17 25  1  0
 17 26  1  0
 18 27  1  0
 18 28  1  0
 18 29  1  0
M  RAD  1  14   2
M  END
>  <reaction>  (9) 
rmg_rxn_521

>  <mol_properties>  (9) 
{"0": {"label": "*1", "atom_type": "Cs"}, "1": {"label": "*0", "atom_type": "S2s"}, "4": {"label": "*2", "atom_type": "H0"}, "13": {"label": "*3", "atom_type": "Cs"}, "14": {"label": "*4", "atom_type": "Cs"}}

>  <type>  (9) 
unop_5

>  <geom_source>  (9) 
Heuristics

$$$$

     RDKit          3D

 29 27  0  0  0  0  0  0  0  0999 V2000
   -0.4880   -0.1384    1.6321 C   0  0  0  0  0  0  0  0  0  0  0  0
   -2.1311   -0.7173    2.0898 S   0  0  0  0  0  0  0  0  0  0  0  0
   -2.1311   -2.3574    1.3262 C   0  0  0  0  0  0  0  0  0  0  0  0
   -2.1311   -2.3574   -0.1942 C   0  0  0  0  0  0  0  0  0  0  0  0
   -0.3731    0.0372    0.3416 H   0  0  0  0  0  0  0  0  0  0  0  0
    0.2790   -0.8315    1.9802 H   0  0  0  0  0  0  0  0  0  0  0  0
   -0.3415    0.8210    2.1264 H   0  0  0  0  0  0  0  0  0  0  0  0
   -3.0351   -2.8354    1.7071 H   0  0  0  0  0  0  0  0  0  0  0  0
   -1.2818   -2.9223    1.7174 H   0  0  0  0  0  0  0  0  0  0  0  0
   -1.2241   -1.9012   -0.5935 H   0  0  0  0  0  0  0  0  0  0  0  0
   -2.9871   -1.8042   -0.5819 H   0  0  0  0  0  0  0  0  0  0  0  0
   -2.1795   -3.3806   -0.5737 H   0  0  0  0  0  0  0  0  0  0  0  0
    0.2246   -1.0699   -1.6163 C   0  0  0  0  0  0  0  0  0  0  0  0
   -0.2579    0.2136   -0.9536 C   0  0  0  0  0  3  0  0  0  0  0  0
    0.8653    1.0285   -0.3457 C   0  0  0  0  0  0  0  0  0  0  0  0
    1.7406    1.4464   -1.3626 O   0  0  0  0  0  0  0  0  0  0  0  0
    2.8375    2.1825   -0.8846 C   0  0  0  0  0  0  0  0  0  0  0  0
    3.7097    2.5788   -2.0533 C   0  0  0  0  0  0  0  0  0  0  0  0
    0.7325   -1.7141   -0.8942 H   0  0  0  0  0  0  0  0  0  0  0  0
   -0.6102   -1.6323   -2.0372 H   0  0  0  0  0  0  0  0  0  0  0  0
    0.9268   -0.8490   -2.4201 H   0  0  0  0  0  0  0  0  0  0  0  0
   -0.7844    0.8366   -1.6812 H   0  0  0  0  0  0  0  0  0  0  0  0
    1.4127    0.4242    0.3950 H   0  0  0  0  0  0  0  0  0  0  0  0
    0.4589    1.9035    0.1824 H   0  0  0  0  0  0  0  0  0  0  0  0
    3.4097    1.5779   -0.1655 H   0  0  0  0  0  0  0  0  0  0  0  0
    2.4847    3.0757   -0.3479 H   0  0  0  0  0  0  0  0  0  0  0  0
    3.1471    3.1899   -2.7600 H   0  0  0  0  0  0  0  0  0  0  0  0
    4.5697    3.1533   -1.7055 H   0  0  0  0  0  0  0  0  0  0  0  0
    4.0726    1.6936   -2.5767 H   0  0  0  0  0  0  0  0  0  0  0  0
  1  2  1  0
  1  5  1  0
  1  6  1  0
  1  7  1  0
  2  3  1  0
  3  4  1  0
  3  8  1  0
  3  9  1  0
  4 10  1  0
  4 11  1  0
  4 12  1  0
 13 14  1  0
 13 19  1  0
 13 20  1  0
 13 21  1  0
 14 15  1  0
 14 22  1  0
 15 16  1  0
 15 23  1  0
 15 24  1  0
 16 17  1  0
 17 18  1  0
 17 25  1  0
 17 26  1  0
 18 27  1  0
 18 28  1  0
 18 29  1  0
M  RAD  1  14   2
M  END
>  <reaction>  (10) 
rmg_rxn_521

>  <mol_properties>  (10) 
{"0": {"label": "*1", "atom_type": "Cs"}, "1": {"label": "*0", "atom_type": "S2s"}, "4": {"label": "*2", "atom_type": "H0"}, "13": {"label": "*3", "atom_type": "Cs"}, "14": {"label": "*4", "atom_type": "Cs"}}

>  <type>  (10) 
unop_6

>  <geom_source>  (10) 
Heuristics

$$$$

     RDKit          3D

 29 27  0  0  0  0  0  0  0  0999 V2000
   -0.1433   -0.5554    1.6028 C   0  0  0  0  0  0  0  0  0  0  0  0
   -1.7864   -1.1343    2.0606 S   0  0  0  0  0  0  0  0  0  0  0  0
   -1.7864   -2.7744    1.2969 C   0  0  0  0  0  0  0  0  0  0  0  0
   -1.7864   -2.7744   -0.2235 C   0  0  0  0  0  0  0  0  0  0  0  0
   -0.0284   -0.3798    0.3124 H   0  0  0  0  0  0  0  0  0  0  0  0
    0.6237   -1.2485    1.9509 H   0  0  0  0  0  0  0  0  0  0  0  0
    0.0032    0.4039    2.0971 H   0  0  0  0  0  0  0  0  0  0  0  0
   -2.6904   -3.2524    1.6778 H   0  0  0  0  0  0  0  0  0  0  0  0
   -0.9371   -3.3393    1.6882 H   0  0  0  0  0  0  0  0  0  0  0  0
   -0.8794   -2.3182   -0.6228 H   0  0  0  0  0  0  0  0  0  0  0  0
   -2.6424   -2.2212   -0.6112 H   0  0  0  0  0  0  0  0  0  0  0  0
   -1.8348   -3.7976   -0.6030 H   0  0  0  0  0  0  0  0  0  0  0  0
    1.1888   -1.0965   -1.5373 C   0  0  0  0  0  0  0  0  0  0  0  0
    0.0868   -0.2034   -0.9829 C   0  0  0  0  0  3  0  0  0  0  0  0
    0.6122    1.0742   -0.3610 C   0  0  0  0  0  0  0  0  0  0  0  0
    1.2485    1.8455   -1.3486 O   0  0  0  0  0  0  0  0  0  0  0  0
    1.8003    3.0385   -0.8528 C   0  0  0  0  0  0  0  0  0  0  0  0
    2.4566    3.7858   -1.9905 C   0  0  0  0  0  0  0  0  0  0  0  0
    1.8873   -1.3883   -0.7491 H   0  0  0  0  0  0  0  0  0  0  0  0
    0.7745   -2.0077   -1.9714 H   0  0  0  0  0  0  0  0  0  0  0  0
    1.7544   -0.5769   -2.3107 H   0  0  0  0  0  0  0  0  0  0  0  0
   -0.6170    0.0606   -1.7763 H   0  0  0  0  0  0  0  0  0  0  0  0
    1.3240    0.8371    0.4457 H   0  0  0  0  0  0  0  0  0  0  0  0
   -0.2124    1.6466    0.0885 H   0  0  0  0  0  0  0  0  0  0  0  0
    2.5354    2.8128   -0.0662 H   0  0  0  0  0  0  0  0  0  0  0  0
    1.0125    3.6534   -0.3927 H   0  0  0  0  0  0  0  0  0  0  0  0
    1.7256    4.0221   -2.7645 H   0  0  0  0  0  0  0  0  0  0  0  0
    2.8926    4.7183   -1.6286 H   0  0  0  0  0  0  0  0  0  0  0  0
    3.2482    3.1832   -2.4372 H   0  0  0  0  0  0  0  0  0  0  0  0
  1  2  1  0
  1  5  1  0
  1  6  1  0
  1  7  1  0
  2  3  1  0
  3  4  1  0
  3  8  1  0
  3  9  1  0
  4 10  1  0
  4 11  1  0
  4 12  1  0
 13 14  1  0
 13 19  1  0
 13 20  1  0
 13 21  1  0
 14 15  1  0
 14 22  1  0
 15 16  1  0
 15 23  1  0
 15 24  1  0
 16 17  1  0
 17 18  1  0
 17 25  1  0
 17 26  1  0
 18 27  1  0
 18 28  1  0
 18 29  1  0
M  RAD  1  14   2
M  END
>  <reaction>  (11) 
rmg_rxn_521

>  <mol_properties>  (11) 
{"0": {"label": "*1", "atom_type": "Cs"}, "1": {"label": "*0", "atom_type": "S2s"}, "4": {"label": "*2", "atom_type": "H0"}, "13": {"label": "*3", "atom_type": "Cs"}, "14": {"label": "*4", "atom_type": "Cs"}}

>  <type>  (11) 
unop_7

>  <geom_source>  (11) 
Heuristics

$$$$

     RDKit          3D

 29 27  0  0  0  0  0  0  0  0999 V2000
    0.1896    0.5322    2.5157 C   0  0  0  0  0  0  0  0  0  0  0  0
   -1.4535   -0.0467    2.9735 S   0  0  0  0  0  0  0  0  0  0  0  0
   -1.4535   -1.6868    2.2099 C   0  0  0  0  0  0  0  0  0  0  0  0
   -1.4535   -1.6868    0.6895 C   0  0  0  0  0  0  0  0  0  0  0  0
    0.3044    0.7078    1.2253 H   0  0  0  0  0  0  0  0  0  0  0  0
    0.9566   -0.1609    2.8638 H   0  0  0  0  0  0  0  0  0  0  0  0
    0.3361    1.4915    3.0101 H   0  0  0  0  0  0  0  0  0  0  0  0
   -2.3576   -2.1648    2.5908 H   0  0  0  0  0  0  0  0  0  0  0  0
   -0.6043   -2.2517    2.6011 H   0  0  0  0  0  0  0  0  0  0  0  0
   -0.5465   -1.2306    0.2902 H   0  0  0  0  0  0  0  0  0  0  0  0
   -2.3095   -1.1336    0.3018 H   0  0  0  0  0  0  0  0  0  0  0  0
   -1.5020   -2.7100    0.3100 H   0  0  0  0  0  0  0  0  0  0  0  0
    0.0293    2.3084   -0.4417 C   0  0  0  0  0  0  0  0  0  0  0  0
    0.4197    0.8841   -0.0699 C   0  0  0  0  0  3  0  0  0  0  0  0
    0.3639   -0.0739   -1.2422 C   0  0  0  0  0  0  0  0  0  0  0  0
    1.3001    0.3225   -2.2125 O   0  0  0  0  0  0  0  0  0  0  0  0
    1.2937   -0.4922   -3.3570 C   0  0  0  0  0  0  0  0  0  0  0  0
    2.3303    0.0200   -4.3300 C   0  0  0  0  0  0  0  0  0  0  0  0
   -0.9898    2.3431   -0.8347 H   0  0  0  0  0  0  0  0  0  0  0  0
    0.0757    2.9676    0.4264 H   0  0  0  0  0  0  0  0  0  0  0  0
    0.6970    2.7046   -1.2067 H   0  0  0  0  0  0  0  0  0  0  0  0
    1.4314    0.8681    0.3437 H   0  0  0  0  0  0  0  0  0  0  0  0
   -0.6478   -0.0796   -1.6779 H   0  0  0  0  0  0  0  0  0  0  0  0
    0.5815   -1.0988   -0.9077 H   0  0  0  0  0  0  0  0  0  0  0  0
    0.2952   -0.4822   -3.8184 H   0  0  0  0  0  0  0  0  0  0  0  0
    1.5105   -1.5338   -3.0773 H   0  0  0  0  0  0  0  0  0  0  0  0
    3.3225   -0.0024   -3.8781 H   0  0  0  0  0  0  0  0  0  0  0  0
    2.3439   -0.5989   -5.2284 H   0  0  0  0  0  0  0  0  0  0  0  0
    2.1074    1.0475   -4.6200 H   0  0  0  0  0  0  0  0  0  0  0  0
  1  2  1  0
  1  5  1  0
  1  6  1  0
  1  7  1  0
  2  3  1  0
  3  4  1  0
  3  8  1  0
  3  9  1  0
  4 10  1  0
  4 11  1  0
  4 12  1  0
 13 14  1  0
 13 19  1  0
 13 20  1  0
 13 21  1  0
 14 15  1  0
 14 22  1  0
 15 16  1  0
 15 23  1  0
 15 24  1  0
 16 17  1  0
 17 18  1  0
 17 25  1  0
 17 26  1  0
 18 27  1  0
 18 28  1  0
 18 29  1  0
M  RAD  1  14   2
M  END
>  <reaction>  (12) 
rmg_rxn_521

>  <mol_properties>  (12) 
{"0": {"label": "*1", "atom_type": "Cs"}, "1": {"label": "*0", "atom_type": "S2s"}, "4": {"label": "*2", "atom_type": "H0"}, "13": {"label": "*3", "atom_type": "Cs"}, "14": {"label": "*4", "atom_type": "Cs"}}

>  <type>  (12) 
unop_8

>  <geom_source>  (12) 
Heuristics

$$$$

     RDKit          3D

 29 27  0  0  0  0  0  0  0  0999 V2000
   -0.3690    0.6408    2.0833 C   0  0  0  0  0  0  0  0  0  0  0  0
   -2.0122    0.0620    2.5411 S   0  0  0  0  0  0  0  0  0  0  0  0
   -2.0122   -1.5782    1.7774 C   0  0  0  0  0  0  0  0  0  0  0  0
   -2.0122   -1.5782    0.2571 C   0  0  0  0  0  0  0  0  0  0  0  0
   -0.2542    0.8165    0.7929 H   0  0  0  0  0  0  0  0  0  0  0  0
    0.3980   -0.0522    2.4314 H   0  0  0  0  0  0  0  0  0  0  0  0
   -0.2226    1.6002    2.5776 H   0  0  0  0  0  0  0  0  0  0  0  0
   -2.9162   -2.0561    2.1584 H   0  0  0  0  0  0  0  0  0  0  0  0
   -1.1629   -2.1430    2.1687 H   0  0  0  0  0  0  0  0  0  0  0  0
   -1.1052   -1.1220   -0.1422 H   0  0  0  0  0  0  0  0  0  0  0  0
   -2.8681   -1.0249   -0.1307 H   0  0  0  0  0  0  0  0  0  0  0  0
   -2.0606   -2.6014   -0.1225 H   0  0  0  0  0  0  0  0  0  0  0  0
   -1.0489    0.0243   -1.2461 C   0  0  0  0  0  0  0  0  0  0  0  0
   -0.1389    0.9928   -0.5023 C   0  0  0  0  0  3  0  0  0  0  0  0
    1.3163    0.5716   -0.5150 C   0  0  0  0  0  0  0  0  0  0  0  0
    1.7882    0.5668   -1.8388 O   0  0  0  0  0  0  0  0  0  0  0  0
    3.1258    0.1523   -1.9509 C   0  0  0  0  0  0  0  0  0  0  0  0
    3.5288    0.1829   -3.4069 C   0  0  0  0  0  0  0  0  0  0  0  0
   -1.0009   -0.9736   -0.8031 H   0  0  0  0  0  0  0  0  0  0  0  0
   -2.0876    0.3562   -1.2114 H   0  0  0  0  0  0  0  0  0  0  0  0
   -0.7521   -0.0588   -2.2916 H   0  0  0  0  0  0  0  0  0  0  0  0
   -0.2152    1.9912   -0.9407 H   0  0  0  0  0  0  0  0  0  0  0  0
    1.4229   -0.4328   -0.0755 H   0  0  0  0  0  0  0  0  0  0  0  0
    1.9181    1.2611    0.0952 H   0  0  0  0  0  0  0  0  0  0  0  0
    3.2391   -0.8625   -1.5418 H   0  0  0  0  0  0  0  0  0  0  0  0
    3.7746    0.8143   -1.3584 H   0  0  0  0  0  0  0  0  0  0  0  0
    3.4300    1.1915   -3.8097 H   0  0  0  0  0  0  0  0  0  0  0  0
    4.5665   -0.1354   -3.5188 H   0  0  0  0  0  0  0  0  0  0  0  0
    2.8962   -0.4851   -3.9927 H   0  0  0  0  0  0  0  0  0  0  0  0
  1  2  1  0
  1  5  1  0
  1  6  1  0
  1  7  1  0
  2  3  1  0
  3  4  1  0
  3  8  1  0
  3  9  1  0
  4 10  1  0
  4 11  1  0
  4 12  1  0
 13 14  1  0
 13 19  1  0
 13 20  1  0
 13 21  1  0
 14 15  1  0
 14 22  1  0
 15 16  1  0
 15 23  1  0
 15 24  1  0
 16 17  1  0
 17 18  1  0
 17 25  1  0
 17 26  1  0
 18 27  1  0
 18 28  1  0
 18 29  1  0
M  RAD  1  14   2
M  END
>  <reaction>  (13) 
rmg_rxn_521

>  <mol_properties>  (13) 
{"0": {"label": "*1", "atom_type": "Cs"}, "1": {"label": "*0", "atom_type": "S2s"}, "4": {"label": "*2", "atom_type": "H0"}, "13": {"label": "*3", "atom_type": "Cs"}, "14": {"label": "*4", "atom_type": "Cs"}}

>  <type>  (13) 
unop_9

>  <geom_source>  (13) 
Heuristics

$$$$

     RDKit          3D

 29 27  0  0  0  0  0  0  0  0999 V2000
    0.1387    0.4873    2.5079 C   0  0  0  0  0  0  0  0  0  0  0  0
   -1.5044   -0.0916    2.9657 S   0  0  0  0  0  0  0  0  0  0  0  0
   -1.5044   -1.7317    2.2020 C   0  0  0  0  0  0  0  0  0  0  0  0
   -1.5044   -1.7317    0.6816 C   0  0  0  0  0  0  0  0  0  0  0  0
    0.2536    0.6629    1.2175 H   0  0  0  0  0  0  0  0  0  0  0  0
    0.9057   -0.2058    2.8560 H   0  0  0  0  0  0  0  0  0  0  0  0
    0.2852    1.4466    3.0022 H   0  0  0  0  0  0  0  0  0  0  0  0
   -2.4084   -2.2097    2.5829 H   0  0  0  0  0  0  0  0  0  0  0  0
   -0.6551   -2.2966    2.5933 H   0  0  0  0  0  0  0  0  0  0  0  0
   -0.5974   -1.2755    0.2823 H   0  0  0  0  0  0  0  0  0  0  0  0
   -2.3603   -1.1785    0.2939 H   0  0  0  0  0  0  0  0  0  0  0  0
   -1.5528   -2.7549    0.3021 H   0  0  0  0  0  0  0  0  0  0  0  0
   -0.6410    1.8732   -0.5578 C   0  0  0  0  0  0  0  0  0  0  0  0
    0.3688    0.8392   -0.0778 C   0  0  0  0  0  3  0  0  0  0  0  0
    0.7498   -0.1629   -1.1482 C   0  0  0  0  0  0  0  0  0  0  0  0
    1.3848    0.5067   -2.2082 O   0  0  0  0  0  0  0  0  0  0  0  0
    1.7434   -0.3433   -3.2676 C   0  0  0  0  0  0  0  0  0  0  0  0
    2.4137    0.4741   -4.3475 C   0  0  0  0  0  0  0  0  0  0  0  0
   -1.5647    1.3915   -0.8881 H   0  0  0  0  0  0  0  0  0  0  0  0
   -0.8953    2.5733    0.2393 H   0  0  0  0  0  0  0  0  0  0  0  0
   -0.2415    2.4424   -1.3970 H   0  0  0  0  0  0  0  0  0  0  0  0
    1.2775    1.3362    0.2716 H   0  0  0  0  0  0  0  0  0  0  0  0
   -0.1492   -0.6815   -1.5175 H   0  0  0  0  0  0  0  0  0  0  0  0
    1.4211   -0.9284   -0.7323 H   0  0  0  0  0  0  0  0  0  0  0  0
    0.8486   -0.8450   -3.6648 H   0  0  0  0  0  0  0  0  0  0  0  0
    2.4211   -1.1301   -2.9045 H   0  0  0  0  0  0  0  0  0  0  0  0
    3.3086    0.9608   -3.9582 H   0  0  0  0  0  0  0  0  0  0  0  0
    2.7022   -0.1664   -5.1823 H   0  0  0  0  0  0  0  0  0  0  0  0
    1.7371    1.2445   -4.7191 H   0  0  0  0  0  0  0  0  0  0  0  0
  1  2  1  0
  1  5  1  0
  1  6  1  0
  1  7  1  0
  2  3  1  0
  3  4  1  0
  3  8  1  0
  3  9  1  0
  4 10  1  0
  4 11  1  0
  4 12  1  0
 13 14  1  0
 13 19  1  0
 13 20  1  0
 13 21  1  0
 14 15  1  0
 14 22  1  0
 15 16  1  0
 15 23  1  0
 15 24  1  0
 16 17  1  0
 17 18  1  0
 17 25  1  0
 17 26  1  0
 18 27  1  0
 18 28  1  0
 18 29  1  0
M  RAD  1  14   2
M  END
>  <reaction>  (14) 
rmg_rxn_521

>  <mol_properties>  (14) 
{"0": {"label": "*1", "atom_type": "Cs"}, "1": {"label": "*0", "atom_type": "S2s"}, "4": {"label": "*2", "atom_type": "H0"}, "13": {"label": "*3", "atom_type": "Cs"}, "14": {"label": "*4", "atom_type": "Cs"}}

>  <type>  (14) 
unop_10

>  <geom_source>  (14) 
Heuristics

$$$$

     RDKit          3D

 29 27  0  0  0  0  0  0  0  0999 V2000
    0.4301   -0.7110    1.8177 C   0  0  0  0  0  0  0  0  0  0  0  0
   -1.2131   -1.2898    2.2755 S   0  0  0  0  0  0  0  0  0  0  0  0
   -1.2131   -2.9300    1.5119 C   0  0  0  0  0  0  0  0  0  0  0  0
   -1.2131   -2.9300   -0.0085 C   0  0  0  0  0  0  0  0  0  0  0  0
    0.5449   -0.5353    0.5273 H   0  0  0  0  0  0  0  0  0  0  0  0
    1.1971   -1.4040    2.1658 H   0  0  0  0  0  0  0  0  0  0  0  0
    0.5765    0.2484    2.3121 H   0  0  0  0  0  0  0  0  0  0  0  0
   -2.1171   -3.4079    1.8928 H   0  0  0  0  0  0  0  0  0  0  0  0
   -0.3638   -3.4948    1.9031 H   0  0  0  0  0  0  0  0  0  0  0  0
   -0.3061   -2.4738   -0.4078 H   0  0  0  0  0  0  0  0  0  0  0  0
   -2.0690   -2.3767   -0.3962 H   0  0  0  0  0  0  0  0  0  0  0  0
   -1.2615   -3.9532   -0.3880 H   0  0  0  0  0  0  0  0  0  0  0  0
    2.0986   -0.6036   -1.2041 C   0  0  0  0  0  0  0  0  0  0  0  0
    0.6602   -0.3590   -0.7679 C   0  0  0  0  0  3  0  0  0  0  0  0
    0.3731    1.0942   -0.4502 C   0  0  0  0  0  0  0  0  0  0  0  0
    0.5414    1.8669   -1.6119 O   0  0  0  0  0  0  0  0  0  0  0  0
    0.3292    3.2397   -1.4022 C   0  0  0  0  0  0  0  0  0  0  0  0
    0.5355    3.9733   -2.7072 C   0  0  0  0  0  0  0  0  0  0  0  0
    2.7996   -0.3029   -0.4214 H   0  0  0  0  0  0  0  0  0  0  0  0
    2.2697   -1.6594   -1.4189 H   0  0  0  0  0  0  0  0  0  0  0  0
    2.3326   -0.0308   -2.1014 H   0  0  0  0  0  0  0  0  0  0  0  0
   -0.0299   -0.6863   -1.5499 H   0  0  0  0  0  0  0  0  0  0  0  0
    1.0544    1.4503    0.3388 H   0  0  0  0  0  0  0  0  0  0  0  0
   -0.6532    1.2060   -0.0707 H   0  0  0  0  0  0  0  0  0  0  0  0
    1.0250    3.6138   -0.6367 H   0  0  0  0  0  0  0  0  0  0  0  0
   -0.6898    3.4083   -1.0234 H   0  0  0  0  0  0  0  0  0  0  0  0
   -0.1633    3.6127   -3.4628 H   0  0  0  0  0  0  0  0  0  0  0  0
    0.3751    5.0436   -2.5687 H   0  0  0  0  0  0  0  0  0  0  0  0
    1.5504    3.8195   -3.0757 H   0  0  0  0  0  0  0  0  0  0  0  0
  1  2  1  0
  1  5  1  0
  1  6  1  0
  1  7  1  0
  2  3  1  0
  3  4  1  0
  3  8  1  0
  3  9  1  0
  4 10  1  0
  4 11  1  0
  4 12  1  0
 13 14  1  0
 13 19  1  0
 13 20  1  0
 13 21  1  0
 14 15  1  0
 14 22  1  0
 15 16  1  0
 15 23  1  0
 15 24  1  0
 16 17  1  0
 17 18  1  0
 17 25  1  0
 17 26  1  0
 18 27  1  0
 18 28  1  0
 18 29  1  0
M  RAD  1  14   2
M  END
>  <reaction>  (15) 
rmg_rxn_521

>  <mol_properties>  (15) 
{"0": {"label": "*1", "atom_type": "Cs"}, "1": {"label": "*0", "atom_type": "S2s"}, "4": {"label": "*2", "atom_type": "H0"}, "13": {"label": "*3", "atom_type": "Cs"}, "14": {"label": "*4", "atom_type": "Cs"}}

>  <type>  (15) 
unop_11

>  <geom_source>  (15) 
Heuristics

$$$$

     RDKit          3D

 29 27  0  0  0  0  0  0  0  0999 V2000
   -0.0855    0.6940    2.3385 C   0  0  0  0  0  0  0  0  0  0  0  0
   -1.7286    0.1152    2.7963 S   0  0  0  0  0  0  0  0  0  0  0  0
   -1.7286   -1.5249    2.0327 C   0  0  0  0  0  0  0  0  0  0  0  0
   -1.7286   -1.5249    0.5123 C   0  0  0  0  0  0  0  0  0  0  0  0
    0.0294    0.8697    1.0481 H   0  0  0  0  0  0  0  0  0  0  0  0
    0.6815    0.0010    2.6866 H   0  0  0  0  0  0  0  0  0  0  0  0
    0.0610    1.6534    2.8329 H   0  0  0  0  0  0  0  0  0  0  0  0
   -2.6326   -2.0029    2.4136 H   0  0  0  0  0  0  0  0  0  0  0  0
   -0.8793   -2.0898    2.4239 H   0  0  0  0  0  0  0  0  0  0  0  0
   -0.8216   -1.0687    0.1130 H   0  0  0  0  0  0  0  0  0  0  0  0
   -2.5845   -0.9717    0.1246 H   0  0  0  0  0  0  0  0  0  0  0  0
   -1.7770   -2.5481    0.1328 H   0  0  0  0  0  0  0  0  0  0  0  0
   -1.1652    0.6985   -0.9419 C   0  0  0  0  0  0  0  0  0  0  0  0
    0.1446    1.0460   -0.2471 C   0  0  0  0  0  3  0  0  0  0  0  0
    1.3139    0.2115   -0.7285 C   0  0  0  0  0  0  0  0  0  0  0  0
    1.5407    0.4699   -2.0912 O   0  0  0  0  0  0  0  0  0  0  0  0
    2.5897   -0.2904   -2.6343 C   0  0  0  0  0  0  0  0  0  0  0  0
    2.7467    0.0628   -4.0952 C   0  0  0  0  0  0  0  0  0  0  0  0
   -1.4293   -0.3487   -0.7743 H   0  0  0  0  0  0  0  0  0  0  0  0
   -1.9840    1.3142   -0.5669 H   0  0  0  0  0  0  0  0  0  0  0  0
   -1.0852    0.8557   -2.0175 H   0  0  0  0  0  0  0  0  0  0  0  0
    0.3837    2.1012   -0.4031 H   0  0  0  0  0  0  0  0  0  0  0  0
    1.1004   -0.8590   -0.5806 H   0  0  0  0  0  0  0  0  0  0  0  0
    2.2166    0.4483   -0.1465 H   0  0  0  0  0  0  0  0  0  0  0  0
    2.3738   -1.3629   -2.5191 H   0  0  0  0  0  0  0  0  0  0  0  0
    3.5224   -0.0876   -2.0873 H   0  0  0  0  0  0  0  0  0  0  0  0
    2.9744    1.1231   -4.2096 H   0  0  0  0  0  0  0  0  0  0  0  0
    3.5579   -0.5164   -4.5391 H   0  0  0  0  0  0  0  0  0  0  0  0
    1.8276   -0.1526   -4.6413 H   0  0  0  0  0  0  0  0  0  0  0  0
  1  2  1  0
  1  5  1  0
  1  6  1  0
  1  7  1  0
  2  3  1  0
  3  4  1  0
  3  8  1  0
  3  9  1  0
  4 10  1  0
  4 11  1  0
  4 12  1  0
 13 14  1  0
 13 19  1  0
 13 20  1  0
 13 21  1  0
 14 15  1  0
 14 22  1  0
 15 16  1  0
 15 23  1  0
 15 24  1  0
 16 17  1  0
 17 18  1  0
 17 25  1  0
 17 26  1  0
 18 27  1  0
 18 28  1  0
 18 29  1  0
M  RAD  1  14   2
M  END
>  <reaction>  (16) 
rmg_rxn_521

>  <mol_properties>  (16) 
{"0": {"label": "*1", "atom_type": "Cs"}, "1": {"label": "*0", "atom_type": "S2s"}, "4": {"label": "*2", "atom_type": "H0"}, "13": {"label": "*3", "atom_type": "Cs"}, "14": {"label": "*4", "atom_type": "Cs"}}

>  <type>  (16) 
unop_12

>  <geom_source>  (16) 
Heuristics

$$$$

     RDKit          3D

 29 27  0  0  0  0  0  0  0  0999 V2000
    2.1644   -1.7157    0.4331 S   0  0  0  0  0  0  0  0  0  0  0  0
   -2.3378    0.2747   -0.0505 O   0  0  0  0  0  0  0  0  0  0  0  0
   -0.2210   -0.6736   -0.6866 C   0  0  0  0  0  0  0  0  0  0  0  0
   -0.9572    0.5549   -0.1539 C   0  0  0  0  0  0  0  0  0  0  0  0
   -3.0157    1.4182    0.4237 C   0  0  0  0  0  0  0  0  0  0  0  0
    3.6620   -1.0354    1.2260 C   0  0  0  0  0  0  0  0  0  0  0  0
   -0.6394   -1.0145   -2.1143 C   0  0  0  0  0  0  0  0  0  0  0  0
   -4.4993    1.1050    0.5416 C   0  0  0  0  0  0  0  0  0  0  0  0
    3.3991    0.3616    1.7742 C   0  0  0  0  0  0  0  0  0  0  0  0
    2.3389   -0.7371   -1.0905 C   0  0  0  0  0  3  0  0  0  0  0  0
   -0.4200   -1.5441   -0.0244 H   0  0  0  0  0  0  0  0  0  0  0  0
    1.0889   -0.4296   -0.6720 H   0  0  0  0  0  0  0  0  0  0  0  0
   -0.7699    1.4116   -0.8416 H   0  0  0  0  0  0  0  0  0  0  0  0
   -0.5333    0.7958    0.8473 H   0  0  0  0  0  0  0  0  0  0  0  0
   -2.8953    2.2711   -0.2828 H   0  0  0  0  0  0  0  0  0  0  0  0
   -2.6407    1.7129    1.4305 H   0  0  0  0  0  0  0  0  0  0  0  0
    3.9450   -1.7037    2.0663 H   0  0  0  0  0  0  0  0  0  0  0  0
    4.5082   -1.0108    0.5064 H   0  0  0  0  0  0  0  0  0  0  0  0
   -0.0612   -1.8940   -2.4670 H   0  0  0  0  0  0  0  0  0  0  0  0
   -0.4304   -0.1589   -2.7908 H   0  0  0  0  0  0  0  0  0  0  0  0
   -1.7215   -1.2614   -2.1551 H   0  0  0  0  0  0  0  0  0  0  0  0
   -5.0438    1.9987    0.9134 H   0  0  0  0  0  0  0  0  0  0  0  0
   -4.9080    0.8216   -0.4516 H   0  0  0  0  0  0  0  0  0  0  0  0
   -4.6554    0.2663    1.2529 H   0  0  0  0  0  0  0  0  0  0  0  0
    2.5591    0.3355    2.5003 H   0  0  0  0  0  0  0  0  0  0  0  0
    4.3076    0.7345    2.2924 H   0  0  0  0  0  0  0  0  0  0  0  0
    3.1491    1.0613    0.9494 H   0  0  0  0  0  0  0  0  0  0  0  0
    3.2084   -1.1031   -1.6749 H   0  0  0  0  0  0  0  0  0  0  0  0
    1.4193   -0.8417   -1.7018 H   0  0  0  0  0  0  0  0  0  0  0  0
  1 10  1  0
  1  6  1  0
  2  5  1  0
  2  4  1  0
  3  7  1  0
  3  4  1  0
  3 11  1  0
  3 12  1  0
  4 13  1  0
  4 14  1  0
  5  8  1  0
  5 15  1  0
  5 16  1  0
  6  9  1  0
  6 17  1  0
  6 18  1  0
  7 19  1  0
  7 20  1  0
  7 21  1  0
  8 22  1  0
  8 23  1  0
  8 24  1  0
  9 25  1  0
  9 26  1  0
  9 27  1  0
 10 28  1  0
 10 29  1  0
M  RAD  1  10   2
M  END
>  <reaction>  (17) 
rmg_rxn_521

>  <mol_properties>  (17) 
{"0": {"label": "*1", "atom_type": "Cs"}, "1": {"label": "*0", "atom_type": "S2s"}, "4": {"label": "*2", "atom_type": "H0"}, "13": {"label": "*3", "atom_type": "Cs"}, "14": {"label": "*4", "atom_type": "Cs"}}

>  <type>  (17) 
unop_13

>  <geom_source>  (17) 
AutoTST

$$$$

     RDKit          3D

 29 27  0  0  0  0  0  0  0  0999 V2000
    0.0951    0.5676    2.4755 C   0  0  0  0  0  0  0  0  0  0  0  0
   -1.5481   -0.0112    2.9333 S   0  0  0  0  0  0  0  0  0  0  0  0
   -1.5481   -1.6513    2.1696 C   0  0  0  0  0  0  0  0  0  0  0  0
   -1.5481   -1.6513    0.6493 C   0  0  0  0  0  0  0  0  0  0  0  0
    0.2099    0.7433    1.1851 H   0  0  0  0  0  0  0  0  0  0  0  0
    0.8621   -0.1254    2.8236 H   0  0  0  0  0  0  0  0  0  0  0  0
    0.2415    1.5270    2.9698 H   0  0  0  0  0  0  0  0  0  0  0  0
   -2.4521   -2.1293    2.5505 H   0  0  0  0  0  0  0  0  0  0  0  0
   -0.6988   -2.2162    2.5609 H   0  0  0  0  0  0  0  0  0  0  0  0
   -0.6411   -1.1951    0.2500 H   0  0  0  0  0  0  0  0  0  0  0  0
   -2.4040   -1.0981    0.2615 H   0  0  0  0  0  0  0  0  0  0  0  0
   -1.5965   -2.6745    0.2697 H   0  0  0  0  0  0  0  0  0  0  0  0
   -1.0212    1.3050   -0.7084 C   0  0  0  0  0  0  0  0  0  0  0  0
    0.3252    0.9196   -0.1101 C   0  0  0  0  0  3  0  0  0  0  0  0
    1.0983   -0.0622   -0.9666 C   0  0  0  0  0  0  0  0  0  0  0  0
    1.4024    0.5359   -2.2015 O   0  0  0  0  0  0  0  0  0  0  0  0
    2.0915   -0.3182   -3.0784 C   0  0  0  0  0  0  0  0  0  0  0  0
    2.3660    0.4199   -4.3681 C   0  0  0  0  0  0  0  0  0  0  0  0
   -1.6561    0.4250   -0.8384 H   0  0  0  0  0  0  0  0  0  0  0  0
   -1.5510    2.0074   -0.0633 H   0  0  0  0  0  0  0  0  0  0  0  0
   -0.8906    1.7709   -1.6851 H   0  0  0  0  0  0  0  0  0  0  0  0
    0.9398    1.8115    0.0364 H   0  0  0  0  0  0  0  0  0  0  0  0
    0.5017   -0.9739   -1.1286 H   0  0  0  0  0  0  0  0  0  0  0  0
    2.0255   -0.3643   -0.4578 H   0  0  0  0  0  0  0  0  0  0  0  0
    1.4918   -1.2200   -3.2716 H   0  0  0  0  0  0  0  0  0  0  0  0
    3.0338   -0.6490   -2.6168 H   0  0  0  0  0  0  0  0  0  0  0  0
    2.9721    1.3066   -4.1794 H   0  0  0  0  0  0  0  0  0  0  0  0
    2.9022   -0.2250   -5.0661 H   0  0  0  0  0  0  0  0  0  0  0  0
    1.4317    0.7347   -4.8345 H   0  0  0  0  0  0  0  0  0  0  0  0
  1  2  1  0
  1  5  1  0
  1  6  1  0
  1  7  1  0
  2  3  1  0
  3  4  1  0
  3  8  1  0
  3  9  1  0
  4 10  1  0
  4 11  1  0
  4 12  1  0
 13 14  1  0
 13 19  1  0
 13 20  1  0
 13 21  1  0
 14 15  1  0
 14 22  1  0
 15 16  1  0
 15 23  1  0
 15 24  1  0
 16 17  1  0
 17 18  1  0
 17 25  1  0
 17 26  1  0
 18 27  1  0
 18 28  1  0
 18 29  1  0
M  RAD  1  14   2
M  END
>  <reaction>  (18) 
rmg_rxn_521

>  <mol_properties>  (18) 
{"0": {"label": "*1", "atom_type": "Cs"}, "1": {"label": "*0", "atom_type": "S2s"}, "4": {"label": "*2", "atom_type": "H0"}, "13": {"label": "*3", "atom_type": "Cs"}, "14": {"label": "*4", "atom_type": "Cs"}}

>  <type>  (18) 
unop_14

>  <geom_source>  (18) 
gaussian_log

$$$$
