
     RDKit          3D

 13 12  0  0  0  0  0  0  0  0999 V2000
   -2.5787    0.3845    0.5363 N   0  0  0  0  0  1  0  0  0  0  0  0
   -2.0448   -0.2878   -0.3016 N   0  0  0  0  0  0  0  0  0  0  0  0
   -0.5705   -0.4119   -0.5708 C   0  0  0  0  0  0  0  0  0  0  0  0
    0.2772    0.2247    0.5075 C   0  0  0  0  0  0  0  0  0  0  0  0
    0.2957   -0.5646    1.8104 C   0  0  0  0  0  0  0  0  0  0  0  0
   -2.5889   -0.8713   -0.9748 H   0  0  0  0  0  0  0  0  0  0  0  0
   -0.3659   -1.4815   -0.6747 H   0  0  0  0  0  0  0  0  0  0  0  0
   -0.4043    0.0541   -1.5457 H   0  0  0  0  0  0  0  0  0  0  0  0
    1.2919    0.3223    0.1145 H   0  0  0  0  0  0  0  0  0  0  0  0
   -0.0978    1.2330    0.6915 H   0  0  0  0  0  0  0  0  0  0  0  0
    0.6693   -1.5792    1.6503 H   0  0  0  0  0  0  0  0  0  0  0  0
   -0.7042   -0.6287    2.2395 H   0  0  0  0  0  0  0  0  0  0  0  0
    0.9431   -0.0833    2.5443 H   0  0  0  0  0  0  0  0  0  0  0  0
  1  2  1  0
  2  3  1  0
  2  6  1  0
  3  4  1  0
  3  7  1  0
  3  8  1  0
  4  5  1  0
  4  9  1  0
  4 10  1  0
  5 11  1  0
  5 12  1  0
  5 13  1  0
M  RAD  1   1   3
M  END
>  <reaction>  (1) 
rmg_rxn_15652

>  <mol_properties>  (1) 
{"2": {"label": "donator", "atom_type": "Cs"}, "6": {"label": "d_hydrogen", "atom_type": "H0"}}

>  <type>  (1) 
r1h

$$$$

     RDKit          3D

  8  7  0  0  0  0  0  0  0  0999 V2000
    1.7077   -0.1964   -0.0607 C   0  0  0  0  0  3  0  0  0  0  0  0
    0.4209   -0.4565    0.2808 O   0  0  0  0  0  0  0  0  0  0  0  0
   -0.4607    0.4385   -0.2968 N   0  0  0  0  0  0  0  0  0  0  0  0
   -1.6584    0.1416   -0.0244 C   0  0  0  0  0  0  0  0  0  0  0  0
    2.4163   -0.7685    0.5170 H   0  0  0  0  0  0  0  0  0  0  0  0
    1.9214    0.7645   -0.5045 H   0  0  0  0  0  0  0  0  0  0  0  0
   -2.4185    0.7953   -0.4307 H   0  0  0  0  0  0  0  0  0  0  0  0
   -1.9286   -0.7185    0.5831 H   0  0  0  0  0  0  0  0  0  0  0  0
  1  2  1  0
  1  5  1  0
  1  6  1  0
  2  3  1  0
  3  4  2  3
  4  7  1  0
  4  8  1  0
M  RAD  1   1   2
M  END
>  <reaction>  (2) 
rmg_rxn_15652

>  <mol_properties>  (2) 
{"0": {"label": "acceptor", "atom_type": "Cs"}}

>  <type>  (2) 
r2

$$$$

     RDKit          3D

  9  8  0  0  0  0  0  0  0  0999 V2000
   -1.5470   -0.0755   -0.1976 C   0  0  0  0  0  0  0  0  0  0  0  0
   -0.2885    0.4507    0.1749 O   0  0  0  0  0  0  0  0  0  0  0  0
   -0.1502    1.7216   -0.3294 N   0  0  0  0  0  0  0  0  0  0  0  0
    0.9626    2.2353   -0.0219 C   0  0  0  0  0  0  0  0  0  0  0  0
   -1.6392   -0.1356   -1.2844 H   0  0  0  0  0  0  0  0  0  0  0  0
   -2.3597    0.5337    0.2044 H   0  0  0  0  0  0  0  0  0  0  0  0
   -1.5879   -1.0750    0.2318 H   0  0  0  0  0  0  0  0  0  0  0  0
    1.1497    3.2381   -0.3820 H   0  0  0  0  0  0  0  0  0  0  0  0
    1.7060    1.7101    0.5739 H   0  0  0  0  0  0  0  0  0  0  0  0
  1  2  1  0
  1  5  1  0
  1  6  1  0
  1  7  1  0
  2  3  1  0
  3  4  2  3
  4  8  1  0
  4  9  1  0
M  END
>  <reaction>  (3) 
rmg_rxn_15652

>  <mol_properties>  (3) 
{"0": {"label": "acceptor", "atom_type": "Cs"}, "8": {"label": "a_hydrogen", "atom_type": "H0"}}

>  <type>  (3) 
r2h

$$$$

     RDKit          3D

 21 19  0  0  0  0  0  0  0  0999 V2000
    0.7676    1.1233    1.0701 C   0  0  0  0  0  3  0  0  0  0  0  0
    1.8708    1.1150    0.2323 O   0  0  0  0  0  0  0  0  0  0  0  0
    2.2400   -0.1798   -0.0719 N   0  0  0  0  0  0  0  0  0  0  0  0
    3.3023   -0.2162   -0.7555 C   0  0  0  0  0  0  0  0  0  0  0  0
    0.8826    0.5021    1.9583 H   0  0  0  0  0  0  0  0  0  0  0  0
    0.4890    2.1546    1.2615 H   0  0  0  0  0  0  0  0  0  0  0  0
    3.6585   -1.1962   -1.0437 H   0  0  0  0  0  0  0  0  0  0  0  0
    3.8433    0.6813   -1.0451 H   0  0  0  0  0  0  0  0  0  0  0  0
   -1.5251   -2.3056    0.7206 N   0  0  0  0  0  1  0  0  0  0  0  0
   -0.7847   -1.5888    0.0844 N   0  0  0  0  0  0  0  0  0  0  0  0
   -1.0637   -0.2288   -0.3666 C   0  0  0  0  0  0  0  0  0  0  0  0
   -2.4689    0.2448   -0.1536 C   0  0  0  0  0  0  0  0  0  0  0  0
   -2.6462    1.6960   -0.5830 C   0  0  0  0  0  0  0  0  0  0  0  0
    0.1832   -1.8709   -0.1693 H   0  0  0  0  0  0  0  0  0  0  0  0
   -0.2514    0.5094    0.3720 H   0  0  0  0  0  0  0  0  0  0  0  0
   -0.6609   -0.0819   -1.3713 H   0  0  0  0  0  0  0  0  0  0  0  0
   -3.1567   -0.4020   -0.7072 H   0  0  0  0  0  0  0  0  0  0  0  0
   -2.7312    0.1121    0.8979 H   0  0  0  0  0  0  0  0  0  0  0  0
   -2.4106    1.8300   -1.6412 H   0  0  0  0  0  0  0  0  0  0  0  0
   -1.9958    2.3617   -0.0118 H   0  0  0  0  0  0  0  0  0  0  0  0
   -3.6748    2.0222   -0.4276 H   0  0  0  0  0  0  0  0  0  0  0  0
  1  2  1  0
  1  5  1  0
  1  6  1  0
  2  3  1  0
  3  4  2  3
  4  7  1  0
  4  8  1  0
  9 10  1  0
 10 11  1  0
 10 14  1  0
 11 12  1  0
 11 15  1  0
 11 16  1  0
 12 13  1  0
 12 17  1  0
 12 18  1  0
 13 19  1  0
 13 20  1  0
 13 21  1  0
M  RAD  2   1   2   9   3
M  END
>  <reaction>  (4) 
rmg_rxn_15652

>  <mol_properties>  (4) 
{"0": {"label": "*3", "atom_type": "Cs"}, "1": {"label": "*4", "atom_type": "O2s"}, "9": {"label": "*0", "atom_type": "N3s"}, "10": {"label": "*1", "atom_type": "Cs"}, "14": {"label": "*2", "atom_type": "H0"}}

>  <type>  (4) 
ts

$$$$

     RDKit          3D

 21 19  0  0  0  0  0  0  0  0999 V2000
    0.6991    1.3239    0.9805 C   0  0  0  0  0  0  0  0  0  0  0  0
    1.8851    1.1328    0.2492 O   0  0  0  0  0  0  0  0  0  0  0  0
    2.0445   -0.1795   -0.1498 N   0  0  0  0  0  0  0  0  0  0  0  0
    3.1518   -0.4723   -0.6766 C   0  0  0  0  0  0  0  0  0  0  0  0
    0.7687    0.9171    1.9902 H   0  0  0  0  0  0  0  0  0  0  0  0
    0.5038    2.3909    0.9807 H   0  0  0  0  0  0  0  0  0  0  0  0
    3.2807   -1.4892   -1.0043 H   0  0  0  0  0  0  0  0  0  0  0  0
    3.9656    0.2315   -0.8170 H   0  0  0  0  0  0  0  0  0  0  0  0
   -1.2369   -2.2389    0.6647 N   0  0  0  0  0  1  0  0  0  0  0  0
   -0.6005   -1.4579   -0.0327 N   0  0  0  0  0  0  0  0  0  0  0  0
   -0.9722   -0.1843   -0.4187 C   0  0  0  0  0  3  0  0  0  0  0  0
   -2.4253    0.1563   -0.2045 C   0  0  0  0  0  0  0  0  0  0  0  0
   -2.7055    1.6362   -0.4297 C   0  0  0  0  0  0  0  0  0  0  0  0
    0.3734   -1.6890   -0.3320 H   0  0  0  0  0  0  0  0  0  0  0  0
   -0.2182    0.6760    0.3691 H   0  0  0  0  0  0  0  0  0  0  0  0
   -0.5642    0.0958   -1.3887 H   0  0  0  0  0  0  0  0  0  0  0  0
   -3.0452   -0.4392   -0.8842 H   0  0  0  0  0  0  0  0  0  0  0  0
   -2.6960   -0.1391    0.8126 H   0  0  0  0  0  0  0  0  0  0  0  0
   -3.7668    1.8388   -0.3136 H   0  0  0  0  0  0  0  0  0  0  0  0
   -2.4075    1.9343   -1.4327 H   0  0  0  0  0  0  0  0  0  0  0  0
   -2.1586    2.2438    0.2871 H   0  0  0  0  0  0  0  0  0  0  0  0
  1  2  1  0
  1  5  1  0
  1  6  1  0
  1 15  1  0
  2  3  1  0
  3  4  2  3
  4  7  1  0
  4  8  1  0
  9 10  1  0
 10 11  1  0
 10 14  1  0
 11 12  1  0
 11 16  1  0
 12 13  1  0
 12 17  1  0
 12 18  1  0
 13 19  1  0
 13 20  1  0
 13 21  1  0
M  CHG  2   9  -1  11   1
M  RAD  1   9   2
M  END
>  <reaction>  (5) 
rmg_rxn_15652

>  <mol_properties>  (5) 
{"0": {"label": "*3", "atom_type": "Cs"}, "1": {"label": "*4", "atom_type": "O2s"}, "9": {"label": "*0", "atom_type": "N3s"}, "10": {"label": "*1", "atom_type": "Cs"}, "14": {"label": "*2", "atom_type": "H0"}}

>  <type>  (5) 
unop_1

>  <geom_source>  (5) 
crest_best.xyz

$$$$

     RDKit          3D

 21 19  0  0  0  0  0  0  0  0999 V2000
   -0.9009   -0.4401    0.7984 C   0  0  0  0  0  0  0  0  0  0  0  0
   -0.2140   -0.4277    2.0344 O   0  0  0  0  0  0  0  0  0  0  0  0
   -1.0015    0.1588    2.9960 N   0  0  0  0  0  0  0  0  0  0  0  0
   -0.4288    0.1932    4.1218 C   0  0  0  0  0  0  0  0  0  0  0  0
   -1.8253   -1.0175    0.8709 H   0  0  0  0  0  0  0  0  0  0  0  0
   -1.1300    0.5758    0.4685 H   0  0  0  0  0  0  0  0  0  0  0  0
   -0.9843    0.6409    4.9349 H   0  0  0  0  0  0  0  0  0  0  0  0
    0.5717   -0.2027    4.2828 H   0  0  0  0  0  0  0  0  0  0  0  0
    0.9160   -1.1634   -3.1418 N   0  0  0  0  0  1  0  0  0  0  0  0
    0.9160   -1.1634   -1.9422 N   0  0  0  0  0  0  0  0  0  0  0  0
    0.9160    0.0310   -1.0284 C   0  0  0  0  0  3  0  0  0  0  0  0
    0.6593    1.3287   -1.7610 C   0  0  0  0  0  0  0  0  0  0  0  0
   -0.7841    1.4913   -2.2205 C   0  0  0  0  0  0  0  0  0  0  0  0
    0.9353   -2.0473   -1.3871 H   0  0  0  0  0  0  0  0  0  0  0  0
    0.0053   -0.2051   -0.1128 H   0  0  0  0  0  0  0  0  0  0  0  0
    1.8913    0.0297   -0.5346 H   0  0  0  0  0  0  0  0  0  0  0  0
    0.9328    2.1460   -1.0896 H   0  0  0  0  0  0  0  0  0  0  0  0
    1.3289    1.3778   -2.6215 H   0  0  0  0  0  0  0  0  0  0  0  0
   -1.4738    1.4462   -1.3739 H   0  0  0  0  0  0  0  0  0  0  0  0
   -1.0561    0.7093   -2.9294 H   0  0  0  0  0  0  0  0  0  0  0  0
   -0.9259    2.4531   -2.7147 H   0  0  0  0  0  0  0  0  0  0  0  0
  1  2  1  0
  1  5  1  0
  1  6  1  0
  1 15  1  0
  2  3  1  0
  3  4  2  3
  4  7  1  0
  4  8  1  0
  9 10  1  0
 10 11  1  0
 10 14  1  0
 11 12  1  0
 11 16  1  0
 12 13  1  0
 12 17  1  0
 12 18  1  0
 13 19  1  0
 13 20  1  0
 13 21  1  0
M  CHG  2   9  -1  11   1
M  RAD  1   9   2
M  END
>  <reaction>  (6) 
rmg_rxn_15652

>  <mol_properties>  (6) 
{"0": {"label": "*3", "atom_type": "Cs"}, "1": {"label": "*4", "atom_type": "O2s"}, "9": {"label": "*0", "atom_type": "N3s"}, "10": {"label": "*1", "atom_type": "Cs"}, "14": {"label": "*2", "atom_type": "H0"}}

>  <type>  (6) 
unop_2

>  <geom_source>  (6) 
Heuristics

$$$$

     RDKit          3D

 21 19  0  0  0  0  0  0  0  0999 V2000
    0.7000    1.3228    0.9834 C   0  0  0  0  0  0  0  0  0  0  0  0
    1.8851    1.1319    0.2504 O   0  0  0  0  0  0  0  0  0  0  0  0
    2.0436   -0.1801   -0.1500 N   0  0  0  0  0  0  0  0  0  0  0  0
    3.1495   -0.4722   -0.6803 C   0  0  0  0  0  0  0  0  0  0  0  0
    0.7703    0.9144    1.9924 H   0  0  0  0  0  0  0  0  0  0  0  0
    0.5055    2.3899    0.9852 H   0  0  0  0  0  0  0  0  0  0  0  0
    3.2776   -1.4890   -1.0087 H   0  0  0  0  0  0  0  0  0  0  0  0
    3.9631    0.2316   -0.8217 H   0  0  0  0  0  0  0  0  0  0  0  0
   -1.2384   -2.2386    0.6647 N   0  0  0  0  0  1  0  0  0  0  0  0
   -0.6001   -1.4573   -0.0304 N   0  0  0  0  0  0  0  0  0  0  0  0
   -0.9711   -0.1838   -0.4176 C   0  0  0  0  0  3  0  0  0  0  0  0
   -2.4249    0.1566   -0.2078 C   0  0  0  0  0  0  0  0  0  0  0  0
   -2.7038    1.6371   -0.4303 C   0  0  0  0  0  0  0  0  0  0  0  0
    0.3750   -1.6875   -0.3269 H   0  0  0  0  0  0  0  0  0  0  0  0
   -0.2183    0.6762    0.3717 H   0  0  0  0  0  0  0  0  0  0  0  0
   -0.5606    0.0961   -1.3866 H   0  0  0  0  0  0  0  0  0  0  0  0
   -3.0425   -0.4371   -0.8912 H   0  0  0  0  0  0  0  0  0  0  0  0
   -2.6994   -0.1413    0.8077 H   0  0  0  0  0  0  0  0  0  0  0  0
   -2.1605    2.2427    0.2908 H   0  0  0  0  0  0  0  0  0  0  0  0
   -3.7657    1.8395   -0.3191 H   0  0  0  0  0  0  0  0  0  0  0  0
   -2.4007    1.9379   -1.4310 H   0  0  0  0  0  0  0  0  0  0  0  0
  1  2  1  0
  1  5  1  0
  1  6  1  0
  1 15  1  0
  2  3  1  0
  3  4  2  3
  4  7  1  0
  4  8  1  0
  9 10  1  0
 10 11  1  0
 10 14  1  0
 11 12  1  0
 11 16  1  0
 12 13  1  0
 12 17  1  0
 12 18  1  0
 13 19  1  0
 13 20  1  0
 13 21  1  0
M  CHG  2   9  -1  11   1
M  RAD  1   9   2
M  END
>  <reaction>  (7) 
rmg_rxn_15652

>  <mol_properties>  (7) 
{"0": {"label": "*3", "atom_type": "Cs"}, "1": {"label": "*4", "atom_type": "O2s"}, "9": {"label": "*0", "atom_type": "N3s"}, "10": {"label": "*1", "atom_type": "Cs"}, "14": {"label": "*2", "atom_type": "H0"}}

>  <type>  (7) 
unop_3

>  <geom_source>  (7) 
Heuristics

$$$$

     RDKit          3D

 21 19  0  0  0  0  0  0  0  0999 V2000
   -2.4660   -1.5039   -0.0569 C   0  0  0  0  0  0  0  0  0  0  0  0
   -2.8938   -0.1994    0.2645 O   0  0  0  0  0  0  0  0  0  0  0  0
   -1.9722    0.7529   -0.1087 N   0  0  0  0  0  0  0  0  0  0  0  0
   -2.2978    1.9577    0.0658 C   0  0  0  0  0  0  0  0  0  0  0  0
   -2.8672   -2.1910    0.6582 H   0  0  0  0  0  0  0  0  0  0  0  0
   -2.6924   -1.7739   -1.0851 H   0  0  0  0  0  0  0  0  0  0  0  0
   -1.5751    2.7057   -0.2106 H   0  0  0  0  0  0  0  0  0  0  0  0
   -3.2517    2.2720    0.4743 H   0  0  0  0  0  0  0  0  0  0  0  0
    0.5564   -1.4362    0.2262 N   0  0  0  0  0  1  0  0  0  0  0  0
    0.6799   -0.2670   -0.2035 N   0  0  0  0  0  0  0  0  0  0  0  0
    1.7432    0.4231   -0.5595 C   0  0  0  0  0  3  0  0  0  0  0  0
    3.1174   -0.1421   -0.4375 C   0  0  0  0  0  0  0  0  0  0  0  0
    3.9004    0.4929    0.7164 C   0  0  0  0  0  0  0  0  0  0  0  0
   -0.2350    0.2508   -0.2940 H   0  0  0  0  0  0  0  0  0  0  0  0
   -1.4145   -1.7134    0.2079 H   0  0  0  0  0  0  0  0  0  0  0  0
    1.5926    1.4390   -0.8821 H   0  0  0  0  0  0  0  0  0  0  0  0
    3.0255   -1.2173   -0.2680 H   0  0  0  0  0  0  0  0  0  0  0  0
    3.6675    0.0202   -1.3694 H   0  0  0  0  0  0  0  0  0  0  0  0
    3.3935    0.3106    1.6609 H   0  0  0  0  0  0  0  0  0  0  0  0
    3.9874    1.5677    0.5708 H   0  0  0  0  0  0  0  0  0  0  0  0
    4.8999    0.0687    0.7719 H   0  0  0  0  0  0  0  0  0  0  0  0
  1  2  1  0
  1  5  1  0
  1  6  1  0
  1 15  1  0
  2  3  1  0
  3  4  2  3
  4  7  1  0
  4  8  1  0
  9 10  1  0
 10 11  1  0
 10 14  1  0
 11 12  1  0
 11 16  1  0
 12 13  1  0
 12 17  1  0
 12 18  1  0
 13 19  1  0
 13 20  1  0
 13 21  1  0
M  CHG  2   9  -1  11   1
M  RAD  1   9   2
M  END
>  <reaction>  (8) 
rmg_rxn_15652

>  <mol_properties>  (8) 
{"0": {"label": "*3", "atom_type": "Cs"}, "1": {"label": "*4", "atom_type": "O2s"}, "9": {"label": "*0", "atom_type": "N3s"}, "10": {"label": "*1", "atom_type": "Cs"}, "14": {"label": "*2", "atom_type": "H0"}}

>  <type>  (8) 
unop_4

>  <geom_source>  (8) 
Heuristics

$$$$

     RDKit          3D

 21 19  0  0  0  0  0  0  0  0999 V2000
   -0.6312    0.3785    1.2144 C   0  0  0  0  0  0  0  0  0  0  0  0
   -0.6662   -1.0269    1.3669 O   0  0  0  0  0  0  0  0  0  0  0  0
   -1.2656   -1.3484    2.5611 N   0  0  0  0  0  0  0  0  0  0  0  0
   -1.3203   -2.5976    2.7430 C   0  0  0  0  0  0  0  0  0  0  0  0
   -1.6407    0.7957    1.2045 H   0  0  0  0  0  0  0  0  0  0  0  0
   -0.0518    0.8440    2.0149 H   0  0  0  0  0  0  0  0  0  0  0  0
   -1.7794   -2.9340    3.6630 H   0  0  0  0  0  0  0  0  0  0  0  0
   -0.9306   -3.3126    2.0216 H   0  0  0  0  0  0  0  0  0  0  0  0
    1.1856   -0.3449   -2.7257 N   0  0  0  0  0  1  0  0  0  0  0  0
    1.1856   -0.3449   -1.5261 N   0  0  0  0  0  0  0  0  0  0  0  0
    1.1856    0.8496   -0.6123 C   0  0  0  0  0  3  0  0  0  0  0  0
    0.9290    2.1473   -1.3449 C   0  0  0  0  0  0  0  0  0  0  0  0
   -0.5144    2.3099   -1.8045 C   0  0  0  0  0  0  0  0  0  0  0  0
    1.2050   -1.2287   -0.9710 H   0  0  0  0  0  0  0  0  0  0  0  0
    0.2750    0.6135    0.3033 H   0  0  0  0  0  0  0  0  0  0  0  0
    2.1610    0.8483   -0.1186 H   0  0  0  0  0  0  0  0  0  0  0  0
    1.2025    2.9646   -0.6736 H   0  0  0  0  0  0  0  0  0  0  0  0
    1.5985    2.1964   -2.2055 H   0  0  0  0  0  0  0  0  0  0  0  0
   -1.2041    2.2648   -0.9578 H   0  0  0  0  0  0  0  0  0  0  0  0
   -0.7864    1.5279   -2.5133 H   0  0  0  0  0  0  0  0  0  0  0  0
   -0.6562    3.2717   -2.2986 H   0  0  0  0  0  0  0  0  0  0  0  0
  1  2  1  0
  1  5  1  0
  1  6  1  0
  1 15  1  0
  2  3  1  0
  3  4  2  3
  4  7  1  0
  4  8  1  0
  9 10  1  0
 10 11  1  0
 10 14  1  0
 11 12  1  0
 11 16  1  0
 12 13  1  0
 12 17  1  0
 12 18  1  0
 13 19  1  0
 13 20  1  0
 13 21  1  0
M  CHG  2   9  -1  11   1
M  RAD  1   9   2
M  END
>  <reaction>  (9) 
rmg_rxn_15652

>  <mol_properties>  (9) 
{"0": {"label": "*3", "atom_type": "Cs"}, "1": {"label": "*4", "atom_type": "O2s"}, "9": {"label": "*0", "atom_type": "N3s"}, "10": {"label": "*1", "atom_type": "Cs"}, "14": {"label": "*2", "atom_type": "H0"}}

>  <type>  (9) 
unop_5

>  <geom_source>  (9) 
Heuristics

$$$$

     RDKit          3D

 21 19  0  0  0  0  0  0  0  0999 V2000
    0.7027    1.3161    0.9920 C   0  0  0  0  0  0  0  0  0  0  0  0
    1.8858    1.1294    0.2546 O   0  0  0  0  0  0  0  0  0  0  0  0
    2.0437   -0.1808   -0.1518 N   0  0  0  0  0  0  0  0  0  0  0  0
    3.1475   -0.4699   -0.6880 C   0  0  0  0  0  0  0  0  0  0  0  0
    0.7752    0.9002    1.9978 H   0  0  0  0  0  0  0  0  0  0  0  0
    0.5094    2.3833    1.0021 H   0  0  0  0  0  0  0  0  0  0  0  0
    3.2754   -1.4853   -1.0206 H   0  0  0  0  0  0  0  0  0  0  0  0
    3.9594    0.2356   -0.8312 H   0  0  0  0  0  0  0  0  0  0  0  0
   -1.2426   -2.2387    0.6633 N   0  0  0  0  0  1  0  0  0  0  0  0
   -0.6024   -1.4574   -0.0302 N   0  0  0  0  0  0  0  0  0  0  0  0
   -0.9704   -0.1824   -0.4149 C   0  0  0  0  0  3  0  0  0  0  0  0
   -2.4237    0.1606   -0.2062 C   0  0  0  0  0  0  0  0  0  0  0  0
   -2.7012    1.6401   -0.4368 C   0  0  0  0  0  0  0  0  0  0  0  0
    0.3723   -1.6893   -0.3265 H   0  0  0  0  0  0  0  0  0  0  0  0
   -0.2169    0.6746    0.3770 H   0  0  0  0  0  0  0  0  0  0  0  0
   -0.5580    0.0990   -1.3827 H   0  0  0  0  0  0  0  0  0  0  0  0
   -3.0421   -0.4362   -0.8862 H   0  0  0  0  0  0  0  0  0  0  0  0
   -2.6984   -0.1315    0.8109 H   0  0  0  0  0  0  0  0  0  0  0  0
   -2.4012    1.9343   -1.4404 H   0  0  0  0  0  0  0  0  0  0  0  0
   -2.1544    2.2494    0.2786 H   0  0  0  0  0  0  0  0  0  0  0  0
   -3.7624    1.8449   -0.3231 H   0  0  0  0  0  0  0  0  0  0  0  0
  1  2  1  0
  1  5  1  0
  1  6  1  0
  1 15  1  0
  2  3  1  0
  3  4  2  3
  4  7  1  0
  4  8  1  0
  9 10  1  0
 10 11  1  0
 10 14  1  0
 11 12  1  0
 11 16  1  0
 12 13  1  0
 12 17  1  0
 12 18  1  0
 13 19  1  0
 13 20  1  0
 13 21  1  0
M  CHG  2   9  -1  11   1
M  RAD  1   9   2
M  END
>  <reaction>  (10) 
rmg_rxn_15652

>  <mol_properties>  (10) 
{"0": {"label": "*3", "atom_type": "Cs"}, "1": {"label": "*4", "atom_type": "O2s"}, "9": {"label": "*0", "atom_type": "N3s"}, "10": {"label": "*1", "atom_type": "Cs"}, "14": {"label": "*2", "atom_type": "H0"}}

>  <type>  (10) 
unop_6

>  <geom_source>  (10) 
Heuristics

$$$$

     RDKit          3D

 21 19  0  0  0  0  0  0  0  0999 V2000
   -0.7301   -0.6626    0.8677 C   0  0  0  0  0  0  0  0  0  0  0  0
   -0.2864    0.0071    2.0314 O   0  0  0  0  0  0  0  0  0  0  0  0
   -1.3640    0.3205    2.8247 N   0  0  0  0  0  0  0  0  0  0  0  0
   -1.0167    0.9222    3.8802 C   0  0  0  0  0  0  0  0  0  0  0  0
   -1.2389   -1.5948    1.1234 H   0  0  0  0  0  0  0  0  0  0  0  0
   -1.4014   -0.0286    0.2841 H   0  0  0  0  0  0  0  0  0  0  0  0
   -1.8091    1.2045    4.5604 H   0  0  0  0  0  0  0  0  0  0  0  0
    0.0216    1.1526    4.1090 H   0  0  0  0  0  0  0  0  0  0  0  0
    1.0867   -1.3860   -3.0724 N   0  0  0  0  0  1  0  0  0  0  0  0
    1.0867   -1.3860   -1.8729 N   0  0  0  0  0  0  0  0  0  0  0  0
    1.0867   -0.1916   -0.9591 C   0  0  0  0  0  3  0  0  0  0  0  0
    0.8301    1.1061   -1.6917 C   0  0  0  0  0  0  0  0  0  0  0  0
   -0.6133    1.2688   -2.1512 C   0  0  0  0  0  0  0  0  0  0  0  0
    1.1061   -2.2699   -1.3178 H   0  0  0  0  0  0  0  0  0  0  0  0
    0.1761   -0.4277   -0.0434 H   0  0  0  0  0  0  0  0  0  0  0  0
    2.0621   -0.1928   -0.4653 H   0  0  0  0  0  0  0  0  0  0  0  0
    1.1036    1.9234   -1.0203 H   0  0  0  0  0  0  0  0  0  0  0  0
    1.4996    1.1553   -2.5522 H   0  0  0  0  0  0  0  0  0  0  0  0
   -1.3030    1.2237   -1.3045 H   0  0  0  0  0  0  0  0  0  0  0  0
   -0.8853    0.4868   -2.8600 H   0  0  0  0  0  0  0  0  0  0  0  0
   -0.7552    2.2305   -2.6453 H   0  0  0  0  0  0  0  0  0  0  0  0
  1  2  1  0
  1  5  1  0
  1  6  1  0
  1 15  1  0
  2  3  1  0
  3  4  2  3
  4  7  1  0
  4  8  1  0
  9 10  1  0
 10 11  1  0
 10 14  1  0
 11 12  1  0
 11 16  1  0
 12 13  1  0
 12 17  1  0
 12 18  1  0
 13 19  1  0
 13 20  1  0
 13 21  1  0
M  CHG  2   9  -1  11   1
M  RAD  1   9   2
M  END
>  <reaction>  (11) 
rmg_rxn_15652

>  <mol_properties>  (11) 
{"0": {"label": "*3", "atom_type": "Cs"}, "1": {"label": "*4", "atom_type": "O2s"}, "9": {"label": "*0", "atom_type": "N3s"}, "10": {"label": "*1", "atom_type": "Cs"}, "14": {"label": "*2", "atom_type": "H0"}}

>  <type>  (11) 
unop_7

>  <geom_source>  (11) 
Heuristics

$$$$

     RDKit          3D

 21 19  0  0  0  0  0  0  0  0999 V2000
   -0.0195   -0.3387    1.6779 C   0  0  0  0  0  0  0  0  0  0  0  0
   -1.2382   -0.4889    0.9766 O   0  0  0  0  0  0  0  0  0  0  0  0
   -2.2785   -0.0398    1.7544 N   0  0  0  0  0  0  0  0  0  0  0  0
   -3.3923   -0.1540    1.1686 C   0  0  0  0  0  0  0  0  0  0  0  0
    0.1688    0.7112    1.9135 H   0  0  0  0  0  0  0  0  0  0  0  0
   -0.0244   -0.9245    2.5998 H   0  0  0  0  0  0  0  0  0  0  0  0
   -4.2642    0.1785    1.7158 H   0  0  0  0  0  0  0  0  0  0  0  0
   -3.4876   -0.5637    0.1653 H   0  0  0  0  0  0  0  0  0  0  0  0
    1.7974   -1.0620   -2.2623 N   0  0  0  0  0  1  0  0  0  0  0  0
    1.7974   -1.0620   -1.0627 N   0  0  0  0  0  0  0  0  0  0  0  0
    1.7974    0.1324   -0.1489 C   0  0  0  0  0  3  0  0  0  0  0  0
    1.5407    1.4301   -0.8815 C   0  0  0  0  0  0  0  0  0  0  0  0
    0.0973    1.5927   -1.3410 C   0  0  0  0  0  0  0  0  0  0  0  0
    1.8167   -1.9459   -0.5076 H   0  0  0  0  0  0  0  0  0  0  0  0
    0.8867   -0.1037    0.7667 H   0  0  0  0  0  0  0  0  0  0  0  0
    2.7727    0.1311    0.3448 H   0  0  0  0  0  0  0  0  0  0  0  0
    1.8142    2.2474   -0.2101 H   0  0  0  0  0  0  0  0  0  0  0  0
    2.2103    1.4792   -1.7421 H   0  0  0  0  0  0  0  0  0  0  0  0
   -0.5924    1.5477   -0.4944 H   0  0  0  0  0  0  0  0  0  0  0  0
   -0.1747    0.8107   -2.0499 H   0  0  0  0  0  0  0  0  0  0  0  0
   -0.0445    2.5545   -1.8352 H   0  0  0  0  0  0  0  0  0  0  0  0
  1  2  1  0
  1  5  1  0
  1  6  1  0
  1 15  1  0
  2  3  1  0
  3  4  2  3
  4  7  1  0
  4  8  1  0
  9 10  1  0
 10 11  1  0
 10 14  1  0
 11 12  1  0
 11 16  1  0
 12 13  1  0
 12 17  1  0
 12 18  1  0
 13 19  1  0
 13 20  1  0
 13 21  1  0
M  CHG  2   9  -1  11   1
M  RAD  1   9   2
M  END
>  <reaction>  (12) 
rmg_rxn_15652

>  <mol_properties>  (12) 
{"0": {"label": "*3", "atom_type": "Cs"}, "1": {"label": "*4", "atom_type": "O2s"}, "9": {"label": "*0", "atom_type": "N3s"}, "10": {"label": "*1", "atom_type": "Cs"}, "14": {"label": "*2", "atom_type": "H0"}}

>  <type>  (12) 
unop_8

>  <geom_source>  (12) 
Heuristics

$$$$

     RDKit          3D

 21 19  0  0  0  0  0  0  0  0999 V2000
    2.4725   -1.5002   -0.0592 C   0  0  0  0  0  0  0  0  0  0  0  0
    2.8978   -0.1941    0.2604 O   0  0  0  0  0  0  0  0  0  0  0  0
    1.9722    0.7552   -0.1099 N   0  0  0  0  0  0  0  0  0  0  0  0
    2.2944    1.9609    0.0643 C   0  0  0  0  0  0  0  0  0  0  0  0
    2.6896   -1.7662   -1.0907 H   0  0  0  0  0  0  0  0  0  0  0  0
    2.8900   -2.1859    0.6486 H   0  0  0  0  0  0  0  0  0  0  0  0
    1.5686    2.7066   -0.2102 H   0  0  0  0  0  0  0  0  0  0  0  0
    3.2484    2.2780    0.4704 H   0  0  0  0  0  0  0  0  0  0  0  0
   -0.5497   -1.4389    0.2378 N   0  0  0  0  0  1  0  0  0  0  0  0
   -0.6783   -0.2722   -0.1978 N   0  0  0  0  0  0  0  0  0  0  0  0
   -1.7447    0.4126   -0.5542 C   0  0  0  0  0  3  0  0  0  0  0  0
   -3.1167   -0.1571   -0.4283 C   0  0  0  0  0  0  0  0  0  0  0  0
   -3.9150    0.5093    0.6968 C   0  0  0  0  0  0  0  0  0  0  0  0
    0.2347    0.2479   -0.2929 H   0  0  0  0  0  0  0  0  0  0  0  0
    1.4226   -1.7123    0.2129 H   0  0  0  0  0  0  0  0  0  0  0  0
   -1.5985    1.4264   -0.8852 H   0  0  0  0  0  0  0  0  0  0  0  0
   -3.6591   -0.0278   -1.3701 H   0  0  0  0  0  0  0  0  0  0  0  0
   -3.0198   -1.2259   -0.2250 H   0  0  0  0  0  0  0  0  0  0  0  0
   -4.9122    0.0802    0.7565 H   0  0  0  0  0  0  0  0  0  0  0  0
   -4.0079    1.5783    0.5158 H   0  0  0  0  0  0  0  0  0  0  0  0
   -3.4163    0.3614    1.6517 H   0  0  0  0  0  0  0  0  0  0  0  0
  1  2  1  0
  1  5  1  0
  1  6  1  0
  1 15  1  0
  2  3  1  0
  3  4  2  3
  4  7  1  0
  4  8  1  0
  9 10  1  0
 10 11  1  0
 10 14  1  0
 11 12  1  0
 11 16  1  0
 12 13  1  0
 12 17  1  0
 12 18  1  0
 13 19  1  0
 13 20  1  0
 13 21  1  0
M  CHG  2   9  -1  11   1
M  RAD  1   9   2
M  END
>  <reaction>  (13) 
rmg_rxn_15652

>  <mol_properties>  (13) 
{"0": {"label": "*3", "atom_type": "Cs"}, "1": {"label": "*4", "atom_type": "O2s"}, "9": {"label": "*0", "atom_type": "N3s"}, "10": {"label": "*1", "atom_type": "Cs"}, "14": {"label": "*2", "atom_type": "H0"}}

>  <type>  (13) 
unop_9

>  <geom_source>  (13) 
Heuristics

$$$$

     RDKit          3D

 21 19  0  0  0  0  0  0  0  0999 V2000
   -0.5757   -0.7536    0.9568 C   0  0  0  0  0  0  0  0  0  0  0  0
   -0.5652    0.3755    1.8080 O   0  0  0  0  0  0  0  0  0  0  0  0
   -1.4970    0.2125    2.8050 N   0  0  0  0  0  0  0  0  0  0  0  0
   -1.5251    1.1994    3.5937 C   0  0  0  0  0  0  0  0  0  0  0  0
   -0.3195   -1.6610    1.5083 H   0  0  0  0  0  0  0  0  0  0  0  0
   -1.5526   -0.8774    0.4840 H   0  0  0  0  0  0  0  0  0  0  0  0
   -2.2345    1.1485    4.4089 H   0  0  0  0  0  0  0  0  0  0  0  0
   -0.8760    2.0642    3.4739 H   0  0  0  0  0  0  0  0  0  0  0  0
    1.2412   -1.4770   -2.9834 N   0  0  0  0  0  1  0  0  0  0  0  0
    1.2412   -1.4770   -1.7838 N   0  0  0  0  0  0  0  0  0  0  0  0
    1.2412   -0.2825   -0.8700 C   0  0  0  0  0  3  0  0  0  0  0  0
    0.9845    1.0151   -1.6026 C   0  0  0  0  0  0  0  0  0  0  0  0
   -0.4589    1.1778   -2.0621 C   0  0  0  0  0  0  0  0  0  0  0  0
    1.2605   -2.3608   -1.2287 H   0  0  0  0  0  0  0  0  0  0  0  0
    0.3305   -0.5186    0.0456 H   0  0  0  0  0  0  0  0  0  0  0  0
    2.2165   -0.2838   -0.3762 H   0  0  0  0  0  0  0  0  0  0  0  0
    1.2580    1.8325   -0.9312 H   0  0  0  0  0  0  0  0  0  0  0  0
    1.6541    1.0643   -2.4631 H   0  0  0  0  0  0  0  0  0  0  0  0
   -1.1486    1.1327   -1.2155 H   0  0  0  0  0  0  0  0  0  0  0  0
   -0.7309    0.3958   -2.7710 H   0  0  0  0  0  0  0  0  0  0  0  0
   -0.6007    2.1395   -2.5563 H   0  0  0  0  0  0  0  0  0  0  0  0
  1  2  1  0
  1  5  1  0
  1  6  1  0
  1 15  1  0
  2  3  1  0
  3  4  2  3
  4  7  1  0
  4  8  1  0
  9 10  1  0
 10 11  1  0
 10 14  1  0
 11 12  1  0
 11 16  1  0
 12 13  1  0
 12 17  1  0
 12 18  1  0
 13 19  1  0
 13 20  1  0
 13 21  1  0
M  CHG  2   9  -1  11   1
M  RAD  1   9   2
M  END
>  <reaction>  (14) 
rmg_rxn_15652

>  <mol_properties>  (14) 
{"0": {"label": "*3", "atom_type": "Cs"}, "1": {"label": "*4", "atom_type": "O2s"}, "9": {"label": "*0", "atom_type": "N3s"}, "10": {"label": "*1", "atom_type": "Cs"}, "14": {"label": "*2", "atom_type": "H0"}}

>  <type>  (14) 
unop_10

>  <geom_source>  (14) 
Heuristics

$$$$

     RDKit          3D

 21 19  0  0  0  0  0  0  0  0999 V2000
    2.4733   -1.5003   -0.0566 C   0  0  0  0  0  0  0  0  0  0  0  0
    2.8987   -0.1939    0.2607 O   0  0  0  0  0  0  0  0  0  0  0  0
    1.9729    0.7554   -0.1096 N   0  0  0  0  0  0  0  0  0  0  0  0
    2.2963    1.9612    0.0621 C   0  0  0  0  0  0  0  0  0  0  0  0
    2.7022   -1.7736   -1.0834 H   0  0  0  0  0  0  0  0  0  0  0  0
    2.8740   -2.1845    0.6617 H   0  0  0  0  0  0  0  0  0  0  0  0
    1.5707    2.7072   -0.2120 H   0  0  0  0  0  0  0  0  0  0  0  0
    3.2512    2.2781    0.4663 H   0  0  0  0  0  0  0  0  0  0  0  0
   -0.5474   -1.4401    0.2316 N   0  0  0  0  0  1  0  0  0  0  0  0
   -0.6778   -0.2713   -0.1977 N   0  0  0  0  0  0  0  0  0  0  0  0
   -1.7458    0.4138   -0.5494 C   0  0  0  0  0  3  0  0  0  0  0  0
   -3.1169   -0.1586   -0.4260 C   0  0  0  0  0  0  0  0  0  0  0  0
   -3.9202    0.5096    0.6943 C   0  0  0  0  0  0  0  0  0  0  0  0
    0.2344    0.2505   -0.2913 H   0  0  0  0  0  0  0  0  0  0  0  0
    1.4216   -1.7104    0.2070 H   0  0  0  0  0  0  0  0  0  0  0  0
   -1.6014    1.4295   -0.8755 H   0  0  0  0  0  0  0  0  0  0  0  0
   -3.6567   -0.0336   -1.3700 H   0  0  0  0  0  0  0  0  0  0  0  0
   -3.0182   -1.2267   -0.2194 H   0  0  0  0  0  0  0  0  0  0  0  0
   -4.9166    0.0783    0.7522 H   0  0  0  0  0  0  0  0  0  0  0  0
   -4.0150    1.5776    0.5093 H   0  0  0  0  0  0  0  0  0  0  0  0
   -3.4244    0.3662    1.6514 H   0  0  0  0  0  0  0  0  0  0  0  0
  1  2  1  0
  1  5  1  0
  1  6  1  0
  1 15  1  0
  2  3  1  0
  3  4  2  3
  4  7  1  0
  4  8  1  0
  9 10  1  0
 10 11  1  0
 10 14  1  0
 11 12  1  0
 11 16  1  0
 12 13  1  0
 12 17  1  0
 12 18  1  0
 13 19  1  0
 13 20  1  0
 13 21  1  0
M  CHG  2   9  -1  11   1
M  RAD  1   9   2
M  END
>  <reaction>  (15) 
rmg_rxn_15652

>  <mol_properties>  (15) 
{"0": {"label": "*3", "atom_type": "Cs"}, "1": {"label": "*4", "atom_type": "O2s"}, "9": {"label": "*0", "atom_type": "N3s"}, "10": {"label": "*1", "atom_type": "Cs"}, "14": {"label": "*2", "atom_type": "H0"}}

>  <type>  (15) 
unop_11

>  <geom_source>  (15) 
Heuristics

$$$$

     RDKit          3D

 21 19  0  0  0  0  0  0  0  0999 V2000
   -0.0976   -0.6634    1.5433 C   0  0  0  0  0  0  0  0  0  0  0  0
   -1.3042   -0.1346    1.0293 O   0  0  0  0  0  0  0  0  0  0  0  0
   -2.0222    0.4517    2.0439 N   0  0  0  0  0  0  0  0  0  0  0  0
   -3.1124    0.9403    1.6324 C   0  0  0  0  0  0  0  0  0  0  0  0
    0.5208    0.1252    1.9778 H   0  0  0  0  0  0  0  0  0  0  0  0
   -0.2962   -1.4285    2.2972 H   0  0  0  0  0  0  0  0  0  0  0  0
   -3.7380    1.4215    2.3722 H   0  0  0  0  0  0  0  0  0  0  0  0
   -3.4216    0.8888    0.5906 H   0  0  0  0  0  0  0  0  0  0  0  0
    1.7192   -1.3868   -2.3969 N   0  0  0  0  0  1  0  0  0  0  0  0
    1.7192   -1.3868   -1.1973 N   0  0  0  0  0  0  0  0  0  0  0  0
    1.7192   -0.1923   -0.2835 C   0  0  0  0  0  3  0  0  0  0  0  0
    1.4626    1.1053   -1.0161 C   0  0  0  0  0  0  0  0  0  0  0  0
    0.0192    1.2680   -1.4756 C   0  0  0  0  0  0  0  0  0  0  0  0
    1.7386   -2.2706   -0.6422 H   0  0  0  0  0  0  0  0  0  0  0  0
    0.8086   -0.4284    0.6322 H   0  0  0  0  0  0  0  0  0  0  0  0
    2.6946   -0.1936    0.2103 H   0  0  0  0  0  0  0  0  0  0  0  0
    1.7361    1.9227   -0.3447 H   0  0  0  0  0  0  0  0  0  0  0  0
    2.1321    1.1545   -1.8766 H   0  0  0  0  0  0  0  0  0  0  0  0
   -0.6705    1.2229   -0.6289 H   0  0  0  0  0  0  0  0  0  0  0  0
   -0.2528    0.4860   -2.1844 H   0  0  0  0  0  0  0  0  0  0  0  0
   -0.1227    2.2297   -1.9697 H   0  0  0  0  0  0  0  0  0  0  0  0
  1  2  1  0
  1  5  1  0
  1  6  1  0
  1 15  1  0
  2  3  1  0
  3  4  2  3
  4  7  1  0
  4  8  1  0
  9 10  1  0
 10 11  1  0
 10 14  1  0
 11 12  1  0
 11 16  1  0
 12 13  1  0
 12 17  1  0
 12 18  1  0
 13 19  1  0
 13 20  1  0
 13 21  1  0
M  CHG  2   9  -1  11   1
M  RAD  1   9   2
M  END
>  <reaction>  (16) 
rmg_rxn_15652

>  <mol_properties>  (16) 
{"0": {"label": "*3", "atom_type": "Cs"}, "1": {"label": "*4", "atom_type": "O2s"}, "9": {"label": "*0", "atom_type": "N3s"}, "10": {"label": "*1", "atom_type": "Cs"}, "14": {"label": "*2", "atom_type": "H0"}}

>  <type>  (16) 
unop_12

>  <geom_source>  (16) 
Heuristics

$$$$

     RDKit          3D

 21 19  0  0  0  0  0  0  0  0999 V2000
    0.6990    1.3256    0.9805 C   0  0  0  0  0  0  0  0  0  0  0  0
    1.8846    1.1337    0.2487 O   0  0  0  0  0  0  0  0  0  0  0  0
    2.0433   -0.1788   -0.1501 N   0  0  0  0  0  0  0  0  0  0  0  0
    3.1501   -0.4725   -0.6773 C   0  0  0  0  0  0  0  0  0  0  0  0
    0.7691    0.9194    1.9904 H   0  0  0  0  0  0  0  0  0  0  0  0
    0.5041    2.3927    0.9801 H   0  0  0  0  0  0  0  0  0  0  0  0
    3.2779   -1.4895   -1.0051 H   0  0  0  0  0  0  0  0  0  0  0  0
    3.9645    0.2306   -0.8183 H   0  0  0  0  0  0  0  0  0  0  0  0
   -1.2335   -2.2390    0.6652 N   0  0  0  0  0  1  0  0  0  0  0  0
   -0.5979   -1.4567   -0.0314 N   0  0  0  0  0  0  0  0  0  0  0  0
   -0.9716   -0.1839   -0.4180 C   0  0  0  0  0  3  0  0  0  0  0  0
   -2.4256    0.1541   -0.2055 C   0  0  0  0  0  0  0  0  0  0  0  0
   -2.7082    1.6337   -0.4295 C   0  0  0  0  0  0  0  0  0  0  0  0
    0.3770   -1.6855   -0.3293 H   0  0  0  0  0  0  0  0  0  0  0  0
   -0.2187    0.6775    0.3698 H   0  0  0  0  0  0  0  0  0  0  0  0
   -0.5632    0.0967   -1.3877 H   0  0  0  0  0  0  0  0  0  0  0  0
   -3.0436   -0.4418   -0.8866 H   0  0  0  0  0  0  0  0  0  0  0  0
   -2.6971   -0.1429    0.8110 H   0  0  0  0  0  0  0  0  0  0  0  0
   -2.4090    1.9335   -1.4316 H   0  0  0  0  0  0  0  0  0  0  0  0
   -2.1636    2.2415    0.2889 H   0  0  0  0  0  0  0  0  0  0  0  0
   -3.7700    1.8342   -0.3150 H   0  0  0  0  0  0  0  0  0  0  0  0
  1  2  1  0
  1  5  1  0
  1  6  1  0
  1 15  1  0
  2  3  1  0
  3  4  2  3
  4  7  1  0
  4  8  1  0
  9 10  1  0
 10 11  1  0
 10 14  1  0
 11 12  1  0
 11 16  1  0
 12 13  1  0
 12 17  1  0
 12 18  1  0
 13 19  1  0
 13 20  1  0
 13 21  1  0
M  CHG  2   9  -1  11   1
M  RAD  1   9   2
M  END
>  <reaction>  (17) 
rmg_rxn_15652

>  <mol_properties>  (17) 
{"0": {"label": "*3", "atom_type": "Cs"}, "1": {"label": "*4", "atom_type": "O2s"}, "9": {"label": "*0", "atom_type": "N3s"}, "10": {"label": "*1", "atom_type": "Cs"}, "14": {"label": "*2", "atom_type": "H0"}}

>  <type>  (17) 
unop_13

>  <geom_source>  (17) 
Heuristics

$$$$

     RDKit          3D

 21 19  0  0  0  0  0  0  0  0999 V2000
   -0.2743   -0.8383    1.3189 C   0  0  0  0  0  0  0  0  0  0  0  0
   -1.2166    0.2095    1.2015 O   0  0  0  0  0  0  0  0  0  0  0  0
   -1.6589    0.5766    2.4499 N   0  0  0  0  0  0  0  0  0  0  0  0
   -2.5056    1.5131    2.3965 C   0  0  0  0  0  0  0  0  0  0  0  0
    0.5937   -0.5198    1.9005 H   0  0  0  0  0  0  0  0  0  0  0  0
   -0.7238   -1.7175    1.7859 H   0  0  0  0  0  0  0  0  0  0  0  0
   -2.9039    1.8609    3.3403 H   0  0  0  0  0  0  0  0  0  0  0  0
   -2.8288    1.9583    1.4580 H   0  0  0  0  0  0  0  0  0  0  0  0
    1.5426   -1.5617   -2.6213 N   0  0  0  0  0  1  0  0  0  0  0  0
    1.5426   -1.5617   -1.4217 N   0  0  0  0  0  0  0  0  0  0  0  0
    1.5426   -0.3672   -0.5079 C   0  0  0  0  0  3  0  0  0  0  0  0
    1.2859    0.9304   -1.2405 C   0  0  0  0  0  0  0  0  0  0  0  0
   -0.1575    1.0931   -1.7000 C   0  0  0  0  0  0  0  0  0  0  0  0
    1.5619   -2.4456   -0.8666 H   0  0  0  0  0  0  0  0  0  0  0  0
    0.6319   -0.6033    0.4077 H   0  0  0  0  0  0  0  0  0  0  0  0
    2.5179   -0.3685   -0.0141 H   0  0  0  0  0  0  0  0  0  0  0  0
    1.5594    1.7478   -0.5691 H   0  0  0  0  0  0  0  0  0  0  0  0
    1.9555    0.9796   -2.1010 H   0  0  0  0  0  0  0  0  0  0  0  0
   -0.8472    1.0480   -0.8533 H   0  0  0  0  0  0  0  0  0  0  0  0
   -0.4295    0.3111   -2.4088 H   0  0  0  0  0  0  0  0  0  0  0  0
   -0.2993    2.0548   -2.1941 H   0  0  0  0  0  0  0  0  0  0  0  0
  1  2  1  0
  1  5  1  0
  1  6  1  0
  1 15  1  0
  2  3  1  0
  3  4  2  3
  4  7  1  0
  4  8  1  0
  9 10  1  0
 10 11  1  0
 10 14  1  0
 11 12  1  0
 11 16  1  0
 12 13  1  0
 12 17  1  0
 12 18  1  0
 13 19  1  0
 13 20  1  0
 13 21  1  0
M  CHG  2   9  -1  11   1
M  RAD  1   9   2
M  END
>  <reaction>  (18) 
rmg_rxn_15652

>  <mol_properties>  (18) 
{"0": {"label": "*3", "atom_type": "Cs"}, "1": {"label": "*4", "atom_type": "O2s"}, "9": {"label": "*0", "atom_type": "N3s"}, "10": {"label": "*1", "atom_type": "Cs"}, "14": {"label": "*2", "atom_type": "H0"}}

>  <type>  (18) 
unop_14

>  <geom_source>  (18) 
Heuristics

$$$$

     RDKit          3D

 21 19  0  0  0  0  0  0  0  0999 V2000
    2.4650    1.5049   -0.0607 C   0  0  0  0  0  0  0  0  0  0  0  0
    2.8947    0.2012    0.2624 O   0  0  0  0  0  0  0  0  0  0  0  0
    1.9737   -0.7526   -0.1078 N   0  0  0  0  0  0  0  0  0  0  0  0
    2.3014   -1.9568    0.0674 C   0  0  0  0  0  0  0  0  0  0  0  0
    2.8799    2.1938    0.6455 H   0  0  0  0  0  0  0  0  0  0  0  0
    2.6816    1.7690   -1.0928 H   0  0  0  0  0  0  0  0  0  0  0  0
    1.5792   -2.7061   -0.2066 H   0  0  0  0  0  0  0  0  0  0  0  0
    3.2566   -2.2690    0.4743 H   0  0  0  0  0  0  0  0  0  0  0  0
   -0.5578    1.4343    0.2304 N   0  0  0  0  0  1  0  0  0  0  0  0
   -0.6803    0.2649   -0.1990 N   0  0  0  0  0  0  0  0  0  0  0  0
   -1.7429   -0.4253   -0.5571 C   0  0  0  0  0  3  0  0  0  0  0  0
   -3.1170    0.1411   -0.4403 C   0  0  0  0  0  0  0  0  0  0  0  0
   -3.9043   -0.4903    0.7127 C   0  0  0  0  0  0  0  0  0  0  0  0
    0.2347   -0.2529   -0.2878 H   0  0  0  0  0  0  0  0  0  0  0  0
    1.4143    1.7141    0.2102 H   0  0  0  0  0  0  0  0  0  0  0  0
   -1.5918   -1.4414   -0.8787 H   0  0  0  0  0  0  0  0  0  0  0  0
   -3.0247    1.2167   -0.2729 H   0  0  0  0  0  0  0  0  0  0  0  0
   -3.6645   -0.0229   -1.3735 H   0  0  0  0  0  0  0  0  0  0  0  0
   -3.3994   -0.3076    1.6583 H   0  0  0  0  0  0  0  0  0  0  0  0
   -3.9933   -1.5652    0.5687 H   0  0  0  0  0  0  0  0  0  0  0  0
   -4.9030   -0.0638    0.7650 H   0  0  0  0  0  0  0  0  0  0  0  0
  1  2  1  0
  1  5  1  0
  1  6  1  0
  1 15  1  0
  2  3  1  0
  3  4  2  3
  4  7  1  0
  4  8  1  0
  9 10  1  0
 10 11  1  0
 10 14  1  0
 11 12  1  0
 11 16  1  0
 12 13  1  0
 12 17  1  0
 12 18  1  0
 13 19  1  0
 13 20  1  0
 13 21  1  0
M  CHG  2   9  -1  11   1
M  RAD  1   9   2
M  END
>  <reaction>  (19) 
rmg_rxn_15652

>  <mol_properties>  (19) 
{"0": {"label": "*3", "atom_type": "Cs"}, "1": {"label": "*4", "atom_type": "O2s"}, "9": {"label": "*0", "atom_type": "N3s"}, "10": {"label": "*1", "atom_type": "Cs"}, "14": {"label": "*2", "atom_type": "H0"}}

>  <type>  (19) 
unop_15

>  <geom_source>  (19) 
Heuristics

$$$$

     RDKit          3D

 21 19  0  0  0  0  0  0  0  0999 V2000
   -0.9648   -0.1122    0.8229 C   0  0  0  0  0  0  0  0  0  0  0  0
   -0.2902   -0.7790    1.8716 O   0  0  0  0  0  0  0  0  0  0  0  0
   -0.7716   -0.3432    3.0829 N   0  0  0  0  0  0  0  0  0  0  0  0
   -0.1973   -0.9123    4.0540 C   0  0  0  0  0  0  0  0  0  0  0  0
   -2.0363   -0.3226    0.8517 H   0  0  0  0  0  0  0  0  0  0  0  0
   -0.8031    0.9666    0.8780 H   0  0  0  0  0  0  0  0  0  0  0  0
   -0.5204   -0.6235    5.0452 H   0  0  0  0  0  0  0  0  0  0  0  0
    0.5841   -1.6569    3.9182 H   0  0  0  0  0  0  0  0  0  0  0  0
    0.8520   -0.8356   -3.1172 N   0  0  0  0  0  1  0  0  0  0  0  0
    0.8520   -0.8356   -1.9177 N   0  0  0  0  0  0  0  0  0  0  0  0
    0.8520    0.3588   -1.0039 C   0  0  0  0  0  3  0  0  0  0  0  0
    0.5954    1.6565   -1.7365 C   0  0  0  0  0  0  0  0  0  0  0  0
   -0.8480    1.8191   -2.1960 C   0  0  0  0  0  0  0  0  0  0  0  0
    0.8714   -1.7195   -1.3626 H   0  0  0  0  0  0  0  0  0  0  0  0
   -0.0586    0.1227   -0.0882 H   0  0  0  0  0  0  0  0  0  0  0  0
    1.8274    0.3575   -0.5101 H   0  0  0  0  0  0  0  0  0  0  0  0
    0.8689    2.4738   -1.0651 H   0  0  0  0  0  0  0  0  0  0  0  0
    1.2649    1.7056   -2.5970 H   0  0  0  0  0  0  0  0  0  0  0  0
   -1.5377    1.7741   -1.3493 H   0  0  0  0  0  0  0  0  0  0  0  0
   -1.1201    1.0371   -2.9048 H   0  0  0  0  0  0  0  0  0  0  0  0
   -0.9899    2.7809   -2.6901 H   0  0  0  0  0  0  0  0  0  0  0  0
  1  2  1  0
  1  5  1  0
  1  6  1  0
  1 15  1  0
  2  3  1  0
  3  4  2  3
  4  7  1  0
  4  8  1  0
  9 10  1  0
 10 11  1  0
 10 14  1  0
 11 12  1  0
 11 16  1  0
 12 13  1  0
 12 17  1  0
 12 18  1  0
 13 19  1  0
 13 20  1  0
 13 21  1  0
M  CHG  2   9  -1  11   1
M  RAD  1   9   2
M  END
>  <reaction>  (20) 
rmg_rxn_15652

>  <mol_properties>  (20) 
{"0": {"label": "*3", "atom_type": "Cs"}, "1": {"label": "*4", "atom_type": "O2s"}, "9": {"label": "*0", "atom_type": "N3s"}, "10": {"label": "*1", "atom_type": "Cs"}, "14": {"label": "*2", "atom_type": "H0"}}

>  <type>  (20) 
unop_16

>  <geom_source>  (20) 
Heuristics

$$$$

     RDKit          3D

 21 19  0  0  0  0  0  0  0  0999 V2000
    0.6991    1.3239    0.9805 C   0  0  0  0  0  0  0  0  0  0  0  0
    1.8851    1.1328    0.2492 O   0  0  0  0  0  0  0  0  0  0  0  0
    2.0445   -0.1795   -0.1498 N   0  0  0  0  0  0  0  0  0  0  0  0
    3.1518   -0.4723   -0.6766 C   0  0  0  0  0  0  0  0  0  0  0  0
    0.7687    0.9171    1.9902 H   0  0  0  0  0  0  0  0  0  0  0  0
    0.5038    2.3909    0.9807 H   0  0  0  0  0  0  0  0  0  0  0  0
    3.2807   -1.4892   -1.0043 H   0  0  0  0  0  0  0  0  0  0  0  0
    3.9656    0.2315   -0.8170 H   0  0  0  0  0  0  0  0  0  0  0  0
   -1.2369   -2.2389    0.6647 N   0  0  0  0  0  1  0  0  0  0  0  0
   -0.6005   -1.4579   -0.0327 N   0  0  0  0  0  0  0  0  0  0  0  0
   -0.9722   -0.1843   -0.4187 C   0  0  0  0  0  3  0  0  0  0  0  0
   -2.4253    0.1563   -0.2045 C   0  0  0  0  0  0  0  0  0  0  0  0
   -2.7055    1.6362   -0.4297 C   0  0  0  0  0  0  0  0  0  0  0  0
    0.3734   -1.6890   -0.3320 H   0  0  0  0  0  0  0  0  0  0  0  0
   -0.2182    0.6760    0.3691 H   0  0  0  0  0  0  0  0  0  0  0  0
   -0.5642    0.0958   -1.3887 H   0  0  0  0  0  0  0  0  0  0  0  0
   -3.0452   -0.4392   -0.8842 H   0  0  0  0  0  0  0  0  0  0  0  0
   -2.6960   -0.1391    0.8126 H   0  0  0  0  0  0  0  0  0  0  0  0
   -3.7668    1.8388   -0.3136 H   0  0  0  0  0  0  0  0  0  0  0  0
   -2.4075    1.9343   -1.4327 H   0  0  0  0  0  0  0  0  0  0  0  0
   -2.1586    2.2438    0.2871 H   0  0  0  0  0  0  0  0  0  0  0  0
  1  2  1  0
  1  5  1  0
  1  6  1  0
  1 15  1  0
  2  3  1  0
  3  4  2  3
  4  7  1  0
  4  8  1  0
  9 10  1  0
 10 11  1  0
 10 14  1  0
 11 12  1  0
 11 16  1  0
 12 13  1  0
 12 17  1  0
 12 18  1  0
 13 19  1  0
 13 20  1  0
 13 21  1  0
M  CHG  2   9  -1  11   1
M  RAD  1   9   2
M  END
>  <reaction>  (21) 
rmg_rxn_15652

>  <mol_properties>  (21) 
{"0": {"label": "*3", "atom_type": "Cs"}, "1": {"label": "*4", "atom_type": "O2s"}, "9": {"label": "*0", "atom_type": "N3s"}, "10": {"label": "*1", "atom_type": "Cs"}, "14": {"label": "*2", "atom_type": "H0"}}

>  <type>  (21) 
unop_17

>  <geom_source>  (21) 
Heuristics

$$$$

     RDKit          3D

 21 19  0  0  0  0  0  0  0  0999 V2000
   -0.0954    0.0380    1.6595 C   0  0  0  0  0  0  0  0  0  0  0  0
   -1.0710   -0.7696    1.0306 O   0  0  0  0  0  0  0  0  0  0  0  0
   -2.2406   -0.7287    1.7511 N   0  0  0  0  0  0  0  0  0  0  0  0
   -3.1457   -1.4376    1.2266 C   0  0  0  0  0  0  0  0  0  0  0  0
   -0.4219    1.0793    1.7074 H   0  0  0  0  0  0  0  0  0  0  0  0
    0.1204   -0.3235    2.6674 H   0  0  0  0  0  0  0  0  0  0  0  0
   -4.1004   -1.4588    1.7349 H   0  0  0  0  0  0  0  0  0  0  0  0
   -2.9898   -2.0040    0.3110 H   0  0  0  0  0  0  0  0  0  0  0  0
    1.7215   -0.6854   -2.2806 N   0  0  0  0  0  1  0  0  0  0  0  0
    1.7215   -0.6854   -1.0810 N   0  0  0  0  0  0  0  0  0  0  0  0
    1.7215    0.5090   -0.1672 C   0  0  0  0  0  3  0  0  0  0  0  0
    1.4648    1.8067   -0.8998 C   0  0  0  0  0  0  0  0  0  0  0  0
    0.0214    1.9694   -1.3594 C   0  0  0  0  0  0  0  0  0  0  0  0
    1.7408   -1.5693   -0.5259 H   0  0  0  0  0  0  0  0  0  0  0  0
    0.8108    0.2729    0.7484 H   0  0  0  0  0  0  0  0  0  0  0  0
    2.6968    0.5078    0.3265 H   0  0  0  0  0  0  0  0  0  0  0  0
    1.7383    2.6241   -0.2285 H   0  0  0  0  0  0  0  0  0  0  0  0
    2.1344    1.8559   -1.7604 H   0  0  0  0  0  0  0  0  0  0  0  0
   -0.6683    1.9243   -0.5127 H   0  0  0  0  0  0  0  0  0  0  0  0
   -0.2506    1.1874   -2.0682 H   0  0  0  0  0  0  0  0  0  0  0  0
   -0.1204    2.9311   -1.8535 H   0  0  0  0  0  0  0  0  0  0  0  0
  1  2  1  0
  1  5  1  0
  1  6  1  0
  1 15  1  0
  2  3  1  0
  3  4  2  3
  4  7  1  0
  4  8  1  0
  9 10  1  0
 10 11  1  0
 10 14  1  0
 11 12  1  0
 11 16  1  0
 12 13  1  0
 12 17  1  0
 12 18  1  0
 13 19  1  0
 13 20  1  0
 13 21  1  0
M  CHG  2   9  -1  11   1
M  RAD  1   9   2
M  END
>  <reaction>  (22) 
rmg_rxn_15652

>  <mol_properties>  (22) 
{"0": {"label": "*3", "atom_type": "Cs"}, "1": {"label": "*4", "atom_type": "O2s"}, "9": {"label": "*0", "atom_type": "N3s"}, "10": {"label": "*1", "atom_type": "Cs"}, "14": {"label": "*2", "atom_type": "H0"}}

>  <type>  (22) 
unop_18

>  <geom_source>  (22) 
Heuristics

$$$$

     RDKit          3D

 21 19  0  0  0  0  0  0  0  0999 V2000
   -0.8710    0.2025    0.9705 C   0  0  0  0  0  0  0  0  0  0  0  0
   -0.4605   -0.9832    1.6227 O   0  0  0  0  0  0  0  0  0  0  0  0
   -0.8517   -0.9466    2.9396 N   0  0  0  0  0  0  0  0  0  0  0  0
   -0.5062   -1.9882    3.5661 C   0  0  0  0  0  0  0  0  0  0  0  0
   -1.9583    0.3046    0.9933 H   0  0  0  0  0  0  0  0  0  0  0  0
   -0.4123    1.0805    1.4309 H   0  0  0  0  0  0  0  0  0  0  0  0
   -0.7777   -2.0373    4.6121 H   0  0  0  0  0  0  0  0  0  0  0  0
    0.0369   -2.8036    3.0931 H   0  0  0  0  0  0  0  0  0  0  0  0
    0.9459   -0.5209   -2.9696 N   0  0  0  0  0  1  0  0  0  0  0  0
    0.9459   -0.5209   -1.7700 N   0  0  0  0  0  0  0  0  0  0  0  0
    0.9459    0.6735   -0.8562 C   0  0  0  0  0  3  0  0  0  0  0  0
    0.6892    1.9712   -1.5888 C   0  0  0  0  0  0  0  0  0  0  0  0
   -0.7542    2.1339   -2.0484 C   0  0  0  0  0  0  0  0  0  0  0  0
    0.9652   -1.4048   -1.2149 H   0  0  0  0  0  0  0  0  0  0  0  0
    0.0352    0.4374    0.0594 H   0  0  0  0  0  0  0  0  0  0  0  0
    1.9212    0.6723   -0.3625 H   0  0  0  0  0  0  0  0  0  0  0  0
    0.9627    2.7885   -0.9175 H   0  0  0  0  0  0  0  0  0  0  0  0
    1.3588    2.0204   -2.4494 H   0  0  0  0  0  0  0  0  0  0  0  0
   -1.4439    2.0888   -1.2017 H   0  0  0  0  0  0  0  0  0  0  0  0
   -1.0262    1.3519   -2.7572 H   0  0  0  0  0  0  0  0  0  0  0  0
   -0.8960    3.0956   -2.5425 H   0  0  0  0  0  0  0  0  0  0  0  0
  1  2  1  0
  1  5  1  0
  1  6  1  0
  1 15  1  0
  2  3  1  0
  3  4  2  3
  4  7  1  0
  4  8  1  0
  9 10  1  0
 10 11  1  0
 10 14  1  0
 11 12  1  0
 11 16  1  0
 12 13  1  0
 12 17  1  0
 12 18  1  0
 13 19  1  0
 13 20  1  0
 13 21  1  0
M  CHG  2   9  -1  11   1
M  RAD  1   9   2
M  END
>  <reaction>  (23) 
rmg_rxn_15652

>  <mol_properties>  (23) 
{"0": {"label": "*3", "atom_type": "Cs"}, "1": {"label": "*4", "atom_type": "O2s"}, "9": {"label": "*0", "atom_type": "N3s"}, "10": {"label": "*1", "atom_type": "Cs"}, "14": {"label": "*2", "atom_type": "H0"}}

>  <type>  (23) 
unop_19

>  <geom_source>  (23) 
Heuristics

$$$$

     RDKit          3D

 21 19  0  0  0  0  0  0  0  0999 V2000
   -0.4567   -0.8364    1.0948 C   0  0  0  0  0  0  0  0  0  0  0  0
   -0.9536    0.4311    1.4771 O   0  0  0  0  0  0  0  0  0  0  0  0
   -1.4411    0.3695    2.7606 N   0  0  0  0  0  0  0  0  0  0  0  0
   -1.8978    1.4822    3.1483 C   0  0  0  0  0  0  0  0  0  0  0  0
    0.3611   -1.1487    1.7481 H   0  0  0  0  0  0  0  0  0  0  0  0
   -1.2483   -1.5888    1.1156 H   0  0  0  0  0  0  0  0  0  0  0  0
   -2.3016    1.5176    4.1512 H   0  0  0  0  0  0  0  0  0  0  0  0
   -1.8929    2.3693    2.5186 H   0  0  0  0  0  0  0  0  0  0  0  0
    1.3601   -1.5598   -2.8453 N   0  0  0  0  0  1  0  0  0  0  0  0
    1.3601   -1.5598   -1.6457 N   0  0  0  0  0  0  0  0  0  0  0  0
    1.3601   -0.3653   -0.7319 C   0  0  0  0  0  3  0  0  0  0  0  0
    1.1035    0.9324   -1.4645 C   0  0  0  0  0  0  0  0  0  0  0  0
   -0.3399    1.0950   -1.9241 C   0  0  0  0  0  0  0  0  0  0  0  0
    1.3795   -2.4436   -1.0907 H   0  0  0  0  0  0  0  0  0  0  0  0
    0.4495   -0.6014    0.1837 H   0  0  0  0  0  0  0  0  0  0  0  0
    2.3355   -0.3666   -0.2382 H   0  0  0  0  0  0  0  0  0  0  0  0
    1.3770    1.7497   -0.7932 H   0  0  0  0  0  0  0  0  0  0  0  0
    1.7730    0.9815   -2.3251 H   0  0  0  0  0  0  0  0  0  0  0  0
   -1.0296    1.0499   -1.0774 H   0  0  0  0  0  0  0  0  0  0  0  0
   -0.6119    0.3130   -2.6329 H   0  0  0  0  0  0  0  0  0  0  0  0
   -0.4818    2.0568   -2.4182 H   0  0  0  0  0  0  0  0  0  0  0  0
  1  2  1  0
  1  5  1  0
  1  6  1  0
  1 15  1  0
  2  3  1  0
  3  4  2  3
  4  7  1  0
  4  8  1  0
  9 10  1  0
 10 11  1  0
 10 14  1  0
 11 12  1  0
 11 16  1  0
 12 13  1  0
 12 17  1  0
 12 18  1  0
 13 19  1  0
 13 20  1  0
 13 21  1  0
M  CHG  2   9  -1  11   1
M  RAD  1   9   2
M  END
>  <reaction>  (24) 
rmg_rxn_15652

>  <mol_properties>  (24) 
{"0": {"label": "*3", "atom_type": "Cs"}, "1": {"label": "*4", "atom_type": "O2s"}, "9": {"label": "*0", "atom_type": "N3s"}, "10": {"label": "*1", "atom_type": "Cs"}, "14": {"label": "*2", "atom_type": "H0"}}

>  <type>  (24) 
unop_20

>  <geom_source>  (24) 
Heuristics

$$$$

     RDKit          3D

 21 19  0  0  0  0  0  0  0  0999 V2000
   -0.3279    0.3206    1.4803 C   0  0  0  0  0  0  0  0  0  0  0  0
   -0.8702   -0.9464    1.1638 O   0  0  0  0  0  0  0  0  0  0  0  0
   -1.8406   -1.2766    2.0793 N   0  0  0  0  0  0  0  0  0  0  0  0
   -2.3565   -2.4044    1.8375 C   0  0  0  0  0  0  0  0  0  0  0  0
   -1.0975    1.0949    1.4451 H   0  0  0  0  0  0  0  0  0  0  0  0
    0.1355    0.3113    2.4694 H   0  0  0  0  0  0  0  0  0  0  0  0
   -3.1313   -2.7384    2.5147 H   0  0  0  0  0  0  0  0  0  0  0  0
   -2.0492   -3.0212    0.9958 H   0  0  0  0  0  0  0  0  0  0  0  0
    1.4890   -0.4028   -2.4599 N   0  0  0  0  0  1  0  0  0  0  0  0
    1.4890   -0.4028   -1.2603 N   0  0  0  0  0  0  0  0  0  0  0  0
    1.4890    0.7917   -0.3465 C   0  0  0  0  0  3  0  0  0  0  0  0
    1.2323    2.0894   -1.0791 C   0  0  0  0  0  0  0  0  0  0  0  0
   -0.2110    2.2520   -1.5386 C   0  0  0  0  0  0  0  0  0  0  0  0
    1.5083   -1.2866   -0.7052 H   0  0  0  0  0  0  0  0  0  0  0  0
    0.5783    0.5556    0.5691 H   0  0  0  0  0  0  0  0  0  0  0  0
    2.4644    0.7904    0.1473 H   0  0  0  0  0  0  0  0  0  0  0  0
    1.5058    2.9067   -0.4077 H   0  0  0  0  0  0  0  0  0  0  0  0
    1.9019    2.1385   -1.9396 H   0  0  0  0  0  0  0  0  0  0  0  0
   -0.9007    2.2069   -0.6920 H   0  0  0  0  0  0  0  0  0  0  0  0
   -0.4831    1.4700   -2.2475 H   0  0  0  0  0  0  0  0  0  0  0  0
   -0.3529    3.2138   -2.0328 H   0  0  0  0  0  0  0  0  0  0  0  0
  1  2  1  0
  1  5  1  0
  1  6  1  0
  1 15  1  0
  2  3  1  0
  3  4  2  3
  4  7  1  0
  4  8  1  0
  9 10  1  0
 10 11  1  0
 10 14  1  0
 11 12  1  0
 11 16  1  0
 12 13  1  0
 12 17  1  0
 12 18  1  0
 13 19  1  0
 13 20  1  0
 13 21  1  0
M  CHG  2   9  -1  11   1
M  RAD  1   9   2
M  END
>  <reaction>  (25) 
rmg_rxn_15652

>  <mol_properties>  (25) 
{"0": {"label": "*3", "atom_type": "Cs"}, "1": {"label": "*4", "atom_type": "O2s"}, "9": {"label": "*0", "atom_type": "N3s"}, "10": {"label": "*1", "atom_type": "Cs"}, "14": {"label": "*2", "atom_type": "H0"}}

>  <type>  (25) 
unop_21

>  <geom_source>  (25) 
Heuristics

$$$$

     RDKit          3D

 21 19  0  0  0  0  0  0  0  0999 V2000
    2.5709   -1.3269    0.1179 O   0  0  0  0  0  0  0  0  0  0  0  0
   -1.4539   -1.2089   -0.7305 N   0  0  0  0  0  0  0  0  0  0  0  0
    3.3031   -0.2298    0.5438 N   0  0  0  0  0  0  0  0  0  0  0  0
   -1.2638   -1.2538   -1.9590 N   0  0  0  0  0  1  0  0  0  0  0  0
   -1.3012    1.0186    0.2920 C   0  0  0  0  0  0  0  0  0  0  0  0
   -2.5545    0.9319    1.1604 C   0  0  0  0  0  0  0  0  0  0  0  0
    1.5713   -1.2629   -0.8952 C   0  0  0  0  0  0  0  0  0  0  0  0
   -0.6416   -0.3476    0.0917 C   0  0  0  0  0  3  0  0  0  0  0  0
    3.1719    0.9726    0.0737 C   0  0  0  0  0  0  0  0  0  0  0  0
   -1.5602    1.4584   -0.6952 H   0  0  0  0  0  0  0  0  0  0  0  0
   -0.5689    1.6926    0.7852 H   0  0  0  0  0  0  0  0  0  0  0  0
   -3.3337    0.3191    0.6604 H   0  0  0  0  0  0  0  0  0  0  0  0
   -2.3111    0.4847    2.1477 H   0  0  0  0  0  0  0  0  0  0  0  0
   -2.9623    1.9516    1.3243 H   0  0  0  0  0  0  0  0  0  0  0  0
    1.1335   -2.2720   -1.0380 H   0  0  0  0  0  0  0  0  0  0  0  0
    2.0219   -0.9305   -1.8539 H   0  0  0  0  0  0  0  0  0  0  0  0
    0.6129   -0.4318   -0.5305 H   0  0  0  0  0  0  0  0  0  0  0  0
   -0.4230   -0.8370    1.0654 H   0  0  0  0  0  0  0  0  0  0  0  0
   -2.2605   -1.7027   -0.3219 H   0  0  0  0  0  0  0  0  0  0  0  0
    3.7883    1.7686    0.4682 H   0  0  0  0  0  0  0  0  0  0  0  0
    2.4610    1.2059   -0.7067 H   0  0  0  0  0  0  0  0  0  0  0  0
  1  7  1  0
  1  3  1  0
  2  8  1  0
  2  4  1  0
  2 19  1  0
  3  9  2  3
  5  6  1  0
  5  8  1  0
  5 10  1  0
  5 11  1  0
  6 12  1  0
  6 13  1  0
  6 14  1  0
  7 15  1  0
  7 16  1  0
  7 17  1  0
  8 18  1  0
  9 20  1  0
  9 21  1  0
M  CHG  2   4  -1   8   1
M  RAD  1   4   2
M  END
>  <reaction>  (26) 
rmg_rxn_15652

>  <mol_properties>  (26) 
{"0": {"label": "*3", "atom_type": "Cs"}, "1": {"label": "*4", "atom_type": "O2s"}, "9": {"label": "*0", "atom_type": "N3s"}, "10": {"label": "*1", "atom_type": "Cs"}, "14": {"label": "*2", "atom_type": "H0"}}

>  <type>  (26) 
unop_22

>  <geom_source>  (26) 
AutoTST

$$$$

     RDKit          3D

 21 19  0  0  0  0  0  0  0  0999 V2000
   -0.6312    0.3785    1.2144 C   0  0  0  0  0  0  0  0  0  0  0  0
   -0.6662   -1.0269    1.3669 O   0  0  0  0  0  0  0  0  0  0  0  0
   -1.2656   -1.3484    2.5611 N   0  0  0  0  0  0  0  0  0  0  0  0
   -1.3203   -2.5976    2.7430 C   0  0  0  0  0  0  0  0  0  0  0  0
   -1.6407    0.7957    1.2045 H   0  0  0  0  0  0  0  0  0  0  0  0
   -0.0518    0.8440    2.0149 H   0  0  0  0  0  0  0  0  0  0  0  0
   -1.7794   -2.9340    3.6630 H   0  0  0  0  0  0  0  0  0  0  0  0
   -0.9306   -3.3126    2.0216 H   0  0  0  0  0  0  0  0  0  0  0  0
    1.1857   -0.3448   -2.7257 N   0  0  0  0  0  1  0  0  0  0  0  0
    1.1857   -0.3448   -1.5261 N   0  0  0  0  0  0  0  0  0  0  0  0
    1.1857    0.8496   -0.6123 C   0  0  0  0  0  3  0  0  0  0  0  0
    0.9290    2.1473   -1.3449 C   0  0  0  0  0  0  0  0  0  0  0  0
   -0.5144    2.3099   -1.8045 C   0  0  0  0  0  0  0  0  0  0  0  0
    1.2050   -1.2287   -0.9710 H   0  0  0  0  0  0  0  0  0  0  0  0
    0.2750    0.6135    0.3033 H   0  0  0  0  0  0  0  0  0  0  0  0
    2.1610    0.8483   -0.1186 H   0  0  0  0  0  0  0  0  0  0  0  0
    1.2025    2.9646   -0.6736 H   0  0  0  0  0  0  0  0  0  0  0  0
    1.5985    2.1964   -2.2055 H   0  0  0  0  0  0  0  0  0  0  0  0
   -1.2041    2.2648   -0.9578 H   0  0  0  0  0  0  0  0  0  0  0  0
   -0.7864    1.5279   -2.5133 H   0  0  0  0  0  0  0  0  0  0  0  0
   -0.6562    3.2717   -2.2986 H   0  0  0  0  0  0  0  0  0  0  0  0
  1  2  1  0
  1  5  1  0
  1  6  1  0
  1 15  1  0
  2  3  1  0
  3  4  2  3
  4  7  1  0
  4  8  1  0
  9 10  1  0
 10 11  1  0
 10 14  1  0
 11 12  1  0
 11 16  1  0
 12 13  1  0
 12 17  1  0
 12 18  1  0
 13 19  1  0
 13 20  1  0
 13 21  1  0
M  CHG  2   9  -1  11   1
M  RAD  1   9   2
M  END
>  <reaction>  (27) 
rmg_rxn_15652

>  <mol_properties>  (27) 
{"0": {"label": "*3", "atom_type": "Cs"}, "1": {"label": "*4", "atom_type": "O2s"}, "9": {"label": "*0", "atom_type": "N3s"}, "10": {"label": "*1", "atom_type": "Cs"}, "14": {"label": "*2", "atom_type": "H0"}}

>  <type>  (27) 
unop_23

>  <geom_source>  (27) 
gaussian_log

$$$$
