
     RDKit          3D

  9  8  0  0  0  0  0  0  0  0999 V2000
   -1.2461    0.5037    0.0950 C   0  0  0  0  0  0  0  0  0  0  0  0
   -0.0155   -0.3334    0.0640 C   0  0  0  0  0  0  0  0  0  0  0  0
    1.0697    0.1457   -0.3733 N   0  0  0  0  0  0  0  0  0  0  0  0
    2.1001   -0.7834   -0.3224 O   0  0  0  0  0  0  0  0  0  0  0  0
   -2.0357    0.0440   -0.5039 H   0  0  0  0  0  0  0  0  0  0  0  0
   -1.6237    0.5897    1.1166 H   0  0  0  0  0  0  0  0  0  0  0  0
   -1.0397    1.4998   -0.2929 H   0  0  0  0  0  0  0  0  0  0  0  0
   -0.0537   -1.3634    0.4205 H   0  0  0  0  0  0  0  0  0  0  0  0
    2.8478   -0.2985   -0.6758 H   0  0  0  0  0  0  0  0  0  0  0  0
  1  2  1  0
  1  5  1  0
  1  6  1  0
  1  7  1  0
  2  3  2  3
  2  8  1  0
  3  4  1  0
  4  9  1  0
M  END
>  <reaction>  (1) 
rmg_rxn_45

>  <mol_properties>  (1) 
{"3": {"label": "donator", "atom_type": "O2s"}, "8": {"label": "d_hydrogen", "atom_type": "H0"}}

>  <type>  (1) 
r1h

$$$$

     RDKit          3D

 13 12  0  0  0  0  0  0  0  0999 V2000
    1.9060    0.2628    0.3980 C   0  0  0  0  0  0  0  0  0  0  0  0
    0.6330   -0.4250    0.0685 C   0  0  0  0  0  3  0  0  0  0  0  0
   -0.2610   -0.9325    1.1416 C   0  0  0  0  0  0  0  0  0  0  0  0
   -1.4364   -1.7546    0.6268 C   0  0  0  0  0  0  0  0  0  0  0  0
    2.4899   -0.3070    1.1292 H   0  0  0  0  0  0  0  0  0  0  0  0
    1.7297    1.2496    0.8515 H   0  0  0  0  0  0  0  0  0  0  0  0
    2.5269    0.4197   -0.4845 H   0  0  0  0  0  0  0  0  0  0  0  0
    0.2597   -0.3936   -0.9489 H   0  0  0  0  0  0  0  0  0  0  0  0
   -0.6439   -0.0868    1.7356 H   0  0  0  0  0  0  0  0  0  0  0  0
    0.3260   -1.5277    1.8536 H   0  0  0  0  0  0  0  0  0  0  0  0
   -1.0872   -2.6320    0.0792 H   0  0  0  0  0  0  0  0  0  0  0  0
   -2.0701   -2.0976    1.4459 H   0  0  0  0  0  0  0  0  0  0  0  0
   -2.0561   -1.1637   -0.0512 H   0  0  0  0  0  0  0  0  0  0  0  0
  1  2  1  0
  1  5  1  0
  1  6  1  0
  1  7  1  0
  2  3  1  0
  2  8  1  0
  3  4  1  0
  3  9  1  0
  3 10  1  0
  4 11  1  0
  4 12  1  0
  4 13  1  0
M  RAD  1   2   2
M  END
>  <reaction>  (2) 
rmg_rxn_45

>  <mol_properties>  (2) 
{"1": {"label": "acceptor", "atom_type": "Cs"}}

>  <type>  (2) 
r2

$$$$

     RDKit          3D

 14 13  0  0  0  0  0  0  0  0999 V2000
    1.8106   -0.5953    0.5577 C   0  0  0  0  0  0  0  0  0  0  0  0
    0.5197    0.2064    0.6554 C   0  0  0  0  0  0  0  0  0  0  0  0
   -0.5206   -0.2080   -0.3788 C   0  0  0  0  0  0  0  0  0  0  0  0
   -1.8114    0.5937   -0.2812 C   0  0  0  0  0  0  0  0  0  0  0  0
    2.2725   -0.4752   -0.4251 H   0  0  0  0  0  0  0  0  0  0  0  0
    1.6214   -1.6612    0.7052 H   0  0  0  0  0  0  0  0  0  0  0  0
    2.5364   -0.2784    1.3084 H   0  0  0  0  0  0  0  0  0  0  0  0
    0.0930    0.0950    1.6574 H   0  0  0  0  0  0  0  0  0  0  0  0
    0.7393    1.2723    0.5354 H   0  0  0  0  0  0  0  0  0  0  0  0
   -0.7402   -1.2739   -0.2588 H   0  0  0  0  0  0  0  0  0  0  0  0
   -0.0938   -0.0965   -1.3808 H   0  0  0  0  0  0  0  0  0  0  0  0
   -1.6222    1.6596   -0.4287 H   0  0  0  0  0  0  0  0  0  0  0  0
   -2.2734    0.4736    0.7017 H   0  0  0  0  0  0  0  0  0  0  0  0
   -2.5373    0.2768   -1.0318 H   0  0  0  0  0  0  0  0  0  0  0  0
  1  2  1  0
  1  5  1  0
  1  6  1  0
  1  7  1  0
  2  3  1  0
  2  8  1  0
  2  9  1  0
  3  4  1  0
  3 10  1  0
  3 11  1  0
  4 12  1  0
  4 13  1  0
  4 14  1  0
M  END
>  <reaction>  (3) 
rmg_rxn_45

>  <mol_properties>  (3) 
{"0": {"label": "a_hydrogen", "atom_type": "H0"}, "2": {"label": "acceptor", "atom_type": "Cs"}}

>  <type>  (3) 
r2h

$$$$

     RDKit          3D

 22 20  0  0  0  0  0  0  0  0999 V2000
   -0.8627   -2.1694   -2.5019 C   0  0  0  0  0  0  0  0  0  0  0  0
    0.0171   -2.0528   -1.3053 C   0  0  0  0  0  0  0  0  0  0  0  0
   -0.0652   -1.0401   -0.5457 N   0  0  0  0  0  0  0  0  0  0  0  0
    0.7626   -1.0275    0.4978 O   0  0  0  0  0  0  0  0  0  0  0  0
   -0.2658   -2.2453   -3.4142 H   0  0  0  0  0  0  0  0  0  0  0  0
   -1.4774   -3.0709   -2.4429 H   0  0  0  0  0  0  0  0  0  0  0  0
   -1.5157   -1.3012   -2.5784 H   0  0  0  0  0  0  0  0  0  0  0  0
    0.7329   -2.8457   -1.0865 H   0  0  0  0  0  0  0  0  0  0  0  0
    0.5024    0.0335    1.0747 H   0  0  0  0  0  0  0  0  0  0  0  0
   -1.3531    0.8948    1.9121 C   0  0  0  0  0  0  0  0  0  0  0  0
    0.0687    1.1687    1.5115 C   0  0  0  0  0  3  0  0  0  0  0  0
    0.2744    2.1086    0.3551 C   0  0  0  0  0  0  0  0  0  0  0  0
    1.7369    2.3023   -0.0201 C   0  0  0  0  0  0  0  0  0  0  0  0
   -1.9222    0.5135    1.0612 H   0  0  0  0  0  0  0  0  0  0  0  0
   -1.8408    1.8153    2.2523 H   0  0  0  0  0  0  0  0  0  0  0  0
   -1.4110    0.1657    2.7204 H   0  0  0  0  0  0  0  0  0  0  0  0
    0.7470    1.3452    2.3500 H   0  0  0  0  0  0  0  0  0  0  0  0
   -0.1788    3.0760    0.6103 H   0  0  0  0  0  0  0  0  0  0  0  0
   -0.2866    1.7283   -0.5045 H   0  0  0  0  0  0  0  0  0  0  0  0
    2.1884    1.3510   -0.3069 H   0  0  0  0  0  0  0  0  0  0  0  0
    1.8404    2.9925   -0.8583 H   0  0  0  0  0  0  0  0  0  0  0  0
    2.3084    2.7057    0.8191 H   0  0  0  0  0  0  0  0  0  0  0  0
  1  2  1  0
  1  5  1  0
  1  6  1  0
  1  7  1  0
  2  3  2  3
  2  8  1  0
  3  4  1  0
  4  9  1  0
 10 11  1  0
 10 14  1  0
 10 15  1  0
 10 16  1  0
 11 12  1  0
 11 17  1  0
 12 13  1  0
 12 18  1  0
 12 19  1  0
 13 20  1  0
 13 21  1  0
 13 22  1  0
M  RAD  1  11   2
M  END
>  <reaction>  (4) 
rmg_rxn_45

>  <mol_properties>  (4) 
{"2": {"label": "*0", "atom_type": "N3d"}, "3": {"label": "*1", "atom_type": "O2s"}, "8": {"label": "*2", "atom_type": "H0"}, "10": {"label": "*3", "atom_type": "Cs"}, "11": {"label": "*4", "atom_type": "Cs"}}

>  <type>  (4) 
ts

$$$$

     RDKit          3D

 22 20  0  0  0  0  0  0  0  0999 V2000
    0.3097   -1.8798   -3.3204 C   0  0  0  0  0  0  0  0  0  0  0  0
    0.3097   -1.8798   -1.8317 C   0  0  0  0  0  0  0  0  0  0  0  0
    0.3097   -0.7877   -1.1949 N   0  0  0  0  0  0  0  0  0  0  0  0
    0.3097   -0.9924    0.1783 O   0  0  0  0  0  0  0  0  0  0  0  0
    1.1891   -2.4036   -3.7022 H   0  0  0  0  0  0  0  0  0  0  0  0
   -0.5697   -2.4036   -3.7022 H   0  0  0  0  0  0  0  0  0  0  0  0
    0.3097   -0.8601   -3.7018 H   0  0  0  0  0  0  0  0  0  0  0  0
    0.3097   -2.8273   -1.2916 H   0  0  0  0  0  0  0  0  0  0  0  0
    0.3097    0.0773    0.6017 H   0  0  0  0  0  0  0  0  0  0  0  0
    1.4487    0.6276    1.8406 C   0  0  0  0  0  0  0  0  0  0  0  0
    0.3097    1.2989    1.0851 C   0  0  0  0  0  3  0  0  0  0  0  0
   -0.9377    1.4976    1.9384 C   0  0  0  0  0  0  0  0  0  0  0  0
   -2.0766    2.1689    1.1829 C   0  0  0  0  0  0  0  0  0  0  0  0
    1.1500   -0.3588    2.2034 H   0  0  0  0  0  0  0  0  0  0  0  0
    1.7468    1.2216    2.7078 H   0  0  0  0  0  0  0  0  0  0  0  0
    2.3277    0.4978    1.2071 H   0  0  0  0  0  0  0  0  0  0  0  0
    0.6428    2.2703    0.7058 H   0  0  0  0  0  0  0  0  0  0  0  0
   -0.6783    2.0950    2.8184 H   0  0  0  0  0  0  0  0  0  0  0  0
   -1.2708    0.5262    2.3177 H   0  0  0  0  0  0  0  0  0  0  0  0
   -2.3748    1.5749    0.3157 H   0  0  0  0  0  0  0  0  0  0  0  0
   -2.9556    2.2987    1.8164 H   0  0  0  0  0  0  0  0  0  0  0  0
   -1.7779    3.1553    0.8201 H   0  0  0  0  0  0  0  0  0  0  0  0
  1  2  1  0
  1  5  1  0
  1  6  1  0
  1  7  1  0
  2  3  2  3
  2  8  1  0
  3  4  1  0
  4  9  1  0
 10 11  1  0
 10 14  1  0
 10 15  1  0
 10 16  1  0
 11 12  1  0
 11 17  1  0
 12 13  1  0
 12 18  1  0
 12 19  1  0
 13 20  1  0
 13 21  1  0
 13 22  1  0
M  RAD  1  11   2
M  END
>  <reaction>  (5) 
rmg_rxn_45

>  <mol_properties>  (5) 
{"2": {"label": "*0", "atom_type": "N3d"}, "3": {"label": "*1", "atom_type": "O2s"}, "8": {"label": "*2", "atom_type": "H0"}, "10": {"label": "*3", "atom_type": "Cs"}, "11": {"label": "*4", "atom_type": "Cs"}}

>  <type>  (5) 
unop_1

>  <geom_source>  (5) 
Heuristics

$$$$

     RDKit          3D

 22 20  0  0  0  0  0  0  0  0999 V2000
    0.1826   -2.0637   -2.8597 C   0  0  0  0  0  0  0  0  0  0  0  0
    0.1826   -2.0637   -1.3710 C   0  0  0  0  0  0  0  0  0  0  0  0
    0.1826   -0.9716   -0.7342 N   0  0  0  0  0  0  0  0  0  0  0  0
    0.1826   -1.1763    0.6390 O   0  0  0  0  0  0  0  0  0  0  0  0
    1.0620   -2.5875   -3.2415 H   0  0  0  0  0  0  0  0  0  0  0  0
   -0.6968   -2.5875   -3.2415 H   0  0  0  0  0  0  0  0  0  0  0  0
    0.1826   -1.0440   -3.2411 H   0  0  0  0  0  0  0  0  0  0  0  0
    0.1826   -3.0112   -0.8309 H   0  0  0  0  0  0  0  0  0  0  0  0
    0.1826   -0.1066    1.0623 H   0  0  0  0  0  0  0  0  0  0  0  0
   -0.6564    0.7676    2.7681 C   0  0  0  0  0  0  0  0  0  0  0  0
    0.1826    1.1150    1.5458 C   0  0  0  0  0  3  0  0  0  0  0  0
   -0.5376    2.0378    0.5695 C   0  0  0  0  0  0  0  0  0  0  0  0
    0.3015    2.3852   -0.6528 C   0  0  0  0  0  0  0  0  0  0  0  0
   -1.5819    0.2648    2.4775 H   0  0  0  0  0  0  0  0  0  0  0  0
   -0.9305    1.6678    3.3233 H   0  0  0  0  0  0  0  0  0  0  0  0
   -0.1174    0.1069    3.4491 H   0  0  0  0  0  0  0  0  0  0  0  0
    1.1168    1.5890    1.8642 H   0  0  0  0  0  0  0  0  0  0  0  0
   -0.8251    2.9566    1.0908 H   0  0  0  0  0  0  0  0  0  0  0  0
   -1.4717    1.5639    0.2512 H   0  0  0  0  0  0  0  0  0  0  0  0
    0.5756    1.4850   -1.2080 H   0  0  0  0  0  0  0  0  0  0  0  0
   -0.2375    3.0459   -1.3337 H   0  0  0  0  0  0  0  0  0  0  0  0
    1.2269    2.8881   -0.3622 H   0  0  0  0  0  0  0  0  0  0  0  0
  1  2  1  0
  1  5  1  0
  1  6  1  0
  1  7  1  0
  2  3  2  3
  2  8  1  0
  3  4  1  0
  4  9  1  0
 10 11  1  0
 10 14  1  0
 10 15  1  0
 10 16  1  0
 11 12  1  0
 11 17  1  0
 12 13  1  0
 12 18  1  0
 12 19  1  0
 13 20  1  0
 13 21  1  0
 13 22  1  0
M  RAD  1  11   2
M  END
>  <reaction>  (6) 
rmg_rxn_45

>  <mol_properties>  (6) 
{"2": {"label": "*0", "atom_type": "N3d"}, "3": {"label": "*1", "atom_type": "O2s"}, "8": {"label": "*2", "atom_type": "H0"}, "10": {"label": "*3", "atom_type": "Cs"}, "11": {"label": "*4", "atom_type": "Cs"}}

>  <type>  (6) 
unop_2

>  <geom_source>  (6) 
Heuristics

$$$$

     RDKit          3D

 22 20  0  0  0  0  0  0  0  0999 V2000
    0.1767   -1.8331   -3.4407 C   0  0  0  0  0  0  0  0  0  0  0  0
    0.1767   -1.8331   -1.9520 C   0  0  0  0  0  0  0  0  0  0  0  0
    0.1767   -0.7411   -1.3152 N   0  0  0  0  0  0  0  0  0  0  0  0
    0.1767   -0.9457    0.0580 O   0  0  0  0  0  0  0  0  0  0  0  0
    1.0561   -2.3570   -3.8225 H   0  0  0  0  0  0  0  0  0  0  0  0
   -0.7027   -2.3570   -3.8225 H   0  0  0  0  0  0  0  0  0  0  0  0
    0.1767   -0.8134   -3.8221 H   0  0  0  0  0  0  0  0  0  0  0  0
    0.1767   -2.7806   -1.4119 H   0  0  0  0  0  0  0  0  0  0  0  0
    0.1767    0.1239    0.4814 H   0  0  0  0  0  0  0  0  0  0  0  0
    1.6865    1.1990    1.0976 C   0  0  0  0  0  0  0  0  0  0  0  0
    0.1767    1.3455    0.9648 C   0  0  0  0  0  3  0  0  0  0  0  0
   -0.5435    1.3503    2.3083 C   0  0  0  0  0  0  0  0  0  0  0  0
   -2.0533    1.4967    2.1754 C   0  0  0  0  0  0  0  0  0  0  0  0
    1.9462    0.2653    1.6021 H   0  0  0  0  0  0  0  0  0  0  0  0
    2.1092    2.0189    1.6832 H   0  0  0  0  0  0  0  0  0  0  0  0
    2.1760    1.1987    0.1224 H   0  0  0  0  0  0  0  0  0  0  0  0
   -0.0568    2.2717    0.4298 H   0  0  0  0  0  0  0  0  0  0  0  0
   -0.1482    2.1648    2.9238 H   0  0  0  0  0  0  0  0  0  0  0  0
   -0.3100    0.4241    2.8432 H   0  0  0  0  0  0  0  0  0  0  0  0
   -2.4760    0.6769    1.5899 H   0  0  0  0  0  0  0  0  0  0  0  0
   -2.5428    1.4971    3.1507 H   0  0  0  0  0  0  0  0  0  0  0  0
   -2.3130    2.4305    1.6710 H   0  0  0  0  0  0  0  0  0  0  0  0
  1  2  1  0
  1  5  1  0
  1  6  1  0
  1  7  1  0
  2  3  2  3
  2  8  1  0
  3  4  1  0
  4  9  1  0
 10 11  1  0
 10 14  1  0
 10 15  1  0
 10 16  1  0
 11 12  1  0
 11 17  1  0
 12 13  1  0
 12 18  1  0
 12 19  1  0
 13 20  1  0
 13 21  1  0
 13 22  1  0
M  RAD  1  11   2
M  END
>  <reaction>  (7) 
rmg_rxn_45

>  <mol_properties>  (7) 
{"2": {"label": "*0", "atom_type": "N3d"}, "3": {"label": "*1", "atom_type": "O2s"}, "8": {"label": "*2", "atom_type": "H0"}, "10": {"label": "*3", "atom_type": "Cs"}, "11": {"label": "*4", "atom_type": "Cs"}}

>  <type>  (7) 
unop_3

>  <geom_source>  (7) 
Heuristics

$$$$

     RDKit          3D

 22 20  0  0  0  0  0  0  0  0999 V2000
   -0.3147   -2.0134   -2.9844 C   0  0  0  0  0  0  0  0  0  0  0  0
   -0.3147   -2.0134   -1.4957 C   0  0  0  0  0  0  0  0  0  0  0  0
   -0.3147   -0.9213   -0.8589 N   0  0  0  0  0  0  0  0  0  0  0  0
   -0.3147   -1.1260    0.5143 O   0  0  0  0  0  0  0  0  0  0  0  0
    0.5647   -2.5372   -3.3662 H   0  0  0  0  0  0  0  0  0  0  0  0
   -1.1941   -2.5372   -3.3662 H   0  0  0  0  0  0  0  0  0  0  0  0
   -0.3147   -0.9937   -3.3658 H   0  0  0  0  0  0  0  0  0  0  0  0
   -0.3147   -2.9609   -0.9556 H   0  0  0  0  0  0  0  0  0  0  0  0
   -0.3147   -0.0563    0.9376 H   0  0  0  0  0  0  0  0  0  0  0  0
   -1.4678    2.1059    1.7437 C   0  0  0  0  0  0  0  0  0  0  0  0
   -0.3147    1.1652    1.4211 C   0  0  0  0  0  3  0  0  0  0  0  0
    0.9327    1.8941    0.9350 C   0  0  0  0  0  0  0  0  0  0  0  0
    2.0858    0.9534    0.6125 C   0  0  0  0  0  0  0  0  0  0  0  0
   -1.7590    2.6843    0.8637 H   0  0  0  0  0  0  0  0  0  0  0  0
   -1.1874    2.8148    2.5263 H   0  0  0  0  0  0  0  0  0  0  0  0
   -2.3465    1.5585    2.0888 H   0  0  0  0  0  0  0  0  0  0  0  0
   -0.0623    0.5758    2.3085 H   0  0  0  0  0  0  0  0  0  0  0  0
    1.2477    2.6132    1.6981 H   0  0  0  0  0  0  0  0  0  0  0  0
    0.6803    2.4836    0.0477 H   0  0  0  0  0  0  0  0  0  0  0  0
    1.8054    0.2445   -0.1702 H   0  0  0  0  0  0  0  0  0  0  0  0
    2.9645    1.5008    0.2674 H   0  0  0  0  0  0  0  0  0  0  0  0
    2.3770    0.3750    1.4925 H   0  0  0  0  0  0  0  0  0  0  0  0
  1  2  1  0
  1  5  1  0
  1  6  1  0
  1  7  1  0
  2  3  2  3
  2  8  1  0
  3  4  1  0
  4  9  1  0
 10 11  1  0
 10 14  1  0
 10 15  1  0
 10 16  1  0
 11 12  1  0
 11 17  1  0
 12 13  1  0
 12 18  1  0
 12 19  1  0
 13 20  1  0
 13 21  1  0
 13 22  1  0
M  RAD  1  11   2
M  END
>  <reaction>  (8) 
rmg_rxn_45

>  <mol_properties>  (8) 
{"2": {"label": "*0", "atom_type": "N3d"}, "3": {"label": "*1", "atom_type": "O2s"}, "8": {"label": "*2", "atom_type": "H0"}, "10": {"label": "*3", "atom_type": "Cs"}, "11": {"label": "*4", "atom_type": "Cs"}}

>  <type>  (8) 
unop_4

>  <geom_source>  (8) 
Heuristics

$$$$

     RDKit          3D

 22 20  0  0  0  0  0  0  0  0999 V2000
   -0.0000   -1.8171   -3.4837 C   0  0  0  0  0  0  0  0  0  0  0  0
   -0.0000   -1.8171   -1.9950 C   0  0  0  0  0  0  0  0  0  0  0  0
   -0.0000   -0.7251   -1.3582 N   0  0  0  0  0  0  0  0  0  0  0  0
   -0.0000   -0.9297    0.0150 O   0  0  0  0  0  0  0  0  0  0  0  0
    0.8794   -2.3410   -3.8655 H   0  0  0  0  0  0  0  0  0  0  0  0
   -0.8794   -2.3410   -3.8655 H   0  0  0  0  0  0  0  0  0  0  0  0
   -0.0000   -0.7974   -3.8651 H   0  0  0  0  0  0  0  0  0  0  0  0
   -0.0000   -2.7647   -1.4549 H   0  0  0  0  0  0  0  0  0  0  0  0
   -0.0000    0.1399    0.4383 H   0  0  0  0  0  0  0  0  0  0  0  0
    1.1849    2.1340    0.3581 C   0  0  0  0  0  0  0  0  0  0  0  0
    0.0000    1.3615    0.9218 C   0  0  0  0  0  3  0  0  0  0  0  0
    0.0000    1.2952    2.4447 C   0  0  0  0  0  0  0  0  0  0  0  0
   -1.1849    0.5227    3.0084 C   0  0  0  0  0  0  0  0  0  0  0  0
    2.1299    1.6744    0.6573 H   0  0  0  0  0  0  0  0  0  0  0  0
    1.1894    3.1642    0.7221 H   0  0  0  0  0  0  0  0  0  0  0  0
    1.1600    2.1657   -0.7324 H   0  0  0  0  0  0  0  0  0  0  0  0
   -0.9336    1.8224    0.5832 H   0  0  0  0  0  0  0  0  0  0  0  0
    0.0000    2.3132    2.8476 H   0  0  0  0  0  0  0  0  0  0  0  0
    0.9336    0.8343    2.7832 H   0  0  0  0  0  0  0  0  0  0  0  0
   -1.1894   -0.5074    2.6443 H   0  0  0  0  0  0  0  0  0  0  0  0
   -1.1600    0.4910    4.0988 H   0  0  0  0  0  0  0  0  0  0  0  0
   -2.1299    0.9824    2.7091 H   0  0  0  0  0  0  0  0  0  0  0  0
  1  2  1  0
  1  5  1  0
  1  6  1  0
  1  7  1  0
  2  3  2  3
  2  8  1  0
  3  4  1  0
  4  9  1  0
 10 11  1  0
 10 14  1  0
 10 15  1  0
 10 16  1  0
 11 12  1  0
 11 17  1  0
 12 13  1  0
 12 18  1  0
 12 19  1  0
 13 20  1  0
 13 21  1  0
 13 22  1  0
M  RAD  1  11   2
M  END
>  <reaction>  (9) 
rmg_rxn_45

>  <mol_properties>  (9) 
{"2": {"label": "*0", "atom_type": "N3d"}, "3": {"label": "*1", "atom_type": "O2s"}, "8": {"label": "*2", "atom_type": "H0"}, "10": {"label": "*3", "atom_type": "Cs"}, "11": {"label": "*4", "atom_type": "Cs"}}

>  <type>  (9) 
unop_5

>  <geom_source>  (9) 
Heuristics

$$$$

     RDKit          3D

 22 20  0  0  0  0  0  0  0  0999 V2000
   -0.3609   -1.9459   -3.1533 C   0  0  0  0  0  0  0  0  0  0  0  0
   -0.3609   -1.9459   -1.6646 C   0  0  0  0  0  0  0  0  0  0  0  0
   -0.3609   -0.8538   -1.0278 N   0  0  0  0  0  0  0  0  0  0  0  0
   -0.3609   -1.0585    0.3454 O   0  0  0  0  0  0  0  0  0  0  0  0
    0.5185   -2.4697   -3.5351 H   0  0  0  0  0  0  0  0  0  0  0  0
   -1.2403   -2.4697   -3.5351 H   0  0  0  0  0  0  0  0  0  0  0  0
   -0.3609   -0.9262   -3.5347 H   0  0  0  0  0  0  0  0  0  0  0  0
   -0.3609   -2.8934   -1.1245 H   0  0  0  0  0  0  0  0  0  0  0  0
   -0.3609    0.0112    0.7687 H   0  0  0  0  0  0  0  0  0  0  0  0
   -1.3585    2.3827    1.2191 C   0  0  0  0  0  0  0  0  0  0  0  0
   -0.3609    1.2327    1.2522 C   0  0  0  0  0  3  0  0  0  0  0  0
    1.0795    1.6966    1.4358 C   0  0  0  0  0  0  0  0  0  0  0  0
    2.0771    0.5466    1.4689 C   0  0  0  0  0  0  0  0  0  0  0  0
   -1.1374    3.0691    0.3982 H   0  0  0  0  0  0  0  0  0  0  0  0
   -1.3244    2.9573    2.1478 H   0  0  0  0  0  0  0  0  0  0  0  0
   -2.3801    2.0228    1.0869 H   0  0  0  0  0  0  0  0  0  0  0  0
   -0.6214    0.5437    2.0621 H   0  0  0  0  0  0  0  0  0  0  0  0
    1.1544    2.2746    2.3625 H   0  0  0  0  0  0  0  0  0  0  0  0
    1.3400    2.3856    0.6259 H   0  0  0  0  0  0  0  0  0  0  0  0
    2.0429   -0.0280    0.5402 H   0  0  0  0  0  0  0  0  0  0  0  0
    3.0987    0.9066    1.6011 H   0  0  0  0  0  0  0  0  0  0  0  0
    1.8560   -0.1398    2.2898 H   0  0  0  0  0  0  0  0  0  0  0  0
  1  2  1  0
  1  5  1  0
  1  6  1  0
  1  7  1  0
  2  3  2  3
  2  8  1  0
  3  4  1  0
  4  9  1  0
 10 11  1  0
 10 14  1  0
 10 15  1  0
 10 16  1  0
 11 12  1  0
 11 17  1  0
 12 13  1  0
 12 18  1  0
 12 19  1  0
 13 20  1  0
 13 21  1  0
 13 22  1  0
M  RAD  1  11   2
M  END
>  <reaction>  (10) 
rmg_rxn_45

>  <mol_properties>  (10) 
{"2": {"label": "*0", "atom_type": "N3d"}, "3": {"label": "*1", "atom_type": "O2s"}, "8": {"label": "*2", "atom_type": "H0"}, "10": {"label": "*3", "atom_type": "Cs"}, "11": {"label": "*4", "atom_type": "Cs"}}

>  <type>  (10) 
unop_6

>  <geom_source>  (10) 
Heuristics

$$$$

     RDKit          3D

 22 20  0  0  0  0  0  0  0  0999 V2000
   -0.3097   -1.8798   -3.3204 C   0  0  0  0  0  0  0  0  0  0  0  0
   -0.3097   -1.8798   -1.8317 C   0  0  0  0  0  0  0  0  0  0  0  0
   -0.3097   -0.7877   -1.1949 N   0  0  0  0  0  0  0  0  0  0  0  0
   -0.3097   -0.9924    0.1783 O   0  0  0  0  0  0  0  0  0  0  0  0
    0.5697   -2.4036   -3.7022 H   0  0  0  0  0  0  0  0  0  0  0  0
   -1.1891   -2.4036   -3.7022 H   0  0  0  0  0  0  0  0  0  0  0  0
   -0.3097   -0.8601   -3.7018 H   0  0  0  0  0  0  0  0  0  0  0  0
   -0.3097   -2.8273   -1.2916 H   0  0  0  0  0  0  0  0  0  0  0  0
   -0.3097    0.0773    0.6017 H   0  0  0  0  0  0  0  0  0  0  0  0
   -0.9457    2.6100    0.6434 C   0  0  0  0  0  0  0  0  0  0  0  0
   -0.3097    1.2989    1.0851 C   0  0  0  0  0  3  0  0  0  0  0  0
    0.9377    1.4976    1.9384 C   0  0  0  0  0  0  0  0  0  0  0  0
    1.5736    0.1865    2.3801 C   0  0  0  0  0  0  0  0  0  0  0  0
   -0.2458    3.2045    0.0514 H   0  0  0  0  0  0  0  0  0  0  0  0
   -1.2419    3.2115    1.5060 H   0  0  0  0  0  0  0  0  0  0  0  0
   -1.8352    2.4385    0.0351 H   0  0  0  0  0  0  0  0  0  0  0  0
   -1.0392    0.7085    1.6490 H   0  0  0  0  0  0  0  0  0  0  0  0
    0.6783    2.0950    2.8184 H   0  0  0  0  0  0  0  0  0  0  0  0
    1.6671    2.0880    1.3745 H   0  0  0  0  0  0  0  0  0  0  0  0
    1.8699   -0.4150    1.5175 H   0  0  0  0  0  0  0  0  0  0  0  0
    2.4632    0.3580    2.9884 H   0  0  0  0  0  0  0  0  0  0  0  0
    0.8738   -0.4080    2.9721 H   0  0  0  0  0  0  0  0  0  0  0  0
  1  2  1  0
  1  5  1  0
  1  6  1  0
  1  7  1  0
  2  3  2  3
  2  8  1  0
  3  4  1  0
  4  9  1  0
 10 11  1  0
 10 14  1  0
 10 15  1  0
 10 16  1  0
 11 12  1  0
 11 17  1  0
 12 13  1  0
 12 18  1  0
 12 19  1  0
 13 20  1  0
 13 21  1  0
 13 22  1  0
M  RAD  1  11   2
M  END
>  <reaction>  (11) 
rmg_rxn_45

>  <mol_properties>  (11) 
{"2": {"label": "*0", "atom_type": "N3d"}, "3": {"label": "*1", "atom_type": "O2s"}, "8": {"label": "*2", "atom_type": "H0"}, "10": {"label": "*3", "atom_type": "Cs"}, "11": {"label": "*4", "atom_type": "Cs"}}

>  <type>  (11) 
unop_7

>  <geom_source>  (11) 
Heuristics

$$$$

     RDKit          3D

 22 20  0  0  0  0  0  0  0  0999 V2000
    0.3609   -1.9459   -3.1533 C   0  0  0  0  0  0  0  0  0  0  0  0
    0.3609   -1.9459   -1.6646 C   0  0  0  0  0  0  0  0  0  0  0  0
    0.3609   -0.8538   -1.0278 N   0  0  0  0  0  0  0  0  0  0  0  0
    0.3609   -1.0585    0.3454 O   0  0  0  0  0  0  0  0  0  0  0  0
    1.2403   -2.4697   -3.5351 H   0  0  0  0  0  0  0  0  0  0  0  0
   -0.5185   -2.4697   -3.5351 H   0  0  0  0  0  0  0  0  0  0  0  0
    0.3609   -0.9262   -3.5347 H   0  0  0  0  0  0  0  0  0  0  0  0
    0.3609   -2.8934   -1.1245 H   0  0  0  0  0  0  0  0  0  0  0  0
    0.3609    0.0112    0.7687 H   0  0  0  0  0  0  0  0  0  0  0  0
    0.8720    0.3973    2.4182 C   0  0  0  0  0  0  0  0  0  0  0  0
    0.3609    1.2327    1.2522 C   0  0  0  0  0  3  0  0  0  0  0  0
   -1.0795    1.6966    1.4358 C   0  0  0  0  0  0  0  0  0  0  0  0
   -1.5906    2.5320    0.2698 C   0  0  0  0  0  0  0  0  0  0  0  0
    0.2629   -0.4996    2.5536 H   0  0  0  0  0  0  0  0  0  0  0  0
    0.8360    0.9644    3.3514 H   0  0  0  0  0  0  0  0  0  0  0  0
    1.9038    0.0791    2.2608 H   0  0  0  0  0  0  0  0  0  0  0  0
    1.0047    2.1079    1.1174 H   0  0  0  0  0  0  0  0  0  0  0  0
   -1.1544    2.2746    2.3625 H   0  0  0  0  0  0  0  0  0  0  0  0
   -1.7233    0.8214    1.5706 H   0  0  0  0  0  0  0  0  0  0  0  0
   -1.5546    1.9649   -0.6634 H   0  0  0  0  0  0  0  0  0  0  0  0
   -2.6224    2.8502    0.4273 H   0  0  0  0  0  0  0  0  0  0  0  0
   -0.9815    3.4290    0.1344 H   0  0  0  0  0  0  0  0  0  0  0  0
  1  2  1  0
  1  5  1  0
  1  6  1  0
  1  7  1  0
  2  3  2  3
  2  8  1  0
  3  4  1  0
  4  9  1  0
 10 11  1  0
 10 14  1  0
 10 15  1  0
 10 16  1  0
 11 12  1  0
 11 17  1  0
 12 13  1  0
 12 18  1  0
 12 19  1  0
 13 20  1  0
 13 21  1  0
 13 22  1  0
M  RAD  1  11   2
M  END
>  <reaction>  (12) 
rmg_rxn_45

>  <mol_properties>  (12) 
{"2": {"label": "*0", "atom_type": "N3d"}, "3": {"label": "*1", "atom_type": "O2s"}, "8": {"label": "*2", "atom_type": "H0"}, "10": {"label": "*3", "atom_type": "Cs"}, "11": {"label": "*4", "atom_type": "Cs"}}

>  <type>  (12) 
unop_8

>  <geom_source>  (12) 
Heuristics

$$$$

     RDKit          3D

 22 20  0  0  0  0  0  0  0  0999 V2000
   -0.1826   -2.0637   -2.8597 C   0  0  0  0  0  0  0  0  0  0  0  0
   -0.1826   -2.0637   -1.3710 C   0  0  0  0  0  0  0  0  0  0  0  0
   -0.1826   -0.9716   -0.7342 N   0  0  0  0  0  0  0  0  0  0  0  0
   -0.1826   -1.1763    0.6390 O   0  0  0  0  0  0  0  0  0  0  0  0
    0.6968   -2.5875   -3.2415 H   0  0  0  0  0  0  0  0  0  0  0  0
   -1.0620   -2.5875   -3.2415 H   0  0  0  0  0  0  0  0  0  0  0  0
   -0.1826   -1.0440   -3.2411 H   0  0  0  0  0  0  0  0  0  0  0  0
   -0.1826   -3.0112   -0.8309 H   0  0  0  0  0  0  0  0  0  0  0  0
   -0.1826   -0.1066    1.0623 H   0  0  0  0  0  0  0  0  0  0  0  0
   -1.4146    1.7538    2.1725 C   0  0  0  0  0  0  0  0  0  0  0  0
   -0.1826    1.1150    1.5458 C   0  0  0  0  0  3  0  0  0  0  0  0
    0.5376    2.0378    0.5695 C   0  0  0  0  0  0  0  0  0  0  0  0
    1.7696    1.3991   -0.0572 C   0  0  0  0  0  0  0  0  0  0  0  0
   -2.1408    2.0373    1.4070 H   0  0  0  0  0  0  0  0  0  0  0  0
   -1.1483    2.6577    2.7255 H   0  0  0  0  0  0  0  0  0  0  0  0
   -1.9100    1.0723    2.8660 H   0  0  0  0  0  0  0  0  0  0  0  0
    0.5149    0.8120    2.3334 H   0  0  0  0  0  0  0  0  0  0  0  0
    0.8252    2.9566    1.0908 H   0  0  0  0  0  0  0  0  0  0  0  0
   -0.1600    2.3408   -0.2180 H   0  0  0  0  0  0  0  0  0  0  0  0
    1.5033    0.4951   -0.6102 H   0  0  0  0  0  0  0  0  0  0  0  0
    2.2649    2.0805   -0.7507 H   0  0  0  0  0  0  0  0  0  0  0  0
    2.4957    1.1155    0.7084 H   0  0  0  0  0  0  0  0  0  0  0  0
  1  2  1  0
  1  5  1  0
  1  6  1  0
  1  7  1  0
  2  3  2  3
  2  8  1  0
  3  4  1  0
  4  9  1  0
 10 11  1  0
 10 14  1  0
 10 15  1  0
 10 16  1  0
 11 12  1  0
 11 17  1  0
 12 13  1  0
 12 18  1  0
 12 19  1  0
 13 20  1  0
 13 21  1  0
 13 22  1  0
M  RAD  1  11   2
M  END
>  <reaction>  (13) 
rmg_rxn_45

>  <mol_properties>  (13) 
{"2": {"label": "*0", "atom_type": "N3d"}, "3": {"label": "*1", "atom_type": "O2s"}, "8": {"label": "*2", "atom_type": "H0"}, "10": {"label": "*3", "atom_type": "Cs"}, "11": {"label": "*4", "atom_type": "Cs"}}

>  <type>  (13) 
unop_9

>  <geom_source>  (13) 
Heuristics

$$$$

     RDKit          3D

 22 20  0  0  0  0  0  0  0  0999 V2000
    0.3147   -2.0134   -2.9844 C   0  0  0  0  0  0  0  0  0  0  0  0
    0.3147   -2.0134   -1.4957 C   0  0  0  0  0  0  0  0  0  0  0  0
    0.3147   -0.9213   -0.8589 N   0  0  0  0  0  0  0  0  0  0  0  0
    0.3147   -1.1260    0.5143 O   0  0  0  0  0  0  0  0  0  0  0  0
    1.1941   -2.5372   -3.3662 H   0  0  0  0  0  0  0  0  0  0  0  0
   -0.5647   -2.5372   -3.3662 H   0  0  0  0  0  0  0  0  0  0  0  0
    0.3147   -0.9937   -3.3658 H   0  0  0  0  0  0  0  0  0  0  0  0
    0.3147   -2.9609   -0.9556 H   0  0  0  0  0  0  0  0  0  0  0  0
    0.3147   -0.0563    0.9376 H   0  0  0  0  0  0  0  0  0  0  0  0
    0.1067    0.4453    2.7466 C   0  0  0  0  0  0  0  0  0  0  0  0
    0.3147    1.1652    1.4211 C   0  0  0  0  0  3  0  0  0  0  0  0
   -0.9327    1.8941    0.9350 C   0  0  0  0  0  0  0  0  0  0  0  0
   -0.7247    2.6141   -0.3905 C   0  0  0  0  0  0  0  0  0  0  0  0
   -0.6876   -0.3007    2.6664 H   0  0  0  0  0  0  0  0  0  0  0  0
   -0.1789    1.1479    3.5331 H   0  0  0  0  0  0  0  0  0  0  0  0
    1.0140   -0.0672    3.0706 H   0  0  0  0  0  0  0  0  0  0  0  0
    1.1347    1.8841    1.5183 H   0  0  0  0  0  0  0  0  0  0  0  0
   -1.2477    2.6132    1.6981 H   0  0  0  0  0  0  0  0  0  0  0  0
   -1.7527    1.1752    0.8379 H   0  0  0  0  0  0  0  0  0  0  0  0
   -0.4391    1.9114   -1.1769 H   0  0  0  0  0  0  0  0  0  0  0  0
   -1.6320    3.1265   -0.7144 H   0  0  0  0  0  0  0  0  0  0  0  0
    0.0696    3.3600   -0.3103 H   0  0  0  0  0  0  0  0  0  0  0  0
  1  2  1  0
  1  5  1  0
  1  6  1  0
  1  7  1  0
  2  3  2  3
  2  8  1  0
  3  4  1  0
  4  9  1  0
 10 11  1  0
 10 14  1  0
 10 15  1  0
 10 16  1  0
 11 12  1  0
 11 17  1  0
 12 13  1  0
 12 18  1  0
 12 19  1  0
 13 20  1  0
 13 21  1  0
 13 22  1  0
M  RAD  1  11   2
M  END
>  <reaction>  (14) 
rmg_rxn_45

>  <mol_properties>  (14) 
{"2": {"label": "*0", "atom_type": "N3d"}, "3": {"label": "*1", "atom_type": "O2s"}, "8": {"label": "*2", "atom_type": "H0"}, "10": {"label": "*3", "atom_type": "Cs"}, "11": {"label": "*4", "atom_type": "Cs"}}

>  <type>  (14) 
unop_10

>  <geom_source>  (14) 
Heuristics

$$$$

     RDKit          3D

 22 20  0  0  0  0  0  0  0  0999 V2000
   -0.1767   -1.8331   -3.4407 C   0  0  0  0  0  0  0  0  0  0  0  0
   -0.1767   -1.8331   -1.9520 C   0  0  0  0  0  0  0  0  0  0  0  0
   -0.1767   -0.7411   -1.3152 N   0  0  0  0  0  0  0  0  0  0  0  0
   -0.1767   -0.9457    0.0580 O   0  0  0  0  0  0  0  0  0  0  0  0
    0.7027   -2.3570   -3.8225 H   0  0  0  0  0  0  0  0  0  0  0  0
   -1.0561   -2.3570   -3.8225 H   0  0  0  0  0  0  0  0  0  0  0  0
   -0.1767   -0.8134   -3.8221 H   0  0  0  0  0  0  0  0  0  0  0  0
   -0.1767   -2.7806   -1.4119 H   0  0  0  0  0  0  0  0  0  0  0  0
   -0.1767    0.1239    0.4814 H   0  0  0  0  0  0  0  0  0  0  0  0
   -0.0464    2.6634    0.2133 C   0  0  0  0  0  0  0  0  0  0  0  0
   -0.1767    1.3455    0.9648 C   0  0  0  0  0  3  0  0  0  0  0  0
    0.5435    1.3503    2.3083 C   0  0  0  0  0  0  0  0  0  0  0  0
    0.4133    0.0324    3.0598 C   0  0  0  0  0  0  0  0  0  0  0  0
    1.0017    2.8974    0.0124 H   0  0  0  0  0  0  0  0  0  0  0  0
   -0.4630    3.4888    0.7955 H   0  0  0  0  0  0  0  0  0  0  0  0
   -0.5705    2.6322   -0.7434 H   0  0  0  0  0  0  0  0  0  0  0  0
   -1.2353    1.1180    1.1266 H   0  0  0  0  0  0  0  0  0  0  0  0
    0.1482    2.1648    2.9238 H   0  0  0  0  0  0  0  0  0  0  0  0
    1.6021    1.5778    2.1465 H   0  0  0  0  0  0  0  0  0  0  0  0
    0.8298   -0.7930    2.4776 H   0  0  0  0  0  0  0  0  0  0  0  0
    0.9373    0.0636    4.0165 H   0  0  0  0  0  0  0  0  0  0  0  0
   -0.6349   -0.2016    3.2607 H   0  0  0  0  0  0  0  0  0  0  0  0
  1  2  1  0
  1  5  1  0
  1  6  1  0
  1  7  1  0
  2  3  2  3
  2  8  1  0
  3  4  1  0
  4  9  1  0
 10 11  1  0
 10 14  1  0
 10 15  1  0
 10 16  1  0
 11 12  1  0
 11 17  1  0
 12 13  1  0
 12 18  1  0
 12 19  1  0
 13 20  1  0
 13 21  1  0
 13 22  1  0
M  RAD  1  11   2
M  END
>  <reaction>  (15) 
rmg_rxn_45

>  <mol_properties>  (15) 
{"2": {"label": "*0", "atom_type": "N3d"}, "3": {"label": "*1", "atom_type": "O2s"}, "8": {"label": "*2", "atom_type": "H0"}, "10": {"label": "*3", "atom_type": "Cs"}, "11": {"label": "*4", "atom_type": "Cs"}}

>  <type>  (15) 
unop_11

>  <geom_source>  (15) 
Heuristics

$$$$

     RDKit          3D

 22 20  0  0  0  0  0  0  0  0999 V2000
   -0.0000   -2.0823   -2.8138 C   0  0  0  0  0  0  0  0  0  0  0  0
   -0.0000   -2.0823   -1.3251 C   0  0  0  0  0  0  0  0  0  0  0  0
   -0.0000   -0.9902   -0.6883 N   0  0  0  0  0  0  0  0  0  0  0  0
   -0.0000   -1.1949    0.6849 O   0  0  0  0  0  0  0  0  0  0  0  0
    0.8794   -2.6061   -3.1956 H   0  0  0  0  0  0  0  0  0  0  0  0
   -0.8794   -2.6061   -3.1956 H   0  0  0  0  0  0  0  0  0  0  0  0
   -0.0000   -1.0626   -3.1952 H   0  0  0  0  0  0  0  0  0  0  0  0
   -0.0000   -3.0298   -0.7850 H   0  0  0  0  0  0  0  0  0  0  0  0
   -0.0000   -0.1252    1.1083 H   0  0  0  0  0  0  0  0  0  0  0  0
   -1.1849    1.2739    2.5314 C   0  0  0  0  0  0  0  0  0  0  0  0
    0.0000    1.0964    1.5917 C   0  0  0  0  0  3  0  0  0  0  0  0
    0.0000    2.0902    0.4360 C   0  0  0  0  0  0  0  0  0  0  0  0
    1.1849    1.9127   -0.5037 C   0  0  0  0  0  0  0  0  0  0  0  0
   -2.1299    1.1435    1.9987 H   0  0  0  0  0  0  0  0  0  0  0  0
   -1.1894    2.2741    2.9710 H   0  0  0  0  0  0  0  0  0  0  0  0
   -1.1600    0.5507    3.3482 H   0  0  0  0  0  0  0  0  0  0  0  0
    0.9336    1.2007    2.1540 H   0  0  0  0  0  0  0  0  0  0  0  0
    0.0000    3.1082    0.8389 H   0  0  0  0  0  0  0  0  0  0  0  0
   -0.9336    1.9859   -0.1263 H   0  0  0  0  0  0  0  0  0  0  0  0
    1.1894    0.9125   -0.9433 H   0  0  0  0  0  0  0  0  0  0  0  0
    1.1600    2.6359   -1.3205 H   0  0  0  0  0  0  0  0  0  0  0  0
    2.1299    2.0431    0.0291 H   0  0  0  0  0  0  0  0  0  0  0  0
  1  2  1  0
  1  5  1  0
  1  6  1  0
  1  7  1  0
  2  3  2  3
  2  8  1  0
  3  4  1  0
  4  9  1  0
 10 11  1  0
 10 14  1  0
 10 15  1  0
 10 16  1  0
 11 12  1  0
 11 17  1  0
 12 13  1  0
 12 18  1  0
 12 19  1  0
 13 20  1  0
 13 21  1  0
 13 22  1  0
M  RAD  1  11   2
M  END
>  <reaction>  (16) 
rmg_rxn_45

>  <mol_properties>  (16) 
{"2": {"label": "*0", "atom_type": "N3d"}, "3": {"label": "*1", "atom_type": "O2s"}, "8": {"label": "*2", "atom_type": "H0"}, "10": {"label": "*3", "atom_type": "Cs"}, "11": {"label": "*4", "atom_type": "Cs"}}

>  <type>  (16) 
unop_12

>  <geom_source>  (16) 
Heuristics

$$$$

     RDKit          3D

 22 20  0  0  0  0  0  0  0  0999 V2000
    1.2385    0.5675    0.4126 O   0  0  0  0  0  1  0  0  0  0  0  0
    2.2568    1.0292    1.2156 N   0  0  0  0  0  2  0  0  0  0  0  0
   -1.0028   -0.2765    0.2291 C   0  0  0  0  0  0  0  0  0  0  0  0
   -2.0160    0.5983   -0.5228 C   0  0  0  0  0  0  0  0  0  0  0  0
   -1.1397   -1.7602   -0.1080 C   0  0  0  0  0  0  0  0  0  0  0  0
   -3.4471    0.4057   -0.0225 C   0  0  0  0  0  0  0  0  0  0  0  0
    3.9084    0.2585   -0.4086 C   0  0  0  0  0  0  0  0  0  0  0  0
    3.5020    0.9079    0.8765 C   0  0  0  0  0  3  0  0  0  0  0  0
   -1.1101   -0.1312    1.3260 H   0  0  0  0  0  0  0  0  0  0  0  0
    0.1273    0.0851   -0.0858 H   0  0  0  0  0  0  0  0  0  0  0  0
   -1.7345    1.6632   -0.3756 H   0  0  0  0  0  0  0  0  0  0  0  0
   -1.9696    0.3859   -1.6129 H   0  0  0  0  0  0  0  0  0  0  0  0
   -1.0753   -1.9161   -1.2057 H   0  0  0  0  0  0  0  0  0  0  0  0
   -0.3157   -2.3241    0.3773 H   0  0  0  0  0  0  0  0  0  0  0  0
   -2.1034   -2.1618    0.2681 H   0  0  0  0  0  0  0  0  0  0  0  0
   -3.8117   -0.6154   -0.2587 H   0  0  0  0  0  0  0  0  0  0  0  0
   -4.1150    1.1364   -0.5254 H   0  0  0  0  0  0  0  0  0  0  0  0
   -3.5015    0.5741    1.0741 H   0  0  0  0  0  0  0  0  0  0  0  0
    3.5489   -0.7917   -0.4313 H   0  0  0  0  0  0  0  0  0  0  0  0
    5.0149    0.2615   -0.4966 H   0  0  0  0  0  0  0  0  0  0  0  0
    3.4782    0.8169   -1.2664 H   0  0  0  0  0  0  0  0  0  0  0  0
    4.2675    1.2866    1.5411 H   0  0  0  0  0  0  0  0  0  0  0  0
  1  2  1  0
  2  8  1  0
  3  9  1  0
  3  4  1  0
  3  5  1  0
  3 10  1  0
  4 12  1  0
  4 11  1  0
  4  6  1  0
  5 13  1  0
  5 15  1  0
  5 14  1  0
  6 17  1  0
  6 18  1  0
  6 16  1  0
  7 19  1  0
  7  8  1  0
  7 21  1  0
  7 20  1  0
  8 22  1  0
M  RAD  3   1   2   2   2   8   2
M  END
>  <reaction>  (17) 
rmg_rxn_45

>  <mol_properties>  (17) 
{"2": {"label": "*0", "atom_type": "N3d"}, "3": {"label": "*1", "atom_type": "O2s"}, "8": {"label": "*2", "atom_type": "H0"}, "10": {"label": "*3", "atom_type": "Cs"}, "11": {"label": "*4", "atom_type": "Cs"}}

>  <type>  (17) 
unop_13

>  <geom_source>  (17) 
AutoTST

$$$$

     RDKit          3D

 22 20  0  0  0  0  0  0  0  0999 V2000
    0.1826   -2.0637   -2.8597 C   0  0  0  0  0  0  0  0  0  0  0  0
    0.1826   -2.0637   -1.3710 C   0  0  0  0  0  0  0  0  0  0  0  0
    0.1826   -0.9716   -0.7342 N   0  0  0  0  0  0  0  0  0  0  0  0
    0.1826   -1.1763    0.6390 O   0  0  0  0  0  0  0  0  0  0  0  0
    1.0620   -2.5875   -3.2415 H   0  0  0  0  0  0  0  0  0  0  0  0
   -0.6968   -2.5875   -3.2415 H   0  0  0  0  0  0  0  0  0  0  0  0
    0.1826   -1.0440   -3.2411 H   0  0  0  0  0  0  0  0  0  0  0  0
    0.1826   -3.0112   -0.8309 H   0  0  0  0  0  0  0  0  0  0  0  0
    0.1826   -0.1066    1.0623 H   0  0  0  0  0  0  0  0  0  0  0  0
   -0.6564    0.7676    2.7681 C   0  0  0  0  0  0  0  0  0  0  0  0
    0.1826    1.1150    1.5458 C   0  0  0  0  0  3  0  0  0  0  0  0
   -0.5376    2.0379    0.5695 C   0  0  0  0  0  0  0  0  0  0  0  0
    0.3015    2.3852   -0.6528 C   0  0  0  0  0  0  0  0  0  0  0  0
   -1.5818    0.2648    2.4775 H   0  0  0  0  0  0  0  0  0  0  0  0
   -0.9305    1.6678    3.3233 H   0  0  0  0  0  0  0  0  0  0  0  0
   -0.1174    0.1069    3.4491 H   0  0  0  0  0  0  0  0  0  0  0  0
    1.1168    1.5890    1.8641 H   0  0  0  0  0  0  0  0  0  0  0  0
   -0.8252    2.9566    1.0908 H   0  0  0  0  0  0  0  0  0  0  0  0
   -1.4717    1.5639    0.2512 H   0  0  0  0  0  0  0  0  0  0  0  0
    0.5756    1.4850   -1.2080 H   0  0  0  0  0  0  0  0  0  0  0  0
   -0.2375    3.0459   -1.3337 H   0  0  0  0  0  0  0  0  0  0  0  0
    1.2269    2.8881   -0.3622 H   0  0  0  0  0  0  0  0  0  0  0  0
  1  2  1  0
  1  5  1  0
  1  6  1  0
  1  7  1  0
  2  3  2  3
  2  8  1  0
  3  4  1  0
  4  9  1  0
 10 11  1  0
 10 14  1  0
 10 15  1  0
 10 16  1  0
 11 12  1  0
 11 17  1  0
 12 13  1  0
 12 18  1  0
 12 19  1  0
 13 20  1  0
 13 21  1  0
 13 22  1  0
M  RAD  1  11   2
M  END
>  <reaction>  (18) 
rmg_rxn_45

>  <mol_properties>  (18) 
{"2": {"label": "*0", "atom_type": "N3d"}, "3": {"label": "*1", "atom_type": "O2s"}, "8": {"label": "*2", "atom_type": "H0"}, "10": {"label": "*3", "atom_type": "Cs"}, "11": {"label": "*4", "atom_type": "Cs"}}

>  <type>  (18) 
unop_14

>  <geom_source>  (18) 
gaussian_log

$$$$
