
     RDKit          3D

 12 11  0  0  0  0  0  0  0  0999 V2000
   -1.4643   -0.2505   -0.5284 C   0  0  0  0  0  0  0  0  0  0  0  0
   -0.3946    0.4302    0.3143 C   0  0  0  0  0  0  0  0  0  0  0  0
   -0.5959    0.2382    1.8102 C   0  0  0  0  0  0  0  0  0  0  0  0
   -0.5633   -1.1190    2.2092 O   0  0  0  0  0  0  0  0  0  0  0  0
   -2.4511    0.1644   -0.3109 H   0  0  0  0  0  0  0  0  0  0  0  0
   -1.5019   -1.3198   -0.3181 H   0  0  0  0  0  0  0  0  0  0  0  0
   -1.2720   -0.1182   -1.5941 H   0  0  0  0  0  0  0  0  0  0  0  0
    0.5965    0.0515    0.0385 H   0  0  0  0  0  0  0  0  0  0  0  0
   -0.3776    1.5047    0.1078 H   0  0  0  0  0  0  0  0  0  0  0  0
   -1.5821    0.6048    2.1034 H   0  0  0  0  0  0  0  0  0  0  0  0
    0.1495    0.8220    2.3649 H   0  0  0  0  0  0  0  0  0  0  0  0
    0.3017   -1.4750    1.9997 H   0  0  0  0  0  0  0  0  0  0  0  0
  1  2  1  0
  1  5  1  0
  1  6  1  0
  1  7  1  0
  2  3  1  0
  2  8  1  0
  2  9  1  0
  3  4  1  0
  3 10  1  0
  3 11  1  0
  4 12  1  0
M  END
>  <reaction>  (1) 
rmg_rxn_16585

>  <mol_properties>  (1) 
{"3": {"label": "donator", "atom_type": "O2s"}, "11": {"label": "d_hydrogen", "atom_type": "H0"}}

>  <type>  (1) 
r1h

$$$$

     RDKit          3D

  7  6  0  0  0  0  0  0  0  0999 V2000
   -0.8571   -0.1277   -0.1351 C   0  0  0  0  0  0  0  0  0  0  0  0
    0.5127   -0.3685    0.3817 C   0  0  0  0  0  3  0  0  0  0  0  0
    1.4504    0.4165    0.5251 N   0  0  0  0  0  0  0  0  0  0  0  0
   -1.0377   -0.7631   -1.0031 H   0  0  0  0  0  0  0  0  0  0  0  0
   -1.5888   -0.4023    0.6258 H   0  0  0  0  0  0  0  0  0  0  0  0
   -0.9936    0.9212   -0.4136 H   0  0  0  0  0  0  0  0  0  0  0  0
    2.3193    0.0451    0.9013 H   0  0  0  0  0  0  0  0  0  0  0  0
  1  2  1  0
  1  4  1  0
  1  5  1  0
  1  6  1  0
  2  3  2  3
  3  7  1  0
M  RAD  1   2   2
M  END
>  <reaction>  (2) 
rmg_rxn_16585

>  <mol_properties>  (2) 
{"1": {"label": "acceptor", "atom_type": "Cd"}}

>  <type>  (2) 
r2

$$$$

     RDKit          3D

  8  7  0  0  0  0  0  0  0  0999 V2000
    0.9548    0.1194   -0.0790 C   0  0  0  0  0  0  0  0  0  0  0  0
   -0.4838   -0.2649    0.0193 C   0  0  0  0  0  0  0  0  0  0  0  0
   -0.8933   -1.1081    0.8664 N   0  0  0  0  0  0  0  0  0  0  0  0
    1.3360   -0.0983   -1.0800 H   0  0  0  0  0  0  0  0  0  0  0  0
    1.0698    1.1948    0.0786 H   0  0  0  0  0  0  0  0  0  0  0  0
    1.5426   -0.4219    0.6602 H   0  0  0  0  0  0  0  0  0  0  0  0
   -1.1575    0.2324   -0.6905 H   0  0  0  0  0  0  0  0  0  0  0  0
   -1.8989   -1.2455    0.7886 H   0  0  0  0  0  0  0  0  0  0  0  0
  1  2  1  0
  1  4  1  0
  1  5  1  0
  1  6  1  0
  2  3  2  3
  2  7  1  0
  3  8  1  0
M  END
>  <reaction>  (3) 
rmg_rxn_16585

>  <mol_properties>  (3) 
{"1": {"label": "acceptor", "atom_type": "Cd"}, "7": {"label": "a_hydrogen", "atom_type": "H0"}}

>  <type>  (3) 
r2h

$$$$

     RDKit          3D

 19 17  0  0  0  0  0  0  0  0999 V2000
   -2.6463   -1.0302    0.6683 C   0  0  0  0  0  0  0  0  0  0  0  0
   -1.4185   -0.2214    0.9108 C   0  0  0  0  0  0  0  0  0  0  0  0
   -1.0028    0.1640    2.0197 N   0  0  0  0  0  0  0  0  0  0  0  0
   -3.3162   -0.4843    0.0018 H   0  0  0  0  0  0  0  0  0  0  0  0
   -2.3759   -1.9589    0.1626 H   0  0  0  0  0  0  0  0  0  0  0  0
   -3.1520   -1.2503    1.6077 H   0  0  0  0  0  0  0  0  0  0  0  0
   -0.1406    0.7059    1.9842 H   0  0  0  0  0  0  0  0  0  0  0  0
    2.4609   -1.1464   -1.3050 C   0  0  0  0  0  0  0  0  0  0  0  0
    2.0561   -0.2153   -0.1713 C   0  0  0  0  0  0  0  0  0  0  0  0
    1.1046    0.8864   -0.6242 C   0  0  0  0  0  0  0  0  0  0  0  0
   -0.0873    0.4291   -1.1628 O   0  0  0  0  0  1  0  0  0  0  0  0
    3.0009   -0.6015   -2.0831 H   0  0  0  0  0  0  0  0  0  0  0  0
    1.5801   -1.5966   -1.7639 H   0  0  0  0  0  0  0  0  0  0  0  0
    3.1078   -1.9482   -0.9468 H   0  0  0  0  0  0  0  0  0  0  0  0
    1.5725   -0.7890    0.6257 H   0  0  0  0  0  0  0  0  0  0  0  0
    2.9412    0.2517    0.2716 H   0  0  0  0  0  0  0  0  0  0  0  0
    1.5762    1.4875   -1.4170 H   0  0  0  0  0  0  0  0  0  0  0  0
    0.9160    1.5978    0.1983 H   0  0  0  0  0  0  0  0  0  0  0  0
   -0.8261    0.0480   -0.1171 H   0  0  0  0  0  0  0  0  0  0  0  0
  1  2  1  0
  1  4  1  0
  1  5  1  0
  1  6  1  0
  2  3  2  3
  2 19  1  0
  3  7  1  0
  8  9  1  0
  8 12  1  0
  8 13  1  0
  8 14  1  0
  9 10  1  0
  9 15  1  0
  9 16  1  0
 10 11  1  0
 10 17  1  0
 10 18  1  0
M  RAD  1  11   2
M  END
>  <reaction>  (4) 
rmg_rxn_16585

>  <mol_properties>  (4) 
{"1": {"label": "*1", "atom_type": "Cd"}, "2": {"label": "*0", "atom_type": "N3d"}, "9": {"label": "*4", "atom_type": "Cs"}, "10": {"label": "*3", "atom_type": "O2s"}, "18": {"label": "*2", "atom_type": "H0"}}

>  <type>  (4) 
ts

$$$$

     RDKit          3D

 19 17  0  0  0  0  0  0  0  0999 V2000
   -2.7015   -0.1695   -0.9581 C   0  0  0  0  0  0  0  0  0  0  0  0
   -1.7571    0.2041    0.1077 C   0  0  0  0  0  3  0  0  0  0  0  0
   -1.8176    1.2088    0.8275 N   0  0  0  0  0  0  0  0  0  0  0  0
   -2.1616   -0.2501   -1.9003 H   0  0  0  0  0  0  0  0  0  0  0  0
   -3.1140   -1.1519   -0.7336 H   0  0  0  0  0  0  0  0  0  0  0  0
   -3.5086    0.5572   -1.0558 H   0  0  0  0  0  0  0  0  0  0  0  0
   -1.1183    1.3781    1.5401 H   0  0  0  0  0  0  0  0  0  0  0  0
    3.0216    0.8723   -0.2960 C   0  0  0  0  0  0  0  0  0  0  0  0
    1.6940    0.1854   -0.5832 C   0  0  0  0  0  0  0  0  0  0  0  0
    1.2745   -0.7443    0.5630 C   0  0  0  0  0  0  0  0  0  0  0  0
    0.1063   -1.4353    0.3168 O   0  0  0  0  0  0  0  0  0  0  0  0
    2.9574    1.4624    0.6162 H   0  0  0  0  0  0  0  0  0  0  0  0
    3.2930    1.5344   -1.1148 H   0  0  0  0  0  0  0  0  0  0  0  0
    3.8128    0.1364   -0.1714 H   0  0  0  0  0  0  0  0  0  0  0  0
    0.9127    0.9369   -0.7329 H   0  0  0  0  0  0  0  0  0  0  0  0
    1.7672   -0.4041   -1.4993 H   0  0  0  0  0  0  0  0  0  0  0  0
    1.2055   -0.1615    1.5008 H   0  0  0  0  0  0  0  0  0  0  0  0
    2.0521   -1.5058    0.7128 H   0  0  0  0  0  0  0  0  0  0  0  0
   -0.7759   -0.6935    0.2112 H   0  0  0  0  0  0  0  0  0  0  0  0
  1  2  1  0
  1  4  1  0
  1  5  1  0
  1  6  1  0
  2  3  2  3
  3  7  1  0
  8  9  1  0
  8 12  1  0
  8 13  1  0
  8 14  1  0
  9 10  1  0
  9 15  1  0
  9 16  1  0
 10 11  1  0
 10 17  1  0
 10 18  1  0
 11 19  1  0
M  RAD  1   2   2
M  END
>  <reaction>  (5) 
rmg_rxn_16585

>  <mol_properties>  (5) 
{"1": {"label": "*1", "atom_type": "Cd"}, "2": {"label": "*0", "atom_type": "N3d"}, "9": {"label": "*4", "atom_type": "Cs"}, "10": {"label": "*3", "atom_type": "O2s"}, "18": {"label": "*2", "atom_type": "H0"}}

>  <type>  (5) 
unop_1

>  <geom_source>  (5) 
crest_best.xyz

$$$$

     RDKit          3D

 19 17  0  0  0  0  0  0  0  0999 V2000
   -2.2935    0.8335    1.6900 C   0  0  0  0  0  0  0  0  0  0  0  0
   -1.4659    0.0464    0.7294 C   0  0  0  0  0  3  0  0  0  0  0  0
   -1.9877   -0.6547   -0.1830 N   0  0  0  0  0  0  0  0  0  0  0  0
   -2.0864    0.5157    2.7150 H   0  0  0  0  0  0  0  0  0  0  0  0
   -2.0375    1.8943    1.6276 H   0  0  0  0  0  0  0  0  0  0  0  0
   -3.3522    0.7010    1.4744 H   0  0  0  0  0  0  0  0  0  0  0  0
   -1.2738   -1.1195   -0.7401 H   0  0  0  0  0  0  0  0  0  0  0  0
    1.6820   -0.9767   -1.8868 C   0  0  0  0  0  0  0  0  0  0  0  0
    1.6820   -0.9767   -0.3644 C   0  0  0  0  0  0  0  0  0  0  0  0
    1.6820    0.4213    0.2363 C   0  0  0  0  0  0  0  0  0  0  0  0
    0.5482    1.1861   -0.1268 O   0  0  0  0  0  0  0  0  0  0  0  0
    2.5813   -0.4923   -2.2743 H   0  0  0  0  0  0  0  0  0  0  0  0
    0.8205   -0.4325   -2.2750 H   0  0  0  0  0  0  0  0  0  0  0  0
    1.6513   -1.9929   -2.2824 H   0  0  0  0  0  0  0  0  0  0  0  0
    0.8087   -1.5233    0.0100 H   0  0  0  0  0  0  0  0  0  0  0  0
    2.5595   -1.5101    0.0136 H   0  0  0  0  0  0  0  0  0  0  0  0
    2.5432    0.9843   -0.1304 H   0  0  0  0  0  0  0  0  0  0  0  0
    1.7720    0.3582    1.3281 H   0  0  0  0  0  0  0  0  0  0  0  0
   -0.3907    0.6548    0.2723 H   0  0  0  0  0  0  0  0  0  0  0  0
  1  2  1  0
  1  4  1  0
  1  5  1  0
  1  6  1  0
  2  3  2  3
  3  7  1  0
  8  9  1  0
  8 12  1  0
  8 13  1  0
  8 14  1  0
  9 10  1  0
  9 15  1  0
  9 16  1  0
 10 11  1  0
 10 17  1  0
 10 18  1  0
 11 19  1  0
M  RAD  1   2   2
M  END
>  <reaction>  (6) 
rmg_rxn_16585

>  <mol_properties>  (6) 
{"1": {"label": "*1", "atom_type": "Cd"}, "2": {"label": "*0", "atom_type": "N3d"}, "9": {"label": "*4", "atom_type": "Cs"}, "10": {"label": "*3", "atom_type": "O2s"}, "18": {"label": "*2", "atom_type": "H0"}}

>  <type>  (6) 
unop_2

>  <geom_source>  (6) 
Heuristics

$$$$

     RDKit          3D

 19 17  0  0  0  0  0  0  0  0999 V2000
   -1.3352   -0.6692    1.8609 C   0  0  0  0  0  0  0  0  0  0  0  0
   -1.5252    0.1258    0.6123 C   0  0  0  0  0  3  0  0  0  0  0  0
   -2.6705    0.4829    0.2158 N   0  0  0  0  0  0  0  0  0  0  0  0
   -0.8350   -1.6142    1.6341 H   0  0  0  0  0  0  0  0  0  0  0  0
   -0.6916   -0.1276    2.5588 H   0  0  0  0  0  0  0  0  0  0  0  0
   -2.2959   -0.8695    2.3320 H   0  0  0  0  0  0  0  0  0  0  0  0
   -2.6081    1.0151   -0.6496 H   0  0  0  0  0  0  0  0  0  0  0  0
    1.6227   -0.8973   -2.0040 C   0  0  0  0  0  0  0  0  0  0  0  0
    1.6227   -0.8973   -0.4815 C   0  0  0  0  0  0  0  0  0  0  0  0
    1.6227    0.5007    0.1192 C   0  0  0  0  0  0  0  0  0  0  0  0
    0.4889    1.2654   -0.2439 O   0  0  0  0  0  0  0  0  0  0  0  0
    2.5220   -0.4129   -2.3914 H   0  0  0  0  0  0  0  0  0  0  0  0
    0.7612   -0.3532   -2.3921 H   0  0  0  0  0  0  0  0  0  0  0  0
    1.5919   -1.9135   -2.3996 H   0  0  0  0  0  0  0  0  0  0  0  0
    0.7494   -1.4439   -0.1071 H   0  0  0  0  0  0  0  0  0  0  0  0
    2.5001   -1.4307   -0.1035 H   0  0  0  0  0  0  0  0  0  0  0  0
    2.4838    1.0637   -0.2475 H   0  0  0  0  0  0  0  0  0  0  0  0
    1.7127    0.4375    1.2110 H   0  0  0  0  0  0  0  0  0  0  0  0
   -0.4501    0.7341    0.1552 H   0  0  0  0  0  0  0  0  0  0  0  0
  1  2  1  0
  1  4  1  0
  1  5  1  0
  1  6  1  0
  2  3  2  3
  3  7  1  0
  8  9  1  0
  8 12  1  0
  8 13  1  0
  8 14  1  0
  9 10  1  0
  9 15  1  0
  9 16  1  0
 10 11  1  0
 10 17  1  0
 10 18  1  0
 11 19  1  0
M  RAD  1   2   2
M  END
>  <reaction>  (7) 
rmg_rxn_16585

>  <mol_properties>  (7) 
{"1": {"label": "*1", "atom_type": "Cd"}, "2": {"label": "*0", "atom_type": "N3d"}, "9": {"label": "*4", "atom_type": "Cs"}, "10": {"label": "*3", "atom_type": "O2s"}, "18": {"label": "*2", "atom_type": "H0"}}

>  <type>  (7) 
unop_3

>  <geom_source>  (7) 
Heuristics

$$$$

     RDKit          3D

 19 17  0  0  0  0  0  0  0  0999 V2000
   -2.6151    0.9900    1.0992 C   0  0  0  0  0  0  0  0  0  0  0  0
   -1.4694    0.0999    0.7496 C   0  0  0  0  0  3  0  0  0  0  0  0
   -1.6439   -1.0747    0.3179 N   0  0  0  0  0  0  0  0  0  0  0  0
   -2.5509    1.2938    2.1471 H   0  0  0  0  0  0  0  0  0  0  0  0
   -2.5797    1.9035    0.5001 H   0  0  0  0  0  0  0  0  0  0  0  0
   -3.5595    0.4772    0.9258 H   0  0  0  0  0  0  0  0  0  0  0  0
   -0.7536   -1.5321    0.1330 H   0  0  0  0  0  0  0  0  0  0  0  0
    1.6785   -0.9232   -1.8666 C   0  0  0  0  0  0  0  0  0  0  0  0
    1.6785   -0.9232   -0.3441 C   0  0  0  0  0  0  0  0  0  0  0  0
    1.6785    0.4748    0.2566 C   0  0  0  0  0  0  0  0  0  0  0  0
    0.5447    1.2395   -0.1066 O   0  0  0  0  0  0  0  0  0  0  0  0
    2.5778   -0.4389   -2.2541 H   0  0  0  0  0  0  0  0  0  0  0  0
    0.8170   -0.3791   -2.2548 H   0  0  0  0  0  0  0  0  0  0  0  0
    1.6477   -1.9394   -2.2622 H   0  0  0  0  0  0  0  0  0  0  0  0
    0.8052   -1.4699    0.0302 H   0  0  0  0  0  0  0  0  0  0  0  0
    2.5559   -1.4567    0.0338 H   0  0  0  0  0  0  0  0  0  0  0  0
    2.5396    1.0378   -0.1102 H   0  0  0  0  0  0  0  0  0  0  0  0
    1.7685    0.4116    1.3483 H   0  0  0  0  0  0  0  0  0  0  0  0
   -0.3943    0.7082    0.2926 H   0  0  0  0  0  0  0  0  0  0  0  0
  1  2  1  0
  1  4  1  0
  1  5  1  0
  1  6  1  0
  2  3  2  3
  3  7  1  0
  8  9  1  0
  8 12  1  0
  8 13  1  0
  8 14  1  0
  9 10  1  0
  9 15  1  0
  9 16  1  0
 10 11  1  0
 10 17  1  0
 10 18  1  0
 11 19  1  0
M  RAD  1   2   2
M  END
>  <reaction>  (8) 
rmg_rxn_16585

>  <mol_properties>  (8) 
{"1": {"label": "*1", "atom_type": "Cd"}, "2": {"label": "*0", "atom_type": "N3d"}, "9": {"label": "*4", "atom_type": "Cs"}, "10": {"label": "*3", "atom_type": "O2s"}, "18": {"label": "*2", "atom_type": "H0"}}

>  <type>  (8) 
unop_4

>  <geom_source>  (8) 
Heuristics

$$$$

     RDKit          3D

 19 17  0  0  0  0  0  0  0  0999 V2000
   -1.7169   -1.2300    0.2574 C   0  0  0  0  0  0  0  0  0  0  0  0
   -1.4910    0.1532    0.7701 C   0  0  0  0  0  3  0  0  0  0  0  0
   -2.4500    0.9182    1.0724 N   0  0  0  0  0  0  0  0  0  0  0  0
   -1.2645   -1.3447   -0.7310 H   0  0  0  0  0  0  0  0  0  0  0  0
   -1.2361   -1.9592    0.9143 H   0  0  0  0  0  0  0  0  0  0  0  0
   -2.7830   -1.4418    0.1966 H   0  0  0  0  0  0  0  0  0  0  0  0
   -2.1091    1.8186    1.4028 H   0  0  0  0  0  0  0  0  0  0  0  0
    1.6569   -0.8699   -1.8461 C   0  0  0  0  0  0  0  0  0  0  0  0
    1.6569   -0.8699   -0.3237 C   0  0  0  0  0  0  0  0  0  0  0  0
    1.6569    0.5281    0.2770 C   0  0  0  0  0  0  0  0  0  0  0  0
    0.5231    1.2928   -0.0861 O   0  0  0  0  0  0  0  0  0  0  0  0
    2.5562   -0.3855   -2.2336 H   0  0  0  0  0  0  0  0  0  0  0  0
    0.7954   -0.3258   -2.2343 H   0  0  0  0  0  0  0  0  0  0  0  0
    1.6261   -1.8861   -2.2417 H   0  0  0  0  0  0  0  0  0  0  0  0
    0.7836   -1.4165    0.0507 H   0  0  0  0  0  0  0  0  0  0  0  0
    2.5343   -1.4033    0.0543 H   0  0  0  0  0  0  0  0  0  0  0  0
    2.5180    1.0911   -0.0897 H   0  0  0  0  0  0  0  0  0  0  0  0
    1.7469    0.4649    1.3688 H   0  0  0  0  0  0  0  0  0  0  0  0
   -0.4159    0.7615    0.3130 H   0  0  0  0  0  0  0  0  0  0  0  0
  1  2  1  0
  1  4  1  0
  1  5  1  0
  1  6  1  0
  2  3  2  3
  3  7  1  0
  8  9  1  0
  8 12  1  0
  8 13  1  0
  8 14  1  0
  9 10  1  0
  9 15  1  0
  9 16  1  0
 10 11  1  0
 10 17  1  0
 10 18  1  0
 11 19  1  0
M  RAD  1   2   2
M  END
>  <reaction>  (9) 
rmg_rxn_16585

>  <mol_properties>  (9) 
{"1": {"label": "*1", "atom_type": "Cd"}, "2": {"label": "*0", "atom_type": "N3d"}, "9": {"label": "*4", "atom_type": "Cs"}, "10": {"label": "*3", "atom_type": "O2s"}, "18": {"label": "*2", "atom_type": "H0"}}

>  <type>  (9) 
unop_5

>  <geom_source>  (9) 
Heuristics

$$$$

     RDKit          3D

 19 17  0  0  0  0  0  0  0  0999 V2000
   -2.7785    0.7932    0.3930 C   0  0  0  0  0  0  0  0  0  0  0  0
   -1.4806    0.1184    0.6882 C   0  0  0  0  0  3  0  0  0  0  0  0
   -1.4235   -0.9656    1.3348 N   0  0  0  0  0  0  0  0  0  0  0  0
   -2.7841    1.8015    0.8150 H   0  0  0  0  0  0  0  0  0  0  0  0
   -2.9118    0.8991   -0.6866 H   0  0  0  0  0  0  0  0  0  0  0  0
   -3.6060    0.2203    0.8077 H   0  0  0  0  0  0  0  0  0  0  0  0
   -0.4605   -1.2778    1.4405 H   0  0  0  0  0  0  0  0  0  0  0  0
    1.6673   -0.9047   -1.9280 C   0  0  0  0  0  0  0  0  0  0  0  0
    1.6673   -0.9047   -0.4056 C   0  0  0  0  0  0  0  0  0  0  0  0
    1.6673    0.4933    0.1951 C   0  0  0  0  0  0  0  0  0  0  0  0
    0.5335    1.2580   -0.1680 O   0  0  0  0  0  0  0  0  0  0  0  0
    2.5666   -0.4203   -2.3155 H   0  0  0  0  0  0  0  0  0  0  0  0
    0.8058   -0.3605   -2.3162 H   0  0  0  0  0  0  0  0  0  0  0  0
    1.6366   -1.9209   -2.3236 H   0  0  0  0  0  0  0  0  0  0  0  0
    0.7940   -1.4513   -0.0312 H   0  0  0  0  0  0  0  0  0  0  0  0
    2.5448   -1.4381   -0.0276 H   0  0  0  0  0  0  0  0  0  0  0  0
    2.5285    1.0563   -0.1716 H   0  0  0  0  0  0  0  0  0  0  0  0
    1.7573    0.4302    1.2869 H   0  0  0  0  0  0  0  0  0  0  0  0
   -0.4054    0.7268    0.2312 H   0  0  0  0  0  0  0  0  0  0  0  0
  1  2  1  0
  1  4  1  0
  1  5  1  0
  1  6  1  0
  2  3  2  3
  3  7  1  0
  8  9  1  0
  8 12  1  0
  8 13  1  0
  8 14  1  0
  9 10  1  0
  9 15  1  0
  9 16  1  0
 10 11  1  0
 10 17  1  0
 10 18  1  0
 11 19  1  0
M  RAD  1   2   2
M  END
>  <reaction>  (10) 
rmg_rxn_16585

>  <mol_properties>  (10) 
{"1": {"label": "*1", "atom_type": "Cd"}, "2": {"label": "*0", "atom_type": "N3d"}, "9": {"label": "*4", "atom_type": "Cs"}, "10": {"label": "*3", "atom_type": "O2s"}, "18": {"label": "*2", "atom_type": "H0"}}

>  <type>  (10) 
unop_6

>  <geom_source>  (10) 
Heuristics

$$$$

     RDKit          3D

 19 17  0  0  0  0  0  0  0  0999 V2000
   -2.0953   -0.8966   -0.1542 C   0  0  0  0  0  0  0  0  0  0  0  0
   -1.4707    0.0927    0.7721 C   0  0  0  0  0  3  0  0  0  0  0  0
   -2.1653    0.8754    1.4801 N   0  0  0  0  0  0  0  0  0  0  0  0
   -1.7585   -0.7192   -1.1788 H   0  0  0  0  0  0  0  0  0  0  0  0
   -1.7855   -1.9105    0.1117 H   0  0  0  0  0  0  0  0  0  0  0  0
   -3.1805   -0.8240   -0.1100 H   0  0  0  0  0  0  0  0  0  0  0  0
   -1.5727    1.4773    2.0482 H   0  0  0  0  0  0  0  0  0  0  0  0
    1.6772   -0.9304   -1.8441 C   0  0  0  0  0  0  0  0  0  0  0  0
    1.6772   -0.9304   -0.3216 C   0  0  0  0  0  0  0  0  0  0  0  0
    1.6772    0.4676    0.2791 C   0  0  0  0  0  0  0  0  0  0  0  0
    0.5434    1.2323   -0.0840 O   0  0  0  0  0  0  0  0  0  0  0  0
    2.5765   -0.4460   -2.2316 H   0  0  0  0  0  0  0  0  0  0  0  0
    0.8157   -0.3863   -2.2323 H   0  0  0  0  0  0  0  0  0  0  0  0
    1.6464   -1.9466   -2.2397 H   0  0  0  0  0  0  0  0  0  0  0  0
    0.8039   -1.4770    0.0527 H   0  0  0  0  0  0  0  0  0  0  0  0
    2.5546   -1.4638    0.0564 H   0  0  0  0  0  0  0  0  0  0  0  0
    2.5384    1.0306   -0.0877 H   0  0  0  0  0  0  0  0  0  0  0  0
    1.7672    0.4044    1.3709 H   0  0  0  0  0  0  0  0  0  0  0  0
   -0.3956    0.7010    0.3151 H   0  0  0  0  0  0  0  0  0  0  0  0
  1  2  1  0
  1  4  1  0
  1  5  1  0
  1  6  1  0
  2  3  2  3
  3  7  1  0
  8  9  1  0
  8 12  1  0
  8 13  1  0
  8 14  1  0
  9 10  1  0
  9 15  1  0
  9 16  1  0
 10 11  1  0
 10 17  1  0
 10 18  1  0
 11 19  1  0
M  RAD  1   2   2
M  END
>  <reaction>  (11) 
rmg_rxn_16585

>  <mol_properties>  (11) 
{"1": {"label": "*1", "atom_type": "Cd"}, "2": {"label": "*0", "atom_type": "N3d"}, "9": {"label": "*4", "atom_type": "Cs"}, "10": {"label": "*3", "atom_type": "O2s"}, "18": {"label": "*2", "atom_type": "H0"}}

>  <type>  (11) 
unop_7

>  <geom_source>  (11) 
Heuristics

$$$$

     RDKit          3D

 19 17  0  0  0  0  0  0  0  0999 V2000
   -2.4628   -0.3631   -0.3012 C   0  0  0  0  0  0  0  0  0  0  0  0
   -1.4658    0.0471    0.7306 C   0  0  0  0  0  3  0  0  0  0  0  0
   -1.8162    0.5564    1.8324 N   0  0  0  0  0  0  0  0  0  0  0  0
   -2.2811    0.1734   -1.2360 H   0  0  0  0  0  0  0  0  0  0  0  0
   -2.3617   -1.4290   -0.5210 H   0  0  0  0  0  0  0  0  0  0  0  0
   -3.4737   -0.1573    0.0462 H   0  0  0  0  0  0  0  0  0  0  0  0
   -1.0059    0.7730    2.4091 H   0  0  0  0  0  0  0  0  0  0  0  0
    1.6821   -0.9759   -1.8857 C   0  0  0  0  0  0  0  0  0  0  0  0
    1.6821   -0.9759   -0.3632 C   0  0  0  0  0  0  0  0  0  0  0  0
    1.6821    0.4220    0.2375 C   0  0  0  0  0  0  0  0  0  0  0  0
    0.5483    1.1868   -0.1256 O   0  0  0  0  0  0  0  0  0  0  0  0
    2.5814   -0.4916   -2.2731 H   0  0  0  0  0  0  0  0  0  0  0  0
    0.8206   -0.4318   -2.2738 H   0  0  0  0  0  0  0  0  0  0  0  0
    1.6514   -1.9921   -2.2812 H   0  0  0  0  0  0  0  0  0  0  0  0
    0.8088   -1.5226    0.0112 H   0  0  0  0  0  0  0  0  0  0  0  0
    2.5596   -1.5094    0.0148 H   0  0  0  0  0  0  0  0  0  0  0  0
    2.5433    0.9850   -0.1292 H   0  0  0  0  0  0  0  0  0  0  0  0
    1.7721    0.3589    1.3293 H   0  0  0  0  0  0  0  0  0  0  0  0
   -0.3906    0.6555    0.2735 H   0  0  0  0  0  0  0  0  0  0  0  0
  1  2  1  0
  1  4  1  0
  1  5  1  0
  1  6  1  0
  2  3  2  3
  3  7  1  0
  8  9  1  0
  8 12  1  0
  8 13  1  0
  8 14  1  0
  9 10  1  0
  9 15  1  0
  9 16  1  0
 10 11  1  0
 10 17  1  0
 10 18  1  0
 11 19  1  0
M  RAD  1   2   2
M  END
>  <reaction>  (12) 
rmg_rxn_16585

>  <mol_properties>  (12) 
{"1": {"label": "*1", "atom_type": "Cd"}, "2": {"label": "*0", "atom_type": "N3d"}, "9": {"label": "*4", "atom_type": "Cs"}, "10": {"label": "*3", "atom_type": "O2s"}, "18": {"label": "*2", "atom_type": "H0"}}

>  <type>  (12) 
unop_8

>  <geom_source>  (12) 
Heuristics

$$$$

     RDKit          3D

 19 17  0  0  0  0  0  0  0  0999 V2000
   -1.9082    0.4250    2.0450 C   0  0  0  0  0  0  0  0  0  0  0  0
   -1.4793    0.0318    0.6708 C   0  0  0  0  0  3  0  0  0  0  0  0
   -2.3130   -0.1686   -0.2572 N   0  0  0  0  0  0  0  0  0  0  0  0
   -1.5591   -0.3104    2.7743 H   0  0  0  0  0  0  0  0  0  0  0  0
   -1.4608    1.3835    2.3202 H   0  0  0  0  0  0  0  0  0  0  0  0
   -2.9929    0.5015    2.0957 H   0  0  0  0  0  0  0  0  0  0  0  0
   -1.8423   -0.4276   -1.1217 H   0  0  0  0  0  0  0  0  0  0  0  0
    1.6686   -0.9913   -1.9454 C   0  0  0  0  0  0  0  0  0  0  0  0
    1.6686   -0.9913   -0.4230 C   0  0  0  0  0  0  0  0  0  0  0  0
    1.6686    0.4067    0.1778 C   0  0  0  0  0  0  0  0  0  0  0  0
    0.5348    1.1714   -0.1854 O   0  0  0  0  0  0  0  0  0  0  0  0
    2.5678   -0.5069   -2.3329 H   0  0  0  0  0  0  0  0  0  0  0  0
    0.8071   -0.4472   -2.3336 H   0  0  0  0  0  0  0  0  0  0  0  0
    1.6378   -2.0075   -2.3410 H   0  0  0  0  0  0  0  0  0  0  0  0
    0.7953   -1.5379   -0.0486 H   0  0  0  0  0  0  0  0  0  0  0  0
    2.5460   -1.5247   -0.0450 H   0  0  0  0  0  0  0  0  0  0  0  0
    2.5297    0.9697   -0.1890 H   0  0  0  0  0  0  0  0  0  0  0  0
    1.7586    0.3435    1.2695 H   0  0  0  0  0  0  0  0  0  0  0  0
   -0.4042    0.6401    0.2138 H   0  0  0  0  0  0  0  0  0  0  0  0
  1  2  1  0
  1  4  1  0
  1  5  1  0
  1  6  1  0
  2  3  2  3
  3  7  1  0
  8  9  1  0
  8 12  1  0
  8 13  1  0
  8 14  1  0
  9 10  1  0
  9 15  1  0
  9 16  1  0
 10 11  1  0
 10 17  1  0
 10 18  1  0
 11 19  1  0
M  RAD  1   2   2
M  END
>  <reaction>  (13) 
rmg_rxn_16585

>  <mol_properties>  (13) 
{"1": {"label": "*1", "atom_type": "Cd"}, "2": {"label": "*0", "atom_type": "N3d"}, "9": {"label": "*4", "atom_type": "Cs"}, "10": {"label": "*3", "atom_type": "O2s"}, "18": {"label": "*2", "atom_type": "H0"}}

>  <type>  (13) 
unop_9

>  <geom_source>  (13) 
Heuristics

$$$$

     RDKit          3D

 19 17  0  0  0  0  0  0  0  0999 V2000
   -2.7015   -0.1695   -0.9581 C   0  0  0  0  0  0  0  0  0  0  0  0
   -1.7571    0.2041    0.1077 C   0  0  0  0  0  3  0  0  0  0  0  0
   -1.8176    1.2088    0.8275 N   0  0  0  0  0  0  0  0  0  0  0  0
   -2.1616   -0.2501   -1.9003 H   0  0  0  0  0  0  0  0  0  0  0  0
   -3.1140   -1.1519   -0.7336 H   0  0  0  0  0  0  0  0  0  0  0  0
   -3.5086    0.5572   -1.0558 H   0  0  0  0  0  0  0  0  0  0  0  0
   -1.1183    1.3781    1.5401 H   0  0  0  0  0  0  0  0  0  0  0  0
    3.0216    0.8723   -0.2960 C   0  0  0  0  0  0  0  0  0  0  0  0
    1.6940    0.1854   -0.5832 C   0  0  0  0  0  0  0  0  0  0  0  0
    1.2745   -0.7443    0.5630 C   0  0  0  0  0  0  0  0  0  0  0  0
    0.1063   -1.4353    0.3168 O   0  0  0  0  0  0  0  0  0  0  0  0
    2.9574    1.4624    0.6162 H   0  0  0  0  0  0  0  0  0  0  0  0
    3.2930    1.5344   -1.1148 H   0  0  0  0  0  0  0  0  0  0  0  0
    3.8128    0.1364   -0.1714 H   0  0  0  0  0  0  0  0  0  0  0  0
    0.9127    0.9369   -0.7329 H   0  0  0  0  0  0  0  0  0  0  0  0
    1.7672   -0.4041   -1.4993 H   0  0  0  0  0  0  0  0  0  0  0  0
    1.2055   -0.1615    1.5008 H   0  0  0  0  0  0  0  0  0  0  0  0
    2.0521   -1.5058    0.7128 H   0  0  0  0  0  0  0  0  0  0  0  0
   -0.7759   -0.6935    0.2112 H   0  0  0  0  0  0  0  0  0  0  0  0
  1  2  1  0
  1  4  1  0
  1  5  1  0
  1  6  1  0
  2  3  2  3
  3  7  1  0
  8  9  1  0
  8 12  1  0
  8 13  1  0
  8 14  1  0
  9 10  1  0
  9 15  1  0
  9 16  1  0
 10 11  1  0
 10 17  1  0
 10 18  1  0
 11 19  1  0
M  RAD  1   2   2
M  END
>  <reaction>  (14) 
rmg_rxn_16585

>  <mol_properties>  (14) 
{"1": {"label": "*1", "atom_type": "Cd"}, "2": {"label": "*0", "atom_type": "N3d"}, "9": {"label": "*4", "atom_type": "Cs"}, "10": {"label": "*3", "atom_type": "O2s"}, "18": {"label": "*2", "atom_type": "H0"}}

>  <type>  (14) 
unop_10

>  <geom_source>  (14) 
Heuristics

$$$$

     RDKit          3D

 19 17  0  0  0  0  0  0  0  0999 V2000
   -1.4237   -1.2943    0.8206 C   0  0  0  0  0  0  0  0  0  0  0  0
   -1.5158    0.1919    0.7223 C   0  0  0  0  0  3  0  0  0  0  0  0
   -2.6264    0.7943    0.7340 N   0  0  0  0  0  0  0  0  0  0  0  0
   -0.9141   -1.6997   -0.0572 H   0  0  0  0  0  0  0  0  0  0  0  0
   -0.8300   -1.5788    1.6931 H   0  0  0  0  0  0  0  0  0  0  0  0
   -2.4178   -1.7309    0.8986 H   0  0  0  0  0  0  0  0  0  0  0  0
   -2.4969    1.8010    0.6582 H   0  0  0  0  0  0  0  0  0  0  0  0
    1.6321   -0.8312   -1.8939 C   0  0  0  0  0  0  0  0  0  0  0  0
    1.6321   -0.8312   -0.3715 C   0  0  0  0  0  0  0  0  0  0  0  0
    1.6321    0.5668    0.2293 C   0  0  0  0  0  0  0  0  0  0  0  0
    0.4983    1.3315   -0.1339 O   0  0  0  0  0  0  0  0  0  0  0  0
    2.5313   -0.3468   -2.2814 H   0  0  0  0  0  0  0  0  0  0  0  0
    0.7705   -0.2870   -2.2821 H   0  0  0  0  0  0  0  0  0  0  0  0
    1.6013   -1.8474   -2.2895 H   0  0  0  0  0  0  0  0  0  0  0  0
    0.7588   -1.3778    0.0029 H   0  0  0  0  0  0  0  0  0  0  0  0
    2.5095   -1.3646    0.0065 H   0  0  0  0  0  0  0  0  0  0  0  0
    2.4932    1.1298   -0.1375 H   0  0  0  0  0  0  0  0  0  0  0  0
    1.7221    0.5037    1.3210 H   0  0  0  0  0  0  0  0  0  0  0  0
   -0.4407    0.8003    0.2653 H   0  0  0  0  0  0  0  0  0  0  0  0
  1  2  1  0
  1  4  1  0
  1  5  1  0
  1  6  1  0
  2  3  2  3
  3  7  1  0
  8  9  1  0
  8 12  1  0
  8 13  1  0
  8 14  1  0
  9 10  1  0
  9 15  1  0
  9 16  1  0
 10 11  1  0
 10 17  1  0
 10 18  1  0
 11 19  1  0
M  RAD  1   2   2
M  END
>  <reaction>  (15) 
rmg_rxn_16585

>  <mol_properties>  (15) 
{"1": {"label": "*1", "atom_type": "Cd"}, "2": {"label": "*0", "atom_type": "N3d"}, "9": {"label": "*4", "atom_type": "Cs"}, "10": {"label": "*3", "atom_type": "O2s"}, "18": {"label": "*2", "atom_type": "H0"}}

>  <type>  (15) 
unop_11

>  <geom_source>  (15) 
Heuristics

$$$$

     RDKit          3D

 19 17  0  0  0  0  0  0  0  0999 V2000
   -1.5601   -0.1222    2.1008 C   0  0  0  0  0  0  0  0  0  0  0  0
   -1.5037    0.0637    0.6211 C   0  0  0  0  0  3  0  0  0  0  0  0
   -2.5473    0.2310   -0.0711 N   0  0  0  0  0  0  0  0  0  0  0  0
   -1.1115   -1.0794    2.3783 H   0  0  0  0  0  0  0  0  0  0  0  0
   -0.9810    0.6579    2.6015 H   0  0  0  0  0  0  0  0  0  0  0  0
   -2.5915   -0.0892    2.4474 H   0  0  0  0  0  0  0  0  0  0  0  0
   -2.3184    0.3405   -1.0568 H   0  0  0  0  0  0  0  0  0  0  0  0
    1.6442   -0.9594   -1.9951 C   0  0  0  0  0  0  0  0  0  0  0  0
    1.6442   -0.9594   -0.4726 C   0  0  0  0  0  0  0  0  0  0  0  0
    1.6442    0.4386    0.1281 C   0  0  0  0  0  0  0  0  0  0  0  0
    0.5104    1.2033   -0.2350 O   0  0  0  0  0  0  0  0  0  0  0  0
    2.5435   -0.4750   -2.3826 H   0  0  0  0  0  0  0  0  0  0  0  0
    0.7827   -0.4153   -2.3833 H   0  0  0  0  0  0  0  0  0  0  0  0
    1.6135   -1.9756   -2.3907 H   0  0  0  0  0  0  0  0  0  0  0  0
    0.7709   -1.5060   -0.0983 H   0  0  0  0  0  0  0  0  0  0  0  0
    2.5216   -1.4929   -0.0946 H   0  0  0  0  0  0  0  0  0  0  0  0
    2.5054    1.0016   -0.2387 H   0  0  0  0  0  0  0  0  0  0  0  0
    1.7342    0.3754    1.2198 H   0  0  0  0  0  0  0  0  0  0  0  0
   -0.4285    0.6720    0.1641 H   0  0  0  0  0  0  0  0  0  0  0  0
  1  2  1  0
  1  4  1  0
  1  5  1  0
  1  6  1  0
  2  3  2  3
  3  7  1  0
  8  9  1  0
  8 12  1  0
  8 13  1  0
  8 14  1  0
  9 10  1  0
  9 15  1  0
  9 16  1  0
 10 11  1  0
 10 17  1  0
 10 18  1  0
 11 19  1  0
M  RAD  1   2   2
M  END
>  <reaction>  (16) 
rmg_rxn_16585

>  <mol_properties>  (16) 
{"1": {"label": "*1", "atom_type": "Cd"}, "2": {"label": "*0", "atom_type": "N3d"}, "9": {"label": "*4", "atom_type": "Cs"}, "10": {"label": "*3", "atom_type": "O2s"}, "18": {"label": "*2", "atom_type": "H0"}}

>  <type>  (16) 
unop_12

>  <geom_source>  (16) 
Heuristics

$$$$

     RDKit          3D

 19 17  0  0  0  0  0  0  0  0999 V2000
   -2.7193    0.2537   -0.1260 C   0  0  0  0  0  0  0  0  0  0  0  0
   -1.4758    0.0549    0.6747 C   0  0  0  0  0  3  0  0  0  0  0  0
   -1.5070   -0.1074    1.9273 N   0  0  0  0  0  0  0  0  0  0  0  0
   -2.6781    1.2086   -0.6563 H   0  0  0  0  0  0  0  0  0  0  0  0
   -2.8088   -0.5281   -0.8846 H   0  0  0  0  0  0  0  0  0  0  0  0
   -3.5939    0.2344    0.5218 H   0  0  0  0  0  0  0  0  0  0  0  0
   -0.5690   -0.2275    2.3038 H   0  0  0  0  0  0  0  0  0  0  0  0
    1.6721   -0.9682   -1.9415 C   0  0  0  0  0  0  0  0  0  0  0  0
    1.6721   -0.9682   -0.4190 C   0  0  0  0  0  0  0  0  0  0  0  0
    1.6721    0.4298    0.1817 C   0  0  0  0  0  0  0  0  0  0  0  0
    0.5383    1.1945   -0.1814 O   0  0  0  0  0  0  0  0  0  0  0  0
    2.5714   -0.4839   -2.3290 H   0  0  0  0  0  0  0  0  0  0  0  0
    0.8106   -0.4241   -2.3297 H   0  0  0  0  0  0  0  0  0  0  0  0
    1.6414   -1.9844   -2.3371 H   0  0  0  0  0  0  0  0  0  0  0  0
    0.7988   -1.5149   -0.0447 H   0  0  0  0  0  0  0  0  0  0  0  0
    2.5496   -1.5017   -0.0410 H   0  0  0  0  0  0  0  0  0  0  0  0
    2.5333    0.9928   -0.1851 H   0  0  0  0  0  0  0  0  0  0  0  0
    1.7621    0.3666    1.2735 H   0  0  0  0  0  0  0  0  0  0  0  0
   -0.4006    0.6632    0.2177 H   0  0  0  0  0  0  0  0  0  0  0  0
  1  2  1  0
  1  4  1  0
  1  5  1  0
  1  6  1  0
  2  3  2  3
  3  7  1  0
  8  9  1  0
  8 12  1  0
  8 13  1  0
  8 14  1  0
  9 10  1  0
  9 15  1  0
  9 16  1  0
 10 11  1  0
 10 17  1  0
 10 18  1  0
 11 19  1  0
M  RAD  1   2   2
M  END
>  <reaction>  (17) 
rmg_rxn_16585

>  <mol_properties>  (17) 
{"1": {"label": "*1", "atom_type": "Cd"}, "2": {"label": "*0", "atom_type": "N3d"}, "9": {"label": "*4", "atom_type": "Cs"}, "10": {"label": "*3", "atom_type": "O2s"}, "18": {"label": "*2", "atom_type": "H0"}}

>  <type>  (17) 
unop_13

>  <geom_source>  (17) 
Heuristics

$$$$

     RDKit          3D

 19 17  0  0  0  0  0  0  0  0999 V2000
   -1.2860   -1.0897    1.3976 C   0  0  0  0  0  0  0  0  0  0  0  0
   -1.5304    0.1813    0.6547 C   0  0  0  0  0  3  0  0  0  0  0  0
   -2.6950    0.6386    0.4789 N   0  0  0  0  0  0  0  0  0  0  0  0
   -0.7667   -1.8073    0.7573 H   0  0  0  0  0  0  0  0  0  0  0  0
   -0.6389   -0.9049    2.2589 H   0  0  0  0  0  0  0  0  0  0  0  0
   -2.2281   -1.5180    1.7352 H   0  0  0  0  0  0  0  0  0  0  0  0
   -2.6700    1.5099   -0.0468 H   0  0  0  0  0  0  0  0  0  0  0  0
    1.6175   -0.8418   -1.9616 C   0  0  0  0  0  0  0  0  0  0  0  0
    1.6175   -0.8418   -0.4391 C   0  0  0  0  0  0  0  0  0  0  0  0
    1.6175    0.5562    0.1616 C   0  0  0  0  0  0  0  0  0  0  0  0
    0.4837    1.3209   -0.2015 O   0  0  0  0  0  0  0  0  0  0  0  0
    2.5168   -0.3575   -2.3491 H   0  0  0  0  0  0  0  0  0  0  0  0
    0.7560   -0.2977   -2.3498 H   0  0  0  0  0  0  0  0  0  0  0  0
    1.5867   -1.8580   -2.3572 H   0  0  0  0  0  0  0  0  0  0  0  0
    0.7442   -1.3884   -0.0648 H   0  0  0  0  0  0  0  0  0  0  0  0
    2.4949   -1.3753   -0.0611 H   0  0  0  0  0  0  0  0  0  0  0  0
    2.4786    1.1192   -0.2051 H   0  0  0  0  0  0  0  0  0  0  0  0
    1.7075    0.4930    1.2534 H   0  0  0  0  0  0  0  0  0  0  0  0
   -0.4553    0.7896    0.1976 H   0  0  0  0  0  0  0  0  0  0  0  0
  1  2  1  0
  1  4  1  0
  1  5  1  0
  1  6  1  0
  2  3  2  3
  3  7  1  0
  8  9  1  0
  8 12  1  0
  8 13  1  0
  8 14  1  0
  9 10  1  0
  9 15  1  0
  9 16  1  0
 10 11  1  0
 10 17  1  0
 10 18  1  0
 11 19  1  0
M  RAD  1   2   2
M  END
>  <reaction>  (18) 
rmg_rxn_16585

>  <mol_properties>  (18) 
{"1": {"label": "*1", "atom_type": "Cd"}, "2": {"label": "*0", "atom_type": "N3d"}, "9": {"label": "*4", "atom_type": "Cs"}, "10": {"label": "*3", "atom_type": "O2s"}, "18": {"label": "*2", "atom_type": "H0"}}

>  <type>  (18) 
unop_14

>  <geom_source>  (18) 
Heuristics

$$$$

     RDKit          3D

 19 17  0  0  0  0  0  0  0  0999 V2000
    0.1771   -0.3147   -1.1844 O   0  0  0  0  0  1  0  0  0  0  0  0
    2.8030    1.4077   -0.9278 N   0  0  0  0  0  0  0  0  0  0  0  0
   -1.8662    0.4215   -0.1849 C   0  0  0  0  0  0  0  0  0  0  0  0
   -0.9117   -0.7461   -0.4261 C   0  0  0  0  0  0  0  0  0  0  0  0
   -3.0723   -0.0121    0.6430 C   0  0  0  0  0  0  0  0  0  0  0  0
    3.0843   -0.4391    0.5913 C   0  0  0  0  0  0  0  0  0  0  0  0
    2.2600    0.4317   -0.2982 C   0  0  0  0  0  0  0  0  0  0  0  0
   -1.3294    1.2336    0.3520 H   0  0  0  0  0  0  0  0  0  0  0  0
   -2.2191    0.8189   -1.1614 H   0  0  0  0  0  0  0  0  0  0  0  0
   -0.5412   -1.1435    0.5429 H   0  0  0  0  0  0  0  0  0  0  0  0
   -1.4334   -1.5593   -0.9746 H   0  0  0  0  0  0  0  0  0  0  0  0
   -3.6377   -0.8085    0.1136 H   0  0  0  0  0  0  0  0  0  0  0  0
   -3.7460    0.8563    0.8011 H   0  0  0  0  0  0  0  0  0  0  0  0
   -2.7438   -0.3919    1.6339 H   0  0  0  0  0  0  0  0  0  0  0  0
    3.5380    0.1710    1.4003 H   0  0  0  0  0  0  0  0  0  0  0  0
    3.8882   -0.9268    0.0008 H   0  0  0  0  0  0  0  0  0  0  0  0
    2.4421   -1.2224    1.0449 H   0  0  0  0  0  0  0  0  0  0  0  0
    1.0710    0.2132   -0.4243 H   0  0  0  0  0  0  0  0  0  0  0  0
    2.2371    2.0103   -1.5421 H   0  0  0  0  0  0  0  0  0  0  0  0
  1  4  1  0
  2  7  2  3
  2 19  1  0
  3  5  1  0
  3  4  1  0
  3  8  1  0
  3  9  1  0
  4 10  1  0
  4 11  1  0
  5 12  1  0
  5 13  1  0
  5 14  1  0
  6  7  1  0
  6 15  1  0
  6 16  1  0
  6 17  1  0
  7 18  1  0
M  RAD  1   1   2
M  END
>  <reaction>  (19) 
rmg_rxn_16585

>  <mol_properties>  (19) 
{"1": {"label": "*1", "atom_type": "Cd"}, "2": {"label": "*0", "atom_type": "N3d"}, "9": {"label": "*4", "atom_type": "Cs"}, "10": {"label": "*3", "atom_type": "O2s"}, "18": {"label": "*2", "atom_type": "H0"}}

>  <type>  (19) 
unop_15

>  <geom_source>  (19) 
AutoTST

$$$$

     RDKit          3D

 19 17  0  0  0  0  0  0  0  0999 V2000
   -1.3352   -0.6692    1.8608 C   0  0  0  0  0  0  0  0  0  0  0  0
   -1.5252    0.1258    0.6123 C   0  0  0  0  0  3  0  0  0  0  0  0
   -2.6705    0.4829    0.2158 N   0  0  0  0  0  0  0  0  0  0  0  0
   -0.8350   -1.6142    1.6341 H   0  0  0  0  0  0  0  0  0  0  0  0
   -0.6916   -0.1276    2.5588 H   0  0  0  0  0  0  0  0  0  0  0  0
   -2.2959   -0.8695    2.3320 H   0  0  0  0  0  0  0  0  0  0  0  0
   -2.6082    1.0151   -0.6496 H   0  0  0  0  0  0  0  0  0  0  0  0
    1.6227   -0.8973   -2.0040 C   0  0  0  0  0  0  0  0  0  0  0  0
    1.6227   -0.8973   -0.4815 C   0  0  0  0  0  0  0  0  0  0  0  0
    1.6227    0.5007    0.1192 C   0  0  0  0  0  0  0  0  0  0  0  0
    0.4889    1.2654   -0.2439 O   0  0  0  0  0  0  0  0  0  0  0  0
    2.5220   -0.4129   -2.3914 H   0  0  0  0  0  0  0  0  0  0  0  0
    0.7612   -0.3532   -2.3921 H   0  0  0  0  0  0  0  0  0  0  0  0
    1.5919   -1.9135   -2.3996 H   0  0  0  0  0  0  0  0  0  0  0  0
    0.7494   -1.4439   -0.1071 H   0  0  0  0  0  0  0  0  0  0  0  0
    2.5001   -1.4307   -0.1035 H   0  0  0  0  0  0  0  0  0  0  0  0
    2.4838    1.0637   -0.2475 H   0  0  0  0  0  0  0  0  0  0  0  0
    1.7127    0.4375    1.2110 H   0  0  0  0  0  0  0  0  0  0  0  0
   -0.4501    0.7341    0.1552 H   0  0  0  0  0  0  0  0  0  0  0  0
  1  2  1  0
  1  4  1  0
  1  5  1  0
  1  6  1  0
  2  3  2  3
  3  7  1  0
  8  9  1  0
  8 12  1  0
  8 13  1  0
  8 14  1  0
  9 10  1  0
  9 15  1  0
  9 16  1  0
 10 11  1  0
 10 17  1  0
 10 18  1  0
 11 19  1  0
M  RAD  1   2   2
M  END
>  <reaction>  (20) 
rmg_rxn_16585

>  <mol_properties>  (20) 
{"1": {"label": "*1", "atom_type": "Cd"}, "2": {"label": "*0", "atom_type": "N3d"}, "9": {"label": "*4", "atom_type": "Cs"}, "10": {"label": "*3", "atom_type": "O2s"}, "18": {"label": "*2", "atom_type": "H0"}}

>  <type>  (20) 
unop_16

>  <geom_source>  (20) 
gaussian_log

$$$$
