
     RDKit          3D

 12 11  0  0  0  0  0  0  0  0999 V2000
    1.8075    0.1979    0.4695 C   0  0  0  0  0  0  0  0  0  0  0  0
    1.0072   -0.8859   -0.7259 S   0  0  0  0  0  0  0  0  0  0  0  0
   -0.7258   -0.6904   -0.2447 C   0  0  0  0  0  0  0  0  0  0  0  0
   -1.0856   -1.2776    1.1108 C   0  0  0  0  0  0  0  0  0  0  0  0
    1.7126   -0.1777    1.4878 H   0  0  0  0  0  0  0  0  0  0  0  0
    1.4024    1.2089    0.4095 H   0  0  0  0  0  0  0  0  0  0  0  0
    2.8647    0.2298    0.2095 H   0  0  0  0  0  0  0  0  0  0  0  0
   -1.2866   -1.1892   -1.0369 H   0  0  0  0  0  0  0  0  0  0  0  0
   -0.9814    0.3707   -0.2917 H   0  0  0  0  0  0  0  0  0  0  0  0
   -0.5492   -0.7768    1.9180 H   0  0  0  0  0  0  0  0  0  0  0  0
   -0.8418   -2.3397    1.1503 H   0  0  0  0  0  0  0  0  0  0  0  0
   -2.1545   -1.1604    1.3035 H   0  0  0  0  0  0  0  0  0  0  0  0
  1  2  1  0
  1  5  1  0
  1  6  1  0
  1  7  1  0
  2  3  1  0
  3  4  1  0
  3  8  1  0
  3  9  1  0
  4 10  1  0
  4 11  1  0
  4 12  1  0
M  END
>  <reaction>  (1) 
rmg_rxn_528

>  <mol_properties>  (1) 
{"0": {"label": "donator", "atom_type": "Cs"}, "4": {"label": "d_hydrogen", "atom_type": "H0"}}

>  <type>  (1) 
r1h

$$$$

     RDKit          3D

 13 13  0  0  0  0  0  0  0  0999 V2000
    0.5794    1.5990    0.2108 C   0  0  0  0  0  3  0  0  0  0  0  0
    1.4528    0.6621   -0.2496 O   0  0  0  0  0  0  0  0  0  0  0  0
    1.0751   -0.6763    0.0423 C   0  0  0  0  0  0  0  0  0  0  0  0
   -0.3579   -0.9282   -0.3924 C   0  0  0  0  0  0  0  0  0  0  0  0
   -1.2426    0.1393    0.2269 C   0  0  0  0  0  0  0  0  0  0  0  0
   -0.7410    1.4341   -0.0749 O   0  0  0  0  0  0  0  0  0  0  0  0
    0.9183    2.6078    0.0084 H   0  0  0  0  0  0  0  0  0  0  0  0
    1.1839   -0.8508    1.1199 H   0  0  0  0  0  0  0  0  0  0  0  0
    1.7816   -1.3130   -0.4874 H   0  0  0  0  0  0  0  0  0  0  0  0
   -0.6818   -1.9210   -0.0736 H   0  0  0  0  0  0  0  0  0  0  0  0
   -0.4271   -0.8785   -1.4810 H   0  0  0  0  0  0  0  0  0  0  0  0
   -1.2832    0.0173    1.3164 H   0  0  0  0  0  0  0  0  0  0  0  0
   -2.2575    0.1083   -0.1657 H   0  0  0  0  0  0  0  0  0  0  0  0
  1  2  1  0
  1  6  1  0
  1  7  1  0
  2  3  1  0
  3  4  1  0
  3  8  1  0
  3  9  1  0
  4  5  1  0
  4 10  1  0
  4 11  1  0
  5  6  1  0
  5 12  1  0
  5 13  1  0
M  RAD  1   1   2
M  END
>  <reaction>  (2) 
rmg_rxn_528

>  <mol_properties>  (2) 
{"0": {"label": "acceptor", "atom_type": "Cs"}}

>  <type>  (2) 
r2

$$$$

     RDKit          3D

 14 14  0  0  0  0  0  0  0  0999 V2000
   -1.1778    0.2241    0.1818 C   0  0  0  0  0  0  0  0  0  0  0  0
   -0.5633   -1.1636    0.0678 C   0  0  0  0  0  0  0  0  0  0  0  0
    0.6943   -1.1996    0.7146 O   0  0  0  0  0  0  0  0  0  0  0  0
    1.5547   -0.2288    0.2011 C   0  0  0  0  0  0  0  0  0  0  0  0
    1.0729    1.0696    0.3698 O   0  0  0  0  0  0  0  0  0  0  0  0
   -0.1607    1.2493   -0.2989 C   0  0  0  0  0  0  0  0  0  0  0  0
   -2.0927    0.2866   -0.4117 H   0  0  0  0  0  0  0  0  0  0  0  0
   -1.4303    0.4248    1.2248 H   0  0  0  0  0  0  0  0  0  0  0  0
   -1.1822   -1.9235    0.5431 H   0  0  0  0  0  0  0  0  0  0  0  0
   -0.4389   -1.4347   -0.9919 H   0  0  0  0  0  0  0  0  0  0  0  0
    1.7250   -0.4207   -0.8742 H   0  0  0  0  0  0  0  0  0  0  0  0
    2.4896   -0.3010    0.7524 H   0  0  0  0  0  0  0  0  0  0  0  0
   -0.0080    1.1481   -1.3844 H   0  0  0  0  0  0  0  0  0  0  0  0
   -0.4826    2.2695   -0.0942 H   0  0  0  0  0  0  0  0  0  0  0  0
  1  2  1  0
  1  6  1  0
  1  7  1  0
  1  8  1  0
  2  3  1  0
  2  9  1  0
  2 10  1  0
  3  4  1  0
  4  5  1  0
  4 11  1  0
  4 12  1  0
  5  6  1  0
  6 13  1  0
  6 14  1  0
M  END
>  <reaction>  (3) 
rmg_rxn_528

>  <mol_properties>  (3) 
{"0": {"label": "a_hydrogen", "atom_type": "H0"}, "1": {"label": "acceptor", "atom_type": "Cs"}}

>  <type>  (3) 
r2h

$$$$

     RDKit          3D

 25 24  0  0  0  0  0  0  0  0999 V2000
    1.0814   -1.8006    1.3955 C   0  0  0  0  0  0  0  0  0  0  0  0
   -0.1774   -1.3320    2.5344 S   0  0  0  0  0  0  0  0  0  0  0  0
   -1.6732   -1.6166    1.5581 C   0  0  0  0  0  0  0  0  0  0  0  0
   -1.8370   -0.7069    0.3515 C   0  0  0  0  0  0  0  0  0  0  0  0
    1.3508   -0.8695    0.5256 H   0  0  0  0  0  0  0  0  0  0  0  0
    0.8275   -2.6737    0.7946 H   0  0  0  0  0  0  0  0  0  0  0  0
    2.0233   -1.9361    1.9239 H   0  0  0  0  0  0  0  0  0  0  0  0
   -2.4880   -1.4677    2.2690 H   0  0  0  0  0  0  0  0  0  0  0  0
   -1.6919   -2.6676    1.2613 H   0  0  0  0  0  0  0  0  0  0  0  0
   -1.0537   -0.8813   -0.3862 H   0  0  0  0  0  0  0  0  0  0  0  0
   -1.7869    0.3415    0.6459 H   0  0  0  0  0  0  0  0  0  0  0  0
   -2.8022   -0.8938   -0.1261 H   0  0  0  0  0  0  0  0  0  0  0  0
    1.6180    0.0743   -0.4707 C   0  0  0  0  0  3  0  0  0  0  0  0
    1.1001   -0.4978   -1.6148 O   0  0  0  0  0  0  0  0  0  0  0  0
    1.0835    0.4023   -2.7156 C   0  0  0  0  0  0  0  0  0  0  0  0
    0.3430    1.6753   -2.3397 C   0  0  0  0  0  0  0  0  0  0  0  0
    0.9416    2.2239   -1.0548 C   0  0  0  0  0  0  0  0  0  0  0  0
    0.9685    1.2119   -0.0566 O   0  0  0  0  0  0  0  0  0  0  0  0
    2.7107    0.2067   -0.5273 H   0  0  0  0  0  0  0  0  0  0  0  0
    2.1171    0.6351   -3.0091 H   0  0  0  0  0  0  0  0  0  0  0  0
    0.6025   -0.1242   -3.5388 H   0  0  0  0  0  0  0  0  0  0  0  0
    0.4216    2.4124   -3.1420 H   0  0  0  0  0  0  0  0  0  0  0  0
   -0.7137    1.4497   -2.1823 H   0  0  0  0  0  0  0  0  0  0  0  0
    0.3541    3.0449   -0.6464 H   0  0  0  0  0  0  0  0  0  0  0  0
    1.9647    2.5846   -1.2346 H   0  0  0  0  0  0  0  0  0  0  0  0
  1  2  1  0
  1  5  1  0
  1  6  1  0
  1  7  1  0
  2  3  1  0
  3  4  1  0
  3  8  1  0
  3  9  1  0
  4 10  1  0
  4 11  1  0
  4 12  1  0
 13 14  1  0
 13 18  1  0
 13 19  1  0
 14 15  1  0
 15 16  1  0
 15 20  1  0
 15 21  1  0
 16 17  1  0
 16 22  1  0
 16 23  1  0
 17 18  1  0
 17 24  1  0
 17 25  1  0
M  RAD  1  13   2
M  END
>  <reaction>  (4) 
rmg_rxn_528

>  <mol_properties>  (4) 
{"0": {"label": "*1", "atom_type": "Cs"}, "1": {"label": "*0", "atom_type": "S2s"}, "4": {"label": "*2", "atom_type": "H0"}, "12": {"label": "*3", "atom_type": "Cs"}, "13": {"label": "*4", "atom_type": "O2s"}}

>  <type>  (4) 
ts

$$$$

     RDKit          3D

 25 24  0  0  0  0  0  0  0  0999 V2000
   -0.1650    0.1488    1.7262 C   0  0  0  0  0  3  0  0  0  0  0  0
   -1.8081   -0.4300    2.1840 S   0  0  0  0  0  0  0  0  0  0  0  0
   -1.8081   -2.0701    1.4203 C   0  0  0  0  0  0  0  0  0  0  0  0
   -1.8081   -2.0701   -0.1001 C   0  0  0  0  0  0  0  0  0  0  0  0
   -0.0501    0.3245    0.4358 H   0  0  0  0  0  0  0  0  0  0  0  0
    0.6020   -0.5442    2.0743 H   0  0  0  0  0  0  0  0  0  0  0  0
   -0.0185    1.1082    2.2205 H   0  0  0  0  0  0  0  0  0  0  0  0
   -2.7121   -2.5481    1.8012 H   0  0  0  0  0  0  0  0  0  0  0  0
   -0.9589   -2.6350    1.8116 H   0  0  0  0  0  0  0  0  0  0  0  0
   -0.9011   -1.6139   -0.4994 H   0  0  0  0  0  0  0  0  0  0  0  0
   -2.6641   -1.5169   -0.4878 H   0  0  0  0  0  0  0  0  0  0  0  0
   -1.8565   -3.0934   -0.4796 H   0  0  0  0  0  0  0  0  0  0  0  0
    0.0645    0.4999   -0.8526 C   0  0  0  0  0  0  0  0  0  0  0  0
    0.3804    1.8426   -1.0620 O   0  0  0  0  0  0  0  0  0  0  0  0
    1.3313    1.9896   -2.0991 C   0  0  0  0  0  0  0  0  0  0  0  0
    2.5812    1.1777   -1.7904 C   0  0  0  0  0  0  0  0  0  0  0  0
    2.1682   -0.2526   -1.4739 C   0  0  0  0  0  0  0  0  0  0  0  0
    1.1674   -0.2661   -0.4741 O   0  0  0  0  0  0  0  0  0  0  0  0
   -0.3766    0.0782   -1.7744 H   0  0  0  0  0  0  0  0  0  0  0  0
    0.8908    1.6558   -3.0510 H   0  0  0  0  0  0  0  0  0  0  0  0
    1.5465    3.0543   -2.1784 H   0  0  0  0  0  0  0  0  0  0  0  0
    3.2688    1.1978   -2.6390 H   0  0  0  0  0  0  0  0  0  0  0  0
    3.0896    1.6085   -0.9257 H   0  0  0  0  0  0  0  0  0  0  0  0
    3.0008   -0.8420   -1.0921 H   0  0  0  0  0  0  0  0  0  0  0  0
    1.7865   -0.7443   -2.3819 H   0  0  0  0  0  0  0  0  0  0  0  0
  1  2  1  0
  1  6  1  0
  1  7  1  0
  2  3  1  0
  3  4  1  0
  3  8  1  0
  3  9  1  0
  4 10  1  0
  4 11  1  0
  4 12  1  0
  5 13  1  0
 13 14  1  0
 13 18  1  0
 13 19  1  0
 14 15  1  0
 15 16  1  0
 15 20  1  0
 15 21  1  0
 16 17  1  0
 16 22  1  0
 16 23  1  0
 17 18  1  0
 17 24  1  0
 17 25  1  0
M  RAD  1   1   2
M  END
>  <reaction>  (5) 
rmg_rxn_528

>  <mol_properties>  (5) 
{"0": {"label": "*1", "atom_type": "Cs"}, "1": {"label": "*0", "atom_type": "S2s"}, "4": {"label": "*2", "atom_type": "H0"}, "12": {"label": "*3", "atom_type": "Cs"}, "13": {"label": "*4", "atom_type": "O2s"}}

>  <type>  (5) 
unop_1

>  <geom_source>  (5) 
Heuristics

$$$$

     RDKit          3D

 25 24  0  0  0  0  0  0  0  0999 V2000
    0.5542   -0.2442    1.9152 C   0  0  0  0  0  3  0  0  0  0  0  0
   -1.0889   -0.8231    2.3730 S   0  0  0  0  0  0  0  0  0  0  0  0
   -1.0889   -2.4632    1.6093 C   0  0  0  0  0  0  0  0  0  0  0  0
   -1.0889   -2.4632    0.0890 C   0  0  0  0  0  0  0  0  0  0  0  0
    0.6691   -0.0686    0.6248 H   0  0  0  0  0  0  0  0  0  0  0  0
    1.3212   -0.9373    2.2633 H   0  0  0  0  0  0  0  0  0  0  0  0
    0.7007    0.7151    2.4095 H   0  0  0  0  0  0  0  0  0  0  0  0
   -1.9929   -2.9412    1.9903 H   0  0  0  0  0  0  0  0  0  0  0  0
   -0.2396   -3.0281    2.0006 H   0  0  0  0  0  0  0  0  0  0  0  0
   -0.1819   -2.0070   -0.3103 H   0  0  0  0  0  0  0  0  0  0  0  0
   -1.9449   -1.9100   -0.2987 H   0  0  0  0  0  0  0  0  0  0  0  0
   -1.1373   -3.4864   -0.2906 H   0  0  0  0  0  0  0  0  0  0  0  0
    0.7837    0.1068   -0.6635 C   0  0  0  0  0  0  0  0  0  0  0  0
   -0.4770    0.4560   -1.1485 O   0  0  0  0  0  0  0  0  0  0  0  0
   -0.3838    1.0854   -2.4120 C   0  0  0  0  0  0  0  0  0  0  0  0
    0.5252    2.3035   -2.3310 C   0  0  0  0  0  0  0  0  0  0  0  0
    1.8479    1.8847   -1.7049 C   0  0  0  0  0  0  0  0  0  0  0  0
    1.6217    1.2077   -0.4835 O   0  0  0  0  0  0  0  0  0  0  0  0
    1.2602   -0.6075   -1.3598 H   0  0  0  0  0  0  0  0  0  0  0  0
    0.0100    0.3700   -3.1503 H   0  0  0  0  0  0  0  0  0  0  0  0
   -1.3982    1.3529   -2.7046 H   0  0  0  0  0  0  0  0  0  0  0  0
    0.6897    2.7241   -3.3256 H   0  0  0  0  0  0  0  0  0  0  0  0
    0.0545    3.0669   -1.7084 H   0  0  0  0  0  0  0  0  0  0  0  0
    2.4796    2.7419   -1.4759 H   0  0  0  0  0  0  0  0  0  0  0  0
    2.3986    1.2256   -2.3935 H   0  0  0  0  0  0  0  0  0  0  0  0
  1  2  1  0
  1  6  1  0
  1  7  1  0
  2  3  1  0
  3  4  1  0
  3  8  1  0
  3  9  1  0
  4 10  1  0
  4 11  1  0
  4 12  1  0
  5 13  1  0
 13 14  1  0
 13 18  1  0
 13 19  1  0
 14 15  1  0
 15 16  1  0
 15 20  1  0
 15 21  1  0
 16 17  1  0
 16 22  1  0
 16 23  1  0
 17 18  1  0
 17 24  1  0
 17 25  1  0
M  RAD  1   1   2
M  END
>  <reaction>  (6) 
rmg_rxn_528

>  <mol_properties>  (6) 
{"0": {"label": "*1", "atom_type": "Cs"}, "1": {"label": "*0", "atom_type": "S2s"}, "4": {"label": "*2", "atom_type": "H0"}, "12": {"label": "*3", "atom_type": "Cs"}, "13": {"label": "*4", "atom_type": "O2s"}}

>  <type>  (6) 
unop_2

>  <geom_source>  (6) 
Heuristics

$$$$

     RDKit          3D

 25 24  0  0  0  0  0  0  0  0999 V2000
   -0.0984    0.4497    1.8805 C   0  0  0  0  0  3  0  0  0  0  0  0
   -1.7415   -0.1291    2.3383 S   0  0  0  0  0  0  0  0  0  0  0  0
   -1.7415   -1.7692    1.5746 C   0  0  0  0  0  0  0  0  0  0  0  0
   -1.7415   -1.7692    0.0542 C   0  0  0  0  0  0  0  0  0  0  0  0
    0.0165    0.6254    0.5901 H   0  0  0  0  0  0  0  0  0  0  0  0
    0.6686   -0.2433    2.2286 H   0  0  0  0  0  0  0  0  0  0  0  0
    0.0481    1.4091    2.3748 H   0  0  0  0  0  0  0  0  0  0  0  0
   -2.6455   -2.2472    1.9555 H   0  0  0  0  0  0  0  0  0  0  0  0
   -0.8923   -2.3341    1.9659 H   0  0  0  0  0  0  0  0  0  0  0  0
   -0.8345   -1.3131   -0.3451 H   0  0  0  0  0  0  0  0  0  0  0  0
   -2.5975   -1.2160   -0.3335 H   0  0  0  0  0  0  0  0  0  0  0  0
   -1.7899   -2.7925   -0.3253 H   0  0  0  0  0  0  0  0  0  0  0  0
    0.1311    0.8008   -0.6983 C   0  0  0  0  0  0  0  0  0  0  0  0
    1.0581    1.8243   -0.8967 O   0  0  0  0  0  0  0  0  0  0  0  0
    1.7192    1.6832   -2.1395 C   0  0  0  0  0  0  0  0  0  0  0  0
    2.3865    0.3184   -2.2322 C   0  0  0  0  0  0  0  0  0  0  0  0
    1.3540   -0.7526   -1.9104 C   0  0  0  0  0  0  0  0  0  0  0  0
    0.7147   -0.4663   -0.6813 O   0  0  0  0  0  0  0  0  0  0  0  0
   -0.6363    0.8411   -1.4930 H   0  0  0  0  0  0  0  0  0  0  0  0
    0.9925    1.8036   -2.9576 H   0  0  0  0  0  0  0  0  0  0  0  0
    2.4421    2.4953   -2.2041 H   0  0  0  0  0  0  0  0  0  0  0  0
    2.7998    0.1625   -3.2313 H   0  0  0  0  0  0  0  0  0  0  0  0
    3.2033    0.2638   -1.5099 H   0  0  0  0  0  0  0  0  0  0  0  0
    1.8075   -1.7373   -1.8060 H   0  0  0  0  0  0  0  0  0  0  0  0
    0.6016   -0.8036   -2.7124 H   0  0  0  0  0  0  0  0  0  0  0  0
  1  2  1  0
  1  6  1  0
  1  7  1  0
  2  3  1  0
  3  4  1  0
  3  8  1  0
  3  9  1  0
  4 10  1  0
  4 11  1  0
  4 12  1  0
  5 13  1  0
 13 14  1  0
 13 18  1  0
 13 19  1  0
 14 15  1  0
 15 16  1  0
 15 20  1  0
 15 21  1  0
 16 17  1  0
 16 22  1  0
 16 23  1  0
 17 18  1  0
 17 24  1  0
 17 25  1  0
M  RAD  1   1   2
M  END
>  <reaction>  (7) 
rmg_rxn_528

>  <mol_properties>  (7) 
{"0": {"label": "*1", "atom_type": "Cs"}, "1": {"label": "*0", "atom_type": "S2s"}, "4": {"label": "*2", "atom_type": "H0"}, "12": {"label": "*3", "atom_type": "Cs"}, "13": {"label": "*4", "atom_type": "O2s"}}

>  <type>  (7) 
unop_3

>  <geom_source>  (7) 
Heuristics

$$$$

     RDKit          3D

 25 24  0  0  0  0  0  0  0  0999 V2000
    0.4455    0.3803    2.1990 C   0  0  0  0  0  3  0  0  0  0  0  0
   -1.1976   -0.1986    2.6568 S   0  0  0  0  0  0  0  0  0  0  0  0
   -1.1976   -1.8387    1.8932 C   0  0  0  0  0  0  0  0  0  0  0  0
   -1.1976   -1.8387    0.3728 C   0  0  0  0  0  0  0  0  0  0  0  0
    0.5603    0.5559    0.9086 H   0  0  0  0  0  0  0  0  0  0  0  0
    1.2125   -0.3128    2.5471 H   0  0  0  0  0  0  0  0  0  0  0  0
    0.5919    1.3396    2.6934 H   0  0  0  0  0  0  0  0  0  0  0  0
   -2.1017   -2.3167    2.2741 H   0  0  0  0  0  0  0  0  0  0  0  0
   -0.3484   -2.4036    2.2844 H   0  0  0  0  0  0  0  0  0  0  0  0
   -0.2907   -1.3825   -0.0265 H   0  0  0  0  0  0  0  0  0  0  0  0
   -2.0536   -1.2855   -0.0149 H   0  0  0  0  0  0  0  0  0  0  0  0
   -1.2461   -2.8619   -0.0067 H   0  0  0  0  0  0  0  0  0  0  0  0
    0.6750    0.7313   -0.3797 C   0  0  0  0  0  0  0  0  0  0  0  0
    0.4319   -0.4999   -0.9892 O   0  0  0  0  0  0  0  0  0  0  0  0
    1.1663   -0.6305   -2.1913 C   0  0  0  0  0  0  0  0  0  0  0  0
    0.8438    0.5183   -3.1363 C   0  0  0  0  0  0  0  0  0  0  0  0
    1.0309    1.8315   -2.3899 C   0  0  0  0  0  0  0  0  0  0  0  0
    0.3045    1.8154   -1.1760 O   0  0  0  0  0  0  0  0  0  0  0  0
    1.7483    0.8107   -0.1274 H   0  0  0  0  0  0  0  0  0  0  0  0
    2.2434   -0.6403   -1.9642 H   0  0  0  0  0  0  0  0  0  0  0  0
    0.8996   -1.5963   -2.6183 H   0  0  0  0  0  0  0  0  0  0  0  0
    1.4913    0.4830   -4.0153 H   0  0  0  0  0  0  0  0  0  0  0  0
   -0.1926    0.4344   -3.4692 H   0  0  0  0  0  0  0  0  0  0  0  0
    0.6642    2.6817   -2.9633 H   0  0  0  0  0  0  0  0  0  0  0  0
    2.0984    1.9949   -2.1767 H   0  0  0  0  0  0  0  0  0  0  0  0
  1  2  1  0
  1  6  1  0
  1  7  1  0
  2  3  1  0
  3  4  1  0
  3  8  1  0
  3  9  1  0
  4 10  1  0
  4 11  1  0
  4 12  1  0
  5 13  1  0
 13 14  1  0
 13 18  1  0
 13 19  1  0
 14 15  1  0
 15 16  1  0
 15 20  1  0
 15 21  1  0
 16 17  1  0
 16 22  1  0
 16 23  1  0
 17 18  1  0
 17 24  1  0
 17 25  1  0
M  RAD  1   1   2
M  END
>  <reaction>  (8) 
rmg_rxn_528

>  <mol_properties>  (8) 
{"0": {"label": "*1", "atom_type": "Cs"}, "1": {"label": "*0", "atom_type": "S2s"}, "4": {"label": "*2", "atom_type": "H0"}, "12": {"label": "*3", "atom_type": "Cs"}, "13": {"label": "*4", "atom_type": "O2s"}}

>  <type>  (8) 
unop_4

>  <geom_source>  (8) 
Heuristics

$$$$

     RDKit          3D

 25 24  0  0  0  0  0  0  0  0999 V2000
    0.1661    0.4921    2.1046 C   0  0  0  0  0  3  0  0  0  0  0  0
   -1.4770   -0.0867    2.5624 S   0  0  0  0  0  0  0  0  0  0  0  0
   -1.4770   -1.7269    1.7988 C   0  0  0  0  0  0  0  0  0  0  0  0
   -1.4770   -1.7269    0.2784 C   0  0  0  0  0  0  0  0  0  0  0  0
    0.2809    0.6678    0.8142 H   0  0  0  0  0  0  0  0  0  0  0  0
    0.9331   -0.2009    2.4527 H   0  0  0  0  0  0  0  0  0  0  0  0
    0.3126    1.4515    2.5990 H   0  0  0  0  0  0  0  0  0  0  0  0
   -2.3811   -2.2048    2.1797 H   0  0  0  0  0  0  0  0  0  0  0  0
   -0.6278   -2.2917    2.1900 H   0  0  0  0  0  0  0  0  0  0  0  0
   -0.5700   -1.2707   -0.1209 H   0  0  0  0  0  0  0  0  0  0  0  0
   -2.3330   -1.1737   -0.1093 H   0  0  0  0  0  0  0  0  0  0  0  0
   -1.5254   -2.7501   -0.1011 H   0  0  0  0  0  0  0  0  0  0  0  0
    0.3956    0.8431   -0.4741 C   0  0  0  0  0  0  0  0  0  0  0  0
    1.6951    1.2882   -0.7182 O   0  0  0  0  0  0  0  0  0  0  0  0
    1.9184    1.4844   -2.1013 C   0  0  0  0  0  0  0  0  0  0  0  0
    1.6274    0.2042   -2.8714 C   0  0  0  0  0  0  0  0  0  0  0  0
    0.2382   -0.2885   -2.4922 C   0  0  0  0  0  0  0  0  0  0  0  0
    0.1150   -0.3790   -1.0857 O   0  0  0  0  0  0  0  0  0  0  0  0
   -0.3253    1.6039   -0.8257 H   0  0  0  0  0  0  0  0  0  0  0  0
    1.2726    2.2981   -2.4656 H   0  0  0  0  0  0  0  0  0  0  0  0
    2.9556    1.7984   -2.2100 H   0  0  0  0  0  0  0  0  0  0  0  0
    1.6886    0.3834   -3.9472 H   0  0  0  0  0  0  0  0  0  0  0  0
    2.3665   -0.5545   -2.6067 H   0  0  0  0  0  0  0  0  0  0  0  0
    0.0360   -1.2823   -2.8892 H   0  0  0  0  0  0  0  0  0  0  0  0
   -0.5258    0.4005   -2.8839 H   0  0  0  0  0  0  0  0  0  0  0  0
  1  2  1  0
  1  6  1  0
  1  7  1  0
  2  3  1  0
  3  4  1  0
  3  8  1  0
  3  9  1  0
  4 10  1  0
  4 11  1  0
  4 12  1  0
  5 13  1  0
 13 14  1  0
 13 18  1  0
 13 19  1  0
 14 15  1  0
 15 16  1  0
 15 20  1  0
 15 21  1  0
 16 17  1  0
 16 22  1  0
 16 23  1  0
 17 18  1  0
 17 24  1  0
 17 25  1  0
M  RAD  1   1   2
M  END
>  <reaction>  (9) 
rmg_rxn_528

>  <mol_properties>  (9) 
{"0": {"label": "*1", "atom_type": "Cs"}, "1": {"label": "*0", "atom_type": "S2s"}, "4": {"label": "*2", "atom_type": "H0"}, "12": {"label": "*3", "atom_type": "Cs"}, "13": {"label": "*4", "atom_type": "O2s"}}

>  <type>  (9) 
unop_5

>  <geom_source>  (9) 
Heuristics

$$$$

     RDKit          3D

 25 24  0  0  0  0  0  0  0  0999 V2000
    0.2965    0.3520    2.1762 C   0  0  0  0  0  3  0  0  0  0  0  0
   -1.3466   -0.2268    2.6340 S   0  0  0  0  0  0  0  0  0  0  0  0
   -1.3466   -1.8669    1.8704 C   0  0  0  0  0  0  0  0  0  0  0  0
   -1.3466   -1.8669    0.3500 C   0  0  0  0  0  0  0  0  0  0  0  0
    0.4114    0.5277    0.8858 H   0  0  0  0  0  0  0  0  0  0  0  0
    1.0635   -0.3410    2.5243 H   0  0  0  0  0  0  0  0  0  0  0  0
    0.4430    1.3114    2.6706 H   0  0  0  0  0  0  0  0  0  0  0  0
   -2.2506   -2.3449    2.2513 H   0  0  0  0  0  0  0  0  0  0  0  0
   -0.4973   -2.4318    2.2616 H   0  0  0  0  0  0  0  0  0  0  0  0
   -0.4396   -1.4108   -0.0493 H   0  0  0  0  0  0  0  0  0  0  0  0
   -2.2025   -1.3137   -0.0377 H   0  0  0  0  0  0  0  0  0  0  0  0
   -1.3950   -2.8902   -0.0295 H   0  0  0  0  0  0  0  0  0  0  0  0
    0.5260    0.7031   -0.4025 C   0  0  0  0  0  0  0  0  0  0  0  0
    0.9690   -0.5024   -0.9475 O   0  0  0  0  0  0  0  0  0  0  0  0
    1.8899   -0.2820   -1.9986 C   0  0  0  0  0  0  0  0  0  0  0  0
    1.2692    0.6043   -3.0690 C   0  0  0  0  0  0  0  0  0  0  0  0
    0.7160    1.8571   -2.4050 C   0  0  0  0  0  0  0  0  0  0  0  0
   -0.1350    1.5092   -1.3297 O   0  0  0  0  0  0  0  0  0  0  0  0
    1.3873    1.2553    0.0163 H   0  0  0  0  0  0  0  0  0  0  0  0
    2.7985    0.1923   -1.5971 H   0  0  0  0  0  0  0  0  0  0  0  0
    2.1613   -1.2621   -2.3883 H   0  0  0  0  0  0  0  0  0  0  0  0
    2.0129    0.8690   -3.8241 H   0  0  0  0  0  0  0  0  0  0  0  0
    0.4571    0.0652   -3.5607 H   0  0  0  0  0  0  0  0  0  0  0  0
    0.1214    2.4549   -3.0945 H   0  0  0  0  0  0  0  0  0  0  0  0
    1.5420    2.4819   -2.0321 H   0  0  0  0  0  0  0  0  0  0  0  0
  1  2  1  0
  1  6  1  0
  1  7  1  0
  2  3  1  0
  3  4  1  0
  3  8  1  0
  3  9  1  0
  4 10  1  0
  4 11  1  0
  4 12  1  0
  5 13  1  0
 13 14  1  0
 13 18  1  0
 13 19  1  0
 14 15  1  0
 15 16  1  0
 15 20  1  0
 15 21  1  0
 16 17  1  0
 16 22  1  0
 16 23  1  0
 17 18  1  0
 17 24  1  0
 17 25  1  0
M  RAD  1   1   2
M  END
>  <reaction>  (10) 
rmg_rxn_528

>  <mol_properties>  (10) 
{"0": {"label": "*1", "atom_type": "Cs"}, "1": {"label": "*0", "atom_type": "S2s"}, "4": {"label": "*2", "atom_type": "H0"}, "12": {"label": "*3", "atom_type": "Cs"}, "13": {"label": "*4", "atom_type": "O2s"}}

>  <type>  (10) 
unop_6

>  <geom_source>  (10) 
Heuristics

$$$$

     RDKit          3D

 25 24  0  0  0  0  0  0  0  0999 V2000
    0.2576    0.2761    2.1631 C   0  0  0  0  0  3  0  0  0  0  0  0
   -1.3855   -0.3028    2.6209 S   0  0  0  0  0  0  0  0  0  0  0  0
   -1.3855   -1.9429    1.8572 C   0  0  0  0  0  0  0  0  0  0  0  0
   -1.3855   -1.9429    0.3369 C   0  0  0  0  0  0  0  0  0  0  0  0
    0.3724    0.4517    0.8727 H   0  0  0  0  0  0  0  0  0  0  0  0
    1.0246   -0.4170    2.5112 H   0  0  0  0  0  0  0  0  0  0  0  0
    0.4041    1.2354    2.6574 H   0  0  0  0  0  0  0  0  0  0  0  0
   -2.2896   -2.4209    2.2382 H   0  0  0  0  0  0  0  0  0  0  0  0
   -0.5363   -2.5078    2.2485 H   0  0  0  0  0  0  0  0  0  0  0  0
   -0.4785   -1.4867   -0.0624 H   0  0  0  0  0  0  0  0  0  0  0  0
   -2.2415   -1.3897   -0.0509 H   0  0  0  0  0  0  0  0  0  0  0  0
   -1.4340   -2.9661   -0.0427 H   0  0  0  0  0  0  0  0  0  0  0  0
    0.4871    0.6271   -0.4157 C   0  0  0  0  0  0  0  0  0  0  0  0
    1.5071   -0.2147   -0.8598 O   0  0  0  0  0  0  0  0  0  0  0  0
    2.2734    0.4011   -1.8772 C   0  0  0  0  0  0  0  0  0  0  0  0
    1.3767    0.8263   -3.0312 C   0  0  0  0  0  0  0  0  0  0  0  0
    0.2290    1.6580   -2.4768 C   0  0  0  0  0  0  0  0  0  0  0  0
   -0.4154    0.9673   -1.4237 O   0  0  0  0  0  0  0  0  0  0  0  0
    0.9289    1.5478    0.0079 H   0  0  0  0  0  0  0  0  0  0  0  0
    2.7960    1.2772   -1.4636 H   0  0  0  0  0  0  0  0  0  0  0  0
    3.0219   -0.3258   -2.1893 H   0  0  0  0  0  0  0  0  0  0  0  0
    1.9457    1.4017   -3.7649 H   0  0  0  0  0  0  0  0  0  0  0  0
    0.9764   -0.0609   -3.5258 H   0  0  0  0  0  0  0  0  0  0  0  0
   -0.5305    1.8583   -3.2313 H   0  0  0  0  0  0  0  0  0  0  0  0
    0.6078    2.6226   -2.1055 H   0  0  0  0  0  0  0  0  0  0  0  0
  1  2  1  0
  1  6  1  0
  1  7  1  0
  2  3  1  0
  3  4  1  0
  3  8  1  0
  3  9  1  0
  4 10  1  0
  4 11  1  0
  4 12  1  0
  5 13  1  0
 13 14  1  0
 13 18  1  0
 13 19  1  0
 14 15  1  0
 15 16  1  0
 15 20  1  0
 15 21  1  0
 16 17  1  0
 16 22  1  0
 16 23  1  0
 17 18  1  0
 17 24  1  0
 17 25  1  0
M  RAD  1   1   2
M  END
>  <reaction>  (11) 
rmg_rxn_528

>  <mol_properties>  (11) 
{"0": {"label": "*1", "atom_type": "Cs"}, "1": {"label": "*0", "atom_type": "S2s"}, "4": {"label": "*2", "atom_type": "H0"}, "12": {"label": "*3", "atom_type": "Cs"}, "13": {"label": "*4", "atom_type": "O2s"}}

>  <type>  (11) 
unop_7

>  <geom_source>  (11) 
Heuristics

$$$$

     RDKit          3D

 25 24  0  0  0  0  0  0  0  0999 V2000
   -0.0115   -0.1454    1.6952 C   0  0  0  0  0  3  0  0  0  0  0  0
   -1.6546   -0.7242    2.1529 S   0  0  0  0  0  0  0  0  0  0  0  0
   -1.6546   -2.3643    1.3893 C   0  0  0  0  0  0  0  0  0  0  0  0
   -1.6546   -2.3643   -0.1311 C   0  0  0  0  0  0  0  0  0  0  0  0
    0.1033    0.0303    0.4048 H   0  0  0  0  0  0  0  0  0  0  0  0
    0.7555   -0.8384    2.0433 H   0  0  0  0  0  0  0  0  0  0  0  0
    0.1350    0.8140    2.1895 H   0  0  0  0  0  0  0  0  0  0  0  0
   -2.5587   -2.8423    1.7702 H   0  0  0  0  0  0  0  0  0  0  0  0
   -0.8054   -2.9292    1.7806 H   0  0  0  0  0  0  0  0  0  0  0  0
   -0.7476   -1.9081   -0.5304 H   0  0  0  0  0  0  0  0  0  0  0  0
   -2.5106   -1.8111   -0.5188 H   0  0  0  0  0  0  0  0  0  0  0  0
   -1.7031   -3.3876   -0.5106 H   0  0  0  0  0  0  0  0  0  0  0  0
    0.2180    0.2057   -0.8836 C   0  0  0  0  0  0  0  0  0  0  0  0
   -0.1521    1.5226   -1.1575 O   0  0  0  0  0  0  0  0  0  0  0  0
    0.6884    2.0975   -2.1396 C   0  0  0  0  0  0  0  0  0  0  0  0
    2.1440    2.0207   -1.7014 C   0  0  0  0  0  0  0  0  0  0  0  0
    2.4640    0.5820   -1.3213 C   0  0  0  0  0  0  0  0  0  0  0  0
    1.5176    0.0974   -0.3880 O   0  0  0  0  0  0  0  0  0  0  0  0
    0.1237   -0.4012   -1.8028 H   0  0  0  0  0  0  0  0  0  0  0  0
    0.5539    1.5664   -3.0944 H   0  0  0  0  0  0  0  0  0  0  0  0
    0.3569    3.1264   -2.2727 H   0  0  0  0  0  0  0  0  0  0  0  0
    2.8029    2.3591   -2.5042 H   0  0  0  0  0  0  0  0  0  0  0  0
    2.2970    2.6675   -0.8354 H   0  0  0  0  0  0  0  0  0  0  0  0
    3.4422    0.4930   -0.8508 H   0  0  0  0  0  0  0  0  0  0  0  0
    2.4544   -0.0557   -2.2185 H   0  0  0  0  0  0  0  0  0  0  0  0
  1  2  1  0
  1  6  1  0
  1  7  1  0
  2  3  1  0
  3  4  1  0
  3  8  1  0
  3  9  1  0
  4 10  1  0
  4 11  1  0
  4 12  1  0
  5 13  1  0
 13 14  1  0
 13 18  1  0
 13 19  1  0
 14 15  1  0
 15 16  1  0
 15 20  1  0
 15 21  1  0
 16 17  1  0
 16 22  1  0
 16 23  1  0
 17 18  1  0
 17 24  1  0
 17 25  1  0
M  RAD  1   1   2
M  END
>  <reaction>  (12) 
rmg_rxn_528

>  <mol_properties>  (12) 
{"0": {"label": "*1", "atom_type": "Cs"}, "1": {"label": "*0", "atom_type": "S2s"}, "4": {"label": "*2", "atom_type": "H0"}, "12": {"label": "*3", "atom_type": "Cs"}, "13": {"label": "*4", "atom_type": "O2s"}}

>  <type>  (12) 
unop_8

>  <geom_source>  (12) 
Heuristics

$$$$

     RDKit          3D

 25 24  0  0  0  0  0  0  0  0999 V2000
    0.6290    0.2563    2.1846 C   0  0  0  0  0  3  0  0  0  0  0  0
   -1.0141   -0.3226    2.6424 S   0  0  0  0  0  0  0  0  0  0  0  0
   -1.0141   -1.9627    1.8787 C   0  0  0  0  0  0  0  0  0  0  0  0
   -1.0141   -1.9627    0.3583 C   0  0  0  0  0  0  0  0  0  0  0  0
    0.7439    0.4319    0.8942 H   0  0  0  0  0  0  0  0  0  0  0  0
    1.3960   -0.4368    2.5327 H   0  0  0  0  0  0  0  0  0  0  0  0
    0.7755    1.2157    2.6789 H   0  0  0  0  0  0  0  0  0  0  0  0
   -1.9181   -2.4407    2.2596 H   0  0  0  0  0  0  0  0  0  0  0  0
   -0.1648   -2.5276    2.2700 H   0  0  0  0  0  0  0  0  0  0  0  0
   -0.1071   -1.5065   -0.0410 H   0  0  0  0  0  0  0  0  0  0  0  0
   -1.8701   -1.4095   -0.0294 H   0  0  0  0  0  0  0  0  0  0  0  0
   -1.0625   -2.9859   -0.0212 H   0  0  0  0  0  0  0  0  0  0  0  0
    0.8585    0.6073   -0.3942 C   0  0  0  0  0  0  0  0  0  0  0  0
    0.0044   -0.3048   -1.0146 O   0  0  0  0  0  0  0  0  0  0  0  0
    0.3373   -0.4720   -2.3794 C   0  0  0  0  0  0  0  0  0  0  0  0
    0.3163    0.8696   -3.0978 C   0  0  0  0  0  0  0  0  0  0  0  0
    1.1846    1.8513   -2.3239 C   0  0  0  0  0  0  0  0  0  0  0  0
    0.8012    1.8802   -0.9625 O   0  0  0  0  0  0  0  0  0  0  0  0
    1.8965    0.2300   -0.4424 H   0  0  0  0  0  0  0  0  0  0  0  0
    1.3364   -0.9271   -2.4604 H   0  0  0  0  0  0  0  0  0  0  0  0
   -0.3888   -1.1687   -2.7961 H   0  0  0  0  0  0  0  0  0  0  0  0
    0.6822    0.7606   -4.1212 H   0  0  0  0  0  0  0  0  0  0  0  0
   -0.7084    1.2442   -3.1373 H   0  0  0  0  0  0  0  0  0  0  0  0
    1.0834    2.8686   -2.6998 H   0  0  0  0  0  0  0  0  0  0  0  0
    2.2433    1.5597   -2.4010 H   0  0  0  0  0  0  0  0  0  0  0  0
  1  2  1  0
  1  6  1  0
  1  7  1  0
  2  3  1  0
  3  4  1  0
  3  8  1  0
  3  9  1  0
  4 10  1  0
  4 11  1  0
  4 12  1  0
  5 13  1  0
 13 14  1  0
 13 18  1  0
 13 19  1  0
 14 15  1  0
 15 16  1  0
 15 20  1  0
 15 21  1  0
 16 17  1  0
 16 22  1  0
 16 23  1  0
 17 18  1  0
 17 24  1  0
 17 25  1  0
M  RAD  1   1   2
M  END
>  <reaction>  (13) 
rmg_rxn_528

>  <mol_properties>  (13) 
{"0": {"label": "*1", "atom_type": "Cs"}, "1": {"label": "*0", "atom_type": "S2s"}, "4": {"label": "*2", "atom_type": "H0"}, "12": {"label": "*3", "atom_type": "Cs"}, "13": {"label": "*4", "atom_type": "O2s"}}

>  <type>  (13) 
unop_9

>  <geom_source>  (13) 
Heuristics

$$$$

     RDKit          3D

 25 24  0  0  0  0  0  0  0  0999 V2000
    0.2691   -0.2974    1.7658 C   0  0  0  0  0  3  0  0  0  0  0  0
   -1.3740   -0.8762    2.2236 S   0  0  0  0  0  0  0  0  0  0  0  0
   -1.3740   -2.5163    1.4600 C   0  0  0  0  0  0  0  0  0  0  0  0
   -1.3740   -2.5163   -0.0604 C   0  0  0  0  0  0  0  0  0  0  0  0
    0.3840   -0.1217    0.4754 H   0  0  0  0  0  0  0  0  0  0  0  0
    1.0362   -0.9904    2.1139 H   0  0  0  0  0  0  0  0  0  0  0  0
    0.4156    0.6620    2.2602 H   0  0  0  0  0  0  0  0  0  0  0  0
   -2.2780   -2.9943    1.8409 H   0  0  0  0  0  0  0  0  0  0  0  0
   -0.5247   -3.0812    1.8512 H   0  0  0  0  0  0  0  0  0  0  0  0
   -0.4670   -2.0601   -0.4597 H   0  0  0  0  0  0  0  0  0  0  0  0
   -2.2299   -1.9631   -0.4481 H   0  0  0  0  0  0  0  0  0  0  0  0
   -1.4224   -3.5396   -0.4399 H   0  0  0  0  0  0  0  0  0  0  0  0
    0.4986    0.0537   -0.8129 C   0  0  0  0  0  0  0  0  0  0  0  0
   -0.4485    1.0070   -1.1877 O   0  0  0  0  0  0  0  0  0  0  0  0
    0.0178    1.7969   -2.2648 C   0  0  0  0  0  0  0  0  0  0  0  0
    1.3410    2.4564   -1.9036 C   0  0  0  0  0  0  0  0  0  0  0  0
    2.3018    1.3845   -1.4091 C   0  0  0  0  0  0  0  0  0  0  0  0
    1.6994    0.6192   -0.3830 O   0  0  0  0  0  0  0  0  0  0  0  0
    0.6955   -0.6231   -1.6646 H   0  0  0  0  0  0  0  0  0  0  0  0
    0.1434    1.1639   -3.1567 H   0  0  0  0  0  0  0  0  0  0  0  0
   -0.7592    2.5307   -2.4748 H   0  0  0  0  0  0  0  0  0  0  0  0
    1.7591    2.9736   -2.7702 H   0  0  0  0  0  0  0  0  0  0  0  0
    1.1768    3.1900   -1.1119 H   0  0  0  0  0  0  0  0  0  0  0  0
    3.2097    1.8141   -0.9879 H   0  0  0  0  0  0  0  0  0  0  0  0
    2.5881    0.7226   -2.2408 H   0  0  0  0  0  0  0  0  0  0  0  0
  1  2  1  0
  1  6  1  0
  1  7  1  0
  2  3  1  0
  3  4  1  0
  3  8  1  0
  3  9  1  0
  4 10  1  0
  4 11  1  0
  4 12  1  0
  5 13  1  0
 13 14  1  0
 13 18  1  0
 13 19  1  0
 14 15  1  0
 15 16  1  0
 15 20  1  0
 15 21  1  0
 16 17  1  0
 16 22  1  0
 16 23  1  0
 17 18  1  0
 17 24  1  0
 17 25  1  0
M  RAD  1   1   2
M  END
>  <reaction>  (14) 
rmg_rxn_528

>  <mol_properties>  (14) 
{"0": {"label": "*1", "atom_type": "Cs"}, "1": {"label": "*0", "atom_type": "S2s"}, "4": {"label": "*2", "atom_type": "H0"}, "12": {"label": "*3", "atom_type": "Cs"}, "13": {"label": "*4", "atom_type": "O2s"}}

>  <type>  (14) 
unop_10

>  <geom_source>  (14) 
Heuristics

$$$$

     RDKit          3D

 25 24  0  0  0  0  0  0  0  0999 V2000
    0.2856    0.3063    2.1734 C   0  0  0  0  0  3  0  0  0  0  0  0
   -1.3575   -0.2726    2.6312 S   0  0  0  0  0  0  0  0  0  0  0  0
   -1.3575   -1.9127    1.8676 C   0  0  0  0  0  0  0  0  0  0  0  0
   -1.3575   -1.9127    0.3472 C   0  0  0  0  0  0  0  0  0  0  0  0
    0.4004    0.4819    0.8830 H   0  0  0  0  0  0  0  0  0  0  0  0
    1.0526   -0.3868    2.5215 H   0  0  0  0  0  0  0  0  0  0  0  0
    0.4321    1.2656    2.6678 H   0  0  0  0  0  0  0  0  0  0  0  0
   -2.2616   -2.3907    2.2485 H   0  0  0  0  0  0  0  0  0  0  0  0
   -0.5083   -2.4776    2.2588 H   0  0  0  0  0  0  0  0  0  0  0  0
   -0.4505   -1.4565   -0.0521 H   0  0  0  0  0  0  0  0  0  0  0  0
   -2.2135   -1.3595   -0.0405 H   0  0  0  0  0  0  0  0  0  0  0  0
   -1.4059   -2.9359   -0.0323 H   0  0  0  0  0  0  0  0  0  0  0  0
    0.5151    0.6573   -0.4053 C   0  0  0  0  0  0  0  0  0  0  0  0
    1.8487    0.4196   -0.7393 O   0  0  0  0  0  0  0  0  0  0  0  0
    2.2149    1.1173   -1.9143 C   0  0  0  0  0  0  0  0  0  0  0  0
    1.2903    0.7411   -3.0633 C   0  0  0  0  0  0  0  0  0  0  0  0
   -0.1511    0.9257   -2.6103 C   0  0  0  0  0  0  0  0  0  0  0  0
   -0.3763    0.2395   -1.3939 O   0  0  0  0  0  0  0  0  0  0  0  0
    0.3712    1.7365   -0.2134 H   0  0  0  0  0  0  0  0  0  0  0  0
    2.1635    2.2011   -1.7287 H   0  0  0  0  0  0  0  0  0  0  0  0
    3.2515    0.8565   -2.1235 H   0  0  0  0  0  0  0  0  0  0  0  0
    1.4977    1.3605   -3.9388 H   0  0  0  0  0  0  0  0  0  0  0  0
    1.4546   -0.3035   -3.3344 H   0  0  0  0  0  0  0  0  0  0  0  0
   -0.8598    0.5236   -3.3330 H   0  0  0  0  0  0  0  0  0  0  0  0
   -0.3689    1.9961   -2.4737 H   0  0  0  0  0  0  0  0  0  0  0  0
  1  2  1  0
  1  6  1  0
  1  7  1  0
  2  3  1  0
  3  4  1  0
  3  8  1  0
  3  9  1  0
  4 10  1  0
  4 11  1  0
  4 12  1  0
  5 13  1  0
 13 14  1  0
 13 18  1  0
 13 19  1  0
 14 15  1  0
 15 16  1  0
 15 20  1  0
 15 21  1  0
 16 17  1  0
 16 22  1  0
 16 23  1  0
 17 18  1  0
 17 24  1  0
 17 25  1  0
M  RAD  1   1   2
M  END
>  <reaction>  (15) 
rmg_rxn_528

>  <mol_properties>  (15) 
{"0": {"label": "*1", "atom_type": "Cs"}, "1": {"label": "*0", "atom_type": "S2s"}, "4": {"label": "*2", "atom_type": "H0"}, "12": {"label": "*3", "atom_type": "Cs"}, "13": {"label": "*4", "atom_type": "O2s"}}

>  <type>  (15) 
unop_11

>  <geom_source>  (15) 
Heuristics

$$$$

     RDKit          3D

 25 24  0  0  0  0  0  0  0  0999 V2000
    0.6981   -0.0075    2.0840 C   0  0  0  0  0  3  0  0  0  0  0  0
   -0.9450   -0.5864    2.5417 S   0  0  0  0  0  0  0  0  0  0  0  0
   -0.9450   -2.2265    1.7781 C   0  0  0  0  0  0  0  0  0  0  0  0
   -0.9450   -2.2265    0.2577 C   0  0  0  0  0  0  0  0  0  0  0  0
    0.8129    0.1681    0.7935 H   0  0  0  0  0  0  0  0  0  0  0  0
    1.4651   -0.7006    2.4321 H   0  0  0  0  0  0  0  0  0  0  0  0
    0.8446    0.9519    2.5783 H   0  0  0  0  0  0  0  0  0  0  0  0
   -1.8491   -2.7045    2.1590 H   0  0  0  0  0  0  0  0  0  0  0  0
   -0.0958   -2.7914    2.1694 H   0  0  0  0  0  0  0  0  0  0  0  0
   -0.0380   -1.7703   -0.1416 H   0  0  0  0  0  0  0  0  0  0  0  0
   -1.8010   -1.6733   -0.1300 H   0  0  0  0  0  0  0  0  0  0  0  0
   -0.9935   -3.2497   -0.1218 H   0  0  0  0  0  0  0  0  0  0  0  0
    0.9276    0.3435   -0.4948 C   0  0  0  0  0  0  0  0  0  0  0  0
   -0.2991    0.0099   -1.0697 O   0  0  0  0  0  0  0  0  0  0  0  0
   -0.2744    0.1929   -2.4723 C   0  0  0  0  0  0  0  0  0  0  0  0
    0.1153    1.6243   -2.8126 C   0  0  0  0  0  0  0  0  0  0  0  0
    1.4058    1.9658   -2.0814 C   0  0  0  0  0  0  0  0  0  0  0  0
    1.2810    1.6771   -0.7021 O   0  0  0  0  0  0  0  0  0  0  0  0
    1.7163   -0.3135   -0.9050 H   0  0  0  0  0  0  0  0  0  0  0  0
    0.4438   -0.5100   -2.9216 H   0  0  0  0  0  0  0  0  0  0  0  0
   -1.2694   -0.0564   -2.8385 H   0  0  0  0  0  0  0  0  0  0  0  0
    0.2459    1.7384   -3.8911 H   0  0  0  0  0  0  0  0  0  0  0  0
   -0.6761    2.3029   -2.4885 H   0  0  0  0  0  0  0  0  0  0  0  0
    1.6503    3.0243   -2.1593 H   0  0  0  0  0  0  0  0  0  0  0  0
    2.2422    1.3876   -2.5032 H   0  0  0  0  0  0  0  0  0  0  0  0
  1  2  1  0
  1  6  1  0
  1  7  1  0
  2  3  1  0
  3  4  1  0
  3  8  1  0
  3  9  1  0
  4 10  1  0
  4 11  1  0
  4 12  1  0
  5 13  1  0
 13 14  1  0
 13 18  1  0
 13 19  1  0
 14 15  1  0
 15 16  1  0
 15 20  1  0
 15 21  1  0
 16 17  1  0
 16 22  1  0
 16 23  1  0
 17 18  1  0
 17 24  1  0
 17 25  1  0
M  RAD  1   1   2
M  END
>  <reaction>  (16) 
rmg_rxn_528

>  <mol_properties>  (16) 
{"0": {"label": "*1", "atom_type": "Cs"}, "1": {"label": "*0", "atom_type": "S2s"}, "4": {"label": "*2", "atom_type": "H0"}, "12": {"label": "*3", "atom_type": "Cs"}, "13": {"label": "*4", "atom_type": "O2s"}}

>  <type>  (16) 
unop_12

>  <geom_source>  (16) 
Heuristics

$$$$

     RDKit          3D

 25 24  0  0  0  0  0  0  0  0999 V2000
    2.1209   -1.0372    0.7889 S   0  0  0  0  0  0  0  0  0  0  0  0
   -1.7475   -1.2678    0.5349 O   0  0  0  0  0  0  0  0  0  0  0  0
   -1.5306    0.1895   -1.3573 O   0  0  0  0  0  0  0  0  0  0  0  0
   -2.7795    0.9051    0.5728 C   0  0  0  0  0  0  0  0  0  0  0  0
   -1.7896   -0.0493    1.2433 C   0  0  0  0  0  0  0  0  0  0  0  0
   -2.8054    0.6159   -0.9292 C   0  0  0  0  0  0  0  0  0  0  0  0
    2.7649    0.3513   -0.2008 C   0  0  0  0  0  0  0  0  0  0  0  0
    3.5365    1.3118    0.6915 C   0  0  0  0  0  0  0  0  0  0  0  0
   -1.1951   -1.0609   -0.7612 C   0  0  0  0  0  3  0  0  0  0  0  0
    1.3028   -1.8255   -0.6299 C   0  0  0  0  0  0  0  0  0  0  0  0
   -3.7986    0.7621    0.9936 H   0  0  0  0  0  0  0  0  0  0  0  0
   -2.4638    1.9550    0.7574 H   0  0  0  0  0  0  0  0  0  0  0  0
   -2.1165   -0.2472    2.2859 H   0  0  0  0  0  0  0  0  0  0  0  0
   -0.7751    0.4099    1.2955 H   0  0  0  0  0  0  0  0  0  0  0  0
   -3.5750   -0.1545   -1.1671 H   0  0  0  0  0  0  0  0  0  0  0  0
   -3.0820    1.5407   -1.4781 H   0  0  0  0  0  0  0  0  0  0  0  0
    1.9197    0.8927   -0.6775 H   0  0  0  0  0  0  0  0  0  0  0  0
    3.4414   -0.0365   -0.9923 H   0  0  0  0  0  0  0  0  0  0  0  0
    3.9258    2.1550    0.0829 H   0  0  0  0  0  0  0  0  0  0  0  0
    4.3929    0.7881    1.1667 H   0  0  0  0  0  0  0  0  0  0  0  0
    2.8704    1.7185    1.4818 H   0  0  0  0  0  0  0  0  0  0  0  0
   -1.5380   -1.8801   -1.4280 H   0  0  0  0  0  0  0  0  0  0  0  0
    0.1896   -1.1513   -0.6747 H   0  0  0  0  0  0  0  0  0  0  0  0
    2.0660   -2.2259   -1.3292 H   0  0  0  0  0  0  0  0  0  0  0  0
    0.6657   -2.6592   -0.2700 H   0  0  0  0  0  0  0  0  0  0  0  0
  1 10  1  0
  1  7  1  0
  2  5  1  0
  2  9  1  0
  3  6  1  0
  3  9  1  0
  4  5  1  0
  4  6  1  0
  4 11  1  0
  4 12  1  0
  5 13  1  0
  5 14  1  0
  6 15  1  0
  6 16  1  0
  7  8  1  0
  7 17  1  0
  7 18  1  0
  8 19  1  0
  8 20  1  0
  8 21  1  0
  9 22  1  0
 10 23  1  0
 10 24  1  0
 10 25  1  0
M  RAD  1   9   2
M  END
>  <reaction>  (17) 
rmg_rxn_528

>  <mol_properties>  (17) 
{"0": {"label": "*1", "atom_type": "Cs"}, "1": {"label": "*0", "atom_type": "S2s"}, "4": {"label": "*2", "atom_type": "H0"}, "12": {"label": "*3", "atom_type": "Cs"}, "13": {"label": "*4", "atom_type": "O2s"}}

>  <type>  (17) 
unop_13

>  <geom_source>  (17) 
AutoTST

$$$$

     RDKit          3D

 25 24  0  0  0  0  0  0  0  0999 V2000
    0.5542   -0.2442    1.9152 C   0  0  0  0  0  3  0  0  0  0  0  0
   -1.0889   -0.8231    2.3730 S   0  0  0  0  0  0  0  0  0  0  0  0
   -1.0889   -2.4632    1.6094 C   0  0  0  0  0  0  0  0  0  0  0  0
   -1.0889   -2.4632    0.0890 C   0  0  0  0  0  0  0  0  0  0  0  0
    0.6691   -0.0686    0.6248 H   0  0  0  0  0  0  0  0  0  0  0  0
    1.3212   -0.9373    2.2633 H   0  0  0  0  0  0  0  0  0  0  0  0
    0.7007    0.7151    2.4095 H   0  0  0  0  0  0  0  0  0  0  0  0
   -1.9929   -2.9412    1.9903 H   0  0  0  0  0  0  0  0  0  0  0  0
   -0.2396   -3.0281    2.0006 H   0  0  0  0  0  0  0  0  0  0  0  0
   -0.1819   -2.0070   -0.3103 H   0  0  0  0  0  0  0  0  0  0  0  0
   -1.9448   -1.9100   -0.2988 H   0  0  0  0  0  0  0  0  0  0  0  0
   -1.1373   -3.4864   -0.2905 H   0  0  0  0  0  0  0  0  0  0  0  0
    0.7837    0.1068   -0.6635 C   0  0  0  0  0  0  0  0  0  0  0  0
   -0.4770    0.4560   -1.1485 O   0  0  0  0  0  0  0  0  0  0  0  0
   -0.3837    1.0854   -2.4120 C   0  0  0  0  0  0  0  0  0  0  0  0
    0.5252    2.3035   -2.3310 C   0  0  0  0  0  0  0  0  0  0  0  0
    1.8479    1.8847   -1.7049 C   0  0  0  0  0  0  0  0  0  0  0  0
    1.6217    1.2077   -0.4835 O   0  0  0  0  0  0  0  0  0  0  0  0
    1.2602   -0.6075   -1.3598 H   0  0  0  0  0  0  0  0  0  0  0  0
    0.0100    0.3700   -3.1503 H   0  0  0  0  0  0  0  0  0  0  0  0
   -1.3982    1.3529   -2.7046 H   0  0  0  0  0  0  0  0  0  0  0  0
    0.6897    2.7241   -3.3255 H   0  0  0  0  0  0  0  0  0  0  0  0
    0.0546    3.0669   -1.7084 H   0  0  0  0  0  0  0  0  0  0  0  0
    2.4796    2.7419   -1.4759 H   0  0  0  0  0  0  0  0  0  0  0  0
    2.3986    1.2256   -2.3935 H   0  0  0  0  0  0  0  0  0  0  0  0
  1  2  1  0
  1  6  1  0
  1  7  1  0
  2  3  1  0
  3  4  1  0
  3  8  1  0
  3  9  1  0
  4 10  1  0
  4 11  1  0
  4 12  1  0
  5 13  1  0
 13 14  1  0
 13 18  1  0
 13 19  1  0
 14 15  1  0
 15 16  1  0
 15 20  1  0
 15 21  1  0
 16 17  1  0
 16 22  1  0
 16 23  1  0
 17 18  1  0
 17 24  1  0
 17 25  1  0
M  RAD  1   1   2
M  END
>  <reaction>  (18) 
rmg_rxn_528

>  <mol_properties>  (18) 
{"0": {"label": "*1", "atom_type": "Cs"}, "1": {"label": "*0", "atom_type": "S2s"}, "4": {"label": "*2", "atom_type": "H0"}, "12": {"label": "*3", "atom_type": "Cs"}, "13": {"label": "*4", "atom_type": "O2s"}}

>  <type>  (18) 
unop_14

>  <geom_source>  (18) 
gaussian_log

$$$$
