
     RDKit          3D

  8  7  0  0  0  0  0  0  0  0999 V2000
    1.2099   -0.1388    0.0025 C   0  0  0  0  0  0  0  0  0  0  0  0
   -0.1788    0.4141    0.0007 C   0  0  0  0  0  0  0  0  0  0  0  0
   -1.2100   -0.3603    0.0013 N   0  0  0  0  0  0  0  0  0  0  0  0
    1.7355    0.2223   -0.8851 H   0  0  0  0  0  0  0  0  0  0  0  0
    1.7521    0.1663    0.9007 H   0  0  0  0  0  0  0  0  0  0  0  0
    1.1564   -1.2296   -0.0424 H   0  0  0  0  0  0  0  0  0  0  0  0
   -0.2911    1.5112   -0.0010 H   0  0  0  0  0  0  0  0  0  0  0  0
   -2.0699    0.2005   -0.0002 H   0  0  0  0  0  0  0  0  0  0  0  0
  1  2  1  0
  1  4  1  0
  1  5  1  0
  1  6  1  0
  2  3  2  3
  2  7  1  0
  3  8  1  0
M  END
>  <reaction>  (1) 
rmg_rxn_16774

>  <mol_properties>  (1) 
{"1": {"label": "donator", "atom_type": "Cd"}, "6": {"label": "d_hydrogen", "atom_type": "H0"}}

>  <type>  (1) 
r1h

$$$$

     RDKit          3D

  9  8  0  0  0  0  0  0  0  0999 V2000
   -1.2038   -0.2138    0.0000 C   0  0  0  0  0  0  0  0  0  0  0  0
    0.1306    0.5162    0.0000 C   0  0  0  0  0  0  0  0  0  0  0  0
    1.2313   -0.4354    0.0000 N   0  0  0  0  0  2  0  0  0  0  0  0
   -1.3085   -0.8503    0.8857 H   0  0  0  0  0  0  0  0  0  0  0  0
   -2.0295    0.5051   -0.0000 H   0  0  0  0  0  0  0  0  0  0  0  0
   -1.3085   -0.8503   -0.8857 H   0  0  0  0  0  0  0  0  0  0  0  0
    0.1770    1.1695    0.8790 H   0  0  0  0  0  0  0  0  0  0  0  0
    0.1770    1.1695   -0.8790 H   0  0  0  0  0  0  0  0  0  0  0  0
    2.1131    0.0897   -0.0000 H   0  0  0  0  0  0  0  0  0  0  0  0
  1  2  1  0
  1  4  1  0
  1  5  1  0
  1  6  1  0
  2  3  1  0
  2  7  1  0
  2  8  1  0
  3  9  1  0
M  RAD  1   3   2
M  END
>  <reaction>  (2) 
rmg_rxn_16774

>  <mol_properties>  (2) 
{"2": {"label": "acceptor", "atom_type": "N3s"}}

>  <type>  (2) 
r2

$$$$

     RDKit          3D

 10  9  0  0  0  0  0  0  0  0999 V2000
   -1.1931   -0.2772    0.0000 C   0  0  0  0  0  0  0  0  0  0  0  0
    0.0433    0.6056    0.0000 C   0  0  0  0  0  0  0  0  0  0  0  0
    1.2617   -0.1946    0.0000 N   0  0  0  0  0  0  0  0  0  0  0  0
   -1.2226   -0.9183    0.8874 H   0  0  0  0  0  0  0  0  0  0  0  0
   -1.2226   -0.9183   -0.8874 H   0  0  0  0  0  0  0  0  0  0  0  0
   -2.0972    0.3401   -0.0000 H   0  0  0  0  0  0  0  0  0  0  0  0
    0.0379    1.2535    0.8825 H   0  0  0  0  0  0  0  0  0  0  0  0
    0.0379    1.2535   -0.8825 H   0  0  0  0  0  0  0  0  0  0  0  0
    1.2666   -0.8092   -0.8134 H   0  0  0  0  0  0  0  0  0  0  0  0
    1.2666   -0.8092    0.8134 H   0  0  0  0  0  0  0  0  0  0  0  0
  1  2  1  0
  1  4  1  0
  1  5  1  0
  1  6  1  0
  2  3  1  0
  2  7  1  0
  2  8  1  0
  3  9  1  0
  3 10  1  0
M  END
>  <reaction>  (3) 
rmg_rxn_16774

>  <mol_properties>  (3) 
{"0": {"label": "a_hydrogen", "atom_type": "H0"}, "3": {"label": "acceptor", "atom_type": "N3s"}}

>  <type>  (3) 
r2h

$$$$

     RDKit          3D

 17 15  0  0  0  0  0  0  0  0999 V2000
    2.5979   -0.5669    0.2399 C   0  0  0  0  0  0  0  0  0  0  0  0
    1.3195    0.1386   -0.0799 C   0  0  0  0  0  3  0  0  0  0  0  0
    1.2940    1.4047   -0.3239 N   0  0  0  0  0  0  0  0  0  0  0  0
    2.5101   -1.0279    1.2270 H   0  0  0  0  0  0  0  0  0  0  0  0
    2.8194   -1.3340   -0.5060 H   0  0  0  0  0  0  0  0  0  0  0  0
    3.4088    0.1653    0.2667 H   0  0  0  0  0  0  0  0  0  0  0  0
    0.2109   -0.5839   -0.1041 H   0  0  0  0  0  0  0  0  0  0  0  0
    0.3321    1.7047   -0.5207 H   0  0  0  0  0  0  0  0  0  0  0  0
   -2.0823    0.7419    0.5441 C   0  0  0  0  0  0  0  0  0  0  0  0
   -1.9474   -0.3958   -0.4538 C   0  0  0  0  0  0  0  0  0  0  0  0
   -0.8138   -1.2517   -0.1264 N   0  0  0  0  0  0  0  0  0  0  0  0
   -1.1869    1.3725    0.5499 H   0  0  0  0  0  0  0  0  0  0  0  0
   -2.9376    1.3733    0.2827 H   0  0  0  0  0  0  0  0  0  0  0  0
   -2.2411    0.3623    1.5591 H   0  0  0  0  0  0  0  0  0  0  0  0
   -1.8144    0.0080   -1.4627 H   0  0  0  0  0  0  0  0  0  0  0  0
   -2.8627   -0.9965   -0.4592 H   0  0  0  0  0  0  0  0  0  0  0  0
   -0.9261   -1.6211    0.8171 H   0  0  0  0  0  0  0  0  0  0  0  0
  1  2  1  0
  1  4  1  0
  1  5  1  0
  1  6  1  0
  2  3  2  3
  3  8  1  0
  7 11  1  0
  9 10  1  0
  9 12  1  0
  9 13  1  0
  9 14  1  0
 10 11  1  0
 10 15  1  0
 10 16  1  0
 11 17  1  0
M  RAD  1   2   2
M  END
>  <reaction>  (4) 
rmg_rxn_16774

>  <mol_properties>  (4) 
{"1": {"label": "*3", "atom_type": "Cd"}, "2": {"label": "*4", "atom_type": "N3d"}, "6": {"label": "*2", "atom_type": "H0"}, "9": {"label": "*0", "atom_type": "Cs"}, "10": {"label": "*1", "atom_type": "N3s"}}

>  <type>  (4) 
ts

$$$$

     RDKit          3D

 17 15  0  0  0  0  0  0  0  0999 V2000
    2.1041    0.9527   -0.5417 C   0  0  0  0  0  0  0  0  0  0  0  0
    1.3122   -0.0916    0.1428 C   0  0  0  0  0  3  0  0  0  0  0  0
    1.6589   -1.2778    0.2594 N   0  0  0  0  0  0  0  0  0  0  0  0
    2.2861    1.7724    0.1518 H   0  0  0  0  0  0  0  0  0  0  0  0
    3.0548    0.5607   -0.9036 H   0  0  0  0  0  0  0  0  0  0  0  0
    1.5322    1.3481   -1.3804 H   0  0  0  0  0  0  0  0  0  0  0  0
    0.1425    0.3701    0.6064 H   0  0  0  0  0  0  0  0  0  0  0  0
    1.0533   -1.9264    0.7491 H   0  0  0  0  0  0  0  0  0  0  0  0
   -1.9670   -0.2841   -1.1214 C   0  0  0  0  0  0  0  0  0  0  0  0
   -1.9513   -0.1424    0.4060 C   0  0  0  0  0  0  0  0  0  0  0  0
   -0.9681    0.7669    0.9267 N   0  0  0  0  0  0  0  0  0  0  0  0
   -1.0099   -0.6650   -1.4757 H   0  0  0  0  0  0  0  0  0  0  0  0
   -2.7502   -0.9717   -1.4307 H   0  0  0  0  0  0  0  0  0  0  0  0
   -2.1498    0.6821   -1.5901 H   0  0  0  0  0  0  0  0  0  0  0  0
   -1.7731   -1.1208    0.8648 H   0  0  0  0  0  0  0  0  0  0  0  0
   -2.9401    0.2021    0.7384 H   0  0  0  0  0  0  0  0  0  0  0  0
   -1.0640    1.6697    0.4658 H   0  0  0  0  0  0  0  0  0  0  0  0
  1  2  1  0
  1  4  1  0
  1  5  1  0
  1  6  1  0
  2  3  2  3
  3  8  1  0
  7 11  1  0
  9 10  1  0
  9 12  1  0
  9 13  1  0
  9 14  1  0
 10 11  1  0
 10 15  1  0
 10 16  1  0
 11 17  1  0
M  RAD  1   2   2
M  END
>  <reaction>  (5) 
rmg_rxn_16774

>  <mol_properties>  (5) 
{"1": {"label": "*3", "atom_type": "Cd"}, "2": {"label": "*4", "atom_type": "N3d"}, "6": {"label": "*2", "atom_type": "H0"}, "9": {"label": "*0", "atom_type": "Cs"}, "10": {"label": "*1", "atom_type": "N3s"}}

>  <type>  (5) 
unop_1

>  <geom_source>  (5) 
crest_best.xyz

$$$$

     RDKit          3D

 17 15  0  0  0  0  0  0  0  0999 V2000
   -0.5906    1.1579   -2.1181 C   0  0  0  0  0  0  0  0  0  0  0  0
   -0.5906    1.1579   -0.6234 C   0  0  0  0  0  3  0  0  0  0  0  0
   -0.5906    2.2589    0.0482 N   0  0  0  0  0  0  0  0  0  0  0  0
    0.2968    0.6269   -2.4718 H   0  0  0  0  0  0  0  0  0  0  0  0
   -1.4889    0.6750   -2.5100 H   0  0  0  0  0  0  0  0  0  0  0  0
   -0.5441    2.1910   -2.4718 H   0  0  0  0  0  0  0  0  0  0  0  0
   -0.5906   -0.0154   -0.0111 H   0  0  0  0  0  0  0  0  0  0  0  0
   -0.5906    2.0559    1.0546 H   0  0  0  0  0  0  0  0  0  0  0  0
    1.6805   -2.0250    0.6952 C   0  0  0  0  0  0  0  0  0  0  0  0
    0.5989   -1.2151    1.3896 C   0  0  0  0  0  0  0  0  0  0  0  0
   -0.5906   -1.1000    0.5549 N   0  0  0  0  0  0  0  0  0  0  0  0
    1.9853   -1.5549   -0.2459 H   0  0  0  0  0  0  0  0  0  0  0  0
    2.5649   -2.1008    1.3359 H   0  0  0  0  0  0  0  0  0  0  0  0
    1.3355   -3.0408    0.4751 H   0  0  0  0  0  0  0  0  0  0  0  0
    0.9750   -0.2133    1.6210 H   0  0  0  0  0  0  0  0  0  0  0  0
    0.3288   -1.6909    2.3379 H   0  0  0  0  0  0  0  0  0  0  0  0
   -0.9384   -2.0305    0.3259 H   0  0  0  0  0  0  0  0  0  0  0  0
  1  2  1  0
  1  4  1  0
  1  5  1  0
  1  6  1  0
  2  3  2  3
  3  8  1  0
  7 11  1  0
  9 10  1  0
  9 12  1  0
  9 13  1  0
  9 14  1  0
 10 11  1  0
 10 15  1  0
 10 16  1  0
 11 17  1  0
M  RAD  1   2   2
M  END
>  <reaction>  (6) 
rmg_rxn_16774

>  <mol_properties>  (6) 
{"1": {"label": "*3", "atom_type": "Cd"}, "2": {"label": "*4", "atom_type": "N3d"}, "6": {"label": "*2", "atom_type": "H0"}, "9": {"label": "*0", "atom_type": "Cs"}, "10": {"label": "*1", "atom_type": "N3s"}}

>  <type>  (6) 
unop_2

>  <geom_source>  (6) 
Heuristics

$$$$

     RDKit          3D

 17 15  0  0  0  0  0  0  0  0999 V2000
   -0.0733    1.3898   -1.4773 C   0  0  0  0  0  0  0  0  0  0  0  0
   -0.0733    1.3898    0.0174 C   0  0  0  0  0  3  0  0  0  0  0  0
   -0.0733    2.4907    0.6890 N   0  0  0  0  0  0  0  0  0  0  0  0
    0.8141    0.8587   -1.8310 H   0  0  0  0  0  0  0  0  0  0  0  0
   -0.9716    0.9069   -1.8692 H   0  0  0  0  0  0  0  0  0  0  0  0
   -0.0268    2.4229   -1.8310 H   0  0  0  0  0  0  0  0  0  0  0  0
   -0.0733    0.2165    0.6297 H   0  0  0  0  0  0  0  0  0  0  0  0
   -0.0733    2.2878    1.6954 H   0  0  0  0  0  0  0  0  0  0  0  0
   -0.2697   -2.3169   -0.7780 C   0  0  0  0  0  0  0  0  0  0  0  0
    0.6134   -1.8512    0.3671 C   0  0  0  0  0  0  0  0  0  0  0  0
   -0.0733   -0.8681    1.1957 N   0  0  0  0  0  0  0  0  0  0  0  0
   -0.5509   -1.4808   -1.4272 H   0  0  0  0  0  0  0  0  0  0  0  0
    0.2618   -3.0538   -1.3886 H   0  0  0  0  0  0  0  0  0  0  0  0
   -1.1869   -2.7857   -0.4060 H   0  0  0  0  0  0  0  0  0  0  0  0
    1.5335   -1.4091   -0.0286 H   0  0  0  0  0  0  0  0  0  0  0  0
    0.9010   -2.7067    0.9868 H   0  0  0  0  0  0  0  0  0  0  0  0
   -0.9375   -1.2702    1.5573 H   0  0  0  0  0  0  0  0  0  0  0  0
  1  2  1  0
  1  4  1  0
  1  5  1  0
  1  6  1  0
  2  3  2  3
  3  8  1  0
  7 11  1  0
  9 10  1  0
  9 12  1  0
  9 13  1  0
  9 14  1  0
 10 11  1  0
 10 15  1  0
 10 16  1  0
 11 17  1  0
M  RAD  1   2   2
M  END
>  <reaction>  (7) 
rmg_rxn_16774

>  <mol_properties>  (7) 
{"1": {"label": "*3", "atom_type": "Cd"}, "2": {"label": "*4", "atom_type": "N3d"}, "6": {"label": "*2", "atom_type": "H0"}, "9": {"label": "*0", "atom_type": "Cs"}, "10": {"label": "*1", "atom_type": "N3s"}}

>  <type>  (7) 
unop_3

>  <geom_source>  (7) 
Heuristics

$$$$

     RDKit          3D

 17 15  0  0  0  0  0  0  0  0999 V2000
   -0.4954    0.9788   -2.3621 C   0  0  0  0  0  0  0  0  0  0  0  0
   -0.4954    0.9788   -0.8674 C   0  0  0  0  0  3  0  0  0  0  0  0
   -0.4954    2.0798   -0.1957 N   0  0  0  0  0  0  0  0  0  0  0  0
    0.3920    0.4478   -2.7158 H   0  0  0  0  0  0  0  0  0  0  0  0
   -1.3937    0.4959   -2.7540 H   0  0  0  0  0  0  0  0  0  0  0  0
   -0.4489    2.0119   -2.7158 H   0  0  0  0  0  0  0  0  0  0  0  0
   -0.4954   -0.1945   -0.2550 H   0  0  0  0  0  0  0  0  0  0  0  0
   -0.4954    1.8768    0.8106 H   0  0  0  0  0  0  0  0  0  0  0  0
    1.6845   -1.3959    1.4369 C   0  0  0  0  0  0  0  0  0  0  0  0
    0.1914   -1.1616    1.5914 C   0  0  0  0  0  0  0  0  0  0  0  0
   -0.4954   -1.2791    0.3110 N   0  0  0  0  0  0  0  0  0  0  0  0
    2.1325   -0.6637    0.7568 H   0  0  0  0  0  0  0  0  0  0  0  0
    2.1830   -1.3038    2.4072 H   0  0  0  0  0  0  0  0  0  0  0  0
    1.8902   -2.3980    1.0459 H   0  0  0  0  0  0  0  0  0  0  0  0
    0.0122   -0.1643    2.0061 H   0  0  0  0  0  0  0  0  0  0  0  0
   -0.2287   -1.8889    2.2935 H   0  0  0  0  0  0  0  0  0  0  0  0
   -0.3220   -2.2019   -0.0861 H   0  0  0  0  0  0  0  0  0  0  0  0
  1  2  1  0
  1  4  1  0
  1  5  1  0
  1  6  1  0
  2  3  2  3
  3  8  1  0
  7 11  1  0
  9 10  1  0
  9 12  1  0
  9 13  1  0
  9 14  1  0
 10 11  1  0
 10 15  1  0
 10 16  1  0
 11 17  1  0
M  RAD  1   2   2
M  END
>  <reaction>  (8) 
rmg_rxn_16774

>  <mol_properties>  (8) 
{"1": {"label": "*3", "atom_type": "Cd"}, "2": {"label": "*4", "atom_type": "N3d"}, "6": {"label": "*2", "atom_type": "H0"}, "9": {"label": "*0", "atom_type": "Cs"}, "10": {"label": "*1", "atom_type": "N3s"}}

>  <type>  (8) 
unop_4

>  <geom_source>  (8) 
Heuristics

$$$$

     RDKit          3D

 17 15  0  0  0  0  0  0  0  0999 V2000
    0.6025    1.0571   -1.7554 C   0  0  0  0  0  0  0  0  0  0  0  0
    0.6025    1.0571   -0.2607 C   0  0  0  0  0  3  0  0  0  0  0  0
    0.6025    2.1581    0.4109 N   0  0  0  0  0  0  0  0  0  0  0  0
    1.4898    0.5261   -2.1091 H   0  0  0  0  0  0  0  0  0  0  0  0
   -0.2959    0.5742   -2.1473 H   0  0  0  0  0  0  0  0  0  0  0  0
    0.6489    2.0902   -2.1091 H   0  0  0  0  0  0  0  0  0  0  0  0
    0.6025   -0.1162    0.3516 H   0  0  0  0  0  0  0  0  0  0  0  0
    0.6025    1.9551    1.4173 H   0  0  0  0  0  0  0  0  0  0  0  0
   -1.7034   -1.0216    0.0905 C   0  0  0  0  0  0  0  0  0  0  0  0
   -0.5870   -1.9513    0.5347 C   0  0  0  0  0  0  0  0  0  0  0  0
    0.6025   -1.2008    0.9176 N   0  0  0  0  0  0  0  0  0  0  0  0
   -1.4005   -0.4239   -0.7759 H   0  0  0  0  0  0  0  0  0  0  0  0
   -2.5872   -1.6020   -0.1929 H   0  0  0  0  0  0  0  0  0  0  0  0
   -1.9931   -0.3371    0.8949 H   0  0  0  0  0  0  0  0  0  0  0  0
   -0.3321   -2.6409   -0.2765 H   0  0  0  0  0  0  0  0  0  0  0  0
   -0.9214   -2.5547    1.3849 H   0  0  0  0  0  0  0  0  0  0  0  0
    0.3684   -0.5478    1.6648 H   0  0  0  0  0  0  0  0  0  0  0  0
  1  2  1  0
  1  4  1  0
  1  5  1  0
  1  6  1  0
  2  3  2  3
  3  8  1  0
  7 11  1  0
  9 10  1  0
  9 12  1  0
  9 13  1  0
  9 14  1  0
 10 11  1  0
 10 15  1  0
 10 16  1  0
 11 17  1  0
M  RAD  1   2   2
M  END
>  <reaction>  (9) 
rmg_rxn_16774

>  <mol_properties>  (9) 
{"1": {"label": "*3", "atom_type": "Cd"}, "2": {"label": "*4", "atom_type": "N3d"}, "6": {"label": "*2", "atom_type": "H0"}, "9": {"label": "*0", "atom_type": "Cs"}, "10": {"label": "*1", "atom_type": "N3s"}}

>  <type>  (9) 
unop_5

>  <geom_source>  (9) 
Heuristics

$$$$

     RDKit          3D

 17 15  0  0  0  0  0  0  0  0999 V2000
   -0.2174    0.7619   -2.5217 C   0  0  0  0  0  0  0  0  0  0  0  0
   -0.2174    0.7619   -1.0270 C   0  0  0  0  0  3  0  0  0  0  0  0
   -0.2174    1.8629   -0.3554 N   0  0  0  0  0  0  0  0  0  0  0  0
    0.6700    0.2309   -2.8754 H   0  0  0  0  0  0  0  0  0  0  0  0
   -1.1158    0.2790   -2.9136 H   0  0  0  0  0  0  0  0  0  0  0  0
   -0.1709    1.7950   -2.8754 H   0  0  0  0  0  0  0  0  0  0  0  0
   -0.2174   -0.4114   -0.4147 H   0  0  0  0  0  0  0  0  0  0  0  0
   -0.2174    1.6599    0.6510 H   0  0  0  0  0  0  0  0  0  0  0  0
    0.9821   -0.4708    2.0337 C   0  0  0  0  0  0  0  0  0  0  0  0
   -0.2174   -1.2934    1.5949 C   0  0  0  0  0  0  0  0  0  0  0  0
   -0.2174   -1.4960    0.1514 N   0  0  0  0  0  0  0  0  0  0  0  0
    0.9775    0.5187    1.5643 H   0  0  0  0  0  0  0  0  0  0  0  0
    0.9655   -0.3290    3.1191 H   0  0  0  0  0  0  0  0  0  0  0  0
    1.9217   -0.9696    1.7732 H   0  0  0  0  0  0  0  0  0  0  0  0
   -1.1429   -0.7871    1.8876 H   0  0  0  0  0  0  0  0  0  0  0  0
   -0.2040   -2.2670    2.0953 H   0  0  0  0  0  0  0  0  0  0  0  0
    0.6480   -1.9563   -0.1289 H   0  0  0  0  0  0  0  0  0  0  0  0
  1  2  1  0
  1  4  1  0
  1  5  1  0
  1  6  1  0
  2  3  2  3
  3  8  1  0
  7 11  1  0
  9 10  1  0
  9 12  1  0
  9 13  1  0
  9 14  1  0
 10 11  1  0
 10 15  1  0
 10 16  1  0
 11 17  1  0
M  RAD  1   2   2
M  END
>  <reaction>  (10) 
rmg_rxn_16774

>  <mol_properties>  (10) 
{"1": {"label": "*3", "atom_type": "Cd"}, "2": {"label": "*4", "atom_type": "N3d"}, "6": {"label": "*2", "atom_type": "H0"}, "9": {"label": "*0", "atom_type": "Cs"}, "10": {"label": "*1", "atom_type": "N3s"}}

>  <type>  (10) 
unop_6

>  <geom_source>  (10) 
Heuristics

$$$$

     RDKit          3D

 17 15  0  0  0  0  0  0  0  0999 V2000
    0.6350    0.9075   -2.0154 C   0  0  0  0  0  0  0  0  0  0  0  0
    0.6350    0.9075   -0.5207 C   0  0  0  0  0  3  0  0  0  0  0  0
    0.6350    2.0085    0.1509 N   0  0  0  0  0  0  0  0  0  0  0  0
    1.5224    0.3765   -2.3691 H   0  0  0  0  0  0  0  0  0  0  0  0
   -0.2633    0.4246   -2.4073 H   0  0  0  0  0  0  0  0  0  0  0  0
    0.6815    1.9406   -2.3691 H   0  0  0  0  0  0  0  0  0  0  0  0
    0.6350   -0.2658    0.0916 H   0  0  0  0  0  0  0  0  0  0  0  0
    0.6350    1.8055    1.1573 H   0  0  0  0  0  0  0  0  0  0  0  0
   -1.7096   -0.6233    0.7432 C   0  0  0  0  0  0  0  0  0  0  0  0
   -0.7385   -1.7832    0.8835 C   0  0  0  0  0  0  0  0  0  0  0  0
    0.6350   -1.3503    0.6576 N   0  0  0  0  0  0  0  0  0  0  0  0
   -1.6646   -0.1877   -0.2606 H   0  0  0  0  0  0  0  0  0  0  0  0
   -2.7346   -0.9667    0.9160 H   0  0  0  0  0  0  0  0  0  0  0  0
   -1.4916    0.1665    1.4699 H   0  0  0  0  0  0  0  0  0  0  0  0
   -0.9913   -2.5692    0.1646 H   0  0  0  0  0  0  0  0  0  0  0  0
   -0.8193   -2.2170    1.8854 H   0  0  0  0  0  0  0  0  0  0  0  0
    0.8723   -0.6094    1.3165 H   0  0  0  0  0  0  0  0  0  0  0  0
  1  2  1  0
  1  4  1  0
  1  5  1  0
  1  6  1  0
  2  3  2  3
  3  8  1  0
  7 11  1  0
  9 10  1  0
  9 12  1  0
  9 13  1  0
  9 14  1  0
 10 11  1  0
 10 15  1  0
 10 16  1  0
 11 17  1  0
M  RAD  1   2   2
M  END
>  <reaction>  (11) 
rmg_rxn_16774

>  <mol_properties>  (11) 
{"1": {"label": "*3", "atom_type": "Cd"}, "2": {"label": "*4", "atom_type": "N3d"}, "6": {"label": "*2", "atom_type": "H0"}, "9": {"label": "*0", "atom_type": "Cs"}, "10": {"label": "*1", "atom_type": "N3s"}}

>  <type>  (11) 
unop_7

>  <geom_source>  (11) 
Heuristics

$$$$

     RDKit          3D

 17 15  0  0  0  0  0  0  0  0999 V2000
    0.5099    0.7658   -2.2860 C   0  0  0  0  0  0  0  0  0  0  0  0
    0.5099    0.7658   -0.7913 C   0  0  0  0  0  3  0  0  0  0  0  0
    0.5099    1.8667   -0.1197 N   0  0  0  0  0  0  0  0  0  0  0  0
    1.3972    0.2347   -2.6397 H   0  0  0  0  0  0  0  0  0  0  0  0
   -0.3885    0.2828   -2.6779 H   0  0  0  0  0  0  0  0  0  0  0  0
    0.5563    1.7988   -2.6397 H   0  0  0  0  0  0  0  0  0  0  0  0
    0.5099   -0.4075   -0.1790 H   0  0  0  0  0  0  0  0  0  0  0  0
    0.5099    1.6637    0.8867 H   0  0  0  0  0  0  0  0  0  0  0  0
   -1.3197   -0.2494    1.4554 C   0  0  0  0  0  0  0  0  0  0  0  0
   -0.6796   -1.6072    1.2217 C   0  0  0  0  0  0  0  0  0  0  0  0
    0.5099   -1.4921    0.3870 N   0  0  0  0  0  0  0  0  0  0  0  0
   -1.6261    0.2124    0.5108 H   0  0  0  0  0  0  0  0  0  0  0  0
   -2.2102   -0.3553    2.0833 H   0  0  0  0  0  0  0  0  0  0  0  0
   -0.6288    0.4327    1.9623 H   0  0  0  0  0  0  0  0  0  0  0  0
   -1.3963   -2.2780    0.7370 H   0  0  0  0  0  0  0  0  0  0  0  0
   -0.4046   -2.0589    2.1804 H   0  0  0  0  0  0  0  0  0  0  0  0
    1.1762   -0.8587    0.8276 H   0  0  0  0  0  0  0  0  0  0  0  0
  1  2  1  0
  1  4  1  0
  1  5  1  0
  1  6  1  0
  2  3  2  3
  3  8  1  0
  7 11  1  0
  9 10  1  0
  9 12  1  0
  9 13  1  0
  9 14  1  0
 10 11  1  0
 10 15  1  0
 10 16  1  0
 11 17  1  0
M  RAD  1   2   2
M  END
>  <reaction>  (12) 
rmg_rxn_16774

>  <mol_properties>  (12) 
{"1": {"label": "*3", "atom_type": "Cd"}, "2": {"label": "*4", "atom_type": "N3d"}, "6": {"label": "*2", "atom_type": "H0"}, "9": {"label": "*0", "atom_type": "Cs"}, "10": {"label": "*1", "atom_type": "N3s"}}

>  <type>  (12) 
unop_8

>  <geom_source>  (12) 
Heuristics

$$$$

     RDKit          3D

 17 15  0  0  0  0  0  0  0  0999 V2000
   -0.5406    1.2968   -1.8488 C   0  0  0  0  0  0  0  0  0  0  0  0
   -0.5406    1.2968   -0.3541 C   0  0  0  0  0  3  0  0  0  0  0  0
   -0.5406    2.3977    0.3175 N   0  0  0  0  0  0  0  0  0  0  0  0
    0.3468    0.7657   -2.2025 H   0  0  0  0  0  0  0  0  0  0  0  0
   -1.4389    0.8138   -2.2407 H   0  0  0  0  0  0  0  0  0  0  0  0
   -0.4941    2.3299   -2.2025 H   0  0  0  0  0  0  0  0  0  0  0  0
   -0.5406    0.1235    0.2582 H   0  0  0  0  0  0  0  0  0  0  0  0
   -0.5406    2.1948    1.3239 H   0  0  0  0  0  0  0  0  0  0  0  0
    1.2775   -2.3857   -0.0114 C   0  0  0  0  0  0  0  0  0  0  0  0
    0.8329   -1.3939    1.0502 C   0  0  0  0  0  0  0  0  0  0  0  0
   -0.5406   -0.9611    0.8243 N   0  0  0  0  0  0  0  0  0  0  0  0
    1.2345   -1.9418   -1.0116 H   0  0  0  0  0  0  0  0  0  0  0  0
    2.3098   -2.6992    0.1742 H   0  0  0  0  0  0  0  0  0  0  0  0
    0.6470   -3.2812   -0.0062 H   0  0  0  0  0  0  0  0  0  0  0  0
    1.4921   -0.5198    1.0420 H   0  0  0  0  0  0  0  0  0  0  0  0
    0.9079   -1.8518    2.0418 H   0  0  0  0  0  0  0  0  0  0  0  0
   -1.1578   -1.7725    0.8185 H   0  0  0  0  0  0  0  0  0  0  0  0
  1  2  1  0
  1  4  1  0
  1  5  1  0
  1  6  1  0
  2  3  2  3
  3  8  1  0
  7 11  1  0
  9 10  1  0
  9 12  1  0
  9 13  1  0
  9 14  1  0
 10 11  1  0
 10 15  1  0
 10 16  1  0
 11 17  1  0
M  RAD  1   2   2
M  END
>  <reaction>  (13) 
rmg_rxn_16774

>  <mol_properties>  (13) 
{"1": {"label": "*3", "atom_type": "Cd"}, "2": {"label": "*4", "atom_type": "N3d"}, "6": {"label": "*2", "atom_type": "H0"}, "9": {"label": "*0", "atom_type": "Cs"}, "10": {"label": "*1", "atom_type": "N3s"}}

>  <type>  (13) 
unop_9

>  <geom_source>  (13) 
Heuristics

$$$$

     RDKit          3D

 17 15  0  0  0  0  0  0  0  0999 V2000
    2.1041    0.9527   -0.5417 C   0  0  0  0  0  0  0  0  0  0  0  0
    1.3122   -0.0916    0.1428 C   0  0  0  0  0  3  0  0  0  0  0  0
    1.6589   -1.2778    0.2594 N   0  0  0  0  0  0  0  0  0  0  0  0
    2.2861    1.7724    0.1518 H   0  0  0  0  0  0  0  0  0  0  0  0
    3.0548    0.5607   -0.9036 H   0  0  0  0  0  0  0  0  0  0  0  0
    1.5322    1.3481   -1.3804 H   0  0  0  0  0  0  0  0  0  0  0  0
    0.1425    0.3701    0.6064 H   0  0  0  0  0  0  0  0  0  0  0  0
    1.0533   -1.9264    0.7491 H   0  0  0  0  0  0  0  0  0  0  0  0
   -1.9670   -0.2841   -1.1214 C   0  0  0  0  0  0  0  0  0  0  0  0
   -1.9513   -0.1424    0.4060 C   0  0  0  0  0  0  0  0  0  0  0  0
   -0.9681    0.7669    0.9267 N   0  0  0  0  0  0  0  0  0  0  0  0
   -1.0099   -0.6650   -1.4757 H   0  0  0  0  0  0  0  0  0  0  0  0
   -2.7502   -0.9717   -1.4307 H   0  0  0  0  0  0  0  0  0  0  0  0
   -2.1498    0.6821   -1.5901 H   0  0  0  0  0  0  0  0  0  0  0  0
   -1.7731   -1.1208    0.8648 H   0  0  0  0  0  0  0  0  0  0  0  0
   -2.9401    0.2021    0.7384 H   0  0  0  0  0  0  0  0  0  0  0  0
   -1.0640    1.6697    0.4658 H   0  0  0  0  0  0  0  0  0  0  0  0
  1  2  1  0
  1  4  1  0
  1  5  1  0
  1  6  1  0
  2  3  2  3
  3  8  1  0
  7 11  1  0
  9 10  1  0
  9 12  1  0
  9 13  1  0
  9 14  1  0
 10 11  1  0
 10 15  1  0
 10 16  1  0
 11 17  1  0
M  RAD  1   2   2
M  END
>  <reaction>  (14) 
rmg_rxn_16774

>  <mol_properties>  (14) 
{"1": {"label": "*3", "atom_type": "Cd"}, "2": {"label": "*4", "atom_type": "N3d"}, "6": {"label": "*2", "atom_type": "H0"}, "9": {"label": "*0", "atom_type": "Cs"}, "10": {"label": "*1", "atom_type": "N3s"}}

>  <type>  (14) 
unop_10

>  <geom_source>  (14) 
Heuristics

$$$$

     RDKit          3D

 17 15  0  0  0  0  0  0  0  0999 V2000
    0.4514    1.1953   -1.5606 C   0  0  0  0  0  0  0  0  0  0  0  0
    0.4514    1.1953   -0.0659 C   0  0  0  0  0  3  0  0  0  0  0  0
    0.4514    2.2962    0.6057 N   0  0  0  0  0  0  0  0  0  0  0  0
    1.3388    0.6642   -1.9143 H   0  0  0  0  0  0  0  0  0  0  0  0
   -0.4469    0.7124   -1.9525 H   0  0  0  0  0  0  0  0  0  0  0  0
    0.4979    2.2284   -1.9143 H   0  0  0  0  0  0  0  0  0  0  0  0
    0.4514    0.0220    0.5464 H   0  0  0  0  0  0  0  0  0  0  0  0
    0.4514    2.0933    1.6121 H   0  0  0  0  0  0  0  0  0  0  0  0
   -1.4468   -1.4362   -0.4009 C   0  0  0  0  0  0  0  0  0  0  0  0
   -0.2353   -2.0457    0.2838 C   0  0  0  0  0  0  0  0  0  0  0  0
    0.4514   -1.0626    1.1124 N   0  0  0  0  0  0  0  0  0  0  0  0
   -1.1576   -0.6043   -1.0519 H   0  0  0  0  0  0  0  0  0  0  0  0
   -1.9492   -2.1881   -1.0179 H   0  0  0  0  0  0  0  0  0  0  0  0
   -2.1703   -1.0629    0.3316 H   0  0  0  0  0  0  0  0  0  0  0  0
    0.4608   -2.4332   -0.4671 H   0  0  0  0  0  0  0  0  0  0  0  0
   -0.5463   -2.8892    0.9087 H   0  0  0  0  0  0  0  0  0  0  0  0
   -0.1956   -0.6890    1.8062 H   0  0  0  0  0  0  0  0  0  0  0  0
  1  2  1  0
  1  4  1  0
  1  5  1  0
  1  6  1  0
  2  3  2  3
  3  8  1  0
  7 11  1  0
  9 10  1  0
  9 12  1  0
  9 13  1  0
  9 14  1  0
 10 11  1  0
 10 15  1  0
 10 16  1  0
 11 17  1  0
M  RAD  1   2   2
M  END
>  <reaction>  (15) 
rmg_rxn_16774

>  <mol_properties>  (15) 
{"1": {"label": "*3", "atom_type": "Cd"}, "2": {"label": "*4", "atom_type": "N3d"}, "6": {"label": "*2", "atom_type": "H0"}, "9": {"label": "*0", "atom_type": "Cs"}, "10": {"label": "*1", "atom_type": "N3s"}}

>  <type>  (15) 
unop_11

>  <geom_source>  (15) 
Heuristics

$$$$

     RDKit          3D

 17 15  0  0  0  0  0  0  0  0999 V2000
   -0.3528    1.3829   -1.6159 C   0  0  0  0  0  0  0  0  0  0  0  0
   -0.3528    1.3829   -0.1212 C   0  0  0  0  0  3  0  0  0  0  0  0
   -0.3528    2.4839    0.5504 N   0  0  0  0  0  0  0  0  0  0  0  0
    0.5346    0.8519   -1.9696 H   0  0  0  0  0  0  0  0  0  0  0  0
   -1.2511    0.9000   -2.0078 H   0  0  0  0  0  0  0  0  0  0  0  0
   -0.3063    2.4160   -1.9696 H   0  0  0  0  0  0  0  0  0  0  0  0
   -0.3528    0.2096    0.4911 H   0  0  0  0  0  0  0  0  0  0  0  0
   -0.3528    2.2809    1.5568 H   0  0  0  0  0  0  0  0  0  0  0  0
    0.5683   -2.4967   -0.5412 C   0  0  0  0  0  0  0  0  0  0  0  0
    0.8367   -1.6255    0.6742 C   0  0  0  0  0  0  0  0  0  0  0  0
   -0.3528   -0.8749    1.0571 N   0  0  0  0  0  0  0  0  0  0  0  0
    0.2708   -1.8921   -1.4045 H   0  0  0  0  0  0  0  0  0  0  0  0
    1.4714   -3.0521   -0.8138 H   0  0  0  0  0  0  0  0  0  0  0  0
   -0.2266   -3.2230   -0.3407 H   0  0  0  0  0  0  0  0  0  0  0  0
    1.6502   -0.9255    0.4579 H   0  0  0  0  0  0  0  0  0  0  0  0
    1.1557   -2.2489    1.5158 H   0  0  0  0  0  0  0  0  0  0  0  0
   -1.1177   -1.5213    1.2480 H   0  0  0  0  0  0  0  0  0  0  0  0
  1  2  1  0
  1  4  1  0
  1  5  1  0
  1  6  1  0
  2  3  2  3
  3  8  1  0
  7 11  1  0
  9 10  1  0
  9 12  1  0
  9 13  1  0
  9 14  1  0
 10 11  1  0
 10 15  1  0
 10 16  1  0
 11 17  1  0
M  RAD  1   2   2
M  END
>  <reaction>  (16) 
rmg_rxn_16774

>  <mol_properties>  (16) 
{"1": {"label": "*3", "atom_type": "Cd"}, "2": {"label": "*4", "atom_type": "N3d"}, "6": {"label": "*2", "atom_type": "H0"}, "9": {"label": "*0", "atom_type": "Cs"}, "10": {"label": "*1", "atom_type": "N3s"}}

>  <type>  (16) 
unop_12

>  <geom_source>  (16) 
Heuristics

$$$$

     RDKit          3D

 17 15  0  0  0  0  0  0  0  0999 V2000
    0.2058    0.6809   -2.4896 C   0  0  0  0  0  0  0  0  0  0  0  0
    0.2058    0.6809   -0.9949 C   0  0  0  0  0  3  0  0  0  0  0  0
    0.2058    1.7819   -0.3233 N   0  0  0  0  0  0  0  0  0  0  0  0
    1.0932    0.1499   -2.8433 H   0  0  0  0  0  0  0  0  0  0  0  0
   -0.6926    0.1980   -2.8815 H   0  0  0  0  0  0  0  0  0  0  0  0
    0.2523    1.7140   -2.8433 H   0  0  0  0  0  0  0  0  0  0  0  0
    0.2058   -0.4923   -0.3826 H   0  0  0  0  0  0  0  0  0  0  0  0
    0.2058    1.5789    0.6831 H   0  0  0  0  0  0  0  0  0  0  0  0
   -0.3780   -0.0472    2.0144 C   0  0  0  0  0  0  0  0  0  0  0  0
   -0.4809   -1.4595    1.4638 C   0  0  0  0  0  0  0  0  0  0  0  0
    0.2058   -1.5769    0.1834 N   0  0  0  0  0  0  0  0  0  0  0  0
   -0.8322    0.6786    1.3315 H   0  0  0  0  0  0  0  0  0  0  0  0
   -0.8987    0.0220    2.9749 H   0  0  0  0  0  0  0  0  0  0  0  0
    0.6664    0.2404    2.1755 H   0  0  0  0  0  0  0  0  0  0  0  0
   -1.5332   -1.7327    1.3346 H   0  0  0  0  0  0  0  0  0  0  0  0
   -0.0430   -2.1685    2.1739 H   0  0  0  0  0  0  0  0  0  0  0  0
    1.1839   -1.3118    0.2950 H   0  0  0  0  0  0  0  0  0  0  0  0
  1  2  1  0
  1  4  1  0
  1  5  1  0
  1  6  1  0
  2  3  2  3
  3  8  1  0
  7 11  1  0
  9 10  1  0
  9 12  1  0
  9 13  1  0
  9 14  1  0
 10 11  1  0
 10 15  1  0
 10 16  1  0
 11 17  1  0
M  RAD  1   2   2
M  END
>  <reaction>  (17) 
rmg_rxn_16774

>  <mol_properties>  (17) 
{"1": {"label": "*3", "atom_type": "Cd"}, "2": {"label": "*4", "atom_type": "N3d"}, "6": {"label": "*2", "atom_type": "H0"}, "9": {"label": "*0", "atom_type": "Cs"}, "10": {"label": "*1", "atom_type": "N3s"}}

>  <type>  (17) 
unop_13

>  <geom_source>  (17) 
Heuristics

$$$$

     RDKit          3D

 17 15  0  0  0  0  0  0  0  0999 V2000
    0.2166    1.3153   -1.4613 C   0  0  0  0  0  0  0  0  0  0  0  0
    0.2166    1.3153    0.0334 C   0  0  0  0  0  3  0  0  0  0  0  0
    0.2166    2.4162    0.7050 N   0  0  0  0  0  0  0  0  0  0  0  0
    1.1040    0.7842   -1.8150 H   0  0  0  0  0  0  0  0  0  0  0  0
   -0.6817    0.8323   -1.8532 H   0  0  0  0  0  0  0  0  0  0  0  0
    0.2631    2.3484   -1.8150 H   0  0  0  0  0  0  0  0  0  0  0  0
    0.2166    0.1420    0.6457 H   0  0  0  0  0  0  0  0  0  0  0  0
    0.2166    2.2133    1.7114 H   0  0  0  0  0  0  0  0  0  0  0  0
   -0.9829   -1.9004   -0.7058 C   0  0  0  0  0  0  0  0  0  0  0  0
    0.2166   -2.0109    0.2200 C   0  0  0  0  0  0  0  0  0  0  0  0
    0.2166   -0.9426    1.2117 N   0  0  0  0  0  0  0  0  0  0  0  0
   -0.9783   -0.9495   -1.2490 H   0  0  0  0  0  0  0  0  0  0  0  0
   -0.9663   -2.7097   -1.4428 H   0  0  0  0  0  0  0  0  0  0  0  0
   -1.9225   -1.9720   -0.1476 H   0  0  0  0  0  0  0  0  0  0  0  0
    1.1421   -1.9615   -0.3627 H   0  0  0  0  0  0  0  0  0  0  0  0
    0.2032   -2.9782    0.7325 H   0  0  0  0  0  0  0  0  0  0  0  0
   -0.6488   -0.9760    1.7496 H   0  0  0  0  0  0  0  0  0  0  0  0
  1  2  1  0
  1  4  1  0
  1  5  1  0
  1  6  1  0
  2  3  2  3
  3  8  1  0
  7 11  1  0
  9 10  1  0
  9 12  1  0
  9 13  1  0
  9 14  1  0
 10 11  1  0
 10 15  1  0
 10 16  1  0
 11 17  1  0
M  RAD  1   2   2
M  END
>  <reaction>  (18) 
rmg_rxn_16774

>  <mol_properties>  (18) 
{"1": {"label": "*3", "atom_type": "Cd"}, "2": {"label": "*4", "atom_type": "N3d"}, "6": {"label": "*2", "atom_type": "H0"}, "9": {"label": "*0", "atom_type": "Cs"}, "10": {"label": "*1", "atom_type": "N3s"}}

>  <type>  (18) 
unop_14

>  <geom_source>  (18) 
Heuristics

$$$$

     RDKit          3D

 17 15  0  0  0  0  0  0  0  0999 V2000
   -0.0733    1.3898   -1.4773 C   0  0  0  0  0  0  0  0  0  0  0  0
   -0.0733    1.3898    0.0174 C   0  0  0  0  0  3  0  0  0  0  0  0
   -0.0733    2.4907    0.6890 N   0  0  0  0  0  0  0  0  0  0  0  0
    0.8141    0.8588   -1.8310 H   0  0  0  0  0  0  0  0  0  0  0  0
   -0.9716    0.9069   -1.8692 H   0  0  0  0  0  0  0  0  0  0  0  0
   -0.0268    2.4229   -1.8310 H   0  0  0  0  0  0  0  0  0  0  0  0
   -0.0733    0.2165    0.6297 H   0  0  0  0  0  0  0  0  0  0  0  0
   -0.0733    2.2878    1.6954 H   0  0  0  0  0  0  0  0  0  0  0  0
   -0.2697   -2.3169   -0.7780 C   0  0  0  0  0  0  0  0  0  0  0  0
    0.6134   -1.8512    0.3671 C   0  0  0  0  0  0  0  0  0  0  0  0
   -0.0733   -0.8681    1.1957 N   0  0  0  0  0  0  0  0  0  0  0  0
   -0.5509   -1.4808   -1.4272 H   0  0  0  0  0  0  0  0  0  0  0  0
    0.2618   -3.0538   -1.3886 H   0  0  0  0  0  0  0  0  0  0  0  0
   -1.1869   -2.7857   -0.4060 H   0  0  0  0  0  0  0  0  0  0  0  0
    1.5335   -1.4091   -0.0286 H   0  0  0  0  0  0  0  0  0  0  0  0
    0.9011   -2.7067    0.9868 H   0  0  0  0  0  0  0  0  0  0  0  0
   -0.9375   -1.2702    1.5573 H   0  0  0  0  0  0  0  0  0  0  0  0
  1  2  1  0
  1  4  1  0
  1  5  1  0
  1  6  1  0
  2  3  2  3
  3  8  1  0
  7 11  1  0
  9 10  1  0
  9 12  1  0
  9 13  1  0
  9 14  1  0
 10 11  1  0
 10 15  1  0
 10 16  1  0
 11 17  1  0
M  RAD  1   2   2
M  END
>  <reaction>  (19) 
rmg_rxn_16774

>  <mol_properties>  (19) 
{"1": {"label": "*3", "atom_type": "Cd"}, "2": {"label": "*4", "atom_type": "N3d"}, "6": {"label": "*2", "atom_type": "H0"}, "9": {"label": "*0", "atom_type": "Cs"}, "10": {"label": "*1", "atom_type": "N3s"}}

>  <type>  (19) 
unop_15

>  <geom_source>  (19) 
gaussian_log

$$$$
