
     RDKit          3D

  5  4  0  0  0  0  0  0  0  0999 V2000
    0.7361   -0.2872    0.4035 N   0  0  0  0  0  2  0  0  0  0  0  0
   -0.3891   -0.1505   -0.3131 N   0  0  0  0  0  0  0  0  0  0  0  0
    1.4909    0.0686   -0.1831 H   0  0  0  0  0  0  0  0  0  0  0  0
   -1.1819   -0.6340    0.0744 H   0  0  0  0  0  0  0  0  0  0  0  0
   -0.3592   -0.1189   -1.3223 H   0  0  0  0  0  0  0  0  0  0  0  0
  1  2  1  0
  1  3  1  0
  2  4  1  0
  2  5  1  0
M  RAD  1   1   2
M  END
>  <reaction>  (1) 
rmg_rxn_56

>  <mol_properties>  (1) 
{"0": {"label": "donator", "atom_type": "N3s"}, "2": {"label": "d_hydrogen", "atom_type": "H0"}}

>  <type>  (1) 
r1h

$$$$

     RDKit          3D

 14 13  0  0  0  0  0  0  0  0999 V2000
    2.6194    0.1388   -0.2451 C   0  0  0  0  0  0  0  0  0  0  0  0
    1.2416   -0.4914   -0.3670 C   0  0  0  0  0  0  0  0  0  0  0  0
    0.9567   -1.8675    0.7732 S   0  0  0  0  0  0  0  0  0  0  0  0
    1.9992   -3.0673    0.1320 C   0  0  0  0  0  3  0  0  0  0  0  0
    2.1769   -4.3519    0.8615 C   0  0  0  0  0  0  0  0  0  0  0  0
    3.4009   -0.5920   -0.4552 H   0  0  0  0  0  0  0  0  0  0  0  0
    2.7219    0.9635   -0.9540 H   0  0  0  0  0  0  0  0  0  0  0  0
    2.7821    0.5262    0.7612 H   0  0  0  0  0  0  0  0  0  0  0  0
    1.0587   -0.8507   -1.3815 H   0  0  0  0  0  0  0  0  0  0  0  0
    0.4587    0.2313   -0.1333 H   0  0  0  0  0  0  0  0  0  0  0  0
    2.2677   -2.9922   -0.9152 H   0  0  0  0  0  0  0  0  0  0  0  0
    1.3745   -5.0711    0.6500 H   0  0  0  0  0  0  0  0  0  0  0  0
    3.1173   -4.8269    0.5747 H   0  0  0  0  0  0  0  0  0  0  0  0
    2.1945   -4.1971    1.9428 H   0  0  0  0  0  0  0  0  0  0  0  0
  1  2  1  0
  1  6  1  0
  1  7  1  0
  1  8  1  0
  2  3  1  0
  2  9  1  0
  2 10  1  0
  3  4  1  0
  4  5  1  0
  4 11  1  0
  5 12  1  0
  5 13  1  0
  5 14  1  0
M  RAD  1   4   2
M  END
>  <reaction>  (2) 
rmg_rxn_56

>  <mol_properties>  (2) 
{"3": {"label": "acceptor", "atom_type": "Cs"}}

>  <type>  (2) 
r2

$$$$

     RDKit          3D

 15 14  0  0  0  0  0  0  0  0999 V2000
   -2.0554    0.0723   -0.4910 C   0  0  0  0  0  0  0  0  0  0  0  0
   -0.7461   -0.6266   -0.8178 C   0  0  0  0  0  0  0  0  0  0  0  0
    0.3249    0.2591   -1.9782 S   0  0  0  0  0  0  0  0  0  0  0  0
   -0.7172    0.3642   -3.4551 C   0  0  0  0  0  0  0  0  0  0  0  0
   -1.1375   -0.9737   -4.0409 C   0  0  0  0  0  0  0  0  0  0  0  0
   -2.7005    0.1427   -1.3684 H   0  0  0  0  0  0  0  0  0  0  0  0
   -2.6016   -0.4848    0.2733 H   0  0  0  0  0  0  0  0  0  0  0  0
   -1.8758    1.0825   -0.1213 H   0  0  0  0  0  0  0  0  0  0  0  0
   -0.1320   -0.7246    0.0789 H   0  0  0  0  0  0  0  0  0  0  0  0
   -0.9254   -1.6374   -1.1879 H   0  0  0  0  0  0  0  0  0  0  0  0
   -1.5873    0.9874   -3.2422 H   0  0  0  0  0  0  0  0  0  0  0  0
   -0.1021    0.9161   -4.1678 H   0  0  0  0  0  0  0  0  0  0  0  0
   -1.7876   -1.5224   -3.3574 H   0  0  0  0  0  0  0  0  0  0  0  0
   -0.2676   -1.5962   -4.2534 H   0  0  0  0  0  0  0  0  0  0  0  0
   -1.6916   -0.8229   -4.9700 H   0  0  0  0  0  0  0  0  0  0  0  0
  1  2  1  0
  1  6  1  0
  1  7  1  0
  1  8  1  0
  2  3  1  0
  2  9  1  0
  2 10  1  0
  3  4  1  0
  4  5  1  0
  4 11  1  0
  4 12  1  0
  5 13  1  0
  5 14  1  0
  5 15  1  0
M  END
>  <reaction>  (3) 
rmg_rxn_56

>  <mol_properties>  (3) 
{"0": {"label": "a_hydrogen", "atom_type": "H0"}, "4": {"label": "acceptor", "atom_type": "Cs"}}

>  <type>  (3) 
r2h

$$$$

     RDKit          3D

 19 17  0  0  0  0  0  0  0  0999 V2000
    1.2666   -1.2002   -1.3569 N   0  0  0  0  0  2  0  0  0  0  0  0
    0.4227   -1.8809   -0.5777 N   0  0  0  0  0  0  0  0  0  0  0  0
    0.9057   -0.0256   -1.1942 H   0  0  0  0  0  0  0  0  0  0  0  0
    0.3217   -2.8581   -0.8084 H   0  0  0  0  0  0  0  0  0  0  0  0
   -0.4233   -1.4103   -0.2605 H   0  0  0  0  0  0  0  0  0  0  0  0
    1.1864    0.2572    1.9540 C   0  0  0  0  0  0  0  0  0  0  0  0
    0.1489    1.3378    1.7003 C   0  0  0  0  0  0  0  0  0  0  0  0
   -0.9128    1.0688    0.2569 S   0  0  0  0  0  0  0  0  0  0  0  0
    0.2552    1.1691   -1.0640 C   0  0  0  0  0  3  0  0  0  0  0  0
   -0.3780    1.3615   -2.4190 C   0  0  0  0  0  0  0  0  0  0  0  0
    1.8749    0.1574    1.1147 H   0  0  0  0  0  0  0  0  0  0  0  0
    1.7683    0.5065    2.8440 H   0  0  0  0  0  0  0  0  0  0  0  0
    0.7156   -0.7134    2.1089 H   0  0  0  0  0  0  0  0  0  0  0  0
    0.6202    2.3154    1.5821 H   0  0  0  0  0  0  0  0  0  0  0  0
   -0.5462    1.4141    2.5379 H   0  0  0  0  0  0  0  0  0  0  0  0
    1.0631    1.8661   -0.8394 H   0  0  0  0  0  0  0  0  0  0  0  0
   -0.8528    2.3421   -2.5110 H   0  0  0  0  0  0  0  0  0  0  0  0
    0.3807    1.2720   -3.1976 H   0  0  0  0  0  0  0  0  0  0  0  0
   -1.1372    0.5999   -2.6090 H   0  0  0  0  0  0  0  0  0  0  0  0
  1  2  1  0
  1  3  1  0
  2  4  1  0
  2  5  1  0
  6  7  1  0
  6 11  1  0
  6 12  1  0
  6 13  1  0
  7  8  1  0
  7 14  1  0
  7 15  1  0
  8  9  1  0
  9 10  1  0
  9 16  1  0
 10 17  1  0
 10 18  1  0
 10 19  1  0
M  RAD  2   1   2   9   2
M  END
>  <reaction>  (4) 
rmg_rxn_56

>  <mol_properties>  (4) 
{"0": {"label": "*1", "atom_type": "N3s"}, "1": {"label": "*0", "atom_type": "N3s"}, "2": {"label": "*2", "atom_type": "H0"}, "7": {"label": "*4", "atom_type": "S2s"}, "8": {"label": "*3", "atom_type": "Cs"}}

>  <type>  (4) 
ts

$$$$

     RDKit          3D

 19 17  0  0  0  0  0  0  0  0999 V2000
    0.4253   -2.2771   -1.1957 N   0  0  0  0  0  2  0  0  0  0  0  0
    0.4253   -2.2771   -2.5367 N   0  0  0  0  0  0  0  0  0  0  0  0
    0.4253   -1.1013   -0.8555 H   0  0  0  0  0  0  0  0  0  0  0  0
    0.6132   -3.1770   -2.9456 H   0  0  0  0  0  0  0  0  0  0  0  0
    0.7873   -1.4887   -3.0542 H   0  0  0  0  0  0  0  0  0  0  0  0
    0.5399    0.9223    2.6807 C   0  0  0  0  0  0  0  0  0  0  0  0
   -0.5857    1.4429    1.8023 C   0  0  0  0  0  0  0  0  0  0  0  0
   -1.0978    0.3255    0.4728 S   0  0  0  0  0  0  0  0  0  0  0  0
    0.4253    0.1566   -0.4915 C   0  0  0  0  0  3  0  0  0  0  0  0
    0.9654    1.4535   -1.0710 C   0  0  0  0  0  0  0  0  0  0  0  0
    1.4692    0.8167    2.1183 H   0  0  0  0  0  0  0  0  0  0  0  0
    0.7311    1.6162    3.5021 H   0  0  0  0  0  0  0  0  0  0  0  0
    0.2868   -0.0514    3.1016 H   0  0  0  0  0  0  0  0  0  0  0  0
   -0.3328    2.4172    1.3808 H   0  0  0  0  0  0  0  0  0  0  0  0
   -1.4950    1.5810    2.3896 H   0  0  0  0  0  0  0  0  0  0  0  0
    1.1830   -0.3467    0.1113 H   0  0  0  0  0  0  0  0  0  0  0  0
    1.2836    2.1404   -0.2849 H   0  0  0  0  0  0  0  0  0  0  0  0
    1.8340    1.2534   -1.7024 H   0  0  0  0  0  0  0  0  0  0  0  0
    0.2079    1.9562   -1.6733 H   0  0  0  0  0  0  0  0  0  0  0  0
  1  2  1  0
  1  3  1  0
  2  4  1  0
  2  5  1  0
  6  7  1  0
  6 11  1  0
  6 12  1  0
  6 13  1  0
  7  8  1  0
  7 14  1  0
  7 15  1  0
  8  9  1  0
  9 10  1  0
  9 16  1  0
 10 17  1  0
 10 18  1  0
 10 19  1  0
M  RAD  2   1   2   9   2
M  END
>  <reaction>  (5) 
rmg_rxn_56

>  <mol_properties>  (5) 
{"0": {"label": "*1", "atom_type": "N3s"}, "1": {"label": "*0", "atom_type": "N3s"}, "2": {"label": "*2", "atom_type": "H0"}, "7": {"label": "*4", "atom_type": "S2s"}, "8": {"label": "*3", "atom_type": "Cs"}}

>  <type>  (5) 
unop_1

>  <geom_source>  (5) 
Heuristics

$$$$

     RDKit          3D

 19 17  0  0  0  0  0  0  0  0999 V2000
    0.5285   -2.6980   -0.0771 N   0  0  0  0  0  2  0  0  0  0  0  0
    0.5285   -2.6980   -1.4181 N   0  0  0  0  0  0  0  0  0  0  0  0
    0.5285   -1.5222    0.2631 H   0  0  0  0  0  0  0  0  0  0  0  0
    0.7165   -3.5980   -1.8270 H   0  0  0  0  0  0  0  0  0  0  0  0
    0.8905   -1.9096   -1.9356 H   0  0  0  0  0  0  0  0  0  0  0  0
   -1.7706    1.9619    1.2752 C   0  0  0  0  0  0  0  0  0  0  0  0
   -0.8608    2.1223    0.0685 C   0  0  0  0  0  0  0  0  0  0  0  0
   -0.3508    0.5724   -0.7163 S   0  0  0  0  0  0  0  0  0  0  0  0
    0.5285   -0.2643    0.6271 C   0  0  0  0  0  3  0  0  0  0  0  0
    1.7407    0.4798    1.1624 C   0  0  0  0  0  0  0  0  0  0  0  0
   -1.2575    1.4623    2.0987 H   0  0  0  0  0  0  0  0  0  0  0  0
   -2.0957    2.9399    1.6370 H   0  0  0  0  0  0  0  0  0  0  0  0
   -2.6541    1.3751    1.0215 H   0  0  0  0  0  0  0  0  0  0  0  0
    0.0235    2.7093    0.3221 H   0  0  0  0  0  0  0  0  0  0  0  0
   -1.3765    2.6595   -0.7291 H   0  0  0  0  0  0  0  0  0  0  0  0
   -0.1723   -0.4971    1.4305 H   0  0  0  0  0  0  0  0  0  0  0  0
    1.4540    1.4165    1.6434 H   0  0  0  0  0  0  0  0  0  0  0  0
    2.2582   -0.1268    1.9089 H   0  0  0  0  0  0  0  0  0  0  0  0
    2.4408    0.7124    0.3592 H   0  0  0  0  0  0  0  0  0  0  0  0
  1  2  1  0
  1  3  1  0
  2  4  1  0
  2  5  1  0
  6  7  1  0
  6 11  1  0
  6 12  1  0
  6 13  1  0
  7  8  1  0
  7 14  1  0
  7 15  1  0
  8  9  1  0
  9 10  1  0
  9 16  1  0
 10 17  1  0
 10 18  1  0
 10 19  1  0
M  RAD  2   1   2   9   2
M  END
>  <reaction>  (6) 
rmg_rxn_56

>  <mol_properties>  (6) 
{"0": {"label": "*1", "atom_type": "N3s"}, "1": {"label": "*0", "atom_type": "N3s"}, "2": {"label": "*2", "atom_type": "H0"}, "7": {"label": "*4", "atom_type": "S2s"}, "8": {"label": "*3", "atom_type": "Cs"}}

>  <type>  (6) 
unop_2

>  <geom_source>  (6) 
Heuristics

$$$$

     RDKit          3D

 19 17  0  0  0  0  0  0  0  0999 V2000
    0.1064   -2.3262   -1.2655 N   0  0  0  0  0  2  0  0  0  0  0  0
    0.1064   -2.3262   -2.6065 N   0  0  0  0  0  0  0  0  0  0  0  0
    0.1064   -1.1504   -0.9253 H   0  0  0  0  0  0  0  0  0  0  0  0
    0.2943   -3.2262   -3.0154 H   0  0  0  0  0  0  0  0  0  0  0  0
    0.4684   -1.5378   -3.1240 H   0  0  0  0  0  0  0  0  0  0  0  0
    1.4124    1.5193    2.0775 C   0  0  0  0  0  0  0  0  0  0  0  0
   -0.0893    1.5567    1.8469 C   0  0  0  0  0  0  0  0  0  0  0  0
   -0.7730    0.0975    1.0214 S   0  0  0  0  0  0  0  0  0  0  0  0
    0.1064    0.1075   -0.5613 C   0  0  0  0  0  3  0  0  0  0  0  0
   -0.1160    1.3473   -1.4115 C   0  0  0  0  0  0  0  0  0  0  0  0
    1.9616    1.5285    1.1345 H   0  0  0  0  0  0  0  0  0  0  0  0
    1.7295    2.3939    2.6498 H   0  0  0  0  0  0  0  0  0  0  0  0
    1.6997    0.6225    2.6275 H   0  0  0  0  0  0  0  0  0  0  0  0
   -0.3772    2.4538    1.2964 H   0  0  0  0  0  0  0  0  0  0  0  0
   -0.6206    1.5884    2.7996 H   0  0  0  0  0  0  0  0  0  0  0  0
    1.1705   -0.0601   -0.3868 H   0  0  0  0  0  0  0  0  0  0  0  0
    0.2928    2.2387   -0.9326 H   0  0  0  0  0  0  0  0  0  0  0  0
    0.3807    1.2378   -2.3781 H   0  0  0  0  0  0  0  0  0  0  0  0
   -1.1795    1.5145   -1.5856 H   0  0  0  0  0  0  0  0  0  0  0  0
  1  2  1  0
  1  3  1  0
  2  4  1  0
  2  5  1  0
  6  7  1  0
  6 11  1  0
  6 12  1  0
  6 13  1  0
  7  8  1  0
  7 14  1  0
  7 15  1  0
  8  9  1  0
  9 10  1  0
  9 16  1  0
 10 17  1  0
 10 18  1  0
 10 19  1  0
M  RAD  2   1   2   9   2
M  END
>  <reaction>  (7) 
rmg_rxn_56

>  <mol_properties>  (7) 
{"0": {"label": "*1", "atom_type": "N3s"}, "1": {"label": "*0", "atom_type": "N3s"}, "2": {"label": "*2", "atom_type": "H0"}, "7": {"label": "*4", "atom_type": "S2s"}, "8": {"label": "*3", "atom_type": "Cs"}}

>  <type>  (7) 
unop_3

>  <geom_source>  (7) 
Heuristics

$$$$

     RDKit          3D

 19 17  0  0  0  0  0  0  0  0999 V2000
   -0.7783   -2.5345   -0.4663 N   0  0  0  0  0  2  0  0  0  0  0  0
   -0.7783   -2.5345   -1.8073 N   0  0  0  0  0  0  0  0  0  0  0  0
   -0.7783   -1.3587   -0.1261 H   0  0  0  0  0  0  0  0  0  0  0  0
   -0.5904   -3.4345   -2.2162 H   0  0  0  0  0  0  0  0  0  0  0  0
   -0.4163   -1.7461   -2.3248 H   0  0  0  0  0  0  0  0  0  0  0  0
    0.1787    2.9572    0.8660 C   0  0  0  0  0  0  0  0  0  0  0  0
    1.2039    1.8483    0.6960 C   0  0  0  0  0  0  0  0  0  0  0  0
    0.7448    0.5570   -0.4872 S   0  0  0  0  0  0  0  0  0  0  0  0
   -0.7783   -0.1008    0.2379 C   0  0  0  0  0  3  0  0  0  0  0  0
   -0.6239   -0.6912    1.6297 C   0  0  0  0  0  0  0  0  0  0  0  0
   -0.7467    2.5816    1.3058 H   0  0  0  0  0  0  0  0  0  0  0  0
    0.5663    3.7325    1.5307 H   0  0  0  0  0  0  0  0  0  0  0  0
   -0.0640    3.4137   -0.0942 H   0  0  0  0  0  0  0  0  0  0  0  0
    1.4470    1.3911    1.6566 H   0  0  0  0  0  0  0  0  0  0  0  0
    2.1359    2.2490    0.2939 H   0  0  0  0  0  0  0  0  0  0  0  0
   -1.5497    0.6710    0.2249 H   0  0  0  0  0  0  0  0  0  0  0  0
   -0.3506    0.0727    2.3596 H   0  0  0  0  0  0  0  0  0  0  0  0
   -1.5654   -1.1366    1.9587 H   0  0  0  0  0  0  0  0  0  0  0  0
    0.1471   -1.4623    1.6423 H   0  0  0  0  0  0  0  0  0  0  0  0
  1  2  1  0
  1  3  1  0
  2  4  1  0
  2  5  1  0
  6  7  1  0
  6 11  1  0
  6 12  1  0
  6 13  1  0
  7  8  1  0
  7 14  1  0
  7 15  1  0
  8  9  1  0
  9 10  1  0
  9 16  1  0
 10 17  1  0
 10 18  1  0
 10 19  1  0
M  RAD  2   1   2   9   2
M  END
>  <reaction>  (8) 
rmg_rxn_56

>  <mol_properties>  (8) 
{"0": {"label": "*1", "atom_type": "N3s"}, "1": {"label": "*0", "atom_type": "N3s"}, "2": {"label": "*2", "atom_type": "H0"}, "7": {"label": "*4", "atom_type": "S2s"}, "8": {"label": "*3", "atom_type": "Cs"}}

>  <type>  (8) 
unop_4

>  <geom_source>  (8) 
Heuristics

$$$$

     RDKit          3D

 19 17  0  0  0  0  0  0  0  0999 V2000
   -0.0179   -2.4035   -1.2253 N   0  0  0  0  0  2  0  0  0  0  0  0
   -0.0179   -2.4035   -2.5662 N   0  0  0  0  0  0  0  0  0  0  0  0
   -0.0179   -1.2277   -0.8850 H   0  0  0  0  0  0  0  0  0  0  0  0
    0.1701   -3.3035   -2.9751 H   0  0  0  0  0  0  0  0  0  0  0  0
    0.3441   -1.6151   -3.0837 H   0  0  0  0  0  0  0  0  0  0  0  0
    1.2354    2.4727    1.2469 C   0  0  0  0  0  0  0  0  0  0  0  0
    0.0202    1.7068    1.7430 C   0  0  0  0  0  0  0  0  0  0  0  0
   -0.0179   -0.0453    1.2880 S   0  0  0  0  0  0  0  0  0  0  0  0
   -0.0179    0.0302   -0.5210 C   0  0  0  0  0  3  0  0  0  0  0  0
   -1.2020    0.7601   -1.1332 C   0  0  0  0  0  0  0  0  0  0  0  0
    1.2522    2.5329    0.1573 H   0  0  0  0  0  0  0  0  0  0  0  0
    1.2216    3.4950    1.6312 H   0  0  0  0  0  0  0  0  0  0  0  0
    2.1584    1.9923    1.5733 H   0  0  0  0  0  0  0  0  0  0  0  0
   -0.9037    2.1871    1.4164 H   0  0  0  0  0  0  0  0  0  0  0  0
   -0.0020    1.6920    2.8339 H   0  0  0  0  0  0  0  0  0  0  0  0
    0.9248    0.4574   -0.8668 H   0  0  0  0  0  0  0  0  0  0  0  0
   -1.1955    1.8201   -0.8736 H   0  0  0  0  0  0  0  0  0  0  0  0
   -1.1684    0.6895   -2.2226 H   0  0  0  0  0  0  0  0  0  0  0  0
   -2.1439    0.3329   -0.7872 H   0  0  0  0  0  0  0  0  0  0  0  0
  1  2  1  0
  1  3  1  0
  2  4  1  0
  2  5  1  0
  6  7  1  0
  6 11  1  0
  6 12  1  0
  6 13  1  0
  7  8  1  0
  7 14  1  0
  7 15  1  0
  8  9  1  0
  9 10  1  0
  9 16  1  0
 10 17  1  0
 10 18  1  0
 10 19  1  0
M  RAD  2   1   2   9   2
M  END
>  <reaction>  (9) 
rmg_rxn_56

>  <mol_properties>  (9) 
{"0": {"label": "*1", "atom_type": "N3s"}, "1": {"label": "*0", "atom_type": "N3s"}, "2": {"label": "*2", "atom_type": "H0"}, "7": {"label": "*4", "atom_type": "S2s"}, "8": {"label": "*3", "atom_type": "Cs"}}

>  <type>  (9) 
unop_5

>  <geom_source>  (9) 
Heuristics

$$$$

     RDKit          3D

 19 17  0  0  0  0  0  0  0  0999 V2000
   -0.7225   -2.3727   -0.8922 N   0  0  0  0  0  2  0  0  0  0  0  0
   -0.7225   -2.3727   -2.2332 N   0  0  0  0  0  0  0  0  0  0  0  0
   -0.7225   -1.1969   -0.5520 H   0  0  0  0  0  0  0  0  0  0  0  0
   -0.5345   -3.2727   -2.6421 H   0  0  0  0  0  0  0  0  0  0  0  0
   -0.3605   -1.5843   -2.7507 H   0  0  0  0  0  0  0  0  0  0  0  0
    0.2405    2.8498    1.2108 C   0  0  0  0  0  0  0  0  0  0  0  0
    1.0707    1.5857    1.3605 C   0  0  0  0  0  0  0  0  0  0  0  0
    1.0363    0.4743   -0.0684 S   0  0  0  0  0  0  0  0  0  0  0  0
   -0.7225    0.0610   -0.1880 C   0  0  0  0  0  3  0  0  0  0  0  0
   -1.3036   -0.6319    1.0334 C   0  0  0  0  0  0  0  0  0  0  0  0
   -0.8245    2.6224    1.1407 H   0  0  0  0  0  0  0  0  0  0  0  0
    0.3804    3.4996    2.0776 H   0  0  0  0  0  0  0  0  0  0  0  0
    0.5284    3.4009    0.3148 H   0  0  0  0  0  0  0  0  0  0  0  0
    0.7828    1.0339    2.2569 H   0  0  0  0  0  0  0  0  0  0  0  0
    2.1275    1.8343    1.4703 H   0  0  0  0  0  0  0  0  0  0  0  0
   -1.2909    0.9593   -0.4342 H   0  0  0  0  0  0  0  0  0  0  0  0
   -1.2955    0.0234    1.9060 H   0  0  0  0  0  0  0  0  0  0  0  0
   -2.3413   -0.9181    0.8484 H   0  0  0  0  0  0  0  0  0  0  0  0
   -0.7352   -1.5296    1.2791 H   0  0  0  0  0  0  0  0  0  0  0  0
  1  2  1  0
  1  3  1  0
  2  4  1  0
  2  5  1  0
  6  7  1  0
  6 11  1  0
  6 12  1  0
  6 13  1  0
  7  8  1  0
  7 14  1  0
  7 15  1  0
  8  9  1  0
  9 10  1  0
  9 16  1  0
 10 17  1  0
 10 18  1  0
 10 19  1  0
M  RAD  2   1   2   9   2
M  END
>  <reaction>  (10) 
rmg_rxn_56

>  <mol_properties>  (10) 
{"0": {"label": "*1", "atom_type": "N3s"}, "1": {"label": "*0", "atom_type": "N3s"}, "2": {"label": "*2", "atom_type": "H0"}, "7": {"label": "*4", "atom_type": "S2s"}, "8": {"label": "*3", "atom_type": "Cs"}}

>  <type>  (10) 
unop_6

>  <geom_source>  (10) 
Heuristics

$$$$

     RDKit          3D

 19 17  0  0  0  0  0  0  0  0999 V2000
   -0.4419   -2.2976   -1.1805 N   0  0  0  0  0  2  0  0  0  0  0  0
   -0.4419   -2.2976   -2.5215 N   0  0  0  0  0  0  0  0  0  0  0  0
   -0.4419   -1.1218   -0.8403 H   0  0  0  0  0  0  0  0  0  0  0  0
   -0.2539   -3.1976   -2.9304 H   0  0  0  0  0  0  0  0  0  0  0  0
   -0.0799   -1.5092   -3.0390 H   0  0  0  0  0  0  0  0  0  0  0  0
    0.1359    2.8385    1.2630 C   0  0  0  0  0  0  0  0  0  0  0  0
    0.5901    1.4812    1.7739 C   0  0  0  0  0  0  0  0  0  0  0  0
    1.0812    0.3050    0.4880 S   0  0  0  0  0  0  0  0  0  0  0  0
   -0.4419    0.1361   -0.4763 C   0  0  0  0  0  3  0  0  0  0  0  0
   -1.6361   -0.3968    0.2979 C   0  0  0  0  0  0  0  0  0  0  0  0
   -0.7842    2.7589    0.6815 H   0  0  0  0  0  0  0  0  0  0  0  0
   -0.0629    3.5111    2.1003 H   0  0  0  0  0  0  0  0  0  0  0  0
    0.8989    3.2911    0.6287 H   0  0  0  0  0  0  0  0  0  0  0  0
   -0.1731    1.0279    2.4086 H   0  0  0  0  0  0  0  0  0  0  0  0
    1.4872    1.5851    2.3866 H   0  0  0  0  0  0  0  0  0  0  0  0
   -0.6788    1.0896   -0.9513 H   0  0  0  0  0  0  0  0  0  0  0  0
   -1.9506    0.3002    1.0765 H   0  0  0  0  0  0  0  0  0  0  0  0
   -2.4861   -0.5449   -0.3719 H   0  0  0  0  0  0  0  0  0  0  0  0
   -1.3989   -1.3496    0.7724 H   0  0  0  0  0  0  0  0  0  0  0  0
  1  2  1  0
  1  3  1  0
  2  4  1  0
  2  5  1  0
  6  7  1  0
  6 11  1  0
  6 12  1  0
  6 13  1  0
  7  8  1  0
  7 14  1  0
  7 15  1  0
  8  9  1  0
  9 10  1  0
  9 16  1  0
 10 17  1  0
 10 18  1  0
 10 19  1  0
M  RAD  2   1   2   9   2
M  END
>  <reaction>  (11) 
rmg_rxn_56

>  <mol_properties>  (11) 
{"0": {"label": "*1", "atom_type": "N3s"}, "1": {"label": "*0", "atom_type": "N3s"}, "2": {"label": "*2", "atom_type": "H0"}, "7": {"label": "*4", "atom_type": "S2s"}, "8": {"label": "*3", "atom_type": "Cs"}}

>  <type>  (11) 
unop_7

>  <geom_source>  (11) 
Heuristics

$$$$

     RDKit          3D

 19 17  0  0  0  0  0  0  0  0999 V2000
    0.7171   -2.3516   -0.9079 N   0  0  0  0  0  2  0  0  0  0  0  0
    0.7171   -2.3516   -2.2489 N   0  0  0  0  0  0  0  0  0  0  0  0
    0.7171   -1.1758   -0.5676 H   0  0  0  0  0  0  0  0  0  0  0  0
    0.9051   -3.2516   -2.6577 H   0  0  0  0  0  0  0  0  0  0  0  0
    1.0791   -1.5632   -2.7663 H   0  0  0  0  0  0  0  0  0  0  0  0
   -0.6141    0.8777    2.6698 C   0  0  0  0  0  0  0  0  0  0  0  0
   -1.0872    1.5463    1.3897 C   0  0  0  0  0  0  0  0  0  0  0  0
   -1.0416    0.4954   -0.0840 S   0  0  0  0  0  0  0  0  0  0  0  0
    0.7171    0.0821   -0.2036 C   0  0  0  0  0  3  0  0  0  0  0  0
    1.6462    1.2724   -0.3755 C   0  0  0  0  0  0  0  0  0  0  0  0
    0.4460    0.6235    2.6195 H   0  0  0  0  0  0  0  0  0  0  0  0
   -0.7499    1.5494    3.5204 H   0  0  0  0  0  0  0  0  0  0  0  0
   -1.1731   -0.0392    2.8598 H   0  0  0  0  0  0  0  0  0  0  0  0
   -0.5279    2.4638    1.1991 H   0  0  0  0  0  0  0  0  0  0  0  0
   -2.1375    1.8301    1.4735 H   0  0  0  0  0  0  0  0  0  0  0  0
    1.0086   -0.5188    0.6594 H   0  0  0  0  0  0  0  0  0  0  0  0
    1.6361    1.9173    0.5048 H   0  0  0  0  0  0  0  0  0  0  0  0
    2.6740    0.9327   -0.5209 H   0  0  0  0  0  0  0  0  0  0  0  0
    1.3545    1.8728   -1.2379 H   0  0  0  0  0  0  0  0  0  0  0  0
  1  2  1  0
  1  3  1  0
  2  4  1  0
  2  5  1  0
  6  7  1  0
  6 11  1  0
  6 12  1  0
  6 13  1  0
  7  8  1  0
  7 14  1  0
  7 15  1  0
  8  9  1  0
  9 10  1  0
  9 16  1  0
 10 17  1  0
 10 18  1  0
 10 19  1  0
M  RAD  2   1   2   9   2
M  END
>  <reaction>  (12) 
rmg_rxn_56

>  <mol_properties>  (12) 
{"0": {"label": "*1", "atom_type": "N3s"}, "1": {"label": "*0", "atom_type": "N3s"}, "2": {"label": "*2", "atom_type": "H0"}, "7": {"label": "*4", "atom_type": "S2s"}, "8": {"label": "*3", "atom_type": "Cs"}}

>  <type>  (12) 
unop_8

>  <geom_source>  (12) 
Heuristics

$$$$

     RDKit          3D

 19 17  0  0  0  0  0  0  0  0999 V2000
   -0.5149   -2.7090   -0.0690 N   0  0  0  0  0  2  0  0  0  0  0  0
   -0.5149   -2.7090   -1.4100 N   0  0  0  0  0  0  0  0  0  0  0  0
   -0.5149   -1.5332    0.2712 H   0  0  0  0  0  0  0  0  0  0  0  0
   -0.3270   -3.6089   -1.8189 H   0  0  0  0  0  0  0  0  0  0  0  0
   -0.1530   -1.9206   -1.9275 H   0  0  0  0  0  0  0  0  0  0  0  0
   -0.3676    2.9846    0.5186 C   0  0  0  0  0  0  0  0  0  0  0  0
    0.8090    2.1427    0.0534 C   0  0  0  0  0  0  0  0  0  0  0  0
    0.3644    0.5614   -0.7082 S   0  0  0  0  0  0  0  0  0  0  0  0
   -0.5149   -0.2753    0.6352 C   0  0  0  0  0  3  0  0  0  0  0  0
    0.3058   -0.5077    1.8929 C   0  0  0  0  0  0  0  0  0  0  0  0
   -0.9095    2.4988    1.3319 H   0  0  0  0  0  0  0  0  0  0  0  0
   -0.0188    3.9512    0.8888 H   0  0  0  0  0  0  0  0  0  0  0  0
   -1.0688    3.1590   -0.2983 H   0  0  0  0  0  0  0  0  0  0  0  0
    1.5108    1.9678    0.8706 H   0  0  0  0  0  0  0  0  0  0  0  0
    1.3627    2.6617   -0.7307 H   0  0  0  0  0  0  0  0  0  0  0  0
   -1.4326    0.2694    0.8634 H   0  0  0  0  0  0  0  0  0  0  0  0
    0.5812    0.4344    2.3700 H   0  0  0  0  0  0  0  0  0  0  0  0
   -0.2694   -1.0866    2.6189 H   0  0  0  0  0  0  0  0  0  0  0  0
    1.2229   -1.0519    1.6645 H   0  0  0  0  0  0  0  0  0  0  0  0
  1  2  1  0
  1  3  1  0
  2  4  1  0
  2  5  1  0
  6  7  1  0
  6 11  1  0
  6 12  1  0
  6 13  1  0
  7  8  1  0
  7 14  1  0
  7 15  1  0
  8  9  1  0
  9 10  1  0
  9 16  1  0
 10 17  1  0
 10 18  1  0
 10 19  1  0
M  RAD  2   1   2   9   2
M  END
>  <reaction>  (13) 
rmg_rxn_56

>  <mol_properties>  (13) 
{"0": {"label": "*1", "atom_type": "N3s"}, "1": {"label": "*0", "atom_type": "N3s"}, "2": {"label": "*2", "atom_type": "H0"}, "7": {"label": "*4", "atom_type": "S2s"}, "8": {"label": "*3", "atom_type": "Cs"}}

>  <type>  (13) 
unop_9

>  <geom_source>  (13) 
Heuristics

$$$$

     RDKit          3D

 19 17  0  0  0  0  0  0  0  0999 V2000
    0.7832   -2.5164   -0.4797 N   0  0  0  0  0  2  0  0  0  0  0  0
    0.7832   -2.5164   -1.8207 N   0  0  0  0  0  0  0  0  0  0  0  0
    0.7832   -1.3407   -0.1395 H   0  0  0  0  0  0  0  0  0  0  0  0
    0.9712   -3.4164   -2.2296 H   0  0  0  0  0  0  0  0  0  0  0  0
    1.1452   -1.7280   -2.3382 H   0  0  0  0  0  0  0  0  0  0  0  0
   -1.5105    1.2705    2.1138 C   0  0  0  0  0  0  0  0  0  0  0  0
   -1.2396    1.8146    0.7209 C   0  0  0  0  0  0  0  0  0  0  0  0
   -0.7398    0.5750   -0.5006 S   0  0  0  0  0  0  0  0  0  0  0  0
    0.7832   -0.0827    0.2245 C   0  0  0  0  0  3  0  0  0  0  0  0
    1.8917    0.9374    0.4248 C   0  0  0  0  0  0  0  0  0  0  0  0
   -0.6029    0.8721    2.5705 H   0  0  0  0  0  0  0  0  0  0  0  0
   -1.8832    2.0646    2.7646 H   0  0  0  0  0  0  0  0  0  0  0  0
   -2.2521    0.4716    2.0824 H   0  0  0  0  0  0  0  0  0  0  0  0
   -0.4974    2.6140    0.7519 H   0  0  0  0  0  0  0  0  0  0  0  0
   -2.1479    2.2454    0.2965 H   0  0  0  0  0  0  0  0  0  0  0  0
    0.5492   -0.5932    1.1602 H   0  0  0  0  0  0  0  0  0  0  0  0
    1.6114    1.6924    1.1613 H   0  0  0  0  0  0  0  0  0  0  0  0
    2.7973    0.4463    0.7876 H   0  0  0  0  0  0  0  0  0  0  0  0
    2.1252    1.4475   -0.5104 H   0  0  0  0  0  0  0  0  0  0  0  0
  1  2  1  0
  1  3  1  0
  2  4  1  0
  2  5  1  0
  6  7  1  0
  6 11  1  0
  6 12  1  0
  6 13  1  0
  7  8  1  0
  7 14  1  0
  7 15  1  0
  8  9  1  0
  9 10  1  0
  9 16  1  0
 10 17  1  0
 10 18  1  0
 10 19  1  0
M  RAD  2   1   2   9   2
M  END
>  <reaction>  (14) 
rmg_rxn_56

>  <mol_properties>  (14) 
{"0": {"label": "*1", "atom_type": "N3s"}, "1": {"label": "*0", "atom_type": "N3s"}, "2": {"label": "*2", "atom_type": "H0"}, "7": {"label": "*4", "atom_type": "S2s"}, "8": {"label": "*3", "atom_type": "Cs"}}

>  <type>  (14) 
unop_10

>  <geom_source>  (14) 
Heuristics

$$$$

     RDKit          3D

 19 17  0  0  0  0  0  0  0  0999 V2000
   -0.1351   -2.3407   -1.2548 N   0  0  0  0  0  2  0  0  0  0  0  0
   -0.1351   -2.3407   -2.5958 N   0  0  0  0  0  0  0  0  0  0  0  0
   -0.1351   -1.1649   -0.9146 H   0  0  0  0  0  0  0  0  0  0  0  0
    0.0529   -3.2407   -3.0047 H   0  0  0  0  0  0  0  0  0  0  0  0
    0.2269   -1.5523   -3.1133 H   0  0  0  0  0  0  0  0  0  0  0  0
    0.3978    2.8742    1.0751 C   0  0  0  0  0  0  0  0  0  0  0  0
    0.1164    1.5837    1.8269 C   0  0  0  0  0  0  0  0  0  0  0  0
    0.7443    0.0830    1.0321 S   0  0  0  0  0  0  0  0  0  0  0  0
   -0.1351    0.0930   -0.5506 C   0  0  0  0  0  3  0  0  0  0  0  0
   -1.6501    0.0391   -0.4436 C   0  0  0  0  0  0  0  0  0  0  0  0
   -0.1268    2.9017    0.1186 H   0  0  0  0  0  0  0  0  0  0  0  0
    0.0604    3.7336    1.6586 H   0  0  0  0  0  0  0  0  0  0  0  0
    1.4648    2.9859    0.8791 H   0  0  0  0  0  0  0  0  0  0  0  0
   -0.9512    1.4715    2.0231 H   0  0  0  0  0  0  0  0  0  0  0  0
    0.6153    1.5913    2.7974 H   0  0  0  0  0  0  0  0  0  0  0  0
    0.1840    0.9554   -1.1381 H   0  0  0  0  0  0  0  0  0  0  0  0
   -2.0493    0.9375    0.0300 H   0  0  0  0  0  0  0  0  0  0  0  0
   -2.0975   -0.0337   -1.4374 H   0  0  0  0  0  0  0  0  0  0  0  0
   -1.9686   -0.8229    0.1437 H   0  0  0  0  0  0  0  0  0  0  0  0
  1  2  1  0
  1  3  1  0
  2  4  1  0
  2  5  1  0
  6  7  1  0
  6 11  1  0
  6 12  1  0
  6 13  1  0
  7  8  1  0
  7 14  1  0
  7 15  1  0
  8  9  1  0
  9 10  1  0
  9 16  1  0
 10 17  1  0
 10 18  1  0
 10 19  1  0
M  RAD  2   1   2   9   2
M  END
>  <reaction>  (15) 
rmg_rxn_56

>  <mol_properties>  (15) 
{"0": {"label": "*1", "atom_type": "N3s"}, "1": {"label": "*0", "atom_type": "N3s"}, "2": {"label": "*2", "atom_type": "H0"}, "7": {"label": "*4", "atom_type": "S2s"}, "8": {"label": "*3", "atom_type": "Cs"}}

>  <type>  (15) 
unop_11

>  <geom_source>  (15) 
Heuristics

$$$$

     RDKit          3D

 19 17  0  0  0  0  0  0  0  0999 V2000
    0.0087   -2.7859    0.0964 N   0  0  0  0  0  2  0  0  0  0  0  0
    0.0087   -2.7859   -1.2446 N   0  0  0  0  0  0  0  0  0  0  0  0
    0.0087   -1.6102    0.4367 H   0  0  0  0  0  0  0  0  0  0  0  0
    0.1966   -3.6859   -1.6534 H   0  0  0  0  0  0  0  0  0  0  0  0
    0.3706   -1.9975   -1.7620 H   0  0  0  0  0  0  0  0  0  0  0  0
   -1.2447    2.6569    0.6103 C   0  0  0  0  0  0  0  0  0  0  0  0
   -0.0294    2.2743   -0.2182 C   0  0  0  0  0  0  0  0  0  0  0  0
    0.0087    0.5500   -0.7691 S   0  0  0  0  0  0  0  0  0  0  0  0
    0.0087   -0.3523    0.8007 C   0  0  0  0  0  3  0  0  0  0  0  0
    1.1928   -0.0620    1.7080 C   0  0  0  0  0  0  0  0  0  0  0  0
   -1.2614    2.1260    1.5636 H   0  0  0  0  0  0  0  0  0  0  0  0
   -1.2308    3.7265    0.8312 H   0  0  0  0  0  0  0  0  0  0  0  0
   -2.1677    2.4251    0.0777 H   0  0  0  0  0  0  0  0  0  0  0  0
    0.8944    2.5060    0.3145 H   0  0  0  0  0  0  0  0  0  0  0  0
   -0.0073    2.8443   -1.1484 H   0  0  0  0  0  0  0  0  0  0  0  0
   -0.9341   -0.1757    1.3212 H   0  0  0  0  0  0  0  0  0  0  0  0
    1.1862    0.9728    2.0545 H   0  0  0  0  0  0  0  0  0  0  0  0
    1.1591   -0.7035    2.5913 H   0  0  0  0  0  0  0  0  0  0  0  0
    2.1347   -0.2384    1.1874 H   0  0  0  0  0  0  0  0  0  0  0  0
  1  2  1  0
  1  3  1  0
  2  4  1  0
  2  5  1  0
  6  7  1  0
  6 11  1  0
  6 12  1  0
  6 13  1  0
  7  8  1  0
  7 14  1  0
  7 15  1  0
  8  9  1  0
  9 10  1  0
  9 16  1  0
 10 17  1  0
 10 18  1  0
 10 19  1  0
M  RAD  2   1   2   9   2
M  END
>  <reaction>  (16) 
rmg_rxn_56

>  <mol_properties>  (16) 
{"0": {"label": "*1", "atom_type": "N3s"}, "1": {"label": "*0", "atom_type": "N3s"}, "2": {"label": "*2", "atom_type": "H0"}, "7": {"label": "*4", "atom_type": "S2s"}, "8": {"label": "*3", "atom_type": "Cs"}}

>  <type>  (16) 
unop_12

>  <geom_source>  (16) 
Heuristics

$$$$

     RDKit          3D

 19 17  0  0  0  0  0  0  0  0999 V2000
    0.5285   -2.6980   -0.0771 N   0  0  0  0  0  2  0  0  0  0  0  0
    0.5285   -2.6980   -1.4181 N   0  0  0  0  0  0  0  0  0  0  0  0
    0.5285   -1.5222    0.2631 H   0  0  0  0  0  0  0  0  0  0  0  0
    0.7165   -3.5980   -1.8270 H   0  0  0  0  0  0  0  0  0  0  0  0
    0.8905   -1.9096   -1.9356 H   0  0  0  0  0  0  0  0  0  0  0  0
   -1.7706    1.9619    1.2752 C   0  0  0  0  0  0  0  0  0  0  0  0
   -0.8608    2.1223    0.0685 C   0  0  0  0  0  0  0  0  0  0  0  0
   -0.3508    0.5724   -0.7163 S   0  0  0  0  0  0  0  0  0  0  0  0
    0.5285   -0.2643    0.6271 C   0  0  0  0  0  3  0  0  0  0  0  0
    1.7407    0.4798    1.1624 C   0  0  0  0  0  0  0  0  0  0  0  0
   -1.2575    1.4623    2.0987 H   0  0  0  0  0  0  0  0  0  0  0  0
   -2.0957    2.9399    1.6370 H   0  0  0  0  0  0  0  0  0  0  0  0
   -2.6541    1.3752    1.0215 H   0  0  0  0  0  0  0  0  0  0  0  0
    0.0235    2.7093    0.3221 H   0  0  0  0  0  0  0  0  0  0  0  0
   -1.3765    2.6595   -0.7291 H   0  0  0  0  0  0  0  0  0  0  0  0
   -0.1723   -0.4971    1.4305 H   0  0  0  0  0  0  0  0  0  0  0  0
    1.4540    1.4165    1.6434 H   0  0  0  0  0  0  0  0  0  0  0  0
    2.2582   -0.1268    1.9089 H   0  0  0  0  0  0  0  0  0  0  0  0
    2.4408    0.7124    0.3592 H   0  0  0  0  0  0  0  0  0  0  0  0
  1  2  1  0
  1  3  1  0
  2  4  1  0
  2  5  1  0
  6  7  1  0
  6 11  1  0
  6 12  1  0
  6 13  1  0
  7  8  1  0
  7 14  1  0
  7 15  1  0
  8  9  1  0
  9 10  1  0
  9 16  1  0
 10 17  1  0
 10 18  1  0
 10 19  1  0
M  RAD  2   1   2   9   2
M  END
>  <reaction>  (17) 
rmg_rxn_56

>  <mol_properties>  (17) 
{"0": {"label": "*1", "atom_type": "N3s"}, "1": {"label": "*0", "atom_type": "N3s"}, "2": {"label": "*2", "atom_type": "H0"}, "7": {"label": "*4", "atom_type": "S2s"}, "8": {"label": "*3", "atom_type": "Cs"}}

>  <type>  (17) 
unop_13

>  <geom_source>  (17) 
gaussian_log

$$$$
