
     RDKit          3D

  9  8  0  0  0  0  0  0  0  0999 V2000
   -1.5470   -0.0755   -0.1976 C   0  0  0  0  0  0  0  0  0  0  0  0
   -0.2885    0.4507    0.1749 O   0  0  0  0  0  0  0  0  0  0  0  0
   -0.1502    1.7216   -0.3294 N   0  0  0  0  0  0  0  0  0  0  0  0
    0.9626    2.2353   -0.0219 C   0  0  0  0  0  0  0  0  0  0  0  0
   -1.6392   -0.1356   -1.2844 H   0  0  0  0  0  0  0  0  0  0  0  0
   -2.3597    0.5337    0.2044 H   0  0  0  0  0  0  0  0  0  0  0  0
   -1.5879   -1.0750    0.2318 H   0  0  0  0  0  0  0  0  0  0  0  0
    1.1497    3.2381   -0.3820 H   0  0  0  0  0  0  0  0  0  0  0  0
    1.7060    1.7101    0.5739 H   0  0  0  0  0  0  0  0  0  0  0  0
  1  2  1  0
  1  5  1  0
  1  6  1  0
  1  7  1  0
  2  3  1  0
  3  4  2  3
  4  8  1  0
  4  9  1  0
M  END
>  <reaction>  (1) 
rmg_rxn_15599

>  <mol_properties>  (1) 
{"0": {"label": "donator", "atom_type": "Cs"}, "4": {"label": "d_hydrogen", "atom_type": "H0"}}

>  <type>  (1) 
r1h

$$$$

     RDKit          3D

 14 13  0  0  0  0  0  0  0  0999 V2000
    2.5796   -0.5432    0.2329 C   0  0  0  0  0  3  0  0  0  0  0  0
    1.2594    0.0982    0.3029 C   0  0  0  0  0  0  0  0  0  0  0  0
   -0.0483   -1.0244    0.9576 S   0  0  0  0  0  0  0  0  0  0  0  0
   -0.0049   -2.3732   -0.2491 C   0  0  0  0  0  0  0  0  0  0  0  0
   -0.3891   -1.9781   -1.6653 C   0  0  0  0  0  0  0  0  0  0  0  0
    2.9359   -0.9798   -0.6903 H   0  0  0  0  0  0  0  0  0  0  0  0
    3.1327   -0.7454    1.1400 H   0  0  0  0  0  0  0  0  0  0  0  0
    0.9347    0.4858   -0.6621 H   0  0  0  0  0  0  0  0  0  0  0  0
    1.2442    0.9220    1.0193 H   0  0  0  0  0  0  0  0  0  0  0  0
    0.9819   -2.8380   -0.2257 H   0  0  0  0  0  0  0  0  0  0  0  0
   -0.7110   -3.1037    0.1493 H   0  0  0  0  0  0  0  0  0  0  0  0
    0.3274   -1.2737   -2.0913 H   0  0  0  0  0  0  0  0  0  0  0  0
   -0.4075   -2.8581   -2.3121 H   0  0  0  0  0  0  0  0  0  0  0  0
   -1.3749   -1.5123   -1.6865 H   0  0  0  0  0  0  0  0  0  0  0  0
  1  2  1  0
  1  6  1  0
  1  7  1  0
  2  3  1  0
  2  8  1  0
  2  9  1  0
  3  4  1  0
  4  5  1  0
  4 10  1  0
  4 11  1  0
  5 12  1  0
  5 13  1  0
  5 14  1  0
M  RAD  1   1   2
M  END
>  <reaction>  (2) 
rmg_rxn_15599

>  <mol_properties>  (2) 
{"0": {"label": "acceptor", "atom_type": "Cs"}}

>  <type>  (2) 
r2

$$$$

     RDKit          3D

 15 14  0  0  0  0  0  0  0  0999 V2000
   -2.0554    0.0723   -0.4910 C   0  0  0  0  0  0  0  0  0  0  0  0
   -0.7461   -0.6266   -0.8178 C   0  0  0  0  0  0  0  0  0  0  0  0
    0.3249    0.2591   -1.9782 S   0  0  0  0  0  0  0  0  0  0  0  0
   -0.7172    0.3642   -3.4551 C   0  0  0  0  0  0  0  0  0  0  0  0
   -1.1375   -0.9737   -4.0409 C   0  0  0  0  0  0  0  0  0  0  0  0
   -2.7005    0.1427   -1.3684 H   0  0  0  0  0  0  0  0  0  0  0  0
   -2.6016   -0.4848    0.2733 H   0  0  0  0  0  0  0  0  0  0  0  0
   -1.8758    1.0825   -0.1213 H   0  0  0  0  0  0  0  0  0  0  0  0
   -0.1320   -0.7246    0.0789 H   0  0  0  0  0  0  0  0  0  0  0  0
   -0.9254   -1.6374   -1.1879 H   0  0  0  0  0  0  0  0  0  0  0  0
   -1.5873    0.9874   -3.2422 H   0  0  0  0  0  0  0  0  0  0  0  0
   -0.1021    0.9161   -4.1678 H   0  0  0  0  0  0  0  0  0  0  0  0
   -1.7876   -1.5224   -3.3574 H   0  0  0  0  0  0  0  0  0  0  0  0
   -0.2676   -1.5962   -4.2534 H   0  0  0  0  0  0  0  0  0  0  0  0
   -1.6916   -0.8229   -4.9700 H   0  0  0  0  0  0  0  0  0  0  0  0
  1  2  1  0
  1  6  1  0
  1  7  1  0
  1  8  1  0
  2  3  1  0
  2  9  1  0
  2 10  1  0
  3  4  1  0
  4  5  1  0
  4 11  1  0
  4 12  1  0
  5 13  1  0
  5 14  1  0
  5 15  1  0
M  END
>  <reaction>  (3) 
rmg_rxn_15599

>  <mol_properties>  (3) 
{"0": {"label": "a_hydrogen", "atom_type": "H0"}, "1": {"label": "acceptor", "atom_type": "Cs"}}

>  <type>  (3) 
r2h

$$$$

     RDKit          3D

 23 21  0  0  0  0  0  0  0  0999 V2000
   -2.5383   -1.2377    0.5101 C   0  0  0  0  0  0  0  0  0  0  0  0
   -2.6420   -0.0471   -0.2003 O   0  0  0  0  0  0  0  0  0  0  0  0
   -2.1717    1.0071    0.5531 N   0  0  0  0  0  0  0  0  0  0  0  0
   -2.1891    2.0909   -0.0974 C   0  0  0  0  0  0  0  0  0  0  0  0
   -1.2341   -1.5047    0.6355 H   0  0  0  0  0  0  0  0  0  0  0  0
   -2.9862   -2.0258   -0.0888 H   0  0  0  0  0  0  0  0  0  0  0  0
   -2.9259   -1.1672    1.5261 H   0  0  0  0  0  0  0  0  0  0  0  0
   -1.8407    2.9725    0.4240 H   0  0  0  0  0  0  0  0  0  0  0  0
   -2.5347    2.1522   -1.1268 H   0  0  0  0  0  0  0  0  0  0  0  0
    0.1265   -1.5126    0.6958 C   0  0  0  0  0  3  0  0  0  0  0  0
    0.5978   -0.9622   -0.6148 C   0  0  0  0  0  0  0  0  0  0  0  0
    2.4050   -0.7637   -0.7468 S   0  0  0  0  0  0  0  0  0  0  0  0
    2.7421    0.3986    0.6008 C   0  0  0  0  0  0  0  0  0  0  0  0
    1.9822    1.7127    0.5211 C   0  0  0  0  0  0  0  0  0  0  0  0
    0.4074   -2.5461    0.8881 H   0  0  0  0  0  0  0  0  0  0  0  0
    0.3089   -0.8702    1.5549 H   0  0  0  0  0  0  0  0  0  0  0  0
    0.1233   -0.0048   -0.8318 H   0  0  0  0  0  0  0  0  0  0  0  0
    0.3480   -1.6367   -1.4353 H   0  0  0  0  0  0  0  0  0  0  0  0
    2.5622   -0.0950    1.5571 H   0  0  0  0  0  0  0  0  0  0  0  0
    3.8171    0.5727    0.5309 H   0  0  0  0  0  0  0  0  0  0  0  0
    2.1420    2.1974   -0.4430 H   0  0  0  0  0  0  0  0  0  0  0  0
    0.9094    1.5610    0.6539 H   0  0  0  0  0  0  0  0  0  0  0  0
    2.3182    2.3900    1.3095 H   0  0  0  0  0  0  0  0  0  0  0  0
  1  2  1  0
  1  5  1  0
  1  6  1  0
  1  7  1  0
  2  3  1  0
  3  4  2  3
  4  8  1  0
  4  9  1  0
 10 11  1  0
 10 15  1  0
 10 16  1  0
 11 12  1  0
 11 17  1  0
 11 18  1  0
 12 13  1  0
 13 14  1  0
 13 19  1  0
 13 20  1  0
 14 21  1  0
 14 22  1  0
 14 23  1  0
M  RAD  1  10   2
M  END
>  <reaction>  (4) 
rmg_rxn_15599

>  <mol_properties>  (4) 
{"0": {"label": "*1", "atom_type": "Cs"}, "1": {"label": "*0", "atom_type": "O2s"}, "4": {"label": "*2", "atom_type": "H0"}, "9": {"label": "*3", "atom_type": "Cs"}, "10": {"label": "*4", "atom_type": "Cs"}}

>  <type>  (4) 
ts

$$$$

     RDKit          3D

 23 21  0  0  0  0  0  0  0  0999 V2000
   -2.5648    1.3069   -0.7365 C   0  0  0  0  0  3  0  0  0  0  0  0
   -2.9392    0.3453    0.1849 O   0  0  0  0  0  0  0  0  0  0  0  0
   -2.6238   -0.9342   -0.2287 N   0  0  0  0  0  0  0  0  0  0  0  0
   -2.9034   -1.8595    0.5835 C   0  0  0  0  0  0  0  0  0  0  0  0
   -1.2464    1.5039   -0.6091 H   0  0  0  0  0  0  0  0  0  0  0  0
   -3.0597    2.2344   -0.4734 H   0  0  0  0  0  0  0  0  0  0  0  0
   -2.7104    0.9998   -1.7692 H   0  0  0  0  0  0  0  0  0  0  0  0
   -2.6680   -2.8604    0.2688 H   0  0  0  0  0  0  0  0  0  0  0  0
   -3.3606   -1.7038    1.5557 H   0  0  0  0  0  0  0  0  0  0  0  0
    0.0497    1.5881   -0.4553 C   0  0  0  0  0  0  0  0  0  0  0  0
    0.4616    0.4962    0.4673 C   0  0  0  0  0  0  0  0  0  0  0  0
    2.2885    0.5121    0.7768 S   0  0  0  0  0  0  0  0  0  0  0  0
    2.8987   -0.2953   -0.7429 C   0  0  0  0  0  0  0  0  0  0  0  0
    2.7330   -1.8027   -0.7083 C   0  0  0  0  0  0  0  0  0  0  0  0
    0.2334    2.5785   -0.0538 H   0  0  0  0  0  0  0  0  0  0  0  0
    0.4501    1.4908   -1.4593 H   0  0  0  0  0  0  0  0  0  0  0  0
    0.2147   -0.4914    0.0815 H   0  0  0  0  0  0  0  0  0  0  0  0
    0.0245    0.6184    1.4569 H   0  0  0  0  0  0  0  0  0  0  0  0
    2.3744    0.1485   -1.5885 H   0  0  0  0  0  0  0  0  0  0  0  0
    3.9518   -0.0220   -0.7976 H   0  0  0  0  0  0  0  0  0  0  0  0
    3.1530   -2.2430   -1.6108 H   0  0  0  0  0  0  0  0  0  0  0  0
    3.2470   -2.2171    0.1557 H   0  0  0  0  0  0  0  0  0  0  0  0
    1.6821   -2.0794   -0.6500 H   0  0  0  0  0  0  0  0  0  0  0  0
  1  2  1  0
  1  6  1  0
  1  7  1  0
  2  3  1  0
  3  4  2  3
  4  8  1  0
  4  9  1  0
  5 10  1  0
 10 11  1  0
 10 15  1  0
 10 16  1  0
 11 12  1  0
 11 17  1  0
 11 18  1  0
 12 13  1  0
 13 14  1  0
 13 19  1  0
 13 20  1  0
 14 21  1  0
 14 22  1  0
 14 23  1  0
M  RAD  1   1   2
M  END
>  <reaction>  (5) 
rmg_rxn_15599

>  <mol_properties>  (5) 
{"0": {"label": "*1", "atom_type": "Cs"}, "1": {"label": "*0", "atom_type": "O2s"}, "4": {"label": "*2", "atom_type": "H0"}, "9": {"label": "*3", "atom_type": "Cs"}, "10": {"label": "*4", "atom_type": "Cs"}}

>  <type>  (5) 
unop_1

>  <geom_source>  (5) 
crest_best.xyz

$$$$

     RDKit          3D

 23 21  0  0  0  0  0  0  0  0999 V2000
   -2.5148    0.5033   -0.0026 C   0  0  0  0  0  3  0  0  0  0  0  0
   -2.5148    0.5612   -1.4155 O   0  0  0  0  0  0  0  0  0  0  0  0
   -2.5148   -0.7127   -1.9312 N   0  0  0  0  0  0  0  0  0  0  0  0
   -2.5148   -0.7127   -3.1948 C   0  0  0  0  0  0  0  0  0  0  0  0
   -1.4442   -0.1089    0.4415 H   0  0  0  0  0  0  0  0  0  0  0  0
   -3.4069   -0.0069    0.3675 H   0  0  0  0  0  0  0  0  0  0  0  0
   -2.5148    1.5382    0.3352 H   0  0  0  0  0  0  0  0  0  0  0  0
   -2.5148   -1.6798   -3.6797 H   0  0  0  0  0  0  0  0  0  0  0  0
   -2.5148    0.2038   -3.7810 H   0  0  0  0  0  0  0  0  0  0  0  0
   -0.3753   -0.7201    0.8849 C   0  0  0  0  0  0  0  0  0  0  0  0
    0.4419    0.1966    1.7801 C   0  0  0  0  0  0  0  0  0  0  0  0
    1.7846    1.0809    0.9474 S   0  0  0  0  0  0  0  0  0  0  0  0
    2.8123   -0.2772    0.3328 C   0  0  0  0  0  0  0  0  0  0  0  0
    3.3717   -1.1958    1.4065 C   0  0  0  0  0  0  0  0  0  0  0  0
    0.2258   -1.5486    0.5065 H   0  0  0  0  0  0  0  0  0  0  0  0
   -1.2100   -1.1494    1.4436 H   0  0  0  0  0  0  0  0  0  0  0  0
    0.8423   -0.3494    2.6359 H   0  0  0  0  0  0  0  0  0  0  0  0
   -0.1845    0.9949    2.1818 H   0  0  0  0  0  0  0  0  0  0  0  0
    2.2554   -0.8447   -0.4147 H   0  0  0  0  0  0  0  0  0  0  0  0
    3.6218    0.2288   -0.1958 H   0  0  0  0  0  0  0  0  0  0  0  0
    2.5775   -1.7416    1.9186 H   0  0  0  0  0  0  0  0  0  0  0  0
    4.0423   -1.9341    0.9614 H   0  0  0  0  0  0  0  0  0  0  0  0
    3.9280   -0.6283    2.1533 H   0  0  0  0  0  0  0  0  0  0  0  0
  1  2  1  0
  1  6  1  0
  1  7  1  0
  2  3  1  0
  3  4  2  3
  4  8  1  0
  4  9  1  0
  5 10  1  0
 10 11  1  0
 10 15  1  0
 10 16  1  0
 11 12  1  0
 11 17  1  0
 11 18  1  0
 12 13  1  0
 13 14  1  0
 13 19  1  0
 13 20  1  0
 14 21  1  0
 14 22  1  0
 14 23  1  0
M  RAD  1   1   2
M  END
>  <reaction>  (6) 
rmg_rxn_15599

>  <mol_properties>  (6) 
{"0": {"label": "*1", "atom_type": "Cs"}, "1": {"label": "*0", "atom_type": "O2s"}, "4": {"label": "*2", "atom_type": "H0"}, "9": {"label": "*3", "atom_type": "Cs"}, "10": {"label": "*4", "atom_type": "Cs"}}

>  <type>  (6) 
unop_2

>  <geom_source>  (6) 
Heuristics

$$$$

     RDKit          3D

 23 21  0  0  0  0  0  0  0  0999 V2000
   -1.9058   -0.9476    1.4419 C   0  0  0  0  0  3  0  0  0  0  0  0
   -2.6904   -0.2521    0.6169 O   0  0  0  0  0  0  0  0  0  0  0  0
   -2.0443    0.4386   -0.3784 N   0  0  0  0  0  0  0  0  0  0  0  0
   -2.7985    1.1095   -1.1589 C   0  0  0  0  0  0  0  0  0  0  0  0
    2.3511    1.9657   -1.1316 H   0  0  0  0  0  0  0  0  0  0  0  0
   -0.8386   -0.9451    1.3345 H   0  0  0  0  0  0  0  0  0  0  0  0
   -2.4364   -1.4776    2.2046 H   0  0  0  0  0  0  0  0  0  0  0  0
   -2.3104    1.6553   -1.9450 H   0  0  0  0  0  0  0  0  0  0  0  0
   -3.8776    1.1532   -1.0694 H   0  0  0  0  0  0  0  0  0  0  0  0
    2.1100    2.1620   -0.0836 C   0  0  0  0  0  0  0  0  0  0  0  0
    1.1069    1.1990    0.5010 C   0  0  0  0  0  0  0  0  0  0  0  0
    1.7965   -0.4803    0.7240 S   0  0  0  0  0  0  0  0  0  0  0  0
    1.8403   -1.0817   -0.9995 C   0  0  0  0  0  0  0  0  0  0  0  0
    0.4929   -1.5892   -1.4772 C   0  0  0  0  0  0  0  0  0  0  0  0
    1.6959    3.1281   -0.2835 H   0  0  0  0  0  0  0  0  0  0  0  0
    3.0133    2.2326    0.5095 H   0  0  0  0  0  0  0  0  0  0  0  0
    0.2096    1.1151   -0.1118 H   0  0  0  0  0  0  0  0  0  0  0  0
    0.8231    1.5071    1.5072 H   0  0  0  0  0  0  0  0  0  0  0  0
    2.2062   -0.2640   -1.6189 H   0  0  0  0  0  0  0  0  0  0  0  0
    2.5803   -1.8815   -0.9976 H   0  0  0  0  0  0  0  0  0  0  0  0
    0.1674   -2.4258   -0.8629 H   0  0  0  0  0  0  0  0  0  0  0  0
   -0.2604   -0.8059   -1.4217 H   0  0  0  0  0  0  0  0  0  0  0  0
    0.5695   -1.9252   -2.5099 H   0  0  0  0  0  0  0  0  0  0  0  0
  1  2  1  0
  1  6  1  0
  1  7  1  0
  2  3  1  0
  3  4  2  3
  4  8  1  0
  4  9  1  0
  5 10  1  0
 10 11  1  0
 10 15  1  0
 10 16  1  0
 11 12  1  0
 11 17  1  0
 11 18  1  0
 12 13  1  0
 13 14  1  0
 13 19  1  0
 13 20  1  0
 14 21  1  0
 14 22  1  0
 14 23  1  0
M  RAD  1   1   2
M  END
>  <reaction>  (7) 
rmg_rxn_15599

>  <mol_properties>  (7) 
{"0": {"label": "*1", "atom_type": "Cs"}, "1": {"label": "*0", "atom_type": "O2s"}, "4": {"label": "*2", "atom_type": "H0"}, "9": {"label": "*3", "atom_type": "Cs"}, "10": {"label": "*4", "atom_type": "Cs"}}

>  <type>  (7) 
unop_3

>  <geom_source>  (7) 
Heuristics

$$$$

     RDKit          3D

 23 21  0  0  0  0  0  0  0  0999 V2000
   -1.9292    0.7183   -1.5764 C   0  0  0  0  0  3  0  0  0  0  0  0
   -2.7023    0.1305   -0.6611 O   0  0  0  0  0  0  0  0  0  0  0  0
   -2.0510   -0.3392    0.4528 N   0  0  0  0  0  0  0  0  0  0  0  0
   -2.7913   -0.9068    1.3229 C   0  0  0  0  0  0  0  0  0  0  0  0
   -0.2448    0.9449    1.3609 H   0  0  0  0  0  0  0  0  0  0  0  0
   -0.8661    0.7868   -1.4492 H   0  0  0  0  0  0  0  0  0  0  0  0
   -2.4606    1.0730   -2.4342 H   0  0  0  0  0  0  0  0  0  0  0  0
   -2.2981   -1.2781    2.2022 H   0  0  0  0  0  0  0  0  0  0  0  0
   -3.8635   -1.0280    1.2211 H   0  0  0  0  0  0  0  0  0  0  0  0
    0.5511    1.6919    1.3905 C   0  0  0  0  0  0  0  0  0  0  0  0
    1.8773    1.1907    0.8727 C   0  0  0  0  0  0  0  0  0  0  0  0
    1.7498    0.4186   -0.7766 S   0  0  0  0  0  0  0  0  0  0  0  0
    1.1010   -1.2364   -0.3505 C   0  0  0  0  0  0  0  0  0  0  0  0
    2.1652   -2.1497    0.2267 C   0  0  0  0  0  0  0  0  0  0  0  0
    0.6382    2.1268    2.3791 H   0  0  0  0  0  0  0  0  0  0  0  0
    0.0545    2.3552    0.7145 H   0  0  0  0  0  0  0  0  0  0  0  0
    2.3184    0.4573    1.5466 H   0  0  0  0  0  0  0  0  0  0  0  0
    2.5791    2.0142    0.7409 H   0  0  0  0  0  0  0  0  0  0  0  0
    0.2627   -1.0990    0.3320 H   0  0  0  0  0  0  0  0  0  0  0  0
    0.7274   -1.6318   -1.2948 H   0  0  0  0  0  0  0  0  0  0  0  0
    2.5459   -1.7632    1.1700 H   0  0  0  0  0  0  0  0  0  0  0  0
    1.7446   -3.1370    0.4090 H   0  0  0  0  0  0  0  0  0  0  0  0
    2.9976   -2.2469   -0.4668 H   0  0  0  0  0  0  0  0  0  0  0  0
  1  2  1  0
  1  6  1  0
  1  7  1  0
  2  3  1  0
  3  4  2  3
  4  8  1  0
  4  9  1  0
  5 10  1  0
 10 11  1  0
 10 15  1  0
 10 16  1  0
 11 12  1  0
 11 17  1  0
 11 18  1  0
 12 13  1  0
 13 14  1  0
 13 19  1  0
 13 20  1  0
 14 21  1  0
 14 22  1  0
 14 23  1  0
M  RAD  1   1   2
M  END
>  <reaction>  (8) 
rmg_rxn_15599

>  <mol_properties>  (8) 
{"0": {"label": "*1", "atom_type": "Cs"}, "1": {"label": "*0", "atom_type": "O2s"}, "4": {"label": "*2", "atom_type": "H0"}, "9": {"label": "*3", "atom_type": "Cs"}, "10": {"label": "*4", "atom_type": "Cs"}}

>  <type>  (8) 
unop_4

>  <geom_source>  (8) 
Heuristics

$$$$

     RDKit          3D

 23 21  0  0  0  0  0  0  0  0999 V2000
   -2.5676   -1.3102    0.7240 C   0  0  0  0  0  3  0  0  0  0  0  0
   -2.9296   -0.3418   -0.1953 O   0  0  0  0  0  0  0  0  0  0  0  0
   -2.6159    0.9342    0.2300 N   0  0  0  0  0  0  0  0  0  0  0  0
   -2.8843    1.8654   -0.5791 C   0  0  0  0  0  0  0  0  0  0  0  0
   -1.2480   -1.5081    0.6103 H   0  0  0  0  0  0  0  0  0  0  0  0
   -3.0612   -2.2350    0.4492 H   0  0  0  0  0  0  0  0  0  0  0  0
   -2.7243   -1.0095    1.7571 H   0  0  0  0  0  0  0  0  0  0  0  0
   -2.6502    2.8638   -0.2552 H   0  0  0  0  0  0  0  0  0  0  0  0
   -3.3307    1.7172   -1.5575 H   0  0  0  0  0  0  0  0  0  0  0  0
    0.0495   -1.5905    0.4689 C   0  0  0  0  0  0  0  0  0  0  0  0
    0.4643   -0.5156   -0.4723 C   0  0  0  0  0  0  0  0  0  0  0  0
    2.2944   -0.5252   -0.7618 S   0  0  0  0  0  0  0  0  0  0  0  0
    2.8822    0.3178    0.7474 C   0  0  0  0  0  0  0  0  0  0  0  0
    2.7016    1.8225    0.6822 C   0  0  0  0  0  0  0  0  0  0  0  0
    0.2411   -2.5881    0.0896 H   0  0  0  0  0  0  0  0  0  0  0  0
    0.4409   -1.4705    1.4740 H   0  0  0  0  0  0  0  0  0  0  0  0
    0.2068    0.4781   -0.1100 H   0  0  0  0  0  0  0  0  0  0  0  0
    0.0386   -0.6616   -1.4636 H   0  0  0  0  0  0  0  0  0  0  0  0
    2.3548   -0.1150    1.5967 H   0  0  0  0  0  0  0  0  0  0  0  0
    3.9375    0.0564    0.8167 H   0  0  0  0  0  0  0  0  0  0  0  0
    3.2202    2.2259   -0.1843 H   0  0  0  0  0  0  0  0  0  0  0  0
    1.6487    2.0872    0.6083 H   0  0  0  0  0  0  0  0  0  0  0  0
    3.1078    2.2840    1.5804 H   0  0  0  0  0  0  0  0  0  0  0  0
  1  2  1  0
  1  6  1  0
  1  7  1  0
  2  3  1  0
  3  4  2  3
  4  8  1  0
  4  9  1  0
  5 10  1  0
 10 11  1  0
 10 15  1  0
 10 16  1  0
 11 12  1  0
 11 17  1  0
 11 18  1  0
 12 13  1  0
 13 14  1  0
 13 19  1  0
 13 20  1  0
 14 21  1  0
 14 22  1  0
 14 23  1  0
M  RAD  1   1   2
M  END
>  <reaction>  (9) 
rmg_rxn_15599

>  <mol_properties>  (9) 
{"0": {"label": "*1", "atom_type": "Cs"}, "1": {"label": "*0", "atom_type": "O2s"}, "4": {"label": "*2", "atom_type": "H0"}, "9": {"label": "*3", "atom_type": "Cs"}, "10": {"label": "*4", "atom_type": "Cs"}}

>  <type>  (9) 
unop_5

>  <geom_source>  (9) 
Heuristics

$$$$

     RDKit          3D

 23 21  0  0  0  0  0  0  0  0999 V2000
   -1.9613    1.6274    1.0124 C   0  0  0  0  0  3  0  0  0  0  0  0
   -1.9614    1.6853   -0.4005 O   0  0  0  0  0  0  0  0  0  0  0  0
   -1.9614    0.4115   -0.9162 N   0  0  0  0  0  0  0  0  0  0  0  0
   -1.9614    0.4115   -2.1799 C   0  0  0  0  0  0  0  0  0  0  0  0
   -0.8908    1.0153    1.4565 H   0  0  0  0  0  0  0  0  0  0  0  0
   -2.8535    1.1172    1.3825 H   0  0  0  0  0  0  0  0  0  0  0  0
   -1.9614    2.6623    1.3502 H   0  0  0  0  0  0  0  0  0  0  0  0
   -1.9614   -0.5556   -2.6647 H   0  0  0  0  0  0  0  0  0  0  0  0
   -1.9614    1.3280   -2.7660 H   0  0  0  0  0  0  0  0  0  0  0  0
    0.1781    0.4041    1.8999 C   0  0  0  0  0  0  0  0  0  0  0  0
    1.3500    0.6049    0.9534 C   0  0  0  0  0  0  0  0  0  0  0  0
    1.2510   -0.3280   -0.5952 S   0  0  0  0  0  0  0  0  0  0  0  0
    1.2042   -2.0398   -0.0071 C   0  0  0  0  0  0  0  0  0  0  0  0
    2.4188   -2.4764    0.7952 C   0  0  0  0  0  0  0  0  0  0  0  0
    0.1342   -0.6219    2.2692 H   0  0  0  0  0  0  0  0  0  0  0  0
    0.2752    1.0606    2.7674 H   0  0  0  0  0  0  0  0  0  0  0  0
    2.2957    0.3837    1.4510 H   0  0  0  0  0  0  0  0  0  0  0  0
    1.4025    1.6448    0.6268 H   0  0  0  0  0  0  0  0  0  0  0  0
    0.2845   -2.2053    0.5564 H   0  0  0  0  0  0  0  0  0  0  0  0
    1.1214   -2.6267   -0.9234 H   0  0  0  0  0  0  0  0  0  0  0  0
    2.4947   -1.9278    1.7355 H   0  0  0  0  0  0  0  0  0  0  0  0
    2.3489   -3.5385    1.0403 H   0  0  0  0  0  0  0  0  0  0  0  0
    3.3378   -2.3107    0.2318 H   0  0  0  0  0  0  0  0  0  0  0  0
  1  2  1  0
  1  6  1  0
  1  7  1  0
  2  3  1  0
  3  4  2  3
  4  8  1  0
  4  9  1  0
  5 10  1  0
 10 11  1  0
 10 15  1  0
 10 16  1  0
 11 12  1  0
 11 17  1  0
 11 18  1  0
 12 13  1  0
 13 14  1  0
 13 19  1  0
 13 20  1  0
 14 21  1  0
 14 22  1  0
 14 23  1  0
M  RAD  1   1   2
M  END
>  <reaction>  (10) 
rmg_rxn_15599

>  <mol_properties>  (10) 
{"0": {"label": "*1", "atom_type": "Cs"}, "1": {"label": "*0", "atom_type": "O2s"}, "4": {"label": "*2", "atom_type": "H0"}, "9": {"label": "*3", "atom_type": "Cs"}, "10": {"label": "*4", "atom_type": "Cs"}}

>  <type>  (10) 
unop_6

>  <geom_source>  (10) 
Heuristics

$$$$

     RDKit          3D

 23 21  0  0  0  0  0  0  0  0999 V2000
   -2.5641   -1.3074   -0.7345 C   0  0  0  0  0  3  0  0  0  0  0  0
   -2.9362   -0.3450    0.1870 O   0  0  0  0  0  0  0  0  0  0  0  0
   -2.6214    0.9341   -0.2282 N   0  0  0  0  0  0  0  0  0  0  0  0
   -2.8988    1.8601    0.5839 C   0  0  0  0  0  0  0  0  0  0  0  0
   -1.2456   -1.5056   -0.6089 H   0  0  0  0  0  0  0  0  0  0  0  0
   -2.7104   -1.0004   -1.7671 H   0  0  0  0  0  0  0  0  0  0  0  0
   -3.0598   -2.2343   -0.4705 H   0  0  0  0  0  0  0  0  0  0  0  0
   -2.6640    2.8607    0.2680 H   0  0  0  0  0  0  0  0  0  0  0  0
   -3.3537    1.7051    1.5573 H   0  0  0  0  0  0  0  0  0  0  0  0
    0.0507   -1.5903   -0.4576 C   0  0  0  0  0  0  0  0  0  0  0  0
    0.4639   -0.5041    0.4712 C   0  0  0  0  0  0  0  0  0  0  0  0
    2.2923   -0.5164    0.7708 S   0  0  0  0  0  0  0  0  0  0  0  0
    2.8909    0.3049   -0.7461 C   0  0  0  0  0  0  0  0  0  0  0  0
    2.7191    1.8113   -0.6993 C   0  0  0  0  0  0  0  0  0  0  0  0
    0.4489   -1.4857   -1.4617 H   0  0  0  0  0  0  0  0  0  0  0  0
    0.2363   -2.5832   -0.0634 H   0  0  0  0  0  0  0  0  0  0  0  0
    0.0323   -0.6353    1.4620 H   0  0  0  0  0  0  0  0  0  0  0  0
    0.2117    0.4855    0.0942 H   0  0  0  0  0  0  0  0  0  0  0  0
    3.9448    0.0364   -0.8085 H   0  0  0  0  0  0  0  0  0  0  0  0
    2.3638   -0.1348   -1.5921 H   0  0  0  0  0  0  0  0  0  0  0  0
    3.1305    2.2598   -1.6017 H   0  0  0  0  0  0  0  0  0  0  0  0
    1.6676    2.0832   -0.6313 H   0  0  0  0  0  0  0  0  0  0  0  0
    3.2378    2.2219    0.1638 H   0  0  0  0  0  0  0  0  0  0  0  0
  1  2  1  0
  1  6  1  0
  1  7  1  0
  2  3  1  0
  3  4  2  3
  4  8  1  0
  4  9  1  0
  5 10  1  0
 10 11  1  0
 10 15  1  0
 10 16  1  0
 11 12  1  0
 11 17  1  0
 11 18  1  0
 12 13  1  0
 13 14  1  0
 13 19  1  0
 13 20  1  0
 14 21  1  0
 14 22  1  0
 14 23  1  0
M  RAD  1   1   2
M  END
>  <reaction>  (11) 
rmg_rxn_15599

>  <mol_properties>  (11) 
{"0": {"label": "*1", "atom_type": "Cs"}, "1": {"label": "*0", "atom_type": "O2s"}, "4": {"label": "*2", "atom_type": "H0"}, "9": {"label": "*3", "atom_type": "Cs"}, "10": {"label": "*4", "atom_type": "Cs"}}

>  <type>  (11) 
unop_7

>  <geom_source>  (11) 
Heuristics

$$$$

     RDKit          3D

 23 21  0  0  0  0  0  0  0  0999 V2000
   -2.2773    0.3048   -0.4601 C   0  0  0  0  0  3  0  0  0  0  0  0
   -2.2773    0.3628   -1.8729 O   0  0  0  0  0  0  0  0  0  0  0  0
   -2.2773   -0.9111   -2.3887 N   0  0  0  0  0  0  0  0  0  0  0  0
   -2.2773   -0.9111   -3.6523 C   0  0  0  0  0  0  0  0  0  0  0  0
   -1.2067   -0.3073   -0.0159 H   0  0  0  0  0  0  0  0  0  0  0  0
   -3.1694   -0.2054   -0.0899 H   0  0  0  0  0  0  0  0  0  0  0  0
   -2.2773    1.3397   -0.1222 H   0  0  0  0  0  0  0  0  0  0  0  0
   -2.2773   -1.8782   -4.1371 H   0  0  0  0  0  0  0  0  0  0  0  0
   -2.2773    0.0054   -4.2384 H   0  0  0  0  0  0  0  0  0  0  0  0
   -0.1378   -0.9185    0.4275 C   0  0  0  0  0  0  0  0  0  0  0  0
    0.2650   -0.3857    1.7926 C   0  0  0  0  0  0  0  0  0  0  0  0
    1.2715    1.1189    1.7598 S   0  0  0  0  0  0  0  0  0  0  0  0
    2.7342    0.5796    0.8390 C   0  0  0  0  0  0  0  0  0  0  0  0
    3.5103   -0.5606    1.4772 C   0  0  0  0  0  0  0  0  0  0  0  0
    0.7305   -1.2528   -0.1429 H   0  0  0  0  0  0  0  0  0  0  0  0
   -0.8069   -1.7748    0.5375 H   0  0  0  0  0  0  0  0  0  0  0  0
    0.7775   -1.1531    2.3751 H   0  0  0  0  0  0  0  0  0  0  0  0
   -0.6180   -0.0947    2.3640 H   0  0  0  0  0  0  0  0  0  0  0  0
    2.4482    0.3319   -0.1846 H   0  0  0  0  0  0  0  0  0  0  0  0
    3.3519    1.4775    0.7842 H   0  0  0  0  0  0  0  0  0  0  0  0
    2.9216   -1.4791    1.5032 H   0  0  0  0  0  0  0  0  0  0  0  0
    4.4169   -0.7687    0.9047 H   0  0  0  0  0  0  0  0  0  0  0  0
    3.7958   -0.3127    2.5001 H   0  0  0  0  0  0  0  0  0  0  0  0
  1  2  1  0
  1  6  1  0
  1  7  1  0
  2  3  1  0
  3  4  2  3
  4  8  1  0
  4  9  1  0
  5 10  1  0
 10 11  1  0
 10 15  1  0
 10 16  1  0
 11 12  1  0
 11 17  1  0
 11 18  1  0
 12 13  1  0
 13 14  1  0
 13 19  1  0
 13 20  1  0
 14 21  1  0
 14 22  1  0
 14 23  1  0
M  RAD  1   1   2
M  END
>  <reaction>  (12) 
rmg_rxn_15599

>  <mol_properties>  (12) 
{"0": {"label": "*1", "atom_type": "Cs"}, "1": {"label": "*0", "atom_type": "O2s"}, "4": {"label": "*2", "atom_type": "H0"}, "9": {"label": "*3", "atom_type": "Cs"}, "10": {"label": "*4", "atom_type": "Cs"}}

>  <type>  (12) 
unop_8

>  <geom_source>  (12) 
Heuristics

$$$$

     RDKit          3D

 23 21  0  0  0  0  0  0  0  0999 V2000
   -0.5507    2.0473    0.1409 C   0  0  0  0  0  3  0  0  0  0  0  0
   -0.5507    2.1052   -1.2719 O   0  0  0  0  0  0  0  0  0  0  0  0
   -0.5507    0.8313   -1.7877 N   0  0  0  0  0  0  0  0  0  0  0  0
   -0.5507    0.8313   -3.0513 C   0  0  0  0  0  0  0  0  0  0  0  0
    0.5199    1.4351    0.5851 H   0  0  0  0  0  0  0  0  0  0  0  0
   -1.4428    1.5371    0.5111 H   0  0  0  0  0  0  0  0  0  0  0  0
   -0.5507    3.0822    0.4787 H   0  0  0  0  0  0  0  0  0  0  0  0
   -0.5507   -0.1358   -3.5361 H   0  0  0  0  0  0  0  0  0  0  0  0
   -0.5507    1.7478   -3.6375 H   0  0  0  0  0  0  0  0  0  0  0  0
    1.5887    0.8239    1.0285 C   0  0  0  0  0  0  0  0  0  0  0  0
    1.6579   -0.5997    0.5010 C   0  0  0  0  0  0  0  0  0  0  0  0
    0.0675   -1.3110    0.0084 S   0  0  0  0  0  0  0  0  0  0  0  0
   -0.8696   -1.2592    1.5568 C   0  0  0  0  0  0  0  0  0  0  0  0
   -0.2656   -2.0582    2.6998 C   0  0  0  0  0  0  0  0  0  0  0  0
    1.0304    0.8763    1.9647 H   0  0  0  0  0  0  0  0  0  0  0  0
    2.5936    1.2043    1.2246 H   0  0  0  0  0  0  0  0  0  0  0  0
    2.1434   -1.2596    1.2219 H   0  0  0  0  0  0  0  0  0  0  0  0
    2.2538   -0.6393   -0.4124 H   0  0  0  0  0  0  0  0  0  0  0  0
   -1.0306   -0.2203    1.8494 H   0  0  0  0  0  0  0  0  0  0  0  0
   -1.8455   -1.6635    1.2829 H   0  0  0  0  0  0  0  0  0  0  0  0
    0.6932   -1.6428    3.0145 H   0  0  0  0  0  0  0  0  0  0  0  0
   -0.9303   -2.0412    3.5663 H   0  0  0  0  0  0  0  0  0  0  0  0
   -0.1048   -3.0963    2.4069 H   0  0  0  0  0  0  0  0  0  0  0  0
  1  2  1  0
  1  6  1  0
  1  7  1  0
  2  3  1  0
  3  4  2  3
  4  8  1  0
  4  9  1  0
  5 10  1  0
 10 11  1  0
 10 15  1  0
 10 16  1  0
 11 12  1  0
 11 17  1  0
 11 18  1  0
 12 13  1  0
 13 14  1  0
 13 19  1  0
 13 20  1  0
 14 21  1  0
 14 22  1  0
 14 23  1  0
M  RAD  1   1   2
M  END
>  <reaction>  (13) 
rmg_rxn_15599

>  <mol_properties>  (13) 
{"0": {"label": "*1", "atom_type": "Cs"}, "1": {"label": "*0", "atom_type": "O2s"}, "4": {"label": "*2", "atom_type": "H0"}, "9": {"label": "*3", "atom_type": "Cs"}, "10": {"label": "*4", "atom_type": "Cs"}}

>  <type>  (13) 
unop_9

>  <geom_source>  (13) 
Heuristics

$$$$

     RDKit          3D

 23 21  0  0  0  0  0  0  0  0999 V2000
   -1.9082    0.7727   -1.5456 C   0  0  0  0  0  3  0  0  0  0  0  0
   -2.6895    0.1530   -0.6591 O   0  0  0  0  0  0  0  0  0  0  0  0
   -2.0469   -0.3737    0.4340 N   0  0  0  0  0  0  0  0  0  0  0  0
   -2.7965   -0.9703    1.2765 C   0  0  0  0  0  0  0  0  0  0  0  0
    2.6467   -1.7833    1.0703 H   0  0  0  0  0  0  0  0  0  0  0  0
   -0.8463    0.8341   -1.4079 H   0  0  0  0  0  0  0  0  0  0  0  0
   -2.4343    1.1729   -2.3865 H   0  0  0  0  0  0  0  0  0  0  0  0
   -2.3102   -1.3875    2.1389 H   0  0  0  0  0  0  0  0  0  0  0  0
   -3.8699   -1.0729    1.1674 H   0  0  0  0  0  0  0  0  0  0  0  0
    2.1221   -2.1762    0.1961 C   0  0  0  0  0  0  0  0  0  0  0  0
    1.0985   -1.2283   -0.3803 C   0  0  0  0  0  0  0  0  0  0  0  0
    1.7953    0.4218   -0.7402 S   0  0  0  0  0  0  0  0  0  0  0  0
    1.8283    1.1581    0.9320 C   0  0  0  0  0  0  0  0  0  0  0  0
    0.4894    1.7460    1.3351 C   0  0  0  0  0  0  0  0  0  0  0  0
    1.6992   -3.1499    0.4133 H   0  0  0  0  0  0  0  0  0  0  0  0
    3.0086   -2.2583   -0.3968 H   0  0  0  0  0  0  0  0  0  0  0  0
    0.2465   -1.0914    0.2855 H   0  0  0  0  0  0  0  0  0  0  0  0
    0.7400   -1.5940   -1.3425 H   0  0  0  0  0  0  0  0  0  0  0  0
    2.1489    0.3803    1.6238 H   0  0  0  0  0  0  0  0  0  0  0  0
    2.5962    1.9299    0.8855 H   0  0  0  0  0  0  0  0  0  0  0  0
   -0.2886    0.9852    1.3228 H   0  0  0  0  0  0  0  0  0  0  0  0
    0.5552    2.1601    2.3398 H   0  0  0  0  0  0  0  0  0  0  0  0
    0.2067    2.5415    0.6492 H   0  0  0  0  0  0  0  0  0  0  0  0
  1  2  1  0
  1  6  1  0
  1  7  1  0
  2  3  1  0
  3  4  2  3
  4  8  1  0
  4  9  1  0
  5 10  1  0
 10 11  1  0
 10 15  1  0
 10 16  1  0
 11 12  1  0
 11 17  1  0
 11 18  1  0
 12 13  1  0
 13 14  1  0
 13 19  1  0
 13 20  1  0
 14 21  1  0
 14 22  1  0
 14 23  1  0
M  RAD  1   1   2
M  END
>  <reaction>  (14) 
rmg_rxn_15599

>  <mol_properties>  (14) 
{"0": {"label": "*1", "atom_type": "Cs"}, "1": {"label": "*0", "atom_type": "O2s"}, "4": {"label": "*2", "atom_type": "H0"}, "9": {"label": "*3", "atom_type": "Cs"}, "10": {"label": "*4", "atom_type": "Cs"}}

>  <type>  (14) 
unop_10

>  <geom_source>  (14) 
Heuristics

$$$$

     RDKit          3D

 23 21  0  0  0  0  0  0  0  0999 V2000
   -1.6515    0.2285   -0.9257 C   0  0  0  0  0  3  0  0  0  0  0  0
   -1.6515    0.2864   -2.3385 O   0  0  0  0  0  0  0  0  0  0  0  0
   -1.6515   -0.9874   -2.8543 N   0  0  0  0  0  0  0  0  0  0  0  0
   -1.6515   -0.9874   -4.1179 C   0  0  0  0  0  0  0  0  0  0  0  0
   -0.5809   -0.3837   -0.4815 H   0  0  0  0  0  0  0  0  0  0  0  0
   -2.5436   -0.2817   -0.5555 H   0  0  0  0  0  0  0  0  0  0  0  0
   -1.6515    1.2634   -0.5879 H   0  0  0  0  0  0  0  0  0  0  0  0
   -1.6515   -1.9545   -4.6027 H   0  0  0  0  0  0  0  0  0  0  0  0
   -1.6515   -0.0710   -4.7040 H   0  0  0  0  0  0  0  0  0  0  0  0
    0.4880   -0.9948   -0.0381 C   0  0  0  0  0  0  0  0  0  0  0  0
    0.4871   -1.0566    1.4803 C   0  0  0  0  0  0  0  0  0  0  0  0
    0.3188    0.5434    2.3109 S   0  0  0  0  0  0  0  0  0  0  0  0
    1.7786    1.4361    1.7189 C   0  0  0  0  0  0  0  0  0  0  0  0
    3.1103    0.7953    2.0731 C   0  0  0  0  0  0  0  0  0  0  0  0
    1.3631   -0.4633   -0.4158 H   0  0  0  0  0  0  0  0  0  0  0  0
    0.5106   -2.0029   -0.4581 H   0  0  0  0  0  0  0  0  0  0  0  0
    1.3784   -1.5661    1.8505 H   0  0  0  0  0  0  0  0  0  0  0  0
   -0.3720   -1.6263    1.8383 H   0  0  0  0  0  0  0  0  0  0  0  0
    1.6959    1.5942    0.6423 H   0  0  0  0  0  0  0  0  0  0  0  0
    1.6907    2.4172    2.1883 H   0  0  0  0  0  0  0  0  0  0  0  0
    3.2332   -0.1699    1.5788 H   0  0  0  0  0  0  0  0  0  0  0  0
    3.9355    1.4350    1.7523 H   0  0  0  0  0  0  0  0  0  0  0  0
    3.1925    0.6373    3.1490 H   0  0  0  0  0  0  0  0  0  0  0  0
  1  2  1  0
  1  6  1  0
  1  7  1  0
  2  3  1  0
  3  4  2  3
  4  8  1  0
  4  9  1  0
  5 10  1  0
 10 11  1  0
 10 15  1  0
 10 16  1  0
 11 12  1  0
 11 17  1  0
 11 18  1  0
 12 13  1  0
 13 14  1  0
 13 19  1  0
 13 20  1  0
 14 21  1  0
 14 22  1  0
 14 23  1  0
M  RAD  1   1   2
M  END
>  <reaction>  (15) 
rmg_rxn_15599

>  <mol_properties>  (15) 
{"0": {"label": "*1", "atom_type": "Cs"}, "1": {"label": "*0", "atom_type": "O2s"}, "4": {"label": "*2", "atom_type": "H0"}, "9": {"label": "*3", "atom_type": "Cs"}, "10": {"label": "*4", "atom_type": "Cs"}}

>  <type>  (15) 
unop_11

>  <geom_source>  (15) 
Heuristics

$$$$

     RDKit          3D

 23 21  0  0  0  0  0  0  0  0999 V2000
   -2.5667    1.3088   -0.7279 C   0  0  0  0  0  3  0  0  0  0  0  0
   -2.9313    0.3423    0.1923 O   0  0  0  0  0  0  0  0  0  0  0  0
   -2.6164   -0.9347   -0.2294 N   0  0  0  0  0  0  0  0  0  0  0  0
   -2.8861   -1.8641    0.5813 C   0  0  0  0  0  0  0  0  0  0  0  0
   -1.2476    1.5079   -0.6098 H   0  0  0  0  0  0  0  0  0  0  0  0
   -3.0620    2.2339   -0.4573 H   0  0  0  0  0  0  0  0  0  0  0  0
   -2.7191    1.0054   -1.7608 H   0  0  0  0  0  0  0  0  0  0  0  0
   -2.6512   -2.8631    0.2600 H   0  0  0  0  0  0  0  0  0  0  0  0
   -3.3347   -1.7138    1.5583 H   0  0  0  0  0  0  0  0  0  0  0  0
    0.0494    1.5915   -0.4644 C   0  0  0  0  0  0  0  0  0  0  0  0
    0.4635    0.5122    0.4721 C   0  0  0  0  0  0  0  0  0  0  0  0
    2.2930    0.5222    0.7649 S   0  0  0  0  0  0  0  0  0  0  0  0
    2.8838   -0.3132   -0.7474 C   0  0  0  0  0  0  0  0  0  0  0  0
    2.7067   -1.8185   -0.6884 C   0  0  0  0  0  0  0  0  0  0  0  0
    0.2387    2.5873   -0.0794 H   0  0  0  0  0  0  0  0  0  0  0  0
    0.4436    1.4774   -1.4691 H   0  0  0  0  0  0  0  0  0  0  0  0
    0.2076   -0.4799    0.1044 H   0  0  0  0  0  0  0  0  0  0  0  0
    0.0359    0.6528    1.4633 H   0  0  0  0  0  0  0  0  0  0  0  0
    2.3557    0.1217   -1.5952 H   0  0  0  0  0  0  0  0  0  0  0  0
    3.9385   -0.0490   -0.8151 H   0  0  0  0  0  0  0  0  0  0  0  0
    1.6545   -2.0859   -0.6140 H   0  0  0  0  0  0  0  0  0  0  0  0
    3.1127   -2.2753   -1.5891 H   0  0  0  0  0  0  0  0  0  0  0  0
    3.2275   -2.2244    0.1756 H   0  0  0  0  0  0  0  0  0  0  0  0
  1  2  1  0
  1  6  1  0
  1  7  1  0
  2  3  1  0
  3  4  2  3
  4  8  1  0
  4  9  1  0
  5 10  1  0
 10 11  1  0
 10 15  1  0
 10 16  1  0
 11 12  1  0
 11 17  1  0
 11 18  1  0
 12 13  1  0
 13 14  1  0
 13 19  1  0
 13 20  1  0
 14 21  1  0
 14 22  1  0
 14 23  1  0
M  RAD  1   1   2
M  END
>  <reaction>  (16) 
rmg_rxn_15599

>  <mol_properties>  (16) 
{"0": {"label": "*1", "atom_type": "Cs"}, "1": {"label": "*0", "atom_type": "O2s"}, "4": {"label": "*2", "atom_type": "H0"}, "9": {"label": "*3", "atom_type": "Cs"}, "10": {"label": "*4", "atom_type": "Cs"}}

>  <type>  (16) 
unop_12

>  <geom_source>  (16) 
Heuristics

$$$$

     RDKit          3D

 23 21  0  0  0  0  0  0  0  0999 V2000
    2.5699   -1.3103    0.7220 C   0  0  0  0  0  3  0  0  0  0  0  0
    2.9301   -0.3404   -0.1964 O   0  0  0  0  0  0  0  0  0  0  0  0
    2.6164    0.9349    0.2314 N   0  0  0  0  0  0  0  0  0  0  0  0
    2.8821    1.8674   -0.5772 C   0  0  0  0  0  0  0  0  0  0  0  0
    1.2501   -1.5079    0.6101 H   0  0  0  0  0  0  0  0  0  0  0  0
    2.7284   -1.0114    1.7553 H   0  0  0  0  0  0  0  0  0  0  0  0
    3.0630   -2.2347    0.4447 H   0  0  0  0  0  0  0  0  0  0  0  0
    2.6480    2.8651   -0.2513 H   0  0  0  0  0  0  0  0  0  0  0  0
    3.3261    1.7208   -1.5569 H   0  0  0  0  0  0  0  0  0  0  0  0
   -0.0475   -1.5902    0.4691 C   0  0  0  0  0  0  0  0  0  0  0  0
   -0.4629   -0.5138   -0.4701 C   0  0  0  0  0  0  0  0  0  0  0  0
   -2.2926   -0.5261   -0.7619 S   0  0  0  0  0  0  0  0  0  0  0  0
   -2.8834    0.3154    0.7469 C   0  0  0  0  0  0  0  0  0  0  0  0
   -2.7085    1.8207    0.6807 C   0  0  0  0  0  0  0  0  0  0  0  0
   -0.4388   -1.4722    1.4744 H   0  0  0  0  0  0  0  0  0  0  0  0
   -0.2388   -2.5872    0.0879 H   0  0  0  0  0  0  0  0  0  0  0  0
   -0.0356   -0.6567   -1.4611 H   0  0  0  0  0  0  0  0  0  0  0  0
   -0.2076    0.4795   -0.1051 H   0  0  0  0  0  0  0  0  0  0  0  0
   -3.9376    0.0501    0.8169 H   0  0  0  0  0  0  0  0  0  0  0  0
   -2.3539   -0.1148    1.5963 H   0  0  0  0  0  0  0  0  0  0  0  0
   -1.6567    2.0893    0.6046 H   0  0  0  0  0  0  0  0  0  0  0  0
   -3.2301    2.2216   -0.1851 H   0  0  0  0  0  0  0  0  0  0  0  0
   -3.1148    2.2813    1.5793 H   0  0  0  0  0  0  0  0  0  0  0  0
  1  2  1  0
  1  6  1  0
  1  7  1  0
  2  3  1  0
  3  4  2  3
  4  8  1  0
  4  9  1  0
  5 10  1  0
 10 11  1  0
 10 15  1  0
 10 16  1  0
 11 12  1  0
 11 17  1  0
 11 18  1  0
 12 13  1  0
 13 14  1  0
 13 19  1  0
 13 20  1  0
 14 21  1  0
 14 22  1  0
 14 23  1  0
M  RAD  1   1   2
M  END
>  <reaction>  (17) 
rmg_rxn_15599

>  <mol_properties>  (17) 
{"0": {"label": "*1", "atom_type": "Cs"}, "1": {"label": "*0", "atom_type": "O2s"}, "4": {"label": "*2", "atom_type": "H0"}, "9": {"label": "*3", "atom_type": "Cs"}, "10": {"label": "*4", "atom_type": "Cs"}}

>  <type>  (17) 
unop_13

>  <geom_source>  (17) 
Heuristics

$$$$

     RDKit          3D

 23 21  0  0  0  0  0  0  0  0999 V2000
   -0.3854    1.7844   -0.3794 C   0  0  0  0  0  3  0  0  0  0  0  0
   -0.3854    1.8423   -1.7923 O   0  0  0  0  0  0  0  0  0  0  0  0
   -0.3854    0.5685   -2.3081 N   0  0  0  0  0  0  0  0  0  0  0  0
   -0.3854    0.5685   -3.5717 C   0  0  0  0  0  0  0  0  0  0  0  0
    0.6852    1.1723    0.0647 H   0  0  0  0  0  0  0  0  0  0  0  0
   -1.2775    1.2742   -0.0093 H   0  0  0  0  0  0  0  0  0  0  0  0
   -0.3854    2.8193   -0.0416 H   0  0  0  0  0  0  0  0  0  0  0  0
   -0.3854   -0.3986   -4.0565 H   0  0  0  0  0  0  0  0  0  0  0  0
   -0.3854    1.4850   -4.1578 H   0  0  0  0  0  0  0  0  0  0  0  0
    1.7541    0.5611    0.5081 C   0  0  0  0  0  0  0  0  0  0  0  0
    1.5090   -0.9329    0.6411 C   0  0  0  0  0  0  0  0  0  0  0  0
   -0.2322   -1.4282    0.6093 S   0  0  0  0  0  0  0  0  0  0  0  0
   -0.9047   -0.5508    2.0432 C   0  0  0  0  0  0  0  0  0  0  0  0
   -0.2750   -0.9211    3.3759 C   0  0  0  0  0  0  0  0  0  0  0  0
    1.3590    1.1085    1.3655 H   0  0  0  0  0  0  0  0  0  0  0  0
    2.8256    0.7657    0.4543 H   0  0  0  0  0  0  0  0  0  0  0  0
    1.9826   -1.3271    1.5418 H   0  0  0  0  0  0  0  0  0  0  0  0
    1.9463   -1.4677   -0.2037 H   0  0  0  0  0  0  0  0  0  0  0  0
   -0.8475    0.5252    1.8704 H   0  0  0  0  0  0  0  0  0  0  0  0
   -1.9636   -0.8145    2.0355 H   0  0  0  0  0  0  0  0  0  0  0  0
    0.7752   -0.6272    3.4168 H   0  0  0  0  0  0  0  0  0  0  0  0
   -0.7901   -0.4110    4.1929 H   0  0  0  0  0  0  0  0  0  0  0  0
   -0.3323   -1.9965    3.5481 H   0  0  0  0  0  0  0  0  0  0  0  0
  1  2  1  0
  1  6  1  0
  1  7  1  0
  2  3  1  0
  3  4  2  3
  4  8  1  0
  4  9  1  0
  5 10  1  0
 10 11  1  0
 10 15  1  0
 10 16  1  0
 11 12  1  0
 11 17  1  0
 11 18  1  0
 12 13  1  0
 13 14  1  0
 13 19  1  0
 13 20  1  0
 14 21  1  0
 14 22  1  0
 14 23  1  0
M  RAD  1   1   2
M  END
>  <reaction>  (18) 
rmg_rxn_15599

>  <mol_properties>  (18) 
{"0": {"label": "*1", "atom_type": "Cs"}, "1": {"label": "*0", "atom_type": "O2s"}, "4": {"label": "*2", "atom_type": "H0"}, "9": {"label": "*3", "atom_type": "Cs"}, "10": {"label": "*4", "atom_type": "Cs"}}

>  <type>  (18) 
unop_14

>  <geom_source>  (18) 
Heuristics

$$$$

     RDKit          3D

 23 21  0  0  0  0  0  0  0  0999 V2000
   -2.5615   -1.3099    0.7353 C   0  0  0  0  0  3  0  0  0  0  0  0
   -2.9376   -0.3508   -0.1880 O   0  0  0  0  0  0  0  0  0  0  0  0
   -2.6449    0.9317    0.2329 N   0  0  0  0  0  0  0  0  0  0  0  0
   -2.9232    1.8548   -0.5822 C   0  0  0  0  0  0  0  0  0  0  0  0
   -1.2413   -1.4994    0.6132 H   0  0  0  0  0  0  0  0  0  0  0  0
   -3.0492   -2.2409    0.4708 H   0  0  0  0  0  0  0  0  0  0  0  0
   -2.7132   -1.0028    1.7671 H   0  0  0  0  0  0  0  0  0  0  0  0
   -2.7063    2.8582   -0.2619 H   0  0  0  0  0  0  0  0  0  0  0  0
   -3.3625    1.6948   -1.5620 H   0  0  0  0  0  0  0  0  0  0  0  0
    0.0549   -1.5803    0.4609 C   0  0  0  0  0  0  0  0  0  0  0  0
    0.4652   -0.4904   -0.4650 C   0  0  0  0  0  0  0  0  0  0  0  0
    2.2908   -0.5088   -0.7804 S   0  0  0  0  0  0  0  0  0  0  0  0
    2.9075    0.2929    0.7398 C   0  0  0  0  0  0  0  0  0  0  0  0
    2.7442    1.8006    0.7106 C   0  0  0  0  0  0  0  0  0  0  0  0
    0.2415   -2.5714    0.0626 H   0  0  0  0  0  0  0  0  0  0  0  0
    0.4543   -1.4788    1.4649 H   0  0  0  0  0  0  0  0  0  0  0  0
    0.2197    0.4981   -0.0809 H   0  0  0  0  0  0  0  0  0  0  0  0
    0.0255   -0.6146   -1.4531 H   0  0  0  0  0  0  0  0  0  0  0  0
    2.3856   -0.1528    1.5858 H   0  0  0  0  0  0  0  0  0  0  0  0
    3.9603    0.0177    0.7898 H   0  0  0  0  0  0  0  0  0  0  0  0
    3.2578    2.2173   -0.1526 H   0  0  0  0  0  0  0  0  0  0  0  0
    1.6937    2.0791    0.6545 H   0  0  0  0  0  0  0  0  0  0  0  0
    3.1659    2.2372    1.6141 H   0  0  0  0  0  0  0  0  0  0  0  0
  1  2  1  0
  1  6  1  0
  1  7  1  0
  2  3  1  0
  3  4  2  3
  4  8  1  0
  4  9  1  0
  5 10  1  0
 10 11  1  0
 10 15  1  0
 10 16  1  0
 11 12  1  0
 11 17  1  0
 11 18  1  0
 12 13  1  0
 13 14  1  0
 13 19  1  0
 13 20  1  0
 14 21  1  0
 14 22  1  0
 14 23  1  0
M  RAD  1   1   2
M  END
>  <reaction>  (19) 
rmg_rxn_15599

>  <mol_properties>  (19) 
{"0": {"label": "*1", "atom_type": "Cs"}, "1": {"label": "*0", "atom_type": "O2s"}, "4": {"label": "*2", "atom_type": "H0"}, "9": {"label": "*3", "atom_type": "Cs"}, "10": {"label": "*4", "atom_type": "Cs"}}

>  <type>  (19) 
unop_15

>  <geom_source>  (19) 
Heuristics

$$$$

     RDKit          3D

 23 21  0  0  0  0  0  0  0  0999 V2000
   -0.4546    1.3138   -0.8494 C   0  0  0  0  0  3  0  0  0  0  0  0
   -0.4546    1.3717   -2.2623 O   0  0  0  0  0  0  0  0  0  0  0  0
   -0.4546    0.0978   -2.7781 N   0  0  0  0  0  0  0  0  0  0  0  0
   -0.4546    0.0978   -4.0417 C   0  0  0  0  0  0  0  0  0  0  0  0
    0.6160    0.7016   -0.4053 H   0  0  0  0  0  0  0  0  0  0  0  0
   -1.3467    0.8036   -0.4793 H   0  0  0  0  0  0  0  0  0  0  0  0
   -0.4546    2.3487   -0.5116 H   0  0  0  0  0  0  0  0  0  0  0  0
   -0.4546   -0.8692   -4.5265 H   0  0  0  0  0  0  0  0  0  0  0  0
   -0.4546    1.0143   -4.6278 H   0  0  0  0  0  0  0  0  0  0  0  0
    1.6849    0.0904    0.0381 C   0  0  0  0  0  0  0  0  0  0  0  0
    1.3100   -1.1415    0.8452 C   0  0  0  0  0  0  0  0  0  0  0  0
   -0.4234   -1.2187    1.3625 S   0  0  0  0  0  0  0  0  0  0  0  0
   -0.5852    0.2714    2.3781 C   0  0  0  0  0  0  0  0  0  0  0  0
    0.3262    0.3224    3.5932 C   0  0  0  0  0  0  0  0  0  0  0  0
    1.5974    1.0003    0.6342 H   0  0  0  0  0  0  0  0  0  0  0  0
    2.7204    0.0197   -0.3018 H   0  0  0  0  0  0  0  0  0  0  0  0
    1.9550   -1.2463    1.7192 H   0  0  0  0  0  0  0  0  0  0  0  0
    1.4425   -2.0443    0.2468 H   0  0  0  0  0  0  0  0  0  0  0  0
   -0.4498    1.1546    1.7516 H   0  0  0  0  0  0  0  0  0  0  0  0
   -1.6319    0.2626    2.6867 H   0  0  0  0  0  0  0  0  0  0  0  0
    1.3768    0.3731    3.3025 H   0  0  0  0  0  0  0  0  0  0  0  0
    0.1089    1.2092    4.1926 H   0  0  0  0  0  0  0  0  0  0  0  0
    0.1906   -0.5604    4.2189 H   0  0  0  0  0  0  0  0  0  0  0  0
  1  2  1  0
  1  6  1  0
  1  7  1  0
  2  3  1  0
  3  4  2  3
  4  8  1  0
  4  9  1  0
  5 10  1  0
 10 11  1  0
 10 15  1  0
 10 16  1  0
 11 12  1  0
 11 17  1  0
 11 18  1  0
 12 13  1  0
 13 14  1  0
 13 19  1  0
 13 20  1  0
 14 21  1  0
 14 22  1  0
 14 23  1  0
M  RAD  1   1   2
M  END
>  <reaction>  (20) 
rmg_rxn_15599

>  <mol_properties>  (20) 
{"0": {"label": "*1", "atom_type": "Cs"}, "1": {"label": "*0", "atom_type": "O2s"}, "4": {"label": "*2", "atom_type": "H0"}, "9": {"label": "*3", "atom_type": "Cs"}, "10": {"label": "*4", "atom_type": "Cs"}}

>  <type>  (20) 
unop_16

>  <geom_source>  (20) 
Heuristics

$$$$

     RDKit          3D

 23 21  0  0  0  0  0  0  0  0999 V2000
   -2.5645    1.3087    0.7288 C   0  0  0  0  0  3  0  0  0  0  0  0
   -2.9349    0.3438   -0.1909 O   0  0  0  0  0  0  0  0  0  0  0  0
   -2.6230   -0.9343    0.2292 N   0  0  0  0  0  0  0  0  0  0  0  0
   -2.8994   -1.8624   -0.5808 C   0  0  0  0  0  0  0  0  0  0  0  0
   -1.2460    1.5079    0.6050 H   0  0  0  0  0  0  0  0  0  0  0  0
   -2.7120    1.0039    1.7619 H   0  0  0  0  0  0  0  0  0  0  0  0
   -3.0604    2.2347    0.4621 H   0  0  0  0  0  0  0  0  0  0  0  0
   -2.6674   -2.8625   -0.2607 H   0  0  0  0  0  0  0  0  0  0  0  0
   -3.3507   -1.7097   -1.5562 H   0  0  0  0  0  0  0  0  0  0  0  0
    0.0506    1.5946    0.4584 C   0  0  0  0  0  0  0  0  0  0  0  0
    0.4687    0.5151   -0.4761 C   0  0  0  0  0  0  0  0  0  0  0  0
    2.3000    0.5252   -0.7583 S   0  0  0  0  0  0  0  0  0  0  0  0
    2.8796   -0.3209    0.7523 C   0  0  0  0  0  0  0  0  0  0  0  0
    2.7106   -1.8265    0.6769 C   0  0  0  0  0  0  0  0  0  0  0  0
    0.4455    1.4836    1.4632 H   0  0  0  0  0  0  0  0  0  0  0  0
    0.2370    2.5903    0.0716 H   0  0  0  0  0  0  0  0  0  0  0  0
    0.0458    0.6555   -1.4693 H   0  0  0  0  0  0  0  0  0  0  0  0
    0.2113   -0.4771   -0.1093 H   0  0  0  0  0  0  0  0  0  0  0  0
    3.9321   -0.0522    0.8343 H   0  0  0  0  0  0  0  0  0  0  0  0
    2.3398    0.1032    1.5983 H   0  0  0  0  0  0  0  0  0  0  0  0
    1.6606   -2.0981    0.5869 H   0  0  0  0  0  0  0  0  0  0  0  0
    3.2438   -2.2215   -0.1846 H   0  0  0  0  0  0  0  0  0  0  0  0
    3.1078   -2.2901    1.5780 H   0  0  0  0  0  0  0  0  0  0  0  0
  1  2  1  0
  1  6  1  0
  1  7  1  0
  2  3  1  0
  3  4  2  3
  4  8  1  0
  4  9  1  0
  5 10  1  0
 10 11  1  0
 10 15  1  0
 10 16  1  0
 11 12  1  0
 11 17  1  0
 11 18  1  0
 12 13  1  0
 13 14  1  0
 13 19  1  0
 13 20  1  0
 14 21  1  0
 14 22  1  0
 14 23  1  0
M  RAD  1   1   2
M  END
>  <reaction>  (21) 
rmg_rxn_15599

>  <mol_properties>  (21) 
{"0": {"label": "*1", "atom_type": "Cs"}, "1": {"label": "*0", "atom_type": "O2s"}, "4": {"label": "*2", "atom_type": "H0"}, "9": {"label": "*3", "atom_type": "Cs"}, "10": {"label": "*4", "atom_type": "Cs"}}

>  <type>  (21) 
unop_17

>  <geom_source>  (21) 
Heuristics

$$$$

     RDKit          3D

 23 21  0  0  0  0  0  0  0  0999 V2000
   -2.5409    0.7778    0.4520 C   0  0  0  0  0  3  0  0  0  0  0  0
   -2.5410    0.8357   -0.9609 O   0  0  0  0  0  0  0  0  0  0  0  0
   -2.5410   -0.4382   -1.4766 N   0  0  0  0  0  0  0  0  0  0  0  0
   -2.5410   -0.4382   -2.7402 C   0  0  0  0  0  0  0  0  0  0  0  0
   -1.4704    0.1656    0.8961 H   0  0  0  0  0  0  0  0  0  0  0  0
   -3.4331    0.2676    0.8221 H   0  0  0  0  0  0  0  0  0  0  0  0
   -2.5410    1.8127    0.7898 H   0  0  0  0  0  0  0  0  0  0  0  0
   -2.5410   -1.4053   -3.2250 H   0  0  0  0  0  0  0  0  0  0  0  0
   -2.5410    0.4783   -3.3264 H   0  0  0  0  0  0  0  0  0  0  0  0
   -0.4015   -0.4456    1.3395 C   0  0  0  0  0  0  0  0  0  0  0  0
    0.7300    0.5415    1.5742 C   0  0  0  0  0  0  0  0  0  0  0  0
    1.8857    0.7229    0.1924 S   0  0  0  0  0  0  0  0  0  0  0  0
    2.5416   -0.9559    0.0206 C   0  0  0  0  0  0  0  0  0  0  0  0
    3.2640   -1.4914    1.2457 C   0  0  0  0  0  0  0  0  0  0  0  0
   -0.0270   -1.4655    1.2369 H   0  0  0  0  0  0  0  0  0  0  0  0
   -1.0948   -0.4346    2.1835 H   0  0  0  0  0  0  0  0  0  0  0  0
    1.2838    0.2916    2.4807 H   0  0  0  0  0  0  0  0  0  0  0  0
    0.3342    1.5486    1.7153 H   0  0  0  0  0  0  0  0  0  0  0  0
    1.7395   -1.6299   -0.2849 H   0  0  0  0  0  0  0  0  0  0  0  0
    3.2281   -0.8810   -0.8244 H   0  0  0  0  0  0  0  0  0  0  0  0
    2.5831   -1.6118    2.0901 H   0  0  0  0  0  0  0  0  0  0  0  0
    3.6970   -2.4711    1.0319 H   0  0  0  0  0  0  0  0  0  0  0  0
    4.0654   -0.8176    1.5508 H   0  0  0  0  0  0  0  0  0  0  0  0
  1  2  1  0
  1  6  1  0
  1  7  1  0
  2  3  1  0
  3  4  2  3
  4  8  1  0
  4  9  1  0
  5 10  1  0
 10 11  1  0
 10 15  1  0
 10 16  1  0
 11 12  1  0
 11 17  1  0
 11 18  1  0
 12 13  1  0
 13 14  1  0
 13 19  1  0
 13 20  1  0
 14 21  1  0
 14 22  1  0
 14 23  1  0
M  RAD  1   1   2
M  END
>  <reaction>  (22) 
rmg_rxn_15599

>  <mol_properties>  (22) 
{"0": {"label": "*1", "atom_type": "Cs"}, "1": {"label": "*0", "atom_type": "O2s"}, "4": {"label": "*2", "atom_type": "H0"}, "9": {"label": "*3", "atom_type": "Cs"}, "10": {"label": "*4", "atom_type": "Cs"}}

>  <type>  (22) 
unop_18

>  <geom_source>  (22) 
Heuristics

$$$$

     RDKit          3D

 23 21  0  0  0  0  0  0  0  0999 V2000
   -2.5648    1.3069   -0.7365 C   0  0  0  0  0  3  0  0  0  0  0  0
   -2.9392    0.3453    0.1849 O   0  0  0  0  0  0  0  0  0  0  0  0
   -2.6238   -0.9342   -0.2287 N   0  0  0  0  0  0  0  0  0  0  0  0
   -2.9034   -1.8595    0.5835 C   0  0  0  0  0  0  0  0  0  0  0  0
   -1.2464    1.5039   -0.6091 H   0  0  0  0  0  0  0  0  0  0  0  0
   -3.0597    2.2344   -0.4734 H   0  0  0  0  0  0  0  0  0  0  0  0
   -2.7104    0.9998   -1.7692 H   0  0  0  0  0  0  0  0  0  0  0  0
   -2.6680   -2.8604    0.2688 H   0  0  0  0  0  0  0  0  0  0  0  0
   -3.3606   -1.7038    1.5557 H   0  0  0  0  0  0  0  0  0  0  0  0
    0.0497    1.5881   -0.4553 C   0  0  0  0  0  0  0  0  0  0  0  0
    0.4616    0.4962    0.4673 C   0  0  0  0  0  0  0  0  0  0  0  0
    2.2885    0.5121    0.7768 S   0  0  0  0  0  0  0  0  0  0  0  0
    2.8987   -0.2953   -0.7429 C   0  0  0  0  0  0  0  0  0  0  0  0
    2.7330   -1.8027   -0.7083 C   0  0  0  0  0  0  0  0  0  0  0  0
    0.2334    2.5785   -0.0538 H   0  0  0  0  0  0  0  0  0  0  0  0
    0.4501    1.4908   -1.4593 H   0  0  0  0  0  0  0  0  0  0  0  0
    0.2147   -0.4914    0.0815 H   0  0  0  0  0  0  0  0  0  0  0  0
    0.0245    0.6184    1.4569 H   0  0  0  0  0  0  0  0  0  0  0  0
    2.3744    0.1485   -1.5885 H   0  0  0  0  0  0  0  0  0  0  0  0
    3.9518   -0.0220   -0.7976 H   0  0  0  0  0  0  0  0  0  0  0  0
    3.1530   -2.2430   -1.6108 H   0  0  0  0  0  0  0  0  0  0  0  0
    3.2470   -2.2171    0.1557 H   0  0  0  0  0  0  0  0  0  0  0  0
    1.6821   -2.0794   -0.6500 H   0  0  0  0  0  0  0  0  0  0  0  0
  1  2  1  0
  1  6  1  0
  1  7  1  0
  2  3  1  0
  3  4  2  3
  4  8  1  0
  4  9  1  0
  5 10  1  0
 10 11  1  0
 10 15  1  0
 10 16  1  0
 11 12  1  0
 11 17  1  0
 11 18  1  0
 12 13  1  0
 13 14  1  0
 13 19  1  0
 13 20  1  0
 14 21  1  0
 14 22  1  0
 14 23  1  0
M  RAD  1   1   2
M  END
>  <reaction>  (23) 
rmg_rxn_15599

>  <mol_properties>  (23) 
{"0": {"label": "*1", "atom_type": "Cs"}, "1": {"label": "*0", "atom_type": "O2s"}, "4": {"label": "*2", "atom_type": "H0"}, "9": {"label": "*3", "atom_type": "Cs"}, "10": {"label": "*4", "atom_type": "Cs"}}

>  <type>  (23) 
unop_19

>  <geom_source>  (23) 
Heuristics

$$$$

     RDKit          3D

 23 21  0  0  0  0  0  0  0  0999 V2000
   -0.9087    2.1139    0.6046 C   0  0  0  0  0  3  0  0  0  0  0  0
   -0.9087    2.1718   -0.8083 O   0  0  0  0  0  0  0  0  0  0  0  0
   -0.9087    0.8979   -1.3240 N   0  0  0  0  0  0  0  0  0  0  0  0
   -0.9087    0.8979   -2.5877 C   0  0  0  0  0  0  0  0  0  0  0  0
    0.1619    1.5017    1.0487 H   0  0  0  0  0  0  0  0  0  0  0  0
   -1.8008    1.6037    0.9747 H   0  0  0  0  0  0  0  0  0  0  0  0
   -0.9087    3.1488    0.9424 H   0  0  0  0  0  0  0  0  0  0  0  0
   -0.9087   -0.0691   -3.0725 H   0  0  0  0  0  0  0  0  0  0  0  0
   -0.9087    1.8144   -3.1738 H   0  0  0  0  0  0  0  0  0  0  0  0
    1.2308    0.8905    1.4921 C   0  0  0  0  0  0  0  0  0  0  0  0
    1.7144   -0.1492    0.4947 C   0  0  0  0  0  0  0  0  0  0  0  0
    0.4021   -1.0415   -0.3769 S   0  0  0  0  0  0  0  0  0  0  0  0
   -0.4847   -1.8410    0.9842 C   0  0  0  0  0  0  0  0  0  0  0  0
    0.3472   -2.8046    1.8143 C   0  0  0  0  0  0  0  0  0  0  0  0
    0.6961    0.4281    2.3235 H   0  0  0  0  0  0  0  0  0  0  0  0
    2.0788    1.4365    1.9112 H   0  0  0  0  0  0  0  0  0  0  0  0
    2.3854   -0.8651    0.9721 H   0  0  0  0  0  0  0  0  0  0  0  0
    2.2814    0.3265   -0.3072 H   0  0  0  0  0  0  0  0  0  0  0  0
   -0.9445   -1.0789    1.6156 H   0  0  0  0  0  0  0  0  0  0  0  0
   -1.2992   -2.3707    0.4874 H   0  0  0  0  0  0  0  0  0  0  0  0
    1.1426   -2.2852    2.3514 H   0  0  0  0  0  0  0  0  0  0  0  0
   -0.2794   -3.3022    2.5578 H   0  0  0  0  0  0  0  0  0  0  0  0
    0.8065   -3.5660    1.1830 H   0  0  0  0  0  0  0  0  0  0  0  0
  1  2  1  0
  1  6  1  0
  1  7  1  0
  2  3  1  0
  3  4  2  3
  4  8  1  0
  4  9  1  0
  5 10  1  0
 10 11  1  0
 10 15  1  0
 10 16  1  0
 11 12  1  0
 11 17  1  0
 11 18  1  0
 12 13  1  0
 13 14  1  0
 13 19  1  0
 13 20  1  0
 14 21  1  0
 14 22  1  0
 14 23  1  0
M  RAD  1   1   2
M  END
>  <reaction>  (24) 
rmg_rxn_15599

>  <mol_properties>  (24) 
{"0": {"label": "*1", "atom_type": "Cs"}, "1": {"label": "*0", "atom_type": "O2s"}, "4": {"label": "*2", "atom_type": "H0"}, "9": {"label": "*3", "atom_type": "Cs"}, "10": {"label": "*4", "atom_type": "Cs"}}

>  <type>  (24) 
unop_20

>  <geom_source>  (24) 
Heuristics

$$$$

     RDKit          3D

 23 21  0  0  0  0  0  0  0  0999 V2000
   -2.3605    1.1759    0.8300 C   0  0  0  0  0  3  0  0  0  0  0  0
   -2.3605    1.2338   -0.5829 O   0  0  0  0  0  0  0  0  0  0  0  0
   -2.3605   -0.0401   -1.0987 N   0  0  0  0  0  0  0  0  0  0  0  0
   -2.3605   -0.0401   -2.3623 C   0  0  0  0  0  0  0  0  0  0  0  0
   -1.2899    0.5637    1.2741 H   0  0  0  0  0  0  0  0  0  0  0  0
   -3.2526    0.6657    1.2001 H   0  0  0  0  0  0  0  0  0  0  0  0
   -2.3605    2.2108    1.1678 H   0  0  0  0  0  0  0  0  0  0  0  0
   -2.3605   -1.0072   -2.8471 H   0  0  0  0  0  0  0  0  0  0  0  0
   -2.3605    0.8764   -2.9484 H   0  0  0  0  0  0  0  0  0  0  0  0
   -0.2210   -0.0475    1.7175 C   0  0  0  0  0  0  0  0  0  0  0  0
    1.0403    0.6775    1.2781 C   0  0  0  0  0  0  0  0  0  0  0  0
    1.6715    0.1964   -0.3493 S   0  0  0  0  0  0  0  0  0  0  0  0
    2.0076   -1.5681   -0.1218 C   0  0  0  0  0  0  0  0  0  0  0  0
    3.0274   -1.8935    0.9570 C   0  0  0  0  0  0  0  0  0  0  0  0
   -0.0385   -1.1134    1.8640 H   0  0  0  0  0  0  0  0  0  0  0  0
   -0.5791    0.3570    2.6668 H   0  0  0  0  0  0  0  0  0  0  0  0
    1.8317    0.5688    2.0214 H   0  0  0  0  0  0  0  0  0  0  0  0
    0.8494    1.7471    1.1764 H   0  0  0  0  0  0  0  0  0  0  0  0
    1.0697   -2.0967    0.0560 H   0  0  0  0  0  0  0  0  0  0  0  0
    2.3701   -1.8911   -1.0991 H   0  0  0  0  0  0  0  0  0  0  0  0
    2.6641   -1.6142    1.9474 H   0  0  0  0  0  0  0  0  0  0  0  0
    3.2319   -2.9663    0.9735 H   0  0  0  0  0  0  0  0  0  0  0  0
    3.9646   -1.3649    0.7790 H   0  0  0  0  0  0  0  0  0  0  0  0
  1  2  1  0
  1  6  1  0
  1  7  1  0
  2  3  1  0
  3  4  2  3
  4  8  1  0
  4  9  1  0
  5 10  1  0
 10 11  1  0
 10 15  1  0
 10 16  1  0
 11 12  1  0
 11 17  1  0
 11 18  1  0
 12 13  1  0
 13 14  1  0
 13 19  1  0
 13 20  1  0
 14 21  1  0
 14 22  1  0
 14 23  1  0
M  RAD  1   1   2
M  END
>  <reaction>  (25) 
rmg_rxn_15599

>  <mol_properties>  (25) 
{"0": {"label": "*1", "atom_type": "Cs"}, "1": {"label": "*0", "atom_type": "O2s"}, "4": {"label": "*2", "atom_type": "H0"}, "9": {"label": "*3", "atom_type": "Cs"}, "10": {"label": "*4", "atom_type": "Cs"}}

>  <type>  (25) 
unop_21

>  <geom_source>  (25) 
Heuristics

$$$$

     RDKit          3D

 23 21  0  0  0  0  0  0  0  0999 V2000
   -0.8561    0.6830   -1.1065 C   0  0  0  0  0  3  0  0  0  0  0  0
   -0.8561    0.7409   -2.5194 O   0  0  0  0  0  0  0  0  0  0  0  0
   -0.8561   -0.5330   -3.0351 N   0  0  0  0  0  0  0  0  0  0  0  0
   -0.8561   -0.5330   -4.2987 C   0  0  0  0  0  0  0  0  0  0  0  0
    0.2145    0.0708   -0.6624 H   0  0  0  0  0  0  0  0  0  0  0  0
   -1.7482    0.1728   -0.7364 H   0  0  0  0  0  0  0  0  0  0  0  0
   -0.8561    1.7179   -0.7687 H   0  0  0  0  0  0  0  0  0  0  0  0
   -0.8561   -1.5001   -4.7836 H   0  0  0  0  0  0  0  0  0  0  0  0
   -0.8561    0.3835   -4.8849 H   0  0  0  0  0  0  0  0  0  0  0  0
    1.2833   -0.5404   -0.2190 C   0  0  0  0  0  0  0  0  0  0  0  0
    0.9979   -1.2481    1.0953 C   0  0  0  0  0  0  0  0  0  0  0  0
   -0.3440   -0.5291    2.0754 S   0  0  0  0  0  0  0  0  0  0  0  0
    0.2650    1.1478    2.3839 C   0  0  0  0  0  0  0  0  0  0  0  0
    1.5762    1.2242    3.1483 C   0  0  0  0  0  0  0  0  0  0  0  0
    1.6556    0.4722   -0.0547 H   0  0  0  0  0  0  0  0  0  0  0  0
    2.0458   -1.0822   -0.7830 H   0  0  0  0  0  0  0  0  0  0  0  0
    1.8994   -1.3140    1.7067 H   0  0  0  0  0  0  0  0  0  0  0  0
    0.6663   -2.2716    0.9130 H   0  0  0  0  0  0  0  0  0  0  0  0
    0.3323    1.6895    1.4389 H   0  0  0  0  0  0  0  0  0  0  0  0
   -0.5382    1.6141    2.9569 H   0  0  0  0  0  0  0  0  0  0  0  0
    2.3998    0.7988    2.5723 H   0  0  0  0  0  0  0  0  0  0  0  0
    1.8296    2.2649    3.3625 H   0  0  0  0  0  0  0  0  0  0  0  0
    1.5086    0.6828    4.0925 H   0  0  0  0  0  0  0  0  0  0  0  0
  1  2  1  0
  1  6  1  0
  1  7  1  0
  2  3  1  0
  3  4  2  3
  4  8  1  0
  4  9  1  0
  5 10  1  0
 10 11  1  0
 10 15  1  0
 10 16  1  0
 11 12  1  0
 11 17  1  0
 11 18  1  0
 12 13  1  0
 13 14  1  0
 13 19  1  0
 13 20  1  0
 14 21  1  0
 14 22  1  0
 14 23  1  0
M  RAD  1   1   2
M  END
>  <reaction>  (26) 
rmg_rxn_15599

>  <mol_properties>  (26) 
{"0": {"label": "*1", "atom_type": "Cs"}, "1": {"label": "*0", "atom_type": "O2s"}, "4": {"label": "*2", "atom_type": "H0"}, "9": {"label": "*3", "atom_type": "Cs"}, "10": {"label": "*4", "atom_type": "Cs"}}

>  <type>  (26) 
unop_22

>  <geom_source>  (26) 
Heuristics

$$$$

     RDKit          3D

 23 21  0  0  0  0  0  0  0  0999 V2000
   -1.4202    1.9760    0.9256 C   0  0  0  0  0  3  0  0  0  0  0  0
   -1.4202    2.0339   -0.4873 O   0  0  0  0  0  0  0  0  0  0  0  0
   -1.4202    0.7601   -1.0030 N   0  0  0  0  0  0  0  0  0  0  0  0
   -1.4202    0.7601   -2.2666 C   0  0  0  0  0  0  0  0  0  0  0  0
   -0.3496    1.3638    1.3697 H   0  0  0  0  0  0  0  0  0  0  0  0
   -2.3123    1.4658    1.2957 H   0  0  0  0  0  0  0  0  0  0  0  0
   -1.4202    3.0109    1.2634 H   0  0  0  0  0  0  0  0  0  0  0  0
   -1.4202   -0.2070   -2.7515 H   0  0  0  0  0  0  0  0  0  0  0  0
   -1.4202    1.6765   -2.8528 H   0  0  0  0  0  0  0  0  0  0  0  0
    0.7193    0.7527    1.8131 C   0  0  0  0  0  0  0  0  0  0  0  0
    1.6065    0.3076    0.6624 C   0  0  0  0  0  0  0  0  0  0  0  0
    0.7893   -0.7289   -0.5770 S   0  0  0  0  0  0  0  0  0  0  0  0
    0.2684   -2.1584    0.4045 C   0  0  0  0  0  0  0  0  0  0  0  0
    1.3983   -2.9253    1.0715 C   0  0  0  0  0  0  0  0  0  0  0  0
    0.3971   -0.0951    2.4201 H   0  0  0  0  0  0  0  0  0  0  0  0
    1.2634    1.4366    2.4682 H   0  0  0  0  0  0  0  0  0  0  0  0
    2.4979   -0.2023    1.0317 H   0  0  0  0  0  0  0  0  0  0  0  0
    1.9521    1.1709    0.0914 H   0  0  0  0  0  0  0  0  0  0  0  0
   -0.4757   -1.8438    1.1381 H   0  0  0  0  0  0  0  0  0  0  0  0
   -0.2496   -2.7931   -0.3164 H   0  0  0  0  0  0  0  0  0  0  0  0
    1.9022   -2.3185    1.8257 H   0  0  0  0  0  0  0  0  0  0  0  0
    1.0086   -3.8139    1.5729 H   0  0  0  0  0  0  0  0  0  0  0  0
    2.1418   -3.2394    0.3381 H   0  0  0  0  0  0  0  0  0  0  0  0
  1  2  1  0
  1  6  1  0
  1  7  1  0
  2  3  1  0
  3  4  2  3
  4  8  1  0
  4  9  1  0
  5 10  1  0
 10 11  1  0
 10 15  1  0
 10 16  1  0
 11 12  1  0
 11 17  1  0
 11 18  1  0
 12 13  1  0
 13 14  1  0
 13 19  1  0
 13 20  1  0
 14 21  1  0
 14 22  1  0
 14 23  1  0
M  RAD  1   1   2
M  END
>  <reaction>  (27) 
rmg_rxn_15599

>  <mol_properties>  (27) 
{"0": {"label": "*1", "atom_type": "Cs"}, "1": {"label": "*0", "atom_type": "O2s"}, "4": {"label": "*2", "atom_type": "H0"}, "9": {"label": "*3", "atom_type": "Cs"}, "10": {"label": "*4", "atom_type": "Cs"}}

>  <type>  (27) 
unop_23

>  <geom_source>  (27) 
Heuristics

$$$$

     RDKit          3D

 23 21  0  0  0  0  0  0  0  0999 V2000
   -1.9072   -0.7867    1.5380 C   0  0  0  0  0  3  0  0  0  0  0  0
   -2.6891   -0.1606    0.6564 O   0  0  0  0  0  0  0  0  0  0  0  0
   -2.0462    0.3804   -0.4295 N   0  0  0  0  0  0  0  0  0  0  0  0
   -2.7962    0.9836   -1.2668 C   0  0  0  0  0  0  0  0  0  0  0  0
    3.0290    2.2489    0.4167 H   0  0  0  0  0  0  0  0  0  0  0  0
   -0.8447   -0.8421    1.4021 H   0  0  0  0  0  0  0  0  0  0  0  0
   -2.4336   -1.1987    2.3729 H   0  0  0  0  0  0  0  0  0  0  0  0
   -2.3097    1.4121   -2.1236 H   0  0  0  0  0  0  0  0  0  0  0  0
   -3.8702    1.0811   -1.1589 H   0  0  0  0  0  0  0  0  0  0  0  0
    2.1242    2.1727   -0.1894 C   0  0  0  0  0  0  0  0  0  0  0  0
    1.1000    1.2262    0.3882 C   0  0  0  0  0  0  0  0  0  0  0  0
    1.7928   -0.4273    0.7394 S   0  0  0  0  0  0  0  0  0  0  0  0
    1.8281   -1.1538   -0.9371 C   0  0  0  0  0  0  0  0  0  0  0  0
    0.4876   -1.7315   -1.3495 C   0  0  0  0  0  0  0  0  0  0  0  0
    2.6425    1.7930   -1.0440 H   0  0  0  0  0  0  0  0  0  0  0  0
    1.7076    3.1525   -0.3893 H   0  0  0  0  0  0  0  0  0  0  0  0
    0.2460    1.0947   -0.2763 H   0  0  0  0  0  0  0  0  0  0  0  0
    0.7447    1.5888    1.3526 H   0  0  0  0  0  0  0  0  0  0  0  0
    2.1565   -0.3743   -1.6232 H   0  0  0  0  0  0  0  0  0  0  0  0
    2.5911   -1.9305   -0.8916 H   0  0  0  0  0  0  0  0  0  0  0  0
   -0.2863   -0.9664   -1.3357 H   0  0  0  0  0  0  0  0  0  0  0  0
    0.5553   -2.1397   -2.3564 H   0  0  0  0  0  0  0  0  0  0  0  0
    0.1973   -2.5296   -0.6698 H   0  0  0  0  0  0  0  0  0  0  0  0
  1  2  1  0
  1  6  1  0
  1  7  1  0
  2  3  1  0
  3  4  2  3
  4  8  1  0
  4  9  1  0
  5 10  1  0
 10 11  1  0
 10 15  1  0
 10 16  1  0
 11 12  1  0
 11 17  1  0
 11 18  1  0
 12 13  1  0
 13 14  1  0
 13 19  1  0
 13 20  1  0
 14 21  1  0
 14 22  1  0
 14 23  1  0
M  RAD  1   1   2
M  END
>  <reaction>  (28) 
rmg_rxn_15599

>  <mol_properties>  (28) 
{"0": {"label": "*1", "atom_type": "Cs"}, "1": {"label": "*0", "atom_type": "O2s"}, "4": {"label": "*2", "atom_type": "H0"}, "9": {"label": "*3", "atom_type": "Cs"}, "10": {"label": "*4", "atom_type": "Cs"}}

>  <type>  (28) 
unop_24

>  <geom_source>  (28) 
Heuristics

$$$$

     RDKit          3D

 23 21  0  0  0  0  0  0  0  0999 V2000
   -1.6035    0.4819   -1.0083 S   0  0  0  0  0  0  0  0  0  0  0  0
    3.5708    0.0481   -0.5164 O   0  0  0  0  0  0  0  0  0  0  0  0
    3.3625    0.5489    0.7478 N   0  0  0  0  0  0  0  0  0  0  0  0
   -0.8095   -0.5793    0.2473 C   0  0  0  0  0  0  0  0  0  0  0  0
   -2.9832    1.0381    0.0542 C   0  0  0  0  0  0  0  0  0  0  0  0
    0.4200   -1.2466   -0.3473 C   0  0  0  0  0  0  0  0  0  0  0  0
   -4.1513    0.0639   -0.0241 C   0  0  0  0  0  0  0  0  0  0  0  0
    2.4797   -0.1212   -1.4039 C   0  0  0  0  0  3  0  0  0  0  0  0
    4.3529    0.7069    1.5624 C   0  0  0  0  0  0  0  0  0  0  0  0
   -1.5182   -1.3619    0.5894 H   0  0  0  0  0  0  0  0  0  0  0  0
   -0.5001    0.0390    1.1165 H   0  0  0  0  0  0  0  0  0  0  0  0
   -2.6551    1.1575    1.1086 H   0  0  0  0  0  0  0  0  0  0  0  0
   -3.3216    2.0305   -0.3111 H   0  0  0  0  0  0  0  0  0  0  0  0
    0.1305   -1.8823   -1.2108 H   0  0  0  0  0  0  0  0  0  0  0  0
    0.9073   -1.8843    0.4200 H   0  0  0  0  0  0  0  0  0  0  0  0
    1.2636   -0.3465   -0.7410 H   0  0  0  0  0  0  0  0  0  0  0  0
   -4.4893   -0.0436   -1.0766 H   0  0  0  0  0  0  0  0  0  0  0  0
   -4.9968    0.4481    0.5843 H   0  0  0  0  0  0  0  0  0  0  0  0
   -3.8569   -0.9311    0.3687 H   0  0  0  0  0  0  0  0  0  0  0  0
    2.0217    0.8649   -1.6281 H   0  0  0  0  0  0  0  0  0  0  0  0
    2.8397   -0.5806   -2.3473 H   0  0  0  0  0  0  0  0  0  0  0  0
    4.1764    1.1016    2.5535 H   0  0  0  0  0  0  0  0  0  0  0  0
    5.3604    0.4477    1.2622 H   0  0  0  0  0  0  0  0  0  0  0  0
  1  4  1  0
  1  5  1  0
  2  8  1  0
  2  3  1  0
  3  9  2  3
  4  6  1  0
  4 10  1  0
  4 11  1  0
  5  7  1  0
  5 12  1  0
  5 13  1  0
  6 14  1  0
  6 15  1  0
  6 16  1  0
  7 17  1  0
  7 18  1  0
  7 19  1  0
  8 20  1  0
  8 21  1  0
  9 22  1  0
  9 23  1  0
M  RAD  1   8   2
M  END
>  <reaction>  (29) 
rmg_rxn_15599

>  <mol_properties>  (29) 
{"0": {"label": "*1", "atom_type": "Cs"}, "1": {"label": "*0", "atom_type": "O2s"}, "4": {"label": "*2", "atom_type": "H0"}, "9": {"label": "*3", "atom_type": "Cs"}, "10": {"label": "*4", "atom_type": "Cs"}}

>  <type>  (29) 
unop_25

>  <geom_source>  (29) 
AutoTST

$$$$

     RDKit          3D

 23 21  0  0  0  0  0  0  0  0999 V2000
   -1.9613    1.6274    1.0124 C   0  0  0  0  0  3  0  0  0  0  0  0
   -1.9614    1.6853   -0.4005 O   0  0  0  0  0  0  0  0  0  0  0  0
   -1.9614    0.4115   -0.9163 N   0  0  0  0  0  0  0  0  0  0  0  0
   -1.9614    0.4115   -2.1799 C   0  0  0  0  0  0  0  0  0  0  0  0
   -0.8908    1.0152    1.4565 H   0  0  0  0  0  0  0  0  0  0  0  0
   -2.8535    1.1172    1.3825 H   0  0  0  0  0  0  0  0  0  0  0  0
   -1.9614    2.6623    1.3502 H   0  0  0  0  0  0  0  0  0  0  0  0
   -1.9614   -0.5556   -2.6647 H   0  0  0  0  0  0  0  0  0  0  0  0
   -1.9614    1.3279   -2.7660 H   0  0  0  0  0  0  0  0  0  0  0  0
    0.1781    0.4041    1.8999 C   0  0  0  0  0  0  0  0  0  0  0  0
    1.3500    0.6049    0.9534 C   0  0  0  0  0  0  0  0  0  0  0  0
    1.2510   -0.3280   -0.5952 S   0  0  0  0  0  0  0  0  0  0  0  0
    1.2042   -2.0398   -0.0071 C   0  0  0  0  0  0  0  0  0  0  0  0
    2.4188   -2.4764    0.7952 C   0  0  0  0  0  0  0  0  0  0  0  0
    0.1342   -0.6219    2.2692 H   0  0  0  0  0  0  0  0  0  0  0  0
    0.2752    1.0606    2.7674 H   0  0  0  0  0  0  0  0  0  0  0  0
    2.2957    0.3837    1.4510 H   0  0  0  0  0  0  0  0  0  0  0  0
    1.4025    1.6448    0.6268 H   0  0  0  0  0  0  0  0  0  0  0  0
    0.2845   -2.2054    0.5564 H   0  0  0  0  0  0  0  0  0  0  0  0
    1.1214   -2.6267   -0.9234 H   0  0  0  0  0  0  0  0  0  0  0  0
    2.4947   -1.9278    1.7355 H   0  0  0  0  0  0  0  0  0  0  0  0
    2.3489   -3.5385    1.0403 H   0  0  0  0  0  0  0  0  0  0  0  0
    3.3378   -2.3107    0.2318 H   0  0  0  0  0  0  0  0  0  0  0  0
  1  2  1  0
  1  6  1  0
  1  7  1  0
  2  3  1  0
  3  4  2  3
  4  8  1  0
  4  9  1  0
  5 10  1  0
 10 11  1  0
 10 15  1  0
 10 16  1  0
 11 12  1  0
 11 17  1  0
 11 18  1  0
 12 13  1  0
 13 14  1  0
 13 19  1  0
 13 20  1  0
 14 21  1  0
 14 22  1  0
 14 23  1  0
M  RAD  1   1   2
M  END
>  <reaction>  (30) 
rmg_rxn_15599

>  <mol_properties>  (30) 
{"0": {"label": "*1", "atom_type": "Cs"}, "1": {"label": "*0", "atom_type": "O2s"}, "4": {"label": "*2", "atom_type": "H0"}, "9": {"label": "*3", "atom_type": "Cs"}, "10": {"label": "*4", "atom_type": "Cs"}}

>  <type>  (30) 
unop_26

>  <geom_source>  (30) 
gaussian_log

$$$$
