
     RDKit          3D

 10  9  0  0  0  0  0  0  0  0999 V2000
    2.0403   -0.0578    0.0119 C   0  0  0  0  0  0  0  0  0  0  0  0
    0.5945   -0.0169    0.1897 C   0  0  0  0  0  0  0  0  0  0  0  0
   -0.5945    0.0168    0.3360 C   0  0  0  0  0  0  0  0  0  0  0  0
   -2.0403    0.0578    0.5138 C   0  0  0  0  0  0  0  0  0  0  0  0
    2.4765    0.9345    0.1393 H   0  0  0  0  0  0  0  0  0  0  0  0
    2.2999   -0.4148   -0.9861 H   0  0  0  0  0  0  0  0  0  0  0  0
    2.5034   -0.7257    0.7402 H   0  0  0  0  0  0  0  0  0  0  0  0
   -2.5533   -0.2780   -0.3890 H   0  0  0  0  0  0  0  0  0  0  0  0
   -2.3768    1.0720    0.7355 H   0  0  0  0  0  0  0  0  0  0  0  0
   -2.3497   -0.5878    1.3375 H   0  0  0  0  0  0  0  0  0  0  0  0
  1  2  1  0
  1  5  1  0
  1  6  1  0
  1  7  1  0
  2  3  3  0
  3  4  1  0
  4  8  1  0
  4  9  1  0
  4 10  1  0
M  END
>  <reaction>  (1) 
rmg_rxn_675

>  <mol_properties>  (1) 
{"3": {"label": "donator", "atom_type": "Cs"}, "9": {"label": "d_hydrogen", "atom_type": "H0"}}

>  <type>  (1) 
r1h

$$$$

     RDKit          3D

 14 13  0  0  0  0  0  0  0  0999 V2000
    2.7687   -0.0362   -0.0732 C   0  0  0  0  0  3  0  0  0  0  0  0
    1.6543    0.2105    0.6386 O   0  0  0  0  0  0  0  0  0  0  0  0
    1.8652    0.6968    1.9544 C   0  0  0  0  0  0  0  0  0  0  0  0
    0.5252    0.9355    2.6156 C   0  0  0  0  0  0  0  0  0  0  0  0
   -0.2992    2.0181    1.9317 C   0  0  0  0  0  0  0  0  0  0  0  0
    2.5851   -0.4757   -1.0422 H   0  0  0  0  0  0  0  0  0  0  0  0
    3.6974   -0.2083    0.4611 H   0  0  0  0  0  0  0  0  0  0  0  0
    2.4441    1.6271    1.9039 H   0  0  0  0  0  0  0  0  0  0  0  0
    2.4506   -0.0397    2.5179 H   0  0  0  0  0  0  0  0  0  0  0  0
    0.7150    1.2089    3.6572 H   0  0  0  0  0  0  0  0  0  0  0  0
   -0.0287   -0.0066    2.6327 H   0  0  0  0  0  0  0  0  0  0  0  0
   -0.5056    1.7522    0.8949 H   0  0  0  0  0  0  0  0  0  0  0  0
   -1.2524    2.1635    2.4416 H   0  0  0  0  0  0  0  0  0  0  0  0
    0.2319    2.9729    1.9340 H   0  0  0  0  0  0  0  0  0  0  0  0
  1  2  1  0
  1  6  1  0
  1  7  1  0
  2  3  1  0
  3  4  1  0
  3  8  1  0
  3  9  1  0
  4  5  1  0
  4 10  1  0
  4 11  1  0
  5 12  1  0
  5 13  1  0
  5 14  1  0
M  RAD  1   1   2
M  END
>  <reaction>  (2) 
rmg_rxn_675

>  <mol_properties>  (2) 
{"0": {"label": "acceptor", "atom_type": "Cs"}}

>  <type>  (2) 
r2

$$$$

     RDKit          3D

 15 14  0  0  0  0  0  0  0  0999 V2000
   -1.2811   -0.4129    1.0228 C   0  0  0  0  0  0  0  0  0  0  0  0
   -1.0023   -0.5809   -0.4650 C   0  0  0  0  0  0  0  0  0  0  0  0
   -2.0576    0.0568   -1.3449 C   0  0  0  0  0  0  0  0  0  0  0  0
   -2.0663    1.4464   -1.1307 O   0  0  0  0  0  0  0  0  0  0  0  0
   -3.0424    2.1072   -1.8849 C   0  0  0  0  0  0  0  0  0  0  0  0
   -2.2382   -0.8657    1.2935 H   0  0  0  0  0  0  0  0  0  0  0  0
   -1.3219    0.6426    1.2914 H   0  0  0  0  0  0  0  0  0  0  0  0
   -0.5042   -0.8881    1.6236 H   0  0  0  0  0  0  0  0  0  0  0  0
   -0.0316   -0.1460   -0.7167 H   0  0  0  0  0  0  0  0  0  0  0  0
   -0.9494   -1.6429   -0.7203 H   0  0  0  0  0  0  0  0  0  0  0  0
   -1.8518   -0.1570   -2.4041 H   0  0  0  0  0  0  0  0  0  0  0  0
   -3.0491   -0.3636   -1.1124 H   0  0  0  0  0  0  0  0  0  0  0  0
   -4.0521    1.7545   -1.6343 H   0  0  0  0  0  0  0  0  0  0  0  0
   -2.8850    1.9634   -2.9626 H   0  0  0  0  0  0  0  0  0  0  0  0
   -2.9730    3.1700   -1.6570 H   0  0  0  0  0  0  0  0  0  0  0  0
  1  2  1  0
  1  6  1  0
  1  7  1  0
  1  8  1  0
  2  3  1  0
  2  9  1  0
  2 10  1  0
  3  4  1  0
  3 11  1  0
  3 12  1  0
  4  5  1  0
  5 13  1  0
  5 14  1  0
  5 15  1  0
M  END
>  <reaction>  (3) 
rmg_rxn_675

>  <mol_properties>  (3) 
{"0": {"label": "a_hydrogen", "atom_type": "H0"}, "1": {"label": "acceptor", "atom_type": "Cs"}}

>  <type>  (3) 
r2h

$$$$

     RDKit          3D

 24 22  0  0  0  0  0  0  0  0999 V2000
    1.2727    0.4675   -2.8082 C   0  0  0  0  0  0  0  0  0  0  0  0
    0.2389    1.0617   -1.9730 C   0  0  0  0  0  0  0  0  0  0  0  0
   -0.6161    1.5617   -1.2873 C   0  0  0  0  0  0  0  0  0  0  0  0
   -1.5959    2.0929   -0.4018 C   0  0  0  0  0  0  0  0  0  0  0  0
    1.4086    1.0350   -3.7311 H   0  0  0  0  0  0  0  0  0  0  0  0
    1.0136   -0.5577   -3.0794 H   0  0  0  0  0  0  0  0  0  0  0  0
    2.2305    0.4453   -2.2841 H   0  0  0  0  0  0  0  0  0  0  0  0
   -2.6228    1.8234   -0.6408 H   0  0  0  0  0  0  0  0  0  0  0  0
   -1.4908    3.1547   -0.1884 H   0  0  0  0  0  0  0  0  0  0  0  0
   -1.3884    1.5176    0.8051 H   0  0  0  0  0  0  0  0  0  0  0  0
   -1.0270    0.8535    1.9425 C   0  0  0  0  0  3  0  0  0  0  0  0
   -0.0596   -0.0430    1.5891 O   0  0  0  0  0  0  0  0  0  0  0  0
   -0.5446   -1.1695    0.8797 C   0  0  0  0  0  0  0  0  0  0  0  0
    0.6295   -1.9680    0.3586 C   0  0  0  0  0  0  0  0  0  0  0  0
    1.5272   -2.5154    1.4600 C   0  0  0  0  0  0  0  0  0  0  0  0
   -0.6158    1.6163    2.5994 H   0  0  0  0  0  0  0  0  0  0  0  0
   -1.9541    0.4037    2.3142 H   0  0  0  0  0  0  0  0  0  0  0  0
   -1.1708   -0.8332    0.0467 H   0  0  0  0  0  0  0  0  0  0  0  0
   -1.1641   -1.7785    1.5540 H   0  0  0  0  0  0  0  0  0  0  0  0
    1.2029   -1.3259   -0.3147 H   0  0  0  0  0  0  0  0  0  0  0  0
    0.2314   -2.7878   -0.2458 H   0  0  0  0  0  0  0  0  0  0  0  0
    2.3555   -3.0887    1.0411 H   0  0  0  0  0  0  0  0  0  0  0  0
    1.9438   -1.7053    2.0588 H   0  0  0  0  0  0  0  0  0  0  0  0
    0.9682   -3.1743    2.1289 H   0  0  0  0  0  0  0  0  0  0  0  0
  1  2  1  0
  1  5  1  0
  1  6  1  0
  1  7  1  0
  2  3  3  0
  3  4  1  0
  4  8  1  0
  4  9  1  0
  4 10  1  0
 11 12  1  0
 11 16  1  0
 11 17  1  0
 12 13  1  0
 13 14  1  0
 13 18  1  0
 13 19  1  0
 14 15  1  0
 14 20  1  0
 14 21  1  0
 15 22  1  0
 15 23  1  0
 15 24  1  0
M  RAD  1  11   2
M  END
>  <reaction>  (4) 
rmg_rxn_675

>  <mol_properties>  (4) 
{"2": {"label": "*0", "atom_type": "Ct"}, "3": {"label": "*1", "atom_type": "Cs"}, "9": {"label": "*2", "atom_type": "H0"}, "10": {"label": "*3", "atom_type": "Cs"}, "11": {"label": "*4", "atom_type": "O2s"}}

>  <type>  (4) 
ts

$$$$

     RDKit          3D

 24 22  0  0  0  0  0  0  0  0999 V2000
   -0.1721    2.2133   -4.2647 C   0  0  0  0  0  0  0  0  0  0  0  0
   -0.1721    2.2133   -2.8075 C   0  0  0  0  0  0  0  0  0  0  0  0
   -0.1721    2.2133   -1.6090 C   0  0  0  0  0  0  0  0  0  0  0  0
   -0.1721    2.2133   -0.1517 C   0  0  0  0  0  0  0  0  0  0  0  0
    0.8433    2.3058   -4.6540 H   0  0  0  0  0  0  0  0  0  0  0  0
   -0.7598    3.0463   -4.6541 H   0  0  0  0  0  0  0  0  0  0  0  0
   -0.5996    1.2877   -4.6540 H   0  0  0  0  0  0  0  0  0  0  0  0
   -0.7603    3.0460    0.2376 H   0  0  0  0  0  0  0  0  0  0  0  0
    0.8432    2.3063    0.2376 H   0  0  0  0  0  0  0  0  0  0  0  0
   -0.6845    1.1023    0.3155 H   0  0  0  0  0  0  0  0  0  0  0  0
   -1.2003   -0.0160    0.7858 C   0  0  0  0  0  3  0  0  0  0  0  0
   -0.2803   -0.7129    1.5770 O   0  0  0  0  0  0  0  0  0  0  0  0
    0.3375   -1.7737    0.8914 C   0  0  0  0  0  0  0  0  0  0  0  0
    1.2845   -2.4943    1.8287 C   0  0  0  0  0  0  0  0  0  0  0  0
    0.5779   -3.1464    3.0097 C   0  0  0  0  0  0  0  0  0  0  0  0
   -1.6230    0.7817    1.3951 H   0  0  0  0  0  0  0  0  0  0  0  0
   -2.0129   -0.6703    0.4421 H   0  0  0  0  0  0  0  0  0  0  0  0
    0.8845   -1.3869    0.0189 H   0  0  0  0  0  0  0  0  0  0  0  0
   -0.4274   -2.4718    0.5154 H   0  0  0  0  0  0  0  0  0  0  0  0
    2.0304   -1.7794    2.1853 H   0  0  0  0  0  0  0  0  0  0  0  0
    1.8216   -3.2494    1.2479 H   0  0  0  0  0  0  0  0  0  0  0  0
    1.2898   -3.6587    3.6586 H   0  0  0  0  0  0  0  0  0  0  0  0
    0.0504   -2.4005    3.6042 H   0  0  0  0  0  0  0  0  0  0  0  0
   -0.1540   -3.8825    2.6679 H   0  0  0  0  0  0  0  0  0  0  0  0
  1  2  1  0
  1  5  1  0
  1  6  1  0
  1  7  1  0
  2  3  3  0
  3  4  1  0
  4  8  1  0
  4  9  1  0
  4 10  1  0
 11 12  1  0
 11 16  1  0
 11 17  1  0
 12 13  1  0
 13 14  1  0
 13 18  1  0
 13 19  1  0
 14 15  1  0
 14 20  1  0
 14 21  1  0
 15 22  1  0
 15 23  1  0
 15 24  1  0
M  RAD  1  11   2
M  END
>  <reaction>  (5) 
rmg_rxn_675

>  <mol_properties>  (5) 
{"2": {"label": "*0", "atom_type": "Ct"}, "3": {"label": "*1", "atom_type": "Cs"}, "9": {"label": "*2", "atom_type": "H0"}, "10": {"label": "*3", "atom_type": "Cs"}, "11": {"label": "*4", "atom_type": "O2s"}}

>  <type>  (5) 
unop_1

>  <geom_source>  (5) 
Heuristics

$$$$

     RDKit          3D

 24 22  0  0  0  0  0  0  0  0999 V2000
    0.7600    2.2170   -2.8921 C   0  0  0  0  0  0  0  0  0  0  0  0
    0.7600    2.2170   -1.4349 C   0  0  0  0  0  0  0  0  0  0  0  0
    0.7600    2.2170   -0.2364 C   0  0  0  0  0  0  0  0  0  0  0  0
    0.7600    2.2170    1.2209 C   0  0  0  0  0  0  0  0  0  0  0  0
    1.7753    2.3095   -3.2815 H   0  0  0  0  0  0  0  0  0  0  0  0
    0.1722    3.0500   -3.2815 H   0  0  0  0  0  0  0  0  0  0  0  0
    0.3325    1.2914   -3.2815 H   0  0  0  0  0  0  0  0  0  0  0  0
    0.1718    3.0497    1.6102 H   0  0  0  0  0  0  0  0  0  0  0  0
    1.7752    2.3100    1.6102 H   0  0  0  0  0  0  0  0  0  0  0  0
    0.2476    1.1060    1.6881 H   0  0  0  0  0  0  0  0  0  0  0  0
   -0.2683   -0.0123    2.1584 C   0  0  0  0  0  3  0  0  0  0  0  0
   -0.0466   -1.0857    1.2885 O   0  0  0  0  0  0  0  0  0  0  0  0
   -0.9270   -1.0919    0.1921 C   0  0  0  0  0  0  0  0  0  0  0  0
   -0.6438   -2.3025   -0.6732 C   0  0  0  0  0  0  0  0  0  0  0  0
   -0.8959   -3.6229    0.0425 C   0  0  0  0  0  0  0  0  0  0  0  0
    0.4555   -0.0886    2.9688 H   0  0  0  0  0  0  0  0  0  0  0  0
   -1.2814   -0.0398    2.5820 H   0  0  0  0  0  0  0  0  0  0  0  0
   -0.8036   -0.1677   -0.3917 H   0  0  0  0  0  0  0  0  0  0  0  0
   -1.9689   -1.1170    0.5494 H   0  0  0  0  0  0  0  0  0  0  0  0
    0.3940   -2.2513   -1.0125 H   0  0  0  0  0  0  0  0  0  0  0  0
   -1.2725   -2.2319   -1.5652 H   0  0  0  0  0  0  0  0  0  0  0  0
   -0.6864   -4.4701   -0.6121 H   0  0  0  0  0  0  0  0  0  0  0  0
   -0.2638   -3.7103    0.9261 H   0  0  0  0  0  0  0  0  0  0  0  0
   -1.9372   -3.6984    0.3655 H   0  0  0  0  0  0  0  0  0  0  0  0
  1  2  1  0
  1  5  1  0
  1  6  1  0
  1  7  1  0
  2  3  3  0
  3  4  1  0
  4  8  1  0
  4  9  1  0
  4 10  1  0
 11 12  1  0
 11 16  1  0
 11 17  1  0
 12 13  1  0
 13 14  1  0
 13 18  1  0
 13 19  1  0
 14 15  1  0
 14 20  1  0
 14 21  1  0
 15 22  1  0
 15 23  1  0
 15 24  1  0
M  RAD  1  11   2
M  END
>  <reaction>  (6) 
rmg_rxn_675

>  <mol_properties>  (6) 
{"2": {"label": "*0", "atom_type": "Ct"}, "3": {"label": "*1", "atom_type": "Cs"}, "9": {"label": "*2", "atom_type": "H0"}, "10": {"label": "*3", "atom_type": "Cs"}, "11": {"label": "*4", "atom_type": "O2s"}}

>  <type>  (6) 
unop_2

>  <geom_source>  (6) 
Heuristics

$$$$

     RDKit          3D

 24 22  0  0  0  0  0  0  0  0999 V2000
   -0.0568    1.9009   -4.7179 C   0  0  0  0  0  0  0  0  0  0  0  0
   -0.0568    1.9009   -3.2606 C   0  0  0  0  0  0  0  0  0  0  0  0
   -0.0568    1.9009   -2.0621 C   0  0  0  0  0  0  0  0  0  0  0  0
   -0.0568    1.9009   -0.6049 C   0  0  0  0  0  0  0  0  0  0  0  0
    0.9585    1.9934   -5.1072 H   0  0  0  0  0  0  0  0  0  0  0  0
   -0.6446    2.7339   -5.1072 H   0  0  0  0  0  0  0  0  0  0  0  0
   -0.4843    0.9754   -5.1072 H   0  0  0  0  0  0  0  0  0  0  0  0
   -0.6450    2.7336   -0.2155 H   0  0  0  0  0  0  0  0  0  0  0  0
    0.9584    1.9940   -0.2155 H   0  0  0  0  0  0  0  0  0  0  0  0
   -0.5692    0.7900   -0.1377 H   0  0  0  0  0  0  0  0  0  0  0  0
   -1.0851   -0.3283    0.3326 C   0  0  0  0  0  3  0  0  0  0  0  0
   -0.5266   -0.6714    1.5689 O   0  0  0  0  0  0  0  0  0  0  0  0
    0.6228   -1.4720    1.4465 C   0  0  0  0  0  0  0  0  0  0  0  0
    1.1375   -1.8270    2.8262 C   0  0  0  0  0  0  0  0  0  0  0  0
    0.1565   -2.6661    3.6342 C   0  0  0  0  0  0  0  0  0  0  0  0
   -1.9617    0.2886    0.5256 H   0  0  0  0  0  0  0  0  0  0  0  0
   -1.3936   -1.2193   -0.2310 H   0  0  0  0  0  0  0  0  0  0  0  0
    1.3950   -0.9332    0.8777 H   0  0  0  0  0  0  0  0  0  0  0  0
    0.3819   -2.3886    0.8847 H   0  0  0  0  0  0  0  0  0  0  0  0
    1.3678   -0.9010    3.3595 H   0  0  0  0  0  0  0  0  0  0  0  0
    2.0815   -2.3653    2.7041 H   0  0  0  0  0  0  0  0  0  0  0  0
    0.5628   -2.9058    4.6179 H   0  0  0  0  0  0  0  0  0  0  0  0
   -0.7838   -2.1331    3.7744 H   0  0  0  0  0  0  0  0  0  0  0  0
   -0.0636   -3.6072    3.1241 H   0  0  0  0  0  0  0  0  0  0  0  0
  1  2  1  0
  1  5  1  0
  1  6  1  0
  1  7  1  0
  2  3  3  0
  3  4  1  0
  4  8  1  0
  4  9  1  0
  4 10  1  0
 11 12  1  0
 11 16  1  0
 11 17  1  0
 12 13  1  0
 13 14  1  0
 13 18  1  0
 13 19  1  0
 14 15  1  0
 14 20  1  0
 14 21  1  0
 15 22  1  0
 15 23  1  0
 15 24  1  0
M  RAD  1  11   2
M  END
>  <reaction>  (7) 
rmg_rxn_675

>  <mol_properties>  (7) 
{"2": {"label": "*0", "atom_type": "Ct"}, "3": {"label": "*1", "atom_type": "Cs"}, "9": {"label": "*2", "atom_type": "H0"}, "10": {"label": "*3", "atom_type": "Cs"}, "11": {"label": "*4", "atom_type": "O2s"}}

>  <type>  (7) 
unop_3

>  <geom_source>  (7) 
Heuristics

$$$$

     RDKit          3D

 24 22  0  0  0  0  0  0  0  0999 V2000
    1.8544    1.0933   -3.5424 C   0  0  0  0  0  0  0  0  0  0  0  0
    1.8544    1.0933   -2.0851 C   0  0  0  0  0  0  0  0  0  0  0  0
    1.8544    1.0933   -0.8866 C   0  0  0  0  0  0  0  0  0  0  0  0
    1.8544    1.0933    0.5706 C   0  0  0  0  0  0  0  0  0  0  0  0
    2.8697    1.1858   -3.9317 H   0  0  0  0  0  0  0  0  0  0  0  0
    1.2666    1.9263   -3.9317 H   0  0  0  0  0  0  0  0  0  0  0  0
    1.4268    0.1678   -3.9317 H   0  0  0  0  0  0  0  0  0  0  0  0
    1.2661    1.9260    0.9600 H   0  0  0  0  0  0  0  0  0  0  0  0
    2.8696    1.1864    0.9600 H   0  0  0  0  0  0  0  0  0  0  0  0
    1.3419   -0.0176    1.0378 H   0  0  0  0  0  0  0  0  0  0  0  0
    0.8261   -1.1360    1.5081 C   0  0  0  0  0  3  0  0  0  0  0  0
   -0.4957   -1.3103    1.0833 O   0  0  0  0  0  0  0  0  0  0  0  0
   -1.1611   -0.0932    0.8531 C   0  0  0  0  0  0  0  0  0  0  0  0
   -2.5902   -0.3727    0.4359 C   0  0  0  0  0  0  0  0  0  0  0  0
   -3.4050   -1.0693    1.5177 C   0  0  0  0  0  0  0  0  0  0  0  0
    1.2584   -2.1244    1.6579 H   0  0  0  0  0  0  0  0  0  0  0  0
    0.8751   -0.5789    2.4536 H   0  0  0  0  0  0  0  0  0  0  0  0
   -0.6390    0.4761    0.0700 H   0  0  0  0  0  0  0  0  0  0  0  0
   -1.1468    0.5197    1.7685 H   0  0  0  0  0  0  0  0  0  0  0  0
   -2.5739   -0.9809   -0.4722 H   0  0  0  0  0  0  0  0  0  0  0  0
   -3.0549    0.5809    0.1702 H   0  0  0  0  0  0  0  0  0  0  0  0
   -4.4279   -1.2493    1.1836 H   0  0  0  0  0  0  0  0  0  0  0  0
   -2.9585   -2.0282    1.7805 H   0  0  0  0  0  0  0  0  0  0  0  0
   -3.4507   -0.4603    2.4240 H   0  0  0  0  0  0  0  0  0  0  0  0
  1  2  1  0
  1  5  1  0
  1  6  1  0
  1  7  1  0
  2  3  3  0
  3  4  1  0
  4  8  1  0
  4  9  1  0
  4 10  1  0
 11 12  1  0
 11 16  1  0
 11 17  1  0
 12 13  1  0
 13 14  1  0
 13 18  1  0
 13 19  1  0
 14 15  1  0
 14 20  1  0
 14 21  1  0
 15 22  1  0
 15 23  1  0
 15 24  1  0
M  RAD  1  11   2
M  END
>  <reaction>  (8) 
rmg_rxn_675

>  <mol_properties>  (8) 
{"2": {"label": "*0", "atom_type": "Ct"}, "3": {"label": "*1", "atom_type": "Cs"}, "9": {"label": "*2", "atom_type": "H0"}, "10": {"label": "*3", "atom_type": "Cs"}, "11": {"label": "*4", "atom_type": "O2s"}}

>  <type>  (8) 
unop_4

>  <geom_source>  (8) 
Heuristics

$$$$

     RDKit          3D

 24 22  0  0  0  0  0  0  0  0999 V2000
    0.2399    1.4320   -5.0190 C   0  0  0  0  0  0  0  0  0  0  0  0
    0.2399    1.4320   -3.5617 C   0  0  0  0  0  0  0  0  0  0  0  0
    0.2399    1.4320   -2.3632 C   0  0  0  0  0  0  0  0  0  0  0  0
    0.2399    1.4320   -0.9060 C   0  0  0  0  0  0  0  0  0  0  0  0
    1.2552    1.5245   -5.4083 H   0  0  0  0  0  0  0  0  0  0  0  0
   -0.3478    2.2650   -5.4083 H   0  0  0  0  0  0  0  0  0  0  0  0
   -0.1876    0.5065   -5.4083 H   0  0  0  0  0  0  0  0  0  0  0  0
   -0.3483    2.2647   -0.5166 H   0  0  0  0  0  0  0  0  0  0  0  0
    1.2552    1.5251   -0.5166 H   0  0  0  0  0  0  0  0  0  0  0  0
   -0.2725    0.3211   -0.4388 H   0  0  0  0  0  0  0  0  0  0  0  0
   -0.7883   -0.7972    0.0315 C   0  0  0  0  0  3  0  0  0  0  0  0
   -0.7947   -0.8112    1.4308 O   0  0  0  0  0  0  0  0  0  0  0  0
    0.4936   -0.7089    1.9846 C   0  0  0  0  0  0  0  0  0  0  0  0
    0.3978   -0.7704    3.4951 C   0  0  0  0  0  0  0  0  0  0  0  0
   -0.1475   -2.0968    4.0074 C   0  0  0  0  0  0  0  0  0  0  0  0
   -1.8211   -0.8781   -0.3047 H   0  0  0  0  0  0  0  0  0  0  0  0
   -0.2138   -1.6397   -0.3770 H   0  0  0  0  0  0  0  0  0  0  0  0
    0.9621    0.2353    1.6698 H   0  0  0  0  0  0  0  0  0  0  0  0
    1.1272   -1.5294    1.6115 H   0  0  0  0  0  0  0  0  0  0  0  0
   -0.2350    0.0529    3.8364 H   0  0  0  0  0  0  0  0  0  0  0  0
    1.3969   -0.5919    3.9023 H   0  0  0  0  0  0  0  0  0  0  0  0
   -0.1974   -2.1058    5.0972 H   0  0  0  0  0  0  0  0  0  0  0  0
   -1.1495   -2.2786    3.6188 H   0  0  0  0  0  0  0  0  0  0  0  0
    0.4900   -2.9274    3.6942 H   0  0  0  0  0  0  0  0  0  0  0  0
  1  2  1  0
  1  5  1  0
  1  6  1  0
  1  7  1  0
  2  3  3  0
  3  4  1  0
  4  8  1  0
  4  9  1  0
  4 10  1  0
 11 12  1  0
 11 16  1  0
 11 17  1  0
 12 13  1  0
 13 14  1  0
 13 18  1  0
 13 19  1  0
 14 15  1  0
 14 20  1  0
 14 21  1  0
 15 22  1  0
 15 23  1  0
 15 24  1  0
M  RAD  1  11   2
M  END
>  <reaction>  (9) 
rmg_rxn_675

>  <mol_properties>  (9) 
{"2": {"label": "*0", "atom_type": "Ct"}, "3": {"label": "*1", "atom_type": "Cs"}, "9": {"label": "*2", "atom_type": "H0"}, "10": {"label": "*3", "atom_type": "Cs"}, "11": {"label": "*4", "atom_type": "O2s"}}

>  <type>  (9) 
unop_5

>  <geom_source>  (9) 
Heuristics

$$$$

     RDKit          3D

 24 22  0  0  0  0  0  0  0  0999 V2000
    1.7680    0.8489   -4.1153 C   0  0  0  0  0  0  0  0  0  0  0  0
    1.7680    0.8489   -2.6581 C   0  0  0  0  0  0  0  0  0  0  0  0
    1.7680    0.8489   -1.4596 C   0  0  0  0  0  0  0  0  0  0  0  0
    1.7680    0.8489   -0.0023 C   0  0  0  0  0  0  0  0  0  0  0  0
    2.7833    0.9414   -4.5046 H   0  0  0  0  0  0  0  0  0  0  0  0
    1.1803    1.6819   -4.5047 H   0  0  0  0  0  0  0  0  0  0  0  0
    1.3405   -0.0767   -4.5046 H   0  0  0  0  0  0  0  0  0  0  0  0
    1.1798    1.6816    0.3870 H   0  0  0  0  0  0  0  0  0  0  0  0
    2.7833    0.9420    0.3870 H   0  0  0  0  0  0  0  0  0  0  0  0
    1.2556   -0.2621    0.4649 H   0  0  0  0  0  0  0  0  0  0  0  0
    0.7398   -1.3804    0.9352 C   0  0  0  0  0  3  0  0  0  0  0  0
   -0.6431   -1.2708    1.1184 O   0  0  0  0  0  0  0  0  0  0  0  0
   -1.0763    0.0623    1.2284 C   0  0  0  0  0  0  0  0  0  0  0  0
   -2.5727    0.0871    1.4621 C   0  0  0  0  0  0  0  0  0  0  0  0
   -2.9856   -0.5711    2.7719 C   0  0  0  0  0  0  0  0  0  0  0  0
    0.9804   -2.4400    0.8590 H   0  0  0  0  0  0  0  0  0  0  0  0
    1.2934   -0.9495    1.7805 H   0  0  0  0  0  0  0  0  0  0  0  0
   -0.8238    0.6144    0.3110 H   0  0  0  0  0  0  0  0  0  0  0  0
   -0.5544    0.5574    2.0628 H   0  0  0  0  0  0  0  0  0  0  0  0
   -3.0635   -0.4095    0.6211 H   0  0  0  0  0  0  0  0  0  0  0  0
   -2.8976    1.1311    1.4469 H   0  0  0  0  0  0  0  0  0  0  0  0
   -4.0673   -0.5299    2.9077 H   0  0  0  0  0  0  0  0  0  0  0  0
   -2.6791   -1.6169    2.7923 H   0  0  0  0  0  0  0  0  0  0  0  0
   -2.5215   -0.0683    3.6240 H   0  0  0  0  0  0  0  0  0  0  0  0
  1  2  1  0
  1  5  1  0
  1  6  1  0
  1  7  1  0
  2  3  3  0
  3  4  1  0
  4  8  1  0
  4  9  1  0
  4 10  1  0
 11 12  1  0
 11 16  1  0
 11 17  1  0
 12 13  1  0
 13 14  1  0
 13 18  1  0
 13 19  1  0
 14 15  1  0
 14 20  1  0
 14 21  1  0
 15 22  1  0
 15 23  1  0
 15 24  1  0
M  RAD  1  11   2
M  END
>  <reaction>  (10) 
rmg_rxn_675

>  <mol_properties>  (10) 
{"2": {"label": "*0", "atom_type": "Ct"}, "3": {"label": "*1", "atom_type": "Cs"}, "9": {"label": "*2", "atom_type": "H0"}, "10": {"label": "*3", "atom_type": "Cs"}, "11": {"label": "*4", "atom_type": "O2s"}}

>  <type>  (10) 
unop_6

>  <geom_source>  (10) 
Heuristics

$$$$

     RDKit          3D

 24 22  0  0  0  0  0  0  0  0999 V2000
    1.4022    0.7850   -4.6618 C   0  0  0  0  0  0  0  0  0  0  0  0
    1.4022    0.7850   -3.2046 C   0  0  0  0  0  0  0  0  0  0  0  0
    1.4022    0.7850   -2.0061 C   0  0  0  0  0  0  0  0  0  0  0  0
    1.4022    0.7850   -0.5488 C   0  0  0  0  0  0  0  0  0  0  0  0
    2.4175    0.8775   -5.0512 H   0  0  0  0  0  0  0  0  0  0  0  0
    0.8145    1.6180   -5.0512 H   0  0  0  0  0  0  0  0  0  0  0  0
    0.9747   -0.1405   -5.0512 H   0  0  0  0  0  0  0  0  0  0  0  0
    0.8140    1.6177   -0.1595 H   0  0  0  0  0  0  0  0  0  0  0  0
    2.4175    0.8781   -0.1595 H   0  0  0  0  0  0  0  0  0  0  0  0
    0.8898   -0.3259   -0.0816 H   0  0  0  0  0  0  0  0  0  0  0  0
    0.3740   -1.4442    0.3887 C   0  0  0  0  0  3  0  0  0  0  0  0
   -0.7533   -1.1969    1.1799 O   0  0  0  0  0  0  0  0  0  0  0  0
   -0.8015    0.1215    1.6662 C   0  0  0  0  0  0  0  0  0  0  0  0
   -2.0274    0.2906    2.5398 C   0  0  0  0  0  0  0  0  0  0  0  0
   -2.0026   -0.5878    3.7836 C   0  0  0  0  0  0  0  0  0  0  0  0
    0.3250   -2.4809    0.0580 H   0  0  0  0  0  0  0  0  0  0  0  0
    1.3037   -1.2945    0.9543 H   0  0  0  0  0  0  0  0  0  0  0  0
   -0.8315    0.8296    0.8248 H   0  0  0  0  0  0  0  0  0  0  0  0
    0.1097    0.3398    2.2457 H   0  0  0  0  0  0  0  0  0  0  0  0
   -2.9139    0.0682    1.9405 H   0  0  0  0  0  0  0  0  0  0  0  0
   -2.0938    1.3443    2.8247 H   0  0  0  0  0  0  0  0  0  0  0  0
   -2.8972   -0.4356    4.3893 H   0  0  0  0  0  0  0  0  0  0  0  0
   -1.9508   -1.6419    3.5112 H   0  0  0  0  0  0  0  0  0  0  0  0
   -1.1337   -0.3585    4.4055 H   0  0  0  0  0  0  0  0  0  0  0  0
  1  2  1  0
  1  5  1  0
  1  6  1  0
  1  7  1  0
  2  3  3  0
  3  4  1  0
  4  8  1  0
  4  9  1  0
  4 10  1  0
 11 12  1  0
 11 16  1  0
 11 17  1  0
 12 13  1  0
 13 14  1  0
 13 18  1  0
 13 19  1  0
 14 15  1  0
 14 20  1  0
 14 21  1  0
 15 22  1  0
 15 23  1  0
 15 24  1  0
M  RAD  1  11   2
M  END
>  <reaction>  (11) 
rmg_rxn_675

>  <mol_properties>  (11) 
{"2": {"label": "*0", "atom_type": "Ct"}, "3": {"label": "*1", "atom_type": "Cs"}, "9": {"label": "*2", "atom_type": "H0"}, "10": {"label": "*3", "atom_type": "Cs"}, "11": {"label": "*4", "atom_type": "O2s"}}

>  <type>  (11) 
unop_7

>  <geom_source>  (11) 
Heuristics

$$$$

     RDKit          3D

 24 22  0  0  0  0  0  0  0  0999 V2000
   -0.0770    2.3944   -3.7225 C   0  0  0  0  0  0  0  0  0  0  0  0
   -0.0770    2.3944   -2.2652 C   0  0  0  0  0  0  0  0  0  0  0  0
   -0.0770    2.3944   -1.0667 C   0  0  0  0  0  0  0  0  0  0  0  0
   -0.0770    2.3944    0.3905 C   0  0  0  0  0  0  0  0  0  0  0  0
    0.9383    2.4869   -4.1118 H   0  0  0  0  0  0  0  0  0  0  0  0
   -0.6648    3.2274   -4.1119 H   0  0  0  0  0  0  0  0  0  0  0  0
   -0.5045    1.4689   -4.1118 H   0  0  0  0  0  0  0  0  0  0  0  0
   -0.6652    3.2271    0.7799 H   0  0  0  0  0  0  0  0  0  0  0  0
    0.9383    2.4875    0.7798 H   0  0  0  0  0  0  0  0  0  0  0  0
   -0.5894    1.2835    0.8577 H   0  0  0  0  0  0  0  0  0  0  0  0
   -1.1052    0.1651    1.3280 C   0  0  0  0  0  3  0  0  0  0  0  0
   -0.1242   -0.8157    1.5112 O   0  0  0  0  0  0  0  0  0  0  0  0
   -0.0832   -1.7508    0.4620 C   0  0  0  0  0  0  0  0  0  0  0  0
    0.9752   -2.7932    0.7586 C   0  0  0  0  0  0  0  0  0  0  0  0
    0.6754   -3.6133    2.0064 C   0  0  0  0  0  0  0  0  0  0  0  0
   -1.0613    0.8403    2.1816 H   0  0  0  0  0  0  0  0  0  0  0  0
   -2.1100   -0.2755    1.2738 H   0  0  0  0  0  0  0  0  0  0  0  0
    0.1396   -1.2395   -0.4862 H   0  0  0  0  0  0  0  0  0  0  0  0
   -1.0681   -2.2319    0.3512 H   0  0  0  0  0  0  0  0  0  0  0  0
    1.9392   -2.2887    0.8633 H   0  0  0  0  0  0  0  0  0  0  0  0
    1.0538   -3.4491   -0.1128 H   0  0  0  0  0  0  0  0  0  0  0  0
    1.4552   -4.3551    2.1849 H   0  0  0  0  0  0  0  0  0  0  0  0
    0.6088   -2.9708    2.8843 H   0  0  0  0  0  0  0  0  0  0  0  0
   -0.2748   -4.1435    1.9052 H   0  0  0  0  0  0  0  0  0  0  0  0
  1  2  1  0
  1  5  1  0
  1  6  1  0
  1  7  1  0
  2  3  3  0
  3  4  1  0
  4  8  1  0
  4  9  1  0
  4 10  1  0
 11 12  1  0
 11 16  1  0
 11 17  1  0
 12 13  1  0
 13 14  1  0
 13 18  1  0
 13 19  1  0
 14 15  1  0
 14 20  1  0
 14 21  1  0
 15 22  1  0
 15 23  1  0
 15 24  1  0
M  RAD  1  11   2
M  END
>  <reaction>  (12) 
rmg_rxn_675

>  <mol_properties>  (12) 
{"2": {"label": "*0", "atom_type": "Ct"}, "3": {"label": "*1", "atom_type": "Cs"}, "9": {"label": "*2", "atom_type": "H0"}, "10": {"label": "*3", "atom_type": "Cs"}, "11": {"label": "*4", "atom_type": "O2s"}}

>  <type>  (12) 
unop_8

>  <geom_source>  (12) 
Heuristics

$$$$

     RDKit          3D

 24 22  0  0  0  0  0  0  0  0999 V2000
    1.6749    1.4564   -3.0836 C   0  0  0  0  0  0  0  0  0  0  0  0
    1.6749    1.4564   -1.6264 C   0  0  0  0  0  0  0  0  0  0  0  0
    1.6749    1.4564   -0.4279 C   0  0  0  0  0  0  0  0  0  0  0  0
    1.6749    1.4564    1.0294 C   0  0  0  0  0  0  0  0  0  0  0  0
    2.6902    1.5489   -3.4729 H   0  0  0  0  0  0  0  0  0  0  0  0
    1.0872    2.2894   -3.4730 H   0  0  0  0  0  0  0  0  0  0  0  0
    1.2474    0.5308   -3.4729 H   0  0  0  0  0  0  0  0  0  0  0  0
    1.0867    2.2891    1.4187 H   0  0  0  0  0  0  0  0  0  0  0  0
    2.6902    1.5495    1.4187 H   0  0  0  0  0  0  0  0  0  0  0  0
    1.1625    0.3455    1.4966 H   0  0  0  0  0  0  0  0  0  0  0  0
    0.6467   -0.7729    1.9669 C   0  0  0  0  0  3  0  0  0  0  0  0
   -0.3137   -1.3011    1.0970 O   0  0  0  0  0  0  0  0  0  0  0  0
   -1.1690   -0.3197    0.5657 C   0  0  0  0  0  0  0  0  0  0  0  0
   -2.1965   -0.9800   -0.3303 C   0  0  0  0  0  0  0  0  0  0  0  0
   -3.1133   -1.9403    0.4156 C   0  0  0  0  0  0  0  0  0  0  0  0
    1.2596   -1.5994    2.3241 H   0  0  0  0  0  0  0  0  0  0  0  0
    0.1800   -0.2772    2.8289 H   0  0  0  0  0  0  0  0  0  0  0  0
   -0.5840    0.4180   -0.0031 H   0  0  0  0  0  0  0  0  0  0  0  0
   -1.6714    0.2209    1.3837 H   0  0  0  0  0  0  0  0  0  0  0  0
   -1.6711   -1.5075   -1.1306 H   0  0  0  0  0  0  0  0  0  0  0  0
   -2.7851   -0.1900   -0.8049 H   0  0  0  0  0  0  0  0  0  0  0  0
   -3.8414   -2.3919   -0.2598 H   0  0  0  0  0  0  0  0  0  0  0  0
   -2.5382   -2.7406    0.8812 H   0  0  0  0  0  0  0  0  0  0  0  0
   -3.6643   -1.4204    1.2033 H   0  0  0  0  0  0  0  0  0  0  0  0
  1  2  1  0
  1  5  1  0
  1  6  1  0
  1  7  1  0
  2  3  3  0
  3  4  1  0
  4  8  1  0
  4  9  1  0
  4 10  1  0
 11 12  1  0
 11 16  1  0
 11 17  1  0
 12 13  1  0
 13 14  1  0
 13 18  1  0
 13 19  1  0
 14 15  1  0
 14 20  1  0
 14 21  1  0
 15 22  1  0
 15 23  1  0
 15 24  1  0
M  RAD  1  11   2
M  END
>  <reaction>  (13) 
rmg_rxn_675

>  <mol_properties>  (13) 
{"2": {"label": "*0", "atom_type": "Ct"}, "3": {"label": "*1", "atom_type": "Cs"}, "9": {"label": "*2", "atom_type": "H0"}, "10": {"label": "*3", "atom_type": "Cs"}, "11": {"label": "*4", "atom_type": "O2s"}}

>  <type>  (13) 
unop_9

>  <geom_source>  (13) 
Heuristics

$$$$

     RDKit          3D

 24 22  0  0  0  0  0  0  0  0999 V2000
    0.2575    2.4051   -3.2170 C   0  0  0  0  0  0  0  0  0  0  0  0
    0.2575    2.4051   -1.7598 C   0  0  0  0  0  0  0  0  0  0  0  0
    0.2575    2.4051   -0.5613 C   0  0  0  0  0  0  0  0  0  0  0  0
    0.2575    2.4051    0.8960 C   0  0  0  0  0  0  0  0  0  0  0  0
    1.2728    2.4975   -3.6064 H   0  0  0  0  0  0  0  0  0  0  0  0
   -0.3302    3.2381   -3.6064 H   0  0  0  0  0  0  0  0  0  0  0  0
   -0.1700    1.4795   -3.6064 H   0  0  0  0  0  0  0  0  0  0  0  0
   -0.3307    3.2378    1.2853 H   0  0  0  0  0  0  0  0  0  0  0  0
    1.2728    2.4981    1.2853 H   0  0  0  0  0  0  0  0  0  0  0  0
   -0.2549    1.2941    1.3632 H   0  0  0  0  0  0  0  0  0  0  0  0
   -0.7707    0.1758    1.8335 C   0  0  0  0  0  3  0  0  0  0  0  0
   -0.0452   -0.9428    1.4087 O   0  0  0  0  0  0  0  0  0  0  0  0
   -0.5457   -1.4994    0.2184 C   0  0  0  0  0  0  0  0  0  0  0  0
    0.2703   -2.7223   -0.1467 C   0  0  0  0  0  0  0  0  0  0  0  0
    0.1699   -3.8392    0.8836 C   0  0  0  0  0  0  0  0  0  0  0  0
   -0.3128    0.5371    2.7533 H   0  0  0  0  0  0  0  0  0  0  0  0
   -1.8206   -0.0775    2.0340 H   0  0  0  0  0  0  0  0  0  0  0  0
   -0.5009   -0.7550   -0.5903 H   0  0  0  0  0  0  0  0  0  0  0  0
   -1.6039   -1.7759    0.3509 H   0  0  0  0  0  0  0  0  0  0  0  0
    1.3130   -2.4190   -0.2716 H   0  0  0  0  0  0  0  0  0  0  0  0
   -0.0751   -3.0775   -1.1216 H   0  0  0  0  0  0  0  0  0  0  0  0
    0.7654   -4.7032    0.5849 H   0  0  0  0  0  0  0  0  0  0  0  0
    0.5252   -3.5003    1.8567 H   0  0  0  0  0  0  0  0  0  0  0  0
   -0.8652   -4.1698    1.0004 H   0  0  0  0  0  0  0  0  0  0  0  0
  1  2  1  0
  1  5  1  0
  1  6  1  0
  1  7  1  0
  2  3  3  0
  3  4  1  0
  4  8  1  0
  4  9  1  0
  4 10  1  0
 11 12  1  0
 11 16  1  0
 11 17  1  0
 12 13  1  0
 13 14  1  0
 13 18  1  0
 13 19  1  0
 14 15  1  0
 14 20  1  0
 14 21  1  0
 15 22  1  0
 15 23  1  0
 15 24  1  0
M  RAD  1  11   2
M  END
>  <reaction>  (14) 
rmg_rxn_675

>  <mol_properties>  (14) 
{"2": {"label": "*0", "atom_type": "Ct"}, "3": {"label": "*1", "atom_type": "Cs"}, "9": {"label": "*2", "atom_type": "H0"}, "10": {"label": "*3", "atom_type": "Cs"}, "11": {"label": "*4", "atom_type": "O2s"}}

>  <type>  (14) 
unop_10

>  <geom_source>  (14) 
Heuristics

$$$$

     RDKit          3D

 24 22  0  0  0  0  0  0  0  0999 V2000
    0.8164    0.9682   -5.0176 C   0  0  0  0  0  0  0  0  0  0  0  0
    0.8164    0.9682   -3.5603 C   0  0  0  0  0  0  0  0  0  0  0  0
    0.8164    0.9682   -2.3618 C   0  0  0  0  0  0  0  0  0  0  0  0
    0.8164    0.9682   -0.9046 C   0  0  0  0  0  0  0  0  0  0  0  0
    1.8318    1.0607   -5.4069 H   0  0  0  0  0  0  0  0  0  0  0  0
    0.2287    1.8013   -5.4069 H   0  0  0  0  0  0  0  0  0  0  0  0
    0.3889    0.0427   -5.4069 H   0  0  0  0  0  0  0  0  0  0  0  0
    0.2282    1.8010   -0.5152 H   0  0  0  0  0  0  0  0  0  0  0  0
    1.8317    1.0613   -0.5152 H   0  0  0  0  0  0  0  0  0  0  0  0
    0.3040   -0.1427   -0.4374 H   0  0  0  0  0  0  0  0  0  0  0  0
   -0.2118   -1.2610    0.0329 C   0  0  0  0  0  3  0  0  0  0  0  0
   -0.8353   -1.0589    1.2692 O   0  0  0  0  0  0  0  0  0  0  0  0
   -0.2238   -0.0477    2.0312 C   0  0  0  0  0  0  0  0  0  0  0  0
   -0.9347    0.0777    3.3630 C   0  0  0  0  0  0  0  0  0  0  0  0
   -0.8309   -1.1780    4.2183 C   0  0  0  0  0  0  0  0  0  0  0  0
   -0.7509   -2.0541   -0.4835 H   0  0  0  0  0  0  0  0  0  0  0  0
    0.8368   -1.5646    0.1556 H   0  0  0  0  0  0  0  0  0  0  0  0
   -0.2630    0.9069    1.4860 H   0  0  0  0  0  0  0  0  0  0  0  0
    0.8389   -0.2906    2.1906 H   0  0  0  0  0  0  0  0  0  0  0  0
   -1.9842    0.3183    3.1747 H   0  0  0  0  0  0  0  0  0  0  0  0
   -0.5044    0.9313    3.8940 H   0  0  0  0  0  0  0  0  0  0  0  0
   -1.3494   -1.0488    5.1694 H   0  0  0  0  0  0  0  0  0  0  0  0
   -1.2699   -2.0330    3.7042 H   0  0  0  0  0  0  0  0  0  0  0  0
    0.2133   -1.4164    4.4354 H   0  0  0  0  0  0  0  0  0  0  0  0
  1  2  1  0
  1  5  1  0
  1  6  1  0
  1  7  1  0
  2  3  3  0
  3  4  1  0
  4  8  1  0
  4  9  1  0
  4 10  1  0
 11 12  1  0
 11 16  1  0
 11 17  1  0
 12 13  1  0
 13 14  1  0
 13 18  1  0
 13 19  1  0
 14 15  1  0
 14 20  1  0
 14 21  1  0
 15 22  1  0
 15 23  1  0
 15 24  1  0
M  RAD  1  11   2
M  END
>  <reaction>  (15) 
rmg_rxn_675

>  <mol_properties>  (15) 
{"2": {"label": "*0", "atom_type": "Ct"}, "3": {"label": "*1", "atom_type": "Cs"}, "9": {"label": "*2", "atom_type": "H0"}, "10": {"label": "*3", "atom_type": "Cs"}, "11": {"label": "*4", "atom_type": "O2s"}}

>  <type>  (15) 
unop_11

>  <geom_source>  (15) 
Heuristics

$$$$

     RDKit          3D

 24 22  0  0  0  0  0  0  0  0999 V2000
    1.2812    1.8659   -2.8452 C   0  0  0  0  0  0  0  0  0  0  0  0
    1.2812    1.8659   -1.3879 C   0  0  0  0  0  0  0  0  0  0  0  0
    1.2812    1.8659   -0.1894 C   0  0  0  0  0  0  0  0  0  0  0  0
    1.2812    1.8659    1.2679 C   0  0  0  0  0  0  0  0  0  0  0  0
    2.2965    1.9584   -3.2345 H   0  0  0  0  0  0  0  0  0  0  0  0
    0.6935    2.6989   -3.2345 H   0  0  0  0  0  0  0  0  0  0  0  0
    0.8537    0.9404   -3.2345 H   0  0  0  0  0  0  0  0  0  0  0  0
    0.6930    2.6986    1.6572 H   0  0  0  0  0  0  0  0  0  0  0  0
    2.2965    1.9590    1.6572 H   0  0  0  0  0  0  0  0  0  0  0  0
    0.7688    0.7550    1.7350 H   0  0  0  0  0  0  0  0  0  0  0  0
    0.2530   -0.3633    2.2054 C   0  0  0  0  0  3  0  0  0  0  0  0
   -0.1424   -1.2207    1.1725 O   0  0  0  0  0  0  0  0  0  0  0  0
   -1.1230   -0.6557    0.3381 C   0  0  0  0  0  0  0  0  0  0  0  0
   -1.5191   -1.6605   -0.7239 C   0  0  0  0  0  0  0  0  0  0  0  0
   -2.1643   -2.9153   -0.1508 C   0  0  0  0  0  0  0  0  0  0  0  0
    1.0098   -0.8810    2.7933 H   0  0  0  0  0  0  0  0  0  0  0  0
   -0.5908   -0.1048    2.8594 H   0  0  0  0  0  0  0  0  0  0  0  0
   -0.7333    0.2607   -0.1295 H   0  0  0  0  0  0  0  0  0  0  0  0
   -2.0031   -0.3696    0.9359 H   0  0  0  0  0  0  0  0  0  0  0  0
   -0.6288   -1.9256   -1.3000 H   0  0  0  0  0  0  0  0  0  0  0  0
   -2.2075   -1.1654   -1.4145 H   0  0  0  0  0  0  0  0  0  0  0  0
   -2.4399   -3.6120   -0.9438 H   0  0  0  0  0  0  0  0  0  0  0  0
   -1.4813   -3.4251    0.5286 H   0  0  0  0  0  0  0  0  0  0  0  0
   -3.0705   -2.6673    0.4074 H   0  0  0  0  0  0  0  0  0  0  0  0
  1  2  1  0
  1  5  1  0
  1  6  1  0
  1  7  1  0
  2  3  3  0
  3  4  1  0
  4  8  1  0
  4  9  1  0
  4 10  1  0
 11 12  1  0
 11 16  1  0
 11 17  1  0
 12 13  1  0
 13 14  1  0
 13 18  1  0
 13 19  1  0
 14 15  1  0
 14 20  1  0
 14 21  1  0
 15 22  1  0
 15 23  1  0
 15 24  1  0
M  RAD  1  11   2
M  END
>  <reaction>  (16) 
rmg_rxn_675

>  <mol_properties>  (16) 
{"2": {"label": "*0", "atom_type": "Ct"}, "3": {"label": "*1", "atom_type": "Cs"}, "9": {"label": "*2", "atom_type": "H0"}, "10": {"label": "*3", "atom_type": "Cs"}, "11": {"label": "*4", "atom_type": "O2s"}}

>  <type>  (16) 
unop_12

>  <geom_source>  (16) 
Heuristics

$$$$

     RDKit          3D

 24 22  0  0  0  0  0  0  0  0999 V2000
   -1.1441    0.1219   -0.4373 O   0  0  0  0  0  0  0  0  0  0  0  0
   -3.3783    0.6292    0.2979 C   0  0  0  0  0  0  0  0  0  0  0  0
   -2.5086   -0.0755   -0.7443 C   0  0  0  0  0  0  0  0  0  0  0  0
   -3.2152    0.0135    1.6861 C   0  0  0  0  0  0  0  0  0  0  0  0
   -0.3496   -0.5455   -1.3916 C   0  0  0  0  0  0  0  0  0  0  0  0
    4.6772    0.5164    1.6212 C   0  0  0  0  0  0  0  0  0  0  0  0
    2.2241   -0.4687   -1.5538 C   0  0  0  0  0  0  0  0  0  0  0  0
    3.8085    0.1676    0.4969 C   0  0  0  0  0  3  0  0  0  0  0  0
    3.0928   -0.1199   -0.4296 C   0  0  0  0  0  0  0  0  0  0  0  0
   -4.4444    0.5504   -0.0067 H   0  0  0  0  0  0  0  0  0  0  0  0
   -3.1098    1.7072    0.3385 H   0  0  0  0  0  0  0  0  0  0  0  0
   -2.7661   -1.1601   -0.7539 H   0  0  0  0  0  0  0  0  0  0  0  0
   -2.7490    0.3612   -1.7406 H   0  0  0  0  0  0  0  0  0  0  0  0
   -3.8791    0.5385    2.4047 H   0  0  0  0  0  0  0  0  0  0  0  0
   -3.4933   -1.0618    1.6669 H   0  0  0  0  0  0  0  0  0  0  0  0
   -2.1660    0.1152    2.0360 H   0  0  0  0  0  0  0  0  0  0  0  0
   -0.5258   -0.1454   -2.4150 H   0  0  0  0  0  0  0  0  0  0  0  0
   -0.5281   -1.6436   -1.3668 H   0  0  0  0  0  0  0  0  0  0  0  0
    0.9554   -0.3360   -1.0891 H   0  0  0  0  0  0  0  0  0  0  0  0
    4.9856   -0.4081    2.1514 H   0  0  0  0  0  0  0  0  0  0  0  0
    4.1279    1.1785    2.3218 H   0  0  0  0  0  0  0  0  0  0  0  0
    5.5774    1.0436    1.2436 H   0  0  0  0  0  0  0  0  0  0  0  0
    2.1777    0.3826   -2.2637 H   0  0  0  0  0  0  0  0  0  0  0  0
    2.6307   -1.3611   -2.0726 H   0  0  0  0  0  0  0  0  0  0  0  0
  1  5  1  0
  1  3  1  0
  2  4  1  0
  2  3  1  0
  2 10  1  0
  2 11  1  0
  3 12  1  0
  3 13  1  0
  4 14  1  0
  4 15  1  0
  4 16  1  0
  5 17  1  0
  5 18  1  0
  5 19  1  0
  6  8  1  0
  6 20  1  0
  6 21  1  0
  6 22  1  0
  7  9  2  0
  7 23  1  0
  7 24  1  0
  8  9  2  0
M  RAD  1   8   2
M  END
>  <reaction>  (17) 
rmg_rxn_675

>  <mol_properties>  (17) 
{"2": {"label": "*0", "atom_type": "Ct"}, "3": {"label": "*1", "atom_type": "Cs"}, "9": {"label": "*2", "atom_type": "H0"}, "10": {"label": "*3", "atom_type": "Cs"}, "11": {"label": "*4", "atom_type": "O2s"}}

>  <type>  (17) 
unop_13

>  <geom_source>  (17) 
AutoTST

$$$$

     RDKit          3D

 24 22  0  0  0  0  0  0  0  0999 V2000
    0.7600    2.2170   -2.8921 C   0  0  0  0  0  0  0  0  0  0  0  0
    0.7600    2.2170   -1.4349 C   0  0  0  0  0  0  0  0  0  0  0  0
    0.7600    2.2170   -0.2364 C   0  0  0  0  0  0  0  0  0  0  0  0
    0.7600    2.2170    1.2209 C   0  0  0  0  0  0  0  0  0  0  0  0
    1.7753    2.3095   -3.2815 H   0  0  0  0  0  0  0  0  0  0  0  0
    0.1722    3.0500   -3.2815 H   0  0  0  0  0  0  0  0  0  0  0  0
    0.3325    1.2914   -3.2815 H   0  0  0  0  0  0  0  0  0  0  0  0
    0.1718    3.0497    1.6102 H   0  0  0  0  0  0  0  0  0  0  0  0
    1.7752    2.3100    1.6102 H   0  0  0  0  0  0  0  0  0  0  0  0
    0.2476    1.1060    1.6881 H   0  0  0  0  0  0  0  0  0  0  0  0
   -0.2683   -0.0123    2.1584 C   0  0  0  0  0  3  0  0  0  0  0  0
   -0.0466   -1.0857    1.2885 O   0  0  0  0  0  0  0  0  0  0  0  0
   -0.9270   -1.0919    0.1921 C   0  0  0  0  0  0  0  0  0  0  0  0
   -0.6438   -2.3024   -0.6732 C   0  0  0  0  0  0  0  0  0  0  0  0
   -0.8959   -3.6229    0.0425 C   0  0  0  0  0  0  0  0  0  0  0  0
    0.4555   -0.0886    2.9688 H   0  0  0  0  0  0  0  0  0  0  0  0
   -1.2814   -0.0398    2.5820 H   0  0  0  0  0  0  0  0  0  0  0  0
   -0.8036   -0.1677   -0.3917 H   0  0  0  0  0  0  0  0  0  0  0  0
   -1.9689   -1.1170    0.5494 H   0  0  0  0  0  0  0  0  0  0  0  0
    0.3940   -2.2513   -1.0125 H   0  0  0  0  0  0  0  0  0  0  0  0
   -1.2725   -2.2319   -1.5652 H   0  0  0  0  0  0  0  0  0  0  0  0
   -0.6864   -4.4701   -0.6121 H   0  0  0  0  0  0  0  0  0  0  0  0
   -0.2638   -3.7103    0.9261 H   0  0  0  0  0  0  0  0  0  0  0  0
   -1.9372   -3.6984    0.3655 H   0  0  0  0  0  0  0  0  0  0  0  0
  1  2  1  0
  1  5  1  0
  1  6  1  0
  1  7  1  0
  2  3  3  0
  3  4  1  0
  4  8  1  0
  4  9  1  0
  4 10  1  0
 11 12  1  0
 11 16  1  0
 11 17  1  0
 12 13  1  0
 13 14  1  0
 13 18  1  0
 13 19  1  0
 14 15  1  0
 14 20  1  0
 14 21  1  0
 15 22  1  0
 15 23  1  0
 15 24  1  0
M  RAD  1  11   2
M  END
>  <reaction>  (18) 
rmg_rxn_675

>  <mol_properties>  (18) 
{"2": {"label": "*0", "atom_type": "Ct"}, "3": {"label": "*1", "atom_type": "Cs"}, "9": {"label": "*2", "atom_type": "H0"}, "10": {"label": "*3", "atom_type": "Cs"}, "11": {"label": "*4", "atom_type": "O2s"}}

>  <type>  (18) 
unop_14

>  <geom_source>  (18) 
gaussian_log

$$$$
