
     RDKit          3D

 13 12  0  0  0  0  0  0  0  0999 V2000
   -1.8029   -0.2987    1.0940 C   0  0  0  0  0  0  0  0  0  0  0  0
   -0.9419    0.5805    0.2019 C   0  0  0  0  0  0  0  0  0  0  0  0
    0.3779   -0.0155   -0.1765 C   0  0  0  0  0  0  0  0  0  0  0  0
    0.7319   -1.1672    0.2072 N   0  0  0  0  0  0  0  0  0  0  0  0
    1.9284   -1.6649   -0.2437 N   0  0  0  0  0  0  0  0  0  0  0  0
   -1.2933   -0.5224    2.0314 H   0  0  0  0  0  0  0  0  0  0  0  0
   -2.0225   -1.2499    0.6092 H   0  0  0  0  0  0  0  0  0  0  0  0
   -2.7454    0.2007    1.3226 H   0  0  0  0  0  0  0  0  0  0  0  0
   -1.4810    0.8240   -0.7207 H   0  0  0  0  0  0  0  0  0  0  0  0
   -0.7543    1.5445    0.6880 H   0  0  0  0  0  0  0  0  0  0  0  0
    1.0313    0.5912   -0.8170 H   0  0  0  0  0  0  0  0  0  0  0  0
    2.2863   -2.3390    0.4129 H   0  0  0  0  0  0  0  0  0  0  0  0
    2.6214   -0.9567   -0.4648 H   0  0  0  0  0  0  0  0  0  0  0  0
  1  2  1  0
  1  6  1  0
  1  7  1  0
  1  8  1  0
  2  3  1  0
  2  9  1  0
  2 10  1  0
  3  4  2  3
  3 11  1  0
  4  5  1  0
  5 12  1  0
  5 13  1  0
M  END
>  <reaction>  (1) 
rmg_rxn_16735

>  <mol_properties>  (1) 
{"1": {"label": "donator", "atom_type": "Cs"}, "8": {"label": "d_hydrogen", "atom_type": "H0"}}

>  <type>  (1) 
r1h

$$$$

     RDKit          3D

  7  6  0  0  0  0  0  0  0  0999 V2000
   -0.6441   -0.1356    0.0624 C   0  0  0  0  0  0  0  0  0  0  0  0
    0.8523    0.0148   -0.0333 C   0  0  0  0  0  0  0  0  0  0  0  0
    1.6700   -0.6077    0.6603 N   0  0  0  0  0  2  0  0  0  0  0  0
   -1.0940    0.8275    0.3091 H   0  0  0  0  0  0  0  0  0  0  0  0
   -0.9104   -0.8656    0.8237 H   0  0  0  0  0  0  0  0  0  0  0  0
   -1.0427   -0.4545   -0.9022 H   0  0  0  0  0  0  0  0  0  0  0  0
    1.2362    0.7308   -0.7748 H   0  0  0  0  0  0  0  0  0  0  0  0
  1  2  1  0
  1  4  1  0
  1  5  1  0
  1  6  1  0
  2  3  2  0
  2  7  1  0
M  RAD  1   3   2
M  END
>  <reaction>  (2) 
rmg_rxn_16735

>  <mol_properties>  (2) 
{"2": {"label": "acceptor", "atom_type": "N3d"}}

>  <type>  (2) 
r2

$$$$

     RDKit          3D

  8  7  0  0  0  0  0  0  0  0999 V2000
    0.9548    0.1194   -0.0790 C   0  0  0  0  0  0  0  0  0  0  0  0
   -0.4838   -0.2649    0.0193 C   0  0  0  0  0  0  0  0  0  0  0  0
   -0.8933   -1.1081    0.8664 N   0  0  0  0  0  0  0  0  0  0  0  0
    1.3360   -0.0983   -1.0800 H   0  0  0  0  0  0  0  0  0  0  0  0
    1.0698    1.1948    0.0786 H   0  0  0  0  0  0  0  0  0  0  0  0
    1.5426   -0.4219    0.6602 H   0  0  0  0  0  0  0  0  0  0  0  0
   -1.1575    0.2324   -0.6905 H   0  0  0  0  0  0  0  0  0  0  0  0
   -1.8989   -1.2455    0.7886 H   0  0  0  0  0  0  0  0  0  0  0  0
  1  2  1  0
  1  4  1  0
  1  5  1  0
  1  6  1  0
  2  3  2  3
  2  7  1  0
  3  8  1  0
M  END
>  <reaction>  (3) 
rmg_rxn_16735

>  <mol_properties>  (3) 
{"2": {"label": "acceptor", "atom_type": "N3d"}, "7": {"label": "a_hydrogen", "atom_type": "H0"}}

>  <type>  (3) 
r2h

$$$$

     RDKit          3D

 20 18  0  0  0  0  0  0  0  0999 V2000
   -3.2098    0.9470   -0.3448 C   0  0  0  0  0  0  0  0  0  0  0  0
   -1.9118    0.2590   -0.0384 C   0  0  0  0  0  0  0  0  0  0  0  0
   -1.8475   -0.8013    0.6259 N   0  0  0  0  0  2  0  0  0  0  0  0
   -4.0480    0.4043    0.0879 H   0  0  0  0  0  0  0  0  0  0  0  0
   -3.3414    1.0199   -1.4266 H   0  0  0  0  0  0  0  0  0  0  0  0
   -3.1898    1.9651    0.0500 H   0  0  0  0  0  0  0  0  0  0  0  0
   -1.0030    0.7401   -0.4298 H   0  0  0  0  0  0  0  0  0  0  0  0
    0.8138   -1.9650   -0.8255 C   0  0  0  0  0  0  0  0  0  0  0  0
    0.7034   -1.3083    0.5277 C   0  0  0  0  0  0  0  0  0  0  0  0
    1.3256   -0.0067    0.7107 C   0  0  0  0  0  0  0  0  0  0  0  0
    1.6750    0.7276   -0.2777 N   0  0  0  0  0  0  0  0  0  0  0  0
    2.1299    1.9866   -0.0052 N   0  0  0  0  0  0  0  0  0  0  0  0
    0.1974   -2.8634   -0.8644 H   0  0  0  0  0  0  0  0  0  0  0  0
    1.8477   -2.2456   -1.0439 H   0  0  0  0  0  0  0  0  0  0  0  0
    0.4885   -1.2867   -1.6143 H   0  0  0  0  0  0  0  0  0  0  0  0
   -0.5726   -1.1138    0.6940 H   0  0  0  0  0  0  0  0  0  0  0  0
    0.8882   -1.9775    1.3682 H   0  0  0  0  0  0  0  0  0  0  0  0
    1.4350    0.3596    1.7386 H   0  0  0  0  0  0  0  0  0  0  0  0
    2.7397    2.3061   -0.7397 H   0  0  0  0  0  0  0  0  0  0  0  0
    2.5453    2.1045    0.9136 H   0  0  0  0  0  0  0  0  0  0  0  0
  1  2  1  0
  1  4  1  0
  1  5  1  0
  1  6  1  0
  2  3  2  0
  2  7  1  0
  8  9  1  0
  8 13  1  0
  8 14  1  0
  8 15  1  0
  9 10  1  0
  9 16  1  0
  9 17  1  0
 10 11  2  3
 10 18  1  0
 11 12  1  0
 12 19  1  0
 12 20  1  0
M  RAD  1   3   2
M  END
>  <reaction>  (4) 
rmg_rxn_16735

>  <mol_properties>  (4) 
{"1": {"label": "*4", "atom_type": "Cd"}, "2": {"label": "*3", "atom_type": "N3d"}, "8": {"label": "*1", "atom_type": "Cs"}, "9": {"label": "*0", "atom_type": "Cd"}, "15": {"label": "*2", "atom_type": "H0"}}

>  <type>  (4) 
ts

$$$$

     RDKit          3D

 20 18  0  0  0  0  0  0  0  0999 V2000
   -3.2321    0.9975   -0.2578 C   0  0  0  0  0  0  0  0  0  0  0  0
   -1.8908    0.3721   -0.0463 C   0  0  0  0  0  0  0  0  0  0  0  0
   -1.7522   -0.7777    0.4075 N   0  0  0  0  0  0  0  0  0  0  0  0
   -4.0199    0.3115    0.0404 H   0  0  0  0  0  0  0  0  0  0  0  0
   -3.3480    1.2560   -1.3092 H   0  0  0  0  0  0  0  0  0  0  0  0
   -3.3020    1.9144    0.3255 H   0  0  0  0  0  0  0  0  0  0  0  0
   -1.0421    1.0156   -0.3260 H   0  0  0  0  0  0  0  0  0  0  0  0
    0.9295   -2.0597   -0.7887 C   0  0  0  0  0  0  0  0  0  0  0  0
    0.7268   -1.3394    0.5172 C   0  0  0  0  0  3  0  0  0  0  0  0
    1.3034   -0.0543    0.6822 C   0  0  0  0  0  0  0  0  0  0  0  0
    1.6798    0.6667   -0.3245 N   0  0  0  0  0  0  0  0  0  0  0  0
    2.0845    1.9329   -0.1039 N   0  0  0  0  0  0  0  0  0  0  0  0
    0.1986   -2.8561   -0.9083 H   0  0  0  0  0  0  0  0  0  0  0  0
    1.9261   -2.5025   -0.8249 H   0  0  0  0  0  0  0  0  0  0  0  0
    0.8417   -1.3584   -1.6135 H   0  0  0  0  0  0  0  0  0  0  0  0
   -0.6082   -1.0957    0.4989 H   0  0  0  0  0  0  0  0  0  0  0  0
    0.7501   -1.9705    1.4007 H   0  0  0  0  0  0  0  0  0  0  0  0
    1.3603    0.3512    1.7027 H   0  0  0  0  0  0  0  0  0  0  0  0
    2.7174    2.2640   -0.8173 H   0  0  0  0  0  0  0  0  0  0  0  0
    2.3428    2.1841    0.8517 H   0  0  0  0  0  0  0  0  0  0  0  0
  1  2  1  0
  1  4  1  0
  1  5  1  0
  1  6  1  0
  2  3  2  3
  2  7  1  0
  3 16  1  0
  8  9  1  0
  8 13  1  0
  8 14  1  0
  8 15  1  0
  9 10  1  0
  9 17  1  0
 10 11  2  3
 10 18  1  0
 11 12  1  0
 12 19  1  0
 12 20  1  0
M  RAD  1   9   2
M  END
>  <reaction>  (5) 
rmg_rxn_16735

>  <mol_properties>  (5) 
{"1": {"label": "*4", "atom_type": "Cd"}, "2": {"label": "*3", "atom_type": "N3d"}, "8": {"label": "*1", "atom_type": "Cs"}, "9": {"label": "*0", "atom_type": "Cd"}, "15": {"label": "*2", "atom_type": "H0"}}

>  <type>  (5) 
unop_1

>  <geom_source>  (5) 
crest_best.xyz

$$$$

     RDKit          3D

 20 18  0  0  0  0  0  0  0  0999 V2000
   -1.6057   -2.7856    2.2328 C   0  0  0  0  0  0  0  0  0  0  0  0
   -0.9117   -2.4443    0.9565 C   0  0  0  0  0  0  0  0  0  0  0  0
   -1.2648   -1.4604    0.2469 N   0  0  0  0  0  0  0  0  0  0  0  0
   -2.0094   -3.8001    2.1833 H   0  0  0  0  0  0  0  0  0  0  0  0
   -2.4132   -2.0812    2.4247 H   0  0  0  0  0  0  0  0  0  0  0  0
   -0.8972   -2.7651    3.0649 H   0  0  0  0  0  0  0  0  0  0  0  0
   -0.0786   -3.1027    0.6785 H   0  0  0  0  0  0  0  0  0  0  0  0
    0.7537   -0.1958   -2.1455 C   0  0  0  0  0  0  0  0  0  0  0  0
    0.7537   -0.1958   -0.6255 C   0  0  0  0  0  3  0  0  0  0  0  0
    0.7537    1.1643   -0.0006 C   0  0  0  0  0  0  0  0  0  0  0  0
    0.7378    2.2233   -0.6915 N   0  0  0  0  0  0  0  0  0  0  0  0
    0.6681    3.4271   -0.0369 N   0  0  0  0  0  0  0  0  0  0  0  0
    1.6335    0.3157   -2.5364 H   0  0  0  0  0  0  0  0  0  0  0  0
   -0.1225    0.3222   -2.5355 H   0  0  0  0  0  0  0  0  0  0  0  0
    0.7503   -1.2185   -2.5247 H   0  0  0  0  0  0  0  0  0  0  0  0
   -0.2928   -0.8514   -0.1732 H   0  0  0  0  0  0  0  0  0  0  0  0
    1.6228   -0.7454   -0.2470 H   0  0  0  0  0  0  0  0  0  0  0  0
    0.7582    1.2065    1.0964 H   0  0  0  0  0  0  0  0  0  0  0  0
    1.0716    4.1503   -0.6094 H   0  0  0  0  0  0  0  0  0  0  0  0
    1.0706    3.4226    0.8951 H   0  0  0  0  0  0  0  0  0  0  0  0
  1  2  1  0
  1  4  1  0
  1  5  1  0
  1  6  1  0
  2  3  2  3
  2  7  1  0
  3 16  1  0
  8  9  1  0
  8 13  1  0
  8 14  1  0
  8 15  1  0
  9 10  1  0
  9 17  1  0
 10 11  2  3
 10 18  1  0
 11 12  1  0
 12 19  1  0
 12 20  1  0
M  RAD  1   9   2
M  END
>  <reaction>  (6) 
rmg_rxn_16735

>  <mol_properties>  (6) 
{"1": {"label": "*4", "atom_type": "Cd"}, "2": {"label": "*3", "atom_type": "N3d"}, "8": {"label": "*1", "atom_type": "Cs"}, "9": {"label": "*0", "atom_type": "Cd"}, "15": {"label": "*2", "atom_type": "H0"}}

>  <type>  (6) 
unop_2

>  <geom_source>  (6) 
Heuristics

$$$$

     RDKit          3D

 20 18  0  0  0  0  0  0  0  0999 V2000
   -2.2717   -3.4272    0.3671 C   0  0  0  0  0  0  0  0  0  0  0  0
   -1.4108   -2.2854   -0.0597 C   0  0  0  0  0  0  0  0  0  0  0  0
   -1.0652   -1.3731    0.7432 N   0  0  0  0  0  0  0  0  0  0  0  0
   -3.1865   -3.4541   -0.2305 H   0  0  0  0  0  0  0  0  0  0  0  0
   -2.5278   -3.3349    1.4211 H   0  0  0  0  0  0  0  0  0  0  0  0
   -1.7532   -4.3745    0.1984 H   0  0  0  0  0  0  0  0  0  0  0  0
   -1.1004   -2.2926   -1.1125 H   0  0  0  0  0  0  0  0  0  0  0  0
    0.9532   -0.1085   -1.6492 C   0  0  0  0  0  0  0  0  0  0  0  0
    0.9532   -0.1085   -0.1292 C   0  0  0  0  0  3  0  0  0  0  0  0
    0.9532    1.2515    0.4958 C   0  0  0  0  0  0  0  0  0  0  0  0
    0.9373    2.3106   -0.1951 N   0  0  0  0  0  0  0  0  0  0  0  0
    0.8676    3.5144    0.4594 N   0  0  0  0  0  0  0  0  0  0  0  0
    1.8331    0.4030   -2.0401 H   0  0  0  0  0  0  0  0  0  0  0  0
    0.0770    0.4095   -2.0392 H   0  0  0  0  0  0  0  0  0  0  0  0
    0.9499   -1.1313   -2.0283 H   0  0  0  0  0  0  0  0  0  0  0  0
   -0.0933   -0.7641    0.3231 H   0  0  0  0  0  0  0  0  0  0  0  0
    1.8223   -0.6581    0.2494 H   0  0  0  0  0  0  0  0  0  0  0  0
    0.9578    1.2938    1.5928 H   0  0  0  0  0  0  0  0  0  0  0  0
    1.2711    4.2376   -0.1131 H   0  0  0  0  0  0  0  0  0  0  0  0
    1.2701    3.5098    1.3915 H   0  0  0  0  0  0  0  0  0  0  0  0
  1  2  1  0
  1  4  1  0
  1  5  1  0
  1  6  1  0
  2  3  2  3
  2  7  1  0
  3 16  1  0
  8  9  1  0
  8 13  1  0
  8 14  1  0
  8 15  1  0
  9 10  1  0
  9 17  1  0
 10 11  2  3
 10 18  1  0
 11 12  1  0
 12 19  1  0
 12 20  1  0
M  RAD  1   9   2
M  END
>  <reaction>  (7) 
rmg_rxn_16735

>  <mol_properties>  (7) 
{"1": {"label": "*4", "atom_type": "Cd"}, "2": {"label": "*3", "atom_type": "N3d"}, "8": {"label": "*1", "atom_type": "Cs"}, "9": {"label": "*0", "atom_type": "Cd"}, "15": {"label": "*2", "atom_type": "H0"}}

>  <type>  (7) 
unop_3

>  <geom_source>  (7) 
Heuristics

$$$$

     RDKit          3D

 20 18  0  0  0  0  0  0  0  0999 V2000
   -1.9980   -2.3297    2.3253 C   0  0  0  0  0  0  0  0  0  0  0  0
   -0.9409   -2.1316    1.2907 C   0  0  0  0  0  0  0  0  0  0  0  0
   -1.1907   -1.5922    0.1757 N   0  0  0  0  0  0  0  0  0  0  0  0
   -2.0932   -3.3909    2.5692 H   0  0  0  0  0  0  0  0  0  0  0  0
   -2.9538   -1.9511    1.9673 H   0  0  0  0  0  0  0  0  0  0  0  0
   -1.7233   -1.8141    3.2491 H   0  0  0  0  0  0  0  0  0  0  0  0
    0.0621   -2.4844    1.5632 H   0  0  0  0  0  0  0  0  0  0  0  0
    0.8278   -0.3276   -2.2167 C   0  0  0  0  0  0  0  0  0  0  0  0
    0.8278   -0.3276   -0.6967 C   0  0  0  0  0  3  0  0  0  0  0  0
    0.8278    1.0324   -0.0717 C   0  0  0  0  0  0  0  0  0  0  0  0
    0.8119    2.0914   -0.7626 N   0  0  0  0  0  0  0  0  0  0  0  0
    0.7422    3.2953   -0.1081 N   0  0  0  0  0  0  0  0  0  0  0  0
    1.7077    0.1839   -2.6076 H   0  0  0  0  0  0  0  0  0  0  0  0
   -0.0484    0.1903   -2.6067 H   0  0  0  0  0  0  0  0  0  0  0  0
    0.8244   -1.3504   -2.5958 H   0  0  0  0  0  0  0  0  0  0  0  0
   -0.2187   -0.9833   -0.2444 H   0  0  0  0  0  0  0  0  0  0  0  0
    1.6969   -0.8773   -0.3181 H   0  0  0  0  0  0  0  0  0  0  0  0
    0.8323    1.0747    1.0253 H   0  0  0  0  0  0  0  0  0  0  0  0
    1.1457    4.0185   -0.6806 H   0  0  0  0  0  0  0  0  0  0  0  0
    1.1447    3.2907    0.8240 H   0  0  0  0  0  0  0  0  0  0  0  0
  1  2  1  0
  1  4  1  0
  1  5  1  0
  1  6  1  0
  2  3  2  3
  2  7  1  0
  3 16  1  0
  8  9  1  0
  8 13  1  0
  8 14  1  0
  8 15  1  0
  9 10  1  0
  9 17  1  0
 10 11  2  3
 10 18  1  0
 11 12  1  0
 12 19  1  0
 12 20  1  0
M  RAD  1   9   2
M  END
>  <reaction>  (8) 
rmg_rxn_16735

>  <mol_properties>  (8) 
{"1": {"label": "*4", "atom_type": "Cd"}, "2": {"label": "*3", "atom_type": "N3d"}, "8": {"label": "*1", "atom_type": "Cs"}, "9": {"label": "*0", "atom_type": "Cd"}, "15": {"label": "*2", "atom_type": "H0"}}

>  <type>  (8) 
unop_4

>  <geom_source>  (8) 
Heuristics

$$$$

     RDKit          3D

 20 18  0  0  0  0  0  0  0  0999 V2000
   -3.1418   -1.3597    1.0243 C   0  0  0  0  0  0  0  0  0  0  0  0
   -1.9054   -1.3588    0.1887 C   0  0  0  0  0  0  0  0  0  0  0  0
   -0.8304   -1.8904    0.5864 N   0  0  0  0  0  0  0  0  0  0  0  0
   -3.4688   -0.3345    1.2156 H   0  0  0  0  0  0  0  0  0  0  0  0
   -2.9590   -1.8662    1.9704 H   0  0  0  0  0  0  0  0  0  0  0  0
   -3.9559   -1.8597    0.4933 H   0  0  0  0  0  0  0  0  0  0  0  0
   -1.9936   -0.8676   -0.7889 H   0  0  0  0  0  0  0  0  0  0  0  0
    1.1881   -0.6258   -1.8060 C   0  0  0  0  0  0  0  0  0  0  0  0
    1.1881   -0.6258   -0.2861 C   0  0  0  0  0  3  0  0  0  0  0  0
    1.1881    0.7343    0.3389 C   0  0  0  0  0  0  0  0  0  0  0  0
    1.1722    1.7933   -0.3520 N   0  0  0  0  0  0  0  0  0  0  0  0
    1.1025    2.9971    0.3026 N   0  0  0  0  0  0  0  0  0  0  0  0
    2.0680   -0.1143   -2.1969 H   0  0  0  0  0  0  0  0  0  0  0  0
    0.3119   -0.1078   -2.1960 H   0  0  0  0  0  0  0  0  0  0  0  0
    1.1847   -1.6485   -2.1852 H   0  0  0  0  0  0  0  0  0  0  0  0
    0.1416   -1.2814    0.1663 H   0  0  0  0  0  0  0  0  0  0  0  0
    2.0572   -1.1754    0.0925 H   0  0  0  0  0  0  0  0  0  0  0  0
    1.1926    0.7766    1.4359 H   0  0  0  0  0  0  0  0  0  0  0  0
    1.5060    3.7204   -0.2700 H   0  0  0  0  0  0  0  0  0  0  0  0
    1.5050    2.9926    1.2346 H   0  0  0  0  0  0  0  0  0  0  0  0
  1  2  1  0
  1  4  1  0
  1  5  1  0
  1  6  1  0
  2  3  2  3
  2  7  1  0
  3 16  1  0
  8  9  1  0
  8 13  1  0
  8 14  1  0
  8 15  1  0
  9 10  1  0
  9 17  1  0
 10 11  2  3
 10 18  1  0
 11 12  1  0
 12 19  1  0
 12 20  1  0
M  RAD  1   9   2
M  END
>  <reaction>  (9) 
rmg_rxn_16735

>  <mol_properties>  (9) 
{"1": {"label": "*4", "atom_type": "Cd"}, "2": {"label": "*3", "atom_type": "N3d"}, "8": {"label": "*1", "atom_type": "Cs"}, "9": {"label": "*0", "atom_type": "Cd"}, "15": {"label": "*2", "atom_type": "H0"}}

>  <type>  (9) 
unop_5

>  <geom_source>  (9) 
Heuristics

$$$$

     RDKit          3D

 20 18  0  0  0  0  0  0  0  0999 V2000
   -2.2207   -2.3533    2.2045 C   0  0  0  0  0  0  0  0  0  0  0  0
   -1.1365   -1.6740    1.4364 C   0  0  0  0  0  0  0  0  0  0  0  0
   -1.1192   -1.6631    0.1731 N   0  0  0  0  0  0  0  0  0  0  0  0
   -1.7975   -3.1245    2.8532 H   0  0  0  0  0  0  0  0  0  0  0  0
   -2.9410   -2.8045    1.5244 H   0  0  0  0  0  0  0  0  0  0  0  0
   -2.7301   -1.6360    2.8532 H   0  0  0  0  0  0  0  0  0  0  0  0
   -0.3600   -1.1874    2.0407 H   0  0  0  0  0  0  0  0  0  0  0  0
    0.8992   -0.3985   -2.2193 C   0  0  0  0  0  0  0  0  0  0  0  0
    0.8992   -0.3985   -0.6993 C   0  0  0  0  0  3  0  0  0  0  0  0
    0.8992    0.9615   -0.0743 C   0  0  0  0  0  0  0  0  0  0  0  0
    0.8833    2.0205   -0.7652 N   0  0  0  0  0  0  0  0  0  0  0  0
    0.8136    3.2244   -0.1106 N   0  0  0  0  0  0  0  0  0  0  0  0
    1.7791    0.1129   -2.6101 H   0  0  0  0  0  0  0  0  0  0  0  0
    0.0230    0.1194   -2.6093 H   0  0  0  0  0  0  0  0  0  0  0  0
    0.8959   -1.4213   -2.5984 H   0  0  0  0  0  0  0  0  0  0  0  0
   -0.1473   -1.0542   -0.2470 H   0  0  0  0  0  0  0  0  0  0  0  0
    1.7683   -0.9482   -0.3207 H   0  0  0  0  0  0  0  0  0  0  0  0
    0.9038    1.0038    1.0227 H   0  0  0  0  0  0  0  0  0  0  0  0
    1.2171    3.9476   -0.6832 H   0  0  0  0  0  0  0  0  0  0  0  0
    1.2161    3.2198    0.8214 H   0  0  0  0  0  0  0  0  0  0  0  0
  1  2  1  0
  1  4  1  0
  1  5  1  0
  1  6  1  0
  2  3  2  3
  2  7  1  0
  3 16  1  0
  8  9  1  0
  8 13  1  0
  8 14  1  0
  8 15  1  0
  9 10  1  0
  9 17  1  0
 10 11  2  3
 10 18  1  0
 11 12  1  0
 12 19  1  0
 12 20  1  0
M  RAD  1   9   2
M  END
>  <reaction>  (10) 
rmg_rxn_16735

>  <mol_properties>  (10) 
{"1": {"label": "*4", "atom_type": "Cd"}, "2": {"label": "*3", "atom_type": "N3d"}, "8": {"label": "*1", "atom_type": "Cs"}, "9": {"label": "*0", "atom_type": "Cd"}, "15": {"label": "*2", "atom_type": "H0"}}

>  <type>  (10) 
unop_6

>  <geom_source>  (10) 
Heuristics

$$$$

     RDKit          3D

 20 18  0  0  0  0  0  0  0  0999 V2000
   -2.7827   -1.2637    1.7429 C   0  0  0  0  0  0  0  0  0  0  0  0
   -1.8843   -1.1659    0.5553 C   0  0  0  0  0  0  0  0  0  0  0  0
   -0.8973   -1.9390    0.3993 N   0  0  0  0  0  0  0  0  0  0  0  0
   -2.7869   -0.3185    2.2918 H   0  0  0  0  0  0  0  0  0  0  0  0
   -2.4539   -2.0658    2.4013 H   0  0  0  0  0  0  0  0  0  0  0  0
   -3.8112   -1.4510    1.4237 H   0  0  0  0  0  0  0  0  0  0  0  0
   -2.1384   -0.3810   -0.1688 H   0  0  0  0  0  0  0  0  0  0  0  0
    1.1212   -0.6744   -1.9931 C   0  0  0  0  0  0  0  0  0  0  0  0
    1.1212   -0.6744   -0.4731 C   0  0  0  0  0  3  0  0  0  0  0  0
    1.1212    0.6856    0.1518 C   0  0  0  0  0  0  0  0  0  0  0  0
    1.1053    1.7447   -0.5391 N   0  0  0  0  0  0  0  0  0  0  0  0
    1.0356    2.9485    0.1155 N   0  0  0  0  0  0  0  0  0  0  0  0
    2.0011   -0.1629   -2.3840 H   0  0  0  0  0  0  0  0  0  0  0  0
    0.2450   -0.1564   -2.3831 H   0  0  0  0  0  0  0  0  0  0  0  0
    1.1178   -1.6972   -2.3723 H   0  0  0  0  0  0  0  0  0  0  0  0
    0.0747   -1.3300   -0.0208 H   0  0  0  0  0  0  0  0  0  0  0  0
    1.9903   -1.2240   -0.0946 H   0  0  0  0  0  0  0  0  0  0  0  0
    1.1257    0.7279    1.2488 H   0  0  0  0  0  0  0  0  0  0  0  0
    1.4391    3.6717   -0.4570 H   0  0  0  0  0  0  0  0  0  0  0  0
    1.4381    2.9439    1.0475 H   0  0  0  0  0  0  0  0  0  0  0  0
  1  2  1  0
  1  4  1  0
  1  5  1  0
  1  6  1  0
  2  3  2  3
  2  7  1  0
  3 16  1  0
  8  9  1  0
  8 13  1  0
  8 14  1  0
  8 15  1  0
  9 10  1  0
  9 17  1  0
 10 11  2  3
 10 18  1  0
 11 12  1  0
 12 19  1  0
 12 20  1  0
M  RAD  1   9   2
M  END
>  <reaction>  (11) 
rmg_rxn_16735

>  <mol_properties>  (11) 
{"1": {"label": "*4", "atom_type": "Cd"}, "2": {"label": "*3", "atom_type": "N3d"}, "8": {"label": "*1", "atom_type": "Cs"}, "9": {"label": "*0", "atom_type": "Cd"}, "15": {"label": "*2", "atom_type": "H0"}}

>  <type>  (11) 
unop_7

>  <geom_source>  (11) 
Heuristics

$$$$

     RDKit          3D

 20 18  0  0  0  0  0  0  0  0999 V2000
   -2.3414   -1.6113    2.2328 C   0  0  0  0  0  0  0  0  0  0  0  0
   -1.7316   -1.1356    0.9565 C   0  0  0  0  0  0  0  0  0  0  0  0
   -1.0003   -1.8826    0.2469 N   0  0  0  0  0  0  0  0  0  0  0  0
   -2.0140   -0.9827    3.0649 H   0  0  0  0  0  0  0  0  0  0  0  0
   -2.0599   -2.6452    2.4247 H   0  0  0  0  0  0  0  0  0  0  0  0
   -3.4304   -1.5320    2.1833 H   0  0  0  0  0  0  0  0  0  0  0  0
   -1.9607   -0.0988    0.6785 H   0  0  0  0  0  0  0  0  0  0  0  0
    1.0182   -0.6179   -2.1455 C   0  0  0  0  0  0  0  0  0  0  0  0
    1.0182   -0.6179   -0.6255 C   0  0  0  0  0  3  0  0  0  0  0  0
    1.0182    0.7421   -0.0006 C   0  0  0  0  0  0  0  0  0  0  0  0
    1.0023    1.8011   -0.6915 N   0  0  0  0  0  0  0  0  0  0  0  0
    0.9326    3.0050   -0.0369 N   0  0  0  0  0  0  0  0  0  0  0  0
    1.8980   -0.1065   -2.5364 H   0  0  0  0  0  0  0  0  0  0  0  0
    0.1420   -0.1000   -2.5355 H   0  0  0  0  0  0  0  0  0  0  0  0
    1.0148   -1.6407   -2.5247 H   0  0  0  0  0  0  0  0  0  0  0  0
   -0.0283   -1.2736   -0.1732 H   0  0  0  0  0  0  0  0  0  0  0  0
    1.8873   -1.1676   -0.2470 H   0  0  0  0  0  0  0  0  0  0  0  0
    1.0227    0.7844    1.0964 H   0  0  0  0  0  0  0  0  0  0  0  0
    1.3361    3.7282   -0.6094 H   0  0  0  0  0  0  0  0  0  0  0  0
    1.3351    3.0004    0.8951 H   0  0  0  0  0  0  0  0  0  0  0  0
  1  2  1  0
  1  4  1  0
  1  5  1  0
  1  6  1  0
  2  3  2  3
  2  7  1  0
  3 16  1  0
  8  9  1  0
  8 13  1  0
  8 14  1  0
  8 15  1  0
  9 10  1  0
  9 17  1  0
 10 11  2  3
 10 18  1  0
 11 12  1  0
 12 19  1  0
 12 20  1  0
M  RAD  1   9   2
M  END
>  <reaction>  (12) 
rmg_rxn_16735

>  <mol_properties>  (12) 
{"1": {"label": "*4", "atom_type": "Cd"}, "2": {"label": "*3", "atom_type": "N3d"}, "8": {"label": "*1", "atom_type": "Cs"}, "9": {"label": "*0", "atom_type": "Cd"}, "15": {"label": "*2", "atom_type": "H0"}}

>  <type>  (12) 
unop_8

>  <geom_source>  (12) 
Heuristics

$$$$

     RDKit          3D

 20 18  0  0  0  0  0  0  0  0999 V2000
   -1.4854   -3.3343    1.7429 C   0  0  0  0  0  0  0  0  0  0  0  0
   -1.0055   -2.5685    0.5553 C   0  0  0  0  0  0  0  0  0  0  0  0
   -1.2706   -1.3431    0.3993 N   0  0  0  0  0  0  0  0  0  0  0  0
   -2.1026   -4.1780    1.4237 H   0  0  0  0  0  0  0  0  0  0  0  0
   -2.0637   -2.6885    2.4013 H   0  0  0  0  0  0  0  0  0  0  0  0
   -0.6367   -3.7503    2.2918 H   0  0  0  0  0  0  0  0  0  0  0  0
   -0.4101   -3.1395   -0.1688 H   0  0  0  0  0  0  0  0  0  0  0  0
    0.7478   -0.0784   -1.9931 C   0  0  0  0  0  0  0  0  0  0  0  0
    0.7478   -0.0784   -0.4731 C   0  0  0  0  0  3  0  0  0  0  0  0
    0.7478    1.2816    0.1518 C   0  0  0  0  0  0  0  0  0  0  0  0
    0.7319    2.3406   -0.5391 N   0  0  0  0  0  0  0  0  0  0  0  0
    0.6622    3.5444    0.1155 N   0  0  0  0  0  0  0  0  0  0  0  0
    1.6277    0.4330   -2.3840 H   0  0  0  0  0  0  0  0  0  0  0  0
   -0.1284    0.4395   -2.3831 H   0  0  0  0  0  0  0  0  0  0  0  0
    0.7445   -1.1012   -2.3723 H   0  0  0  0  0  0  0  0  0  0  0  0
   -0.2987   -0.7341   -0.0208 H   0  0  0  0  0  0  0  0  0  0  0  0
    1.6169   -0.6281   -0.0946 H   0  0  0  0  0  0  0  0  0  0  0  0
    0.7524    1.3239    1.2488 H   0  0  0  0  0  0  0  0  0  0  0  0
    1.0657    4.2677   -0.4570 H   0  0  0  0  0  0  0  0  0  0  0  0
    1.0647    3.5399    1.0475 H   0  0  0  0  0  0  0  0  0  0  0  0
  1  2  1  0
  1  4  1  0
  1  5  1  0
  1  6  1  0
  2  3  2  3
  2  7  1  0
  3 16  1  0
  8  9  1  0
  8 13  1  0
  8 14  1  0
  8 15  1  0
  9 10  1  0
  9 17  1  0
 10 11  2  3
 10 18  1  0
 11 12  1  0
 12 19  1  0
 12 20  1  0
M  RAD  1   9   2
M  END
>  <reaction>  (13) 
rmg_rxn_16735

>  <mol_properties>  (13) 
{"1": {"label": "*4", "atom_type": "Cd"}, "2": {"label": "*3", "atom_type": "N3d"}, "8": {"label": "*1", "atom_type": "Cs"}, "9": {"label": "*0", "atom_type": "Cd"}, "15": {"label": "*2", "atom_type": "H0"}}

>  <type>  (13) 
unop_9

>  <geom_source>  (13) 
Heuristics

$$$$

     RDKit          3D

 20 18  0  0  0  0  0  0  0  0999 V2000
   -3.2321    0.9975   -0.2578 C   0  0  0  0  0  0  0  0  0  0  0  0
   -1.8908    0.3721   -0.0463 C   0  0  0  0  0  0  0  0  0  0  0  0
   -1.7522   -0.7777    0.4075 N   0  0  0  0  0  0  0  0  0  0  0  0
   -4.0199    0.3115    0.0404 H   0  0  0  0  0  0  0  0  0  0  0  0
   -3.3480    1.2560   -1.3092 H   0  0  0  0  0  0  0  0  0  0  0  0
   -3.3020    1.9144    0.3255 H   0  0  0  0  0  0  0  0  0  0  0  0
   -1.0421    1.0156   -0.3260 H   0  0  0  0  0  0  0  0  0  0  0  0
    0.9295   -2.0597   -0.7887 C   0  0  0  0  0  0  0  0  0  0  0  0
    0.7268   -1.3394    0.5172 C   0  0  0  0  0  3  0  0  0  0  0  0
    1.3034   -0.0543    0.6822 C   0  0  0  0  0  0  0  0  0  0  0  0
    1.6798    0.6667   -0.3245 N   0  0  0  0  0  0  0  0  0  0  0  0
    2.0845    1.9329   -0.1039 N   0  0  0  0  0  0  0  0  0  0  0  0
    0.1986   -2.8561   -0.9083 H   0  0  0  0  0  0  0  0  0  0  0  0
    1.9261   -2.5025   -0.8249 H   0  0  0  0  0  0  0  0  0  0  0  0
    0.8417   -1.3584   -1.6135 H   0  0  0  0  0  0  0  0  0  0  0  0
   -0.6082   -1.0957    0.4989 H   0  0  0  0  0  0  0  0  0  0  0  0
    0.7501   -1.9705    1.4007 H   0  0  0  0  0  0  0  0  0  0  0  0
    1.3603    0.3512    1.7027 H   0  0  0  0  0  0  0  0  0  0  0  0
    2.7174    2.2640   -0.8173 H   0  0  0  0  0  0  0  0  0  0  0  0
    2.3428    2.1841    0.8517 H   0  0  0  0  0  0  0  0  0  0  0  0
  1  2  1  0
  1  4  1  0
  1  5  1  0
  1  6  1  0
  2  3  2  3
  2  7  1  0
  3 16  1  0
  8  9  1  0
  8 13  1  0
  8 14  1  0
  8 15  1  0
  9 10  1  0
  9 17  1  0
 10 11  2  3
 10 18  1  0
 11 12  1  0
 12 19  1  0
 12 20  1  0
M  RAD  1   9   2
M  END
>  <reaction>  (14) 
rmg_rxn_16735

>  <mol_properties>  (14) 
{"1": {"label": "*4", "atom_type": "Cd"}, "2": {"label": "*3", "atom_type": "N3d"}, "8": {"label": "*1", "atom_type": "Cs"}, "9": {"label": "*0", "atom_type": "Cd"}, "15": {"label": "*2", "atom_type": "H0"}}

>  <type>  (14) 
unop_10

>  <geom_source>  (14) 
Heuristics

$$$$

     RDKit          3D

 20 18  0  0  0  0  0  0  0  0999 V2000
   -3.2093   -1.9307    0.3671 C   0  0  0  0  0  0  0  0  0  0  0  0
   -1.8063   -1.6541   -0.0597 C   0  0  0  0  0  0  0  0  0  0  0  0
   -0.8347   -1.7411    0.7432 N   0  0  0  0  0  0  0  0  0  0  0  0
   -3.8355   -1.0509    0.1984 H   0  0  0  0  0  0  0  0  0  0  0  0
   -3.2380   -2.2014    1.4211 H   0  0  0  0  0  0  0  0  0  0  0  0
   -3.6326   -2.7421   -0.2305 H   0  0  0  0  0  0  0  0  0  0  0  0
   -1.6774   -1.3716   -1.1125 H   0  0  0  0  0  0  0  0  0  0  0  0
    1.1837   -0.4764   -1.6492 C   0  0  0  0  0  0  0  0  0  0  0  0
    1.1837   -0.4764   -0.1292 C   0  0  0  0  0  3  0  0  0  0  0  0
    1.1837    0.8836    0.4958 C   0  0  0  0  0  0  0  0  0  0  0  0
    1.1679    1.9426   -0.1951 N   0  0  0  0  0  0  0  0  0  0  0  0
    1.0982    3.1464    0.4594 N   0  0  0  0  0  0  0  0  0  0  0  0
    2.0636    0.0350   -2.0401 H   0  0  0  0  0  0  0  0  0  0  0  0
    0.3076    0.0415   -2.0392 H   0  0  0  0  0  0  0  0  0  0  0  0
    1.1804   -1.4992   -2.0283 H   0  0  0  0  0  0  0  0  0  0  0  0
    0.1373   -1.1321    0.3231 H   0  0  0  0  0  0  0  0  0  0  0  0
    2.0528   -1.0261    0.2494 H   0  0  0  0  0  0  0  0  0  0  0  0
    1.1883    0.9259    1.5928 H   0  0  0  0  0  0  0  0  0  0  0  0
    1.5017    3.8697   -0.1131 H   0  0  0  0  0  0  0  0  0  0  0  0
    1.5007    3.1419    1.3915 H   0  0  0  0  0  0  0  0  0  0  0  0
  1  2  1  0
  1  4  1  0
  1  5  1  0
  1  6  1  0
  2  3  2  3
  2  7  1  0
  3 16  1  0
  8  9  1  0
  8 13  1  0
  8 14  1  0
  8 15  1  0
  9 10  1  0
  9 17  1  0
 10 11  2  3
 10 18  1  0
 11 12  1  0
 12 19  1  0
 12 20  1  0
M  RAD  1   9   2
M  END
>  <reaction>  (15) 
rmg_rxn_16735

>  <mol_properties>  (15) 
{"1": {"label": "*4", "atom_type": "Cd"}, "2": {"label": "*3", "atom_type": "N3d"}, "8": {"label": "*1", "atom_type": "Cs"}, "9": {"label": "*0", "atom_type": "Cd"}, "15": {"label": "*2", "atom_type": "H0"}}

>  <type>  (15) 
unop_11

>  <geom_source>  (15) 
Heuristics

$$$$

     RDKit          3D

 20 18  0  0  0  0  0  0  0  0999 V2000
   -1.7285   -3.6155    1.0243 C   0  0  0  0  0  0  0  0  0  0  0  0
   -1.1883   -2.5033    0.1887 C   0  0  0  0  0  0  0  0  0  0  0  0
   -1.1977   -1.3041    0.5864 N   0  0  0  0  0  0  0  0  0  0  0  0
   -2.5335   -4.1299    0.4933 H   0  0  0  0  0  0  0  0  0  0  0  0
   -2.1044   -3.2301    1.9704 H   0  0  0  0  0  0  0  0  0  0  0  0
   -0.9485   -4.3570    1.2156 H   0  0  0  0  0  0  0  0  0  0  0  0
   -0.7848   -2.7969   -0.7889 H   0  0  0  0  0  0  0  0  0  0  0  0
    0.8207   -0.0394   -1.8060 C   0  0  0  0  0  0  0  0  0  0  0  0
    0.8207   -0.0394   -0.2861 C   0  0  0  0  0  3  0  0  0  0  0  0
    0.8207    1.3206    0.3389 C   0  0  0  0  0  0  0  0  0  0  0  0
    0.8048    2.3796   -0.3520 N   0  0  0  0  0  0  0  0  0  0  0  0
    0.7351    3.5834    0.3026 N   0  0  0  0  0  0  0  0  0  0  0  0
    1.7006    0.4720   -2.1969 H   0  0  0  0  0  0  0  0  0  0  0  0
   -0.0555    0.4785   -2.1960 H   0  0  0  0  0  0  0  0  0  0  0  0
    0.8174   -1.0622   -2.1852 H   0  0  0  0  0  0  0  0  0  0  0  0
   -0.2258   -0.6951    0.1663 H   0  0  0  0  0  0  0  0  0  0  0  0
    1.6898   -0.5891    0.0925 H   0  0  0  0  0  0  0  0  0  0  0  0
    0.8253    1.3629    1.4359 H   0  0  0  0  0  0  0  0  0  0  0  0
    1.1386    4.3067   -0.2700 H   0  0  0  0  0  0  0  0  0  0  0  0
    1.1376    3.5789    1.2346 H   0  0  0  0  0  0  0  0  0  0  0  0
  1  2  1  0
  1  4  1  0
  1  5  1  0
  1  6  1  0
  2  3  2  3
  2  7  1  0
  3 16  1  0
  8  9  1  0
  8 13  1  0
  8 14  1  0
  8 15  1  0
  9 10  1  0
  9 17  1  0
 10 11  2  3
 10 18  1  0
 11 12  1  0
 12 19  1  0
 12 20  1  0
M  RAD  1   9   2
M  END
>  <reaction>  (16) 
rmg_rxn_16735

>  <mol_properties>  (16) 
{"1": {"label": "*4", "atom_type": "Cd"}, "2": {"label": "*3", "atom_type": "N3d"}, "8": {"label": "*1", "atom_type": "Cs"}, "9": {"label": "*0", "atom_type": "Cd"}, "15": {"label": "*2", "atom_type": "H0"}}

>  <type>  (16) 
unop_12

>  <geom_source>  (16) 
Heuristics

$$$$

     RDKit          3D

 20 18  0  0  0  0  0  0  0  0999 V2000
   -2.1023   -2.1631    2.3253 C   0  0  0  0  0  0  0  0  0  0  0  0
   -1.4630   -1.2984    1.2907 C   0  0  0  0  0  0  0  0  0  0  0  0
   -1.0866   -1.7584    0.1757 N   0  0  0  0  0  0  0  0  0  0  0  0
   -1.5185   -2.1409    3.2491 H   0  0  0  0  0  0  0  0  0  0  0  0
   -2.1786   -3.1883    1.9673 H   0  0  0  0  0  0  0  0  0  0  0  0
   -3.0988   -1.7859    2.5692 H   0  0  0  0  0  0  0  0  0  0  0  0
   -1.3429   -0.2419    1.5632 H   0  0  0  0  0  0  0  0  0  0  0  0
    0.9318   -0.4937   -2.2167 C   0  0  0  0  0  0  0  0  0  0  0  0
    0.9318   -0.4937   -0.6967 C   0  0  0  0  0  3  0  0  0  0  0  0
    0.9318    0.8663   -0.0717 C   0  0  0  0  0  0  0  0  0  0  0  0
    0.9160    1.9253   -0.7626 N   0  0  0  0  0  0  0  0  0  0  0  0
    0.8463    3.1292   -0.1081 N   0  0  0  0  0  0  0  0  0  0  0  0
    1.8117    0.0177   -2.6076 H   0  0  0  0  0  0  0  0  0  0  0  0
    0.0557    0.0242   -2.6067 H   0  0  0  0  0  0  0  0  0  0  0  0
    0.9285   -1.5165   -2.5958 H   0  0  0  0  0  0  0  0  0  0  0  0
   -0.1147   -1.1494   -0.2444 H   0  0  0  0  0  0  0  0  0  0  0  0
    1.8009   -1.0434   -0.3181 H   0  0  0  0  0  0  0  0  0  0  0  0
    0.9364    0.9086    1.0253 H   0  0  0  0  0  0  0  0  0  0  0  0
    1.2498    3.8524   -0.6806 H   0  0  0  0  0  0  0  0  0  0  0  0
    1.2488    3.1246    0.8240 H   0  0  0  0  0  0  0  0  0  0  0  0
  1  2  1  0
  1  4  1  0
  1  5  1  0
  1  6  1  0
  2  3  2  3
  2  7  1  0
  3 16  1  0
  8  9  1  0
  8 13  1  0
  8 14  1  0
  8 15  1  0
  9 10  1  0
  9 17  1  0
 10 11  2  3
 10 18  1  0
 11 12  1  0
 12 19  1  0
 12 20  1  0
M  RAD  1   9   2
M  END
>  <reaction>  (17) 
rmg_rxn_16735

>  <mol_properties>  (17) 
{"1": {"label": "*4", "atom_type": "Cd"}, "2": {"label": "*3", "atom_type": "N3d"}, "8": {"label": "*1", "atom_type": "Cs"}, "9": {"label": "*0", "atom_type": "Cd"}, "15": {"label": "*2", "atom_type": "H0"}}

>  <type>  (17) 
unop_13

>  <geom_source>  (17) 
Heuristics

$$$$

     RDKit          3D

 20 18  0  0  0  0  0  0  0  0999 V2000
   -2.8757   -2.7637    0.0943 C   0  0  0  0  0  0  0  0  0  0  0  0
   -1.6276   -1.9816   -0.1457 C   0  0  0  0  0  0  0  0  0  0  0  0
   -0.9230   -1.5402    0.8055 N   0  0  0  0  0  0  0  0  0  0  0  0
   -3.7299   -2.2625   -0.3681 H   0  0  0  0  0  0  0  0  0  0  0  0
   -3.0533   -2.8749    1.1625 H   0  0  0  0  0  0  0  0  0  0  0  0
   -2.7973   -3.7509   -0.3681 H   0  0  0  0  0  0  0  0  0  0  0  0
   -1.3655   -1.8174   -1.1989 H   0  0  0  0  0  0  0  0  0  0  0  0
    1.0955   -0.2755   -1.5868 C   0  0  0  0  0  0  0  0  0  0  0  0
    1.0955   -0.2755   -0.0669 C   0  0  0  0  0  3  0  0  0  0  0  0
    1.0955    1.0845    0.5581 C   0  0  0  0  0  0  0  0  0  0  0  0
    1.0796    2.1435   -0.1328 N   0  0  0  0  0  0  0  0  0  0  0  0
    1.0099    3.3473    0.5218 N   0  0  0  0  0  0  0  0  0  0  0  0
    1.9754    0.2359   -1.9777 H   0  0  0  0  0  0  0  0  0  0  0  0
    0.2193    0.2424   -1.9769 H   0  0  0  0  0  0  0  0  0  0  0  0
    1.0922   -1.2983   -1.9660 H   0  0  0  0  0  0  0  0  0  0  0  0
    0.0490   -0.9312    0.3854 H   0  0  0  0  0  0  0  0  0  0  0  0
    1.9646   -0.8252    0.3117 H   0  0  0  0  0  0  0  0  0  0  0  0
    1.1000    1.1268    1.6551 H   0  0  0  0  0  0  0  0  0  0  0  0
    1.4134    4.0706   -0.0508 H   0  0  0  0  0  0  0  0  0  0  0  0
    1.4124    3.3428    1.4538 H   0  0  0  0  0  0  0  0  0  0  0  0
  1  2  1  0
  1  4  1  0
  1  5  1  0
  1  6  1  0
  2  3  2  3
  2  7  1  0
  3 16  1  0
  8  9  1  0
  8 13  1  0
  8 14  1  0
  8 15  1  0
  9 10  1  0
  9 17  1  0
 10 11  2  3
 10 18  1  0
 11 12  1  0
 12 19  1  0
 12 20  1  0
M  RAD  1   9   2
M  END
>  <reaction>  (18) 
rmg_rxn_16735

>  <mol_properties>  (18) 
{"1": {"label": "*4", "atom_type": "Cd"}, "2": {"label": "*3", "atom_type": "N3d"}, "8": {"label": "*1", "atom_type": "Cs"}, "9": {"label": "*0", "atom_type": "Cd"}, "15": {"label": "*2", "atom_type": "H0"}}

>  <type>  (18) 
unop_14

>  <geom_source>  (18) 
Heuristics

$$$$

     RDKit          3D

 20 18  0  0  0  0  0  0  0  0999 V2000
   -2.2717   -3.4272    0.3671 C   0  0  0  0  0  0  0  0  0  0  0  0
   -1.4108   -2.2854   -0.0597 C   0  0  0  0  0  0  0  0  0  0  0  0
   -1.0652   -1.3731    0.7432 N   0  0  0  0  0  0  0  0  0  0  0  0
   -3.1865   -3.4541   -0.2305 H   0  0  0  0  0  0  0  0  0  0  0  0
   -2.5278   -3.3349    1.4211 H   0  0  0  0  0  0  0  0  0  0  0  0
   -1.7532   -4.3745    0.1984 H   0  0  0  0  0  0  0  0  0  0  0  0
   -1.1003   -2.2926   -1.1125 H   0  0  0  0  0  0  0  0  0  0  0  0
    0.9532   -0.1085   -1.6492 C   0  0  0  0  0  0  0  0  0  0  0  0
    0.9532   -0.1085   -0.1292 C   0  0  0  0  0  3  0  0  0  0  0  0
    0.9532    1.2515    0.4958 C   0  0  0  0  0  0  0  0  0  0  0  0
    0.9373    2.3106   -0.1951 N   0  0  0  0  0  0  0  0  0  0  0  0
    0.8676    3.5144    0.4594 N   0  0  0  0  0  0  0  0  0  0  0  0
    1.8331    0.4030   -2.0401 H   0  0  0  0  0  0  0  0  0  0  0  0
    0.0770    0.4094   -2.0392 H   0  0  0  0  0  0  0  0  0  0  0  0
    0.9499   -1.1313   -2.0283 H   0  0  0  0  0  0  0  0  0  0  0  0
   -0.0933   -0.7641    0.3231 H   0  0  0  0  0  0  0  0  0  0  0  0
    1.8223   -0.6581    0.2494 H   0  0  0  0  0  0  0  0  0  0  0  0
    0.9578    1.2938    1.5928 H   0  0  0  0  0  0  0  0  0  0  0  0
    1.2711    4.2376   -0.1131 H   0  0  0  0  0  0  0  0  0  0  0  0
    1.2701    3.5098    1.3915 H   0  0  0  0  0  0  0  0  0  0  0  0
  1  2  1  0
  1  4  1  0
  1  5  1  0
  1  6  1  0
  2  3  2  3
  2  7  1  0
  3 16  1  0
  8  9  1  0
  8 13  1  0
  8 14  1  0
  8 15  1  0
  9 10  1  0
  9 17  1  0
 10 11  2  3
 10 18  1  0
 11 12  1  0
 12 19  1  0
 12 20  1  0
M  RAD  1   9   2
M  END
>  <reaction>  (19) 
rmg_rxn_16735

>  <mol_properties>  (19) 
{"1": {"label": "*4", "atom_type": "Cd"}, "2": {"label": "*3", "atom_type": "N3d"}, "8": {"label": "*1", "atom_type": "Cs"}, "9": {"label": "*0", "atom_type": "Cd"}, "15": {"label": "*2", "atom_type": "H0"}}

>  <type>  (19) 
unop_15

>  <geom_source>  (19) 
gaussian_log

$$$$
