
     RDKit          3D

 14 13  0  0  0  0  0  0  0  0999 V2000
    2.1277    0.0527   -0.0768 C   0  0  0  0  0  0  0  0  0  0  0  0
    0.8550    0.0849    0.7591 C   0  0  0  0  0  0  0  0  0  0  0  0
    0.7150    1.3361    1.5963 C   0  0  0  0  0  0  0  0  0  0  0  0
    0.5975    2.4604    0.7083 O   0  0  0  0  0  0  0  0  0  0  0  0
    0.5113    3.6572    1.2782 C   0  0  0  0  0  0  0  0  0  0  0  0
    0.5224    3.8788    2.4534 O   0  0  0  0  0  0  0  0  0  0  0  0
    3.0138    0.1211    0.5584 H   0  0  0  0  0  0  0  0  0  0  0  0
    2.1544    0.8845   -0.7813 H   0  0  0  0  0  0  0  0  0  0  0  0
    2.1955   -0.8742   -0.6473 H   0  0  0  0  0  0  0  0  0  0  0  0
    0.8361   -0.7663    1.4449 H   0  0  0  0  0  0  0  0  0  0  0  0
   -0.0232   -0.0114    0.1158 H   0  0  0  0  0  0  0  0  0  0  0  0
   -0.1715    1.3001    2.2317 H   0  0  0  0  0  0  0  0  0  0  0  0
    1.5840    1.4884    2.2407 H   0  0  0  0  0  0  0  0  0  0  0  0
    0.4263    4.4265    0.4986 H   0  0  0  0  0  0  0  0  0  0  0  0
  1  2  1  0
  1  7  1  0
  1  8  1  0
  1  9  1  0
  2  3  1  0
  2 10  1  0
  2 11  1  0
  3  4  1  0
  3 12  1  0
  3 13  1  0
  4  5  1  0
  5  6  2  0
  5 14  1  0
M  END
>  <reaction>  (1) 
rmg_rxn_15439

>  <mol_properties>  (1) 
{"0": {"label": "donator", "atom_type": "Cs"}, "6": {"label": "d_hydrogen", "atom_type": "H0"}}

>  <type>  (1) 
r1h

$$$$

     RDKit          3D

  5  4  0  0  0  0  0  0  0  0999 V2000
    0.8934    0.3742    0.4948 O   0  0  0  0  0  0  0  0  0  0  0  0
    0.1582   -0.1610   -0.5904 N   0  0  0  0  0  0  0  0  0  0  0  0
   -1.0297   -0.3739   -0.4689 C   0  0  0  0  0  3  0  0  0  0  0  0
    1.7804    0.4382    0.1306 H   0  0  0  0  0  0  0  0  0  0  0  0
   -1.8023   -0.2775    0.2859 H   0  0  0  0  0  0  0  0  0  0  0  0
  1  2  1  0
  1  4  1  0
  2  3  2  3
  3  5  1  0
M  RAD  1   3   2
M  END
>  <reaction>  (2) 
rmg_rxn_15439

>  <mol_properties>  (2) 
{"2": {"label": "acceptor", "atom_type": "Cd"}}

>  <type>  (2) 
r2

$$$$

     RDKit          3D

  6  5  0  0  0  0  0  0  0  0999 V2000
    1.2314    0.0428    0.5088 O   0  0  0  0  0  0  0  0  0  0  0  0
    0.2987    0.2341   -0.4915 N   0  0  0  0  0  0  0  0  0  0  0  0
   -0.8599   -0.1122   -0.1290 C   0  0  0  0  0  0  0  0  0  0  0  0
    2.0507    0.3401    0.1082 H   0  0  0  0  0  0  0  0  0  0  0  0
   -1.0700   -0.5112    0.8610 H   0  0  0  0  0  0  0  0  0  0  0  0
   -1.6509    0.0064   -0.8574 H   0  0  0  0  0  0  0  0  0  0  0  0
  1  2  1  0
  1  4  1  0
  2  3  2  3
  3  5  1  0
  3  6  1  0
M  END
>  <reaction>  (3) 
rmg_rxn_15439

>  <mol_properties>  (3) 
{"2": {"label": "acceptor", "atom_type": "Cd"}, "5": {"label": "a_hydrogen", "atom_type": "H0"}}

>  <type>  (3) 
r2h

$$$$

     RDKit          3D

 19 17  0  0  0  0  0  0  0  0999 V2000
    2.3639   -1.7340   -0.1191 O   0  0  0  0  0  0  0  0  0  0  0  0
    1.7550   -0.4923   -0.2112 N   0  0  0  0  0  0  0  0  0  0  0  0
    2.4241    0.4801    0.1824 C   0  0  0  0  0  3  0  0  0  0  0  0
    1.6505   -2.3279   -0.3715 H   0  0  0  0  0  0  0  0  0  0  0  0
    3.4314    0.4874    0.5988 H   0  0  0  0  0  0  0  0  0  0  0  0
    0.6847    2.4773   -0.0870 C   0  0  0  0  0  0  0  0  0  0  0  0
   -0.5286    1.6907   -0.5181 C   0  0  0  0  0  0  0  0  0  0  0  0
   -1.1258    0.8834    0.6197 C   0  0  0  0  0  0  0  0  0  0  0  0
   -2.3105    0.1994    0.1771 O   0  0  0  0  0  0  0  0  0  0  0  0
   -2.2149   -1.0890   -0.1348 C   0  0  0  0  0  0  0  0  0  0  0  0
   -1.2399   -1.7787   -0.0641 O   0  0  0  0  0  0  0  0  0  0  0  0
    1.6470    1.6191    0.0947 H   0  0  0  0  0  0  0  0  0  0  0  0
    0.5874    2.9912    0.8696 H   0  0  0  0  0  0  0  0  0  0  0  0
    1.0814    3.1375   -0.8556 H   0  0  0  0  0  0  0  0  0  0  0  0
   -0.2552    1.0081   -1.3266 H   0  0  0  0  0  0  0  0  0  0  0  0
   -1.2939    2.3686   -0.9113 H   0  0  0  0  0  0  0  0  0  0  0  0
   -0.4093    0.1576    0.9994 H   0  0  0  0  0  0  0  0  0  0  0  0
   -1.4568    1.5350    1.4291 H   0  0  0  0  0  0  0  0  0  0  0  0
   -3.1980   -1.4445   -0.4728 H   0  0  0  0  0  0  0  0  0  0  0  0
  1  2  1  0
  1  4  1  0
  2  3  2  3
  3  5  1  0
  6  7  1  0
  6 12  1  0
  6 13  1  0
  6 14  1  0
  7  8  1  0
  7 15  1  0
  7 16  1  0
  8  9  1  0
  8 17  1  0
  8 18  1  0
  9 10  1  0
 10 11  2  0
 10 19  1  0
M  RAD  1   3   2
M  END
>  <reaction>  (4) 
rmg_rxn_15439

>  <mol_properties>  (4) 
{"1": {"label": "*4", "atom_type": "N3d"}, "2": {"label": "*3", "atom_type": "Cd"}, "5": {"label": "*1", "atom_type": "Cs"}, "6": {"label": "*0", "atom_type": "Cs"}, "11": {"label": "*2", "atom_type": "H0"}}

>  <type>  (4) 
ts

$$$$

     RDKit          3D

 19 17  0  0  0  0  0  0  0  0999 V2000
    1.9970   -1.8325   -0.0270 O   0  0  0  0  0  0  0  0  0  0  0  0
    1.6329   -0.4962    0.0275 N   0  0  0  0  0  0  0  0  0  0  0  0
    2.3882    0.4720    0.0985 C   0  0  0  0  0  3  0  0  0  0  0  0
    1.1348   -2.2844   -0.0631 H   0  0  0  0  0  0  0  0  0  0  0  0
    3.4663    0.5656    0.1252 H   0  0  0  0  0  0  0  0  0  0  0  0
    0.7197    2.4890   -0.0484 C   0  0  0  0  0  0  0  0  0  0  0  0
   -0.5246    1.7687   -0.5079 C   0  0  0  0  0  0  0  0  0  0  0  0
   -1.1042    0.8898    0.6002 C   0  0  0  0  0  0  0  0  0  0  0  0
   -2.1940    0.0981    0.1019 O   0  0  0  0  0  0  0  0  0  0  0  0
   -1.9762   -1.1641   -0.1846 C   0  0  0  0  0  0  0  0  0  0  0  0
   -0.9610   -1.7890   -0.0610 O   0  0  0  0  0  0  0  0  0  0  0  0
    1.6412    1.5715    0.0729 H   0  0  0  0  0  0  0  0  0  0  0  0
    0.6137    2.9578    0.9230 H   0  0  0  0  0  0  0  0  0  0  0  0
    1.0936    3.1874   -0.7878 H   0  0  0  0  0  0  0  0  0  0  0  0
   -0.2785    1.1318   -1.3611 H   0  0  0  0  0  0  0  0  0  0  0  0
   -1.2903    2.4803   -0.8360 H   0  0  0  0  0  0  0  0  0  0  0  0
   -0.3286    0.2257    0.9887 H   0  0  0  0  0  0  0  0  0  0  0  0
   -1.5219    1.4999    1.4044 H   0  0  0  0  0  0  0  0  0  0  0  0
   -2.9156   -1.6023   -0.5666 H   0  0  0  0  0  0  0  0  0  0  0  0
  1  2  1  0
  1  4  1  0
  2  3  2  3
  3  5  1  0
  6  7  1  0
  6 12  1  0
  6 13  1  0
  6 14  1  0
  7  8  1  0
  7 15  1  0
  7 16  1  0
  8  9  1  0
  8 17  1  0
  8 18  1  0
  9 10  1  0
 10 11  2  0
 10 19  1  0
M  RAD  1   3   2
M  END
>  <reaction>  (5) 
rmg_rxn_15439

>  <mol_properties>  (5) 
{"1": {"label": "*4", "atom_type": "N3d"}, "2": {"label": "*3", "atom_type": "Cd"}, "5": {"label": "*1", "atom_type": "Cs"}, "6": {"label": "*0", "atom_type": "Cs"}, "11": {"label": "*2", "atom_type": "H0"}}

>  <type>  (5) 
unop_1

>  <geom_source>  (5) 
crest_best.xyz

$$$$

     RDKit          3D

 19 17  0  0  0  0  0  0  0  0999 V2000
    3.8464    1.8481    0.1055 O   0  0  0  0  0  0  0  0  0  0  0  0
    2.5025    2.1602    0.1652 N   0  0  0  0  0  0  0  0  0  0  0  0
    1.7739    1.1546   -0.0612 C   0  0  0  0  0  0  0  0  0  0  0  0
    4.2771    2.6845    0.2925 H   0  0  0  0  0  0  0  0  0  0  0  0
    2.1834    0.1697   -0.2753 H   0  0  0  0  0  0  0  0  0  0  0  0
   -0.3098    0.8514    1.4796 C   0  0  0  0  0  3  0  0  0  0  0  0
   -1.5960    0.8628    0.6641 C   0  0  0  0  0  0  0  0  0  0  0  0
   -1.6517   -0.2206   -0.3892 C   0  0  0  0  0  0  0  0  0  0  0  0
   -1.6521   -1.4948    0.2763 O   0  0  0  0  0  0  0  0  0  0  0  0
   -1.6521   -2.5693   -0.5047 C   0  0  0  0  0  0  0  0  0  0  0  0
   -1.6521   -2.5693   -1.7007 O   0  0  0  0  0  0  0  0  0  0  0  0
    0.7371    1.0037    0.7055 H   0  0  0  0  0  0  0  0  0  0  0  0
   -0.1957   -0.0901    2.0175 H   0  0  0  0  0  0  0  0  0  0  0  0
   -0.3055    1.6601    2.2113 H   0  0  0  0  0  0  0  0  0  0  0  0
   -1.7035    1.8206    0.1481 H   0  0  0  0  0  0  0  0  0  0  0  0
   -2.4626    0.7624    1.3222 H   0  0  0  0  0  0  0  0  0  0  0  0
   -2.5539   -0.1456   -0.9986 H   0  0  0  0  0  0  0  0  0  0  0  0
   -0.7895   -0.1756   -1.0586 H   0  0  0  0  0  0  0  0  0  0  0  0
   -1.6527   -3.4733    0.1196 H   0  0  0  0  0  0  0  0  0  0  0  0
  1  2  1  0
  1  4  1  0
  2  3  2  3
  3  5  1  0
  3 12  1  0
  6  7  1  0
  6 13  1  0
  6 14  1  0
  7  8  1  0
  7 15  1  0
  7 16  1  0
  8  9  1  0
  8 17  1  0
  8 18  1  0
  9 10  1  0
 10 11  2  0
 10 19  1  0
M  RAD  1   6   2
M  END
>  <reaction>  (6) 
rmg_rxn_15439

>  <mol_properties>  (6) 
{"1": {"label": "*4", "atom_type": "N3d"}, "2": {"label": "*3", "atom_type": "Cd"}, "5": {"label": "*1", "atom_type": "Cs"}, "6": {"label": "*0", "atom_type": "Cs"}, "11": {"label": "*2", "atom_type": "H0"}}

>  <type>  (6) 
unop_2

>  <geom_source>  (6) 
Heuristics

$$$$

     RDKit          3D

 19 17  0  0  0  0  0  0  0  0999 V2000
    3.0332    2.2446   -1.2814 O   0  0  0  0  0  0  0  0  0  0  0  0
    1.8354    1.8088   -0.7499 N   0  0  0  0  0  0  0  0  0  0  0  0
    2.0043    1.1322    0.3023 C   0  0  0  0  0  0  0  0  0  0  0  0
    2.7649    2.7353   -2.0606 H   0  0  0  0  0  0  0  0  0  0  0  0
    2.9891    0.9314    0.7189 H   0  0  0  0  0  0  0  0  0  0  0  0
   -0.0793    0.8290    1.8431 C   0  0  0  0  0  3  0  0  0  0  0  0
   -1.3655    0.8404    1.0275 C   0  0  0  0  0  0  0  0  0  0  0  0
   -1.4212   -0.2430   -0.0257 C   0  0  0  0  0  0  0  0  0  0  0  0
   -1.4217   -1.5172    0.6397 O   0  0  0  0  0  0  0  0  0  0  0  0
   -1.4217   -2.5917   -0.1412 C   0  0  0  0  0  0  0  0  0  0  0  0
   -1.4217   -2.5917   -1.3372 O   0  0  0  0  0  0  0  0  0  0  0  0
    0.9676    0.9813    1.0689 H   0  0  0  0  0  0  0  0  0  0  0  0
    0.0348   -0.1125    2.3810 H   0  0  0  0  0  0  0  0  0  0  0  0
   -0.0750    1.6377    2.5747 H   0  0  0  0  0  0  0  0  0  0  0  0
   -1.4730    1.7982    0.5116 H   0  0  0  0  0  0  0  0  0  0  0  0
   -2.2322    0.7400    1.6857 H   0  0  0  0  0  0  0  0  0  0  0  0
   -2.3234   -0.1680   -0.6351 H   0  0  0  0  0  0  0  0  0  0  0  0
   -0.5591   -0.1980   -0.6952 H   0  0  0  0  0  0  0  0  0  0  0  0
   -1.4222   -3.4957    0.4830 H   0  0  0  0  0  0  0  0  0  0  0  0
  1  2  1  0
  1  4  1  0
  2  3  2  3
  3  5  1  0
  3 12  1  0
  6  7  1  0
  6 13  1  0
  6 14  1  0
  7  8  1  0
  7 15  1  0
  7 16  1  0
  8  9  1  0
  8 17  1  0
  8 18  1  0
  9 10  1  0
 10 11  2  0
 10 19  1  0
M  RAD  1   6   2
M  END
>  <reaction>  (7) 
rmg_rxn_15439

>  <mol_properties>  (7) 
{"1": {"label": "*4", "atom_type": "N3d"}, "2": {"label": "*3", "atom_type": "Cd"}, "5": {"label": "*1", "atom_type": "Cs"}, "6": {"label": "*0", "atom_type": "Cs"}, "11": {"label": "*2", "atom_type": "H0"}}

>  <type>  (7) 
unop_3

>  <geom_source>  (7) 
Heuristics

$$$$

     RDKit          3D

 19 17  0  0  0  0  0  0  0  0999 V2000
    3.9205    1.3674   -0.0659 O   0  0  0  0  0  0  0  0  0  0  0  0
    2.7320    1.8534    0.4424 N   0  0  0  0  0  0  0  0  0  0  0  0
    1.7304    1.2792   -0.0681 C   0  0  0  0  0  0  0  0  0  0  0  0
    4.5861    1.8793    0.3977 H   0  0  0  0  0  0  0  0  0  0  0  0
    1.8221    0.4967   -0.8184 H   0  0  0  0  0  0  0  0  0  0  0  0
   -0.3533    0.9760    1.4726 C   0  0  0  0  0  3  0  0  0  0  0  0
   -1.6394    0.9874    0.6571 C   0  0  0  0  0  0  0  0  0  0  0  0
   -1.6951   -0.0960   -0.3961 C   0  0  0  0  0  0  0  0  0  0  0  0
   -1.6956   -1.3702    0.2693 O   0  0  0  0  0  0  0  0  0  0  0  0
   -1.6956   -2.4447   -0.5117 C   0  0  0  0  0  0  0  0  0  0  0  0
   -1.6956   -2.4447   -1.7077 O   0  0  0  0  0  0  0  0  0  0  0  0
    0.6937    1.1283    0.6985 H   0  0  0  0  0  0  0  0  0  0  0  0
   -0.2391    0.0345    2.0105 H   0  0  0  0  0  0  0  0  0  0  0  0
   -0.3489    1.7847    2.2043 H   0  0  0  0  0  0  0  0  0  0  0  0
   -1.7469    1.9452    0.1412 H   0  0  0  0  0  0  0  0  0  0  0  0
   -2.5061    0.8870    1.3152 H   0  0  0  0  0  0  0  0  0  0  0  0
   -2.5974   -0.0210   -1.0055 H   0  0  0  0  0  0  0  0  0  0  0  0
   -0.8330   -0.0510   -1.0656 H   0  0  0  0  0  0  0  0  0  0  0  0
   -1.6961   -3.3487    0.1126 H   0  0  0  0  0  0  0  0  0  0  0  0
  1  2  1  0
  1  4  1  0
  2  3  2  3
  3  5  1  0
  3 12  1  0
  6  7  1  0
  6 13  1  0
  6 14  1  0
  7  8  1  0
  7 15  1  0
  7 16  1  0
  8  9  1  0
  8 17  1  0
  8 18  1  0
  9 10  1  0
 10 11  2  0
 10 19  1  0
M  RAD  1   6   2
M  END
>  <reaction>  (8) 
rmg_rxn_15439

>  <mol_properties>  (8) 
{"1": {"label": "*4", "atom_type": "N3d"}, "2": {"label": "*3", "atom_type": "Cd"}, "5": {"label": "*1", "atom_type": "Cs"}, "6": {"label": "*0", "atom_type": "Cs"}, "11": {"label": "*2", "atom_type": "H0"}}

>  <type>  (8) 
unop_4

>  <geom_source>  (8) 
Heuristics

$$$$

     RDKit          3D

 19 17  0  0  0  0  0  0  0  0999 V2000
    3.4180    0.5005   -0.9297 O   0  0  0  0  0  0  0  0  0  0  0  0
    2.0788    0.7082   -0.6641 N   0  0  0  0  0  0  0  0  0  0  0  0
    1.9049    1.5826    0.2296 C   0  0  0  0  0  0  0  0  0  0  0  0
    3.4071   -0.1732   -1.6124 H   0  0  0  0  0  0  0  0  0  0  0  0
    2.7312    2.0962    0.7165 H   0  0  0  0  0  0  0  0  0  0  0  0
   -0.1788    1.2795    1.7704 C   0  0  0  0  0  3  0  0  0  0  0  0
   -1.4649    1.2908    0.9548 C   0  0  0  0  0  0  0  0  0  0  0  0
   -1.5207    0.2075   -0.0984 C   0  0  0  0  0  0  0  0  0  0  0  0
   -1.5211   -1.0668    0.5670 O   0  0  0  0  0  0  0  0  0  0  0  0
   -1.5211   -2.1413   -0.2139 C   0  0  0  0  0  0  0  0  0  0  0  0
   -1.5211   -2.1413   -1.4099 O   0  0  0  0  0  0  0  0  0  0  0  0
    0.8681    1.4318    0.9962 H   0  0  0  0  0  0  0  0  0  0  0  0
   -0.0646    0.3379    2.3083 H   0  0  0  0  0  0  0  0  0  0  0  0
   -0.1745    2.0881    2.5020 H   0  0  0  0  0  0  0  0  0  0  0  0
   -1.5725    2.2486    0.4389 H   0  0  0  0  0  0  0  0  0  0  0  0
   -2.3316    1.1905    1.6129 H   0  0  0  0  0  0  0  0  0  0  0  0
   -2.4229    0.2824   -0.7078 H   0  0  0  0  0  0  0  0  0  0  0  0
   -0.6585    0.2524   -0.7679 H   0  0  0  0  0  0  0  0  0  0  0  0
   -1.5216   -3.0453    0.4103 H   0  0  0  0  0  0  0  0  0  0  0  0
  1  2  1  0
  1  4  1  0
  2  3  2  3
  3  5  1  0
  3 12  1  0
  6  7  1  0
  6 13  1  0
  6 14  1  0
  7  8  1  0
  7 15  1  0
  7 16  1  0
  8  9  1  0
  8 17  1  0
  8 18  1  0
  9 10  1  0
 10 11  2  0
 10 19  1  0
M  RAD  1   6   2
M  END
>  <reaction>  (9) 
rmg_rxn_15439

>  <mol_properties>  (9) 
{"1": {"label": "*4", "atom_type": "N3d"}, "2": {"label": "*3", "atom_type": "Cd"}, "5": {"label": "*1", "atom_type": "Cs"}, "6": {"label": "*0", "atom_type": "Cs"}, "11": {"label": "*2", "atom_type": "H0"}}

>  <type>  (9) 
unop_5

>  <geom_source>  (9) 
Heuristics

$$$$

     RDKit          3D

 19 17  0  0  0  0  0  0  0  0999 V2000
    3.8812    1.4980   -0.3628 O   0  0  0  0  0  0  0  0  0  0  0  0
    2.8488    1.3322    0.5393 N   0  0  0  0  0  0  0  0  0  0  0  0
    1.7217    1.3257   -0.0293 C   0  0  0  0  0  0  0  0  0  0  0  0
    4.6642    1.4846    0.1911 H   0  0  0  0  0  0  0  0  0  0  0  0
    1.6067    1.4394   -1.1051 H   0  0  0  0  0  0  0  0  0  0  0  0
   -0.3619    1.0226    1.5115 C   0  0  0  0  0  3  0  0  0  0  0  0
   -1.6481    1.0339    0.6959 C   0  0  0  0  0  0  0  0  0  0  0  0
   -1.7038   -0.0494   -0.3573 C   0  0  0  0  0  0  0  0  0  0  0  0
   -1.7043   -1.3237    0.3082 O   0  0  0  0  0  0  0  0  0  0  0  0
   -1.7043   -2.3982   -0.4728 C   0  0  0  0  0  0  0  0  0  0  0  0
   -1.7043   -2.3982   -1.6688 O   0  0  0  0  0  0  0  0  0  0  0  0
    0.6850    1.1749    0.7374 H   0  0  0  0  0  0  0  0  0  0  0  0
   -0.2478    0.0811    2.0494 H   0  0  0  0  0  0  0  0  0  0  0  0
   -0.3576    1.8312    2.2432 H   0  0  0  0  0  0  0  0  0  0  0  0
   -1.7556    1.9918    0.1800 H   0  0  0  0  0  0  0  0  0  0  0  0
   -2.5148    0.9336    1.3541 H   0  0  0  0  0  0  0  0  0  0  0  0
   -2.6060    0.0255   -0.9667 H   0  0  0  0  0  0  0  0  0  0  0  0
   -0.8417   -0.0045   -1.0267 H   0  0  0  0  0  0  0  0  0  0  0  0
   -1.7048   -3.3021    0.1514 H   0  0  0  0  0  0  0  0  0  0  0  0
  1  2  1  0
  1  4  1  0
  2  3  2  3
  3  5  1  0
  3 12  1  0
  6  7  1  0
  6 13  1  0
  6 14  1  0
  7  8  1  0
  7 15  1  0
  7 16  1  0
  8  9  1  0
  8 17  1  0
  8 18  1  0
  9 10  1  0
 10 11  2  0
 10 19  1  0
M  RAD  1   6   2
M  END
>  <reaction>  (10) 
rmg_rxn_15439

>  <mol_properties>  (10) 
{"1": {"label": "*4", "atom_type": "N3d"}, "2": {"label": "*3", "atom_type": "Cd"}, "5": {"label": "*1", "atom_type": "Cs"}, "6": {"label": "*0", "atom_type": "Cs"}, "11": {"label": "*2", "atom_type": "H0"}}

>  <type>  (10) 
unop_6

>  <geom_source>  (10) 
Heuristics

$$$$

     RDKit          3D

 19 17  0  0  0  0  0  0  0  0999 V2000
    3.7187    0.5923   -0.3534 O   0  0  0  0  0  0  0  0  0  0  0  0
    2.3390    0.5356   -0.3695 N   0  0  0  0  0  0  0  0  0  0  0  0
    1.8179    1.5895    0.0899 C   0  0  0  0  0  0  0  0  0  0  0  0
    3.9800   -0.2540   -0.7214 H   0  0  0  0  0  0  0  0  0  0  0  0
    2.4101    2.4283    0.4495 H   0  0  0  0  0  0  0  0  0  0  0  0
   -0.2658    1.2864    1.6307 C   0  0  0  0  0  3  0  0  0  0  0  0
   -1.5520    1.2978    0.8152 C   0  0  0  0  0  0  0  0  0  0  0  0
   -1.6077    0.2144   -0.2381 C   0  0  0  0  0  0  0  0  0  0  0  0
   -1.6081   -1.0598    0.4274 O   0  0  0  0  0  0  0  0  0  0  0  0
   -1.6081   -2.1344   -0.3536 C   0  0  0  0  0  0  0  0  0  0  0  0
   -1.6081   -2.1344   -1.5496 O   0  0  0  0  0  0  0  0  0  0  0  0
    0.7811    1.4387    0.8566 H   0  0  0  0  0  0  0  0  0  0  0  0
   -0.1517    0.3449    2.1686 H   0  0  0  0  0  0  0  0  0  0  0  0
   -0.2615    2.0950    2.3624 H   0  0  0  0  0  0  0  0  0  0  0  0
   -1.6595    2.2556    0.2992 H   0  0  0  0  0  0  0  0  0  0  0  0
   -2.4186    1.1974    1.4733 H   0  0  0  0  0  0  0  0  0  0  0  0
   -2.5099    0.2893   -0.8475 H   0  0  0  0  0  0  0  0  0  0  0  0
   -0.7455    0.2594   -0.9075 H   0  0  0  0  0  0  0  0  0  0  0  0
   -1.6086   -3.0383    0.2707 H   0  0  0  0  0  0  0  0  0  0  0  0
  1  2  1  0
  1  4  1  0
  2  3  2  3
  3  5  1  0
  3 12  1  0
  6  7  1  0
  6 13  1  0
  6 14  1  0
  7  8  1  0
  7 15  1  0
  7 16  1  0
  8  9  1  0
  8 17  1  0
  8 18  1  0
  9 10  1  0
 10 11  2  0
 10 19  1  0
M  RAD  1   6   2
M  END
>  <reaction>  (11) 
rmg_rxn_15439

>  <mol_properties>  (11) 
{"1": {"label": "*4", "atom_type": "N3d"}, "2": {"label": "*3", "atom_type": "Cd"}, "5": {"label": "*1", "atom_type": "Cs"}, "6": {"label": "*0", "atom_type": "Cs"}, "11": {"label": "*2", "atom_type": "H0"}}

>  <type>  (11) 
unop_7

>  <geom_source>  (11) 
Heuristics

$$$$

     RDKit          3D

 19 17  0  0  0  0  0  0  0  0999 V2000
    1.9980   -1.8317    0.0260 O   0  0  0  0  0  0  0  0  0  0  0  0
    1.6334   -0.4954   -0.0273 N   0  0  0  0  0  0  0  0  0  0  0  0
    2.3881    0.4731   -0.0985 C   0  0  0  0  0  3  0  0  0  0  0  0
    1.1360   -2.2839    0.0629 H   0  0  0  0  0  0  0  0  0  0  0  0
    3.4662    0.5676   -0.1266 H   0  0  0  0  0  0  0  0  0  0  0  0
    0.7183    2.4891    0.0493 C   0  0  0  0  0  0  0  0  0  0  0  0
   -0.5257    1.7678    0.5080 C   0  0  0  0  0  0  0  0  0  0  0  0
   -1.1045    0.8892   -0.6008 C   0  0  0  0  0  0  0  0  0  0  0  0
   -2.1943    0.0970   -0.1033 O   0  0  0  0  0  0  0  0  0  0  0  0
   -1.9758   -1.1647    0.1848 C   0  0  0  0  0  0  0  0  0  0  0  0
   -0.9600   -1.7889    0.0628 O   0  0  0  0  0  0  0  0  0  0  0  0
    1.6404    1.5723   -0.0721 H   0  0  0  0  0  0  0  0  0  0  0  0
    1.0914    3.1875    0.7892 H   0  0  0  0  0  0  0  0  0  0  0  0
    0.6124    2.9583   -0.9220 H   0  0  0  0  0  0  0  0  0  0  0  0
   -1.2919    2.4789    0.8363 H   0  0  0  0  0  0  0  0  0  0  0  0
   -0.2795    1.1306    1.3608 H   0  0  0  0  0  0  0  0  0  0  0  0
   -1.5220    1.4995   -1.4049 H   0  0  0  0  0  0  0  0  0  0  0  0
   -0.3285    0.2255   -0.9893 H   0  0  0  0  0  0  0  0  0  0  0  0
   -2.9152   -1.6032    0.5663 H   0  0  0  0  0  0  0  0  0  0  0  0
  1  2  1  0
  1  4  1  0
  2  3  2  3
  3  5  1  0
  6  7  1  0
  6 12  1  0
  6 13  1  0
  6 14  1  0
  7  8  1  0
  7 15  1  0
  7 16  1  0
  8  9  1  0
  8 17  1  0
  8 18  1  0
  9 10  1  0
 10 11  2  0
 10 19  1  0
M  RAD  1   3   2
M  END
>  <reaction>  (12) 
rmg_rxn_15439

>  <mol_properties>  (12) 
{"1": {"label": "*4", "atom_type": "N3d"}, "2": {"label": "*3", "atom_type": "Cd"}, "5": {"label": "*1", "atom_type": "Cs"}, "6": {"label": "*0", "atom_type": "Cs"}, "11": {"label": "*2", "atom_type": "H0"}}

>  <type>  (12) 
unop_8

>  <geom_source>  (12) 
Heuristics

$$$$

     RDKit          3D

 19 17  0  0  0  0  0  0  0  0999 V2000
    3.8961    1.0514    0.0160 O   0  0  0  0  0  0  0  0  0  0  0  0
    2.6017    0.5712   -0.0133 N   0  0  0  0  0  0  0  0  0  0  0  0
    1.7520    1.5048   -0.0218 C   0  0  0  0  0  0  0  0  0  0  0  0
    4.4288    0.2538    0.0195 H   0  0  0  0  0  0  0  0  0  0  0  0
    2.0345    2.5553   -0.0073 H   0  0  0  0  0  0  0  0  0  0  0  0
   -0.3317    1.2016    1.5190 C   0  0  0  0  0  3  0  0  0  0  0  0
   -1.6178    1.2130    0.7034 C   0  0  0  0  0  0  0  0  0  0  0  0
   -1.6736    0.1296   -0.3498 C   0  0  0  0  0  0  0  0  0  0  0  0
   -1.6740   -1.1446    0.3156 O   0  0  0  0  0  0  0  0  0  0  0  0
   -1.6740   -2.2191   -0.4653 C   0  0  0  0  0  0  0  0  0  0  0  0
   -1.6740   -2.2191   -1.6614 O   0  0  0  0  0  0  0  0  0  0  0  0
    0.7153    1.3539    0.7448 H   0  0  0  0  0  0  0  0  0  0  0  0
   -0.2175    0.2601    2.0569 H   0  0  0  0  0  0  0  0  0  0  0  0
   -0.3273    2.0103    2.2506 H   0  0  0  0  0  0  0  0  0  0  0  0
   -1.7254    2.1708    0.1875 H   0  0  0  0  0  0  0  0  0  0  0  0
   -2.4845    1.1126    1.3615 H   0  0  0  0  0  0  0  0  0  0  0  0
   -2.5758    0.2046   -0.9592 H   0  0  0  0  0  0  0  0  0  0  0  0
   -0.8114    0.1746   -1.0193 H   0  0  0  0  0  0  0  0  0  0  0  0
   -1.6745   -3.1231    0.1589 H   0  0  0  0  0  0  0  0  0  0  0  0
  1  2  1  0
  1  4  1  0
  2  3  2  3
  3  5  1  0
  3 12  1  0
  6  7  1  0
  6 13  1  0
  6 14  1  0
  7  8  1  0
  7 15  1  0
  7 16  1  0
  8  9  1  0
  8 17  1  0
  8 18  1  0
  9 10  1  0
 10 11  2  0
 10 19  1  0
M  RAD  1   6   2
M  END
>  <reaction>  (13) 
rmg_rxn_15439

>  <mol_properties>  (13) 
{"1": {"label": "*4", "atom_type": "N3d"}, "2": {"label": "*3", "atom_type": "Cd"}, "5": {"label": "*1", "atom_type": "Cs"}, "6": {"label": "*0", "atom_type": "Cs"}, "11": {"label": "*2", "atom_type": "H0"}}

>  <type>  (13) 
unop_9

>  <geom_source>  (13) 
Heuristics

$$$$

     RDKit          3D

 19 17  0  0  0  0  0  0  0  0999 V2000
    3.6089    2.3521   -0.1557 O   0  0  0  0  0  0  0  0  0  0  0  0
    2.2326    2.2412   -0.1779 N   0  0  0  0  0  0  0  0  0  0  0  0
    1.8512    1.0559    0.0300 C   0  0  0  0  0  0  0  0  0  0  0  0
    3.7592    3.2844   -0.3239 H   0  0  0  0  0  0  0  0  0  0  0  0
    2.5469    0.2377    0.2034 H   0  0  0  0  0  0  0  0  0  0  0  0
   -0.2325    0.7528    1.5708 C   0  0  0  0  0  3  0  0  0  0  0  0
   -1.5187    0.7641    0.7552 C   0  0  0  0  0  0  0  0  0  0  0  0
   -1.5744   -0.3192   -0.2980 C   0  0  0  0  0  0  0  0  0  0  0  0
   -1.5748   -1.5934    0.3674 O   0  0  0  0  0  0  0  0  0  0  0  0
   -1.5748   -2.6680   -0.4135 C   0  0  0  0  0  0  0  0  0  0  0  0
   -1.5748   -2.6680   -1.6095 O   0  0  0  0  0  0  0  0  0  0  0  0
    0.8144    0.9051    0.7966 H   0  0  0  0  0  0  0  0  0  0  0  0
   -0.1184   -0.1887    2.1087 H   0  0  0  0  0  0  0  0  0  0  0  0
   -0.2282    1.5614    2.3024 H   0  0  0  0  0  0  0  0  0  0  0  0
   -1.6262    1.7220    0.2393 H   0  0  0  0  0  0  0  0  0  0  0  0
   -2.3853    0.6638    1.4134 H   0  0  0  0  0  0  0  0  0  0  0  0
   -2.4766   -0.2443   -0.9074 H   0  0  0  0  0  0  0  0  0  0  0  0
   -0.7122   -0.2742   -0.9675 H   0  0  0  0  0  0  0  0  0  0  0  0
   -1.5753   -3.5719    0.2107 H   0  0  0  0  0  0  0  0  0  0  0  0
  1  2  1  0
  1  4  1  0
  2  3  2  3
  3  5  1  0
  3 12  1  0
  6  7  1  0
  6 13  1  0
  6 14  1  0
  7  8  1  0
  7 15  1  0
  7 16  1  0
  8  9  1  0
  8 17  1  0
  8 18  1  0
  9 10  1  0
 10 11  2  0
 10 19  1  0
M  RAD  1   6   2
M  END
>  <reaction>  (14) 
rmg_rxn_15439

>  <mol_properties>  (14) 
{"1": {"label": "*4", "atom_type": "N3d"}, "2": {"label": "*3", "atom_type": "Cd"}, "5": {"label": "*1", "atom_type": "Cs"}, "6": {"label": "*0", "atom_type": "Cs"}, "11": {"label": "*2", "atom_type": "H0"}}

>  <type>  (14) 
unop_10

>  <geom_source>  (14) 
Heuristics

$$$$

     RDKit          3D

 19 17  0  0  0  0  0  0  0  0999 V2000
    1.9970   -1.8325   -0.0270 O   0  0  0  0  0  0  0  0  0  0  0  0
    1.6329   -0.4962    0.0275 N   0  0  0  0  0  0  0  0  0  0  0  0
    2.3882    0.4720    0.0985 C   0  0  0  0  0  3  0  0  0  0  0  0
    1.1348   -2.2844   -0.0631 H   0  0  0  0  0  0  0  0  0  0  0  0
    3.4663    0.5656    0.1252 H   0  0  0  0  0  0  0  0  0  0  0  0
    0.7197    2.4890   -0.0484 C   0  0  0  0  0  0  0  0  0  0  0  0
   -0.5246    1.7687   -0.5079 C   0  0  0  0  0  0  0  0  0  0  0  0
   -1.1042    0.8898    0.6002 C   0  0  0  0  0  0  0  0  0  0  0  0
   -2.1940    0.0981    0.1019 O   0  0  0  0  0  0  0  0  0  0  0  0
   -1.9762   -1.1641   -0.1846 C   0  0  0  0  0  0  0  0  0  0  0  0
   -0.9610   -1.7890   -0.0610 O   0  0  0  0  0  0  0  0  0  0  0  0
    1.6412    1.5715    0.0729 H   0  0  0  0  0  0  0  0  0  0  0  0
    0.6137    2.9578    0.9230 H   0  0  0  0  0  0  0  0  0  0  0  0
    1.0936    3.1874   -0.7878 H   0  0  0  0  0  0  0  0  0  0  0  0
   -0.2785    1.1318   -1.3611 H   0  0  0  0  0  0  0  0  0  0  0  0
   -1.2903    2.4803   -0.8360 H   0  0  0  0  0  0  0  0  0  0  0  0
   -0.3286    0.2257    0.9887 H   0  0  0  0  0  0  0  0  0  0  0  0
   -1.5219    1.4999    1.4044 H   0  0  0  0  0  0  0  0  0  0  0  0
   -2.9156   -1.6023   -0.5666 H   0  0  0  0  0  0  0  0  0  0  0  0
  1  2  1  0
  1  4  1  0
  2  3  2  3
  3  5  1  0
  6  7  1  0
  6 12  1  0
  6 13  1  0
  6 14  1  0
  7  8  1  0
  7 15  1  0
  7 16  1  0
  8  9  1  0
  8 17  1  0
  8 18  1  0
  9 10  1  0
 10 11  2  0
 10 19  1  0
M  RAD  1   3   2
M  END
>  <reaction>  (15) 
rmg_rxn_15439

>  <mol_properties>  (15) 
{"1": {"label": "*4", "atom_type": "N3d"}, "2": {"label": "*3", "atom_type": "Cd"}, "5": {"label": "*1", "atom_type": "Cs"}, "6": {"label": "*0", "atom_type": "Cs"}, "11": {"label": "*2", "atom_type": "H0"}}

>  <type>  (15) 
unop_11

>  <geom_source>  (15) 
Heuristics

$$$$

     RDKit          3D

 19 17  0  0  0  0  0  0  0  0999 V2000
    3.1187    0.8744   -1.4353 O   0  0  0  0  0  0  0  0  0  0  0  0
    1.8840    1.0315   -0.8372 N   0  0  0  0  0  0  0  0  0  0  0  0
    1.9830    1.4744    0.3407 C   0  0  0  0  0  0  0  0  0  0  0  0
    2.9019    0.5389   -2.3073 H   0  0  0  0  0  0  0  0  0  0  0  0
    2.9413    1.6975    0.8050 H   0  0  0  0  0  0  0  0  0  0  0  0
   -0.1007    1.1713    1.8815 C   0  0  0  0  0  3  0  0  0  0  0  0
   -1.3868    1.1826    1.0660 C   0  0  0  0  0  0  0  0  0  0  0  0
   -1.4426    0.0993    0.0127 C   0  0  0  0  0  0  0  0  0  0  0  0
   -1.4430   -1.1750    0.6782 O   0  0  0  0  0  0  0  0  0  0  0  0
   -1.4430   -2.2495   -0.1028 C   0  0  0  0  0  0  0  0  0  0  0  0
   -1.4430   -2.2495   -1.2988 O   0  0  0  0  0  0  0  0  0  0  0  0
    0.9462    1.3236    1.1074 H   0  0  0  0  0  0  0  0  0  0  0  0
    0.0134    0.2297    2.4194 H   0  0  0  0  0  0  0  0  0  0  0  0
   -0.0964    1.9799    2.6132 H   0  0  0  0  0  0  0  0  0  0  0  0
   -1.4944    2.1405    0.5500 H   0  0  0  0  0  0  0  0  0  0  0  0
   -2.2535    1.0823    1.7241 H   0  0  0  0  0  0  0  0  0  0  0  0
   -2.3448    0.1742   -0.5967 H   0  0  0  0  0  0  0  0  0  0  0  0
   -0.5804    0.1442   -0.6567 H   0  0  0  0  0  0  0  0  0  0  0  0
   -1.4435   -3.1534    0.5215 H   0  0  0  0  0  0  0  0  0  0  0  0
  1  2  1  0
  1  4  1  0
  2  3  2  3
  3  5  1  0
  3 12  1  0
  6  7  1  0
  6 13  1  0
  6 14  1  0
  7  8  1  0
  7 15  1  0
  7 16  1  0
  8  9  1  0
  8 17  1  0
  8 18  1  0
  9 10  1  0
 10 11  2  0
 10 19  1  0
M  RAD  1   6   2
M  END
>  <reaction>  (16) 
rmg_rxn_15439

>  <mol_properties>  (16) 
{"1": {"label": "*4", "atom_type": "N3d"}, "2": {"label": "*3", "atom_type": "Cd"}, "5": {"label": "*1", "atom_type": "Cs"}, "6": {"label": "*0", "atom_type": "Cs"}, "11": {"label": "*2", "atom_type": "H0"}}

>  <type>  (16) 
unop_12

>  <geom_source>  (16) 
Heuristics

$$$$

     RDKit          3D

 19 17  0  0  0  0  0  0  0  0999 V2000
    3.2912    2.5314   -0.7016 O   0  0  0  0  0  0  0  0  0  0  0  0
    1.9915    2.1073   -0.5070 N   0  0  0  0  0  0  0  0  0  0  0  0
    1.9386    1.0425    0.1689 C   0  0  0  0  0  0  0  0  0  0  0  0
    3.1883    3.3327   -1.2186 H   0  0  0  0  0  0  0  0  0  0  0  0
    2.8283    0.5394    0.5416 H   0  0  0  0  0  0  0  0  0  0  0  0
   -0.1451    0.7394    1.7097 C   0  0  0  0  0  3  0  0  0  0  0  0
   -1.4312    0.7507    0.8941 C   0  0  0  0  0  0  0  0  0  0  0  0
   -1.4870   -0.3326   -0.1591 C   0  0  0  0  0  0  0  0  0  0  0  0
   -1.4874   -1.6069    0.5064 O   0  0  0  0  0  0  0  0  0  0  0  0
   -1.4874   -2.6814   -0.2746 C   0  0  0  0  0  0  0  0  0  0  0  0
   -1.4874   -2.6814   -1.4706 O   0  0  0  0  0  0  0  0  0  0  0  0
    0.9019    0.8917    0.9356 H   0  0  0  0  0  0  0  0  0  0  0  0
   -0.0309   -0.2022    2.2476 H   0  0  0  0  0  0  0  0  0  0  0  0
   -0.1407    1.5480    2.4414 H   0  0  0  0  0  0  0  0  0  0  0  0
   -1.5388    1.7085    0.3782 H   0  0  0  0  0  0  0  0  0  0  0  0
   -2.2979    0.6504    1.5523 H   0  0  0  0  0  0  0  0  0  0  0  0
   -2.3892   -0.2577   -0.7685 H   0  0  0  0  0  0  0  0  0  0  0  0
   -0.6248   -0.2877   -0.8285 H   0  0  0  0  0  0  0  0  0  0  0  0
   -1.4879   -3.5854    0.3496 H   0  0  0  0  0  0  0  0  0  0  0  0
  1  2  1  0
  1  4  1  0
  2  3  2  3
  3  5  1  0
  3 12  1  0
  6  7  1  0
  6 13  1  0
  6 14  1  0
  7  8  1  0
  7 15  1  0
  7 16  1  0
  8  9  1  0
  8 17  1  0
  8 18  1  0
  9 10  1  0
 10 11  2  0
 10 19  1  0
M  RAD  1   6   2
M  END
>  <reaction>  (17) 
rmg_rxn_15439

>  <mol_properties>  (17) 
{"1": {"label": "*4", "atom_type": "N3d"}, "2": {"label": "*3", "atom_type": "Cd"}, "5": {"label": "*1", "atom_type": "Cs"}, "6": {"label": "*0", "atom_type": "Cs"}, "11": {"label": "*2", "atom_type": "H0"}}

>  <type>  (17) 
unop_13

>  <geom_source>  (17) 
Heuristics

$$$$

     RDKit          3D

 19 17  0  0  0  0  0  0  0  0999 V2000
    3.9082    1.5635   -0.0439 O   0  0  0  0  0  0  0  0  0  0  0  0
    2.7956    0.8350    0.3280 N   0  0  0  0  0  0  0  0  0  0  0  0
    1.7241    1.3804   -0.0568 C   0  0  0  0  0  0  0  0  0  0  0  0
    4.6380    1.0474    0.3043 H   0  0  0  0  0  0  0  0  0  0  0  0
    1.7086    2.3145   -0.6142 H   0  0  0  0  0  0  0  0  0  0  0  0
   -0.3596    1.0773    1.4840 C   0  0  0  0  0  3  0  0  0  0  0  0
   -1.6457    1.0886    0.6684 C   0  0  0  0  0  0  0  0  0  0  0  0
   -1.7015    0.0053   -0.3848 C   0  0  0  0  0  0  0  0  0  0  0  0
   -1.7019   -1.2690    0.2807 O   0  0  0  0  0  0  0  0  0  0  0  0
   -1.7019   -2.3435   -0.5003 C   0  0  0  0  0  0  0  0  0  0  0  0
   -1.7019   -2.3435   -1.6963 O   0  0  0  0  0  0  0  0  0  0  0  0
    0.6874    1.2296    0.7099 H   0  0  0  0  0  0  0  0  0  0  0  0
   -0.2454    0.1358    2.0219 H   0  0  0  0  0  0  0  0  0  0  0  0
   -0.3552    1.8859    2.2157 H   0  0  0  0  0  0  0  0  0  0  0  0
   -1.7533    2.0465    0.1525 H   0  0  0  0  0  0  0  0  0  0  0  0
   -2.5124    0.9883    1.3266 H   0  0  0  0  0  0  0  0  0  0  0  0
   -2.6037    0.0802   -0.9942 H   0  0  0  0  0  0  0  0  0  0  0  0
   -0.8393    0.0502   -1.0542 H   0  0  0  0  0  0  0  0  0  0  0  0
   -1.7024   -3.2474    0.1239 H   0  0  0  0  0  0  0  0  0  0  0  0
  1  2  1  0
  1  4  1  0
  2  3  2  3
  3  5  1  0
  3 12  1  0
  6  7  1  0
  6 13  1  0
  6 14  1  0
  7  8  1  0
  7 15  1  0
  7 16  1  0
  8  9  1  0
  8 17  1  0
  8 18  1  0
  9 10  1  0
 10 11  2  0
 10 19  1  0
M  RAD  1   6   2
M  END
>  <reaction>  (18) 
rmg_rxn_15439

>  <mol_properties>  (18) 
{"1": {"label": "*4", "atom_type": "N3d"}, "2": {"label": "*3", "atom_type": "Cd"}, "5": {"label": "*1", "atom_type": "Cs"}, "6": {"label": "*0", "atom_type": "Cs"}, "11": {"label": "*2", "atom_type": "H0"}}

>  <type>  (18) 
unop_14

>  <geom_source>  (18) 
Heuristics

$$$$

     RDKit          3D

 19 17  0  0  0  0  0  0  0  0999 V2000
    2.9632    1.5783   -1.5884 O   0  0  0  0  0  0  0  0  0  0  0  0
    1.7971    1.4243   -0.8648 N   0  0  0  0  0  0  0  0  0  0  0  0
    2.0216    1.2995    0.3711 C   0  0  0  0  0  0  0  0  0  0  0  0
    2.6541    1.6606   -2.4927 H   0  0  0  0  0  0  0  0  0  0  0  0
    3.0258    1.3151    0.7895 H   0  0  0  0  0  0  0  0  0  0  0  0
   -0.0620    0.9963    1.9119 C   0  0  0  0  0  3  0  0  0  0  0  0
   -1.3482    1.0077    1.0963 C   0  0  0  0  0  0  0  0  0  0  0  0
   -1.4039   -0.0757    0.0431 C   0  0  0  0  0  0  0  0  0  0  0  0
   -1.4044   -1.3499    0.7086 O   0  0  0  0  0  0  0  0  0  0  0  0
   -1.4044   -2.4244   -0.0724 C   0  0  0  0  0  0  0  0  0  0  0  0
   -1.4044   -2.4244   -1.2684 O   0  0  0  0  0  0  0  0  0  0  0  0
    0.9849    1.1486    1.1378 H   0  0  0  0  0  0  0  0  0  0  0  0
    0.0521    0.0548    2.4498 H   0  0  0  0  0  0  0  0  0  0  0  0
   -0.0577    1.8050    2.6436 H   0  0  0  0  0  0  0  0  0  0  0  0
   -1.4557    1.9655    0.5804 H   0  0  0  0  0  0  0  0  0  0  0  0
   -2.2149    0.9073    1.7545 H   0  0  0  0  0  0  0  0  0  0  0  0
   -2.3061   -0.0007   -0.5663 H   0  0  0  0  0  0  0  0  0  0  0  0
   -0.5418   -0.0307   -0.6263 H   0  0  0  0  0  0  0  0  0  0  0  0
   -1.4049   -3.3284    0.5518 H   0  0  0  0  0  0  0  0  0  0  0  0
  1  2  1  0
  1  4  1  0
  2  3  2  3
  3  5  1  0
  3 12  1  0
  6  7  1  0
  6 13  1  0
  6 14  1  0
  7  8  1  0
  7 15  1  0
  7 16  1  0
  8  9  1  0
  8 17  1  0
  8 18  1  0
  9 10  1  0
 10 11  2  0
 10 19  1  0
M  RAD  1   6   2
M  END
>  <reaction>  (19) 
rmg_rxn_15439

>  <mol_properties>  (19) 
{"1": {"label": "*4", "atom_type": "N3d"}, "2": {"label": "*3", "atom_type": "Cd"}, "5": {"label": "*1", "atom_type": "Cs"}, "6": {"label": "*0", "atom_type": "Cs"}, "11": {"label": "*2", "atom_type": "H0"}}

>  <type>  (19) 
unop_15

>  <geom_source>  (19) 
Heuristics

$$$$

     RDKit          3D

 19 17  0  0  0  0  0  0  0  0999 V2000
   -2.9151    0.1534   -0.4174 O   0  0  0  0  0  0  0  0  0  0  0  0
    4.0995    1.5940   -0.3742 O   0  0  0  0  0  0  0  0  0  0  0  0
   -2.1019    2.1635    0.3996 O   0  0  0  0  0  0  0  0  0  0  0  0
    2.9004    0.9644   -0.6130 N   0  0  0  0  0  0  0  0  0  0  0  0
   -0.9389   -0.8954    0.5320 C   0  0  0  0  0  0  0  0  0  0  0  0
   -1.6378   -0.3974   -0.7340 C   0  0  0  0  0  0  0  0  0  0  0  0
    0.4097   -1.5154    0.1931 C   0  0  0  0  0  3  0  0  0  0  0  0
   -3.0871    1.4148    0.1614 C   0  0  0  0  0  0  0  0  0  0  0  0
    2.4722    0.0440    0.1862 C   0  0  0  0  0  0  0  0  0  0  0  0
   -0.7755   -0.0469    1.2295 H   0  0  0  0  0  0  0  0  0  0  0  0
   -1.5761   -1.6527    1.0380 H   0  0  0  0  0  0  0  0  0  0  0  0
   -1.0120    0.3607   -1.2548 H   0  0  0  0  0  0  0  0  0  0  0  0
   -1.7905   -1.2523   -1.4269 H   0  0  0  0  0  0  0  0  0  0  0  0
    0.2749   -2.4139   -0.4462 H   0  0  0  0  0  0  0  0  0  0  0  0
    0.9369   -1.8088    1.1253 H   0  0  0  0  0  0  0  0  0  0  0  0
    3.0505   -0.2450    1.0549 H   0  0  0  0  0  0  0  0  0  0  0  0
    1.3480   -0.5366   -0.0499 H   0  0  0  0  0  0  0  0  0  0  0  0
   -4.0846    1.7558    0.4019 H   0  0  0  0  0  0  0  0  0  0  0  0
    4.4275    2.3140   -1.0054 H   0  0  0  0  0  0  0  0  0  0  0  0
  1  6  1  0
  1  8  1  0
  2  4  1  0
  2 19  1  0
  3  8  2  0
  4  9  2  3
  5  7  1  0
  5  6  1  0
  5 10  1  0
  5 11  1  0
  6 12  1  0
  6 13  1  0
  7 14  1  0
  7 15  1  0
  8 18  1  0
  9 16  1  0
  9 17  1  0
M  RAD  1   7   2
M  END
>  <reaction>  (20) 
rmg_rxn_15439

>  <mol_properties>  (20) 
{"1": {"label": "*4", "atom_type": "N3d"}, "2": {"label": "*3", "atom_type": "Cd"}, "5": {"label": "*1", "atom_type": "Cs"}, "6": {"label": "*0", "atom_type": "Cs"}, "11": {"label": "*2", "atom_type": "H0"}}

>  <type>  (20) 
unop_16

>  <geom_source>  (20) 
AutoTST

$$$$

     RDKit          3D

 19 17  0  0  0  0  0  0  0  0999 V2000
    3.0332    2.2446   -1.2813 O   0  0  0  0  0  0  0  0  0  0  0  0
    1.8354    1.8088   -0.7499 N   0  0  0  0  0  0  0  0  0  0  0  0
    2.0043    1.1322    0.3023 C   0  0  0  0  0  0  0  0  0  0  0  0
    2.7649    2.7353   -2.0606 H   0  0  0  0  0  0  0  0  0  0  0  0
    2.9891    0.9314    0.7189 H   0  0  0  0  0  0  0  0  0  0  0  0
   -0.0793    0.8290    1.8431 C   0  0  0  0  0  3  0  0  0  0  0  0
   -1.3655    0.8404    1.0275 C   0  0  0  0  0  0  0  0  0  0  0  0
   -1.4212   -0.2430   -0.0257 C   0  0  0  0  0  0  0  0  0  0  0  0
   -1.4217   -1.5172    0.6397 O   0  0  0  0  0  0  0  0  0  0  0  0
   -1.4217   -2.5917   -0.1412 C   0  0  0  0  0  0  0  0  0  0  0  0
   -1.4217   -2.5917   -1.3372 O   0  0  0  0  0  0  0  0  0  0  0  0
    0.9676    0.9813    1.0689 H   0  0  0  0  0  0  0  0  0  0  0  0
    0.0348   -0.1125    2.3810 H   0  0  0  0  0  0  0  0  0  0  0  0
   -0.0750    1.6377    2.5747 H   0  0  0  0  0  0  0  0  0  0  0  0
   -1.4730    1.7982    0.5116 H   0  0  0  0  0  0  0  0  0  0  0  0
   -2.2322    0.7400    1.6857 H   0  0  0  0  0  0  0  0  0  0  0  0
   -2.3234   -0.1681   -0.6351 H   0  0  0  0  0  0  0  0  0  0  0  0
   -0.5591   -0.1980   -0.6952 H   0  0  0  0  0  0  0  0  0  0  0  0
   -1.4222   -3.4957    0.4830 H   0  0  0  0  0  0  0  0  0  0  0  0
  1  2  1  0
  1  4  1  0
  2  3  2  3
  3  5  1  0
  3 12  1  0
  6  7  1  0
  6 13  1  0
  6 14  1  0
  7  8  1  0
  7 15  1  0
  7 16  1  0
  8  9  1  0
  8 17  1  0
  8 18  1  0
  9 10  1  0
 10 11  2  0
 10 19  1  0
M  RAD  1   6   2
M  END
>  <reaction>  (21) 
rmg_rxn_15439

>  <mol_properties>  (21) 
{"1": {"label": "*4", "atom_type": "N3d"}, "2": {"label": "*3", "atom_type": "Cd"}, "5": {"label": "*1", "atom_type": "Cs"}, "6": {"label": "*0", "atom_type": "Cs"}, "11": {"label": "*2", "atom_type": "H0"}}

>  <type>  (21) 
unop_17

>  <geom_source>  (21) 
gaussian_log

$$$$
