
     RDKit          3D

 18 17  0  0  0  0  0  0  0  0999 V2000
    2.2026   -0.7213   -0.2612 C   0  0  0  0  0  0  0  0  0  0  0  0
    1.5384    0.2638    0.6915 C   0  0  0  0  0  0  0  0  0  0  0  0
    2.2584    1.5946    0.7694 C   0  0  0  0  0  0  0  0  0  0  0  0
    2.2212    2.2185   -0.4893 O   0  0  0  0  0  0  0  0  0  0  0  0
    2.8988    3.4488   -0.5204 C   0  0  0  0  0  0  0  0  0  0  0  0
    2.7981    4.0296   -1.9118 C   0  0  0  0  0  0  0  0  0  0  0  0
    3.2294   -0.9309    0.0486 H   0  0  0  0  0  0  0  0  0  0  0  0
    2.2338   -0.3181   -1.2734 H   0  0  0  0  0  0  0  0  0  0  0  0
    1.6610   -1.6680   -0.2875 H   0  0  0  0  0  0  0  0  0  0  0  0
    1.4990   -0.1566    1.7002 H   0  0  0  0  0  0  0  0  0  0  0  0
    0.5055    0.4455    0.3835 H   0  0  0  0  0  0  0  0  0  0  0  0
    3.3038    1.4410    1.0808 H   0  0  0  0  0  0  0  0  0  0  0  0
    1.7844    2.2410    1.5226 H   0  0  0  0  0  0  0  0  0  0  0  0
    2.4596    4.1376    0.2164 H   0  0  0  0  0  0  0  0  0  0  0  0
    3.9524    3.3035   -0.2397 H   0  0  0  0  0  0  0  0  0  0  0  0
    1.7543    4.1869   -2.1856 H   0  0  0  0  0  0  0  0  0  0  0  0
    3.2472    3.3545   -2.6411 H   0  0  0  0  0  0  0  0  0  0  0  0
    3.3178    4.9878   -1.9600 H   0  0  0  0  0  0  0  0  0  0  0  0
  1  2  1  0
  1  7  1  0
  1  8  1  0
  1  9  1  0
  2  3  1  0
  2 10  1  0
  2 11  1  0
  3  4  1  0
  3 12  1  0
  3 13  1  0
  4  5  1  0
  5  6  1  0
  5 14  1  0
  5 15  1  0
  6 16  1  0
  6 17  1  0
  6 18  1  0
M  END
>  <reaction>  (1) 
rmg_rxn_311

>  <mol_properties>  (1) 
{"5": {"label": "donator", "atom_type": "Cs"}, "15": {"label": "d_hydrogen", "atom_type": "H0"}}

>  <type>  (1) 
r1h

$$$$

     RDKit          3D

 11 10  0  0  0  0  0  0  0  0999 V2000
   -1.2230    0.3768   -0.0849 C   0  0  0  0  0  0  0  0  0  0  0  0
   -0.0734   -0.5533    0.2746 C   0  0  0  0  0  0  0  0  0  0  0  0
   -0.0853   -1.8426   -0.5372 C   0  0  0  0  0  0  0  0  0  0  0  0
    0.0319   -1.6944   -1.8815 O   0  0  0  0  0  1  0  0  0  0  0  0
   -2.1874   -0.0885    0.1341 H   0  0  0  0  0  0  0  0  0  0  0  0
   -1.1670    1.3099    0.4765 H   0  0  0  0  0  0  0  0  0  0  0  0
   -1.2014    0.6189   -1.1483 H   0  0  0  0  0  0  0  0  0  0  0  0
    0.8834   -0.0518    0.1071 H   0  0  0  0  0  0  0  0  0  0  0  0
   -0.1104   -0.8149    1.3362 H   0  0  0  0  0  0  0  0  0  0  0  0
    0.6767   -2.5604   -0.1861 H   0  0  0  0  0  0  0  0  0  0  0  0
   -1.0401   -2.3871   -0.3877 H   0  0  0  0  0  0  0  0  0  0  0  0
  1  2  1  0
  1  5  1  0
  1  6  1  0
  1  7  1  0
  2  3  1  0
  2  8  1  0
  2  9  1  0
  3  4  1  0
  3 10  1  0
  3 11  1  0
M  RAD  1   4   2
M  END
>  <reaction>  (2) 
rmg_rxn_311

>  <mol_properties>  (2) 
{"3": {"label": "acceptor", "atom_type": "O2s"}}

>  <type>  (2) 
r2

$$$$

     RDKit          3D

 12 11  0  0  0  0  0  0  0  0999 V2000
   -1.4643   -0.2505   -0.5284 C   0  0  0  0  0  0  0  0  0  0  0  0
   -0.3946    0.4302    0.3143 C   0  0  0  0  0  0  0  0  0  0  0  0
   -0.5959    0.2382    1.8102 C   0  0  0  0  0  0  0  0  0  0  0  0
   -0.5633   -1.1190    2.2092 O   0  0  0  0  0  0  0  0  0  0  0  0
   -2.4511    0.1644   -0.3109 H   0  0  0  0  0  0  0  0  0  0  0  0
   -1.5019   -1.3198   -0.3181 H   0  0  0  0  0  0  0  0  0  0  0  0
   -1.2720   -0.1182   -1.5941 H   0  0  0  0  0  0  0  0  0  0  0  0
    0.5965    0.0515    0.0385 H   0  0  0  0  0  0  0  0  0  0  0  0
   -0.3776    1.5047    0.1078 H   0  0  0  0  0  0  0  0  0  0  0  0
   -1.5821    0.6048    2.1034 H   0  0  0  0  0  0  0  0  0  0  0  0
    0.1495    0.8220    2.3649 H   0  0  0  0  0  0  0  0  0  0  0  0
    0.3017   -1.4750    1.9997 H   0  0  0  0  0  0  0  0  0  0  0  0
  1  2  1  0
  1  5  1  0
  1  6  1  0
  1  7  1  0
  2  3  1  0
  2  8  1  0
  2  9  1  0
  3  4  1  0
  3 10  1  0
  3 11  1  0
  4 12  1  0
M  END
>  <reaction>  (3) 
rmg_rxn_311

>  <mol_properties>  (3) 
{"3": {"label": "acceptor", "atom_type": "O2s"}, "11": {"label": "a_hydrogen", "atom_type": "H0"}}

>  <type>  (3) 
r2h

$$$$

     RDKit          3D

 29 27  0  0  0  0  0  0  0  0999 V2000
   -1.7518   -1.6176   -0.0180 C   0  0  0  0  0  0  0  0  0  0  0  0
   -1.9729   -0.4002   -0.9017 C   0  0  0  0  0  0  0  0  0  0  0  0
   -2.7470    0.7122   -0.2062 C   0  0  0  0  0  0  0  0  0  0  0  0
   -2.1680    1.1721    0.9786 O   0  0  0  0  0  0  0  0  0  0  0  0
   -2.7020   -2.0601    0.2917 H   0  0  0  0  0  0  0  0  0  0  0  0
   -1.1792   -2.3835   -0.5444 H   0  0  0  0  0  0  0  0  0  0  0  0
   -1.1993   -1.3367    0.8787 H   0  0  0  0  0  0  0  0  0  0  0  0
   -1.0046   -0.0063   -1.2209 H   0  0  0  0  0  0  0  0  0  0  0  0
   -2.5218   -0.6790   -1.8067 H   0  0  0  0  0  0  0  0  0  0  0  0
   -2.9311    1.5418   -0.9028 H   0  0  0  0  0  0  0  0  0  0  0  0
   -3.7345    0.3401    0.1013 H   0  0  0  0  0  0  0  0  0  0  0  0
    1.9288   -1.8519   -1.5449 C   0  0  0  0  0  0  0  0  0  0  0  0
    2.0434   -1.8547   -0.0267 C   0  0  0  0  0  0  0  0  0  0  0  0
    2.2103   -0.4702    0.5649 C   0  0  0  0  0  0  0  0  0  0  0  0
    1.1108    0.3263    0.1960 O   0  0  0  0  0  0  0  0  0  0  0  0
    1.0914    1.5820    0.8154 C   0  0  0  0  0  0  0  0  0  0  0  0
   -0.0757    2.3692    0.3089 C   0  0  0  0  0  3  0  0  0  0  0  0
    2.8062   -1.3899   -2.0044 H   0  0  0  0  0  0  0  0  0  0  0  0
    1.0495   -1.2929   -1.8655 H   0  0  0  0  0  0  0  0  0  0  0  0
    1.8439   -2.8686   -1.9311 H   0  0  0  0  0  0  0  0  0  0  0  0
    2.9011   -2.4565    0.2860 H   0  0  0  0  0  0  0  0  0  0  0  0
    1.1551   -2.3154    0.4118 H   0  0  0  0  0  0  0  0  0  0  0  0
    3.1420   -0.0076    0.2035 H   0  0  0  0  0  0  0  0  0  0  0  0
    2.2765   -0.5336    1.6601 H   0  0  0  0  0  0  0  0  0  0  0  0
    1.0346    1.4703    1.9077 H   0  0  0  0  0  0  0  0  0  0  0  0
    2.0255    2.1281    0.5965 H   0  0  0  0  0  0  0  0  0  0  0  0
   -1.1323    1.7616    0.6837 H   0  0  0  0  0  0  0  0  0  0  0  0
   -0.1466    2.4071   -0.7768 H   0  0  0  0  0  0  0  0  0  0  0  0
   -0.1762    3.3504    0.7685 H   0  0  0  0  0  0  0  0  0  0  0  0
  1  2  1  0
  1  5  1  0
  1  6  1  0
  1  7  1  0
  2  3  1  0
  2  8  1  0
  2  9  1  0
  3  4  1  0
  3 10  1  0
  3 11  1  0
  4 27  1  0
 12 13  1  0
 12 18  1  0
 12 19  1  0
 12 20  1  0
 13 14  1  0
 13 21  1  0
 13 22  1  0
 14 15  1  0
 14 23  1  0
 14 24  1  0
 15 16  1  0
 16 17  1  0
 16 25  1  0
 16 26  1  0
 17 28  1  0
 17 29  1  0
M  RAD  1  17   2
M  END
>  <reaction>  (4) 
rmg_rxn_311

>  <mol_properties>  (4) 
{"2": {"label": "*0", "atom_type": "Cs"}, "3": {"label": "*1", "atom_type": "O2s"}, "15": {"label": "*4", "atom_type": "Cs"}, "16": {"label": "*3", "atom_type": "Cs"}, "26": {"label": "*2", "atom_type": "H0"}}

>  <type>  (4) 
ts

$$$$

     RDKit          3D

 29 27  0  0  0  0  0  0  0  0999 V2000
   -2.7881    2.6981   -0.2770 C   0  0  0  0  0  0  0  0  0  0  0  0
   -2.4788    2.2775    1.1532 C   0  0  0  0  0  0  0  0  0  0  0  0
   -2.7384    0.8012    1.4147 C   0  0  0  0  0  0  0  0  0  0  0  0
   -1.9549   -0.0561    0.6065 O   0  0  0  0  0  0  0  0  0  0  0  0
   -3.8447    2.5422   -0.5068 H   0  0  0  0  0  0  0  0  0  0  0  0
   -2.5622    3.7534   -0.4366 H   0  0  0  0  0  0  0  0  0  0  0  0
   -2.2055    2.1123   -0.9885 H   0  0  0  0  0  0  0  0  0  0  0  0
   -1.4323    2.5009    1.3911 H   0  0  0  0  0  0  0  0  0  0  0  0
   -3.0814    2.8595    1.8571 H   0  0  0  0  0  0  0  0  0  0  0  0
   -2.5840    0.5779    2.4778 H   0  0  0  0  0  0  0  0  0  0  0  0
   -3.7764    0.5578    1.1771 H   0  0  0  0  0  0  0  0  0  0  0  0
    2.5105   -2.7647   -2.0440 C   0  0  0  0  0  0  0  0  0  0  0  0
    2.5105   -2.7647   -0.5211 C   0  0  0  0  0  0  0  0  0  0  0  0
    2.5105   -1.3717    0.0744 C   0  0  0  0  0  0  0  0  0  0  0  0
    1.3275   -0.7081   -0.2932 O   0  0  0  0  0  0  0  0  0  0  0  0
    1.2568    0.6100    0.1877 C   0  0  0  0  0  0  0  0  0  0  0  0
   -0.0465    1.2278   -0.2631 C   0  0  0  0  0  3  0  0  0  0  0  0
    3.3926   -2.2504   -2.4337 H   0  0  0  0  0  0  0  0  0  0  0  0
    1.6278   -2.2550   -2.4301 H   0  0  0  0  0  0  0  0  0  0  0  0
    2.5160   -3.7826   -2.4367 H   0  0  0  0  0  0  0  0  0  0  0  0
    3.3920   -3.2912   -0.1449 H   0  0  0  0  0  0  0  0  0  0  0  0
    1.6361   -3.3027   -0.1459 H   0  0  0  0  0  0  0  0  0  0  0  0
    3.3847   -0.8066   -0.2860 H   0  0  0  0  0  0  0  0  0  0  0  0
    2.5853   -1.4256    1.1704 H   0  0  0  0  0  0  0  0  0  0  0  0
    1.3241    0.6128    1.2858 H   0  0  0  0  0  0  0  0  0  0  0  0
    2.1097    1.1930   -0.1902 H   0  0  0  0  0  0  0  0  0  0  0  0
   -1.0621    0.5445    0.1997 H   0  0  0  0  0  0  0  0  0  0  0  0
   -0.1073    1.2396   -1.3520 H   0  0  0  0  0  0  0  0  0  0  0  0
   -0.1241    2.2538    0.0999 H   0  0  0  0  0  0  0  0  0  0  0  0
  1  2  1  0
  1  5  1  0
  1  6  1  0
  1  7  1  0
  2  3  1  0
  2  8  1  0
  2  9  1  0
  3  4  1  0
  3 10  1  0
  3 11  1  0
  4 27  1  0
 12 13  1  0
 12 18  1  0
 12 19  1  0
 12 20  1  0
 13 14  1  0
 13 21  1  0
 13 22  1  0
 14 15  1  0
 14 23  1  0
 14 24  1  0
 15 16  1  0
 16 17  1  0
 16 25  1  0
 16 26  1  0
 17 28  1  0
 17 29  1  0
M  RAD  1  17   2
M  END
>  <reaction>  (5) 
rmg_rxn_311

>  <mol_properties>  (5) 
{"2": {"label": "*0", "atom_type": "Cs"}, "3": {"label": "*1", "atom_type": "O2s"}, "15": {"label": "*4", "atom_type": "Cs"}, "16": {"label": "*3", "atom_type": "Cs"}, "26": {"label": "*2", "atom_type": "H0"}}

>  <type>  (5) 
unop_1

>  <geom_source>  (5) 
Heuristics

$$$$

     RDKit          3D

 29 27  0  0  0  0  0  0  0  0999 V2000
   -1.9373    2.0124    2.5700 C   0  0  0  0  0  0  0  0  0  0  0  0
   -1.1794    0.7486    2.1876 C   0  0  0  0  0  0  0  0  0  0  0  0
   -1.9845   -0.1896    1.3007 C   0  0  0  0  0  0  0  0  0  0  0  0
   -2.3633    0.3935    0.0683 O   0  0  0  0  0  0  0  0  0  0  0  0
   -2.8348    1.7676    3.1427 H   0  0  0  0  0  0  0  0  0  0  0  0
   -1.3206    2.6744    3.1794 H   0  0  0  0  0  0  0  0  0  0  0  0
   -2.2519    2.5603    1.6813 H   0  0  0  0  0  0  0  0  0  0  0  0
   -0.2485    1.0119    1.6721 H   0  0  0  0  0  0  0  0  0  0  0  0
   -0.8840    0.1985    3.0862 H   0  0  0  0  0  0  0  0  0  0  0  0
   -1.4233   -1.1175    1.1328 H   0  0  0  0  0  0  0  0  0  0  0  0
   -2.9202   -0.4588    1.7958 H   0  0  0  0  0  0  0  0  0  0  0  0
    2.1021   -2.3151   -2.5822 C   0  0  0  0  0  0  0  0  0  0  0  0
    2.1021   -2.3151   -1.0593 C   0  0  0  0  0  0  0  0  0  0  0  0
    2.1021   -0.9221   -0.4638 C   0  0  0  0  0  0  0  0  0  0  0  0
    0.9191   -0.2585   -0.8314 O   0  0  0  0  0  0  0  0  0  0  0  0
    0.8483    1.0596   -0.3505 C   0  0  0  0  0  0  0  0  0  0  0  0
   -0.4550    1.6774   -0.8013 C   0  0  0  0  0  3  0  0  0  0  0  0
    2.9841   -1.8008   -2.9718 H   0  0  0  0  0  0  0  0  0  0  0  0
    1.2193   -1.8054   -2.9683 H   0  0  0  0  0  0  0  0  0  0  0  0
    2.1075   -3.3330   -2.9749 H   0  0  0  0  0  0  0  0  0  0  0  0
    2.9836   -2.8416   -0.6830 H   0  0  0  0  0  0  0  0  0  0  0  0
    1.2277   -2.8531   -0.6840 H   0  0  0  0  0  0  0  0  0  0  0  0
    2.9763   -0.3570   -0.8242 H   0  0  0  0  0  0  0  0  0  0  0  0
    2.1769   -0.9760    0.6323 H   0  0  0  0  0  0  0  0  0  0  0  0
    0.9156    1.0625    0.7476 H   0  0  0  0  0  0  0  0  0  0  0  0
    1.7012    1.6426   -0.7284 H   0  0  0  0  0  0  0  0  0  0  0  0
   -1.4706    0.9941   -0.3385 H   0  0  0  0  0  0  0  0  0  0  0  0
   -0.5158    1.6892   -1.8901 H   0  0  0  0  0  0  0  0  0  0  0  0
   -0.5326    2.7034   -0.4382 H   0  0  0  0  0  0  0  0  0  0  0  0
  1  2  1  0
  1  5  1  0
  1  6  1  0
  1  7  1  0
  2  3  1  0
  2  8  1  0
  2  9  1  0
  3  4  1  0
  3 10  1  0
  3 11  1  0
  4 27  1  0
 12 13  1  0
 12 18  1  0
 12 19  1  0
 12 20  1  0
 13 14  1  0
 13 21  1  0
 13 22  1  0
 14 15  1  0
 14 23  1  0
 14 24  1  0
 15 16  1  0
 16 17  1  0
 16 25  1  0
 16 26  1  0
 17 28  1  0
 17 29  1  0
M  RAD  1  17   2
M  END
>  <reaction>  (6) 
rmg_rxn_311

>  <mol_properties>  (6) 
{"2": {"label": "*0", "atom_type": "Cs"}, "3": {"label": "*1", "atom_type": "O2s"}, "15": {"label": "*4", "atom_type": "Cs"}, "16": {"label": "*3", "atom_type": "Cs"}, "26": {"label": "*2", "atom_type": "H0"}}

>  <type>  (6) 
unop_2

>  <geom_source>  (6) 
Heuristics

$$$$

     RDKit          3D

 29 27  0  0  0  0  0  0  0  0999 V2000
   -3.0175    1.6958   -1.3141 C   0  0  0  0  0  0  0  0  0  0  0  0
   -2.9221    2.1349    0.1406 C   0  0  0  0  0  0  0  0  0  0  0  0
   -2.9226    0.9710    1.1207 C   0  0  0  0  0  0  0  0  0  0  0  0
   -1.8350    0.0847    0.9369 O   0  0  0  0  0  0  0  0  0  0  0  0
   -3.9521    1.1605   -1.4968 H   0  0  0  0  0  0  0  0  0  0  0  0
   -2.9839    2.5523   -1.9889 H   0  0  0  0  0  0  0  0  0  0  0  0
   -2.1971    1.0252   -1.5717 H   0  0  0  0  0  0  0  0  0  0  0  0
   -2.0125    2.7271    0.2940 H   0  0  0  0  0  0  0  0  0  0  0  0
   -3.7593    2.7929    0.3924 H   0  0  0  0  0  0  0  0  0  0  0  0
   -2.9423    1.3503    2.1501 H   0  0  0  0  0  0  0  0  0  0  0  0
   -3.8200    0.3648    0.9787 H   0  0  0  0  0  0  0  0  0  0  0  0
    2.6304   -2.6239   -1.7137 C   0  0  0  0  0  0  0  0  0  0  0  0
    2.6304   -2.6239   -0.1908 C   0  0  0  0  0  0  0  0  0  0  0  0
    2.6304   -1.2309    0.4048 C   0  0  0  0  0  0  0  0  0  0  0  0
    1.4474   -0.5673    0.0372 O   0  0  0  0  0  0  0  0  0  0  0  0
    1.3767    0.7508    0.5181 C   0  0  0  0  0  0  0  0  0  0  0  0
    0.0734    1.3686    0.0672 C   0  0  0  0  0  3  0  0  0  0  0  0
    3.5125   -2.1096   -2.1033 H   0  0  0  0  0  0  0  0  0  0  0  0
    1.7477   -2.1142   -2.0997 H   0  0  0  0  0  0  0  0  0  0  0  0
    2.6359   -3.6418   -2.1063 H   0  0  0  0  0  0  0  0  0  0  0  0
    3.5119   -3.1504    0.1855 H   0  0  0  0  0  0  0  0  0  0  0  0
    1.7560   -3.1619    0.1845 H   0  0  0  0  0  0  0  0  0  0  0  0
    3.5046   -0.6658    0.0444 H   0  0  0  0  0  0  0  0  0  0  0  0
    2.7052   -1.2848    1.5008 H   0  0  0  0  0  0  0  0  0  0  0  0
    1.4439    0.7537    1.6161 H   0  0  0  0  0  0  0  0  0  0  0  0
    2.2296    1.3338    0.1402 H   0  0  0  0  0  0  0  0  0  0  0  0
   -0.9423    0.6853    0.5300 H   0  0  0  0  0  0  0  0  0  0  0  0
    0.0126    1.3804   -1.0216 H   0  0  0  0  0  0  0  0  0  0  0  0
   -0.0042    2.3946    0.4303 H   0  0  0  0  0  0  0  0  0  0  0  0
  1  2  1  0
  1  5  1  0
  1  6  1  0
  1  7  1  0
  2  3  1  0
  2  8  1  0
  2  9  1  0
  3  4  1  0
  3 10  1  0
  3 11  1  0
  4 27  1  0
 12 13  1  0
 12 18  1  0
 12 19  1  0
 12 20  1  0
 13 14  1  0
 13 21  1  0
 13 22  1  0
 14 15  1  0
 14 23  1  0
 14 24  1  0
 15 16  1  0
 16 17  1  0
 16 25  1  0
 16 26  1  0
 17 28  1  0
 17 29  1  0
M  RAD  1  17   2
M  END
>  <reaction>  (7) 
rmg_rxn_311

>  <mol_properties>  (7) 
{"2": {"label": "*0", "atom_type": "Cs"}, "3": {"label": "*1", "atom_type": "O2s"}, "15": {"label": "*4", "atom_type": "Cs"}, "16": {"label": "*3", "atom_type": "Cs"}, "26": {"label": "*2", "atom_type": "H0"}}

>  <type>  (7) 
unop_3

>  <geom_source>  (7) 
Heuristics

$$$$

     RDKit          3D

 29 27  0  0  0  0  0  0  0  0999 V2000
   -2.2565   -1.2792    2.2728 C   0  0  0  0  0  0  0  0  0  0  0  0
   -1.5021   -1.1552    0.9562 C   0  0  0  0  0  0  0  0  0  0  0  0
   -2.1574   -0.1927   -0.0232 C   0  0  0  0  0  0  0  0  0  0  0  0
   -2.2483    1.1307    0.4693 O   0  0  0  0  0  0  0  0  0  0  0  0
   -3.2627   -1.6710    2.1074 H   0  0  0  0  0  0  0  0  0  0  0  0
   -1.7432   -1.9524    2.9609 H   0  0  0  0  0  0  0  0  0  0  0  0
   -2.3559   -0.3069    2.7563 H   0  0  0  0  0  0  0  0  0  0  0  0
   -0.4738   -0.8247    1.1436 H   0  0  0  0  0  0  0  0  0  0  0  0
   -1.4235   -2.1333    0.4720 H   0  0  0  0  0  0  0  0  0  0  0  0
   -1.6219   -0.2127   -0.9807 H   0  0  0  0  0  0  0  0  0  0  0  0
   -3.1865   -0.5026   -0.2180 H   0  0  0  0  0  0  0  0  0  0  0  0
    2.2172   -1.5779   -2.1812 C   0  0  0  0  0  0  0  0  0  0  0  0
    2.2172   -1.5779   -0.6583 C   0  0  0  0  0  0  0  0  0  0  0  0
    2.2172   -0.1848   -0.0628 C   0  0  0  0  0  0  0  0  0  0  0  0
    1.0342    0.4788   -0.4304 O   0  0  0  0  0  0  0  0  0  0  0  0
    0.9634    1.7968    0.0505 C   0  0  0  0  0  0  0  0  0  0  0  0
   -0.3399    2.4146   -0.4003 C   0  0  0  0  0  3  0  0  0  0  0  0
    3.0992   -1.0636   -2.5708 H   0  0  0  0  0  0  0  0  0  0  0  0
    1.3344   -1.0682   -2.5673 H   0  0  0  0  0  0  0  0  0  0  0  0
    2.2226   -2.5958   -2.5739 H   0  0  0  0  0  0  0  0  0  0  0  0
    3.0987   -2.1044   -0.2820 H   0  0  0  0  0  0  0  0  0  0  0  0
    1.3428   -2.1159   -0.2830 H   0  0  0  0  0  0  0  0  0  0  0  0
    3.0913    0.3803   -0.4232 H   0  0  0  0  0  0  0  0  0  0  0  0
    2.2919   -0.2387    1.0333 H   0  0  0  0  0  0  0  0  0  0  0  0
    1.0307    1.7997    1.1486 H   0  0  0  0  0  0  0  0  0  0  0  0
    1.8163    2.3798   -0.3274 H   0  0  0  0  0  0  0  0  0  0  0  0
   -1.3555    1.7313    0.0625 H   0  0  0  0  0  0  0  0  0  0  0  0
   -0.4007    2.4265   -1.4891 H   0  0  0  0  0  0  0  0  0  0  0  0
   -0.4175    3.4406   -0.0373 H   0  0  0  0  0  0  0  0  0  0  0  0
  1  2  1  0
  1  5  1  0
  1  6  1  0
  1  7  1  0
  2  3  1  0
  2  8  1  0
  2  9  1  0
  3  4  1  0
  3 10  1  0
  3 11  1  0
  4 27  1  0
 12 13  1  0
 12 18  1  0
 12 19  1  0
 12 20  1  0
 13 14  1  0
 13 21  1  0
 13 22  1  0
 14 15  1  0
 14 23  1  0
 14 24  1  0
 15 16  1  0
 16 17  1  0
 16 25  1  0
 16 26  1  0
 17 28  1  0
 17 29  1  0
M  RAD  1  17   2
M  END
>  <reaction>  (8) 
rmg_rxn_311

>  <mol_properties>  (8) 
{"2": {"label": "*0", "atom_type": "Cs"}, "3": {"label": "*1", "atom_type": "O2s"}, "15": {"label": "*4", "atom_type": "Cs"}, "16": {"label": "*3", "atom_type": "Cs"}, "26": {"label": "*2", "atom_type": "H0"}}

>  <type>  (8) 
unop_4

>  <geom_source>  (8) 
Heuristics

$$$$

     RDKit          3D

 29 27  0  0  0  0  0  0  0  0999 V2000
   -3.1380   -0.2729   -1.4331 C   0  0  0  0  0  0  0  0  0  0  0  0
   -3.1139    1.1196   -0.8180 C   0  0  0  0  0  0  0  0  0  0  0  0
   -2.9767    1.1047    0.6973 C   0  0  0  0  0  0  0  0  0  0  0  0
   -1.7837    0.4894    1.1448 O   0  0  0  0  0  0  0  0  0  0  0  0
   -3.9953   -0.8430   -1.0678 H   0  0  0  0  0  0  0  0  0  0  0  0
   -3.2064   -0.2238   -2.5207 H   0  0  0  0  0  0  0  0  0  0  0  0
   -2.2367   -0.8282   -1.1720 H   0  0  0  0  0  0  0  0  0  0  0  0
   -2.2883    1.7023   -1.2429 H   0  0  0  0  0  0  0  0  0  0  0  0
   -4.0302    1.6610   -1.0721 H   0  0  0  0  0  0  0  0  0  0  0  0
   -3.0548    2.1268    1.0889 H   0  0  0  0  0  0  0  0  0  0  0  0
   -3.7886    0.5227    1.1391 H   0  0  0  0  0  0  0  0  0  0  0  0
    2.6817   -2.2193   -1.5057 C   0  0  0  0  0  0  0  0  0  0  0  0
    2.6817   -2.2193    0.0172 C   0  0  0  0  0  0  0  0  0  0  0  0
    2.6817   -0.8262    0.6127 C   0  0  0  0  0  0  0  0  0  0  0  0
    1.4987   -0.1626    0.2451 O   0  0  0  0  0  0  0  0  0  0  0  0
    1.4280    1.1555    0.7260 C   0  0  0  0  0  0  0  0  0  0  0  0
    0.1247    1.7732    0.2752 C   0  0  0  0  0  3  0  0  0  0  0  0
    3.5638   -1.7049   -1.8953 H   0  0  0  0  0  0  0  0  0  0  0  0
    1.7990   -1.7096   -1.8918 H   0  0  0  0  0  0  0  0  0  0  0  0
    2.6872   -3.2371   -1.8984 H   0  0  0  0  0  0  0  0  0  0  0  0
    3.5632   -2.7457    0.3935 H   0  0  0  0  0  0  0  0  0  0  0  0
    1.8073   -2.7572    0.3925 H   0  0  0  0  0  0  0  0  0  0  0  0
    3.5559   -0.2611    0.2523 H   0  0  0  0  0  0  0  0  0  0  0  0
    2.7565   -0.8801    1.7088 H   0  0  0  0  0  0  0  0  0  0  0  0
    1.4952    1.1583    1.8241 H   0  0  0  0  0  0  0  0  0  0  0  0
    2.2808    1.7384    0.3481 H   0  0  0  0  0  0  0  0  0  0  0  0
   -0.8910    1.0900    0.7380 H   0  0  0  0  0  0  0  0  0  0  0  0
    0.0638    1.7851   -0.8136 H   0  0  0  0  0  0  0  0  0  0  0  0
    0.0470    2.7993    0.6382 H   0  0  0  0  0  0  0  0  0  0  0  0
  1  2  1  0
  1  5  1  0
  1  6  1  0
  1  7  1  0
  2  3  1  0
  2  8  1  0
  2  9  1  0
  3  4  1  0
  3 10  1  0
  3 11  1  0
  4 27  1  0
 12 13  1  0
 12 18  1  0
 12 19  1  0
 12 20  1  0
 13 14  1  0
 13 21  1  0
 13 22  1  0
 14 15  1  0
 14 23  1  0
 14 24  1  0
 15 16  1  0
 16 17  1  0
 16 25  1  0
 16 26  1  0
 17 28  1  0
 17 29  1  0
M  RAD  1  17   2
M  END
>  <reaction>  (9) 
rmg_rxn_311

>  <mol_properties>  (9) 
{"2": {"label": "*0", "atom_type": "Cs"}, "3": {"label": "*1", "atom_type": "O2s"}, "15": {"label": "*4", "atom_type": "Cs"}, "16": {"label": "*3", "atom_type": "Cs"}, "26": {"label": "*2", "atom_type": "H0"}}

>  <type>  (9) 
unop_5

>  <geom_source>  (9) 
Heuristics

$$$$

     RDKit          3D

 29 27  0  0  0  0  0  0  0  0999 V2000
   -2.5910   -1.7105    1.4950 C   0  0  0  0  0  0  0  0  0  0  0  0
   -1.9693   -1.2378    0.1881 C   0  0  0  0  0  0  0  0  0  0  0  0
   -2.4277    0.1526   -0.2268 C   0  0  0  0  0  0  0  0  0  0  0  0
   -2.0973    1.1548    0.7158 O   0  0  0  0  0  0  0  0  0  0  0  0
   -3.6778   -1.7757    1.4058 H   0  0  0  0  0  0  0  0  0  0  0  0
   -2.2176   -2.6960    1.7770 H   0  0  0  0  0  0  0  0  0  0  0  0
   -2.3672   -1.0156    2.3050 H   0  0  0  0  0  0  0  0  0  0  0  0
   -0.8763   -1.2406    0.2709 H   0  0  0  0  0  0  0  0  0  0  0  0
   -2.2147   -1.9330   -0.6204 H   0  0  0  0  0  0  0  0  0  0  0  0
   -2.0186    0.4009   -1.2143 H   0  0  0  0  0  0  0  0  0  0  0  0
   -3.5166    0.1768   -0.3088 H   0  0  0  0  0  0  0  0  0  0  0  0
    2.3681   -1.5538   -1.9347 C   0  0  0  0  0  0  0  0  0  0  0  0
    2.3681   -1.5538   -0.4118 C   0  0  0  0  0  0  0  0  0  0  0  0
    2.3681   -0.1608    0.1837 C   0  0  0  0  0  0  0  0  0  0  0  0
    1.1851    0.5028   -0.1839 O   0  0  0  0  0  0  0  0  0  0  0  0
    1.1143    1.8209    0.2970 C   0  0  0  0  0  0  0  0  0  0  0  0
   -0.1890    2.4387   -0.1538 C   0  0  0  0  0  3  0  0  0  0  0  0
    3.2501   -1.0395   -2.3243 H   0  0  0  0  0  0  0  0  0  0  0  0
    1.4853   -1.0441   -2.3208 H   0  0  0  0  0  0  0  0  0  0  0  0
    2.3735   -2.5717   -2.3274 H   0  0  0  0  0  0  0  0  0  0  0  0
    3.2496   -2.0803   -0.0355 H   0  0  0  0  0  0  0  0  0  0  0  0
    1.4937   -2.0918   -0.0365 H   0  0  0  0  0  0  0  0  0  0  0  0
    3.2423    0.4043   -0.1767 H   0  0  0  0  0  0  0  0  0  0  0  0
    2.4429   -0.2147    1.2798 H   0  0  0  0  0  0  0  0  0  0  0  0
    1.1816    1.8238    1.3951 H   0  0  0  0  0  0  0  0  0  0  0  0
    1.9672    2.4039   -0.0809 H   0  0  0  0  0  0  0  0  0  0  0  0
   -1.2046    1.7554    0.3090 H   0  0  0  0  0  0  0  0  0  0  0  0
   -0.2498    2.4505   -1.2426 H   0  0  0  0  0  0  0  0  0  0  0  0
   -0.2666    3.4647    0.2092 H   0  0  0  0  0  0  0  0  0  0  0  0
  1  2  1  0
  1  5  1  0
  1  6  1  0
  1  7  1  0
  2  3  1  0
  2  8  1  0
  2  9  1  0
  3  4  1  0
  3 10  1  0
  3 11  1  0
  4 27  1  0
 12 13  1  0
 12 18  1  0
 12 19  1  0
 12 20  1  0
 13 14  1  0
 13 21  1  0
 13 22  1  0
 14 15  1  0
 14 23  1  0
 14 24  1  0
 15 16  1  0
 16 17  1  0
 16 25  1  0
 16 26  1  0
 17 28  1  0
 17 29  1  0
M  RAD  1  17   2
M  END
>  <reaction>  (10) 
rmg_rxn_311

>  <mol_properties>  (10) 
{"2": {"label": "*0", "atom_type": "Cs"}, "3": {"label": "*1", "atom_type": "O2s"}, "15": {"label": "*4", "atom_type": "Cs"}, "16": {"label": "*3", "atom_type": "Cs"}, "26": {"label": "*2", "atom_type": "H0"}}

>  <type>  (10) 
unop_6

>  <geom_source>  (10) 
Heuristics

$$$$

     RDKit          3D

 29 27  0  0  0  0  0  0  0  0999 V2000
   -2.9086   -1.7853    0.7123 C   0  0  0  0  0  0  0  0  0  0  0  0
   -2.4974   -0.9011   -0.4568 C   0  0  0  0  0  0  0  0  0  0  0  0
   -2.6966    0.5830   -0.1867 C   0  0  0  0  0  0  0  0  0  0  0  0
   -1.9409    1.0580    0.9112 O   0  0  0  0  0  0  0  0  0  0  0  0
   -3.9726   -1.6685    0.9311 H   0  0  0  0  0  0  0  0  0  0  0  0
   -2.7242   -2.8385    0.4958 H   0  0  0  0  0  0  0  0  0  0  0  0
   -2.3551   -1.5196    1.6135 H   0  0  0  0  0  0  0  0  0  0  0  0
   -1.4450   -1.0776   -0.7076 H   0  0  0  0  0  0  0  0  0  0  0  0
   -3.0712   -1.1650   -1.3504 H   0  0  0  0  0  0  0  0  0  0  0  0
   -2.4689    1.1607   -1.0914 H   0  0  0  0  0  0  0  0  0  0  0  0
   -3.7399    0.7779    0.0713 H   0  0  0  0  0  0  0  0  0  0  0  0
    2.5246   -1.6506   -1.7394 C   0  0  0  0  0  0  0  0  0  0  0  0
    2.5246   -1.6506   -0.2164 C   0  0  0  0  0  0  0  0  0  0  0  0
    2.5246   -0.2575    0.3791 C   0  0  0  0  0  0  0  0  0  0  0  0
    1.3416    0.4061    0.0115 O   0  0  0  0  0  0  0  0  0  0  0  0
    1.2708    1.7241    0.4924 C   0  0  0  0  0  0  0  0  0  0  0  0
   -0.0325    2.3419    0.0415 C   0  0  0  0  0  3  0  0  0  0  0  0
    3.4066   -1.1363   -2.1290 H   0  0  0  0  0  0  0  0  0  0  0  0
    1.6418   -1.1409   -2.1254 H   0  0  0  0  0  0  0  0  0  0  0  0
    2.5300   -2.6685   -2.1320 H   0  0  0  0  0  0  0  0  0  0  0  0
    3.4061   -2.1771    0.1598 H   0  0  0  0  0  0  0  0  0  0  0  0
    1.6502   -2.1886    0.1588 H   0  0  0  0  0  0  0  0  0  0  0  0
    3.3987    0.3075    0.0187 H   0  0  0  0  0  0  0  0  0  0  0  0
    2.5993   -0.3115    1.4751 H   0  0  0  0  0  0  0  0  0  0  0  0
    1.3381    1.7270    1.5904 H   0  0  0  0  0  0  0  0  0  0  0  0
    2.1237    2.3071    0.1145 H   0  0  0  0  0  0  0  0  0  0  0  0
   -1.0481    1.6586    0.5044 H   0  0  0  0  0  0  0  0  0  0  0  0
   -0.0933    2.3538   -1.0473 H   0  0  0  0  0  0  0  0  0  0  0  0
   -0.1101    3.3679    0.4046 H   0  0  0  0  0  0  0  0  0  0  0  0
  1  2  1  0
  1  5  1  0
  1  6  1  0
  1  7  1  0
  2  3  1  0
  2  8  1  0
  2  9  1  0
  3  4  1  0
  3 10  1  0
  3 11  1  0
  4 27  1  0
 12 13  1  0
 12 18  1  0
 12 19  1  0
 12 20  1  0
 13 14  1  0
 13 21  1  0
 13 22  1  0
 14 15  1  0
 14 23  1  0
 14 24  1  0
 15 16  1  0
 16 17  1  0
 16 25  1  0
 16 26  1  0
 17 28  1  0
 17 29  1  0
M  RAD  1  17   2
M  END
>  <reaction>  (11) 
rmg_rxn_311

>  <mol_properties>  (11) 
{"2": {"label": "*0", "atom_type": "Cs"}, "3": {"label": "*1", "atom_type": "O2s"}, "15": {"label": "*4", "atom_type": "Cs"}, "16": {"label": "*3", "atom_type": "Cs"}, "26": {"label": "*2", "atom_type": "H0"}}

>  <type>  (11) 
unop_7

>  <geom_source>  (11) 
Heuristics

$$$$

     RDKit          3D

 29 27  0  0  0  0  0  0  0  0999 V2000
   -2.4755    2.9442    0.7994 C   0  0  0  0  0  0  0  0  0  0  0  0
   -1.9513    1.9408    1.8173 C   0  0  0  0  0  0  0  0  0  0  0  0
   -2.4725    0.5290    1.5925 C   0  0  0  0  0  0  0  0  0  0  0  0
   -2.1101   -0.0072    0.3342 O   0  0  0  0  0  0  0  0  0  0  0  0
   -3.5636    3.0221    0.8569 H   0  0  0  0  0  0  0  0  0  0  0  0
   -2.0584    3.9374    0.9720 H   0  0  0  0  0  0  0  0  0  0  0  0
   -2.2195    2.6376   -0.2153 H   0  0  0  0  0  0  0  0  0  0  0  0
   -0.8555    1.9218    1.7943 H   0  0  0  0  0  0  0  0  0  0  0  0
   -2.2287    2.2494    2.8298 H   0  0  0  0  0  0  0  0  0  0  0  0
   -2.1341   -0.1272    2.4042 H   0  0  0  0  0  0  0  0  0  0  0  0
   -3.5647    0.5287    1.6061 H   0  0  0  0  0  0  0  0  0  0  0  0
    2.3553   -2.7158   -2.3163 C   0  0  0  0  0  0  0  0  0  0  0  0
    2.3553   -2.7158   -0.7934 C   0  0  0  0  0  0  0  0  0  0  0  0
    2.3553   -1.3227   -0.1979 C   0  0  0  0  0  0  0  0  0  0  0  0
    1.1723   -0.6591   -0.5655 O   0  0  0  0  0  0  0  0  0  0  0  0
    1.1016    0.6589   -0.0846 C   0  0  0  0  0  0  0  0  0  0  0  0
   -0.2018    1.2767   -0.5354 C   0  0  0  0  0  3  0  0  0  0  0  0
    3.2373   -2.2015   -2.7059 H   0  0  0  0  0  0  0  0  0  0  0  0
    1.4726   -2.2061   -2.7024 H   0  0  0  0  0  0  0  0  0  0  0  0
    2.3608   -3.7337   -2.7090 H   0  0  0  0  0  0  0  0  0  0  0  0
    3.2368   -3.2423   -0.4171 H   0  0  0  0  0  0  0  0  0  0  0  0
    1.4809   -3.2538   -0.4181 H   0  0  0  0  0  0  0  0  0  0  0  0
    3.2295   -0.7577   -0.5583 H   0  0  0  0  0  0  0  0  0  0  0  0
    2.4301   -1.3767    0.8982 H   0  0  0  0  0  0  0  0  0  0  0  0
    1.1688    0.6618    1.0135 H   0  0  0  0  0  0  0  0  0  0  0  0
    1.9544    1.2419   -0.4625 H   0  0  0  0  0  0  0  0  0  0  0  0
   -1.2174    0.5934   -0.0726 H   0  0  0  0  0  0  0  0  0  0  0  0
   -0.2626    1.2886   -1.6242 H   0  0  0  0  0  0  0  0  0  0  0  0
   -0.2794    2.3027   -0.1724 H   0  0  0  0  0  0  0  0  0  0  0  0
  1  2  1  0
  1  5  1  0
  1  6  1  0
  1  7  1  0
  2  3  1  0
  2  8  1  0
  2  9  1  0
  3  4  1  0
  3 10  1  0
  3 11  1  0
  4 27  1  0
 12 13  1  0
 12 18  1  0
 12 19  1  0
 12 20  1  0
 13 14  1  0
 13 21  1  0
 13 22  1  0
 14 15  1  0
 14 23  1  0
 14 24  1  0
 15 16  1  0
 16 17  1  0
 16 25  1  0
 16 26  1  0
 17 28  1  0
 17 29  1  0
M  RAD  1  17   2
M  END
>  <reaction>  (12) 
rmg_rxn_311

>  <mol_properties>  (12) 
{"2": {"label": "*0", "atom_type": "Cs"}, "3": {"label": "*1", "atom_type": "O2s"}, "15": {"label": "*4", "atom_type": "Cs"}, "16": {"label": "*3", "atom_type": "Cs"}, "26": {"label": "*2", "atom_type": "H0"}}

>  <type>  (12) 
unop_8

>  <geom_source>  (12) 
Heuristics

$$$$

     RDKit          3D

 29 27  0  0  0  0  0  0  0  0999 V2000
   -1.9958   -0.3732    2.9028 C   0  0  0  0  0  0  0  0  0  0  0  0
   -1.1927   -0.6702    1.6439 C   0  0  0  0  0  0  0  0  0  0  0  0
   -1.9615   -0.3906    0.3610 C   0  0  0  0  0  0  0  0  0  0  0  0
   -2.3563    0.9618    0.2291 O   0  0  0  0  0  0  0  0  0  0  0  0
   -2.8861   -1.0043    2.9523 H   0  0  0  0  0  0  0  0  0  0  0  0
   -1.4048   -0.5556    3.8013 H   0  0  0  0  0  0  0  0  0  0  0  0
   -2.3264    0.6658    2.9162 H   0  0  0  0  0  0  0  0  0  0  0  0
   -0.2699   -0.0786    1.6403 H   0  0  0  0  0  0  0  0  0  0  0  0
   -0.8813   -1.7191    1.6330 H   0  0  0  0  0  0  0  0  0  0  0  0
   -1.3675   -0.7060   -0.5061 H   0  0  0  0  0  0  0  0  0  0  0  0
   -2.8888   -0.9676    0.3491 H   0  0  0  0  0  0  0  0  0  0  0  0
    2.1091   -1.7468   -2.4214 C   0  0  0  0  0  0  0  0  0  0  0  0
    2.1091   -1.7468   -0.8985 C   0  0  0  0  0  0  0  0  0  0  0  0
    2.1091   -0.3537   -0.3030 C   0  0  0  0  0  0  0  0  0  0  0  0
    0.9261    0.3098   -0.6706 O   0  0  0  0  0  0  0  0  0  0  0  0
    0.8554    1.6279   -0.1897 C   0  0  0  0  0  0  0  0  0  0  0  0
   -0.4480    2.2457   -0.6405 C   0  0  0  0  0  3  0  0  0  0  0  0
    2.9911   -1.2325   -2.8110 H   0  0  0  0  0  0  0  0  0  0  0  0
    1.2263   -1.2371   -2.8075 H   0  0  0  0  0  0  0  0  0  0  0  0
    2.1145   -2.7647   -2.8141 H   0  0  0  0  0  0  0  0  0  0  0  0
    2.9906   -2.2733   -0.5222 H   0  0  0  0  0  0  0  0  0  0  0  0
    1.2347   -2.2848   -0.5232 H   0  0  0  0  0  0  0  0  0  0  0  0
    2.9833    0.2113   -0.6634 H   0  0  0  0  0  0  0  0  0  0  0  0
    2.1839   -0.4077    0.7931 H   0  0  0  0  0  0  0  0  0  0  0  0
    0.9226    1.6308    0.9084 H   0  0  0  0  0  0  0  0  0  0  0  0
    1.7082    2.2109   -0.5676 H   0  0  0  0  0  0  0  0  0  0  0  0
   -1.4636    1.5624   -0.1777 H   0  0  0  0  0  0  0  0  0  0  0  0
   -0.5088    2.2575   -1.7293 H   0  0  0  0  0  0  0  0  0  0  0  0
   -0.5256    3.2717   -0.2775 H   0  0  0  0  0  0  0  0  0  0  0  0
  1  2  1  0
  1  5  1  0
  1  6  1  0
  1  7  1  0
  2  3  1  0
  2  8  1  0
  2  9  1  0
  3  4  1  0
  3 10  1  0
  3 11  1  0
  4 27  1  0
 12 13  1  0
 12 18  1  0
 12 19  1  0
 12 20  1  0
 13 14  1  0
 13 21  1  0
 13 22  1  0
 14 15  1  0
 14 23  1  0
 14 24  1  0
 15 16  1  0
 16 17  1  0
 16 25  1  0
 16 26  1  0
 17 28  1  0
 17 29  1  0
M  RAD  1  17   2
M  END
>  <reaction>  (13) 
rmg_rxn_311

>  <mol_properties>  (13) 
{"2": {"label": "*0", "atom_type": "Cs"}, "3": {"label": "*1", "atom_type": "O2s"}, "15": {"label": "*4", "atom_type": "Cs"}, "16": {"label": "*3", "atom_type": "Cs"}, "26": {"label": "*2", "atom_type": "H0"}}

>  <type>  (13) 
unop_9

>  <geom_source>  (13) 
Heuristics

$$$$

     RDKit          3D

 29 27  0  0  0  0  0  0  0  0999 V2000
   -2.1601    2.6994    1.7618 C   0  0  0  0  0  0  0  0  0  0  0  0
   -1.4840    1.3863    2.1311 C   0  0  0  0  0  0  0  0  0  0  0  0
   -2.1961    0.1650    1.5686 C   0  0  0  0  0  0  0  0  0  0  0  0
   -2.2591    0.1560    0.1550 O   0  0  0  0  0  0  0  0  0  0  0  0
   -3.1740    2.7404    2.1665 H   0  0  0  0  0  0  0  0  0  0  0  0
   -1.6071    3.5535    2.1552 H   0  0  0  0  0  0  0  0  0  0  0  0
   -2.2320    2.8080    0.6792 H   0  0  0  0  0  0  0  0  0  0  0  0
   -0.4468    1.3866    1.7762 H   0  0  0  0  0  0  0  0  0  0  0  0
   -1.4330    1.2802    3.2189 H   0  0  0  0  0  0  0  0  0  0  0  0
   -1.7173   -0.7499    1.9398 H   0  0  0  0  0  0  0  0  0  0  0  0
   -3.2345    0.1506    1.9069 H   0  0  0  0  0  0  0  0  0  0  0  0
    2.2063   -2.5526   -2.4955 C   0  0  0  0  0  0  0  0  0  0  0  0
    2.2063   -2.5526   -0.9726 C   0  0  0  0  0  0  0  0  0  0  0  0
    2.2063   -1.1596   -0.3771 C   0  0  0  0  0  0  0  0  0  0  0  0
    1.0233   -0.4960   -0.7447 O   0  0  0  0  0  0  0  0  0  0  0  0
    0.9525    0.8221   -0.2638 C   0  0  0  0  0  0  0  0  0  0  0  0
   -0.3508    1.4399   -0.7146 C   0  0  0  0  0  3  0  0  0  0  0  0
    3.0883   -2.0383   -2.8851 H   0  0  0  0  0  0  0  0  0  0  0  0
    1.3235   -2.0429   -2.8816 H   0  0  0  0  0  0  0  0  0  0  0  0
    2.2117   -3.5705   -2.8882 H   0  0  0  0  0  0  0  0  0  0  0  0
    3.0878   -3.0791   -0.5963 H   0  0  0  0  0  0  0  0  0  0  0  0
    1.3319   -3.0906   -0.5973 H   0  0  0  0  0  0  0  0  0  0  0  0
    3.0805   -0.5945   -0.7375 H   0  0  0  0  0  0  0  0  0  0  0  0
    2.2810   -1.2135    0.7190 H   0  0  0  0  0  0  0  0  0  0  0  0
    1.0198    0.8250    0.8343 H   0  0  0  0  0  0  0  0  0  0  0  0
    1.8054    1.4051   -0.6416 H   0  0  0  0  0  0  0  0  0  0  0  0
   -1.3664    0.7566   -0.2518 H   0  0  0  0  0  0  0  0  0  0  0  0
   -0.4116    1.4517   -1.8034 H   0  0  0  0  0  0  0  0  0  0  0  0
   -0.4284    2.4659   -0.3515 H   0  0  0  0  0  0  0  0  0  0  0  0
  1  2  1  0
  1  5  1  0
  1  6  1  0
  1  7  1  0
  2  3  1  0
  2  8  1  0
  2  9  1  0
  3  4  1  0
  3 10  1  0
  3 11  1  0
  4 27  1  0
 12 13  1  0
 12 18  1  0
 12 19  1  0
 12 20  1  0
 13 14  1  0
 13 21  1  0
 13 22  1  0
 14 15  1  0
 14 23  1  0
 14 24  1  0
 15 16  1  0
 16 17  1  0
 16 25  1  0
 16 26  1  0
 17 28  1  0
 17 29  1  0
M  RAD  1  17   2
M  END
>  <reaction>  (14) 
rmg_rxn_311

>  <mol_properties>  (14) 
{"2": {"label": "*0", "atom_type": "Cs"}, "3": {"label": "*1", "atom_type": "O2s"}, "15": {"label": "*4", "atom_type": "Cs"}, "16": {"label": "*3", "atom_type": "Cs"}, "26": {"label": "*2", "atom_type": "H0"}}

>  <type>  (14) 
unop_10

>  <geom_source>  (14) 
Heuristics

$$$$

     RDKit          3D

 29 27  0  0  0  0  0  0  0  0999 V2000
   -3.1144   -1.5242   -0.2445 C   0  0  0  0  0  0  0  0  0  0  0  0
   -2.9396   -0.1502   -0.8765 C   0  0  0  0  0  0  0  0  0  0  0  0
   -2.8942    0.9785    0.1429 C   0  0  0  0  0  0  0  0  0  0  0  0
   -1.8226    0.8614    1.0596 O   0  0  0  0  0  0  0  0  0  0  0  0
   -4.0603   -1.5833    0.2989 H   0  0  0  0  0  0  0  0  0  0  0  0
   -3.1122   -2.3106   -1.0006 H   0  0  0  0  0  0  0  0  0  0  0  0
   -2.3125   -1.7300    0.4651 H   0  0  0  0  0  0  0  0  0  0  0  0
   -2.0199   -0.1266   -1.4726 H   0  0  0  0  0  0  0  0  0  0  0  0
   -3.7587    0.0524   -1.5731 H   0  0  0  0  0  0  0  0  0  0  0  0
   -2.8571    1.9461   -0.3733 H   0  0  0  0  0  0  0  0  0  0  0  0
   -3.8011    0.9675    0.7515 H   0  0  0  0  0  0  0  0  0  0  0  0
    2.6428   -1.8472   -1.5909 C   0  0  0  0  0  0  0  0  0  0  0  0
    2.6428   -1.8472   -0.0680 C   0  0  0  0  0  0  0  0  0  0  0  0
    2.6428   -0.4541    0.5275 C   0  0  0  0  0  0  0  0  0  0  0  0
    1.4598    0.2095    0.1599 O   0  0  0  0  0  0  0  0  0  0  0  0
    1.3891    1.5275    0.6408 C   0  0  0  0  0  0  0  0  0  0  0  0
    0.0858    2.1453    0.1900 C   0  0  0  0  0  3  0  0  0  0  0  0
    3.5249   -1.3329   -1.9805 H   0  0  0  0  0  0  0  0  0  0  0  0
    1.7601   -1.3375   -1.9770 H   0  0  0  0  0  0  0  0  0  0  0  0
    2.6483   -2.8651   -1.9836 H   0  0  0  0  0  0  0  0  0  0  0  0
    3.5243   -2.3737    0.3083 H   0  0  0  0  0  0  0  0  0  0  0  0
    1.7684   -2.3852    0.3073 H   0  0  0  0  0  0  0  0  0  0  0  0
    3.5170    0.1109    0.1671 H   0  0  0  0  0  0  0  0  0  0  0  0
    2.7176   -0.5081    1.6236 H   0  0  0  0  0  0  0  0  0  0  0  0
    1.4563    1.5304    1.7389 H   0  0  0  0  0  0  0  0  0  0  0  0
    2.2419    2.1105    0.2629 H   0  0  0  0  0  0  0  0  0  0  0  0
   -0.9299    1.4620    0.6528 H   0  0  0  0  0  0  0  0  0  0  0  0
    0.0249    2.1571   -0.8988 H   0  0  0  0  0  0  0  0  0  0  0  0
    0.0081    3.1713    0.5530 H   0  0  0  0  0  0  0  0  0  0  0  0
  1  2  1  0
  1  5  1  0
  1  6  1  0
  1  7  1  0
  2  3  1  0
  2  8  1  0
  2  9  1  0
  3  4  1  0
  3 10  1  0
  3 11  1  0
  4 27  1  0
 12 13  1  0
 12 18  1  0
 12 19  1  0
 12 20  1  0
 13 14  1  0
 13 21  1  0
 13 22  1  0
 14 15  1  0
 14 23  1  0
 14 24  1  0
 15 16  1  0
 16 17  1  0
 16 25  1  0
 16 26  1  0
 17 28  1  0
 17 29  1  0
M  RAD  1  17   2
M  END
>  <reaction>  (15) 
rmg_rxn_311

>  <mol_properties>  (15) 
{"2": {"label": "*0", "atom_type": "Cs"}, "3": {"label": "*1", "atom_type": "O2s"}, "15": {"label": "*4", "atom_type": "Cs"}, "16": {"label": "*3", "atom_type": "Cs"}, "26": {"label": "*2", "atom_type": "H0"}}

>  <type>  (15) 
unop_11

>  <geom_source>  (15) 
Heuristics

$$$$

     RDKit          3D

 29 27  0  0  0  0  0  0  0  0999 V2000
   -1.8776    0.8844    3.0414 C   0  0  0  0  0  0  0  0  0  0  0  0
   -1.0817    0.0435    2.0527 C   0  0  0  0  0  0  0  0  0  0  0  0
   -1.8975   -0.3982    0.8467 C   0  0  0  0  0  0  0  0  0  0  0  0
   -2.3978    0.6833    0.0835 O   0  0  0  0  0  0  0  0  0  0  0  0
   -2.7155    0.3140    3.4487 H   0  0  0  0  0  0  0  0  0  0  0  0
   -1.2547    1.2083    3.8764 H   0  0  0  0  0  0  0  0  0  0  0  0
   -2.2865    1.7710    2.5560 H   0  0  0  0  0  0  0  0  0  0  0  0
   -0.2073    0.6045    1.7030 H   0  0  0  0  0  0  0  0  0  0  0  0
   -0.6911   -0.8515    2.5463 H   0  0  0  0  0  0  0  0  0  0  0  0
   -1.3002   -1.0709    0.2184 H   0  0  0  0  0  0  0  0  0  0  0  0
   -2.7779   -0.9546    1.1760 H   0  0  0  0  0  0  0  0  0  0  0  0
    2.0676   -2.0254   -2.5670 C   0  0  0  0  0  0  0  0  0  0  0  0
    2.0676   -2.0254   -1.0441 C   0  0  0  0  0  0  0  0  0  0  0  0
    2.0676   -0.6323   -0.4486 C   0  0  0  0  0  0  0  0  0  0  0  0
    0.8846    0.0313   -0.8162 O   0  0  0  0  0  0  0  0  0  0  0  0
    0.8139    1.3494   -0.3353 C   0  0  0  0  0  0  0  0  0  0  0  0
   -0.4894    1.9671   -0.7861 C   0  0  0  0  0  3  0  0  0  0  0  0
    2.9497   -1.5110   -2.9567 H   0  0  0  0  0  0  0  0  0  0  0  0
    1.1849   -1.5157   -2.9531 H   0  0  0  0  0  0  0  0  0  0  0  0
    2.0731   -3.0432   -2.9597 H   0  0  0  0  0  0  0  0  0  0  0  0
    2.9491   -2.5518   -0.6679 H   0  0  0  0  0  0  0  0  0  0  0  0
    1.1932   -2.5633   -0.6689 H   0  0  0  0  0  0  0  0  0  0  0  0
    2.9418   -0.0672   -0.8090 H   0  0  0  0  0  0  0  0  0  0  0  0
    2.1424   -0.6862    0.6474 H   0  0  0  0  0  0  0  0  0  0  0  0
    0.8811    1.3522    0.7628 H   0  0  0  0  0  0  0  0  0  0  0  0
    1.6667    1.9323   -0.7132 H   0  0  0  0  0  0  0  0  0  0  0  0
   -1.5051    1.2839   -0.3233 H   0  0  0  0  0  0  0  0  0  0  0  0
   -0.5502    1.9790   -1.8750 H   0  0  0  0  0  0  0  0  0  0  0  0
   -0.5671    2.9932   -0.4231 H   0  0  0  0  0  0  0  0  0  0  0  0
  1  2  1  0
  1  5  1  0
  1  6  1  0
  1  7  1  0
  2  3  1  0
  2  8  1  0
  2  9  1  0
  3  4  1  0
  3 10  1  0
  3 11  1  0
  4 27  1  0
 12 13  1  0
 12 18  1  0
 12 19  1  0
 12 20  1  0
 13 14  1  0
 13 21  1  0
 13 22  1  0
 14 15  1  0
 14 23  1  0
 14 24  1  0
 15 16  1  0
 16 17  1  0
 16 25  1  0
 16 26  1  0
 17 28  1  0
 17 29  1  0
M  RAD  1  17   2
M  END
>  <reaction>  (16) 
rmg_rxn_311

>  <mol_properties>  (16) 
{"2": {"label": "*0", "atom_type": "Cs"}, "3": {"label": "*1", "atom_type": "O2s"}, "15": {"label": "*4", "atom_type": "Cs"}, "16": {"label": "*3", "atom_type": "Cs"}, "26": {"label": "*2", "atom_type": "H0"}}

>  <type>  (16) 
unop_12

>  <geom_source>  (16) 
Heuristics

$$$$

     RDKit          3D

 29 27  0  0  0  0  0  0  0  0999 V2000
   -1.2310    0.3106   -0.5137 O   0  0  0  0  0  0  0  0  0  0  0  0
    1.5763    0.8904   -1.1262 O   0  0  0  0  0  0  0  0  0  0  0  0
    3.0798    0.4420    0.6904 C   0  0  0  0  0  0  0  0  0  0  0  0
   -3.6148    0.1607   -0.1465 C   0  0  0  0  0  0  0  0  0  0  0  0
   -2.2364    0.3942    0.4792 C   0  0  0  0  0  0  0  0  0  0  0  0
    2.9175    0.6397   -0.8173 C   0  0  0  0  0  0  0  0  0  0  0  0
    4.5385    0.1916    1.0614 C   0  0  0  0  0  0  0  0  0  0  0  0
   -0.6492   -0.9756   -0.5226 C   0  0  0  0  0  0  0  0  0  0  0  0
   -4.7274    0.3269    0.8845 C   0  0  0  0  0  0  0  0  0  0  0  0
    0.3188   -1.0710   -1.6884 C   0  0  0  0  0  3  0  0  0  0  0  0
    2.7194    1.3487    1.2232 H   0  0  0  0  0  0  0  0  0  0  0  0
    2.4680   -0.4256    1.0198 H   0  0  0  0  0  0  0  0  0  0  0  0
   -3.7734    0.8878   -0.9724 H   0  0  0  0  0  0  0  0  0  0  0  0
   -3.6668   -0.8651   -0.5697 H   0  0  0  0  0  0  0  0  0  0  0  0
    3.2677   -0.2628   -1.3657 H   0  0  0  0  0  0  0  0  0  0  0  0
    3.5255    1.5083   -1.1487 H   0  0  0  0  0  0  0  0  0  0  0  0
   -2.0756   -0.3022    1.3373 H   0  0  0  0  0  0  0  0  0  0  0  0
   -2.2085    1.4220    0.9004 H   0  0  0  0  0  0  0  0  0  0  0  0
    5.1667    1.0582    0.7640 H   0  0  0  0  0  0  0  0  0  0  0  0
    4.9132   -0.7242    0.5563 H   0  0  0  0  0  0  0  0  0  0  0  0
    4.6238    0.0515    2.1596 H   0  0  0  0  0  0  0  0  0  0  0  0
   -1.4209   -1.7699   -0.6410 H   0  0  0  0  0  0  0  0  0  0  0  0
   -0.0771   -1.1459    0.4167 H   0  0  0  0  0  0  0  0  0  0  0  0
   -5.7115    0.1522    0.4007 H   0  0  0  0  0  0  0  0  0  0  0  0
   -4.7154    1.3557    1.3034 H   0  0  0  0  0  0  0  0  0  0  0  0
   -4.6018   -0.4069    1.7091 H   0  0  0  0  0  0  0  0  0  0  0  0
   -0.2217   -0.9283   -2.6482 H   0  0  0  0  0  0  0  0  0  0  0  0
    0.8156   -2.0642   -1.6910 H   0  0  0  0  0  0  0  0  0  0  0  0
    1.0004   -0.1989   -1.0545 H   0  0  0  0  0  0  0  0  0  0  0  0
  1  8  1  0
  1  5  1  0
  2  6  1  0
  2 29  1  0
  3  7  1  0
  3  6  1  0
  3 11  1  0
  3 12  1  0
  4  9  1  0
  4  5  1  0
  4 13  1  0
  4 14  1  0
  5 17  1  0
  5 18  1  0
  6 15  1  0
  6 16  1  0
  7 19  1  0
  7 20  1  0
  7 21  1  0
  8 10  1  0
  8 22  1  0
  8 23  1  0
  9 24  1  0
  9 25  1  0
  9 26  1  0
 10 27  1  0
 10 28  1  0
M  RAD  1  10   2
M  END
>  <reaction>  (17) 
rmg_rxn_311

>  <mol_properties>  (17) 
{"2": {"label": "*0", "atom_type": "Cs"}, "3": {"label": "*1", "atom_type": "O2s"}, "15": {"label": "*4", "atom_type": "Cs"}, "16": {"label": "*3", "atom_type": "Cs"}, "26": {"label": "*2", "atom_type": "H0"}}

>  <type>  (17) 
unop_13

>  <geom_source>  (17) 
AutoTST

$$$$

     RDKit          3D

 29 27  0  0  0  0  0  0  0  0999 V2000
   -1.9373    2.0124    2.5700 C   0  0  0  0  0  0  0  0  0  0  0  0
   -1.1793    0.7486    2.1876 C   0  0  0  0  0  0  0  0  0  0  0  0
   -1.9845   -0.1896    1.3007 C   0  0  0  0  0  0  0  0  0  0  0  0
   -2.3633    0.3935    0.0683 O   0  0  0  0  0  0  0  0  0  0  0  0
   -2.8348    1.7676    3.1427 H   0  0  0  0  0  0  0  0  0  0  0  0
   -1.3206    2.6744    3.1794 H   0  0  0  0  0  0  0  0  0  0  0  0
   -2.2519    2.5602    1.6813 H   0  0  0  0  0  0  0  0  0  0  0  0
   -0.2485    1.0119    1.6721 H   0  0  0  0  0  0  0  0  0  0  0  0
   -0.8840    0.1985    3.0862 H   0  0  0  0  0  0  0  0  0  0  0  0
   -1.4233   -1.1175    1.1328 H   0  0  0  0  0  0  0  0  0  0  0  0
   -2.9202   -0.4588    1.7958 H   0  0  0  0  0  0  0  0  0  0  0  0
    2.1021   -2.3151   -2.5822 C   0  0  0  0  0  0  0  0  0  0  0  0
    2.1021   -2.3151   -1.0593 C   0  0  0  0  0  0  0  0  0  0  0  0
    2.1021   -0.9221   -0.4638 C   0  0  0  0  0  0  0  0  0  0  0  0
    0.9191   -0.2585   -0.8314 O   0  0  0  0  0  0  0  0  0  0  0  0
    0.8484    1.0596   -0.3505 C   0  0  0  0  0  0  0  0  0  0  0  0
   -0.4550    1.6774   -0.8013 C   0  0  0  0  0  3  0  0  0  0  0  0
    2.9841   -1.8008   -2.9718 H   0  0  0  0  0  0  0  0  0  0  0  0
    1.2193   -1.8054   -2.9683 H   0  0  0  0  0  0  0  0  0  0  0  0
    2.1075   -3.3330   -2.9748 H   0  0  0  0  0  0  0  0  0  0  0  0
    2.9836   -2.8416   -0.6830 H   0  0  0  0  0  0  0  0  0  0  0  0
    1.2277   -2.8531   -0.6840 H   0  0  0  0  0  0  0  0  0  0  0  0
    2.9763   -0.3570   -0.8242 H   0  0  0  0  0  0  0  0  0  0  0  0
    2.1768   -0.9760    0.6323 H   0  0  0  0  0  0  0  0  0  0  0  0
    0.9156    1.0625    0.7476 H   0  0  0  0  0  0  0  0  0  0  0  0
    1.7012    1.6426   -0.7284 H   0  0  0  0  0  0  0  0  0  0  0  0
   -1.4706    0.9941   -0.3385 H   0  0  0  0  0  0  0  0  0  0  0  0
   -0.5158    1.6892   -1.8901 H   0  0  0  0  0  0  0  0  0  0  0  0
   -0.5326    2.7034   -0.4382 H   0  0  0  0  0  0  0  0  0  0  0  0
  1  2  1  0
  1  5  1  0
  1  6  1  0
  1  7  1  0
  2  3  1  0
  2  8  1  0
  2  9  1  0
  3  4  1  0
  3 10  1  0
  3 11  1  0
  4 27  1  0
 12 13  1  0
 12 18  1  0
 12 19  1  0
 12 20  1  0
 13 14  1  0
 13 21  1  0
 13 22  1  0
 14 15  1  0
 14 23  1  0
 14 24  1  0
 15 16  1  0
 16 17  1  0
 16 25  1  0
 16 26  1  0
 17 28  1  0
 17 29  1  0
M  RAD  1  17   2
M  END
>  <reaction>  (18) 
rmg_rxn_311

>  <mol_properties>  (18) 
{"2": {"label": "*0", "atom_type": "Cs"}, "3": {"label": "*1", "atom_type": "O2s"}, "15": {"label": "*4", "atom_type": "Cs"}, "16": {"label": "*3", "atom_type": "Cs"}, "26": {"label": "*2", "atom_type": "H0"}}

>  <type>  (18) 
unop_14

>  <geom_source>  (18) 
gaussian_log

$$$$
