
     RDKit          3D

 14 13  0  0  0  0  0  0  0  0999 V2000
   -2.1430    0.4492    0.2556 C   0  0  0  0  0  0  0  0  0  0  0  0
   -0.8980   -0.1952    0.2757 O   0  0  0  0  0  0  0  0  0  0  0  0
   -0.3667   -0.3041    1.5713 C   0  0  0  0  0  0  0  0  0  0  0  0
    0.9667   -1.0099    1.4715 C   0  0  0  0  0  0  0  0  0  0  0  0
    1.6584   -1.1995    2.7884 C   0  0  0  0  0  0  0  0  0  0  0  0
    1.2262   -0.8381    3.8485 O   0  0  0  0  0  0  0  0  0  0  0  0
   -2.0716    1.4724    0.6470 H   0  0  0  0  0  0  0  0  0  0  0  0
   -2.8872   -0.0973    0.8495 H   0  0  0  0  0  0  0  0  0  0  0  0
   -2.4755    0.4883   -0.7805 H   0  0  0  0  0  0  0  0  0  0  0  0
   -0.2382    0.6884    2.0233 H   0  0  0  0  0  0  0  0  0  0  0  0
   -1.0467   -0.8675    2.2240 H   0  0  0  0  0  0  0  0  0  0  0  0
    1.6454   -0.4596    0.8107 H   0  0  0  0  0  0  0  0  0  0  0  0
    0.8471   -1.9957    1.0089 H   0  0  0  0  0  0  0  0  0  0  0  0
    2.6387   -1.7165    2.7294 H   0  0  0  0  0  0  0  0  0  0  0  0
  1  2  1  0
  1  7  1  0
  1  8  1  0
  1  9  1  0
  2  3  1  0
  3  4  1  0
  3 10  1  0
  3 11  1  0
  4  5  1  0
  4 12  1  0
  4 13  1  0
  5  6  2  0
  5 14  1  0
M  END
>  <reaction>  (1) 
rmg_rxn_15637

>  <mol_properties>  (1) 
{"0": {"label": "donator", "atom_type": "Cs"}, "6": {"label": "d_hydrogen", "atom_type": "H0"}}

>  <type>  (1) 
r1h

$$$$

     RDKit          3D

  8  7  0  0  0  0  0  0  0  0999 V2000
    1.7077   -0.1964   -0.0607 C   0  0  0  0  0  3  0  0  0  0  0  0
    0.4209   -0.4565    0.2808 O   0  0  0  0  0  0  0  0  0  0  0  0
   -0.4607    0.4385   -0.2968 N   0  0  0  0  0  0  0  0  0  0  0  0
   -1.6584    0.1416   -0.0244 C   0  0  0  0  0  0  0  0  0  0  0  0
    2.4163   -0.7685    0.5170 H   0  0  0  0  0  0  0  0  0  0  0  0
    1.9214    0.7645   -0.5045 H   0  0  0  0  0  0  0  0  0  0  0  0
   -2.4185    0.7953   -0.4307 H   0  0  0  0  0  0  0  0  0  0  0  0
   -1.9286   -0.7185    0.5831 H   0  0  0  0  0  0  0  0  0  0  0  0
  1  2  1  0
  1  5  1  0
  1  6  1  0
  2  3  1  0
  3  4  2  3
  4  7  1  0
  4  8  1  0
M  RAD  1   1   2
M  END
>  <reaction>  (2) 
rmg_rxn_15637

>  <mol_properties>  (2) 
{"0": {"label": "acceptor", "atom_type": "Cs"}}

>  <type>  (2) 
r2

$$$$

     RDKit          3D

  9  8  0  0  0  0  0  0  0  0999 V2000
   -1.5470   -0.0755   -0.1976 C   0  0  0  0  0  0  0  0  0  0  0  0
   -0.2885    0.4507    0.1749 O   0  0  0  0  0  0  0  0  0  0  0  0
   -0.1502    1.7216   -0.3294 N   0  0  0  0  0  0  0  0  0  0  0  0
    0.9626    2.2353   -0.0219 C   0  0  0  0  0  0  0  0  0  0  0  0
   -1.6392   -0.1356   -1.2844 H   0  0  0  0  0  0  0  0  0  0  0  0
   -2.3597    0.5337    0.2044 H   0  0  0  0  0  0  0  0  0  0  0  0
   -1.5879   -1.0750    0.2318 H   0  0  0  0  0  0  0  0  0  0  0  0
    1.1497    3.2381   -0.3820 H   0  0  0  0  0  0  0  0  0  0  0  0
    1.7060    1.7101    0.5739 H   0  0  0  0  0  0  0  0  0  0  0  0
  1  2  1  0
  1  5  1  0
  1  6  1  0
  1  7  1  0
  2  3  1  0
  3  4  2  3
  4  8  1  0
  4  9  1  0
M  END
>  <reaction>  (3) 
rmg_rxn_15637

>  <mol_properties>  (3) 
{"0": {"label": "acceptor", "atom_type": "Cs"}, "8": {"label": "a_hydrogen", "atom_type": "H0"}}

>  <type>  (3) 
r2h

$$$$

     RDKit          3D

 22 20  0  0  0  0  0  0  0  0999 V2000
   -1.2225    2.0957    0.1201 C   0  0  0  0  0  3  0  0  0  0  0  0
   -1.5942    1.4111   -1.0321 O   0  0  0  0  0  0  0  0  0  0  0  0
   -1.4083    0.0557   -0.8676 N   0  0  0  0  0  0  0  0  0  0  0  0
   -1.6504   -0.5934   -1.9244 C   0  0  0  0  0  0  0  0  0  0  0  0
   -1.4696    3.1446   -0.0190 H   0  0  0  0  0  0  0  0  0  0  0  0
   -1.6340    1.6600    1.0313 H   0  0  0  0  0  0  0  0  0  0  0  0
   -1.5179   -1.6659   -1.8687 H   0  0  0  0  0  0  0  0  0  0  0  0
   -1.9659   -0.1113   -2.8468 H   0  0  0  0  0  0  0  0  0  0  0  0
    1.4970    1.9428    0.1151 C   0  0  0  0  0  0  0  0  0  0  0  0
    2.0480    0.9564    0.9009 O   0  0  0  0  0  0  0  0  0  0  0  0
    1.7060   -0.3663    0.5316 C   0  0  0  0  0  0  0  0  0  0  0  0
    0.6413   -0.9195    1.4611 C   0  0  0  0  0  0  0  0  0  0  0  0
    0.0265   -2.2034    0.9948 C   0  0  0  0  0  0  0  0  0  0  0  0
    0.3217   -2.7846   -0.0150 O   0  0  0  0  0  0  0  0  0  0  0  0
    0.1617    2.0232    0.2202 H   0  0  0  0  0  0  0  0  0  0  0  0
    1.6419    1.7825   -0.9593 H   0  0  0  0  0  0  0  0  0  0  0  0
    1.8605    2.9132    0.4479 H   0  0  0  0  0  0  0  0  0  0  0  0
    1.3483   -0.3989   -0.5004 H   0  0  0  0  0  0  0  0  0  0  0  0
    2.6145   -0.9680    0.5895 H   0  0  0  0  0  0  0  0  0  0  0  0
   -0.1799   -0.2041    1.5582 H   0  0  0  0  0  0  0  0  0  0  0  0
    1.0346   -1.0713    2.4717 H   0  0  0  0  0  0  0  0  0  0  0  0
   -0.7635   -2.6080    1.6608 H   0  0  0  0  0  0  0  0  0  0  0  0
  1  2  1  0
  1  5  1  0
  1  6  1  0
  2  3  1  0
  3  4  2  3
  4  7  1  0
  4  8  1  0
  9 10  1  0
  9 15  1  0
  9 16  1  0
  9 17  1  0
 10 11  1  0
 11 12  1  0
 11 18  1  0
 11 19  1  0
 12 13  1  0
 12 20  1  0
 12 21  1  0
 13 14  2  0
 13 22  1  0
M  RAD  1   1   2
M  END
>  <reaction>  (4) 
rmg_rxn_15637

>  <mol_properties>  (4) 
{"0": {"label": "*3", "atom_type": "Cs"}, "1": {"label": "*4", "atom_type": "O2s"}, "8": {"label": "*1", "atom_type": "Cs"}, "9": {"label": "*0", "atom_type": "O2s"}, "14": {"label": "*2", "atom_type": "H0"}}

>  <type>  (4) 
ts

$$$$

     RDKit          3D

 22 20  0  0  0  0  0  0  0  0999 V2000
   -2.2211    0.9012    0.7887 C   0  0  0  0  0  0  0  0  0  0  0  0
   -2.6396   -0.2034    0.0534 O   0  0  0  0  0  0  0  0  0  0  0  0
   -1.6763   -1.1901    0.0005 N   0  0  0  0  0  0  0  0  0  0  0  0
   -1.9704   -2.2278   -0.6584 C   0  0  0  0  0  0  0  0  0  0  0  0
   -3.0751    1.5615    0.8863 H   0  0  0  0  0  0  0  0  0  0  0  0
   -1.7691    0.6380    1.7430 H   0  0  0  0  0  0  0  0  0  0  0  0
   -1.2214   -2.9984   -0.6989 H   0  0  0  0  0  0  0  0  0  0  0  0
   -2.9150   -2.3768   -1.1701 H   0  0  0  0  0  0  0  0  0  0  0  0
   -0.3837    2.1624   -0.6665 C   0  0  0  0  0  3  0  0  0  0  0  0
    0.8622    2.1714   -0.0695 O   0  0  0  0  0  0  0  0  0  0  0  0
    1.6583    1.0252   -0.2575 C   0  0  0  0  0  0  0  0  0  0  0  0
    1.2752   -0.1354    0.6665 C   0  0  0  0  0  0  0  0  0  0  0  0
    2.1921   -1.3051    0.5129 C   0  0  0  0  0  0  0  0  0  0  0  0
    3.0582   -1.4190   -0.3089 O   0  0  0  0  0  0  0  0  0  0  0  0
   -1.2945    1.5454    0.0962 H   0  0  0  0  0  0  0  0  0  0  0  0
   -0.4092    1.6421   -1.6255 H   0  0  0  0  0  0  0  0  0  0  0  0
   -0.7418    3.1854   -0.7328 H   0  0  0  0  0  0  0  0  0  0  0  0
    1.6119    0.6883   -1.3015 H   0  0  0  0  0  0  0  0  0  0  0  0
    2.6825    1.3409   -0.0403 H   0  0  0  0  0  0  0  0  0  0  0  0
    0.2612   -0.4947    0.4445 H   0  0  0  0  0  0  0  0  0  0  0  0
    1.2838    0.1919    1.7087 H   0  0  0  0  0  0  0  0  0  0  0  0
    1.9920   -2.1118    1.2467 H   0  0  0  0  0  0  0  0  0  0  0  0
  1  2  1  0
  1  5  1  0
  1  6  1  0
  1 15  1  0
  2  3  1  0
  3  4  2  3
  4  7  1  0
  4  8  1  0
  9 10  1  0
  9 16  1  0
  9 17  1  0
 10 11  1  0
 11 12  1  0
 11 18  1  0
 11 19  1  0
 12 13  1  0
 12 20  1  0
 12 21  1  0
 13 14  2  0
 13 22  1  0
M  RAD  1   9   2
M  END
>  <reaction>  (5) 
rmg_rxn_15637

>  <mol_properties>  (5) 
{"0": {"label": "*3", "atom_type": "Cs"}, "1": {"label": "*4", "atom_type": "O2s"}, "8": {"label": "*1", "atom_type": "Cs"}, "9": {"label": "*0", "atom_type": "O2s"}, "14": {"label": "*2", "atom_type": "H0"}}

>  <type>  (5) 
unop_1

>  <geom_source>  (5) 
crest_best.xyz

$$$$

     RDKit          3D

 22 20  0  0  0  0  0  0  0  0999 V2000
   -0.9145    1.2790   -0.7822 C   0  0  0  0  0  0  0  0  0  0  0  0
   -1.5874    2.4053   -0.2549 O   0  0  0  0  0  0  0  0  0  0  0  0
   -2.1214    3.1480   -1.2806 N   0  0  0  0  0  0  0  0  0  0  0  0
   -2.7347    4.1686   -0.8576 C   0  0  0  0  0  0  0  0  0  0  0  0
   -1.6027    0.6368   -1.3365 H   0  0  0  0  0  0  0  0  0  0  0  0
   -0.0941    1.5845   -1.4356 H   0  0  0  0  0  0  0  0  0  0  0  0
   -3.1853    4.8078   -1.6051 H   0  0  0  0  0  0  0  0  0  0  0  0
   -2.8152    4.4074    0.2007 H   0  0  0  0  0  0  0  0  0  0  0  0
    1.2132    0.9545    0.7183 C   0  0  0  0  0  3  0  0  0  0  0  0
    1.2132   -0.3008    1.3428 O   0  0  0  0  0  0  0  0  0  0  0  0
    1.2132   -1.3620    0.4227 C   0  0  0  0  0  0  0  0  0  0  0  0
    1.2132   -2.6569    1.2035 C   0  0  0  0  0  0  0  0  0  0  0  0
    1.2132   -3.8876    0.3466 C   0  0  0  0  0  0  0  0  0  0  0  0
    1.2132   -3.8876   -0.8539 O   0  0  0  0  0  0  0  0  0  0  0  0
    0.1449    1.1174   -0.0351 H   0  0  0  0  0  0  0  0  0  0  0  0
    2.1034    1.0903    0.0905 H   0  0  0  0  0  0  0  0  0  0  0  0
    1.2132    1.7106    1.5019 H   0  0  0  0  0  0  0  0  0  0  0  0
    0.3308   -1.3114   -0.2288 H   0  0  0  0  0  0  0  0  0  0  0  0
    2.0956   -1.3114   -0.2288 H   0  0  0  0  0  0  0  0  0  0  0  0
    0.3419   -2.7076    1.8656 H   0  0  0  0  0  0  0  0  0  0  0  0
    2.0845   -2.7076    1.8656 H   0  0  0  0  0  0  0  0  0  0  0  0
    1.2132   -4.8454    0.9073 H   0  0  0  0  0  0  0  0  0  0  0  0
  1  2  1  0
  1  5  1  0
  1  6  1  0
  1 15  1  0
  2  3  1  0
  3  4  2  3
  4  7  1  0
  4  8  1  0
  9 10  1  0
  9 16  1  0
  9 17  1  0
 10 11  1  0
 11 12  1  0
 11 18  1  0
 11 19  1  0
 12 13  1  0
 12 20  1  0
 12 21  1  0
 13 14  2  0
 13 22  1  0
M  RAD  1   9   2
M  END
>  <reaction>  (6) 
rmg_rxn_15637

>  <mol_properties>  (6) 
{"0": {"label": "*3", "atom_type": "Cs"}, "1": {"label": "*4", "atom_type": "O2s"}, "8": {"label": "*1", "atom_type": "Cs"}, "9": {"label": "*0", "atom_type": "O2s"}, "14": {"label": "*2", "atom_type": "H0"}}

>  <type>  (6) 
unop_2

>  <geom_source>  (6) 
Heuristics

$$$$

     RDKit          3D

 22 20  0  0  0  0  0  0  0  0999 V2000
    2.1612   -1.3004   -0.5253 C   0  0  0  0  0  0  0  0  0  0  0  0
    2.4157    0.0632   -0.5749 O   0  0  0  0  0  0  0  0  0  0  0  0
    1.9282    0.7325    0.5296 N   0  0  0  0  0  0  0  0  0  0  0  0
    2.1459    1.9779    0.5631 C   0  0  0  0  0  0  0  0  0  0  0  0
    2.6973   -1.7592   -1.3479 H   0  0  0  0  0  0  0  0  0  0  0  0
    2.3802   -1.7476    0.4423 H   0  0  0  0  0  0  0  0  0  0  0  0
    1.7691    2.5082    1.4197 H   0  0  0  0  0  0  0  0  0  0  0  0
    2.6822    2.5241   -0.2058 H   0  0  0  0  0  0  0  0  0  0  0  0
   -0.4577   -1.6285   -0.8493 C   0  0  0  0  0  3  0  0  0  0  0  0
   -0.9965   -1.8395    0.4044 O   0  0  0  0  0  0  0  0  0  0  0  0
   -1.0172   -0.7207    1.2584 C   0  0  0  0  0  0  0  0  0  0  0  0
   -2.0982    0.3042    0.8771 C   0  0  0  0  0  0  0  0  0  0  0  0
   -1.7296    1.1449   -0.3105 C   0  0  0  0  0  0  0  0  0  0  0  0
   -2.4695    1.4432   -1.2086 O   0  0  0  0  0  0  0  0  0  0  0  0
    0.8680   -1.5021   -0.7309 H   0  0  0  0  0  0  0  0  0  0  0  0
   -0.7920   -0.7087   -1.3325 H   0  0  0  0  0  0  0  0  0  0  0  0
   -0.6364   -2.5117   -1.4541 H   0  0  0  0  0  0  0  0  0  0  0  0
   -1.2377   -1.1280    2.2480 H   0  0  0  0  0  0  0  0  0  0  0  0
   -0.0325   -0.2297    1.2767 H   0  0  0  0  0  0  0  0  0  0  0  0
   -2.2188    0.9887    1.7203 H   0  0  0  0  0  0  0  0  0  0  0  0
   -3.0502   -0.1978    0.6940 H   0  0  0  0  0  0  0  0  0  0  0  0
   -0.6876    1.5241   -0.2737 H   0  0  0  0  0  0  0  0  0  0  0  0
  1  2  1  0
  1  5  1  0
  1  6  1  0
  1 15  1  0
  2  3  1  0
  3  4  2  3
  4  7  1  0
  4  8  1  0
  9 10  1  0
  9 16  1  0
  9 17  1  0
 10 11  1  0
 11 12  1  0
 11 18  1  0
 11 19  1  0
 12 13  1  0
 12 20  1  0
 12 21  1  0
 13 14  2  0
 13 22  1  0
M  RAD  1   9   2
M  END
>  <reaction>  (7) 
rmg_rxn_15637

>  <mol_properties>  (7) 
{"0": {"label": "*3", "atom_type": "Cs"}, "1": {"label": "*4", "atom_type": "O2s"}, "8": {"label": "*1", "atom_type": "Cs"}, "9": {"label": "*0", "atom_type": "O2s"}, "14": {"label": "*2", "atom_type": "H0"}}

>  <type>  (7) 
unop_3

>  <geom_source>  (7) 
Heuristics

$$$$

     RDKit          3D

 22 20  0  0  0  0  0  0  0  0999 V2000
   -2.4481   -0.8705   -0.8726 C   0  0  0  0  0  0  0  0  0  0  0  0
   -2.7750    0.2532   -0.0958 O   0  0  0  0  0  0  0  0  0  0  0  0
   -1.6600    1.0397    0.1238 N   0  0  0  0  0  0  0  0  0  0  0  0
   -1.8308    2.0884    0.7979 C   0  0  0  0  0  0  0  0  0  0  0  0
   -3.1874   -1.6273   -0.7168 H   0  0  0  0  0  0  0  0  0  0  0  0
   -2.2826   -0.6337   -1.9204 H   0  0  0  0  0  0  0  0  0  0  0  0
   -0.9601    2.6970    0.9709 H   0  0  0  0  0  0  0  0  0  0  0  0
   -2.7856    2.4034    1.2064 H   0  0  0  0  0  0  0  0  0  0  0  0
   -0.1382   -2.2258    0.7537 C   0  0  0  0  0  3  0  0  0  0  0  0
    1.0574   -2.1863    0.1038 O   0  0  0  0  0  0  0  0  0  0  0  0
    1.7977   -0.9966    0.2155 C   0  0  0  0  0  0  0  0  0  0  0  0
    1.2708    0.1049   -0.7108 C   0  0  0  0  0  0  0  0  0  0  0  0
    2.0498    1.3727   -0.5885 C   0  0  0  0  0  0  0  0  0  0  0  0
    2.8817    1.6118    0.2425 O   0  0  0  0  0  0  0  0  0  0  0  0
   -1.6240   -1.4709   -0.4294 H   0  0  0  0  0  0  0  0  0  0  0  0
   -0.2755   -1.5729    1.6029 H   0  0  0  0  0  0  0  0  0  0  0  0
   -0.5533   -3.2179    0.7828 H   0  0  0  0  0  0  0  0  0  0  0  0
    1.7915   -0.6299    1.2498 H   0  0  0  0  0  0  0  0  0  0  0  0
    2.8238   -1.2552   -0.0599 H   0  0  0  0  0  0  0  0  0  0  0  0
    0.2288    0.3443   -0.4526 H   0  0  0  0  0  0  0  0  0  0  0  0
    1.2801   -0.2309   -1.7498 H   0  0  0  0  0  0  0  0  0  0  0  0
    1.7754    2.1258   -1.3545 H   0  0  0  0  0  0  0  0  0  0  0  0
  1  2  1  0
  1  5  1  0
  1  6  1  0
  1 15  1  0
  2  3  1  0
  3  4  2  3
  4  7  1  0
  4  8  1  0
  9 10  1  0
  9 16  1  0
  9 17  1  0
 10 11  1  0
 11 12  1  0
 11 18  1  0
 11 19  1  0
 12 13  1  0
 12 20  1  0
 12 21  1  0
 13 14  2  0
 13 22  1  0
M  RAD  1   9   2
M  END
>  <reaction>  (8) 
rmg_rxn_15637

>  <mol_properties>  (8) 
{"0": {"label": "*3", "atom_type": "Cs"}, "1": {"label": "*4", "atom_type": "O2s"}, "8": {"label": "*1", "atom_type": "Cs"}, "9": {"label": "*0", "atom_type": "O2s"}, "14": {"label": "*2", "atom_type": "H0"}}

>  <type>  (8) 
unop_4

>  <geom_source>  (8) 
Heuristics

$$$$

     RDKit          3D

 22 20  0  0  0  0  0  0  0  0999 V2000
   -0.6409    2.0726   -0.9298 C   0  0  0  0  0  0  0  0  0  0  0  0
   -1.6612    1.3075   -0.3189 O   0  0  0  0  0  0  0  0  0  0  0  0
   -2.8890    1.7274   -0.7716 N   0  0  0  0  0  0  0  0  0  0  0  0
   -3.8357    1.0711   -0.2523 C   0  0  0  0  0  0  0  0  0  0  0  0
   -0.6568    1.9493   -2.0151 H   0  0  0  0  0  0  0  0  0  0  0  0
   -0.7444    3.1312   -0.6812 H   0  0  0  0  0  0  0  0  0  0  0  0
   -4.8377    1.3414   -0.5576 H   0  0  0  0  0  0  0  0  0  0  0  0
   -3.6695    0.2719    0.4668 H   0  0  0  0  0  0  0  0  0  0  0  0
    1.4867    1.7481    0.5707 C   0  0  0  0  0  3  0  0  0  0  0  0
    1.4867    0.4928    1.1952 O   0  0  0  0  0  0  0  0  0  0  0  0
    1.4867   -0.5684    0.2751 C   0  0  0  0  0  0  0  0  0  0  0  0
    1.4867   -1.8633    1.0559 C   0  0  0  0  0  0  0  0  0  0  0  0
    1.4867   -3.0940    0.1990 C   0  0  0  0  0  0  0  0  0  0  0  0
    1.4867   -3.0940   -1.0015 O   0  0  0  0  0  0  0  0  0  0  0  0
    0.4184    1.9110   -0.1827 H   0  0  0  0  0  0  0  0  0  0  0  0
    2.3770    1.8839   -0.0571 H   0  0  0  0  0  0  0  0  0  0  0  0
    1.4867    2.5043    1.3543 H   0  0  0  0  0  0  0  0  0  0  0  0
    0.6043   -0.5178   -0.3764 H   0  0  0  0  0  0  0  0  0  0  0  0
    2.3691   -0.5178   -0.3764 H   0  0  0  0  0  0  0  0  0  0  0  0
    0.6155   -1.9139    1.7180 H   0  0  0  0  0  0  0  0  0  0  0  0
    2.3580   -1.9139    1.7180 H   0  0  0  0  0  0  0  0  0  0  0  0
    1.4867   -4.0518    0.7597 H   0  0  0  0  0  0  0  0  0  0  0  0
  1  2  1  0
  1  5  1  0
  1  6  1  0
  1 15  1  0
  2  3  1  0
  3  4  2  3
  4  7  1  0
  4  8  1  0
  9 10  1  0
  9 16  1  0
  9 17  1  0
 10 11  1  0
 11 12  1  0
 11 18  1  0
 11 19  1  0
 12 13  1  0
 12 20  1  0
 12 21  1  0
 13 14  2  0
 13 22  1  0
M  RAD  1   9   2
M  END
>  <reaction>  (9) 
rmg_rxn_15637

>  <mol_properties>  (9) 
{"0": {"label": "*3", "atom_type": "Cs"}, "1": {"label": "*4", "atom_type": "O2s"}, "8": {"label": "*1", "atom_type": "Cs"}, "9": {"label": "*0", "atom_type": "O2s"}, "14": {"label": "*2", "atom_type": "H0"}}

>  <type>  (9) 
unop_5

>  <geom_source>  (9) 
Heuristics

$$$$

     RDKit          3D

 22 20  0  0  0  0  0  0  0  0999 V2000
   -1.2344   -1.7196    0.3423 C   0  0  0  0  0  0  0  0  0  0  0  0
   -1.6820   -0.5544    0.9599 O   0  0  0  0  0  0  0  0  0  0  0  0
   -2.3272    0.4123    0.2663 N   0  0  0  0  0  0  0  0  0  0  0  0
   -2.4871    0.3611   -0.9847 C   0  0  0  0  0  0  0  0  0  0  0  0
   -0.9408   -2.3949    1.1393 H   0  0  0  0  0  0  0  0  0  0  0  0
   -1.9608   -2.1689   -0.3344 H   0  0  0  0  0  0  0  0  0  0  0  0
   -3.0217    1.1872   -1.4182 H   0  0  0  0  0  0  0  0  0  0  0  0
   -2.1255   -0.4152   -1.6533 H   0  0  0  0  0  0  0  0  0  0  0  0
    0.9958   -1.3415   -1.0624 C   0  0  0  0  0  3  0  0  0  0  0  0
    2.0595   -1.2292   -0.1840 O   0  0  0  0  0  0  0  0  0  0  0  0
    2.4129    0.0750    0.2116 C   0  0  0  0  0  0  0  0  0  0  0  0
    1.3647    0.7699    1.0937 C   0  0  0  0  0  0  0  0  0  0  0  0
    0.4028    1.6310    0.3218 C   0  0  0  0  0  0  0  0  0  0  0  0
    0.4431    1.8330   -0.8605 O   0  0  0  0  0  0  0  0  0  0  0  0
   -0.1412   -1.4945   -0.3732 H   0  0  0  0  0  0  0  0  0  0  0  0
    1.0938   -2.2746   -1.6109 H   0  0  0  0  0  0  0  0  0  0  0  0
    0.8600   -0.4748   -1.7082 H   0  0  0  0  0  0  0  0  0  0  0  0
    3.3468   -0.0504    0.7638 H   0  0  0  0  0  0  0  0  0  0  0  0
    2.5970    0.7003   -0.6738 H   0  0  0  0  0  0  0  0  0  0  0  0
    1.8580    1.4177    1.8218 H   0  0  0  0  0  0  0  0  0  0  0  0
    0.7890    0.0338    1.6593 H   0  0  0  0  0  0  0  0  0  0  0  0
   -0.3752    2.0918    0.9558 H   0  0  0  0  0  0  0  0  0  0  0  0
  1  2  1  0
  1  5  1  0
  1  6  1  0
  1 15  1  0
  2  3  1  0
  3  4  2  3
  4  7  1  0
  4  8  1  0
  9 10  1  0
  9 16  1  0
  9 17  1  0
 10 11  1  0
 11 12  1  0
 11 18  1  0
 11 19  1  0
 12 13  1  0
 12 20  1  0
 12 21  1  0
 13 14  2  0
 13 22  1  0
M  RAD  1   9   2
M  END
>  <reaction>  (10) 
rmg_rxn_15637

>  <mol_properties>  (10) 
{"0": {"label": "*3", "atom_type": "Cs"}, "1": {"label": "*4", "atom_type": "O2s"}, "8": {"label": "*1", "atom_type": "Cs"}, "9": {"label": "*0", "atom_type": "O2s"}, "14": {"label": "*2", "atom_type": "H0"}}

>  <type>  (10) 
unop_6

>  <geom_source>  (10) 
Heuristics

$$$$

     RDKit          3D

 22 20  0  0  0  0  0  0  0  0999 V2000
   -1.0418    1.2570   -0.5597 C   0  0  0  0  0  0  0  0  0  0  0  0
   -1.3115    2.6451   -0.5474 O   0  0  0  0  0  0  0  0  0  0  0  0
   -1.9846    2.9962   -1.6930 N   0  0  0  0  0  0  0  0  0  0  0  0
   -2.2488    4.2314   -1.7280 C   0  0  0  0  0  0  0  0  0  0  0  0
   -1.9682    0.6793   -0.5931 H   0  0  0  0  0  0  0  0  0  0  0  0
   -0.4133    0.9887   -1.4118 H   0  0  0  0  0  0  0  0  0  0  0  0
   -2.7793    4.5892   -2.6003 H   0  0  0  0  0  0  0  0  0  0  0  0
   -1.9646    4.9145   -0.9304 H   0  0  0  0  0  0  0  0  0  0  0  0
    1.0859    0.9326    0.9409 C   0  0  0  0  0  3  0  0  0  0  0  0
    1.0859   -0.3228    1.5654 O   0  0  0  0  0  0  0  0  0  0  0  0
    1.0859   -1.3840    0.6453 C   0  0  0  0  0  0  0  0  0  0  0  0
    1.0859   -2.6788    1.4260 C   0  0  0  0  0  0  0  0  0  0  0  0
    1.0859   -3.9095    0.5692 C   0  0  0  0  0  0  0  0  0  0  0  0
    1.0859   -3.9095   -0.6314 O   0  0  0  0  0  0  0  0  0  0  0  0
    0.0176    1.0955    0.1875 H   0  0  0  0  0  0  0  0  0  0  0  0
    1.9761    1.0683    0.3130 H   0  0  0  0  0  0  0  0  0  0  0  0
    1.0859    1.6887    1.7244 H   0  0  0  0  0  0  0  0  0  0  0  0
    0.2035   -1.3333   -0.0063 H   0  0  0  0  0  0  0  0  0  0  0  0
    1.9683   -1.3333   -0.0063 H   0  0  0  0  0  0  0  0  0  0  0  0
    0.2146   -2.7295    2.0882 H   0  0  0  0  0  0  0  0  0  0  0  0
    1.9572   -2.7295    2.0882 H   0  0  0  0  0  0  0  0  0  0  0  0
    1.0859   -4.8674    1.1299 H   0  0  0  0  0  0  0  0  0  0  0  0
  1  2  1  0
  1  5  1  0
  1  6  1  0
  1 15  1  0
  2  3  1  0
  3  4  2  3
  4  7  1  0
  4  8  1  0
  9 10  1  0
  9 16  1  0
  9 17  1  0
 10 11  1  0
 11 12  1  0
 11 18  1  0
 11 19  1  0
 12 13  1  0
 12 20  1  0
 12 21  1  0
 13 14  2  0
 13 22  1  0
M  RAD  1   9   2
M  END
>  <reaction>  (11) 
rmg_rxn_15637

>  <mol_properties>  (11) 
{"0": {"label": "*3", "atom_type": "Cs"}, "1": {"label": "*4", "atom_type": "O2s"}, "8": {"label": "*1", "atom_type": "Cs"}, "9": {"label": "*0", "atom_type": "O2s"}, "14": {"label": "*2", "atom_type": "H0"}}

>  <type>  (11) 
unop_7

>  <geom_source>  (11) 
Heuristics

$$$$

     RDKit          3D

 22 20  0  0  0  0  0  0  0  0999 V2000
   -1.1873    2.1718   -0.1770 C   0  0  0  0  0  0  0  0  0  0  0  0
   -1.1362    1.1403   -1.1429 O   0  0  0  0  0  0  0  0  0  0  0  0
   -1.7003    1.5772   -2.3175 N   0  0  0  0  0  0  0  0  0  0  0  0
   -1.6779    0.6872   -3.2142 C   0  0  0  0  0  0  0  0  0  0  0  0
   -0.6270    3.0479   -0.5111 H   0  0  0  0  0  0  0  0  0  0  0  0
   -2.2200    2.4580    0.0346 H   0  0  0  0  0  0  0  0  0  0  0  0
   -2.1045    0.9532   -4.1721 H   0  0  0  0  0  0  0  0  0  0  0  0
   -1.2551   -0.3013   -3.0484 H   0  0  0  0  0  0  0  0  0  0  0  0
    0.9403    1.8473    1.3235 C   0  0  0  0  0  3  0  0  0  0  0  0
    0.9404    0.5920    1.9480 O   0  0  0  0  0  0  0  0  0  0  0  0
    0.9404   -0.4692    1.0279 C   0  0  0  0  0  0  0  0  0  0  0  0
    0.9404   -1.7641    1.8086 C   0  0  0  0  0  0  0  0  0  0  0  0
    0.9404   -2.9948    0.9518 C   0  0  0  0  0  0  0  0  0  0  0  0
    0.9404   -2.9948   -0.2487 O   0  0  0  0  0  0  0  0  0  0  0  0
   -0.1280    2.0102    0.5701 H   0  0  0  0  0  0  0  0  0  0  0  0
    1.8306    1.9831    0.6957 H   0  0  0  0  0  0  0  0  0  0  0  0
    0.9403    2.6035    2.1070 H   0  0  0  0  0  0  0  0  0  0  0  0
    0.0579   -0.4186    0.3763 H   0  0  0  0  0  0  0  0  0  0  0  0
    1.8228   -0.4186    0.3763 H   0  0  0  0  0  0  0  0  0  0  0  0
    0.0691   -1.8148    2.4708 H   0  0  0  0  0  0  0  0  0  0  0  0
    1.8116   -1.8148    2.4708 H   0  0  0  0  0  0  0  0  0  0  0  0
    0.9404   -3.9526    1.5125 H   0  0  0  0  0  0  0  0  0  0  0  0
  1  2  1  0
  1  5  1  0
  1  6  1  0
  1 15  1  0
  2  3  1  0
  3  4  2  3
  4  7  1  0
  4  8  1  0
  9 10  1  0
  9 16  1  0
  9 17  1  0
 10 11  1  0
 11 12  1  0
 11 18  1  0
 11 19  1  0
 12 13  1  0
 12 20  1  0
 12 21  1  0
 13 14  2  0
 13 22  1  0
M  RAD  1   9   2
M  END
>  <reaction>  (12) 
rmg_rxn_15637

>  <mol_properties>  (12) 
{"0": {"label": "*3", "atom_type": "Cs"}, "1": {"label": "*4", "atom_type": "O2s"}, "8": {"label": "*1", "atom_type": "Cs"}, "9": {"label": "*0", "atom_type": "O2s"}, "14": {"label": "*2", "atom_type": "H0"}}

>  <type>  (12) 
unop_8

>  <geom_source>  (12) 
Heuristics

$$$$

     RDKit          3D

 22 20  0  0  0  0  0  0  0  0999 V2000
   -2.4898   -0.8152   -0.9204 C   0  0  0  0  0  0  0  0  0  0  0  0
   -2.7807    0.3043   -0.1210 O   0  0  0  0  0  0  0  0  0  0  0  0
   -1.6301    1.0149    0.1581 N   0  0  0  0  0  0  0  0  0  0  0  0
   -1.7562    2.0371    0.8811 C   0  0  0  0  0  0  0  0  0  0  0  0
   -1.7109   -1.4522   -0.4746 H   0  0  0  0  0  0  0  0  0  0  0  0
   -3.4037   -1.3315   -1.1240 H   0  0  0  0  0  0  0  0  0  0  0  0
   -0.8566    2.5862    1.0998 H   0  0  0  0  0  0  0  0  0  0  0  0
   -2.7004    2.3864    1.2863 H   0  0  0  0  0  0  0  0  0  0  0  0
   -0.1765   -2.1680    0.7836 C   0  0  0  0  0  3  0  0  0  0  0  0
    1.0228   -2.1903    0.1411 O   0  0  0  0  0  0  0  0  0  0  0  0
    1.7954   -1.0184    0.2117 C   0  0  0  0  0  0  0  0  0  0  0  0
    1.2785    0.0758   -0.7290 C   0  0  0  0  0  0  0  0  0  0  0  0
    2.0674    1.3387   -0.6214 C   0  0  0  0  0  0  0  0  0  0  0  0
    2.8929    1.5854    0.2140 O   0  0  0  0  0  0  0  0  0  0  0  0
   -2.2756   -0.5560   -1.9650 H   0  0  0  0  0  0  0  0  0  0  0  0
   -0.3117   -1.4642    1.5906 H   0  0  0  0  0  0  0  0  0  0  0  0
   -0.6278   -3.1418    0.8479 H   0  0  0  0  0  0  0  0  0  0  0  0
    1.8167   -0.6278    1.2373 H   0  0  0  0  0  0  0  0  0  0  0  0
    2.8093   -1.3103   -0.0750 H   0  0  0  0  0  0  0  0  0  0  0  0
    0.2389    0.3254   -0.4694 H   0  0  0  0  0  0  0  0  0  0  0  0
    1.2822   -0.2720   -1.7640 H   0  0  0  0  0  0  0  0  0  0  0  0
    1.8080    2.0806   -1.4033 H   0  0  0  0  0  0  0  0  0  0  0  0
  1  2  1  0
  1  5  1  0
  1  6  1  0
  1 15  1  0
  2  3  1  0
  3  4  2  3
  4  7  1  0
  4  8  1  0
  9 10  1  0
  9 16  1  0
  9 17  1  0
 10 11  1  0
 11 12  1  0
 11 18  1  0
 11 19  1  0
 12 13  1  0
 12 20  1  0
 12 21  1  0
 13 14  2  0
 13 22  1  0
M  RAD  1   9   2
M  END
>  <reaction>  (13) 
rmg_rxn_15637

>  <mol_properties>  (13) 
{"0": {"label": "*3", "atom_type": "Cs"}, "1": {"label": "*4", "atom_type": "O2s"}, "8": {"label": "*1", "atom_type": "Cs"}, "9": {"label": "*0", "atom_type": "O2s"}, "14": {"label": "*2", "atom_type": "H0"}}

>  <type>  (13) 
unop_9

>  <geom_source>  (13) 
Heuristics

$$$$

     RDKit          3D

 22 20  0  0  0  0  0  0  0  0999 V2000
   -1.1106    1.3137   -0.4053 C   0  0  0  0  0  0  0  0  0  0  0  0
   -0.9881    2.6042   -0.9702 O   0  0  0  0  0  0  0  0  0  0  0  0
   -2.0697    2.8606   -1.7784 N   0  0  0  0  0  0  0  0  0  0  0  0
   -2.0052    4.0062   -2.3077 C   0  0  0  0  0  0  0  0  0  0  0  0
   -2.0111    1.2397    0.2084 H   0  0  0  0  0  0  0  0  0  0  0  0
   -1.1352    0.5474   -1.1833 H   0  0  0  0  0  0  0  0  0  0  0  0
   -2.8215    4.2853   -2.9604 H   0  0  0  0  0  0  0  0  0  0  0  0
   -1.1782    4.6895   -2.1272 H   0  0  0  0  0  0  0  0  0  0  0  0
    1.0171    0.9892    1.0953 C   0  0  0  0  0  3  0  0  0  0  0  0
    1.0171   -0.2661    1.7198 O   0  0  0  0  0  0  0  0  0  0  0  0
    1.0171   -1.3273    0.7997 C   0  0  0  0  0  0  0  0  0  0  0  0
    1.0171   -2.6222    1.5804 C   0  0  0  0  0  0  0  0  0  0  0  0
    1.0171   -3.8529    0.7236 C   0  0  0  0  0  0  0  0  0  0  0  0
    1.0171   -3.8529   -0.4770 O   0  0  0  0  0  0  0  0  0  0  0  0
   -0.0512    1.1521    0.3418 H   0  0  0  0  0  0  0  0  0  0  0  0
    1.9073    1.1250    0.4674 H   0  0  0  0  0  0  0  0  0  0  0  0
    1.0171    1.7454    1.8788 H   0  0  0  0  0  0  0  0  0  0  0  0
    0.1347   -1.2767    0.1481 H   0  0  0  0  0  0  0  0  0  0  0  0
    1.8995   -1.2767    0.1481 H   0  0  0  0  0  0  0  0  0  0  0  0
    0.1458   -2.6729    2.2426 H   0  0  0  0  0  0  0  0  0  0  0  0
    1.8884   -2.6728    2.2426 H   0  0  0  0  0  0  0  0  0  0  0  0
    1.0171   -4.8107    1.2843 H   0  0  0  0  0  0  0  0  0  0  0  0
  1  2  1  0
  1  5  1  0
  1  6  1  0
  1 15  1  0
  2  3  1  0
  3  4  2  3
  4  7  1  0
  4  8  1  0
  9 10  1  0
  9 16  1  0
  9 17  1  0
 10 11  1  0
 11 12  1  0
 11 18  1  0
 11 19  1  0
 12 13  1  0
 12 20  1  0
 12 21  1  0
 13 14  2  0
 13 22  1  0
M  RAD  1   9   2
M  END
>  <reaction>  (14) 
rmg_rxn_15637

>  <mol_properties>  (14) 
{"0": {"label": "*3", "atom_type": "Cs"}, "1": {"label": "*4", "atom_type": "O2s"}, "8": {"label": "*1", "atom_type": "Cs"}, "9": {"label": "*0", "atom_type": "O2s"}, "14": {"label": "*2", "atom_type": "H0"}}

>  <type>  (14) 
unop_10

>  <geom_source>  (14) 
Heuristics

$$$$

     RDKit          3D

 22 20  0  0  0  0  0  0  0  0999 V2000
    2.4538   -0.8731   -0.8641 C   0  0  0  0  0  0  0  0  0  0  0  0
    2.7772    0.2551   -0.0924 O   0  0  0  0  0  0  0  0  0  0  0  0
    1.6604    1.0411    0.1206 N   0  0  0  0  0  0  0  0  0  0  0  0
    1.8285    2.0940    0.7887 C   0  0  0  0  0  0  0  0  0  0  0  0
    2.2921   -0.6423   -1.9138 H   0  0  0  0  0  0  0  0  0  0  0  0
    3.1928   -1.6287   -0.7012 H   0  0  0  0  0  0  0  0  0  0  0  0
    0.9565    2.7020    0.9571 H   0  0  0  0  0  0  0  0  0  0  0  0
    2.7822    2.4131    1.1967 H   0  0  0  0  0  0  0  0  0  0  0  0
    0.1393   -2.2235    0.7550 C   0  0  0  0  0  3  0  0  0  0  0  0
   -1.0532   -2.1863    0.0992 O   0  0  0  0  0  0  0  0  0  0  0  0
   -1.7981   -0.9994    0.2103 C   0  0  0  0  0  0  0  0  0  0  0  0
   -1.2722    0.1063   -0.7115 C   0  0  0  0  0  0  0  0  0  0  0  0
   -2.0532    1.3724   -0.5836 C   0  0  0  0  0  0  0  0  0  0  0  0
   -2.8880    1.6052    0.2462 O   0  0  0  0  0  0  0  0  0  0  0  0
    1.6282   -1.4716   -0.4207 H   0  0  0  0  0  0  0  0  0  0  0  0
    0.2715   -1.5694    1.6042 H   0  0  0  0  0  0  0  0  0  0  0  0
    0.5550   -3.2154    0.7877 H   0  0  0  0  0  0  0  0  0  0  0  0
   -2.8223   -1.2612   -0.0693 H   0  0  0  0  0  0  0  0  0  0  0  0
   -1.7972   -0.6347    1.2455 H   0  0  0  0  0  0  0  0  0  0  0  0
   -1.2814   -0.2248   -1.7520 H   0  0  0  0  0  0  0  0  0  0  0  0
   -0.2303    0.3457   -0.4527 H   0  0  0  0  0  0  0  0  0  0  0  0
   -1.7777    2.1306   -1.3440 H   0  0  0  0  0  0  0  0  0  0  0  0
  1  2  1  0
  1  5  1  0
  1  6  1  0
  1 15  1  0
  2  3  1  0
  3  4  2  3
  4  7  1  0
  4  8  1  0
  9 10  1  0
  9 16  1  0
  9 17  1  0
 10 11  1  0
 11 12  1  0
 11 18  1  0
 11 19  1  0
 12 13  1  0
 12 20  1  0
 12 21  1  0
 13 14  2  0
 13 22  1  0
M  RAD  1   9   2
M  END
>  <reaction>  (15) 
rmg_rxn_15637

>  <mol_properties>  (15) 
{"0": {"label": "*3", "atom_type": "Cs"}, "1": {"label": "*4", "atom_type": "O2s"}, "8": {"label": "*1", "atom_type": "Cs"}, "9": {"label": "*0", "atom_type": "O2s"}, "14": {"label": "*2", "atom_type": "H0"}}

>  <type>  (15) 
unop_11

>  <geom_source>  (15) 
Heuristics

$$$$

     RDKit          3D

 22 20  0  0  0  0  0  0  0  0999 V2000
   -1.3078    1.8854   -0.0974 C   0  0  0  0  0  0  0  0  0  0  0  0
   -0.9504    1.4047   -1.3783 O   0  0  0  0  0  0  0  0  0  0  0  0
   -1.5022    2.2100   -2.3457 N   0  0  0  0  0  0  0  0  0  0  0  0
   -1.2099    1.8192   -3.5113 C   0  0  0  0  0  0  0  0  0  0  0  0
   -0.9325    2.8994    0.0580 H   0  0  0  0  0  0  0  0  0  0  0  0
   -2.3918    1.8730    0.0361 H   0  0  0  0  0  0  0  0  0  0  0  0
   -1.6073    2.4017   -4.3318 H   0  0  0  0  0  0  0  0  0  0  0  0
   -0.5915    0.9440   -3.6983 H   0  0  0  0  0  0  0  0  0  0  0  0
    0.8199    1.5610    1.4032 C   0  0  0  0  0  3  0  0  0  0  0  0
    0.8199    0.3056    2.0276 O   0  0  0  0  0  0  0  0  0  0  0  0
    0.8199   -0.7556    1.1076 C   0  0  0  0  0  0  0  0  0  0  0  0
    0.8199   -2.0504    1.8883 C   0  0  0  0  0  0  0  0  0  0  0  0
    0.8199   -3.2811    1.0314 C   0  0  0  0  0  0  0  0  0  0  0  0
    0.8199   -3.2811   -0.1691 O   0  0  0  0  0  0  0  0  0  0  0  0
   -0.2484    1.7239    0.6497 H   0  0  0  0  0  0  0  0  0  0  0  0
    1.7102    1.6967    0.7753 H   0  0  0  0  0  0  0  0  0  0  0  0
    0.8199    2.3171    2.1867 H   0  0  0  0  0  0  0  0  0  0  0  0
   -0.0625   -0.7049    0.4560 H   0  0  0  0  0  0  0  0  0  0  0  0
    1.7023   -0.7049    0.4560 H   0  0  0  0  0  0  0  0  0  0  0  0
   -0.0514   -2.1011    2.5504 H   0  0  0  0  0  0  0  0  0  0  0  0
    1.6912   -2.1011    2.5504 H   0  0  0  0  0  0  0  0  0  0  0  0
    0.8199   -4.2390    1.5921 H   0  0  0  0  0  0  0  0  0  0  0  0
  1  2  1  0
  1  5  1  0
  1  6  1  0
  1 15  1  0
  2  3  1  0
  3  4  2  3
  4  7  1  0
  4  8  1  0
  9 10  1  0
  9 16  1  0
  9 17  1  0
 10 11  1  0
 11 12  1  0
 11 18  1  0
 11 19  1  0
 12 13  1  0
 12 20  1  0
 12 21  1  0
 13 14  2  0
 13 22  1  0
M  RAD  1   9   2
M  END
>  <reaction>  (16) 
rmg_rxn_15637

>  <mol_properties>  (16) 
{"0": {"label": "*3", "atom_type": "Cs"}, "1": {"label": "*4", "atom_type": "O2s"}, "8": {"label": "*1", "atom_type": "Cs"}, "9": {"label": "*0", "atom_type": "O2s"}, "14": {"label": "*2", "atom_type": "H0"}}

>  <type>  (16) 
unop_12

>  <geom_source>  (16) 
Heuristics

$$$$

     RDKit          3D

 22 20  0  0  0  0  0  0  0  0999 V2000
    2.2137   -0.8999   -0.7996 C   0  0  0  0  0  0  0  0  0  0  0  0
    2.6428    0.2007   -0.0644 O   0  0  0  0  0  0  0  0  0  0  0  0
    1.6803    1.1869    0.0080 N   0  0  0  0  0  0  0  0  0  0  0  0
    1.9843    2.2214    0.6674 C   0  0  0  0  0  0  0  0  0  0  0  0
    1.7524   -0.6318   -1.7481 H   0  0  0  0  0  0  0  0  0  0  0  0
    3.0649   -1.5620   -0.9088 H   0  0  0  0  0  0  0  0  0  0  0  0
    1.2360    2.9917    0.7232 H   0  0  0  0  0  0  0  0  0  0  0  0
    2.9367    2.3681    1.1653 H   0  0  0  0  0  0  0  0  0  0  0  0
    0.3845   -2.1587    0.6681 C   0  0  0  0  0  3  0  0  0  0  0  0
   -0.8630   -2.1687    0.0743 O   0  0  0  0  0  0  0  0  0  0  0  0
   -1.6583   -1.0219    0.2624 C   0  0  0  0  0  0  0  0  0  0  0  0
   -1.2740    0.1387   -0.6612 C   0  0  0  0  0  0  0  0  0  0  0  0
   -2.1951    1.3059   -0.5138 C   0  0  0  0  0  0  0  0  0  0  0  0
   -3.0694    1.4159    0.2998 O   0  0  0  0  0  0  0  0  0  0  0  0
    1.2922   -1.5437   -0.1000 H   0  0  0  0  0  0  0  0  0  0  0  0
    0.7424   -3.1817    0.7361 H   0  0  0  0  0  0  0  0  0  0  0  0
    0.4128   -1.6357    1.6254 H   0  0  0  0  0  0  0  0  0  0  0  0
   -2.6825   -1.3366    0.0447 H   0  0  0  0  0  0  0  0  0  0  0  0
   -1.6120   -0.6855    1.3065 H   0  0  0  0  0  0  0  0  0  0  0  0
   -1.2778   -0.1901   -1.7029 H   0  0  0  0  0  0  0  0  0  0  0  0
   -0.2618    0.5005   -0.4356 H   0  0  0  0  0  0  0  0  0  0  0  0
   -1.9897    2.1146   -1.2441 H   0  0  0  0  0  0  0  0  0  0  0  0
  1  2  1  0
  1  5  1  0
  1  6  1  0
  1 15  1  0
  2  3  1  0
  3  4  2  3
  4  7  1  0
  4  8  1  0
  9 10  1  0
  9 16  1  0
  9 17  1  0
 10 11  1  0
 11 12  1  0
 11 18  1  0
 11 19  1  0
 12 13  1  0
 12 20  1  0
 12 21  1  0
 13 14  2  0
 13 22  1  0
M  RAD  1   9   2
M  END
>  <reaction>  (17) 
rmg_rxn_15637

>  <mol_properties>  (17) 
{"0": {"label": "*3", "atom_type": "Cs"}, "1": {"label": "*4", "atom_type": "O2s"}, "8": {"label": "*1", "atom_type": "Cs"}, "9": {"label": "*0", "atom_type": "O2s"}, "14": {"label": "*2", "atom_type": "H0"}}

>  <type>  (17) 
unop_13

>  <geom_source>  (17) 
Heuristics

$$$$

     RDKit          3D

 22 20  0  0  0  0  0  0  0  0999 V2000
   -1.3109    1.5923   -0.1524 C   0  0  0  0  0  0  0  0  0  0  0  0
   -0.8265    1.8039   -1.4639 O   0  0  0  0  0  0  0  0  0  0  0  0
   -1.6056    2.7404   -2.0999 N   0  0  0  0  0  0  0  0  0  0  0  0
   -1.2105    2.9640   -3.2792 C   0  0  0  0  0  0  0  0  0  0  0  0
   -1.2700    2.5138    0.4327 H   0  0  0  0  0  0  0  0  0  0  0  0
   -2.3365    1.2168   -0.1706 H   0  0  0  0  0  0  0  0  0  0  0  0
   -1.7729    3.6915   -3.8492 H   0  0  0  0  0  0  0  0  0  0  0  0
   -0.3507    2.4596   -3.7149 H   0  0  0  0  0  0  0  0  0  0  0  0
    0.8167    1.2678    1.3482 C   0  0  0  0  0  3  0  0  0  0  0  0
    0.8167    0.0125    1.9727 O   0  0  0  0  0  0  0  0  0  0  0  0
    0.8167   -1.0487    1.0526 C   0  0  0  0  0  0  0  0  0  0  0  0
    0.8167   -2.3436    1.8333 C   0  0  0  0  0  0  0  0  0  0  0  0
    0.8167   -3.5742    0.9765 C   0  0  0  0  0  0  0  0  0  0  0  0
    0.8167   -3.5742   -0.2241 O   0  0  0  0  0  0  0  0  0  0  0  0
   -0.2516    1.4308    0.5948 H   0  0  0  0  0  0  0  0  0  0  0  0
    1.7070    1.4036    0.7204 H   0  0  0  0  0  0  0  0  0  0  0  0
    0.8167    2.0240    2.1317 H   0  0  0  0  0  0  0  0  0  0  0  0
   -0.0657   -0.9981    0.4010 H   0  0  0  0  0  0  0  0  0  0  0  0
    1.6991   -0.9981    0.4010 H   0  0  0  0  0  0  0  0  0  0  0  0
   -0.0545   -2.3942    2.4955 H   0  0  0  0  0  0  0  0  0  0  0  0
    1.6880   -2.3942    2.4955 H   0  0  0  0  0  0  0  0  0  0  0  0
    0.8167   -4.5321    1.5372 H   0  0  0  0  0  0  0  0  0  0  0  0
  1  2  1  0
  1  5  1  0
  1  6  1  0
  1 15  1  0
  2  3  1  0
  3  4  2  3
  4  7  1  0
  4  8  1  0
  9 10  1  0
  9 16  1  0
  9 17  1  0
 10 11  1  0
 11 12  1  0
 11 18  1  0
 11 19  1  0
 12 13  1  0
 12 20  1  0
 12 21  1  0
 13 14  2  0
 13 22  1  0
M  RAD  1   9   2
M  END
>  <reaction>  (18) 
rmg_rxn_15637

>  <mol_properties>  (18) 
{"0": {"label": "*3", "atom_type": "Cs"}, "1": {"label": "*4", "atom_type": "O2s"}, "8": {"label": "*1", "atom_type": "Cs"}, "9": {"label": "*0", "atom_type": "O2s"}, "14": {"label": "*2", "atom_type": "H0"}}

>  <type>  (18) 
unop_14

>  <geom_source>  (18) 
Heuristics

$$$$

     RDKit          3D

 22 20  0  0  0  0  0  0  0  0999 V2000
   -2.4657    0.8616    0.8659 C   0  0  0  0  0  0  0  0  0  0  0  0
   -2.7753   -0.2676    0.0895 O   0  0  0  0  0  0  0  0  0  0  0  0
   -1.6505   -1.0427   -0.1200 N   0  0  0  0  0  0  0  0  0  0  0  0
   -1.8051   -2.0947   -0.7930 C   0  0  0  0  0  0  0  0  0  0  0  0
   -3.2162    1.6070    0.7061 H   0  0  0  0  0  0  0  0  0  0  0  0
   -2.3041    0.6277    1.9152 H   0  0  0  0  0  0  0  0  0  0  0  0
   -0.9265   -2.6940   -0.9588 H   0  0  0  0  0  0  0  0  0  0  0  0
   -2.7535   -2.4209   -1.2077 H   0  0  0  0  0  0  0  0  0  0  0  0
   -0.1510    2.2216   -0.7526 C   0  0  0  0  0  3  0  0  0  0  0  0
    1.0445    2.1896   -0.1021 O   0  0  0  0  0  0  0  0  0  0  0  0
    1.7924    1.0047   -0.2134 C   0  0  0  0  0  0  0  0  0  0  0  0
    1.2750   -0.0988    0.7160 C   0  0  0  0  0  0  0  0  0  0  0  0
    2.0589   -1.3632    0.5896 C   0  0  0  0  0  0  0  0  0  0  0  0
    2.8850   -1.5999   -0.2479 O   0  0  0  0  0  0  0  0  0  0  0  0
   -1.6413    1.4665    0.4274 H   0  0  0  0  0  0  0  0  0  0  0  0
   -0.2853    1.5651   -1.5997 H   0  0  0  0  0  0  0  0  0  0  0  0
   -0.5708    3.2117   -0.7847 H   0  0  0  0  0  0  0  0  0  0  0  0
    1.7863    0.6360   -1.2471 H   0  0  0  0  0  0  0  0  0  0  0  0
    2.8175    1.2706    0.0592 H   0  0  0  0  0  0  0  0  0  0  0  0
    0.2327   -0.3426    0.4624 H   0  0  0  0  0  0  0  0  0  0  0  0
    1.2877    0.2372    1.7548 H   0  0  0  0  0  0  0  0  0  0  0  0
    1.7946   -2.1161    1.3591 H   0  0  0  0  0  0  0  0  0  0  0  0
  1  2  1  0
  1  5  1  0
  1  6  1  0
  1 15  1  0
  2  3  1  0
  3  4  2  3
  4  7  1  0
  4  8  1  0
  9 10  1  0
  9 16  1  0
  9 17  1  0
 10 11  1  0
 11 12  1  0
 11 18  1  0
 11 19  1  0
 12 13  1  0
 12 20  1  0
 12 21  1  0
 13 14  2  0
 13 22  1  0
M  RAD  1   9   2
M  END
>  <reaction>  (19) 
rmg_rxn_15637

>  <mol_properties>  (19) 
{"0": {"label": "*3", "atom_type": "Cs"}, "1": {"label": "*4", "atom_type": "O2s"}, "8": {"label": "*1", "atom_type": "Cs"}, "9": {"label": "*0", "atom_type": "O2s"}, "14": {"label": "*2", "atom_type": "H0"}}

>  <type>  (19) 
unop_15

>  <geom_source>  (19) 
Heuristics

$$$$

     RDKit          3D

 22 20  0  0  0  0  0  0  0  0999 V2000
   -0.7591    1.4518   -0.9691 C   0  0  0  0  0  0  0  0  0  0  0  0
   -1.7382    2.0273   -0.1267 O   0  0  0  0  0  0  0  0  0  0  0  0
   -2.4582    2.9654   -0.8270 N   0  0  0  0  0  0  0  0  0  0  0  0
   -3.3483    3.5093   -0.1139 C   0  0  0  0  0  0  0  0  0  0  0  0
   -1.2230    0.9493   -1.8208 H   0  0  0  0  0  0  0  0  0  0  0  0
   -0.0593    2.2094   -1.3292 H   0  0  0  0  0  0  0  0  0  0  0  0
   -3.9606    4.2616   -0.5929 H   0  0  0  0  0  0  0  0  0  0  0  0
   -3.5046    3.2464    0.9301 H   0  0  0  0  0  0  0  0  0  0  0  0
    1.3686    1.1273    0.5314 C   0  0  0  0  0  3  0  0  0  0  0  0
    1.3686   -0.1280    1.1559 O   0  0  0  0  0  0  0  0  0  0  0  0
    1.3686   -1.1892    0.2358 C   0  0  0  0  0  0  0  0  0  0  0  0
    1.3686   -2.4841    1.0165 C   0  0  0  0  0  0  0  0  0  0  0  0
    1.3686   -3.7148    0.1597 C   0  0  0  0  0  0  0  0  0  0  0  0
    1.3686   -3.7148   -1.0408 O   0  0  0  0  0  0  0  0  0  0  0  0
    0.3003    1.2902   -0.2220 H   0  0  0  0  0  0  0  0  0  0  0  0
    2.2588    1.2631   -0.0964 H   0  0  0  0  0  0  0  0  0  0  0  0
    1.3686    1.8835    1.3150 H   0  0  0  0  0  0  0  0  0  0  0  0
    0.4862   -1.1386   -0.4158 H   0  0  0  0  0  0  0  0  0  0  0  0
    2.2510   -1.1386   -0.4158 H   0  0  0  0  0  0  0  0  0  0  0  0
    0.4973   -2.5347    1.6787 H   0  0  0  0  0  0  0  0  0  0  0  0
    2.2399   -2.5347    1.6787 H   0  0  0  0  0  0  0  0  0  0  0  0
    1.3686   -4.6726    0.7204 H   0  0  0  0  0  0  0  0  0  0  0  0
  1  2  1  0
  1  5  1  0
  1  6  1  0
  1 15  1  0
  2  3  1  0
  3  4  2  3
  4  7  1  0
  4  8  1  0
  9 10  1  0
  9 16  1  0
  9 17  1  0
 10 11  1  0
 11 12  1  0
 11 18  1  0
 11 19  1  0
 12 13  1  0
 12 20  1  0
 12 21  1  0
 13 14  2  0
 13 22  1  0
M  RAD  1   9   2
M  END
>  <reaction>  (20) 
rmg_rxn_15637

>  <mol_properties>  (20) 
{"0": {"label": "*3", "atom_type": "Cs"}, "1": {"label": "*4", "atom_type": "O2s"}, "8": {"label": "*1", "atom_type": "Cs"}, "9": {"label": "*0", "atom_type": "O2s"}, "14": {"label": "*2", "atom_type": "H0"}}

>  <type>  (20) 
unop_16

>  <geom_source>  (20) 
Heuristics

$$$$

     RDKit          3D

 22 20  0  0  0  0  0  0  0  0999 V2000
   -2.2211    0.9012    0.7887 C   0  0  0  0  0  0  0  0  0  0  0  0
   -2.6396   -0.2034    0.0534 O   0  0  0  0  0  0  0  0  0  0  0  0
   -1.6763   -1.1901    0.0005 N   0  0  0  0  0  0  0  0  0  0  0  0
   -1.9704   -2.2278   -0.6584 C   0  0  0  0  0  0  0  0  0  0  0  0
   -3.0751    1.5615    0.8863 H   0  0  0  0  0  0  0  0  0  0  0  0
   -1.7691    0.6380    1.7430 H   0  0  0  0  0  0  0  0  0  0  0  0
   -1.2214   -2.9984   -0.6989 H   0  0  0  0  0  0  0  0  0  0  0  0
   -2.9150   -2.3768   -1.1701 H   0  0  0  0  0  0  0  0  0  0  0  0
   -0.3837    2.1624   -0.6665 C   0  0  0  0  0  3  0  0  0  0  0  0
    0.8622    2.1714   -0.0695 O   0  0  0  0  0  0  0  0  0  0  0  0
    1.6583    1.0252   -0.2575 C   0  0  0  0  0  0  0  0  0  0  0  0
    1.2752   -0.1354    0.6665 C   0  0  0  0  0  0  0  0  0  0  0  0
    2.1921   -1.3051    0.5129 C   0  0  0  0  0  0  0  0  0  0  0  0
    3.0582   -1.4190   -0.3089 O   0  0  0  0  0  0  0  0  0  0  0  0
   -1.2945    1.5454    0.0962 H   0  0  0  0  0  0  0  0  0  0  0  0
   -0.4092    1.6421   -1.6255 H   0  0  0  0  0  0  0  0  0  0  0  0
   -0.7418    3.1854   -0.7328 H   0  0  0  0  0  0  0  0  0  0  0  0
    1.6119    0.6883   -1.3015 H   0  0  0  0  0  0  0  0  0  0  0  0
    2.6825    1.3409   -0.0403 H   0  0  0  0  0  0  0  0  0  0  0  0
    0.2612   -0.4947    0.4445 H   0  0  0  0  0  0  0  0  0  0  0  0
    1.2838    0.1919    1.7087 H   0  0  0  0  0  0  0  0  0  0  0  0
    1.9920   -2.1118    1.2467 H   0  0  0  0  0  0  0  0  0  0  0  0
  1  2  1  0
  1  5  1  0
  1  6  1  0
  1 15  1  0
  2  3  1  0
  3  4  2  3
  4  7  1  0
  4  8  1  0
  9 10  1  0
  9 16  1  0
  9 17  1  0
 10 11  1  0
 11 12  1  0
 11 18  1  0
 11 19  1  0
 12 13  1  0
 12 20  1  0
 12 21  1  0
 13 14  2  0
 13 22  1  0
M  RAD  1   9   2
M  END
>  <reaction>  (21) 
rmg_rxn_15637

>  <mol_properties>  (21) 
{"0": {"label": "*3", "atom_type": "Cs"}, "1": {"label": "*4", "atom_type": "O2s"}, "8": {"label": "*1", "atom_type": "Cs"}, "9": {"label": "*0", "atom_type": "O2s"}, "14": {"label": "*2", "atom_type": "H0"}}

>  <type>  (21) 
unop_17

>  <geom_source>  (21) 
Heuristics

$$$$

     RDKit          3D

 22 20  0  0  0  0  0  0  0  0999 V2000
   -0.9799    2.3405   -0.3912 C   0  0  0  0  0  0  0  0  0  0  0  0
   -1.3320    1.0473   -0.8420 O   0  0  0  0  0  0  0  0  0  0  0  0
   -2.1547    1.1470   -1.9384 N   0  0  0  0  0  0  0  0  0  0  0  0
   -2.4973    0.0133   -2.3788 C   0  0  0  0  0  0  0  0  0  0  0  0
   -0.4398    2.8905   -1.1652 H   0  0  0  0  0  0  0  0  0  0  0  0
   -1.8663    2.9052   -0.0934 H   0  0  0  0  0  0  0  0  0  0  0  0
   -3.1471    0.0053   -3.2436 H   0  0  0  0  0  0  0  0  0  0  0  0
   -2.1650   -0.9173   -1.9236 H   0  0  0  0  0  0  0  0  0  0  0  0
    1.1477    2.0160    1.1094 C   0  0  0  0  0  3  0  0  0  0  0  0
    1.1477    0.7607    1.7338 O   0  0  0  0  0  0  0  0  0  0  0  0
    1.1477   -0.3005    0.8138 C   0  0  0  0  0  0  0  0  0  0  0  0
    1.1477   -1.5954    1.5945 C   0  0  0  0  0  0  0  0  0  0  0  0
    1.1477   -2.8260    0.7376 C   0  0  0  0  0  0  0  0  0  0  0  0
    1.1477   -2.8260   -0.4629 O   0  0  0  0  0  0  0  0  0  0  0  0
    0.0794    2.1790    0.3559 H   0  0  0  0  0  0  0  0  0  0  0  0
    2.0380    2.1518    0.4815 H   0  0  0  0  0  0  0  0  0  0  0  0
    1.1477    2.7722    1.8929 H   0  0  0  0  0  0  0  0  0  0  0  0
    0.2653   -0.2498    0.1622 H   0  0  0  0  0  0  0  0  0  0  0  0
    2.0301   -0.2498    0.1622 H   0  0  0  0  0  0  0  0  0  0  0  0
    0.2765   -1.6460    2.2566 H   0  0  0  0  0  0  0  0  0  0  0  0
    2.0190   -1.6460    2.2566 H   0  0  0  0  0  0  0  0  0  0  0  0
    1.1477   -3.7839    1.2983 H   0  0  0  0  0  0  0  0  0  0  0  0
  1  2  1  0
  1  5  1  0
  1  6  1  0
  1 15  1  0
  2  3  1  0
  3  4  2  3
  4  7  1  0
  4  8  1  0
  9 10  1  0
  9 16  1  0
  9 17  1  0
 10 11  1  0
 11 12  1  0
 11 18  1  0
 11 19  1  0
 12 13  1  0
 12 20  1  0
 12 21  1  0
 13 14  2  0
 13 22  1  0
M  RAD  1   9   2
M  END
>  <reaction>  (22) 
rmg_rxn_15637

>  <mol_properties>  (22) 
{"0": {"label": "*3", "atom_type": "Cs"}, "1": {"label": "*4", "atom_type": "O2s"}, "8": {"label": "*1", "atom_type": "Cs"}, "9": {"label": "*0", "atom_type": "O2s"}, "14": {"label": "*2", "atom_type": "H0"}}

>  <type>  (22) 
unop_18

>  <geom_source>  (22) 
Heuristics

$$$$

     RDKit          3D

 22 20  0  0  0  0  0  0  0  0999 V2000
   -0.6486    1.7460   -1.0330 C   0  0  0  0  0  0  0  0  0  0  0  0
   -1.7549    1.6292   -0.1600 O   0  0  0  0  0  0  0  0  0  0  0  0
   -2.7802    2.4306   -0.6019 N   0  0  0  0  0  0  0  0  0  0  0  0
   -3.7944    2.3600    0.1485 C   0  0  0  0  0  0  0  0  0  0  0  0
   -0.9123    1.4244   -2.0430 H   0  0  0  0  0  0  0  0  0  0  0  0
   -0.2804    2.7740   -1.0617 H   0  0  0  0  0  0  0  0  0  0  0  0
   -4.6477    2.9631   -0.1316 H   0  0  0  0  0  0  0  0  0  0  0  0
   -3.8250    1.7299    1.0348 H   0  0  0  0  0  0  0  0  0  0  0  0
    1.4791    1.4215    0.4676 C   0  0  0  0  0  3  0  0  0  0  0  0
    1.4791    0.1662    1.0921 O   0  0  0  0  0  0  0  0  0  0  0  0
    1.4791   -0.8950    0.1720 C   0  0  0  0  0  0  0  0  0  0  0  0
    1.4791   -2.1899    0.9527 C   0  0  0  0  0  0  0  0  0  0  0  0
    1.4791   -3.4205    0.0959 C   0  0  0  0  0  0  0  0  0  0  0  0
    1.4791   -3.4205   -1.1047 O   0  0  0  0  0  0  0  0  0  0  0  0
    0.4108    1.5845   -0.2858 H   0  0  0  0  0  0  0  0  0  0  0  0
    2.3693    1.5573   -0.1603 H   0  0  0  0  0  0  0  0  0  0  0  0
    1.4791    2.1777    1.2511 H   0  0  0  0  0  0  0  0  0  0  0  0
    0.5967   -0.8443   -0.4796 H   0  0  0  0  0  0  0  0  0  0  0  0
    2.3615   -0.8443   -0.4796 H   0  0  0  0  0  0  0  0  0  0  0  0
    0.6078   -2.2405    1.6149 H   0  0  0  0  0  0  0  0  0  0  0  0
    2.3503   -2.2405    1.6149 H   0  0  0  0  0  0  0  0  0  0  0  0
    1.4791   -4.3784    0.6566 H   0  0  0  0  0  0  0  0  0  0  0  0
  1  2  1  0
  1  5  1  0
  1  6  1  0
  1 15  1  0
  2  3  1  0
  3  4  2  3
  4  7  1  0
  4  8  1  0
  9 10  1  0
  9 16  1  0
  9 17  1  0
 10 11  1  0
 11 12  1  0
 11 18  1  0
 11 19  1  0
 12 13  1  0
 12 20  1  0
 12 21  1  0
 13 14  2  0
 13 22  1  0
M  RAD  1   9   2
M  END
>  <reaction>  (23) 
rmg_rxn_15637

>  <mol_properties>  (23) 
{"0": {"label": "*3", "atom_type": "Cs"}, "1": {"label": "*4", "atom_type": "O2s"}, "8": {"label": "*1", "atom_type": "Cs"}, "9": {"label": "*0", "atom_type": "O2s"}, "14": {"label": "*2", "atom_type": "H0"}}

>  <type>  (23) 
unop_19

>  <geom_source>  (23) 
Heuristics

$$$$

     RDKit          3D

 22 20  0  0  0  0  0  0  0  0999 V2000
   -1.2148    1.3938   -0.2848 C   0  0  0  0  0  0  0  0  0  0  0  0
   -0.8162    2.2537   -1.3343 O   0  0  0  0  0  0  0  0  0  0  0  0
   -1.9085    2.9361   -1.8139 N   0  0  0  0  0  0  0  0  0  0  0  0
   -1.6016    3.7199   -2.7563 C   0  0  0  0  0  0  0  0  0  0  0  0
   -1.6442    1.9614    0.5437 H   0  0  0  0  0  0  0  0  0  0  0  0
   -1.9403    0.6573   -0.6374 H   0  0  0  0  0  0  0  0  0  0  0  0
   -2.4081    4.2959   -3.1900 H   0  0  0  0  0  0  0  0  0  0  0  0
   -0.5833    3.8227   -3.1252 H   0  0  0  0  0  0  0  0  0  0  0  0
    0.9129    1.0693    1.2157 C   0  0  0  0  0  3  0  0  0  0  0  0
    0.9129   -0.1861    1.8402 O   0  0  0  0  0  0  0  0  0  0  0  0
    0.9129   -1.2473    0.9201 C   0  0  0  0  0  0  0  0  0  0  0  0
    0.9129   -2.5421    1.7009 C   0  0  0  0  0  0  0  0  0  0  0  0
    0.9129   -3.7728    0.8440 C   0  0  0  0  0  0  0  0  0  0  0  0
    0.9129   -3.7728   -0.3565 O   0  0  0  0  0  0  0  0  0  0  0  0
   -0.1554    1.2322    0.4623 H   0  0  0  0  0  0  0  0  0  0  0  0
    1.8031    1.2050    0.5879 H   0  0  0  0  0  0  0  0  0  0  0  0
    0.9129    1.8254    1.9993 H   0  0  0  0  0  0  0  0  0  0  0  0
    0.0305   -1.1966    0.2686 H   0  0  0  0  0  0  0  0  0  0  0  0
    1.7953   -1.1966    0.2686 H   0  0  0  0  0  0  0  0  0  0  0  0
    0.0416   -2.5928    2.3630 H   0  0  0  0  0  0  0  0  0  0  0  0
    1.7842   -2.5928    2.3630 H   0  0  0  0  0  0  0  0  0  0  0  0
    0.9129   -4.7307    1.4047 H   0  0  0  0  0  0  0  0  0  0  0  0
  1  2  1  0
  1  5  1  0
  1  6  1  0
  1 15  1  0
  2  3  1  0
  3  4  2  3
  4  7  1  0
  4  8  1  0
  9 10  1  0
  9 16  1  0
  9 17  1  0
 10 11  1  0
 11 12  1  0
 11 18  1  0
 11 19  1  0
 12 13  1  0
 12 20  1  0
 12 21  1  0
 13 14  2  0
 13 22  1  0
M  RAD  1   9   2
M  END
>  <reaction>  (24) 
rmg_rxn_15637

>  <mol_properties>  (24) 
{"0": {"label": "*3", "atom_type": "Cs"}, "1": {"label": "*4", "atom_type": "O2s"}, "8": {"label": "*1", "atom_type": "Cs"}, "9": {"label": "*0", "atom_type": "O2s"}, "14": {"label": "*2", "atom_type": "H0"}}

>  <type>  (24) 
unop_20

>  <geom_source>  (24) 
Heuristics

$$$$

     RDKit          3D

 22 20  0  0  0  0  0  0  0  0999 V2000
   -0.7645    2.3064   -0.6813 C   0  0  0  0  0  0  0  0  0  0  0  0
   -1.5088    1.1107   -0.5549 O   0  0  0  0  0  0  0  0  0  0  0  0
   -2.6508    1.1935   -1.3149 N   0  0  0  0  0  0  0  0  0  0  0  0
   -3.3512    0.1448   -1.2341 C   0  0  0  0  0  0  0  0  0  0  0  0
   -0.4643    2.4719   -1.7184 H   0  0  0  0  0  0  0  0  0  0  0  0
   -1.3403    3.1642   -0.3266 H   0  0  0  0  0  0  0  0  0  0  0  0
   -4.2700    0.1303   -1.8052 H   0  0  0  0  0  0  0  0  0  0  0  0
   -3.0602   -0.7091   -0.6261 H   0  0  0  0  0  0  0  0  0  0  0  0
    1.3631    1.9819    0.8193 C   0  0  0  0  0  3  0  0  0  0  0  0
    1.3631    0.7265    1.4438 O   0  0  0  0  0  0  0  0  0  0  0  0
    1.3631   -0.3347    0.5237 C   0  0  0  0  0  0  0  0  0  0  0  0
    1.3631   -1.6295    1.3044 C   0  0  0  0  0  0  0  0  0  0  0  0
    1.3631   -2.8602    0.4476 C   0  0  0  0  0  0  0  0  0  0  0  0
    1.3631   -2.8602   -0.7530 O   0  0  0  0  0  0  0  0  0  0  0  0
    0.2948    2.1448    0.0659 H   0  0  0  0  0  0  0  0  0  0  0  0
    2.2534    2.1177    0.1914 H   0  0  0  0  0  0  0  0  0  0  0  0
    1.3631    2.7380    1.6028 H   0  0  0  0  0  0  0  0  0  0  0  0
    0.4807   -0.2840   -0.1279 H   0  0  0  0  0  0  0  0  0  0  0  0
    2.2455   -0.2840   -0.1279 H   0  0  0  0  0  0  0  0  0  0  0  0
    0.4919   -1.6802    1.9666 H   0  0  0  0  0  0  0  0  0  0  0  0
    2.2344   -1.6802    1.9666 H   0  0  0  0  0  0  0  0  0  0  0  0
    1.3631   -3.8180    1.0083 H   0  0  0  0  0  0  0  0  0  0  0  0
  1  2  1  0
  1  5  1  0
  1  6  1  0
  1 15  1  0
  2  3  1  0
  3  4  2  3
  4  7  1  0
  4  8  1  0
  9 10  1  0
  9 16  1  0
  9 17  1  0
 10 11  1  0
 11 12  1  0
 11 18  1  0
 11 19  1  0
 12 13  1  0
 12 20  1  0
 12 21  1  0
 13 14  2  0
 13 22  1  0
M  RAD  1   9   2
M  END
>  <reaction>  (25) 
rmg_rxn_15637

>  <mol_properties>  (25) 
{"0": {"label": "*3", "atom_type": "Cs"}, "1": {"label": "*4", "atom_type": "O2s"}, "8": {"label": "*1", "atom_type": "Cs"}, "9": {"label": "*0", "atom_type": "O2s"}, "14": {"label": "*2", "atom_type": "H0"}}

>  <type>  (25) 
unop_21

>  <geom_source>  (25) 
Heuristics

$$$$

     RDKit          3D

 22 20  0  0  0  0  0  0  0  0999 V2000
   -1.6859   -0.8434   -1.2596 O   0  0  0  0  0  0  0  0  0  0  0  0
    2.8914   -1.0233    0.4949 O   0  0  0  0  0  0  0  0  0  0  0  0
   -4.0303    2.5070    0.7423 O   0  0  0  0  0  0  0  0  0  0  0  0
    3.0744    0.2964    0.1512 N   0  0  0  0  0  0  0  0  0  0  0  0
   -2.6198    0.6371    0.4153 C   0  0  0  0  0  0  0  0  0  0  0  0
   -1.8672    0.5122   -0.9135 C   0  0  0  0  0  0  0  0  0  0  0  0
    1.9249   -1.8100   -0.1802 C   0  0  0  0  0  0  0  0  0  0  0  0
   -2.8880    2.0769    0.7338 C   0  0  0  0  0  0  0  0  0  0  0  0
   -0.5363   -1.3156   -0.6076 C   0  0  0  0  0  3  0  0  0  0  0  0
    3.9541    1.0178    0.7635 C   0  0  0  0  0  0  0  0  0  0  0  0
   -2.0125    0.2003    1.2363 H   0  0  0  0  0  0  0  0  0  0  0  0
   -3.5775    0.0748    0.3525 H   0  0  0  0  0  0  0  0  0  0  0  0
   -2.4821    0.9826   -1.7110 H   0  0  0  0  0  0  0  0  0  0  0  0
   -0.9057    1.0810   -0.8822 H   0  0  0  0  0  0  0  0  0  0  0  0
    2.1786   -1.8730   -1.2592 H   0  0  0  0  0  0  0  0  0  0  0  0
    1.9152   -2.8313    0.2526 H   0  0  0  0  0  0  0  0  0  0  0  0
    0.7055   -1.2539   -0.0348 H   0  0  0  0  0  0  0  0  0  0  0  0
   -2.0609    2.7477    0.9431 H   0  0  0  0  0  0  0  0  0  0  0  0
    4.5596    0.5949    1.5553 H   0  0  0  0  0  0  0  0  0  0  0  0
    4.0886    2.0538    0.4844 H   0  0  0  0  0  0  0  0  0  0  0  0
    0.1873   -1.6928   -1.3595 H   0  0  0  0  0  0  0  0  0  0  0  0
   -0.8135   -2.1394    0.0823 H   0  0  0  0  0  0  0  0  0  0  0  0
  1  9  1  0
  1  6  1  0
  2  7  1  0
  2  4  1  0
  3  8  2  0
  4 10  2  3
  5  8  1  0
  5  6  1  0
  5 11  1  0
  5 12  1  0
  6 13  1  0
  6 14  1  0
  7 15  1  0
  7 16  1  0
  7 17  1  0
  8 18  1  0
  9 21  1  0
  9 22  1  0
 10 19  1  0
 10 20  1  0
M  RAD  1   9   2
M  END
>  <reaction>  (26) 
rmg_rxn_15637

>  <mol_properties>  (26) 
{"0": {"label": "*3", "atom_type": "Cs"}, "1": {"label": "*4", "atom_type": "O2s"}, "8": {"label": "*1", "atom_type": "Cs"}, "9": {"label": "*0", "atom_type": "O2s"}, "14": {"label": "*2", "atom_type": "H0"}}

>  <type>  (26) 
unop_22

>  <geom_source>  (26) 
AutoTST

$$$$

     RDKit          3D

 22 20  0  0  0  0  0  0  0  0999 V2000
   -0.6409    2.0726   -0.9298 C   0  0  0  0  0  0  0  0  0  0  0  0
   -1.6612    1.3075   -0.3189 O   0  0  0  0  0  0  0  0  0  0  0  0
   -2.8890    1.7274   -0.7716 N   0  0  0  0  0  0  0  0  0  0  0  0
   -3.8357    1.0711   -0.2523 C   0  0  0  0  0  0  0  0  0  0  0  0
   -0.6568    1.9493   -2.0151 H   0  0  0  0  0  0  0  0  0  0  0  0
   -0.7444    3.1312   -0.6812 H   0  0  0  0  0  0  0  0  0  0  0  0
   -4.8377    1.3414   -0.5576 H   0  0  0  0  0  0  0  0  0  0  0  0
   -3.6695    0.2719    0.4668 H   0  0  0  0  0  0  0  0  0  0  0  0
    1.4867    1.7481    0.5707 C   0  0  0  0  0  3  0  0  0  0  0  0
    1.4868    0.4928    1.1952 O   0  0  0  0  0  0  0  0  0  0  0  0
    1.4868   -0.5684    0.2751 C   0  0  0  0  0  0  0  0  0  0  0  0
    1.4868   -1.8633    1.0559 C   0  0  0  0  0  0  0  0  0  0  0  0
    1.4868   -3.0939    0.1990 C   0  0  0  0  0  0  0  0  0  0  0  0
    1.4868   -3.0939   -1.0015 O   0  0  0  0  0  0  0  0  0  0  0  0
    0.4184    1.9110   -0.1827 H   0  0  0  0  0  0  0  0  0  0  0  0
    2.3770    1.8839   -0.0571 H   0  0  0  0  0  0  0  0  0  0  0  0
    1.4867    2.5043    1.3543 H   0  0  0  0  0  0  0  0  0  0  0  0
    0.6043   -0.5178   -0.3764 H   0  0  0  0  0  0  0  0  0  0  0  0
    2.3691   -0.5178   -0.3764 H   0  0  0  0  0  0  0  0  0  0  0  0
    0.6155   -1.9140    1.7180 H   0  0  0  0  0  0  0  0  0  0  0  0
    2.3580   -1.9140    1.7180 H   0  0  0  0  0  0  0  0  0  0  0  0
    1.4868   -4.0518    0.7597 H   0  0  0  0  0  0  0  0  0  0  0  0
  1  2  1  0
  1  5  1  0
  1  6  1  0
  1 15  1  0
  2  3  1  0
  3  4  2  3
  4  7  1  0
  4  8  1  0
  9 10  1  0
  9 16  1  0
  9 17  1  0
 10 11  1  0
 11 12  1  0
 11 18  1  0
 11 19  1  0
 12 13  1  0
 12 20  1  0
 12 21  1  0
 13 14  2  0
 13 22  1  0
M  RAD  1   9   2
M  END
>  <reaction>  (27) 
rmg_rxn_15637

>  <mol_properties>  (27) 
{"0": {"label": "*3", "atom_type": "Cs"}, "1": {"label": "*4", "atom_type": "O2s"}, "8": {"label": "*1", "atom_type": "Cs"}, "9": {"label": "*0", "atom_type": "O2s"}, "14": {"label": "*2", "atom_type": "H0"}}

>  <type>  (27) 
unop_23

>  <geom_source>  (27) 
gaussian_log

$$$$
