
     RDKit          3D

 12 11  0  0  0  0  0  0  0  0999 V2000
   -1.4643   -0.2505   -0.5284 C   0  0  0  0  0  0  0  0  0  0  0  0
   -0.3946    0.4302    0.3143 C   0  0  0  0  0  0  0  0  0  0  0  0
   -0.5959    0.2382    1.8102 C   0  0  0  0  0  0  0  0  0  0  0  0
   -0.5633   -1.1190    2.2092 O   0  0  0  0  0  0  0  0  0  0  0  0
   -2.4511    0.1644   -0.3109 H   0  0  0  0  0  0  0  0  0  0  0  0
   -1.5019   -1.3198   -0.3181 H   0  0  0  0  0  0  0  0  0  0  0  0
   -1.2720   -0.1182   -1.5941 H   0  0  0  0  0  0  0  0  0  0  0  0
    0.5965    0.0515    0.0385 H   0  0  0  0  0  0  0  0  0  0  0  0
   -0.3776    1.5047    0.1078 H   0  0  0  0  0  0  0  0  0  0  0  0
   -1.5821    0.6048    2.1034 H   0  0  0  0  0  0  0  0  0  0  0  0
    0.1495    0.8220    2.3649 H   0  0  0  0  0  0  0  0  0  0  0  0
    0.3017   -1.4750    1.9997 H   0  0  0  0  0  0  0  0  0  0  0  0
  1  2  1  0
  1  5  1  0
  1  6  1  0
  1  7  1  0
  2  3  1  0
  2  8  1  0
  2  9  1  0
  3  4  1  0
  3 10  1  0
  3 11  1  0
  4 12  1  0
M  END
>  <reaction>  (1) 
rmg_rxn_368

>  <mol_properties>  (1) 
{"3": {"label": "donator", "atom_type": "O2s"}, "11": {"label": "d_hydrogen", "atom_type": "H0"}}

>  <type>  (1) 
r1h

$$$$

     RDKit          3D

  8  7  0  0  0  0  0  0  0  0999 V2000
    1.3778   -0.6812    0.2772 C   0  0  0  0  0  3  0  0  0  0  0  0
    0.4890    0.2108   -0.0590 C   0  0  0  0  0  0  0  0  0  0  0  0
   -1.0010    0.0286   -0.0323 C   0  0  0  0  0  0  0  0  0  0  0  0
    2.4535   -0.7507    0.3287 H   0  0  0  0  0  0  0  0  0  0  0  0
    0.8447    1.1899   -0.3945 H   0  0  0  0  0  0  0  0  0  0  0  0
   -1.4635    0.7638    0.6301 H   0  0  0  0  0  0  0  0  0  0  0  0
   -1.2709   -0.9687    0.3117 H   0  0  0  0  0  0  0  0  0  0  0  0
   -1.4218    0.1801   -1.0289 H   0  0  0  0  0  0  0  0  0  0  0  0
  1  2  2  3
  1  4  1  0
  2  3  1  0
  2  5  1  0
  3  6  1  0
  3  7  1  0
  3  8  1  0
M  RAD  1   1   2
M  END
>  <reaction>  (2) 
rmg_rxn_368

>  <mol_properties>  (2) 
{"0": {"label": "acceptor", "atom_type": "Cd"}}

>  <type>  (2) 
r2

$$$$

     RDKit          3D

  9  8  0  0  0  0  0  0  0  0999 V2000
    1.1303   -0.2933   -0.7510 C   0  0  0  0  0  0  0  0  0  0  0  0
    0.2866    0.4560   -0.0588 C   0  0  0  0  0  0  0  0  0  0  0  0
   -0.9719   -0.0331    0.5823 C   0  0  0  0  0  0  0  0  0  0  0  0
    2.0274    0.1230   -1.1916 H   0  0  0  0  0  0  0  0  0  0  0  0
    0.9532   -1.3530   -0.9023 H   0  0  0  0  0  0  0  0  0  0  0  0
    0.5065    1.5132    0.0659 H   0  0  0  0  0  0  0  0  0  0  0  0
   -0.9526    0.1426    1.6610 H   0  0  0  0  0  0  0  0  0  0  0  0
   -1.1182   -1.1002    0.4106 H   0  0  0  0  0  0  0  0  0  0  0  0
   -1.8412    0.5010    0.1901 H   0  0  0  0  0  0  0  0  0  0  0  0
  1  2  2  3
  1  4  1  0
  1  5  1  0
  2  3  1  0
  2  6  1  0
  3  7  1  0
  3  8  1  0
  3  9  1  0
M  END
>  <reaction>  (3) 
rmg_rxn_368

>  <mol_properties>  (3) 
{"0": {"label": "acceptor", "atom_type": "Cd"}, "8": {"label": "a_hydrogen", "atom_type": "H0"}}

>  <type>  (3) 
r2h

$$$$

     RDKit          3D

 20 18  0  0  0  0  0  0  0  0999 V2000
   -1.6606   -0.4789    0.2879 C   0  0  0  0  0  3  0  0  0  0  0  0
   -1.8339   -1.0081    1.4769 C   0  0  0  0  0  0  0  0  0  0  0  0
   -1.0268   -0.7051    2.7003 C   0  0  0  0  0  0  0  0  0  0  0  0
   -2.2087   -0.6607   -0.6278 H   0  0  0  0  0  0  0  0  0  0  0  0
   -2.6416   -1.7316    1.5962 H   0  0  0  0  0  0  0  0  0  0  0  0
   -1.6764   -0.3608    3.5080 H   0  0  0  0  0  0  0  0  0  0  0  0
   -0.2832    0.0650    2.4995 H   0  0  0  0  0  0  0  0  0  0  0  0
   -0.5208   -1.6052    3.0578 H   0  0  0  0  0  0  0  0  0  0  0  0
    1.3919    0.3679   -2.6205 C   0  0  0  0  0  0  0  0  0  0  0  0
    1.3943   -0.5603   -1.4146 C   0  0  0  0  0  0  0  0  0  0  0  0
    1.3746    0.1827   -0.0857 C   0  0  0  0  0  0  0  0  0  0  0  0
    0.2843    1.0465    0.0735 O   0  0  0  0  0  0  0  0  0  0  0  0
    2.2807    1.0036   -2.6255 H   0  0  0  0  0  0  0  0  0  0  0  0
    0.5185    1.0207   -2.6039 H   0  0  0  0  0  0  0  0  0  0  0  0
    1.3790   -0.1971   -3.5537 H   0  0  0  0  0  0  0  0  0  0  0  0
    0.5266   -1.2265   -1.4506 H   0  0  0  0  0  0  0  0  0  0  0  0
    2.2796   -1.2032   -1.4319 H   0  0  0  0  0  0  0  0  0  0  0  0
    2.2544    0.8354   -0.0117 H   0  0  0  0  0  0  0  0  0  0  0  0
    1.4374   -0.5307    0.7467 H   0  0  0  0  0  0  0  0  0  0  0  0
   -0.6963    0.3938    0.1410 H   0  0  0  0  0  0  0  0  0  0  0  0
  1  2  2  3
  1  4  1  0
  2  3  1  0
  2  5  1  0
  3  6  1  0
  3  7  1  0
  3  8  1  0
  9 10  1  0
  9 13  1  0
  9 14  1  0
  9 15  1  0
 10 11  1  0
 10 16  1  0
 10 17  1  0
 11 12  1  0
 11 18  1  0
 11 19  1  0
 12 20  1  0
M  RAD  1   1   2
M  END
>  <reaction>  (4) 
rmg_rxn_368

>  <mol_properties>  (4) 
{"0": {"label": "*3", "atom_type": "Cd"}, "1": {"label": "*4", "atom_type": "Cd"}, "10": {"label": "*0", "atom_type": "Cs"}, "11": {"label": "*1", "atom_type": "O2s"}, "19": {"label": "*2", "atom_type": "H0"}}

>  <type>  (4) 
ts

$$$$

     RDKit          3D

 20 18  0  0  0  0  0  0  0  0999 V2000
   -1.4985   -0.2117    0.3252 C   0  0  0  0  0  3  0  0  0  0  0  0
   -2.3147    0.3800    1.1831 C   0  0  0  0  0  0  0  0  0  0  0  0
   -1.8843    1.1400    2.3961 C   0  0  0  0  0  0  0  0  0  0  0  0
   -1.8747   -0.7483   -0.5367 H   0  0  0  0  0  0  0  0  0  0  0  0
   -3.3865    0.3215    1.0115 H   0  0  0  0  0  0  0  0  0  0  0  0
   -2.2367    2.1738    2.3526 H   0  0  0  0  0  0  0  0  0  0  0  0
   -0.7982    1.1511    2.4951 H   0  0  0  0  0  0  0  0  0  0  0  0
   -2.3081    0.6990    3.3020 H   0  0  0  0  0  0  0  0  0  0  0  0
    1.6370   -1.2419   -2.2858 C   0  0  0  0  0  0  0  0  0  0  0  0
    1.6370   -1.2419   -0.7633 C   0  0  0  0  0  0  0  0  0  0  0  0
    1.6370    0.1561   -0.1626 C   0  0  0  0  0  0  0  0  0  0  0  0
    0.5032    0.9209   -0.5257 O   0  0  0  0  0  0  0  0  0  0  0  0
    2.5362   -0.7575   -2.6732 H   0  0  0  0  0  0  0  0  0  0  0  0
    0.7754   -0.6977   -2.6739 H   0  0  0  0  0  0  0  0  0  0  0  0
    1.6062   -2.2581   -2.6813 H   0  0  0  0  0  0  0  0  0  0  0  0
    0.7637   -1.7885   -0.3889 H   0  0  0  0  0  0  0  0  0  0  0  0
    2.5144   -1.7753   -0.3853 H   0  0  0  0  0  0  0  0  0  0  0  0
    2.4981    0.7191   -0.5293 H   0  0  0  0  0  0  0  0  0  0  0  0
    1.7270    0.0930    0.9292 H   0  0  0  0  0  0  0  0  0  0  0  0
   -0.4358    0.3896   -0.1266 H   0  0  0  0  0  0  0  0  0  0  0  0
  1  2  2  3
  1  4  1  0
  2  3  1  0
  2  5  1  0
  3  6  1  0
  3  7  1  0
  3  8  1  0
  9 10  1  0
  9 13  1  0
  9 14  1  0
  9 15  1  0
 10 11  1  0
 10 16  1  0
 10 17  1  0
 11 12  1  0
 11 18  1  0
 11 19  1  0
 12 20  1  0
M  RAD  1   1   2
M  END
>  <reaction>  (5) 
rmg_rxn_368

>  <mol_properties>  (5) 
{"0": {"label": "*3", "atom_type": "Cd"}, "1": {"label": "*4", "atom_type": "Cd"}, "10": {"label": "*0", "atom_type": "Cs"}, "11": {"label": "*1", "atom_type": "O2s"}, "19": {"label": "*2", "atom_type": "H0"}}

>  <type>  (5) 
unop_1

>  <geom_source>  (5) 
Heuristics

$$$$

     RDKit          3D

 20 18  0  0  0  0  0  0  0  0999 V2000
   -1.8582    0.3535    0.3382 C   0  0  0  0  0  3  0  0  0  0  0  0
   -1.8204   -0.3825    1.4378 C   0  0  0  0  0  0  0  0  0  0  0  0
   -0.5784   -0.9269    2.0665 C   0  0  0  0  0  0  0  0  0  0  0  0
   -2.7935    0.7183   -0.0674 H   0  0  0  0  0  0  0  0  0  0  0  0
   -2.7543   -0.6222    1.9397 H   0  0  0  0  0  0  0  0  0  0  0  0
   -0.4690   -0.5619    3.0910 H   0  0  0  0  0  0  0  0  0  0  0  0
    0.3113   -0.6421    1.5035 H   0  0  0  0  0  0  0  0  0  0  0  0
   -0.6164   -2.0179    2.1216 H   0  0  0  0  0  0  0  0  0  0  0  0
    1.2773   -0.6766   -2.2728 C   0  0  0  0  0  0  0  0  0  0  0  0
    1.2773   -0.6766   -0.7503 C   0  0  0  0  0  0  0  0  0  0  0  0
    1.2773    0.7214   -0.1496 C   0  0  0  0  0  0  0  0  0  0  0  0
    0.1435    1.4861   -0.5127 O   0  0  0  0  0  0  0  0  0  0  0  0
    2.1765   -0.1923   -2.6603 H   0  0  0  0  0  0  0  0  0  0  0  0
    0.4157   -0.1325   -2.6610 H   0  0  0  0  0  0  0  0  0  0  0  0
    1.2465   -1.6928   -2.6684 H   0  0  0  0  0  0  0  0  0  0  0  0
    0.4040   -1.2233   -0.3760 H   0  0  0  0  0  0  0  0  0  0  0  0
    2.1547   -1.2101   -0.3723 H   0  0  0  0  0  0  0  0  0  0  0  0
    2.1384    1.2844   -0.5164 H   0  0  0  0  0  0  0  0  0  0  0  0
    1.3673    0.6582    0.9422 H   0  0  0  0  0  0  0  0  0  0  0  0
   -0.7955    0.9548   -0.1136 H   0  0  0  0  0  0  0  0  0  0  0  0
  1  2  2  3
  1  4  1  0
  2  3  1  0
  2  5  1  0
  3  6  1  0
  3  7  1  0
  3  8  1  0
  9 10  1  0
  9 13  1  0
  9 14  1  0
  9 15  1  0
 10 11  1  0
 10 16  1  0
 10 17  1  0
 11 12  1  0
 11 18  1  0
 11 19  1  0
 12 20  1  0
M  RAD  1   1   2
M  END
>  <reaction>  (6) 
rmg_rxn_368

>  <mol_properties>  (6) 
{"0": {"label": "*3", "atom_type": "Cd"}, "1": {"label": "*4", "atom_type": "Cd"}, "10": {"label": "*0", "atom_type": "Cs"}, "11": {"label": "*1", "atom_type": "O2s"}, "19": {"label": "*2", "atom_type": "H0"}}

>  <type>  (6) 
unop_2

>  <geom_source>  (6) 
Heuristics

$$$$

     RDKit          3D

 20 18  0  0  0  0  0  0  0  0999 V2000
   -1.3609   -0.3176    0.5486 C   0  0  0  0  0  3  0  0  0  0  0  0
   -2.4441    0.3607    0.8937 C   0  0  0  0  0  0  0  0  0  0  0  0
   -2.4456    1.6953    1.5666 C   0  0  0  0  0  0  0  0  0  0  0  0
   -1.4279   -1.2826    0.0622 H   0  0  0  0  0  0  0  0  0  0  0  0
   -3.4201   -0.0677    0.6804 H   0  0  0  0  0  0  0  0  0  0  0  0
   -2.9708    2.4367    0.9589 H   0  0  0  0  0  0  0  0  0  0  0  0
   -1.4308    2.0534    1.7443 H   0  0  0  0  0  0  0  0  0  0  0  0
   -2.9664    1.6464    2.5264 H   0  0  0  0  0  0  0  0  0  0  0  0
    1.7745   -1.3477   -2.0623 C   0  0  0  0  0  0  0  0  0  0  0  0
    1.7745   -1.3477   -0.5399 C   0  0  0  0  0  0  0  0  0  0  0  0
    1.7745    0.0502    0.0608 C   0  0  0  0  0  0  0  0  0  0  0  0
    0.6407    0.8150   -0.3023 O   0  0  0  0  0  0  0  0  0  0  0  0
    2.6738   -0.8634   -2.4498 H   0  0  0  0  0  0  0  0  0  0  0  0
    0.9130   -0.8036   -2.4505 H   0  0  0  0  0  0  0  0  0  0  0  0
    1.7438   -2.3639   -2.4579 H   0  0  0  0  0  0  0  0  0  0  0  0
    0.9012   -1.8944   -0.1655 H   0  0  0  0  0  0  0  0  0  0  0  0
    2.6520   -1.8812   -0.1619 H   0  0  0  0  0  0  0  0  0  0  0  0
    2.6357    0.6133   -0.3059 H   0  0  0  0  0  0  0  0  0  0  0  0
    1.8645   -0.0129    1.1526 H   0  0  0  0  0  0  0  0  0  0  0  0
   -0.2982    0.2837    0.0969 H   0  0  0  0  0  0  0  0  0  0  0  0
  1  2  2  3
  1  4  1  0
  2  3  1  0
  2  5  1  0
  3  6  1  0
  3  7  1  0
  3  8  1  0
  9 10  1  0
  9 13  1  0
  9 14  1  0
  9 15  1  0
 10 11  1  0
 10 16  1  0
 10 17  1  0
 11 12  1  0
 11 18  1  0
 11 19  1  0
 12 20  1  0
M  RAD  1   1   2
M  END
>  <reaction>  (7) 
rmg_rxn_368

>  <mol_properties>  (7) 
{"0": {"label": "*3", "atom_type": "Cd"}, "1": {"label": "*4", "atom_type": "Cd"}, "10": {"label": "*0", "atom_type": "Cs"}, "11": {"label": "*1", "atom_type": "O2s"}, "19": {"label": "*2", "atom_type": "H0"}}

>  <type>  (7) 
unop_3

>  <geom_source>  (7) 
Heuristics

$$$$

     RDKit          3D

 20 18  0  0  0  0  0  0  0  0999 V2000
   -1.7218    0.5691    0.9007 C   0  0  0  0  0  3  0  0  0  0  0  0
   -2.0330   -0.6606    0.5221 C   0  0  0  0  0  0  0  0  0  0  0  0
   -1.0476   -1.7285    0.1718 C   0  0  0  0  0  0  0  0  0  0  0  0
   -2.4854    1.2980    1.1414 H   0  0  0  0  0  0  0  0  0  0  0  0
   -3.0819   -0.9376    0.4535 H   0  0  0  0  0  0  0  0  0  0  0  0
   -1.1697   -2.5987    0.8218 H   0  0  0  0  0  0  0  0  0  0  0  0
   -0.0216   -1.3706    0.2660 H   0  0  0  0  0  0  0  0  0  0  0  0
   -1.1984   -2.0756   -0.8536 H   0  0  0  0  0  0  0  0  0  0  0  0
    1.4137   -0.4610   -1.7102 C   0  0  0  0  0  0  0  0  0  0  0  0
    1.4137   -0.4610   -0.1878 C   0  0  0  0  0  0  0  0  0  0  0  0
    1.4137    0.9369    0.4130 C   0  0  0  0  0  0  0  0  0  0  0  0
    0.2799    1.7017    0.0498 O   0  0  0  0  0  0  0  0  0  0  0  0
    2.3129    0.0233   -2.0977 H   0  0  0  0  0  0  0  0  0  0  0  0
    0.5522    0.0831   -2.0984 H   0  0  0  0  0  0  0  0  0  0  0  0
    1.3829   -1.4772   -2.1058 H   0  0  0  0  0  0  0  0  0  0  0  0
    0.5404   -1.0077    0.1866 H   0  0  0  0  0  0  0  0  0  0  0  0
    2.2911   -0.9945    0.1902 H   0  0  0  0  0  0  0  0  0  0  0  0
    2.2748    1.5000    0.0462 H   0  0  0  0  0  0  0  0  0  0  0  0
    1.5037    0.8738    1.5047 H   0  0  0  0  0  0  0  0  0  0  0  0
   -0.6591    1.1704    0.4490 H   0  0  0  0  0  0  0  0  0  0  0  0
  1  2  2  3
  1  4  1  0
  2  3  1  0
  2  5  1  0
  3  6  1  0
  3  7  1  0
  3  8  1  0
  9 10  1  0
  9 13  1  0
  9 14  1  0
  9 15  1  0
 10 11  1  0
 10 16  1  0
 10 17  1  0
 11 12  1  0
 11 18  1  0
 11 19  1  0
 12 20  1  0
M  RAD  1   1   2
M  END
>  <reaction>  (8) 
rmg_rxn_368

>  <mol_properties>  (8) 
{"0": {"label": "*3", "atom_type": "Cd"}, "1": {"label": "*4", "atom_type": "Cd"}, "10": {"label": "*0", "atom_type": "Cs"}, "11": {"label": "*1", "atom_type": "O2s"}, "19": {"label": "*2", "atom_type": "H0"}}

>  <type>  (8) 
unop_4

>  <geom_source>  (8) 
Heuristics

$$$$

     RDKit          3D

 20 18  0  0  0  0  0  0  0  0999 V2000
   -1.2820   -0.2560    0.9026 C   0  0  0  0  0  3  0  0  0  0  0  0
   -2.4929    0.2415    0.7065 C   0  0  0  0  0  0  0  0  0  0  0  0
   -2.7943    1.5076   -0.0286 C   0  0  0  0  0  0  0  0  0  0  0  0
   -1.1305   -1.1806    1.4453 H   0  0  0  0  0  0  0  0  0  0  0  0
   -3.3503   -0.2964    1.1027 H   0  0  0  0  0  0  0  0  0  0  0  0
   -3.4471    1.3146   -0.8839 H   0  0  0  0  0  0  0  0  0  0  0  0
   -1.8831    1.9840   -0.3924 H   0  0  0  0  0  0  0  0  0  0  0  0
   -3.3194    2.2165    0.6167 H   0  0  0  0  0  0  0  0  0  0  0  0
    1.8535   -1.2862   -1.7084 C   0  0  0  0  0  0  0  0  0  0  0  0
    1.8535   -1.2862   -0.1859 C   0  0  0  0  0  0  0  0  0  0  0  0
    1.8535    0.1118    0.4148 C   0  0  0  0  0  0  0  0  0  0  0  0
    0.7197    0.8765    0.0517 O   0  0  0  0  0  0  0  0  0  0  0  0
    2.7528   -0.8018   -2.0959 H   0  0  0  0  0  0  0  0  0  0  0  0
    0.9920   -0.7420   -2.0966 H   0  0  0  0  0  0  0  0  0  0  0  0
    1.8227   -2.3024   -2.1040 H   0  0  0  0  0  0  0  0  0  0  0  0
    0.9802   -1.8328    0.1884 H   0  0  0  0  0  0  0  0  0  0  0  0
    2.7309   -1.8196    0.1921 H   0  0  0  0  0  0  0  0  0  0  0  0
    2.7147    0.6748    0.0480 H   0  0  0  0  0  0  0  0  0  0  0  0
    1.9435    0.0487    1.5066 H   0  0  0  0  0  0  0  0  0  0  0  0
   -0.2192    0.3453    0.4508 H   0  0  0  0  0  0  0  0  0  0  0  0
  1  2  2  3
  1  4  1  0
  2  3  1  0
  2  5  1  0
  3  6  1  0
  3  7  1  0
  3  8  1  0
  9 10  1  0
  9 13  1  0
  9 14  1  0
  9 15  1  0
 10 11  1  0
 10 16  1  0
 10 17  1  0
 11 12  1  0
 11 18  1  0
 11 19  1  0
 12 20  1  0
M  RAD  1   1   2
M  END
>  <reaction>  (9) 
rmg_rxn_368

>  <mol_properties>  (9) 
{"0": {"label": "*3", "atom_type": "Cd"}, "1": {"label": "*4", "atom_type": "Cd"}, "10": {"label": "*0", "atom_type": "Cs"}, "11": {"label": "*1", "atom_type": "O2s"}, "19": {"label": "*2", "atom_type": "H0"}}

>  <type>  (9) 
unop_5

>  <geom_source>  (9) 
Heuristics

$$$$

     RDKit          3D

 20 18  0  0  0  0  0  0  0  0999 V2000
   -1.5780    0.4732    1.0681 C   0  0  0  0  0  3  0  0  0  0  0  0
   -2.2238   -0.4259    0.3423 C   0  0  0  0  0  0  0  0  0  0  0  0
   -1.5769   -1.4872   -0.4880 C   0  0  0  0  0  0  0  0  0  0  0  0
   -2.1069    1.2180    1.6494 H   0  0  0  0  0  0  0  0  0  0  0  0
   -3.3106   -0.4099    0.3347 H   0  0  0  0  0  0  0  0  0  0  0  0
   -1.8925   -2.4818   -0.1627 H   0  0  0  0  0  0  0  0  0  0  0  0
   -0.4893   -1.4344   -0.4258 H   0  0  0  0  0  0  0  0  0  0  0  0
   -1.8668   -1.3906   -1.5375 H   0  0  0  0  0  0  0  0  0  0  0  0
    1.5575   -0.5569   -1.5428 C   0  0  0  0  0  0  0  0  0  0  0  0
    1.5575   -0.5569   -0.0204 C   0  0  0  0  0  0  0  0  0  0  0  0
    1.5575    0.8411    0.5803 C   0  0  0  0  0  0  0  0  0  0  0  0
    0.4237    1.6058    0.2172 O   0  0  0  0  0  0  0  0  0  0  0  0
    2.4568   -0.0725   -1.9303 H   0  0  0  0  0  0  0  0  0  0  0  0
    0.6960   -0.0128   -1.9310 H   0  0  0  0  0  0  0  0  0  0  0  0
    1.5267   -1.5731   -1.9384 H   0  0  0  0  0  0  0  0  0  0  0  0
    0.6842   -1.1035    0.3540 H   0  0  0  0  0  0  0  0  0  0  0  0
    2.4349   -1.0903    0.3576 H   0  0  0  0  0  0  0  0  0  0  0  0
    2.4187    1.4041    0.2136 H   0  0  0  0  0  0  0  0  0  0  0  0
    1.6475    0.7779    1.6721 H   0  0  0  0  0  0  0  0  0  0  0  0
   -0.5152    1.0745    0.6164 H   0  0  0  0  0  0  0  0  0  0  0  0
  1  2  2  3
  1  4  1  0
  2  3  1  0
  2  5  1  0
  3  6  1  0
  3  7  1  0
  3  8  1  0
  9 10  1  0
  9 13  1  0
  9 14  1  0
  9 15  1  0
 10 11  1  0
 10 16  1  0
 10 17  1  0
 11 12  1  0
 11 18  1  0
 11 19  1  0
 12 20  1  0
M  RAD  1   1   2
M  END
>  <reaction>  (10) 
rmg_rxn_368

>  <mol_properties>  (10) 
{"0": {"label": "*3", "atom_type": "Cd"}, "1": {"label": "*4", "atom_type": "Cd"}, "10": {"label": "*0", "atom_type": "Cs"}, "11": {"label": "*1", "atom_type": "O2s"}, "19": {"label": "*2", "atom_type": "H0"}}

>  <type>  (10) 
unop_6

>  <geom_source>  (10) 
Heuristics

$$$$

     RDKit          3D

 20 18  0  0  0  0  0  0  0  0999 V2000
   -1.4277    0.2882    1.1571 C   0  0  0  0  0  3  0  0  0  0  0  0
   -2.3862   -0.1249    0.3428 C   0  0  0  0  0  0  0  0  0  0  0  0
   -2.1679   -0.8637   -0.9382 C   0  0  0  0  0  0  0  0  0  0  0  0
   -1.6527    0.8200    2.0730 H   0  0  0  0  0  0  0  0  0  0  0  0
   -3.4209    0.0782    0.6066 H   0  0  0  0  0  0  0  0  0  0  0  0
   -2.6669   -1.8360   -0.9162 H   0  0  0  0  0  0  0  0  0  0  0  0
   -1.1064   -1.0266   -1.1286 H   0  0  0  0  0  0  0  0  0  0  0  0
   -2.5884   -0.3111   -1.7823 H   0  0  0  0  0  0  0  0  0  0  0  0
    1.7077   -0.7419   -1.4539 C   0  0  0  0  0  0  0  0  0  0  0  0
    1.7077   -0.7419    0.0686 C   0  0  0  0  0  0  0  0  0  0  0  0
    1.7077    0.6560    0.6693 C   0  0  0  0  0  0  0  0  0  0  0  0
    0.5739    1.4208    0.3062 O   0  0  0  0  0  0  0  0  0  0  0  0
    2.6070   -0.2576   -1.8414 H   0  0  0  0  0  0  0  0  0  0  0  0
    0.8462   -0.1978   -1.8421 H   0  0  0  0  0  0  0  0  0  0  0  0
    1.6770   -1.7581   -1.8495 H   0  0  0  0  0  0  0  0  0  0  0  0
    0.8344   -1.2886    0.4429 H   0  0  0  0  0  0  0  0  0  0  0  0
    2.5852   -1.2754    0.4466 H   0  0  0  0  0  0  0  0  0  0  0  0
    2.5689    1.2191    0.3026 H   0  0  0  0  0  0  0  0  0  0  0  0
    1.7977    0.5929    1.7611 H   0  0  0  0  0  0  0  0  0  0  0  0
   -0.3650    0.8895    0.7053 H   0  0  0  0  0  0  0  0  0  0  0  0
  1  2  2  3
  1  4  1  0
  2  3  1  0
  2  5  1  0
  3  6  1  0
  3  7  1  0
  3  8  1  0
  9 10  1  0
  9 13  1  0
  9 14  1  0
  9 15  1  0
 10 11  1  0
 10 16  1  0
 10 17  1  0
 11 12  1  0
 11 18  1  0
 11 19  1  0
 12 20  1  0
M  RAD  1   1   2
M  END
>  <reaction>  (11) 
rmg_rxn_368

>  <mol_properties>  (11) 
{"0": {"label": "*3", "atom_type": "Cd"}, "1": {"label": "*4", "atom_type": "Cd"}, "10": {"label": "*0", "atom_type": "Cs"}, "11": {"label": "*1", "atom_type": "O2s"}, "19": {"label": "*2", "atom_type": "H0"}}

>  <type>  (11) 
unop_7

>  <geom_source>  (11) 
Heuristics

$$$$

     RDKit          3D

 20 18  0  0  0  0  0  0  0  0999 V2000
   -1.6499   -0.0350    0.2224 C   0  0  0  0  0  3  0  0  0  0  0  0
   -2.1315    0.2262    1.4274 C   0  0  0  0  0  0  0  0  0  0  0  0
   -1.3089    0.4061    2.6625 C   0  0  0  0  0  0  0  0  0  0  0  0
   -2.3012   -0.1544   -0.6343 H   0  0  0  0  0  0  0  0  0  0  0  0
   -3.2071    0.3217    1.5520 H   0  0  0  0  0  0  0  0  0  0  0  0
   -1.4725    1.3952    3.0980 H   0  0  0  0  0  0  0  0  0  0  0  0
   -0.2445    0.2951    2.4522 H   0  0  0  0  0  0  0  0  0  0  0  0
   -1.5874   -0.3257    3.4252 H   0  0  0  0  0  0  0  0  0  0  0  0
    1.4856   -1.0651   -2.3886 C   0  0  0  0  0  0  0  0  0  0  0  0
    1.4856   -1.0651   -0.8661 C   0  0  0  0  0  0  0  0  0  0  0  0
    1.4856    0.3328   -0.2654 C   0  0  0  0  0  0  0  0  0  0  0  0
    0.3518    1.0976   -0.6285 O   0  0  0  0  0  0  0  0  0  0  0  0
    2.3848   -0.5808   -2.7760 H   0  0  0  0  0  0  0  0  0  0  0  0
    0.6240   -0.5210   -2.7767 H   0  0  0  0  0  0  0  0  0  0  0  0
    1.4548   -2.0813   -2.7841 H   0  0  0  0  0  0  0  0  0  0  0  0
    0.6123   -1.6118   -0.4917 H   0  0  0  0  0  0  0  0  0  0  0  0
    2.3630   -1.5986   -0.4881 H   0  0  0  0  0  0  0  0  0  0  0  0
    2.3467    0.8959   -0.6321 H   0  0  0  0  0  0  0  0  0  0  0  0
    1.5756    0.2697    0.8264 H   0  0  0  0  0  0  0  0  0  0  0  0
   -0.5872    0.5663   -0.2294 H   0  0  0  0  0  0  0  0  0  0  0  0
  1  2  2  3
  1  4  1  0
  2  3  1  0
  2  5  1  0
  3  6  1  0
  3  7  1  0
  3  8  1  0
  9 10  1  0
  9 13  1  0
  9 14  1  0
  9 15  1  0
 10 11  1  0
 10 16  1  0
 10 17  1  0
 11 12  1  0
 11 18  1  0
 11 19  1  0
 12 20  1  0
M  RAD  1   1   2
M  END
>  <reaction>  (12) 
rmg_rxn_368

>  <mol_properties>  (12) 
{"0": {"label": "*3", "atom_type": "Cd"}, "1": {"label": "*4", "atom_type": "Cd"}, "10": {"label": "*0", "atom_type": "Cs"}, "11": {"label": "*1", "atom_type": "O2s"}, "19": {"label": "*2", "atom_type": "H0"}}

>  <type>  (12) 
unop_8

>  <geom_source>  (12) 
Heuristics

$$$$

     RDKit          3D

 20 18  0  0  0  0  0  0  0  0999 V2000
   -1.8275    0.5705    0.6993 C   0  0  0  0  0  3  0  0  0  0  0  0
   -1.8718   -0.7456    0.8335 C   0  0  0  0  0  0  0  0  0  0  0  0
   -0.6804   -1.6477    0.8671 C   0  0  0  0  0  0  0  0  0  0  0  0
   -2.7297    1.1689    0.6824 H   0  0  0  0  0  0  0  0  0  0  0  0
   -2.8403   -1.2299    0.9284 H   0  0  0  0  0  0  0  0  0  0  0  0
   -0.6434   -2.2084    1.8047 H   0  0  0  0  0  0  0  0  0  0  0  0
    0.2486   -1.0852    0.7662 H   0  0  0  0  0  0  0  0  0  0  0  0
   -0.7268   -2.3834    0.0600 H   0  0  0  0  0  0  0  0  0  0  0  0
    1.3080   -0.4596   -1.9116 C   0  0  0  0  0  0  0  0  0  0  0  0
    1.3080   -0.4596   -0.3892 C   0  0  0  0  0  0  0  0  0  0  0  0
    1.3080    0.9384    0.2116 C   0  0  0  0  0  0  0  0  0  0  0  0
    0.1742    1.7031   -0.1516 O   0  0  0  0  0  0  0  0  0  0  0  0
    2.2072    0.0248   -2.2991 H   0  0  0  0  0  0  0  0  0  0  0  0
    0.4465    0.0846   -2.2998 H   0  0  0  0  0  0  0  0  0  0  0  0
    1.2772   -1.4758   -2.3072 H   0  0  0  0  0  0  0  0  0  0  0  0
    0.4347   -1.0062   -0.0148 H   0  0  0  0  0  0  0  0  0  0  0  0
    2.1854   -0.9930   -0.0112 H   0  0  0  0  0  0  0  0  0  0  0  0
    2.1691    1.5014   -0.1552 H   0  0  0  0  0  0  0  0  0  0  0  0
    1.3980    0.8753    1.3033 H   0  0  0  0  0  0  0  0  0  0  0  0
   -0.7648    1.1719    0.2476 H   0  0  0  0  0  0  0  0  0  0  0  0
  1  2  2  3
  1  4  1  0
  2  3  1  0
  2  5  1  0
  3  6  1  0
  3  7  1  0
  3  8  1  0
  9 10  1  0
  9 13  1  0
  9 14  1  0
  9 15  1  0
 10 11  1  0
 10 16  1  0
 10 17  1  0
 11 12  1  0
 11 18  1  0
 11 19  1  0
 12 20  1  0
M  RAD  1   1   2
M  END
>  <reaction>  (13) 
rmg_rxn_368

>  <mol_properties>  (13) 
{"0": {"label": "*3", "atom_type": "Cd"}, "1": {"label": "*4", "atom_type": "Cd"}, "10": {"label": "*0", "atom_type": "Cs"}, "11": {"label": "*1", "atom_type": "O2s"}, "19": {"label": "*2", "atom_type": "H0"}}

>  <type>  (13) 
unop_9

>  <geom_source>  (13) 
Heuristics

$$$$

     RDKit          3D

 20 18  0  0  0  0  0  0  0  0999 V2000
   -1.7786    0.1680    0.2333 C   0  0  0  0  0  3  0  0  0  0  0  0
   -1.9475   -0.0568    1.5269 C   0  0  0  0  0  0  0  0  0  0  0  0
   -0.8492   -0.3269    2.5040 C   0  0  0  0  0  0  0  0  0  0  0  0
   -2.6184    0.3578   -0.4231 H   0  0  0  0  0  0  0  0  0  0  0  0
   -2.9561   -0.0490    1.9322 H   0  0  0  0  0  0  0  0  0  0  0  0
   -0.8450    0.4211    3.3010 H   0  0  0  0  0  0  0  0  0  0  0  0
    0.1275   -0.3173    2.0187 H   0  0  0  0  0  0  0  0  0  0  0  0
   -0.9858   -1.2996    2.9836 H   0  0  0  0  0  0  0  0  0  0  0  0
    1.3569   -0.8621   -2.3776 C   0  0  0  0  0  0  0  0  0  0  0  0
    1.3569   -0.8621   -0.8551 C   0  0  0  0  0  0  0  0  0  0  0  0
    1.3569    0.5359   -0.2544 C   0  0  0  0  0  0  0  0  0  0  0  0
    0.2231    1.3006   -0.6176 O   0  0  0  0  0  0  0  0  0  0  0  0
    2.2562   -0.3777   -2.7651 H   0  0  0  0  0  0  0  0  0  0  0  0
    0.4954   -0.3180   -2.7658 H   0  0  0  0  0  0  0  0  0  0  0  0
    1.3261   -1.8783   -2.7732 H   0  0  0  0  0  0  0  0  0  0  0  0
    0.4836   -1.4087   -0.4808 H   0  0  0  0  0  0  0  0  0  0  0  0
    2.2343   -1.3956   -0.4772 H   0  0  0  0  0  0  0  0  0  0  0  0
    2.2181    1.0989   -0.6212 H   0  0  0  0  0  0  0  0  0  0  0  0
    1.4469    0.4727    0.8373 H   0  0  0  0  0  0  0  0  0  0  0  0
   -0.7158    0.7693   -0.2184 H   0  0  0  0  0  0  0  0  0  0  0  0
  1  2  2  3
  1  4  1  0
  2  3  1  0
  2  5  1  0
  3  6  1  0
  3  7  1  0
  3  8  1  0
  9 10  1  0
  9 13  1  0
  9 14  1  0
  9 15  1  0
 10 11  1  0
 10 16  1  0
 10 17  1  0
 11 12  1  0
 11 18  1  0
 11 19  1  0
 12 20  1  0
M  RAD  1   1   2
M  END
>  <reaction>  (14) 
rmg_rxn_368

>  <mol_properties>  (14) 
{"0": {"label": "*3", "atom_type": "Cd"}, "1": {"label": "*4", "atom_type": "Cd"}, "10": {"label": "*0", "atom_type": "Cs"}, "11": {"label": "*1", "atom_type": "O2s"}, "19": {"label": "*2", "atom_type": "H0"}}

>  <type>  (14) 
unop_10

>  <geom_source>  (14) 
Heuristics

$$$$

     RDKit          3D

 20 18  0  0  0  0  0  0  0  0999 V2000
   -1.3115    0.0317    1.1298 C   0  0  0  0  0  3  0  0  0  0  0  0
   -2.4768    0.1298    0.5095 C   0  0  0  0  0  0  0  0  0  0  0  0
   -2.6616    0.1690   -0.9733 C   0  0  0  0  0  0  0  0  0  0  0  0
   -1.2452    0.0082    2.2103 H   0  0  0  0  0  0  0  0  0  0  0  0
   -3.3839    0.1877    1.1055 H   0  0  0  0  0  0  0  0  0  0  0  0
   -3.2926   -0.6582   -1.3085 H   0  0  0  0  0  0  0  0  0  0  0  0
   -1.7064    0.1062   -1.4959 H   0  0  0  0  0  0  0  0  0  0  0  0
   -3.1611    1.0920   -1.2786 H   0  0  0  0  0  0  0  0  0  0  0  0
    1.8240   -0.9984   -1.4811 C   0  0  0  0  0  0  0  0  0  0  0  0
    1.8240   -0.9984    0.0414 C   0  0  0  0  0  0  0  0  0  0  0  0
    1.8240    0.3995    0.6421 C   0  0  0  0  0  0  0  0  0  0  0  0
    0.6902    1.1643    0.2789 O   0  0  0  0  0  0  0  0  0  0  0  0
    2.7232   -0.5141   -1.8686 H   0  0  0  0  0  0  0  0  0  0  0  0
    0.9624   -0.4543   -1.8693 H   0  0  0  0  0  0  0  0  0  0  0  0
    1.7932   -2.0146   -1.8767 H   0  0  0  0  0  0  0  0  0  0  0  0
    0.9507   -1.5451    0.4157 H   0  0  0  0  0  0  0  0  0  0  0  0
    2.7014   -1.5319    0.4193 H   0  0  0  0  0  0  0  0  0  0  0  0
    2.6851    0.9625    0.2753 H   0  0  0  0  0  0  0  0  0  0  0  0
    1.9140    0.3364    1.7338 H   0  0  0  0  0  0  0  0  0  0  0  0
   -0.2488    0.6330    0.6781 H   0  0  0  0  0  0  0  0  0  0  0  0
  1  2  2  3
  1  4  1  0
  2  3  1  0
  2  5  1  0
  3  6  1  0
  3  7  1  0
  3  8  1  0
  9 10  1  0
  9 13  1  0
  9 14  1  0
  9 15  1  0
 10 11  1  0
 10 16  1  0
 10 17  1  0
 11 12  1  0
 11 18  1  0
 11 19  1  0
 12 20  1  0
M  RAD  1   1   2
M  END
>  <reaction>  (15) 
rmg_rxn_368

>  <mol_properties>  (15) 
{"0": {"label": "*3", "atom_type": "Cd"}, "1": {"label": "*4", "atom_type": "Cd"}, "10": {"label": "*0", "atom_type": "Cs"}, "11": {"label": "*1", "atom_type": "O2s"}, "19": {"label": "*2", "atom_type": "H0"}}

>  <type>  (15) 
unop_11

>  <geom_source>  (15) 
Heuristics

$$$$

     RDKit          3D

 20 18  0  0  0  0  0  0  0  0999 V2000
   -1.8754    0.4926    0.5031 C   0  0  0  0  0  3  0  0  0  0  0  0
   -1.7919   -0.6429    1.1784 C   0  0  0  0  0  0  0  0  0  0  0  0
   -0.5211   -1.3604    1.5015 C   0  0  0  0  0  0  0  0  0  0  0  0
   -2.8296    0.9630    0.3016 H   0  0  0  0  0  0  0  0  0  0  0  0
   -2.7071   -1.1080    1.5357 H   0  0  0  0  0  0  0  0  0  0  0  0
   -0.3992   -1.4678    2.5824 H   0  0  0  0  0  0  0  0  0  0  0  0
    0.3472   -0.8299    1.1089 H   0  0  0  0  0  0  0  0  0  0  0  0
   -0.5268   -2.3696    1.0818 H   0  0  0  0  0  0  0  0  0  0  0  0
    1.2601   -0.5375   -2.1078 C   0  0  0  0  0  0  0  0  0  0  0  0
    1.2601   -0.5375   -0.5854 C   0  0  0  0  0  0  0  0  0  0  0  0
    1.2601    0.8605    0.0153 C   0  0  0  0  0  0  0  0  0  0  0  0
    0.1263    1.6252   -0.3478 O   0  0  0  0  0  0  0  0  0  0  0  0
    2.1594   -0.0531   -2.4953 H   0  0  0  0  0  0  0  0  0  0  0  0
    0.3986    0.0066   -2.4960 H   0  0  0  0  0  0  0  0  0  0  0  0
    1.2293   -1.5537   -2.5034 H   0  0  0  0  0  0  0  0  0  0  0  0
    0.3868   -1.0841   -0.2110 H   0  0  0  0  0  0  0  0  0  0  0  0
    2.1375   -1.0709   -0.2074 H   0  0  0  0  0  0  0  0  0  0  0  0
    2.1212    1.4235   -0.3514 H   0  0  0  0  0  0  0  0  0  0  0  0
    1.3501    0.7973    1.1071 H   0  0  0  0  0  0  0  0  0  0  0  0
   -0.8127    1.0939    0.0514 H   0  0  0  0  0  0  0  0  0  0  0  0
  1  2  2  3
  1  4  1  0
  2  3  1  0
  2  5  1  0
  3  6  1  0
  3  7  1  0
  3  8  1  0
  9 10  1  0
  9 13  1  0
  9 14  1  0
  9 15  1  0
 10 11  1  0
 10 16  1  0
 10 17  1  0
 11 12  1  0
 11 18  1  0
 11 19  1  0
 12 20  1  0
M  RAD  1   1   2
M  END
>  <reaction>  (16) 
rmg_rxn_368

>  <mol_properties>  (16) 
{"0": {"label": "*3", "atom_type": "Cd"}, "1": {"label": "*4", "atom_type": "Cd"}, "10": {"label": "*0", "atom_type": "Cs"}, "11": {"label": "*1", "atom_type": "O2s"}, "19": {"label": "*2", "atom_type": "H0"}}

>  <type>  (16) 
unop_12

>  <geom_source>  (16) 
Heuristics

$$$$

     RDKit          3D

 20 18  0  0  0  0  0  0  0  0999 V2000
   -0.3086   -0.3467   -0.2538 O   0  0  0  0  0  1  0  0  0  0  0  0
   -2.3905   -1.0395    0.7258 C   0  0  0  0  0  0  0  0  0  0  0  0
   -1.4599   -1.1016   -0.4857 C   0  0  0  0  0  0  0  0  0  0  0  0
   -2.9292    0.3706    0.9577 C   0  0  0  0  0  0  0  0  0  0  0  0
    3.5357    0.4056    0.2729 C   0  0  0  0  0  0  0  0  0  0  0  0
    2.8679    0.9773   -0.9383 C   0  0  0  0  0  0  0  0  0  0  0  0
    1.5610    0.8076   -1.1472 C   0  0  0  0  0  0  0  0  0  0  0  0
   -1.8447   -1.3806    1.6322 H   0  0  0  0  0  0  0  0  0  0  0  0
   -3.2468   -1.7281    0.5587 H   0  0  0  0  0  0  0  0  0  0  0  0
   -1.1660   -2.1565   -0.6692 H   0  0  0  0  0  0  0  0  0  0  0  0
   -1.9770   -0.7185   -1.3912 H   0  0  0  0  0  0  0  0  0  0  0  0
   -3.6165    0.3660    1.8298 H   0  0  0  0  0  0  0  0  0  0  0  0
   -2.0968    1.0751    1.1681 H   0  0  0  0  0  0  0  0  0  0  0  0
   -3.4907    0.7211    0.0656 H   0  0  0  0  0  0  0  0  0  0  0  0
    3.4249   -0.6994    0.2811 H   0  0  0  0  0  0  0  0  0  0  0  0
    3.0806    0.8297    1.1928 H   0  0  0  0  0  0  0  0  0  0  0  0
    4.6167    0.6577    0.2582 H   0  0  0  0  0  0  0  0  0  0  0  0
    3.4565    1.5388   -1.6578 H   0  0  0  0  0  0  0  0  0  0  0  0
    0.8911    0.1927   -0.3689 H   0  0  0  0  0  0  0  0  0  0  0  0
    1.0922    1.2288   -2.0307 H   0  0  0  0  0  0  0  0  0  0  0  0
  1  3  1  0
  2  4  1  0
  2  3  1  0
  2  8  1  0
  2  9  1  0
  3 10  1  0
  3 11  1  0
  4 12  1  0
  4 13  1  0
  4 14  1  0
  5  6  1  0
  5 15  1  0
  5 16  1  0
  5 17  1  0
  6  7  2  3
  6 18  1  0
  7 19  1  0
  7 20  1  0
M  RAD  1   1   2
M  END
>  <reaction>  (17) 
rmg_rxn_368

>  <mol_properties>  (17) 
{"0": {"label": "*3", "atom_type": "Cd"}, "1": {"label": "*4", "atom_type": "Cd"}, "10": {"label": "*0", "atom_type": "Cs"}, "11": {"label": "*1", "atom_type": "O2s"}, "19": {"label": "*2", "atom_type": "H0"}}

>  <type>  (17) 
unop_13

>  <geom_source>  (17) 
AutoTST

$$$$

     RDKit          3D

 20 18  0  0  0  0  0  0  0  0999 V2000
   -1.8582    0.3535    0.3382 C   0  0  0  0  0  3  0  0  0  0  0  0
   -1.8204   -0.3825    1.4378 C   0  0  0  0  0  0  0  0  0  0  0  0
   -0.5784   -0.9269    2.0665 C   0  0  0  0  0  0  0  0  0  0  0  0
   -2.7935    0.7183   -0.0674 H   0  0  0  0  0  0  0  0  0  0  0  0
   -2.7543   -0.6222    1.9398 H   0  0  0  0  0  0  0  0  0  0  0  0
   -0.4690   -0.5619    3.0910 H   0  0  0  0  0  0  0  0  0  0  0  0
    0.3113   -0.6421    1.5035 H   0  0  0  0  0  0  0  0  0  0  0  0
   -0.6165   -2.0179    2.1216 H   0  0  0  0  0  0  0  0  0  0  0  0
    1.2773   -0.6766   -2.2728 C   0  0  0  0  0  0  0  0  0  0  0  0
    1.2773   -0.6766   -0.7503 C   0  0  0  0  0  0  0  0  0  0  0  0
    1.2773    0.7214   -0.1496 C   0  0  0  0  0  0  0  0  0  0  0  0
    0.1434    1.4861   -0.5127 O   0  0  0  0  0  0  0  0  0  0  0  0
    2.1765   -0.1923   -2.6603 H   0  0  0  0  0  0  0  0  0  0  0  0
    0.4157   -0.1325   -2.6610 H   0  0  0  0  0  0  0  0  0  0  0  0
    1.2465   -1.6928   -2.6684 H   0  0  0  0  0  0  0  0  0  0  0  0
    0.4040   -1.2232   -0.3760 H   0  0  0  0  0  0  0  0  0  0  0  0
    2.1547   -1.2101   -0.3723 H   0  0  0  0  0  0  0  0  0  0  0  0
    2.1384    1.2844   -0.5163 H   0  0  0  0  0  0  0  0  0  0  0  0
    1.3673    0.6582    0.9422 H   0  0  0  0  0  0  0  0  0  0  0  0
   -0.7955    0.9548   -0.1136 H   0  0  0  0  0  0  0  0  0  0  0  0
  1  2  2  3
  1  4  1  0
  2  3  1  0
  2  5  1  0
  3  6  1  0
  3  7  1  0
  3  8  1  0
  9 10  1  0
  9 13  1  0
  9 14  1  0
  9 15  1  0
 10 11  1  0
 10 16  1  0
 10 17  1  0
 11 12  1  0
 11 18  1  0
 11 19  1  0
 12 20  1  0
M  RAD  1   1   2
M  END
>  <reaction>  (18) 
rmg_rxn_368

>  <mol_properties>  (18) 
{"0": {"label": "*3", "atom_type": "Cd"}, "1": {"label": "*4", "atom_type": "Cd"}, "10": {"label": "*0", "atom_type": "Cs"}, "11": {"label": "*1", "atom_type": "O2s"}, "19": {"label": "*2", "atom_type": "H0"}}

>  <type>  (18) 
unop_14

>  <geom_source>  (18) 
gaussian_log

$$$$
