
     RDKit          3D

  9  8  0  0  0  0  0  0  0  0999 V2000
   -1.0434   -0.0834    0.0221 C   0  0  0  0  0  0  0  0  0  0  0  0
    0.4680   -0.2131    0.0785 C   0  0  0  0  0  0  0  0  0  0  0  0
    0.9450   -1.3136   -0.7058 N   0  0  0  0  0  2  0  0  0  0  0  0
   -1.5170   -0.9919    0.3960 H   0  0  0  0  0  0  0  0  0  0  0  0
   -1.3864    0.7592    0.6249 H   0  0  0  0  0  0  0  0  0  0  0  0
   -1.3736    0.0696   -1.0061 H   0  0  0  0  0  0  0  0  0  0  0  0
    0.8045   -0.3309    1.1214 H   0  0  0  0  0  0  0  0  0  0  0  0
    0.9463    0.7186   -0.2648 H   0  0  0  0  0  0  0  0  0  0  0  0
    1.9638   -1.3321   -0.6157 H   0  0  0  0  0  0  0  0  0  0  0  0
  1  2  1  0
  1  4  1  0
  1  5  1  0
  1  6  1  0
  2  3  1  0
  2  7  1  0
  2  8  1  0
  3  9  1  0
M  RAD  1   3   2
M  END
>  <reaction>  (1) 
rmg_rxn_57

>  <mol_properties>  (1) 
{"2": {"label": "donator", "atom_type": "N3s"}, "8": {"label": "d_hydrogen", "atom_type": "H0"}}

>  <type>  (1) 
r1h

$$$$

     RDKit          3D

 14 13  0  0  0  0  0  0  0  0999 V2000
    2.6194    0.1388   -0.2451 C   0  0  0  0  0  0  0  0  0  0  0  0
    1.2416   -0.4914   -0.3670 C   0  0  0  0  0  0  0  0  0  0  0  0
    0.9567   -1.8675    0.7732 S   0  0  0  0  0  0  0  0  0  0  0  0
    1.9992   -3.0673    0.1320 C   0  0  0  0  0  3  0  0  0  0  0  0
    2.1769   -4.3519    0.8615 C   0  0  0  0  0  0  0  0  0  0  0  0
    3.4009   -0.5920   -0.4552 H   0  0  0  0  0  0  0  0  0  0  0  0
    2.7219    0.9635   -0.9540 H   0  0  0  0  0  0  0  0  0  0  0  0
    2.7821    0.5262    0.7612 H   0  0  0  0  0  0  0  0  0  0  0  0
    1.0587   -0.8507   -1.3815 H   0  0  0  0  0  0  0  0  0  0  0  0
    0.4587    0.2313   -0.1333 H   0  0  0  0  0  0  0  0  0  0  0  0
    2.2677   -2.9922   -0.9152 H   0  0  0  0  0  0  0  0  0  0  0  0
    1.3745   -5.0711    0.6500 H   0  0  0  0  0  0  0  0  0  0  0  0
    3.1173   -4.8269    0.5747 H   0  0  0  0  0  0  0  0  0  0  0  0
    2.1945   -4.1971    1.9428 H   0  0  0  0  0  0  0  0  0  0  0  0
  1  2  1  0
  1  6  1  0
  1  7  1  0
  1  8  1  0
  2  3  1  0
  2  9  1  0
  2 10  1  0
  3  4  1  0
  4  5  1  0
  4 11  1  0
  5 12  1  0
  5 13  1  0
  5 14  1  0
M  RAD  1   4   2
M  END
>  <reaction>  (2) 
rmg_rxn_57

>  <mol_properties>  (2) 
{"3": {"label": "acceptor", "atom_type": "Cs"}}

>  <type>  (2) 
r2

$$$$

     RDKit          3D

 15 14  0  0  0  0  0  0  0  0999 V2000
   -2.0554    0.0723   -0.4910 C   0  0  0  0  0  0  0  0  0  0  0  0
   -0.7461   -0.6266   -0.8178 C   0  0  0  0  0  0  0  0  0  0  0  0
    0.3249    0.2591   -1.9782 S   0  0  0  0  0  0  0  0  0  0  0  0
   -0.7172    0.3642   -3.4551 C   0  0  0  0  0  0  0  0  0  0  0  0
   -1.1375   -0.9737   -4.0409 C   0  0  0  0  0  0  0  0  0  0  0  0
   -2.7005    0.1427   -1.3684 H   0  0  0  0  0  0  0  0  0  0  0  0
   -2.6016   -0.4848    0.2733 H   0  0  0  0  0  0  0  0  0  0  0  0
   -1.8758    1.0825   -0.1213 H   0  0  0  0  0  0  0  0  0  0  0  0
   -0.1320   -0.7246    0.0789 H   0  0  0  0  0  0  0  0  0  0  0  0
   -0.9254   -1.6374   -1.1879 H   0  0  0  0  0  0  0  0  0  0  0  0
   -1.5873    0.9874   -3.2422 H   0  0  0  0  0  0  0  0  0  0  0  0
   -0.1021    0.9161   -4.1678 H   0  0  0  0  0  0  0  0  0  0  0  0
   -1.7876   -1.5224   -3.3574 H   0  0  0  0  0  0  0  0  0  0  0  0
   -0.2676   -1.5962   -4.2534 H   0  0  0  0  0  0  0  0  0  0  0  0
   -1.6916   -0.8229   -4.9700 H   0  0  0  0  0  0  0  0  0  0  0  0
  1  2  1  0
  1  6  1  0
  1  7  1  0
  1  8  1  0
  2  3  1  0
  2  9  1  0
  2 10  1  0
  3  4  1  0
  4  5  1  0
  4 11  1  0
  4 12  1  0
  5 13  1  0
  5 14  1  0
  5 15  1  0
M  END
>  <reaction>  (3) 
rmg_rxn_57

>  <mol_properties>  (3) 
{"0": {"label": "a_hydrogen", "atom_type": "H0"}, "4": {"label": "acceptor", "atom_type": "Cs"}}

>  <type>  (3) 
r2h

$$$$

     RDKit          3D

 23 21  0  0  0  0  0  0  0  0999 V2000
    0.9005   -0.5228   -3.5509 C   0  0  0  0  0  0  0  0  0  0  0  0
    1.3559   -0.5371   -2.0959 C   0  0  0  0  0  0  0  0  0  0  0  0
    0.7670   -1.6098   -1.3649 N   0  0  0  0  0  2  0  0  0  0  0  0
   -0.1779   -0.3679   -3.6091 H   0  0  0  0  0  0  0  0  0  0  0  0
    1.3935    0.2819   -4.0993 H   0  0  0  0  0  0  0  0  0  0  0  0
    1.1335   -1.4706   -4.0370 H   0  0  0  0  0  0  0  0  0  0  0  0
    1.1482    0.4313   -1.6148 H   0  0  0  0  0  0  0  0  0  0  0  0
    2.4506   -0.6606   -2.0471 H   0  0  0  0  0  0  0  0  0  0  0  0
    0.8251   -1.2506   -0.1766 H   0  0  0  0  0  0  0  0  0  0  0  0
   -1.7847    0.3817   -0.4869 C   0  0  0  0  0  0  0  0  0  0  0  0
   -1.3761    0.8412    0.9035 C   0  0  0  0  0  0  0  0  0  0  0  0
    0.4098    0.8872    1.1959 S   0  0  0  0  0  0  0  0  0  0  0  0
    0.8791   -0.8104    1.1135 C   0  0  0  0  0  3  0  0  0  0  0  0
    0.0717   -1.8407    1.8627 C   0  0  0  0  0  0  0  0  0  0  0  0
   -1.4616   -0.6418   -0.6835 H   0  0  0  0  0  0  0  0  0  0  0  0
   -2.8715    0.4187   -0.5893 H   0  0  0  0  0  0  0  0  0  0  0  0
   -1.3463    1.0231   -1.2526 H   0  0  0  0  0  0  0  0  0  0  0  0
   -1.8452    0.2303    1.6756 H   0  0  0  0  0  0  0  0  0  0  0  0
   -1.6940    1.8702    1.0786 H   0  0  0  0  0  0  0  0  0  0  0  0
    1.9476   -0.8527    1.3240 H   0  0  0  0  0  0  0  0  0  0  0  0
   -0.9531   -1.8962    1.4924 H   0  0  0  0  0  0  0  0  0  0  0  0
    0.5185   -2.8267    1.7285 H   0  0  0  0  0  0  0  0  0  0  0  0
    0.0353   -1.6214    2.9336 H   0  0  0  0  0  0  0  0  0  0  0  0
  1  2  1  0
  1  4  1  0
  1  5  1  0
  1  6  1  0
  2  3  1  0
  2  7  1  0
  2  8  1  0
  3  9  1  0
 10 11  1  0
 10 15  1  0
 10 16  1  0
 10 17  1  0
 11 12  1  0
 11 18  1  0
 11 19  1  0
 12 13  1  0
 13 14  1  0
 13 20  1  0
 14 21  1  0
 14 22  1  0
 14 23  1  0
M  RAD  2   3   2  13   2
M  END
>  <reaction>  (4) 
rmg_rxn_57

>  <mol_properties>  (4) 
{"1": {"label": "*0", "atom_type": "Cs"}, "2": {"label": "*1", "atom_type": "N3s"}, "8": {"label": "*2", "atom_type": "H0"}, "11": {"label": "*4", "atom_type": "S2s"}, "12": {"label": "*3", "atom_type": "Cs"}}

>  <type>  (4) 
ts

$$$$

     RDKit          3D

 23 21  0  0  0  0  0  0  0  0999 V2000
   -0.0729   -0.0943   -3.9959 C   0  0  0  0  0  0  0  0  0  0  0  0
   -0.0729   -0.0943   -2.4779 C   0  0  0  0  0  0  0  0  0  0  0  0
   -0.0729    1.2332   -1.9382 N   0  0  0  0  0  2  0  0  0  0  0  0
    0.8094    0.4222   -4.3760 H   0  0  0  0  0  0  0  0  0  0  0  0
   -0.0729   -1.1132   -4.3870 H   0  0  0  0  0  0  0  0  0  0  0  0
   -0.9551    0.4222   -4.3760 H   0  0  0  0  0  0  0  0  0  0  0  0
    0.7994   -0.6480   -2.0940 H   0  0  0  0  0  0  0  0  0  0  0  0
   -0.9451   -0.6480   -2.0940 H   0  0  0  0  0  0  0  0  0  0  0  0
   -0.0729    1.1297   -0.7149 H   0  0  0  0  0  0  0  0  0  0  0  0
    0.8280   -2.1056    0.8823 C   0  0  0  0  0  0  0  0  0  0  0  0
    0.2978   -1.3407    2.0837 C   0  0  0  0  0  0  0  0  0  0  0  0
   -0.9624   -0.0974    1.7035 S   0  0  0  0  0  0  0  0  0  0  0  0
   -0.0729    1.0193    0.5899 C   0  0  0  0  0  3  0  0  0  0  0  0
    1.1563    1.6806    1.1910 C   0  0  0  0  0  0  0  0  0  0  0  0
    1.3714   -1.4502    0.1996 H   0  0  0  0  0  0  0  0  0  0  0  0
    1.5192   -2.8870    1.2059 H   0  0  0  0  0  0  0  0  0  0  0  0
    0.0134   -2.5718    0.3270 H   0  0  0  0  0  0  0  0  0  0  0  0
    1.1127   -0.8739    2.6395 H   0  0  0  0  0  0  0  0  0  0  0  0
   -0.2064   -2.0181    2.7748 H   0  0  0  0  0  0  0  0  0  0  0  0
   -0.8190    1.7704    0.3254 H   0  0  0  0  0  0  0  0  0  0  0  0
    1.9305    0.9476    1.4242 H   0  0  0  0  0  0  0  0  0  0  0  0
    1.5845    2.3961    0.4855 H   0  0  0  0  0  0  0  0  0  0  0  0
    0.9034    2.2097    2.1105 H   0  0  0  0  0  0  0  0  0  0  0  0
  1  2  1  0
  1  4  1  0
  1  5  1  0
  1  6  1  0
  2  3  1  0
  2  7  1  0
  2  8  1  0
  3  9  1  0
 10 11  1  0
 10 15  1  0
 10 16  1  0
 10 17  1  0
 11 12  1  0
 11 18  1  0
 11 19  1  0
 12 13  1  0
 13 14  1  0
 13 20  1  0
 14 21  1  0
 14 22  1  0
 14 23  1  0
M  RAD  2   3   2  13   2
M  END
>  <reaction>  (5) 
rmg_rxn_57

>  <mol_properties>  (5) 
{"1": {"label": "*0", "atom_type": "Cs"}, "2": {"label": "*1", "atom_type": "N3s"}, "8": {"label": "*2", "atom_type": "H0"}, "11": {"label": "*4", "atom_type": "S2s"}, "12": {"label": "*3", "atom_type": "Cs"}}

>  <type>  (5) 
unop_1

>  <geom_source>  (5) 
Heuristics

$$$$

     RDKit          3D

 23 21  0  0  0  0  0  0  0  0999 V2000
    0.8615   -0.5964   -3.7597 C   0  0  0  0  0  0  0  0  0  0  0  0
    0.8615   -0.5964   -2.2418 C   0  0  0  0  0  0  0  0  0  0  0  0
    0.8615    0.7312   -1.7020 N   0  0  0  0  0  2  0  0  0  0  0  0
    1.7438   -0.0799   -4.1398 H   0  0  0  0  0  0  0  0  0  0  0  0
    0.8615   -1.6153   -4.1508 H   0  0  0  0  0  0  0  0  0  0  0  0
   -0.0207   -0.0799   -4.1398 H   0  0  0  0  0  0  0  0  0  0  0  0
    1.7338   -1.1501   -1.8578 H   0  0  0  0  0  0  0  0  0  0  0  0
   -0.0107   -1.1501   -1.8578 H   0  0  0  0  0  0  0  0  0  0  0  0
    0.8615    0.6276   -0.4788 H   0  0  0  0  0  0  0  0  0  0  0  0
   -2.0742   -0.7401    0.1460 C   0  0  0  0  0  0  0  0  0  0  0  0
   -1.6659   -0.4701    1.5847 C   0  0  0  0  0  0  0  0  0  0  0  0
   -0.5862    0.9647    1.8170 S   0  0  0  0  0  0  0  0  0  0  0  0
    0.8615    0.5172    0.8261 C   0  0  0  0  0  3  0  0  0  0  0  0
    1.5712   -0.7534    1.2636 C   0  0  0  0  0  0  0  0  0  0  0  0
   -1.2151   -1.0156   -0.4681 H   0  0  0  0  0  0  0  0  0  0  0  0
   -2.7861   -1.5674    0.1033 H   0  0  0  0  0  0  0  0  0  0  0  0
   -2.5393    0.1404   -0.2986 H   0  0  0  0  0  0  0  0  0  0  0  0
   -1.2003   -1.3510    2.0299 H   0  0  0  0  0  0  0  0  0  0  0  0
   -2.5418   -0.2367    2.1923 H   0  0  0  0  0  0  0  0  0  0  0  0
    1.5233    1.3786    0.9300 H   0  0  0  0  0  0  0  0  0  0  0  0
    0.9378   -1.6317    1.1280 H   0  0  0  0  0  0  0  0  0  0  0  0
    2.4748   -0.9063    0.6694 H   0  0  0  0  0  0  0  0  0  0  0  0
    1.8535   -0.6992    2.3156 H   0  0  0  0  0  0  0  0  0  0  0  0
  1  2  1  0
  1  4  1  0
  1  5  1  0
  1  6  1  0
  2  3  1  0
  2  7  1  0
  2  8  1  0
  3  9  1  0
 10 11  1  0
 10 15  1  0
 10 16  1  0
 10 17  1  0
 11 12  1  0
 11 18  1  0
 11 19  1  0
 12 13  1  0
 13 14  1  0
 13 20  1  0
 14 21  1  0
 14 22  1  0
 14 23  1  0
M  RAD  2   3   2  13   2
M  END
>  <reaction>  (6) 
rmg_rxn_57

>  <mol_properties>  (6) 
{"1": {"label": "*0", "atom_type": "Cs"}, "2": {"label": "*1", "atom_type": "N3s"}, "8": {"label": "*2", "atom_type": "H0"}, "11": {"label": "*4", "atom_type": "S2s"}, "12": {"label": "*3", "atom_type": "Cs"}}

>  <type>  (6) 
unop_2

>  <geom_source>  (6) 
Heuristics

$$$$

     RDKit          3D

 23 21  0  0  0  0  0  0  0  0999 V2000
   -0.5593   -0.2279   -3.8743 C   0  0  0  0  0  0  0  0  0  0  0  0
   -0.5593   -0.2279   -2.3564 C   0  0  0  0  0  0  0  0  0  0  0  0
   -0.5593    1.0997   -1.8166 N   0  0  0  0  0  2  0  0  0  0  0  0
    0.3229    0.2886   -4.2544 H   0  0  0  0  0  0  0  0  0  0  0  0
   -0.5593   -1.2468   -4.2654 H   0  0  0  0  0  0  0  0  0  0  0  0
   -1.4416    0.2886   -4.2544 H   0  0  0  0  0  0  0  0  0  0  0  0
    0.3129   -0.7816   -1.9724 H   0  0  0  0  0  0  0  0  0  0  0  0
   -1.4316   -0.7816   -1.9724 H   0  0  0  0  0  0  0  0  0  0  0  0
   -0.5593    0.9961   -0.5934 H   0  0  0  0  0  0  0  0  0  0  0  0
    1.9553   -1.1885    0.5215 C   0  0  0  0  0  0  0  0  0  0  0  0
    1.2254   -0.9806    1.8382 C   0  0  0  0  0  0  0  0  0  0  0  0
   -0.5464   -0.6407    1.6852 S   0  0  0  0  0  0  0  0  0  0  0  0
   -0.5593    0.8857    0.7114 C   0  0  0  0  0  3  0  0  0  0  0  0
    0.1503    2.0647    1.3564 C   0  0  0  0  0  0  0  0  0  0  0  0
    1.9621   -0.2777   -0.0796 H   0  0  0  0  0  0  0  0  0  0  0  0
    2.9952   -1.4677    0.7050 H   0  0  0  0  0  0  0  0  0  0  0  0
    1.4832   -1.9774   -0.0651 H   0  0  0  0  0  0  0  0  0  0  0  0
    1.6974   -0.1912    2.4254 H   0  0  0  0  0  0  0  0  0  0  0  0
    1.2641   -1.8881    2.4430 H   0  0  0  0  0  0  0  0  0  0  0  0
   -1.6211    1.1030    0.5840 H   0  0  0  0  0  0  0  0  0  0  0  0
    1.2216    1.8811    1.4544 H   0  0  0  0  0  0  0  0  0  0  0  0
    0.0263    2.9616    0.7455 H   0  0  0  0  0  0  0  0  0  0  0  0
   -0.2510    2.2644    2.3505 H   0  0  0  0  0  0  0  0  0  0  0  0
  1  2  1  0
  1  4  1  0
  1  5  1  0
  1  6  1  0
  2  3  1  0
  2  7  1  0
  2  8  1  0
  3  9  1  0
 10 11  1  0
 10 15  1  0
 10 16  1  0
 10 17  1  0
 11 12  1  0
 11 18  1  0
 11 19  1  0
 12 13  1  0
 13 14  1  0
 13 20  1  0
 14 21  1  0
 14 22  1  0
 14 23  1  0
M  RAD  2   3   2  13   2
M  END
>  <reaction>  (7) 
rmg_rxn_57

>  <mol_properties>  (7) 
{"1": {"label": "*0", "atom_type": "Cs"}, "2": {"label": "*1", "atom_type": "N3s"}, "8": {"label": "*2", "atom_type": "H0"}, "11": {"label": "*4", "atom_type": "S2s"}, "12": {"label": "*3", "atom_type": "Cs"}}

>  <type>  (7) 
unop_3

>  <geom_source>  (7) 
Heuristics

$$$$

     RDKit          3D

 23 21  0  0  0  0  0  0  0  0999 V2000
    0.4965   -1.6122   -3.0952 C   0  0  0  0  0  0  0  0  0  0  0  0
    0.4965   -1.6122   -1.5772 C   0  0  0  0  0  0  0  0  0  0  0  0
    0.4965   -0.2846   -1.0374 N   0  0  0  0  0  2  0  0  0  0  0  0
    1.3787   -1.0957   -3.4752 H   0  0  0  0  0  0  0  0  0  0  0  0
    0.4965   -2.6311   -3.4863 H   0  0  0  0  0  0  0  0  0  0  0  0
   -0.3858   -1.0957   -3.4752 H   0  0  0  0  0  0  0  0  0  0  0  0
    1.3687   -2.1659   -1.1933 H   0  0  0  0  0  0  0  0  0  0  0  0
   -0.3758   -2.1659   -1.1933 H   0  0  0  0  0  0  0  0  0  0  0  0
    0.4965   -0.3882    0.1858 H   0  0  0  0  0  0  0  0  0  0  0  0
   -0.7993    0.9962   -1.1072 C   0  0  0  0  0  0  0  0  0  0  0  0
   -1.0474    1.5314    0.2934 C   0  0  0  0  0  0  0  0  0  0  0  0
    0.3238    1.3033    1.4535 S   0  0  0  0  0  0  0  0  0  0  0  0
    0.4965   -0.4986    1.4906 C   0  0  0  0  0  3  0  0  0  0  0  0
   -0.7327   -1.2516    1.9720 C   0  0  0  0  0  0  0  0  0  0  0  0
   -0.6959   -0.0902   -1.1071 H   0  0  0  0  0  0  0  0  0  0  0  0
   -1.6373    1.2455   -1.7618 H   0  0  0  0  0  0  0  0  0  0  0  0
    0.1104    1.4226   -1.5314 H   0  0  0  0  0  0  0  0  0  0  0  0
   -1.9576    1.1050    0.7183 H   0  0  0  0  0  0  0  0  0  0  0  0
   -1.1890    2.6132    0.2687 H   0  0  0  0  0  0  0  0  0  0  0  0
    1.3353   -0.6649    2.1686 H   0  0  0  0  0  0  0  0  0  0  0  0
   -1.5707   -1.1298    1.2836 H   0  0  0  0  0  0  0  0  0  0  0  0
   -0.5188   -2.3204    2.0419 H   0  0  0  0  0  0  0  0  0  0  0  0
   -1.0472   -0.8963    2.9540 H   0  0  0  0  0  0  0  0  0  0  0  0
  1  2  1  0
  1  4  1  0
  1  5  1  0
  1  6  1  0
  2  3  1  0
  2  7  1  0
  2  8  1  0
  3  9  1  0
 10 11  1  0
 10 15  1  0
 10 16  1  0
 10 17  1  0
 11 12  1  0
 11 18  1  0
 11 19  1  0
 12 13  1  0
 13 14  1  0
 13 20  1  0
 14 21  1  0
 14 22  1  0
 14 23  1  0
M  RAD  2   3   2  13   2
M  END
>  <reaction>  (8) 
rmg_rxn_57

>  <mol_properties>  (8) 
{"1": {"label": "*0", "atom_type": "Cs"}, "2": {"label": "*1", "atom_type": "N3s"}, "8": {"label": "*2", "atom_type": "H0"}, "11": {"label": "*4", "atom_type": "S2s"}, "12": {"label": "*3", "atom_type": "Cs"}}

>  <type>  (8) 
unop_4

>  <geom_source>  (8) 
Heuristics

$$$$

     RDKit          3D

 23 21  0  0  0  0  0  0  0  0999 V2000
   -0.9488   -0.7834   -3.5033 C   0  0  0  0  0  0  0  0  0  0  0  0
   -0.9488   -0.7834   -1.9854 C   0  0  0  0  0  0  0  0  0  0  0  0
   -0.9488    0.5441   -1.4456 N   0  0  0  0  0  2  0  0  0  0  0  0
   -0.0666   -0.2670   -3.8834 H   0  0  0  0  0  0  0  0  0  0  0  0
   -0.9488   -1.8023   -3.8944 H   0  0  0  0  0  0  0  0  0  0  0  0
   -1.8310   -0.2670   -3.8834 H   0  0  0  0  0  0  0  0  0  0  0  0
   -0.0766   -1.3371   -1.6014 H   0  0  0  0  0  0  0  0  0  0  0  0
   -1.8210   -1.3371   -1.6014 H   0  0  0  0  0  0  0  0  0  0  0  0
   -0.9488    0.4406   -0.2224 H   0  0  0  0  0  0  0  0  0  0  0  0
    1.9624    0.4688   -0.3899 C   0  0  0  0  0  0  0  0  0  0  0  0
    1.8642    0.1716    1.0973 C   0  0  0  0  0  0  0  0  0  0  0  0
    0.3977   -0.7667    1.5946 S   0  0  0  0  0  0  0  0  0  0  0  0
   -0.9488    0.3301    1.0825 C   0  0  0  0  0  3  0  0  0  0  0  0
   -0.9488    1.6986    1.7434 C   0  0  0  0  0  0  0  0  0  0  0  0
    1.1607    1.1324   -0.7184 H   0  0  0  0  0  0  0  0  0  0  0  0
    2.9099    0.9630   -0.6155 H   0  0  0  0  0  0  0  0  0  0  0  0
    1.9027   -0.4494   -0.9752 H   0  0  0  0  0  0  0  0  0  0  0  0
    1.9238    1.0902    1.6834 H   0  0  0  0  0  0  0  0  0  0  0  0
    2.6959   -0.4590    1.4159 H   0  0  0  0  0  0  0  0  0  0  0  0
   -1.8503   -0.2230    1.3510 H   0  0  0  0  0  0  0  0  0  0  0  0
   -0.0736    2.2823    1.4532 H   0  0  0  0  0  0  0  0  0  0  0  0
   -1.8338    2.2640    1.4434 H   0  0  0  0  0  0  0  0  0  0  0  0
   -0.9487    1.6062    2.8301 H   0  0  0  0  0  0  0  0  0  0  0  0
  1  2  1  0
  1  4  1  0
  1  5  1  0
  1  6  1  0
  2  3  1  0
  2  7  1  0
  2  8  1  0
  3  9  1  0
 10 11  1  0
 10 15  1  0
 10 16  1  0
 10 17  1  0
 11 12  1  0
 11 18  1  0
 11 19  1  0
 12 13  1  0
 13 14  1  0
 13 20  1  0
 14 21  1  0
 14 22  1  0
 14 23  1  0
M  RAD  2   3   2  13   2
M  END
>  <reaction>  (9) 
rmg_rxn_57

>  <mol_properties>  (9) 
{"1": {"label": "*0", "atom_type": "Cs"}, "2": {"label": "*1", "atom_type": "N3s"}, "8": {"label": "*2", "atom_type": "H0"}, "11": {"label": "*4", "atom_type": "S2s"}, "12": {"label": "*3", "atom_type": "Cs"}}

>  <type>  (9) 
unop_5

>  <geom_source>  (9) 
Heuristics

$$$$

     RDKit          3D

 23 21  0  0  0  0  0  0  0  0999 V2000
    0.1222   -1.7115   -3.0025 C   0  0  0  0  0  0  0  0  0  0  0  0
    0.1222   -1.7115   -1.4845 C   0  0  0  0  0  0  0  0  0  0  0  0
    0.1222   -0.3840   -0.9448 N   0  0  0  0  0  0  0  0  0  0  0  0
    1.0044   -1.1950   -3.3826 H   0  0  0  0  0  0  0  0  0  0  0  0
    0.1222   -2.7304   -3.3936 H   0  0  0  0  0  0  0  0  0  0  0  0
   -0.7600   -1.1950   -3.3826 H   0  0  0  0  0  0  0  0  0  0  0  0
    0.9944   -2.2652   -1.1006 H   0  0  0  0  0  0  0  0  0  0  0  0
   -0.7500   -2.2652   -1.1006 H   0  0  0  0  0  0  0  0  0  0  0  0
    0.1222   -0.4875    0.2784 H   0  0  0  0  0  0  0  0  0  0  0  0
   -0.4385    1.0187   -1.1977 C   0  0  0  0  0  3  0  0  0  0  0  0
   -0.3642    1.7632    0.1251 C   0  0  0  0  0  0  0  0  0  0  0  0
    0.7915    1.0655    1.3316 S   0  0  0  0  0  0  0  0  0  0  0  0
    0.1222   -0.5979    1.5833 C   0  0  0  0  0  3  0  0  0  0  0  0
   -1.2971   -0.6437    2.1245 C   0  0  0  0  0  0  0  0  0  0  0  0
   -0.8435    0.0137   -1.0681 H   0  0  0  0  0  0  0  0  0  0  0  0
   -1.0926    1.5482   -1.8940 H   0  0  0  0  0  0  0  0  0  0  0  0
    0.5496    0.9295   -1.6504 H   0  0  0  0  0  0  0  0  0  0  0  0
   -1.3527    1.8526    0.5785 H   0  0  0  0  0  0  0  0  0  0  0  0
    0.0038    2.7789   -0.0292 H   0  0  0  0  0  0  0  0  0  0  0  0
    0.8158   -1.0519    2.2930 H   0  0  0  0  0  0  0  0  0  0  0  0
   -2.0108   -0.2305    1.4097 H   0  0  0  0  0  0  0  0  0  0  0  0
   -1.5934   -1.6760    2.3236 H   0  0  0  0  0  0  0  0  0  0  0  0
   -1.3790   -0.0750    3.0514 H   0  0  0  0  0  0  0  0  0  0  0  0
  1  2  1  0
  1  4  1  0
  1  5  1  0
  1  6  1  0
  2  3  1  0
  2  7  1  0
  2  8  1  0
  3  9  1  0
  3 15  1  0
 10 11  1  0
 10 16  1  0
 10 17  1  0
 11 12  1  0
 11 18  1  0
 11 19  1  0
 12 13  1  0
 13 14  1  0
 13 20  1  0
 14 21  1  0
 14 22  1  0
 14 23  1  0
M  CHG  2  10  -1  13   1
M  RAD  1  10   3
M  END
>  <reaction>  (10) 
rmg_rxn_57

>  <mol_properties>  (10) 
{"1": {"label": "*0", "atom_type": "Cs"}, "2": {"label": "*1", "atom_type": "N3s"}, "8": {"label": "*2", "atom_type": "H0"}, "11": {"label": "*4", "atom_type": "S2s"}, "12": {"label": "*3", "atom_type": "Cs"}}

>  <type>  (10) 
unop_6

>  <geom_source>  (10) 
Heuristics

$$$$

     RDKit          3D

 23 20  0  0  0  0  0  0  0  0999 V2000
   -0.2825   -1.6659   -2.9936 C   0  0  0  0  0  0  0  0  0  0  0  0
   -0.2825   -1.6659   -1.4756 C   0  0  0  0  0  0  0  0  0  0  0  0
   -0.2825   -0.3383   -0.9358 N   0  0  0  0  0  0  0  0  0  0  0  0
    0.5997   -1.1494   -3.3736 H   0  0  0  0  0  0  0  0  0  0  0  0
   -0.2825   -2.6848   -3.3846 H   0  0  0  0  0  0  0  0  0  0  0  0
   -1.1647   -1.1494   -3.3736 H   0  0  0  0  0  0  0  0  0  0  0  0
    0.5897   -2.2196   -1.0917 H   0  0  0  0  0  0  0  0  0  0  0  0
   -1.1547   -2.2196   -1.0917 H   0  0  0  0  0  0  0  0  0  0  0  0
   -0.2825   -0.4419    0.2874 H   0  0  0  0  0  0  0  0  0  0  0  0
   -0.0930    1.1449   -1.1908 C   0  0  0  0  0  2  0  0  0  0  0  0
    0.4004    1.7471    0.1143 C   0  0  0  0  0  0  0  0  0  0  0  0
    1.1113    0.5613    1.2834 S   0  0  0  0  0  4  0  0  0  0  0  0
   -0.2825   -0.5523    1.5922 C   0  0  0  0  0  0  0  0  0  0  0  0
   -1.5117    0.1090    2.1933 C   0  0  0  0  0  0  0  0  0  0  0  0
   -0.9367    0.4725   -1.0267 H   0  0  0  0  0  0  0  0  0  0  0  0
   -0.4292    1.9330   -1.8683 H   0  0  0  0  0  0  0  0  0  0  0  0
    0.6993    0.5797   -1.6830 H   0  0  0  0  0  0  0  0  0  0  0  0
   -0.3921    2.3127    0.6072 H   0  0  0  0  0  0  0  0  0  0  0  0
    1.2162    2.4473   -0.0732 H   0  0  0  0  0  0  0  0  0  0  0  0
    0.1260   -1.2945    2.2801 H   0  0  0  0  0  0  0  0  0  0  0  0
   -1.9580    0.8257    1.5019 H   0  0  0  0  0  0  0  0  0  0  0  0
   -2.2714   -0.6414    2.4229 H   0  0  0  0  0  0  0  0  0  0  0  0
   -1.2588    0.6383    3.1127 H   0  0  0  0  0  0  0  0  0  0  0  0
  1  2  1  0
  1  4  1  0
  1  5  1  0
  1  6  1  0
  2  3  1  0
  2  7  1  0
  2  8  1  0
  3  9  1  0
  3 15  1  0
 10 16  1  0
 10 17  1  0
 11 12  2  0
 11 18  1  0
 11 19  1  0
 12 13  2  0
 13 14  1  0
 13 20  1  0
 14 21  1  0
 14 22  1  0
 14 23  1  0
M  RAD  1  10   3
M  END
>  <reaction>  (11) 
rmg_rxn_57

>  <mol_properties>  (11) 
{"1": {"label": "*0", "atom_type": "Cs"}, "2": {"label": "*1", "atom_type": "N3s"}, "8": {"label": "*2", "atom_type": "H0"}, "11": {"label": "*4", "atom_type": "S2s"}, "12": {"label": "*3", "atom_type": "Cs"}}

>  <type>  (11) 
unop_7

>  <geom_source>  (11) 
Heuristics

$$$$

     RDKit          3D

 23 21  0  0  0  0  0  0  0  0999 V2000
    0.3071   -0.1531   -3.9964 C   0  0  0  0  0  0  0  0  0  0  0  0
    0.3071   -0.1531   -2.4785 C   0  0  0  0  0  0  0  0  0  0  0  0
    0.3071    1.1745   -1.9387 N   0  0  0  0  0  2  0  0  0  0  0  0
    1.1894    0.3634   -4.3765 H   0  0  0  0  0  0  0  0  0  0  0  0
    0.3071   -1.1720   -4.3875 H   0  0  0  0  0  0  0  0  0  0  0  0
   -0.5751    0.3634   -4.3765 H   0  0  0  0  0  0  0  0  0  0  0  0
    1.1794   -0.7068   -2.0945 H   0  0  0  0  0  0  0  0  0  0  0  0
   -0.5651   -0.7068   -2.0945 H   0  0  0  0  0  0  0  0  0  0  0  0
    0.3071    1.0709   -0.7155 H   0  0  0  0  0  0  0  0  0  0  0  0
   -0.4494   -2.2045    0.8580 C   0  0  0  0  0  0  0  0  0  0  0  0
   -0.4794   -1.2987    2.0779 C   0  0  0  0  0  0  0  0  0  0  0  0
   -0.9715    0.4123    1.7482 S   0  0  0  0  0  0  0  0  0  0  0  0
    0.3071    0.9605    0.5894 C   0  0  0  0  0  3  0  0  0  0  0  0
    1.7265    0.9147    1.1306 C   0  0  0  0  0  0  0  0  0  0  0  0
    0.3183   -1.8929    0.1478 H   0  0  0  0  0  0  0  0  0  0  0  0
   -0.2241   -3.2314    1.1543 H   0  0  0  0  0  0  0  0  0  0  0  0
   -1.4105   -2.1957    0.3427 H   0  0  0  0  0  0  0  0  0  0  0  0
    0.4822   -1.3072    2.5937 H   0  0  0  0  0  0  0  0  0  0  0  0
   -1.2237   -1.6490    2.7948 H   0  0  0  0  0  0  0  0  0  0  0  0
    0.0215    1.9872    0.3547 H   0  0  0  0  0  0  0  0  0  0  0  0
    2.0440   -0.1097    1.3326 H   0  0  0  0  0  0  0  0  0  0  0  0
    2.4232    1.3361    0.4026 H   0  0  0  0  0  0  0  0  0  0  0  0
    1.8083    1.4832    2.0576 H   0  0  0  0  0  0  0  0  0  0  0  0
  1  2  1  0
  1  4  1  0
  1  5  1  0
  1  6  1  0
  2  3  1  0
  2  7  1  0
  2  8  1  0
  3  9  1  0
 10 11  1  0
 10 15  1  0
 10 16  1  0
 10 17  1  0
 11 12  1  0
 11 18  1  0
 11 19  1  0
 12 13  1  0
 13 14  1  0
 13 20  1  0
 14 21  1  0
 14 22  1  0
 14 23  1  0
M  RAD  2   3   2  13   2
M  END
>  <reaction>  (12) 
rmg_rxn_57

>  <mol_properties>  (12) 
{"1": {"label": "*0", "atom_type": "Cs"}, "2": {"label": "*1", "atom_type": "N3s"}, "8": {"label": "*2", "atom_type": "H0"}, "11": {"label": "*4", "atom_type": "S2s"}, "12": {"label": "*3", "atom_type": "Cs"}}

>  <type>  (12) 
unop_8

>  <geom_source>  (12) 
Heuristics

$$$$

     RDKit          3D

 23 21  0  0  0  0  0  0  0  0999 V2000
    0.8060   -1.3600   -3.2727 C   0  0  0  0  0  0  0  0  0  0  0  0
    0.8060   -1.3600   -1.7547 C   0  0  0  0  0  0  0  0  0  0  0  0
    0.8060   -0.0325   -1.2150 N   0  0  0  0  0  2  0  0  0  0  0  0
    1.6882   -0.8435   -3.6528 H   0  0  0  0  0  0  0  0  0  0  0  0
    0.8060   -2.3789   -3.6638 H   0  0  0  0  0  0  0  0  0  0  0  0
   -0.0763   -0.8435   -3.6528 H   0  0  0  0  0  0  0  0  0  0  0  0
    1.6782   -1.9137   -1.3708 H   0  0  0  0  0  0  0  0  0  0  0  0
   -0.0663   -1.9137   -1.3708 H   0  0  0  0  0  0  0  0  0  0  0  0
    0.8060   -0.1360    0.0082 H   0  0  0  0  0  0  0  0  0  0  0  0
   -1.3747    0.8392   -0.8613 C   0  0  0  0  0  0  0  0  0  0  0  0
   -1.6104    1.0302    0.6278 C   0  0  0  0  0  0  0  0  0  0  0  0
   -0.1127    1.2847    1.6128 S   0  0  0  0  0  0  0  0  0  0  0  0
    0.8060   -0.2464    1.3131 C   0  0  0  0  0  3  0  0  0  0  0  0
    0.0963   -1.5170    1.7507 C   0  0  0  0  0  0  0  0  0  0  0  0
   -0.8249   -0.0814   -1.0639 H   0  0  0  0  0  0  0  0  0  0  0  0
   -2.3281    0.7746   -1.3904 H   0  0  0  0  0  0  0  0  0  0  0  0
   -0.8046    1.6717   -1.2752 H   0  0  0  0  0  0  0  0  0  0  0  0
   -2.1807    0.1973    1.0424 H   0  0  0  0  0  0  0  0  0  0  0  0
   -2.1962    1.9330    0.8085 H   0  0  0  0  0  0  0  0  0  0  0  0
    1.7286   -0.1105    1.8798 H   0  0  0  0  0  0  0  0  0  0  0  0
   -0.8085   -1.6909    1.1657 H   0  0  0  0  0  0  0  0  0  0  0  0
    0.7481   -2.3822    1.6107 H   0  0  0  0  0  0  0  0  0  0  0  0
   -0.1862   -1.4627    2.8026 H   0  0  0  0  0  0  0  0  0  0  0  0
  1  2  1  0
  1  4  1  0
  1  5  1  0
  1  6  1  0
  2  3  1  0
  2  7  1  0
  2  8  1  0
  3  9  1  0
 10 11  1  0
 10 15  1  0
 10 16  1  0
 10 17  1  0
 11 12  1  0
 11 18  1  0
 11 19  1  0
 12 13  1  0
 13 14  1  0
 13 20  1  0
 14 21  1  0
 14 22  1  0
 14 23  1  0
M  RAD  2   3   2  13   2
M  END
>  <reaction>  (13) 
rmg_rxn_57

>  <mol_properties>  (13) 
{"1": {"label": "*0", "atom_type": "Cs"}, "2": {"label": "*1", "atom_type": "N3s"}, "8": {"label": "*2", "atom_type": "H0"}, "11": {"label": "*4", "atom_type": "S2s"}, "12": {"label": "*3", "atom_type": "Cs"}}

>  <type>  (13) 
unop_9

>  <geom_source>  (13) 
Heuristics

$$$$

     RDKit          3D

 23 21  0  0  0  0  0  0  0  0999 V2000
    0.6194   -0.3182   -3.9205 C   0  0  0  0  0  0  0  0  0  0  0  0
    0.6194   -0.3182   -2.4025 C   0  0  0  0  0  0  0  0  0  0  0  0
    0.6194    1.0094   -1.8627 N   0  0  0  0  0  2  0  0  0  0  0  0
    1.5017    0.1983   -4.3006 H   0  0  0  0  0  0  0  0  0  0  0  0
    0.6194   -1.3371   -4.3116 H   0  0  0  0  0  0  0  0  0  0  0  0
   -0.2628    0.1983   -4.3006 H   0  0  0  0  0  0  0  0  0  0  0  0
    1.4917   -0.8719   -2.0186 H   0  0  0  0  0  0  0  0  0  0  0  0
   -0.2528   -0.8719   -2.0186 H   0  0  0  0  0  0  0  0  0  0  0  0
    0.6194    0.9059   -0.6395 H   0  0  0  0  0  0  0  0  0  0  0  0
   -1.5087   -1.6802    0.5998 C   0  0  0  0  0  0  0  0  0  0  0  0
   -1.1450   -1.0110    1.9149 C   0  0  0  0  0  0  0  0  0  0  0  0
   -0.7915    0.7610    1.7994 S   0  0  0  0  0  0  0  0  0  0  0  0
    0.6194    0.7954    0.6653 C   0  0  0  0  0  3  0  0  0  0  0  0
    1.8486    0.0425    1.1467 C   0  0  0  0  0  0  0  0  0  0  0  0
   -0.6693   -1.6732   -0.0974 H   0  0  0  0  0  0  0  0  0  0  0  0
   -1.7851   -2.7232    0.7694 H   0  0  0  0  0  0  0  0  0  0  0  0
   -2.3482   -1.1724    0.1236 H   0  0  0  0  0  0  0  0  0  0  0  0
   -0.3050   -1.5187    2.3917 H   0  0  0  0  0  0  0  0  0  0  0  0
   -1.9816   -1.0636    2.6137 H   0  0  0  0  0  0  0  0  0  0  0  0
    0.8409    1.8587    0.5591 H   0  0  0  0  0  0  0  0  0  0  0  0
    1.6573   -1.0295    1.2196 H   0  0  0  0  0  0  0  0  0  0  0  0
    2.6756    0.1807    0.4467 H   0  0  0  0  0  0  0  0  0  0  0  0
    2.1630    0.3975    2.1288 H   0  0  0  0  0  0  0  0  0  0  0  0
  1  2  1  0
  1  4  1  0
  1  5  1  0
  1  6  1  0
  2  3  1  0
  2  7  1  0
  2  8  1  0
  3  9  1  0
 10 11  1  0
 10 15  1  0
 10 16  1  0
 10 17  1  0
 11 12  1  0
 11 18  1  0
 11 19  1  0
 12 13  1  0
 13 14  1  0
 13 20  1  0
 14 21  1  0
 14 22  1  0
 14 23  1  0
M  RAD  2   3   2  13   2
M  END
>  <reaction>  (14) 
rmg_rxn_57

>  <mol_properties>  (14) 
{"1": {"label": "*0", "atom_type": "Cs"}, "2": {"label": "*1", "atom_type": "N3s"}, "8": {"label": "*2", "atom_type": "H0"}, "11": {"label": "*4", "atom_type": "S2s"}, "12": {"label": "*3", "atom_type": "Cs"}}

>  <type>  (14) 
unop_10

>  <geom_source>  (14) 
Heuristics

$$$$

     RDKit          3D

 23 21  0  0  0  0  0  0  0  0999 V2000
   -0.7194   -1.4100   -3.1204 C   0  0  0  0  0  0  0  0  0  0  0  0
   -0.7194   -1.4100   -1.6024 C   0  0  0  0  0  0  0  0  0  0  0  0
   -0.7194   -0.0824   -1.0627 N   0  0  0  0  0  2  0  0  0  0  0  0
    0.1629   -0.8935   -3.5005 H   0  0  0  0  0  0  0  0  0  0  0  0
   -0.7194   -2.4289   -3.5115 H   0  0  0  0  0  0  0  0  0  0  0  0
   -1.6016   -0.8935   -3.5005 H   0  0  0  0  0  0  0  0  0  0  0  0
    0.1529   -1.9637   -1.2185 H   0  0  0  0  0  0  0  0  0  0  0  0
   -1.5916   -1.9637   -1.2185 H   0  0  0  0  0  0  0  0  0  0  0  0
   -0.7194   -0.1860    0.1605 H   0  0  0  0  0  0  0  0  0  0  0  0
    0.6894    1.2564   -1.0378 C   0  0  0  0  0  0  0  0  0  0  0  0
    1.2869    1.3419    0.3569 C   0  0  0  0  0  0  0  0  0  0  0  0
    1.0823   -0.1452    1.3692 S   0  0  0  0  0  0  0  0  0  0  0  0
   -0.7194   -0.2964    1.4654 C   0  0  0  0  0  3  0  0  0  0  0  0
   -1.4290    0.8826    2.1103 C   0  0  0  0  0  0  0  0  0  0  0  0
   -0.3977    1.1684   -1.0019 H   0  0  0  0  0  0  0  0  0  0  0  0
    0.9265    2.1578   -1.6073 H   0  0  0  0  0  0  0  0  0  0  0  0
    1.0810    0.3931   -1.5770 H   0  0  0  0  0  0  0  0  0  0  0  0
    0.8952    2.2056    0.8968 H   0  0  0  0  0  0  0  0  0  0  0  0
    2.3691    1.4706    0.3009 H   0  0  0  0  0  0  0  0  0  0  0  0
   -0.8726   -1.2023    2.0543 H   0  0  0  0  0  0  0  0  0  0  0  0
   -1.3208    1.7894    1.5129 H   0  0  0  0  0  0  0  0  0  0  0  0
   -2.4978    0.6769    2.2027 H   0  0  0  0  0  0  0  0  0  0  0  0
   -1.0275    1.0825    3.1044 H   0  0  0  0  0  0  0  0  0  0  0  0
  1  2  1  0
  1  4  1  0
  1  5  1  0
  1  6  1  0
  2  3  1  0
  2  7  1  0
  2  8  1  0
  3  9  1  0
 10 11  1  0
 10 15  1  0
 10 16  1  0
 10 17  1  0
 11 12  1  0
 11 18  1  0
 11 19  1  0
 12 13  1  0
 13 14  1  0
 13 20  1  0
 14 21  1  0
 14 22  1  0
 14 23  1  0
M  RAD  2   3   2  13   2
M  END
>  <reaction>  (15) 
rmg_rxn_57

>  <mol_properties>  (15) 
{"1": {"label": "*0", "atom_type": "Cs"}, "2": {"label": "*1", "atom_type": "N3s"}, "8": {"label": "*2", "atom_type": "H0"}, "11": {"label": "*4", "atom_type": "S2s"}, "12": {"label": "*3", "atom_type": "Cs"}}

>  <type>  (15) 
unop_11

>  <geom_source>  (15) 
Heuristics

$$$$

     RDKit          3D

 23 21  0  0  0  0  0  0  0  0999 V2000
    0.9488   -0.9802   -3.5200 C   0  0  0  0  0  0  0  0  0  0  0  0
    0.9488   -0.9802   -2.0020 C   0  0  0  0  0  0  0  0  0  0  0  0
    0.9488    0.3473   -1.4623 N   0  0  0  0  0  2  0  0  0  0  0  0
    1.8310   -0.4638   -3.9001 H   0  0  0  0  0  0  0  0  0  0  0  0
    0.9488   -1.9991   -3.9111 H   0  0  0  0  0  0  0  0  0  0  0  0
    0.0666   -0.4638   -3.9001 H   0  0  0  0  0  0  0  0  0  0  0  0
    1.8210   -1.5339   -1.6181 H   0  0  0  0  0  0  0  0  0  0  0  0
    0.0766   -1.5339   -1.6181 H   0  0  0  0  0  0  0  0  0  0  0  0
    0.9488    0.2438   -0.2390 H   0  0  0  0  0  0  0  0  0  0  0  0
   -1.9624    0.2441   -0.4089 C   0  0  0  0  0  0  0  0  0  0  0  0
   -1.8642    0.2871    1.1071 C   0  0  0  0  0  0  0  0  0  0  0  0
   -0.3977    1.1285    1.7550 S   0  0  0  0  0  0  0  0  0  0  0  0
    0.9488    0.1333    1.0658 C   0  0  0  0  0  3  0  0  0  0  0  0
    0.9488   -1.3268    1.4873 C   0  0  0  0  0  0  0  0  0  0  0  0
   -1.1607   -0.3548   -0.8442 H   0  0  0  0  0  0  0  0  0  0  0  0
   -2.9099   -0.2052   -0.7143 H   0  0  0  0  0  0  0  0  0  0  0  0
   -1.9027    1.2477   -0.8316 H   0  0  0  0  0  0  0  0  0  0  0  0
   -1.9238   -0.7169    1.5304 H   0  0  0  0  0  0  0  0  0  0  0  0
   -2.6958    0.8552    1.5271 H   0  0  0  0  0  0  0  0  0  0  0  0
    1.8503    0.6335    1.4235 H   0  0  0  0  0  0  0  0  0  0  0  0
    0.0736   -1.8534    1.1032 H   0  0  0  0  0  0  0  0  0  0  0  0
    1.8338   -1.8337    1.0966 H   0  0  0  0  0  0  0  0  0  0  0  0
    0.9487   -1.4183    2.5741 H   0  0  0  0  0  0  0  0  0  0  0  0
  1  2  1  0
  1  4  1  0
  1  5  1  0
  1  6  1  0
  2  3  1  0
  2  7  1  0
  2  8  1  0
  3  9  1  0
 10 11  1  0
 10 15  1  0
 10 16  1  0
 10 17  1  0
 11 12  1  0
 11 18  1  0
 11 19  1  0
 12 13  1  0
 13 14  1  0
 13 20  1  0
 14 21  1  0
 14 22  1  0
 14 23  1  0
M  RAD  2   3   2  13   2
M  END
>  <reaction>  (16) 
rmg_rxn_57

>  <mol_properties>  (16) 
{"1": {"label": "*0", "atom_type": "Cs"}, "2": {"label": "*1", "atom_type": "N3s"}, "8": {"label": "*2", "atom_type": "H0"}, "11": {"label": "*4", "atom_type": "S2s"}, "12": {"label": "*3", "atom_type": "Cs"}}

>  <type>  (16) 
unop_12

>  <geom_source>  (16) 
Heuristics

$$$$

     RDKit          3D

 23 21  0  0  0  0  0  0  0  0999 V2000
    0.8615   -0.5964   -3.7597 C   0  0  0  0  0  0  0  0  0  0  0  0
    0.8615   -0.5964   -2.2418 C   0  0  0  0  0  0  0  0  0  0  0  0
    0.8615    0.7312   -1.7020 N   0  0  0  0  0  2  0  0  0  0  0  0
    1.7438   -0.0799   -4.1398 H   0  0  0  0  0  0  0  0  0  0  0  0
    0.8615   -1.6153   -4.1508 H   0  0  0  0  0  0  0  0  0  0  0  0
   -0.0207   -0.0799   -4.1398 H   0  0  0  0  0  0  0  0  0  0  0  0
    1.7338   -1.1501   -1.8578 H   0  0  0  0  0  0  0  0  0  0  0  0
   -0.0107   -1.1501   -1.8578 H   0  0  0  0  0  0  0  0  0  0  0  0
    0.8615    0.6276   -0.4788 H   0  0  0  0  0  0  0  0  0  0  0  0
   -2.0742   -0.7401    0.1460 C   0  0  0  0  0  0  0  0  0  0  0  0
   -1.6659   -0.4701    1.5847 C   0  0  0  0  0  0  0  0  0  0  0  0
   -0.5862    0.9647    1.8170 S   0  0  0  0  0  0  0  0  0  0  0  0
    0.8615    0.5172    0.8260 C   0  0  0  0  0  3  0  0  0  0  0  0
    1.5712   -0.7534    1.2636 C   0  0  0  0  0  0  0  0  0  0  0  0
   -1.2151   -1.0156   -0.4681 H   0  0  0  0  0  0  0  0  0  0  0  0
   -2.7861   -1.5674    0.1033 H   0  0  0  0  0  0  0  0  0  0  0  0
   -2.5393    0.1404   -0.2986 H   0  0  0  0  0  0  0  0  0  0  0  0
   -1.2003   -1.3510    2.0299 H   0  0  0  0  0  0  0  0  0  0  0  0
   -2.5418   -0.2367    2.1923 H   0  0  0  0  0  0  0  0  0  0  0  0
    1.5233    1.3786    0.9300 H   0  0  0  0  0  0  0  0  0  0  0  0
    0.9378   -1.6317    1.1280 H   0  0  0  0  0  0  0  0  0  0  0  0
    2.4748   -0.9063    0.6694 H   0  0  0  0  0  0  0  0  0  0  0  0
    1.8535   -0.6992    2.3156 H   0  0  0  0  0  0  0  0  0  0  0  0
  1  2  1  0
  1  4  1  0
  1  5  1  0
  1  6  1  0
  2  3  1  0
  2  7  1  0
  2  8  1  0
  3  9  1  0
 10 11  1  0
 10 15  1  0
 10 16  1  0
 10 17  1  0
 11 12  1  0
 11 18  1  0
 11 19  1  0
 12 13  1  0
 13 14  1  0
 13 20  1  0
 14 21  1  0
 14 22  1  0
 14 23  1  0
M  RAD  2   3   2  13   2
M  END
>  <reaction>  (17) 
rmg_rxn_57

>  <mol_properties>  (17) 
{"1": {"label": "*0", "atom_type": "Cs"}, "2": {"label": "*1", "atom_type": "N3s"}, "8": {"label": "*2", "atom_type": "H0"}, "11": {"label": "*4", "atom_type": "S2s"}, "12": {"label": "*3", "atom_type": "Cs"}}

>  <type>  (17) 
unop_13

>  <geom_source>  (17) 
gaussian_log

$$$$
