
     RDKit          3D

  8  7  0  0  0  0  0  0  0  0999 V2000
    0.9548    0.1194   -0.0790 C   0  0  0  0  0  0  0  0  0  0  0  0
   -0.4838   -0.2649    0.0193 C   0  0  0  0  0  0  0  0  0  0  0  0
   -0.8933   -1.1081    0.8664 N   0  0  0  0  0  0  0  0  0  0  0  0
    1.3360   -0.0983   -1.0800 H   0  0  0  0  0  0  0  0  0  0  0  0
    1.0698    1.1948    0.0786 H   0  0  0  0  0  0  0  0  0  0  0  0
    1.5426   -0.4219    0.6602 H   0  0  0  0  0  0  0  0  0  0  0  0
   -1.1575    0.2324   -0.6905 H   0  0  0  0  0  0  0  0  0  0  0  0
   -1.8989   -1.2455    0.7886 H   0  0  0  0  0  0  0  0  0  0  0  0
  1  2  1  0
  1  4  1  0
  1  5  1  0
  1  6  1  0
  2  3  2  3
  2  7  1  0
  3  8  1  0
M  END
>  <reaction>  (1) 
rmg_rxn_16639

>  <mol_properties>  (1) 
{"2": {"label": "donator", "atom_type": "N3d"}, "7": {"label": "d_hydrogen", "atom_type": "H0"}}

>  <type>  (1) 
r1h

$$$$

     RDKit          3D

  9  8  0  0  0  0  0  0  0  0999 V2000
   -1.1429   -0.0056    0.0357 C   0  0  0  0  0  0  0  0  0  0  0  0
    0.2348   -0.4846   -0.1988 C   0  0  0  0  0  0  0  0  0  0  0  0
    1.3889    0.3067    0.0768 C   0  0  0  0  0  0  0  0  0  0  0  0
    1.3416    1.4450    0.5289 O   0  0  0  0  0  1  0  0  0  0  0  0
   -1.7198   -0.0230   -0.8945 H   0  0  0  0  0  0  0  0  0  0  0  0
   -1.1399    1.0063    0.4362 H   0  0  0  0  0  0  0  0  0  0  0  0
   -1.6667   -0.6673    0.7330 H   0  0  0  0  0  0  0  0  0  0  0  0
    0.3900   -1.4812   -0.5984 H   0  0  0  0  0  0  0  0  0  0  0  0
    2.3646   -0.1624   -0.1407 H   0  0  0  0  0  0  0  0  0  0  0  0
  1  2  1  0
  1  5  1  0
  1  6  1  0
  1  7  1  0
  2  3  2  3
  2  8  1  0
  3  4  1  0
  3  9  1  0
M  RAD  1   4   2
M  END
>  <reaction>  (2) 
rmg_rxn_16639

>  <mol_properties>  (2) 
{"1": {"label": "acceptor", "atom_type": "Cs"}}

>  <type>  (2) 
r2

$$$$

     RDKit          3D

 10  9  0  0  0  0  0  0  0  0999 V2000
   -1.1238    0.2714    0.2496 C   0  0  0  0  0  0  0  0  0  0  0  0
    0.0881   -0.5850   -0.0680 C   0  0  0  0  0  0  0  0  0  0  0  0
   -0.0512   -1.4242   -1.3070 C   0  0  0  0  0  0  0  0  0  0  0  0
   -1.0187   -1.4480   -2.0158 O   0  0  0  0  0  0  0  0  0  0  0  0
   -2.0096   -0.3470    0.3939 H   0  0  0  0  0  0  0  0  0  0  0  0
   -0.9564    0.8523    1.1567 H   0  0  0  0  0  0  0  0  0  0  0  0
   -1.3376    0.9606   -0.5673 H   0  0  0  0  0  0  0  0  0  0  0  0
    0.3267   -1.2715    0.7528 H   0  0  0  0  0  0  0  0  0  0  0  0
    0.9917    0.0222   -0.1983 H   0  0  0  0  0  0  0  0  0  0  0  0
    0.8330   -2.0534   -1.5447 H   0  0  0  0  0  0  0  0  0  0  0  0
  1  2  1  0
  1  5  1  0
  1  6  1  0
  1  7  1  0
  2  3  1  0
  2  8  1  0
  2  9  1  0
  3  4  2  0
  3 10  1  0
M  END
>  <reaction>  (3) 
rmg_rxn_16639

>  <mol_properties>  (3) 
{"0": {"label": "a_hydrogen", "atom_type": "H0"}, "2": {"label": "acceptor", "atom_type": "Cs"}}

>  <type>  (3) 
r2h

$$$$

     RDKit          3D

 17 15  0  0  0  0  0  0  0  0999 V2000
   -0.2461   -0.3956   -3.3028 C   0  0  0  0  0  0  0  0  0  0  0  0
   -0.2553   -0.1821   -1.8196 C   0  0  0  0  0  0  0  0  0  0  0  0
   -1.2020    0.3940   -1.2329 N   0  0  0  0  0  0  0  0  0  0  0  0
    0.6346    0.0839   -3.7350 H   0  0  0  0  0  0  0  0  0  0  0  0
   -0.1744   -1.4638   -3.5176 H   0  0  0  0  0  0  0  0  0  0  0  0
   -1.1458    0.0101   -3.7607 H   0  0  0  0  0  0  0  0  0  0  0  0
    0.6158   -0.5548   -1.2648 H   0  0  0  0  0  0  0  0  0  0  0  0
   -0.9447    0.4276    0.0146 H   0  0  0  0  0  0  0  0  0  0  0  0
   -0.8677   -1.2360    1.5331 C   0  0  0  0  0  0  0  0  0  0  0  0
   -0.5540    0.2112    1.2708 C   0  0  0  0  0  0  0  0  0  0  0  0
    0.8500    0.6157    1.2005 C   0  0  0  0  0  0  0  0  0  0  0  0
    1.7755   -0.1446    1.0094 O   0  0  0  0  0  1  0  0  0  0  0  0
   -1.9082   -1.4572    1.2942 H   0  0  0  0  0  0  0  0  0  0  0  0
   -0.7006   -1.4858    2.5842 H   0  0  0  0  0  0  0  0  0  0  0  0
   -0.2239   -1.8840    0.9386 H   0  0  0  0  0  0  0  0  0  0  0  0
   -1.1901    0.9383    1.7741 H   0  0  0  0  0  0  0  0  0  0  0  0
    1.0354    1.7057    1.2745 H   0  0  0  0  0  0  0  0  0  0  0  0
  1  2  1  0
  1  4  1  0
  1  5  1  0
  1  6  1  0
  2  3  2  3
  2  7  1  0
  3  8  1  0
  9 10  1  0
  9 13  1  0
  9 14  1  0
  9 15  1  0
 10 11  2  3
 10 16  1  0
 11 12  1  0
 11 17  1  0
M  RAD  1  12   2
M  END
>  <reaction>  (4) 
rmg_rxn_16639

>  <mol_properties>  (4) 
{"1": {"label": "*0", "atom_type": "Cd"}, "2": {"label": "*1", "atom_type": "N3d"}, "7": {"label": "*2", "atom_type": "H0"}, "9": {"label": "*3", "atom_type": "Cd"}, "10": {"label": "*4", "atom_type": "Cd"}}

>  <type>  (4) 
ts

$$$$

     RDKit          3D

 17 15  0  0  0  0  0  0  0  0999 V2000
   -3.2287   -0.0406   -0.1064 C   0  0  0  0  0  0  0  0  0  0  0  0
   -1.7438    0.0293    0.0391 C   0  0  0  0  0  0  0  0  0  0  0  0
   -1.0333   -0.9898    0.0697 N   0  0  0  0  0  0  0  0  0  0  0  0
   -3.5266    0.5038   -1.0009 H   0  0  0  0  0  0  0  0  0  0  0  0
   -3.5570   -1.0739   -0.1758 H   0  0  0  0  0  0  0  0  0  0  0  0
   -3.6948    0.4396    0.7522 H   0  0  0  0  0  0  0  0  0  0  0  0
   -1.3444    1.0488    0.1138 H   0  0  0  0  0  0  0  0  0  0  0  0
    0.1354   -0.7708    0.1940 H   0  0  0  0  0  0  0  0  0  0  0  0
    2.2271   -1.5120   -0.1560 C   0  0  0  0  0  0  0  0  0  0  0  0
    1.4083   -0.3763    0.3816 C   0  0  0  0  0  0  0  0  0  0  0  0
    1.3984    0.8806   -0.3232 C   0  0  0  0  0  0  0  0  0  0  0  0
    0.9529    1.9284    0.1182 O   0  0  0  0  0  1  0  0  0  0  0  0
    2.1577   -1.5607   -1.2406 H   0  0  0  0  0  0  0  0  0  0  0  0
    1.8938   -2.4596    0.2614 H   0  0  0  0  0  0  0  0  0  0  0  0
    3.2768   -1.3802    0.1134 H   0  0  0  0  0  0  0  0  0  0  0  0
    1.3884   -0.2878    1.4654 H   0  0  0  0  0  0  0  0  0  0  0  0
    1.7741    0.8298   -1.3644 H   0  0  0  0  0  0  0  0  0  0  0  0
  1  2  1  0
  1  4  1  0
  1  5  1  0
  1  6  1  0
  2  3  2  3
  2  7  1  0
  3  8  1  0
  9 10  1  0
  9 13  1  0
  9 14  1  0
  9 15  1  0
 10 11  2  3
 10 16  1  0
 11 12  1  0
 11 17  1  0
M  RAD  1  12   2
M  END
>  <reaction>  (5) 
rmg_rxn_16639

>  <mol_properties>  (5) 
{"1": {"label": "*0", "atom_type": "Cd"}, "2": {"label": "*1", "atom_type": "N3d"}, "7": {"label": "*2", "atom_type": "H0"}, "9": {"label": "*3", "atom_type": "Cd"}, "10": {"label": "*4", "atom_type": "Cd"}}

>  <type>  (5) 
unop_1

>  <geom_source>  (5) 
crest_best.xyz

$$$$

     RDKit          3D

 17 15  0  0  0  0  0  0  0  0999 V2000
    0.1384   -1.0370   -3.2643 C   0  0  0  0  0  0  0  0  0  0  0  0
    0.1384   -1.0370   -1.7720 C   0  0  0  0  0  0  0  0  0  0  0  0
    0.1384    0.0356   -1.1043 N   0  0  0  0  0  0  0  0  0  0  0  0
    1.0167   -1.5670   -3.6417 H   0  0  0  0  0  0  0  0  0  0  0  0
   -0.7399   -1.5670   -3.6417 H   0  0  0  0  0  0  0  0  0  0  0  0
    0.1384   -0.0164   -3.6429 H   0  0  0  0  0  0  0  0  0  0  0  0
    0.1384   -2.0267   -1.2973 H   0  0  0  0  0  0  0  0  0  0  0  0
    0.1384   -0.1946    0.0953 H   0  0  0  0  0  0  0  0  0  0  0  0
    1.3591    0.1437    2.0723 C   0  0  0  0  0  0  0  0  0  0  0  0
    0.1384   -0.4425    1.3874 C   0  0  0  0  0  0  0  0  0  0  0  0
   -0.9740    0.5403    1.1513 C   0  0  0  0  0  0  0  0  0  0  0  0
   -0.9445    1.6989    1.4607 O   0  0  0  0  0  1  0  0  0  0  0  0
    2.1245   -0.6197    2.2124 H   0  0  0  0  0  0  0  0  0  0  0  0
    1.0980    0.5541    3.0477 H   0  0  0  0  0  0  0  0  0  0  0  0
    1.7844    0.9548    1.4814 H   0  0  0  0  0  0  0  0  0  0  0  0
   -0.2904   -1.2722    1.9617 H   0  0  0  0  0  0  0  0  0  0  0  0
   -1.8704    0.1169    0.6502 H   0  0  0  0  0  0  0  0  0  0  0  0
  1  2  1  0
  1  4  1  0
  1  5  1  0
  1  6  1  0
  2  3  2  3
  2  7  1  0
  3  8  1  0
  9 10  1  0
  9 13  1  0
  9 14  1  0
  9 15  1  0
 10 11  2  3
 10 16  1  0
 11 12  1  0
 11 17  1  0
M  RAD  1  12   2
M  END
>  <reaction>  (6) 
rmg_rxn_16639

>  <mol_properties>  (6) 
{"1": {"label": "*0", "atom_type": "Cd"}, "2": {"label": "*1", "atom_type": "N3d"}, "7": {"label": "*2", "atom_type": "H0"}, "9": {"label": "*3", "atom_type": "Cd"}, "10": {"label": "*4", "atom_type": "Cd"}}

>  <type>  (6) 
unop_2

>  <geom_source>  (6) 
Heuristics

$$$$

     RDKit          3D

 17 15  0  0  0  0  0  0  0  0999 V2000
   -0.5071   -0.6492   -3.3896 C   0  0  0  0  0  0  0  0  0  0  0  0
   -0.5071   -0.6492   -1.8973 C   0  0  0  0  0  0  0  0  0  0  0  0
   -0.5071    0.4234   -1.2296 N   0  0  0  0  0  0  0  0  0  0  0  0
    0.3712   -1.1792   -3.7671 H   0  0  0  0  0  0  0  0  0  0  0  0
   -1.3853   -1.1792   -3.7671 H   0  0  0  0  0  0  0  0  0  0  0  0
   -0.5071    0.3714   -3.7682 H   0  0  0  0  0  0  0  0  0  0  0  0
   -0.5071   -1.6389   -1.4227 H   0  0  0  0  0  0  0  0  0  0  0  0
   -0.5071    0.1932   -0.0300 H   0  0  0  0  0  0  0  0  0  0  0  0
    0.1977   -1.3595    1.5842 C   0  0  0  0  0  0  0  0  0  0  0  0
   -0.5071   -0.0547    1.2621 C   0  0  0  0  0  0  0  0  0  0  0  0
    0.2976    1.1779    1.5655 C   0  0  0  0  0  0  0  0  0  0  0  0
    1.4063    1.1793    2.0237 O   0  0  0  0  0  1  0  0  0  0  0  0
   -0.4392   -2.2101    1.3411 H   0  0  0  0  0  0  0  0  0  0  0  0
    0.4547   -1.4116    2.6421 H   0  0  0  0  0  0  0  0  0  0  0  0
    1.1254   -1.4500    1.0192 H   0  0  0  0  0  0  0  0  0  0  0  0
   -1.4518    0.0426    1.8098 H   0  0  0  0  0  0  0  0  0  0  0  0
   -0.2131    2.1363    1.3318 H   0  0  0  0  0  0  0  0  0  0  0  0
  1  2  1  0
  1  4  1  0
  1  5  1  0
  1  6  1  0
  2  3  2  3
  2  7  1  0
  3  8  1  0
  9 10  1  0
  9 13  1  0
  9 14  1  0
  9 15  1  0
 10 11  2  3
 10 16  1  0
 11 12  1  0
 11 17  1  0
M  RAD  1  12   2
M  END
>  <reaction>  (7) 
rmg_rxn_16639

>  <mol_properties>  (7) 
{"1": {"label": "*0", "atom_type": "Cd"}, "2": {"label": "*1", "atom_type": "N3d"}, "7": {"label": "*2", "atom_type": "H0"}, "9": {"label": "*3", "atom_type": "Cd"}, "10": {"label": "*4", "atom_type": "Cd"}}

>  <type>  (7) 
unop_3

>  <geom_source>  (7) 
Heuristics

$$$$

     RDKit          3D

 17 15  0  0  0  0  0  0  0  0999 V2000
    0.4212   -0.8462   -3.3271 C   0  0  0  0  0  0  0  0  0  0  0  0
    0.4212   -0.8462   -1.8348 C   0  0  0  0  0  0  0  0  0  0  0  0
    0.4212    0.2265   -1.1671 N   0  0  0  0  0  0  0  0  0  0  0  0
    1.2995   -1.3762   -3.7046 H   0  0  0  0  0  0  0  0  0  0  0  0
   -0.4570   -1.3762   -3.7046 H   0  0  0  0  0  0  0  0  0  0  0  0
    0.4212    0.1745   -3.7057 H   0  0  0  0  0  0  0  0  0  0  0  0
    0.4212   -1.8359   -1.3602 H   0  0  0  0  0  0  0  0  0  0  0  0
    0.4212   -0.0037    0.0325 H   0  0  0  0  0  0  0  0  0  0  0  0
    1.1260    0.8413    2.1067 C   0  0  0  0  0  0  0  0  0  0  0  0
    0.4212   -0.2516    1.3246 C   0  0  0  0  0  0  0  0  0  0  0  0
   -1.0621   -0.0561    1.1818 C   0  0  0  0  0  0  0  0  0  0  0  0
   -1.6797    0.8691    1.6307 O   0  0  0  0  0  1  0  0  0  0  0  0
    2.1951    0.6383    2.1722 H   0  0  0  0  0  0  0  0  0  0  0  0
    0.7260    0.9153    3.1179 H   0  0  0  0  0  0  0  0  0  0  0  0
    0.9873    1.8116    1.6301 H   0  0  0  0  0  0  0  0  0  0  0  0
    0.5669   -1.2372    1.7824 H   0  0  0  0  0  0  0  0  0  0  0  0
   -1.5837   -0.8531    0.6101 H   0  0  0  0  0  0  0  0  0  0  0  0
  1  2  1  0
  1  4  1  0
  1  5  1  0
  1  6  1  0
  2  3  2  3
  2  7  1  0
  3  8  1  0
  9 10  1  0
  9 13  1  0
  9 14  1  0
  9 15  1  0
 10 11  2  3
 10 16  1  0
 11 12  1  0
 11 17  1  0
M  RAD  1  12   2
M  END
>  <reaction>  (8) 
rmg_rxn_16639

>  <mol_properties>  (8) 
{"1": {"label": "*0", "atom_type": "Cd"}, "2": {"label": "*1", "atom_type": "N3d"}, "7": {"label": "*2", "atom_type": "H0"}, "9": {"label": "*3", "atom_type": "Cd"}, "10": {"label": "*4", "atom_type": "Cd"}}

>  <type>  (8) 
unop_4

>  <geom_source>  (8) 
Heuristics

$$$$

     RDKit          3D

 17 15  0  0  0  0  0  0  0  0999 V2000
   -0.1686   -0.2080   -3.6471 C   0  0  0  0  0  0  0  0  0  0  0  0
   -0.1686   -0.2080   -2.1548 C   0  0  0  0  0  0  0  0  0  0  0  0
   -0.1686    0.8646   -1.4871 N   0  0  0  0  0  0  0  0  0  0  0  0
    0.7096   -0.7380   -4.0245 H   0  0  0  0  0  0  0  0  0  0  0  0
   -1.0469   -0.7380   -4.0245 H   0  0  0  0  0  0  0  0  0  0  0  0
   -0.1686    0.8126   -4.0257 H   0  0  0  0  0  0  0  0  0  0  0  0
   -0.1686   -1.1977   -1.6801 H   0  0  0  0  0  0  0  0  0  0  0  0
   -0.1686    0.6345   -0.2875 H   0  0  0  0  0  0  0  0  0  0  0  0
   -1.3894   -0.4116    1.4239 C   0  0  0  0  0  0  0  0  0  0  0  0
   -0.1686    0.3865    1.0046 C   0  0  0  0  0  0  0  0  0  0  0  0
    1.0330    0.1941    1.8866 C   0  0  0  0  0  0  0  0  0  0  0  0
    1.0709   -0.5190    2.8505 O   0  0  0  0  0  1  0  0  0  0  0  0
   -2.2213   -0.2263    0.7443 H   0  0  0  0  0  0  0  0  0  0  0  0
   -1.7014   -0.1431    2.4331 H   0  0  0  0  0  0  0  0  0  0  0  0
   -1.1743   -1.4800    1.4233 H   0  0  0  0  0  0  0  0  0  0  0  0
   -0.3750    1.4631    0.9831 H   0  0  0  0  0  0  0  0  0  0  0  0
    1.9299    0.7759    1.5846 H   0  0  0  0  0  0  0  0  0  0  0  0
  1  2  1  0
  1  4  1  0
  1  5  1  0
  1  6  1  0
  2  3  2  3
  2  7  1  0
  3  8  1  0
  9 10  1  0
  9 13  1  0
  9 14  1  0
  9 15  1  0
 10 11  2  3
 10 16  1  0
 11 12  1  0
 11 17  1  0
M  RAD  1  12   2
M  END
>  <reaction>  (9) 
rmg_rxn_16639

>  <mol_properties>  (9) 
{"1": {"label": "*0", "atom_type": "Cd"}, "2": {"label": "*1", "atom_type": "N3d"}, "7": {"label": "*2", "atom_type": "H0"}, "9": {"label": "*3", "atom_type": "Cd"}, "10": {"label": "*4", "atom_type": "Cd"}}

>  <type>  (9) 
unop_5

>  <geom_source>  (9) 
Heuristics

$$$$

     RDKit          3D

 17 15  0  0  0  0  0  0  0  0999 V2000
    0.4702   -0.4461   -3.5015 C   0  0  0  0  0  0  0  0  0  0  0  0
    0.4702   -0.4461   -2.0091 C   0  0  0  0  0  0  0  0  0  0  0  0
    0.4702    0.6266   -1.3414 N   0  0  0  0  0  0  0  0  0  0  0  0
    1.3485   -0.9761   -3.8789 H   0  0  0  0  0  0  0  0  0  0  0  0
   -0.4080   -0.9761   -3.8789 H   0  0  0  0  0  0  0  0  0  0  0  0
    0.4702    0.5746   -3.8801 H   0  0  0  0  0  0  0  0  0  0  0  0
    0.4702   -1.4358   -1.5345 H   0  0  0  0  0  0  0  0  0  0  0  0
    0.4702    0.3964   -0.1419 H   0  0  0  0  0  0  0  0  0  0  0  0
    0.4702    1.4269    1.9680 C   0  0  0  0  0  0  0  0  0  0  0  0
    0.4702    0.1485    1.1502 C   0  0  0  0  0  0  0  0  0  0  0  0
   -0.6975   -0.7597    1.4162 C   0  0  0  0  0  0  0  0  0  0  0  0
   -1.5784   -0.5351    2.1989 O   0  0  0  0  0  1  0  0  0  0  0  0
    1.3408    2.0370    1.7268 H   0  0  0  0  0  0  0  0  0  0  0  0
    0.4884    1.2057    3.0351 H   0  0  0  0  0  0  0  0  0  0  0  0
   -0.4274    2.0133    1.7725 H   0  0  0  0  0  0  0  0  0  0  0  0
    1.3764   -0.4441    1.3228 H   0  0  0  0  0  0  0  0  0  0  0  0
   -0.7029   -1.6973    0.8205 H   0  0  0  0  0  0  0  0  0  0  0  0
  1  2  1  0
  1  4  1  0
  1  5  1  0
  1  6  1  0
  2  3  2  3
  2  7  1  0
  3  8  1  0
  9 10  1  0
  9 13  1  0
  9 14  1  0
  9 15  1  0
 10 11  2  3
 10 16  1  0
 11 12  1  0
 11 17  1  0
M  RAD  1  12   2
M  END
>  <reaction>  (10) 
rmg_rxn_16639

>  <mol_properties>  (10) 
{"1": {"label": "*0", "atom_type": "Cd"}, "2": {"label": "*1", "atom_type": "N3d"}, "7": {"label": "*2", "atom_type": "H0"}, "9": {"label": "*3", "atom_type": "Cd"}, "10": {"label": "*4", "atom_type": "Cd"}}

>  <type>  (10) 
unop_6

>  <geom_source>  (10) 
Heuristics

$$$$

     RDKit          3D

 17 15  0  0  0  0  0  0  0  0999 V2000
   -0.0640   -0.2124   -3.6746 C   0  0  0  0  0  0  0  0  0  0  0  0
   -0.0640   -0.2124   -2.1823 C   0  0  0  0  0  0  0  0  0  0  0  0
   -0.0640    0.8602   -1.5146 N   0  0  0  0  0  0  0  0  0  0  0  0
    0.8142   -0.7424   -4.0521 H   0  0  0  0  0  0  0  0  0  0  0  0
   -0.9423   -0.7424   -4.0521 H   0  0  0  0  0  0  0  0  0  0  0  0
   -0.0640    0.8082   -4.0532 H   0  0  0  0  0  0  0  0  0  0  0  0
   -0.0640   -1.2021   -1.7077 H   0  0  0  0  0  0  0  0  0  0  0  0
   -0.0640    0.6301   -0.3150 H   0  0  0  0  0  0  0  0  0  0  0  0
   -1.4736    0.2762    1.5292 C   0  0  0  0  0  0  0  0  0  0  0  0
   -0.0640    0.3821    0.9771 C   0  0  0  0  0  0  0  0  0  0  0  0
    0.9919   -0.2443    1.8439 C   0  0  0  0  0  0  0  0  0  0  0  0
    0.7855   -0.7923    2.8909 O   0  0  0  0  0  1  0  0  0  0  0  0
   -2.1870    0.7488    0.8539 H   0  0  0  0  0  0  0  0  0  0  0  0
   -1.5470    0.7602    2.5030 H   0  0  0  0  0  0  0  0  0  0  0  0
   -1.7619   -0.7665    1.6615 H   0  0  0  0  0  0  0  0  0  0  0  0
    0.2339    1.4257    0.8215 H   0  0  0  0  0  0  0  0  0  0  0  0
    2.0260   -0.1699    1.4449 H   0  0  0  0  0  0  0  0  0  0  0  0
  1  2  1  0
  1  4  1  0
  1  5  1  0
  1  6  1  0
  2  3  2  3
  2  7  1  0
  3  8  1  0
  9 10  1  0
  9 13  1  0
  9 14  1  0
  9 15  1  0
 10 11  2  3
 10 16  1  0
 11 12  1  0
 11 17  1  0
M  RAD  1  12   2
M  END
>  <reaction>  (11) 
rmg_rxn_16639

>  <mol_properties>  (11) 
{"1": {"label": "*0", "atom_type": "Cd"}, "2": {"label": "*1", "atom_type": "N3d"}, "7": {"label": "*2", "atom_type": "H0"}, "9": {"label": "*3", "atom_type": "Cd"}, "10": {"label": "*4", "atom_type": "Cd"}}

>  <type>  (11) 
unop_7

>  <geom_source>  (11) 
Heuristics

$$$$

     RDKit          3D

 17 15  0  0  0  0  0  0  0  0999 V2000
    0.0291   -0.2080   -3.6754 C   0  0  0  0  0  0  0  0  0  0  0  0
    0.0291   -0.2080   -2.1831 C   0  0  0  0  0  0  0  0  0  0  0  0
    0.0291    0.8647   -1.5154 N   0  0  0  0  0  0  0  0  0  0  0  0
    0.9073   -0.7380   -4.0529 H   0  0  0  0  0  0  0  0  0  0  0  0
   -0.8492   -0.7380   -4.0529 H   0  0  0  0  0  0  0  0  0  0  0  0
    0.0291    0.8126   -4.0540 H   0  0  0  0  0  0  0  0  0  0  0  0
    0.0291   -1.1977   -1.7085 H   0  0  0  0  0  0  0  0  0  0  0  0
    0.0291    0.6345   -0.3158 H   0  0  0  0  0  0  0  0  0  0  0  0
   -1.1917    0.9728    1.6612 C   0  0  0  0  0  0  0  0  0  0  0  0
    0.0291    0.3866    0.9763 C   0  0  0  0  0  0  0  0  0  0  0  0
    0.7256   -0.6894    1.7611 C   0  0  0  0  0  0  0  0  0  0  0  0
    0.3824   -1.0840    2.8407 O   0  0  0  0  0  1  0  0  0  0  0  0
   -1.6470    1.7443    1.0401 H   0  0  0  0  0  0  0  0  0  0  0  0
   -0.9241    1.4151    2.6207 H   0  0  0  0  0  0  0  0  0  0  0  0
   -1.9366    0.2012    1.8551 H   0  0  0  0  0  0  0  0  0  0  0  0
    0.7805    1.1546    0.7583 H   0  0  0  0  0  0  0  0  0  0  0  0
    1.6201   -1.1225    1.2648 H   0  0  0  0  0  0  0  0  0  0  0  0
  1  2  1  0
  1  4  1  0
  1  5  1  0
  1  6  1  0
  2  3  2  3
  2  7  1  0
  3  8  1  0
  9 10  1  0
  9 13  1  0
  9 14  1  0
  9 15  1  0
 10 11  2  3
 10 16  1  0
 11 12  1  0
 11 17  1  0
M  RAD  1  12   2
M  END
>  <reaction>  (12) 
rmg_rxn_16639

>  <mol_properties>  (12) 
{"1": {"label": "*0", "atom_type": "Cd"}, "2": {"label": "*1", "atom_type": "N3d"}, "7": {"label": "*2", "atom_type": "H0"}, "9": {"label": "*3", "atom_type": "Cd"}, "10": {"label": "*4", "atom_type": "Cd"}}

>  <type>  (12) 
unop_8

>  <geom_source>  (12) 
Heuristics

$$$$

     RDKit          3D

 17 15  0  0  0  0  0  0  0  0999 V2000
   -0.1566   -1.0314   -3.2685 C   0  0  0  0  0  0  0  0  0  0  0  0
   -0.1566   -1.0314   -1.7762 C   0  0  0  0  0  0  0  0  0  0  0  0
   -0.1566    0.0412   -1.1085 N   0  0  0  0  0  0  0  0  0  0  0  0
    0.7216   -1.5614   -3.6459 H   0  0  0  0  0  0  0  0  0  0  0  0
   -1.0349   -1.5614   -3.6459 H   0  0  0  0  0  0  0  0  0  0  0  0
   -0.1566   -0.0108   -3.6471 H   0  0  0  0  0  0  0  0  0  0  0  0
   -0.1566   -2.0211   -1.3015 H   0  0  0  0  0  0  0  0  0  0  0  0
   -0.1566   -0.1890    0.0911 H   0  0  0  0  0  0  0  0  0  0  0  0
    1.2529   -0.5428    1.9353 C   0  0  0  0  0  0  0  0  0  0  0  0
   -0.1566   -0.4369    1.3832 C   0  0  0  0  0  0  0  0  0  0  0  0
   -0.6647    0.9705    1.2415 C   0  0  0  0  0  0  0  0  0  0  0  0
   -0.0449    1.9569    1.5276 O   0  0  0  0  0  1  0  0  0  0  0  0
    1.5579   -1.5866    2.0120 H   0  0  0  0  0  0  0  0  0  0  0  0
    1.3178   -0.0905    2.9248 H   0  0  0  0  0  0  0  0  0  0  0  0
    1.9624   -0.0221    1.2924 H   0  0  0  0  0  0  0  0  0  0  0  0
   -0.8797   -0.9716    2.0103 H   0  0  0  0  0  0  0  0  0  0  0  0
   -1.6962    1.0545    0.8378 H   0  0  0  0  0  0  0  0  0  0  0  0
  1  2  1  0
  1  4  1  0
  1  5  1  0
  1  6  1  0
  2  3  2  3
  2  7  1  0
  3  8  1  0
  9 10  1  0
  9 13  1  0
  9 14  1  0
  9 15  1  0
 10 11  2  3
 10 16  1  0
 11 12  1  0
 11 17  1  0
M  RAD  1  12   2
M  END
>  <reaction>  (13) 
rmg_rxn_16639

>  <mol_properties>  (13) 
{"1": {"label": "*0", "atom_type": "Cd"}, "2": {"label": "*1", "atom_type": "N3d"}, "7": {"label": "*2", "atom_type": "H0"}, "9": {"label": "*3", "atom_type": "Cd"}, "10": {"label": "*4", "atom_type": "Cd"}}

>  <type>  (13) 
unop_9

>  <geom_source>  (13) 
Heuristics

$$$$

     RDKit          3D

 17 15  0  0  0  0  0  0  0  0999 V2000
   -3.2287   -0.0406   -0.1064 C   0  0  0  0  0  0  0  0  0  0  0  0
   -1.7438    0.0293    0.0391 C   0  0  0  0  0  0  0  0  0  0  0  0
   -1.0333   -0.9898    0.0697 N   0  0  0  0  0  0  0  0  0  0  0  0
   -3.5266    0.5038   -1.0009 H   0  0  0  0  0  0  0  0  0  0  0  0
   -3.5570   -1.0739   -0.1758 H   0  0  0  0  0  0  0  0  0  0  0  0
   -3.6948    0.4396    0.7522 H   0  0  0  0  0  0  0  0  0  0  0  0
   -1.3444    1.0488    0.1138 H   0  0  0  0  0  0  0  0  0  0  0  0
    0.1354   -0.7708    0.1940 H   0  0  0  0  0  0  0  0  0  0  0  0
    2.2271   -1.5120   -0.1560 C   0  0  0  0  0  0  0  0  0  0  0  0
    1.4083   -0.3763    0.3816 C   0  0  0  0  0  0  0  0  0  0  0  0
    1.3984    0.8806   -0.3232 C   0  0  0  0  0  0  0  0  0  0  0  0
    0.9529    1.9284    0.1182 O   0  0  0  0  0  1  0  0  0  0  0  0
    2.1577   -1.5607   -1.2406 H   0  0  0  0  0  0  0  0  0  0  0  0
    1.8938   -2.4596    0.2614 H   0  0  0  0  0  0  0  0  0  0  0  0
    3.2768   -1.3802    0.1134 H   0  0  0  0  0  0  0  0  0  0  0  0
    1.3884   -0.2878    1.4654 H   0  0  0  0  0  0  0  0  0  0  0  0
    1.7741    0.8298   -1.3644 H   0  0  0  0  0  0  0  0  0  0  0  0
  1  2  1  0
  1  4  1  0
  1  5  1  0
  1  6  1  0
  2  3  2  3
  2  7  1  0
  3  8  1  0
  9 10  1  0
  9 13  1  0
  9 14  1  0
  9 15  1  0
 10 11  2  3
 10 16  1  0
 11 12  1  0
 11 17  1  0
M  RAD  1  12   2
M  END
>  <reaction>  (14) 
rmg_rxn_16639

>  <mol_properties>  (14) 
{"1": {"label": "*0", "atom_type": "Cd"}, "2": {"label": "*1", "atom_type": "N3d"}, "7": {"label": "*2", "atom_type": "H0"}, "9": {"label": "*3", "atom_type": "Cd"}, "10": {"label": "*4", "atom_type": "Cd"}}

>  <type>  (14) 
unop_10

>  <geom_source>  (14) 
Heuristics

$$$$

     RDKit          3D

 17 15  0  0  0  0  0  0  0  0999 V2000
   -0.3214   -0.2505   -3.5873 C   0  0  0  0  0  0  0  0  0  0  0  0
   -0.3214   -0.2505   -2.0950 C   0  0  0  0  0  0  0  0  0  0  0  0
   -0.3214    0.8221   -1.4273 N   0  0  0  0  0  0  0  0  0  0  0  0
    0.5568   -0.7805   -3.9648 H   0  0  0  0  0  0  0  0  0  0  0  0
   -1.1997   -0.7805   -3.9648 H   0  0  0  0  0  0  0  0  0  0  0  0
   -0.3214    0.7701   -3.9659 H   0  0  0  0  0  0  0  0  0  0  0  0
   -0.3214   -1.2402   -1.6204 H   0  0  0  0  0  0  0  0  0  0  0  0
   -0.3214    0.5919   -0.2277 H   0  0  0  0  0  0  0  0  0  0  0  0
   -1.0262   -0.9608    1.3865 C   0  0  0  0  0  0  0  0  0  0  0  0
   -0.3214    0.3440    1.0644 C   0  0  0  0  0  0  0  0  0  0  0  0
    0.9312    0.5866    1.8587 C   0  0  0  0  0  0  0  0  0  0  0  0
    1.3747   -0.1590    2.6873 O   0  0  0  0  0  1  0  0  0  0  0  0
   -1.9232   -1.0733    0.7773 H   0  0  0  0  0  0  0  0  0  0  0  0
   -1.3151   -0.9975    2.4368 H   0  0  0  0  0  0  0  0  0  0  0  0
   -0.3723   -1.8124    1.1989 H   0  0  0  0  0  0  0  0  0  0  0  0
   -0.9732    1.2097    1.2311 H   0  0  0  0  0  0  0  0  0  0  0  0
    1.4517    1.5403    1.6273 H   0  0  0  0  0  0  0  0  0  0  0  0
  1  2  1  0
  1  4  1  0
  1  5  1  0
  1  6  1  0
  2  3  2  3
  2  7  1  0
  3  8  1  0
  9 10  1  0
  9 13  1  0
  9 14  1  0
  9 15  1  0
 10 11  2  3
 10 16  1  0
 11 12  1  0
 11 17  1  0
M  RAD  1  12   2
M  END
>  <reaction>  (15) 
rmg_rxn_16639

>  <mol_properties>  (15) 
{"1": {"label": "*0", "atom_type": "Cd"}, "2": {"label": "*1", "atom_type": "N3d"}, "7": {"label": "*2", "atom_type": "H0"}, "9": {"label": "*3", "atom_type": "Cd"}, "10": {"label": "*4", "atom_type": "Cd"}}

>  <type>  (15) 
unop_11

>  <geom_source>  (15) 
Heuristics

$$$$

     RDKit          3D

 17 15  0  0  0  0  0  0  0  0999 V2000
   -0.3900   -0.8858   -3.3110 C   0  0  0  0  0  0  0  0  0  0  0  0
   -0.3900   -0.8858   -1.8187 C   0  0  0  0  0  0  0  0  0  0  0  0
   -0.3900    0.1868   -1.1510 N   0  0  0  0  0  0  0  0  0  0  0  0
    0.4883   -1.4158   -3.6884 H   0  0  0  0  0  0  0  0  0  0  0  0
   -1.2682   -1.4158   -3.6884 H   0  0  0  0  0  0  0  0  0  0  0  0
   -0.3900    0.1348   -3.6896 H   0  0  0  0  0  0  0  0  0  0  0  0
   -0.3900   -1.8755   -1.3440 H   0  0  0  0  0  0  0  0  0  0  0  0
   -0.3900   -0.0433    0.0486 H   0  0  0  0  0  0  0  0  0  0  0  0
    0.8308   -1.0894    1.7600 C   0  0  0  0  0  0  0  0  0  0  0  0
   -0.3900   -0.2913    1.3407 C   0  0  0  0  0  0  0  0  0  0  0  0
   -0.2045    1.1995    1.3881 C   0  0  0  0  0  0  0  0  0  0  0  0
    0.8042    1.7562    1.7223 O   0  0  0  0  0  1  0  0  0  0  0  0
    0.6285   -2.1590    1.7027 H   0  0  0  0  0  0  0  0  0  0  0  0
    1.1213   -0.8471    2.7822 H   0  0  0  0  0  0  0  0  0  0  0  0
    1.6820   -0.8639    1.1178 H   0  0  0  0  0  0  0  0  0  0  0  0
   -1.2601   -0.5209    1.9669 H   0  0  0  0  0  0  0  0  0  0  0  0
   -1.0948    1.7892    1.0822 H   0  0  0  0  0  0  0  0  0  0  0  0
  1  2  1  0
  1  4  1  0
  1  5  1  0
  1  6  1  0
  2  3  2  3
  2  7  1  0
  3  8  1  0
  9 10  1  0
  9 13  1  0
  9 14  1  0
  9 15  1  0
 10 11  2  3
 10 16  1  0
 11 12  1  0
 11 17  1  0
M  RAD  1  12   2
M  END
>  <reaction>  (16) 
rmg_rxn_16639

>  <mol_properties>  (16) 
{"1": {"label": "*0", "atom_type": "Cd"}, "2": {"label": "*1", "atom_type": "N3d"}, "7": {"label": "*2", "atom_type": "H0"}, "9": {"label": "*3", "atom_type": "Cd"}, "10": {"label": "*4", "atom_type": "Cd"}}

>  <type>  (16) 
unop_12

>  <geom_source>  (16) 
Heuristics

$$$$

     RDKit          3D

 17 15  0  0  0  0  0  0  0  0999 V2000
    0.2064   -0.2187   -3.6383 C   0  0  0  0  0  0  0  0  0  0  0  0
    0.2064   -0.2187   -2.1459 C   0  0  0  0  0  0  0  0  0  0  0  0
    0.2064    0.8539   -1.4782 N   0  0  0  0  0  0  0  0  0  0  0  0
    1.0847   -0.7487   -4.0157 H   0  0  0  0  0  0  0  0  0  0  0  0
   -0.6718   -0.7487   -4.0157 H   0  0  0  0  0  0  0  0  0  0  0  0
    0.2064    0.8019   -4.0169 H   0  0  0  0  0  0  0  0  0  0  0  0
    0.2064   -1.2084   -1.6713 H   0  0  0  0  0  0  0  0  0  0  0  0
    0.2064    0.6237   -0.2787 H   0  0  0  0  0  0  0  0  0  0  0  0
   -0.4984    1.4687    1.7956 C   0  0  0  0  0  0  0  0  0  0  0  0
    0.2064    0.3758    1.0134 C   0  0  0  0  0  0  0  0  0  0  0  0
    0.1311   -0.9868    1.6433 C   0  0  0  0  0  0  0  0  0  0  0  0
   -0.4272   -1.2370    2.6751 O   0  0  0  0  0  1  0  0  0  0  0  0
   -0.4053    2.4273    1.2850 H   0  0  0  0  0  0  0  0  0  0  0  0
   -0.0741    1.5670    2.7947 H   0  0  0  0  0  0  0  0  0  0  0  0
   -1.5578    1.2413    1.9129 H   0  0  0  0  0  0  0  0  0  0  0  0
    1.2704    0.5994    0.8716 H   0  0  0  0  0  0  0  0  0  0  0  0
    0.6453   -1.7911    1.0752 H   0  0  0  0  0  0  0  0  0  0  0  0
  1  2  1  0
  1  4  1  0
  1  5  1  0
  1  6  1  0
  2  3  2  3
  2  7  1  0
  3  8  1  0
  9 10  1  0
  9 13  1  0
  9 14  1  0
  9 15  1  0
 10 11  2  3
 10 16  1  0
 11 12  1  0
 11 17  1  0
M  RAD  1  12   2
M  END
>  <reaction>  (17) 
rmg_rxn_16639

>  <mol_properties>  (17) 
{"1": {"label": "*0", "atom_type": "Cd"}, "2": {"label": "*1", "atom_type": "N3d"}, "7": {"label": "*2", "atom_type": "H0"}, "9": {"label": "*3", "atom_type": "Cd"}, "10": {"label": "*4", "atom_type": "Cd"}}

>  <type>  (17) 
unop_13

>  <geom_source>  (17) 
Heuristics

$$$$

     RDKit          3D

 17 15  0  0  0  0  0  0  0  0999 V2000
   -0.4702   -0.4041   -3.4934 C   0  0  0  0  0  0  0  0  0  0  0  0
   -0.4702   -0.4041   -2.0011 C   0  0  0  0  0  0  0  0  0  0  0  0
   -0.4702    0.6686   -1.3334 N   0  0  0  0  0  0  0  0  0  0  0  0
    0.4080   -0.9341   -3.8708 H   0  0  0  0  0  0  0  0  0  0  0  0
   -1.3485   -0.9341   -3.8708 H   0  0  0  0  0  0  0  0  0  0  0  0
   -0.4702    0.6166   -3.8720 H   0  0  0  0  0  0  0  0  0  0  0  0
   -0.4702   -1.3938   -1.5264 H   0  0  0  0  0  0  0  0  0  0  0  0
   -0.4702    0.4384   -0.1338 H   0  0  0  0  0  0  0  0  0  0  0  0
   -0.4702   -1.2998    1.4448 C   0  0  0  0  0  0  0  0  0  0  0  0
   -0.4702    0.1905    1.1583 C   0  0  0  0  0  0  0  0  0  0  0  0
    0.6975    0.9357    1.7415 C   0  0  0  0  0  0  0  0  0  0  0  0
    1.5784    0.4374    2.3855 O   0  0  0  0  0  1  0  0  0  0  0  0
   -1.3408   -1.7773    0.9950 H   0  0  0  0  0  0  0  0  0  0  0  0
   -0.4884   -1.4893    2.5180 H   0  0  0  0  0  0  0  0  0  0  0  0
    0.4274   -1.7723    1.0461 H   0  0  0  0  0  0  0  0  0  0  0  0
   -1.3764    0.6771    1.5379 H   0  0  0  0  0  0  0  0  0  0  0  0
    0.7029    2.0272    1.5351 H   0  0  0  0  0  0  0  0  0  0  0  0
  1  2  1  0
  1  4  1  0
  1  5  1  0
  1  6  1  0
  2  3  2  3
  2  7  1  0
  3  8  1  0
  9 10  1  0
  9 13  1  0
  9 14  1  0
  9 15  1  0
 10 11  2  3
 10 16  1  0
 11 12  1  0
 11 17  1  0
M  RAD  1  12   2
M  END
>  <reaction>  (18) 
rmg_rxn_16639

>  <mol_properties>  (18) 
{"1": {"label": "*0", "atom_type": "Cd"}, "2": {"label": "*1", "atom_type": "N3d"}, "7": {"label": "*2", "atom_type": "H0"}, "9": {"label": "*3", "atom_type": "Cd"}, "10": {"label": "*4", "atom_type": "Cd"}}

>  <type>  (18) 
unop_14

>  <geom_source>  (18) 
Heuristics

$$$$

     RDKit          3D

 17 15  0  0  0  0  0  0  0  0999 V2000
   -0.5071   -0.6492   -3.3897 C   0  0  0  0  0  0  0  0  0  0  0  0
   -0.5071   -0.6492   -1.8973 C   0  0  0  0  0  0  0  0  0  0  0  0
   -0.5071    0.4234   -1.2296 N   0  0  0  0  0  0  0  0  0  0  0  0
    0.3712   -1.1792   -3.7670 H   0  0  0  0  0  0  0  0  0  0  0  0
   -1.3853   -1.1792   -3.7670 H   0  0  0  0  0  0  0  0  0  0  0  0
   -0.5071    0.3714   -3.7682 H   0  0  0  0  0  0  0  0  0  0  0  0
   -0.5071   -1.6389   -1.4227 H   0  0  0  0  0  0  0  0  0  0  0  0
   -0.5071    0.1932   -0.0300 H   0  0  0  0  0  0  0  0  0  0  0  0
    0.1977   -1.3595    1.5842 C   0  0  0  0  0  0  0  0  0  0  0  0
   -0.5071   -0.0547    1.2621 C   0  0  0  0  0  0  0  0  0  0  0  0
    0.2976    1.1779    1.5655 C   0  0  0  0  0  0  0  0  0  0  0  0
    1.4063    1.1793    2.0236 O   0  0  0  0  0  1  0  0  0  0  0  0
   -0.4392   -2.2101    1.3411 H   0  0  0  0  0  0  0  0  0  0  0  0
    0.4547   -1.4116    2.6421 H   0  0  0  0  0  0  0  0  0  0  0  0
    1.1254   -1.4500    1.0192 H   0  0  0  0  0  0  0  0  0  0  0  0
   -1.4518    0.0426    1.8098 H   0  0  0  0  0  0  0  0  0  0  0  0
   -0.2131    2.1363    1.3318 H   0  0  0  0  0  0  0  0  0  0  0  0
  1  2  1  0
  1  4  1  0
  1  5  1  0
  1  6  1  0
  2  3  2  3
  2  7  1  0
  3  8  1  0
  9 10  1  0
  9 13  1  0
  9 14  1  0
  9 15  1  0
 10 11  2  3
 10 16  1  0
 11 12  1  0
 11 17  1  0
M  RAD  1  12   2
M  END
>  <reaction>  (19) 
rmg_rxn_16639

>  <mol_properties>  (19) 
{"1": {"label": "*0", "atom_type": "Cd"}, "2": {"label": "*1", "atom_type": "N3d"}, "7": {"label": "*2", "atom_type": "H0"}, "9": {"label": "*3", "atom_type": "Cd"}, "10": {"label": "*4", "atom_type": "Cd"}}

>  <type>  (19) 
unop_15

>  <geom_source>  (19) 
gaussian_log

$$$$
