
     RDKit          3D

  9  8  0  0  0  0  0  0  0  0999 V2000
   -1.5470   -0.0755   -0.1976 C   0  0  0  0  0  0  0  0  0  0  0  0
   -0.2885    0.4507    0.1749 O   0  0  0  0  0  0  0  0  0  0  0  0
   -0.1502    1.7216   -0.3294 N   0  0  0  0  0  0  0  0  0  0  0  0
    0.9626    2.2353   -0.0219 C   0  0  0  0  0  0  0  0  0  0  0  0
   -1.6392   -0.1356   -1.2844 H   0  0  0  0  0  0  0  0  0  0  0  0
   -2.3597    0.5337    0.2044 H   0  0  0  0  0  0  0  0  0  0  0  0
   -1.5879   -1.0750    0.2318 H   0  0  0  0  0  0  0  0  0  0  0  0
    1.1497    3.2381   -0.3820 H   0  0  0  0  0  0  0  0  0  0  0  0
    1.7060    1.7101    0.5739 H   0  0  0  0  0  0  0  0  0  0  0  0
  1  2  1  0
  1  5  1  0
  1  6  1  0
  1  7  1  0
  2  3  1  0
  3  4  2  3
  4  8  1  0
  4  9  1  0
M  END
>  <reaction>  (1) 
rmg_rxn_15582

>  <mol_properties>  (1) 
{"0": {"label": "donator", "atom_type": "Cs"}, "4": {"label": "d_hydrogen", "atom_type": "H0"}}

>  <type>  (1) 
r1h

$$$$

     RDKit          3D

  7  6  0  0  0  0  0  0  0  0999 V2000
   -0.6201    0.0189   -0.0017 C   0  0  0  0  0  0  0  0  0  0  0  0
    0.8589   -0.0553    0.0500 C   0  0  0  0  0  3  0  0  0  0  0  0
   -1.0738   -0.9730   -0.0559 H   0  0  0  0  0  0  0  0  0  0  0  0
   -0.9680    0.5706   -0.8872 H   0  0  0  0  0  0  0  0  0  0  0  0
   -1.0303    0.5369    0.8678 H   0  0  0  0  0  0  0  0  0  0  0  0
    1.3939   -0.8386   -0.4695 H   0  0  0  0  0  0  0  0  0  0  0  0
    1.4394    0.7404    0.4965 H   0  0  0  0  0  0  0  0  0  0  0  0
  1  2  1  0
  1  3  1  0
  1  4  1  0
  1  5  1  0
  2  6  1  0
  2  7  1  0
M  RAD  1   2   2
M  END
>  <reaction>  (2) 
rmg_rxn_15582

>  <mol_properties>  (2) 
{"1": {"label": "acceptor", "atom_type": "Cs"}}

>  <type>  (2) 
r2

$$$$

     RDKit          3D

  8  7  0  0  0  0  0  0  0  0999 V2000
    0.7610    0.0250    0.0051 C   0  0  0  0  0  0  0  0  0  0  0  0
   -0.7610   -0.0250   -0.0051 C   0  0  0  0  0  0  0  0  0  0  0  0
    1.1904   -0.9237   -0.3217 H   0  0  0  0  0  0  0  0  0  0  0  0
    1.1359    0.8041   -0.6609 H   0  0  0  0  0  0  0  0  0  0  0  0
    1.1435    0.2336    1.0058 H   0  0  0  0  0  0  0  0  0  0  0  0
   -1.1359   -0.8041    0.6609 H   0  0  0  0  0  0  0  0  0  0  0  0
   -1.1435   -0.2336   -1.0058 H   0  0  0  0  0  0  0  0  0  0  0  0
   -1.1904    0.9237    0.3217 H   0  0  0  0  0  0  0  0  0  0  0  0
  1  2  1  0
  1  3  1  0
  1  4  1  0
  1  5  1  0
  2  6  1  0
  2  7  1  0
  2  8  1  0
M  END
>  <reaction>  (3) 
rmg_rxn_15582

>  <mol_properties>  (3) 
{"1": {"label": "acceptor", "atom_type": "Cs"}, "7": {"label": "a_hydrogen", "atom_type": "H0"}}

>  <type>  (3) 
r2h

$$$$

     RDKit          3D

 16 14  0  0  0  0  0  0  0  0999 V2000
    2.0465    1.1536    0.4521 C   0  0  0  0  0  0  0  0  0  0  0  0
    2.2396   -0.0495   -0.4305 C   0  0  0  0  0  3  0  0  0  0  0  0
    1.1100    1.6639    0.2204 H   0  0  0  0  0  0  0  0  0  0  0  0
    2.8569    1.8793    0.3278 H   0  0  0  0  0  0  0  0  0  0  0  0
    2.0202    0.8722    1.5070 H   0  0  0  0  0  0  0  0  0  0  0  0
    3.1124   -0.6584   -0.1994 H   0  0  0  0  0  0  0  0  0  0  0  0
    2.1494    0.1418   -1.4979 H   0  0  0  0  0  0  0  0  0  0  0  0
    0.0680   -1.5341    0.1327 C   0  0  0  0  0  0  0  0  0  0  0  0
   -0.8931   -0.5919    0.4859 O   0  0  0  0  0  0  0  0  0  0  0  0
   -1.3142    0.1080   -0.6226 N   0  0  0  0  0  0  0  0  0  0  0  0
   -2.1321    1.0220   -0.3167 C   0  0  0  0  0  0  0  0  0  0  0  0
    1.1897   -0.8827   -0.1740 H   0  0  0  0  0  0  0  0  0  0  0  0
   -0.2022   -2.1064   -0.7546 H   0  0  0  0  0  0  0  0  0  0  0  0
    0.2753   -2.1425    1.0091 H   0  0  0  0  0  0  0  0  0  0  0  0
   -2.5208    1.6154   -1.1333 H   0  0  0  0  0  0  0  0  0  0  0  0
   -2.4412    1.2138    0.7083 H   0  0  0  0  0  0  0  0  0  0  0  0
  1  2  1  0
  1  3  1  0
  1  4  1  0
  1  5  1  0
  2  6  1  0
  2  7  1  0
  8  9  1  0
  8 12  1  0
  8 13  1  0
  8 14  1  0
  9 10  1  0
 10 11  2  3
 11 15  1  0
 11 16  1  0
M  RAD  1   2   2
M  END
>  <reaction>  (4) 
rmg_rxn_15582

>  <mol_properties>  (4) 
{"0": {"label": "*4", "atom_type": "Cs"}, "1": {"label": "*3", "atom_type": "Cs"}, "7": {"label": "*1", "atom_type": "Cs"}, "8": {"label": "*0", "atom_type": "O2s"}, "11": {"label": "*2", "atom_type": "H0"}}

>  <type>  (4) 
ts

$$$$

     RDKit          3D

 16 14  0  0  0  0  0  0  0  0999 V2000
    2.1865    0.7553   -0.5786 C   0  0  0  0  0  0  0  0  0  0  0  0
    2.0731   -0.2479    0.5382 C   0  0  0  0  0  0  0  0  0  0  0  0
    3.1695    1.2308   -0.5747 H   0  0  0  0  0  0  0  0  0  0  0  0
    1.4359    1.5374   -0.4778 H   0  0  0  0  0  0  0  0  0  0  0  0
    2.0510    0.2722   -1.5440 H   0  0  0  0  0  0  0  0  0  0  0  0
    2.1218    0.2011    1.5252 H   0  0  0  0  0  0  0  0  0  0  0  0
    2.7773   -1.0680    0.4492 H   0  0  0  0  0  0  0  0  0  0  0  0
   -0.3189   -1.3672    0.3408 C   0  0  0  0  0  3  0  0  0  0  0  0
   -1.0570   -0.7003   -0.6210 O   0  0  0  0  0  0  0  0  0  0  0  0
   -1.6059    0.5081   -0.3831 N   0  0  0  0  0  0  0  0  0  0  0  0
   -1.4050    1.1506    0.6862 C   0  0  0  0  0  0  0  0  0  0  0  0
    0.9030   -0.8050    0.4608 H   0  0  0  0  0  0  0  0  0  0  0  0
   -0.1450   -2.3698   -0.0325 H   0  0  0  0  0  0  0  0  0  0  0  0
   -0.7543   -1.3518    1.3396 H   0  0  0  0  0  0  0  0  0  0  0  0
   -1.9081    2.0985    0.7607 H   0  0  0  0  0  0  0  0  0  0  0  0
   -0.7740    0.8475    1.5177 H   0  0  0  0  0  0  0  0  0  0  0  0
  1  2  1  0
  1  3  1  0
  1  4  1  0
  1  5  1  0
  2  6  1  0
  2  7  1  0
  2 12  1  0
  8  9  1  0
  8 13  1  0
  8 14  1  0
  9 10  1  0
 10 11  2  3
 11 15  1  0
 11 16  1  0
M  RAD  1   8   2
M  END
>  <reaction>  (5) 
rmg_rxn_15582

>  <mol_properties>  (5) 
{"0": {"label": "*4", "atom_type": "Cs"}, "1": {"label": "*3", "atom_type": "Cs"}, "7": {"label": "*1", "atom_type": "Cs"}, "8": {"label": "*0", "atom_type": "O2s"}, "11": {"label": "*2", "atom_type": "H0"}}

>  <type>  (5) 
unop_1

>  <geom_source>  (5) 
crest_best.xyz

$$$$

     RDKit          3D

 16 14  0  0  0  0  0  0  0  0999 V2000
    2.1123    0.3201    2.4006 C   0  0  0  0  0  0  0  0  0  0  0  0
    1.2873   -0.5918    1.5024 C   0  0  0  0  0  0  0  0  0  0  0  0
    2.5126   -0.2249    3.2574 H   0  0  0  0  0  0  0  0  0  0  0  0
    1.5112    1.1456    2.7858 H   0  0  0  0  0  0  0  0  0  0  0  0
    2.9565    0.7506    1.8593 H   0  0  0  0  0  0  0  0  0  0  0  0
    0.4431   -1.0223    2.0438 H   0  0  0  0  0  0  0  0  0  0  0  0
    1.8884   -1.4173    1.1172 H   0  0  0  0  0  0  0  0  0  0  0  0
   -0.8530    0.6321    0.6145 C   0  0  0  0  0  3  0  0  0  0  0  0
   -0.8530    0.6900   -0.7984 O   0  0  0  0  0  0  0  0  0  0  0  0
   -0.8530   -0.5839   -1.3141 N   0  0  0  0  0  0  0  0  0  0  0  0
   -0.8530   -0.5839   -2.5777 C   0  0  0  0  0  0  0  0  0  0  0  0
    0.2176    0.0199    1.0586 H   0  0  0  0  0  0  0  0  0  0  0  0
   -1.7451    0.1219    0.9846 H   0  0  0  0  0  0  0  0  0  0  0  0
   -0.8530    1.6670    0.9523 H   0  0  0  0  0  0  0  0  0  0  0  0
   -0.8530   -1.5509   -3.0626 H   0  0  0  0  0  0  0  0  0  0  0  0
   -0.8530    0.3326   -3.1639 H   0  0  0  0  0  0  0  0  0  0  0  0
  1  2  1  0
  1  3  1  0
  1  4  1  0
  1  5  1  0
  2  6  1  0
  2  7  1  0
  2 12  1  0
  8  9  1  0
  8 13  1  0
  8 14  1  0
  9 10  1  0
 10 11  2  3
 11 15  1  0
 11 16  1  0
M  RAD  1   8   2
M  END
>  <reaction>  (6) 
rmg_rxn_15582

>  <mol_properties>  (6) 
{"0": {"label": "*4", "atom_type": "Cs"}, "1": {"label": "*3", "atom_type": "Cs"}, "7": {"label": "*1", "atom_type": "Cs"}, "8": {"label": "*0", "atom_type": "O2s"}, "11": {"label": "*2", "atom_type": "H0"}}

>  <type>  (6) 
unop_2

>  <geom_source>  (6) 
Heuristics

$$$$

     RDKit          3D

 16 14  0  0  0  0  0  0  0  0999 V2000
    2.0277    1.2441    0.1518 C   0  0  0  0  0  0  0  0  0  0  0  0
    2.3621   -0.1880   -0.1717 C   0  0  0  0  0  0  0  0  0  0  0  0
    1.3404    1.6545   -0.5855 H   0  0  0  0  0  0  0  0  0  0  0  0
    2.9267    1.8643    0.1581 H   0  0  0  0  0  0  0  0  0  0  0  0
    1.5640    1.3175    1.1339 H   0  0  0  0  0  0  0  0  0  0  0  0
    3.0118   -0.6511    0.5632 H   0  0  0  0  0  0  0  0  0  0  0  0
    2.7497   -0.3203   -1.1758 H   0  0  0  0  0  0  0  0  0  0  0  0
    0.0732   -1.5142   -0.0903 C   0  0  0  0  0  3  0  0  0  0  0  0
   -0.8656   -0.6727    0.4748 O   0  0  0  0  0  0  0  0  0  0  0  0
   -1.4512    0.1691   -0.4477 N   0  0  0  0  0  0  0  0  0  0  0  0
   -2.2621    1.0188    0.0183 C   0  0  0  0  0  0  0  0  0  0  0  0
    1.2594   -0.8692   -0.1360 H   0  0  0  0  0  0  0  0  0  0  0  0
   -0.1432   -1.7741   -1.1230 H   0  0  0  0  0  0  0  0  0  0  0  0
    0.2109   -2.3654    0.5669 H   0  0  0  0  0  0  0  0  0  0  0  0
   -2.7299    1.6743   -0.6939 H   0  0  0  0  0  0  0  0  0  0  0  0
   -2.5095    1.1170    1.0710 H   0  0  0  0  0  0  0  0  0  0  0  0
  1  2  1  0
  1  3  1  0
  1  4  1  0
  1  5  1  0
  2  6  1  0
  2  7  1  0
  2 12  1  0
  8  9  1  0
  8 13  1  0
  8 14  1  0
  9 10  1  0
 10 11  2  3
 11 15  1  0
 11 16  1  0
M  RAD  1   8   2
M  END
>  <reaction>  (7) 
rmg_rxn_15582

>  <mol_properties>  (7) 
{"0": {"label": "*4", "atom_type": "Cs"}, "1": {"label": "*3", "atom_type": "Cs"}, "7": {"label": "*1", "atom_type": "Cs"}, "8": {"label": "*0", "atom_type": "O2s"}, "11": {"label": "*2", "atom_type": "H0"}}

>  <type>  (7) 
unop_3

>  <geom_source>  (7) 
Heuristics

$$$$

     RDKit          3D

 16 14  0  0  0  0  0  0  0  0999 V2000
    2.3163   -0.6547   -0.5738 C   0  0  0  0  0  0  0  0  0  0  0  0
    2.3644    0.1801    0.6883 C   0  0  0  0  0  0  0  0  0  0  0  0
    2.8446   -1.5944   -0.4266 H   0  0  0  0  0  0  0  0  0  0  0  0
    2.7872   -0.1243   -1.3989 H   0  0  0  0  0  0  0  0  0  0  0  0
    1.2870   -0.8772   -0.8458 H   0  0  0  0  0  0  0  0  0  0  0  0
    3.3734    0.4213    0.9989 H   0  0  0  0  0  0  0  0  0  0  0  0
    1.8022   -0.2330    1.4983 H   0  0  0  0  0  0  0  0  0  0  0  0
   -0.6575    1.7140   -0.3375 C   0  0  0  0  0  3  0  0  0  0  0  0
   -1.2822    0.7027    0.2735 O   0  0  0  0  0  0  0  0  0  0  0  0
   -1.1519   -0.5179   -0.3447 N   0  0  0  0  0  0  0  0  0  0  0  0
   -1.7261   -1.4915    0.2395 C   0  0  0  0  0  0  0  0  0  0  0  0
    1.7533    1.0845    0.6322 H   0  0  0  0  0  0  0  0  0  0  0  0
   -0.1458    1.5569   -1.2661 H   0  0  0  0  0  0  0  0  0  0  0  0
   -0.7940    2.6663    0.1295 H   0  0  0  0  0  0  0  0  0  0  0  0
   -1.6310   -2.4523   -0.2314 H   0  0  0  0  0  0  0  0  0  0  0  0
   -2.2901   -1.4021    1.1618 H   0  0  0  0  0  0  0  0  0  0  0  0
  1  2  1  0
  1  3  1  0
  1  4  1  0
  1  5  1  0
  2  6  1  0
  2  7  1  0
  2 12  1  0
  8  9  1  0
  8 13  1  0
  8 14  1  0
  9 10  1  0
 10 11  2  3
 11 15  1  0
 11 16  1  0
M  RAD  1   8   2
M  END
>  <reaction>  (8) 
rmg_rxn_15582

>  <mol_properties>  (8) 
{"0": {"label": "*4", "atom_type": "Cs"}, "1": {"label": "*3", "atom_type": "Cs"}, "7": {"label": "*1", "atom_type": "Cs"}, "8": {"label": "*0", "atom_type": "O2s"}, "11": {"label": "*2", "atom_type": "H0"}}

>  <type>  (8) 
unop_4

>  <geom_source>  (8) 
Heuristics

$$$$

     RDKit          3D

 16 14  0  0  0  0  0  0  0  0999 V2000
    2.4001   -0.2772    0.8777 C   0  0  0  0  0  0  0  0  0  0  0  0
    1.2206   -0.4734    1.8205 C   0  0  0  0  0  0  0  0  0  0  0  0
    3.3458   -0.4996    1.3751 H   0  0  0  0  0  0  0  0  0  0  0  0
    2.4510    0.7513    0.5160 H   0  0  0  0  0  0  0  0  0  0  0  0
    2.3235   -0.9303    0.0066 H   0  0  0  0  0  0  0  0  0  0  0  0
    1.2973    0.1797    2.6916 H   0  0  0  0  0  0  0  0  0  0  0  0
    1.1697   -1.5019    2.1822 H   0  0  0  0  0  0  0  0  0  0  0  0
   -0.9197    0.7505    0.9327 C   0  0  0  0  0  3  0  0  0  0  0  0
   -0.9197    0.8084   -0.4802 O   0  0  0  0  0  0  0  0  0  0  0  0
   -0.9197   -0.4655   -0.9959 N   0  0  0  0  0  0  0  0  0  0  0  0
   -0.9197   -0.4655   -2.2596 C   0  0  0  0  0  0  0  0  0  0  0  0
    0.1509    0.1383    1.3768 H   0  0  0  0  0  0  0  0  0  0  0  0
   -1.8118    0.2403    1.3028 H   0  0  0  0  0  0  0  0  0  0  0  0
   -0.9197    1.7854    1.2705 H   0  0  0  0  0  0  0  0  0  0  0  0
   -0.9197   -1.4326   -2.7444 H   0  0  0  0  0  0  0  0  0  0  0  0
   -0.9197    0.4510   -2.8457 H   0  0  0  0  0  0  0  0  0  0  0  0
  1  2  1  0
  1  3  1  0
  1  4  1  0
  1  5  1  0
  2  6  1  0
  2  7  1  0
  2 12  1  0
  8  9  1  0
  8 13  1  0
  8 14  1  0
  9 10  1  0
 10 11  2  3
 11 15  1  0
 11 16  1  0
M  RAD  1   8   2
M  END
>  <reaction>  (9) 
rmg_rxn_15582

>  <mol_properties>  (9) 
{"0": {"label": "*4", "atom_type": "Cs"}, "1": {"label": "*3", "atom_type": "Cs"}, "7": {"label": "*1", "atom_type": "Cs"}, "8": {"label": "*0", "atom_type": "O2s"}, "11": {"label": "*2", "atom_type": "H0"}}

>  <type>  (9) 
unop_5

>  <geom_source>  (9) 
Heuristics

$$$$

     RDKit          3D

 16 14  0  0  0  0  0  0  0  0999 V2000
    2.0268   -1.2445   -0.1510 C   0  0  0  0  0  0  0  0  0  0  0  0
    2.3620    0.1880    0.1700 C   0  0  0  0  0  0  0  0  0  0  0  0
    2.9257   -1.8649   -0.1574 H   0  0  0  0  0  0  0  0  0  0  0  0
    1.5619   -1.3191   -1.1325 H   0  0  0  0  0  0  0  0  0  0  0  0
    1.3402   -1.6536    0.5876 H   0  0  0  0  0  0  0  0  0  0  0  0
    3.0105    0.6501   -0.5666 H   0  0  0  0  0  0  0  0  0  0  0  0
    2.7515    0.3215    1.1733 H   0  0  0  0  0  0  0  0  0  0  0  0
    0.0732    1.5145    0.0912 C   0  0  0  0  0  3  0  0  0  0  0  0
   -0.8660    0.6737   -0.4741 O   0  0  0  0  0  0  0  0  0  0  0  0
   -1.4500   -0.1701    0.4475 N   0  0  0  0  0  0  0  0  0  0  0  0
   -2.2617   -1.0188   -0.0189 C   0  0  0  0  0  0  0  0  0  0  0  0
    1.2594    0.8693    0.1355 H   0  0  0  0  0  0  0  0  0  0  0  0
   -0.1425    1.7734    1.1242 H   0  0  0  0  0  0  0  0  0  0  0  0
    0.2106    2.3662   -0.5653 H   0  0  0  0  0  0  0  0  0  0  0  0
   -2.7282   -1.6760    0.6926 H   0  0  0  0  0  0  0  0  0  0  0  0
   -2.5109   -1.1147   -1.0714 H   0  0  0  0  0  0  0  0  0  0  0  0
  1  2  1  0
  1  3  1  0
  1  4  1  0
  1  5  1  0
  2  6  1  0
  2  7  1  0
  2 12  1  0
  8  9  1  0
  8 13  1  0
  8 14  1  0
  9 10  1  0
 10 11  2  3
 11 15  1  0
 11 16  1  0
M  RAD  1   8   2
M  END
>  <reaction>  (10) 
rmg_rxn_15582

>  <mol_properties>  (10) 
{"0": {"label": "*4", "atom_type": "Cs"}, "1": {"label": "*3", "atom_type": "Cs"}, "7": {"label": "*1", "atom_type": "Cs"}, "8": {"label": "*0", "atom_type": "O2s"}, "11": {"label": "*2", "atom_type": "H0"}}

>  <type>  (10) 
unop_6

>  <geom_source>  (10) 
Heuristics

$$$$

     RDKit          3D

 16 14  0  0  0  0  0  0  0  0999 V2000
    1.7674    0.0043    2.7934 C   0  0  0  0  0  0  0  0  0  0  0  0
    1.3567   -0.5237    1.4254 C   0  0  0  0  0  0  0  0  0  0  0  0
    2.2781   -0.7636    3.3771 H   0  0  0  0  0  0  0  0  0  0  0  0
    0.8995    0.3331    3.3676 H   0  0  0  0  0  0  0  0  0  0  0  0
    2.4449    0.8551    2.7022 H   0  0  0  0  0  0  0  0  0  0  0  0
    0.6792   -1.3746    1.5165 H   0  0  0  0  0  0  0  0  0  0  0  0
    2.2246   -0.8526    0.8511 H   0  0  0  0  0  0  0  0  0  0  0  0
   -0.7836    0.7001    0.5375 C   0  0  0  0  0  3  0  0  0  0  0  0
   -0.7836    0.7580   -0.8754 O   0  0  0  0  0  0  0  0  0  0  0  0
   -0.7836   -0.5159   -1.3911 N   0  0  0  0  0  0  0  0  0  0  0  0
   -0.7836   -0.5159   -2.6547 C   0  0  0  0  0  0  0  0  0  0  0  0
    0.2870    0.0879    0.9816 H   0  0  0  0  0  0  0  0  0  0  0  0
   -1.6757    0.1899    0.9076 H   0  0  0  0  0  0  0  0  0  0  0  0
   -0.7836    1.7350    0.8753 H   0  0  0  0  0  0  0  0  0  0  0  0
   -0.7836   -1.4829   -3.1396 H   0  0  0  0  0  0  0  0  0  0  0  0
   -0.7836    0.4006   -3.2409 H   0  0  0  0  0  0  0  0  0  0  0  0
  1  2  1  0
  1  3  1  0
  1  4  1  0
  1  5  1  0
  2  6  1  0
  2  7  1  0
  2 12  1  0
  8  9  1  0
  8 13  1  0
  8 14  1  0
  9 10  1  0
 10 11  2  3
 11 15  1  0
 11 16  1  0
M  RAD  1   8   2
M  END
>  <reaction>  (11) 
rmg_rxn_15582

>  <mol_properties>  (11) 
{"0": {"label": "*4", "atom_type": "Cs"}, "1": {"label": "*3", "atom_type": "Cs"}, "7": {"label": "*1", "atom_type": "Cs"}, "8": {"label": "*0", "atom_type": "O2s"}, "11": {"label": "*2", "atom_type": "H0"}}

>  <type>  (11) 
unop_7

>  <geom_source>  (11) 
Heuristics

$$$$

     RDKit          3D

 16 14  0  0  0  0  0  0  0  0999 V2000
    1.4911   -1.6191    1.2226 C   0  0  0  0  0  0  0  0  0  0  0  0
    1.4139   -0.1914    1.7465 C   0  0  0  0  0  0  0  0  0  0  0  0
    1.9780   -2.2792    1.9425 H   0  0  0  0  0  0  0  0  0  0  0  0
    2.0589   -1.6690    0.2919 H   0  0  0  0  0  0  0  0  0  0  0  0
    0.4964   -2.0225    1.0247 H   0  0  0  0  0  0  0  0  0  0  0  0
    2.4085    0.2120    1.9444 H   0  0  0  0  0  0  0  0  0  0  0  0
    0.8460   -0.1414    2.6773 H   0  0  0  0  0  0  0  0  0  0  0  0
   -0.7264    1.0325    0.8587 C   0  0  0  0  0  3  0  0  0  0  0  0
   -0.7265    1.0904   -0.5542 O   0  0  0  0  0  0  0  0  0  0  0  0
   -0.7265   -0.1835   -1.0700 N   0  0  0  0  0  0  0  0  0  0  0  0
   -0.7265   -0.1835   -2.3336 C   0  0  0  0  0  0  0  0  0  0  0  0
    0.3441    0.4203    1.3028 H   0  0  0  0  0  0  0  0  0  0  0  0
   -1.6186    0.5223    1.2288 H   0  0  0  0  0  0  0  0  0  0  0  0
   -0.7265    2.0674    1.1965 H   0  0  0  0  0  0  0  0  0  0  0  0
   -0.7265   -1.1506   -2.8184 H   0  0  0  0  0  0  0  0  0  0  0  0
   -0.7265    0.7330   -2.9197 H   0  0  0  0  0  0  0  0  0  0  0  0
  1  2  1  0
  1  3  1  0
  1  4  1  0
  1  5  1  0
  2  6  1  0
  2  7  1  0
  2 12  1  0
  8  9  1  0
  8 13  1  0
  8 14  1  0
  9 10  1  0
 10 11  2  3
 11 15  1  0
 11 16  1  0
M  RAD  1   8   2
M  END
>  <reaction>  (12) 
rmg_rxn_15582

>  <mol_properties>  (12) 
{"0": {"label": "*4", "atom_type": "Cs"}, "1": {"label": "*3", "atom_type": "Cs"}, "7": {"label": "*1", "atom_type": "Cs"}, "8": {"label": "*0", "atom_type": "O2s"}, "11": {"label": "*2", "atom_type": "H0"}}

>  <type>  (12) 
unop_8

>  <geom_source>  (12) 
Heuristics

$$$$

     RDKit          3D

 16 14  0  0  0  0  0  0  0  0999 V2000
    2.3135    0.6623   -0.5704 C   0  0  0  0  0  0  0  0  0  0  0  0
    2.3654   -0.1835    0.6841 C   0  0  0  0  0  0  0  0  0  0  0  0
    2.8331    1.6052   -0.4133 H   0  0  0  0  0  0  0  0  0  0  0  0
    1.2832    0.8783   -0.8435 H   0  0  0  0  0  0  0  0  0  0  0  0
    2.7913    0.1435   -1.3989 H   0  0  0  0  0  0  0  0  0  0  0  0
    1.7984    0.2179    1.4967 H   0  0  0  0  0  0  0  0  0  0  0  0
    3.3756   -0.4196    0.9947 H   0  0  0  0  0  0  0  0  0  0  0  0
   -0.6555   -1.7140   -0.3396 C   0  0  0  0  0  3  0  0  0  0  0  0
   -1.2765   -0.7032    0.2758 O   0  0  0  0  0  0  0  0  0  0  0  0
   -1.1568    0.5163   -0.3465 N   0  0  0  0  0  0  0  0  0  0  0  0
   -1.7278    1.4894    0.2418 C   0  0  0  0  0  0  0  0  0  0  0  0
    1.7615   -1.0920    0.6185 H   0  0  0  0  0  0  0  0  0  0  0  0
   -0.1543   -1.5575   -1.2741 H   0  0  0  0  0  0  0  0  0  0  0  0
   -0.7840   -2.6657    0.1310 H   0  0  0  0  0  0  0  0  0  0  0  0
   -1.6411    2.4495   -0.2322 H   0  0  0  0  0  0  0  0  0  0  0  0
   -2.2814    1.4001    1.1704 H   0  0  0  0  0  0  0  0  0  0  0  0
  1  2  1  0
  1  3  1  0
  1  4  1  0
  1  5  1  0
  2  6  1  0
  2  7  1  0
  2 12  1  0
  8  9  1  0
  8 13  1  0
  8 14  1  0
  9 10  1  0
 10 11  2  3
 11 15  1  0
 11 16  1  0
M  RAD  1   8   2
M  END
>  <reaction>  (13) 
rmg_rxn_15582

>  <mol_properties>  (13) 
{"0": {"label": "*4", "atom_type": "Cs"}, "1": {"label": "*3", "atom_type": "Cs"}, "7": {"label": "*1", "atom_type": "Cs"}, "8": {"label": "*0", "atom_type": "O2s"}, "11": {"label": "*2", "atom_type": "H0"}}

>  <type>  (13) 
unop_9

>  <geom_source>  (13) 
Heuristics

$$$$

     RDKit          3D

 16 14  0  0  0  0  0  0  0  0999 V2000
    1.4284   -0.4917    2.9230 C   0  0  0  0  0  0  0  0  0  0  0  0
    1.4212   -0.4253    1.4017 C   0  0  0  0  0  0  0  0  0  0  0  0
    2.3198   -1.0014    3.2928 H   0  0  0  0  0  0  0  0  0  0  0  0
    0.5584   -1.0324    3.2998 H   0  0  0  0  0  0  0  0  0  0  0  0
    1.4125    0.5071    3.3629 H   0  0  0  0  0  0  0  0  0  0  0  0
    1.4370   -1.4241    0.9618 H   0  0  0  0  0  0  0  0  0  0  0  0
    2.2912    0.1154    1.0249 H   0  0  0  0  0  0  0  0  0  0  0  0
   -0.7191    0.7985    0.5138 C   0  0  0  0  0  3  0  0  0  0  0  0
   -0.7191    0.8565   -0.8991 O   0  0  0  0  0  0  0  0  0  0  0  0
   -0.7191   -0.4174   -1.4148 N   0  0  0  0  0  0  0  0  0  0  0  0
   -0.7191   -0.4174   -2.6784 C   0  0  0  0  0  0  0  0  0  0  0  0
    0.3515    0.1864    0.9579 H   0  0  0  0  0  0  0  0  0  0  0  0
   -1.6113    0.2883    0.8839 H   0  0  0  0  0  0  0  0  0  0  0  0
   -0.7191    1.8334    0.8516 H   0  0  0  0  0  0  0  0  0  0  0  0
   -0.7191   -1.3845   -3.1633 H   0  0  0  0  0  0  0  0  0  0  0  0
   -0.7191    0.4991   -3.2646 H   0  0  0  0  0  0  0  0  0  0  0  0
  1  2  1  0
  1  3  1  0
  1  4  1  0
  1  5  1  0
  2  6  1  0
  2  7  1  0
  2 12  1  0
  8  9  1  0
  8 13  1  0
  8 14  1  0
  9 10  1  0
 10 11  2  3
 11 15  1  0
 11 16  1  0
M  RAD  1   8   2
M  END
>  <reaction>  (14) 
rmg_rxn_15582

>  <mol_properties>  (14) 
{"0": {"label": "*4", "atom_type": "Cs"}, "1": {"label": "*3", "atom_type": "Cs"}, "7": {"label": "*1", "atom_type": "Cs"}, "8": {"label": "*0", "atom_type": "O2s"}, "11": {"label": "*2", "atom_type": "H0"}}

>  <type>  (14) 
unop_10

>  <geom_source>  (14) 
Heuristics

$$$$

     RDKit          3D

 16 14  0  0  0  0  0  0  0  0999 V2000
    2.1872    0.7526   -0.5810 C   0  0  0  0  0  0  0  0  0  0  0  0
    2.0721   -0.2434    0.5421 C   0  0  0  0  0  0  0  0  0  0  0  0
    1.4358    1.5348   -0.4869 H   0  0  0  0  0  0  0  0  0  0  0  0
    2.0540    0.2630   -1.5435 H   0  0  0  0  0  0  0  0  0  0  0  0
    3.1699    1.2289   -0.5782 H   0  0  0  0  0  0  0  0  0  0  0  0
    2.1166    0.2123    1.5262 H   0  0  0  0  0  0  0  0  0  0  0  0
    2.7779   -1.0628    0.4608 H   0  0  0  0  0  0  0  0  0  0  0  0
   -0.3176   -1.3668    0.3413 C   0  0  0  0  0  3  0  0  0  0  0  0
   -1.0547   -0.7004   -0.6216 O   0  0  0  0  0  0  0  0  0  0  0  0
   -1.6058    0.5072   -0.3841 N   0  0  0  0  0  0  0  0  0  0  0  0
   -1.4083    1.1493    0.6860 C   0  0  0  0  0  0  0  0  0  0  0  0
    0.9031   -0.8027    0.4640 H   0  0  0  0  0  0  0  0  0  0  0  0
   -0.1414   -2.3688   -0.0324 H   0  0  0  0  0  0  0  0  0  0  0  0
   -0.7551   -1.3527    1.3392 H   0  0  0  0  0  0  0  0  0  0  0  0
   -1.9133    2.0962    0.7601 H   0  0  0  0  0  0  0  0  0  0  0  0
   -0.7791    0.8463    1.5190 H   0  0  0  0  0  0  0  0  0  0  0  0
  1  2  1  0
  1  3  1  0
  1  4  1  0
  1  5  1  0
  2  6  1  0
  2  7  1  0
  2 12  1  0
  8  9  1  0
  8 13  1  0
  8 14  1  0
  9 10  1  0
 10 11  2  3
 11 15  1  0
 11 16  1  0
M  RAD  1   8   2
M  END
>  <reaction>  (15) 
rmg_rxn_15582

>  <mol_properties>  (15) 
{"0": {"label": "*4", "atom_type": "Cs"}, "1": {"label": "*3", "atom_type": "Cs"}, "7": {"label": "*1", "atom_type": "Cs"}, "8": {"label": "*0", "atom_type": "O2s"}, "11": {"label": "*2", "atom_type": "H0"}}

>  <type>  (15) 
unop_11

>  <geom_source>  (15) 
Heuristics

$$$$

     RDKit          3D

 16 14  0  0  0  0  0  0  0  0999 V2000
    1.2307   -1.6805    1.7682 C   0  0  0  0  0  0  0  0  0  0  0  0
    1.4676   -0.1824    1.6319 C   0  0  0  0  0  0  0  0  0  0  0  0
    1.7046   -2.0759    2.6683 H   0  0  0  0  0  0  0  0  0  0  0  0
    1.6375   -2.2249    0.9142 H   0  0  0  0  0  0  0  0  0  0  0  0
    0.1651   -1.9088    1.8283 H   0  0  0  0  0  0  0  0  0  0  0  0
    2.5332    0.0460    1.5717 H   0  0  0  0  0  0  0  0  0  0  0  0
    1.0608    0.3620    2.4858 H   0  0  0  0  0  0  0  0  0  0  0  0
   -0.6727    1.0415    0.7440 C   0  0  0  0  0  3  0  0  0  0  0  0
   -0.6727    1.0994   -0.6689 O   0  0  0  0  0  0  0  0  0  0  0  0
   -0.6727   -0.1745   -1.1846 N   0  0  0  0  0  0  0  0  0  0  0  0
   -0.6727   -0.1745   -2.4483 C   0  0  0  0  0  0  0  0  0  0  0  0
    0.3979    0.4293    1.1881 H   0  0  0  0  0  0  0  0  0  0  0  0
   -1.5648    0.5313    1.1141 H   0  0  0  0  0  0  0  0  0  0  0  0
   -0.6727    2.0763    1.0818 H   0  0  0  0  0  0  0  0  0  0  0  0
   -0.6727   -1.1416   -2.9331 H   0  0  0  0  0  0  0  0  0  0  0  0
   -0.6727    0.7420   -3.0344 H   0  0  0  0  0  0  0  0  0  0  0  0
  1  2  1  0
  1  3  1  0
  1  4  1  0
  1  5  1  0
  2  6  1  0
  2  7  1  0
  2 12  1  0
  8  9  1  0
  8 13  1  0
  8 14  1  0
  9 10  1  0
 10 11  2  3
 11 15  1  0
 11 16  1  0
M  RAD  1   8   2
M  END
>  <reaction>  (16) 
rmg_rxn_15582

>  <mol_properties>  (16) 
{"0": {"label": "*4", "atom_type": "Cs"}, "1": {"label": "*3", "atom_type": "Cs"}, "7": {"label": "*1", "atom_type": "Cs"}, "8": {"label": "*0", "atom_type": "O2s"}, "11": {"label": "*2", "atom_type": "H0"}}

>  <type>  (16) 
unop_12

>  <geom_source>  (16) 
Heuristics

$$$$

     RDKit          3D

 16 14  0  0  0  0  0  0  0  0999 V2000
    2.1873   -0.7546   -0.5791 C   0  0  0  0  0  0  0  0  0  0  0  0
    2.0730    0.2472    0.5389 C   0  0  0  0  0  0  0  0  0  0  0  0
    1.4379   -1.5378   -0.4788 H   0  0  0  0  0  0  0  0  0  0  0  0
    3.1710   -1.2287   -0.5763 H   0  0  0  0  0  0  0  0  0  0  0  0
    2.0505   -0.2706   -1.5440 H   0  0  0  0  0  0  0  0  0  0  0  0
    2.7770    1.0675    0.4515 H   0  0  0  0  0  0  0  0  0  0  0  0
    2.1209   -0.2030    1.5253 H   0  0  0  0  0  0  0  0  0  0  0  0
   -0.3186    1.3671    0.3409 C   0  0  0  0  0  3  0  0  0  0  0  0
   -1.0571    0.7005   -0.6209 O   0  0  0  0  0  0  0  0  0  0  0  0
   -1.6062   -0.5079   -0.3832 N   0  0  0  0  0  0  0  0  0  0  0  0
   -1.4055   -1.1507    0.6859 C   0  0  0  0  0  0  0  0  0  0  0  0
    0.9028    0.8042    0.4612 H   0  0  0  0  0  0  0  0  0  0  0  0
   -0.7541    1.3521    1.3397 H   0  0  0  0  0  0  0  0  0  0  0  0
   -0.1442    2.3696   -0.0325 H   0  0  0  0  0  0  0  0  0  0  0  0
   -1.9088   -2.0985    0.7602 H   0  0  0  0  0  0  0  0  0  0  0  0
   -0.7743   -0.8480    1.5176 H   0  0  0  0  0  0  0  0  0  0  0  0
  1  2  1  0
  1  3  1  0
  1  4  1  0
  1  5  1  0
  2  6  1  0
  2  7  1  0
  2 12  1  0
  8  9  1  0
  8 13  1  0
  8 14  1  0
  9 10  1  0
 10 11  2  3
 11 15  1  0
 11 16  1  0
M  RAD  1   8   2
M  END
>  <reaction>  (17) 
rmg_rxn_15582

>  <mol_properties>  (17) 
{"0": {"label": "*4", "atom_type": "Cs"}, "1": {"label": "*3", "atom_type": "Cs"}, "7": {"label": "*1", "atom_type": "Cs"}, "8": {"label": "*0", "atom_type": "O2s"}, "11": {"label": "*2", "atom_type": "H0"}}

>  <type>  (17) 
unop_13

>  <geom_source>  (17) 
Heuristics

$$$$

     RDKit          3D

 16 14  0  0  0  0  0  0  0  0999 V2000
    1.1211   -1.4665    2.3274 C   0  0  0  0  0  0  0  0  0  0  0  0
    1.4878   -0.2304    1.5172 C   0  0  0  0  0  0  0  0  0  0  0  0
    1.7652   -1.5719    3.2022 H   0  0  0  0  0  0  0  0  0  0  0  0
    1.2224   -2.3751    1.7312 H   0  0  0  0  0  0  0  0  0  0  0  0
    0.0896   -1.4166    2.6808 H   0  0  0  0  0  0  0  0  0  0  0  0
    2.5192   -0.2804    1.1638 H   0  0  0  0  0  0  0  0  0  0  0  0
    1.3865    0.6781    2.1135 H   0  0  0  0  0  0  0  0  0  0  0  0
   -0.6525    0.9935    0.6293 C   0  0  0  0  0  3  0  0  0  0  0  0
   -0.6525    1.0514   -0.7836 O   0  0  0  0  0  0  0  0  0  0  0  0
   -0.6525   -0.2225   -1.2993 N   0  0  0  0  0  0  0  0  0  0  0  0
   -0.6525   -0.2225   -2.5629 C   0  0  0  0  0  0  0  0  0  0  0  0
    0.4181    0.3813    1.0734 H   0  0  0  0  0  0  0  0  0  0  0  0
   -1.5446    0.4833    0.9994 H   0  0  0  0  0  0  0  0  0  0  0  0
   -0.6525    2.0283    0.9671 H   0  0  0  0  0  0  0  0  0  0  0  0
   -0.6525   -1.1896   -3.0477 H   0  0  0  0  0  0  0  0  0  0  0  0
   -0.6525    0.6940   -3.1491 H   0  0  0  0  0  0  0  0  0  0  0  0
  1  2  1  0
  1  3  1  0
  1  4  1  0
  1  5  1  0
  2  6  1  0
  2  7  1  0
  2 12  1  0
  8  9  1  0
  8 13  1  0
  8 14  1  0
  9 10  1  0
 10 11  2  3
 11 15  1  0
 11 16  1  0
M  RAD  1   8   2
M  END
>  <reaction>  (18) 
rmg_rxn_15582

>  <mol_properties>  (18) 
{"0": {"label": "*4", "atom_type": "Cs"}, "1": {"label": "*3", "atom_type": "Cs"}, "7": {"label": "*1", "atom_type": "Cs"}, "8": {"label": "*0", "atom_type": "O2s"}, "11": {"label": "*2", "atom_type": "H0"}}

>  <type>  (18) 
unop_14

>  <geom_source>  (18) 
Heuristics

$$$$

     RDKit          3D

 16 14  0  0  0  0  0  0  0  0999 V2000
    2.3091   -0.6847   -0.5604 C   0  0  0  0  0  0  0  0  0  0  0  0
    2.3702    0.1877    0.6751 C   0  0  0  0  0  0  0  0  0  0  0  0
    2.8303   -1.6240   -0.3871 H   0  0  0  0  0  0  0  0  0  0  0  0
    2.7804   -0.1837   -1.4034 H   0  0  0  0  0  0  0  0  0  0  0  0
    1.2769   -0.9066   -0.8213 H   0  0  0  0  0  0  0  0  0  0  0  0
    3.3822    0.4315    0.9733 H   0  0  0  0  0  0  0  0  0  0  0  0
    1.8082   -0.1943    1.5001 H   0  0  0  0  0  0  0  0  0  0  0  0
   -0.6379    1.7117   -0.3439 C   0  0  0  0  0  3  0  0  0  0  0  0
   -1.2690    0.7091    0.2749 O   0  0  0  0  0  0  0  0  0  0  0  0
   -1.1643   -0.5128   -0.3454 N   0  0  0  0  0  0  0  0  0  0  0  0
   -1.7461   -1.4781    0.2450 C   0  0  0  0  0  0  0  0  0  0  0  0
    1.7632    1.0928    0.5968 H   0  0  0  0  0  0  0  0  0  0  0  0
   -0.1443    1.5484   -1.2813 H   0  0  0  0  0  0  0  0  0  0  0  0
   -0.7564    2.6659    0.1241 H   0  0  0  0  0  0  0  0  0  0  0  0
   -1.6710   -2.4399   -0.2274 H   0  0  0  0  0  0  0  0  0  0  0  0
   -2.2980   -1.3809    1.1738 H   0  0  0  0  0  0  0  0  0  0  0  0
  1  2  1  0
  1  3  1  0
  1  4  1  0
  1  5  1  0
  2  6  1  0
  2  7  1  0
  2 12  1  0
  8  9  1  0
  8 13  1  0
  8 14  1  0
  9 10  1  0
 10 11  2  3
 11 15  1  0
 11 16  1  0
M  RAD  1   8   2
M  END
>  <reaction>  (19) 
rmg_rxn_15582

>  <mol_properties>  (19) 
{"0": {"label": "*4", "atom_type": "Cs"}, "1": {"label": "*3", "atom_type": "Cs"}, "7": {"label": "*1", "atom_type": "Cs"}, "8": {"label": "*0", "atom_type": "O2s"}, "11": {"label": "*2", "atom_type": "H0"}}

>  <type>  (19) 
unop_15

>  <geom_source>  (19) 
Heuristics

$$$$

     RDKit          3D

 16 14  0  0  0  0  0  0  0  0999 V2000
    2.3711    0.3750    1.8524 C   0  0  0  0  0  0  0  0  0  0  0  0
    1.2319   -0.6071    1.6145 C   0  0  0  0  0  0  0  0  0  0  0  0
    2.9260    0.1256    2.7585 H   0  0  0  0  0  0  0  0  0  0  0  0
    1.9979    1.3946    1.9637 H   0  0  0  0  0  0  0  0  0  0  0  0
    3.0776    0.3708    1.0206 H   0  0  0  0  0  0  0  0  0  0  0  0
    0.5254   -0.6029    2.4463 H   0  0  0  0  0  0  0  0  0  0  0  0
    1.6051   -1.6267    1.5031 H   0  0  0  0  0  0  0  0  0  0  0  0
   -0.9084    0.6167    0.7266 C   0  0  0  0  0  3  0  0  0  0  0  0
   -0.9084    0.6746   -0.6863 O   0  0  0  0  0  0  0  0  0  0  0  0
   -0.9084   -0.5992   -1.2020 N   0  0  0  0  0  0  0  0  0  0  0  0
   -0.9084   -0.5992   -2.4657 C   0  0  0  0  0  0  0  0  0  0  0  0
    0.1622    0.0045    1.1707 H   0  0  0  0  0  0  0  0  0  0  0  0
   -1.8005    0.1065    1.0967 H   0  0  0  0  0  0  0  0  0  0  0  0
   -0.9084    1.6516    1.0644 H   0  0  0  0  0  0  0  0  0  0  0  0
   -0.9084   -1.5663   -2.9505 H   0  0  0  0  0  0  0  0  0  0  0  0
   -0.9084    0.3172   -3.0518 H   0  0  0  0  0  0  0  0  0  0  0  0
  1  2  1  0
  1  3  1  0
  1  4  1  0
  1  5  1  0
  2  6  1  0
  2  7  1  0
  2 12  1  0
  8  9  1  0
  8 13  1  0
  8 14  1  0
  9 10  1  0
 10 11  2  3
 11 15  1  0
 11 16  1  0
M  RAD  1   8   2
M  END
>  <reaction>  (20) 
rmg_rxn_15582

>  <mol_properties>  (20) 
{"0": {"label": "*4", "atom_type": "Cs"}, "1": {"label": "*3", "atom_type": "Cs"}, "7": {"label": "*1", "atom_type": "Cs"}, "8": {"label": "*0", "atom_type": "O2s"}, "11": {"label": "*2", "atom_type": "H0"}}

>  <type>  (20) 
unop_16

>  <geom_source>  (20) 
Heuristics

$$$$

     RDKit          3D

 16 14  0  0  0  0  0  0  0  0999 V2000
    2.1865    0.7553   -0.5786 C   0  0  0  0  0  0  0  0  0  0  0  0
    2.0731   -0.2479    0.5382 C   0  0  0  0  0  0  0  0  0  0  0  0
    3.1695    1.2308   -0.5747 H   0  0  0  0  0  0  0  0  0  0  0  0
    1.4359    1.5374   -0.4778 H   0  0  0  0  0  0  0  0  0  0  0  0
    2.0510    0.2722   -1.5440 H   0  0  0  0  0  0  0  0  0  0  0  0
    2.1218    0.2011    1.5252 H   0  0  0  0  0  0  0  0  0  0  0  0
    2.7773   -1.0680    0.4492 H   0  0  0  0  0  0  0  0  0  0  0  0
   -0.3189   -1.3672    0.3408 C   0  0  0  0  0  3  0  0  0  0  0  0
   -1.0570   -0.7003   -0.6210 O   0  0  0  0  0  0  0  0  0  0  0  0
   -1.6059    0.5081   -0.3831 N   0  0  0  0  0  0  0  0  0  0  0  0
   -1.4050    1.1506    0.6862 C   0  0  0  0  0  0  0  0  0  0  0  0
    0.9030   -0.8050    0.4608 H   0  0  0  0  0  0  0  0  0  0  0  0
   -0.1450   -2.3698   -0.0325 H   0  0  0  0  0  0  0  0  0  0  0  0
   -0.7543   -1.3518    1.3396 H   0  0  0  0  0  0  0  0  0  0  0  0
   -1.9081    2.0985    0.7607 H   0  0  0  0  0  0  0  0  0  0  0  0
   -0.7740    0.8475    1.5177 H   0  0  0  0  0  0  0  0  0  0  0  0
  1  2  1  0
  1  3  1  0
  1  4  1  0
  1  5  1  0
  2  6  1  0
  2  7  1  0
  2 12  1  0
  8  9  1  0
  8 13  1  0
  8 14  1  0
  9 10  1  0
 10 11  2  3
 11 15  1  0
 11 16  1  0
M  RAD  1   8   2
M  END
>  <reaction>  (21) 
rmg_rxn_15582

>  <mol_properties>  (21) 
{"0": {"label": "*4", "atom_type": "Cs"}, "1": {"label": "*3", "atom_type": "Cs"}, "7": {"label": "*1", "atom_type": "Cs"}, "8": {"label": "*0", "atom_type": "O2s"}, "11": {"label": "*2", "atom_type": "H0"}}

>  <type>  (21) 
unop_17

>  <geom_source>  (21) 
Heuristics

$$$$

     RDKit          3D

 16 14  0  0  0  0  0  0  0  0999 V2000
    1.8326   -1.3001    0.8357 C   0  0  0  0  0  0  0  0  0  0  0  0
    1.3411   -0.2562    1.8294 C   0  0  0  0  0  0  0  0  0  0  0  0
    2.5049   -2.0153    1.3130 H   0  0  0  0  0  0  0  0  0  0  0  0
    2.3756   -0.8363    0.0104 H   0  0  0  0  0  0  0  0  0  0  0  0
    1.0006   -1.8630    0.4088 H   0  0  0  0  0  0  0  0  0  0  0  0
    2.1731    0.3066    2.2563 H   0  0  0  0  0  0  0  0  0  0  0  0
    0.7980   -0.7201    2.6548 H   0  0  0  0  0  0  0  0  0  0  0  0
   -0.7992    0.9676    0.9416 C   0  0  0  0  0  3  0  0  0  0  0  0
   -0.7993    1.0256   -0.4713 O   0  0  0  0  0  0  0  0  0  0  0  0
   -0.7993   -0.2483   -0.9870 N   0  0  0  0  0  0  0  0  0  0  0  0
   -0.7993   -0.2483   -2.2507 C   0  0  0  0  0  0  0  0  0  0  0  0
    0.2714    0.3555    1.3857 H   0  0  0  0  0  0  0  0  0  0  0  0
   -1.6914    0.4575    1.3117 H   0  0  0  0  0  0  0  0  0  0  0  0
   -0.7993    2.0025    1.2794 H   0  0  0  0  0  0  0  0  0  0  0  0
   -0.7993   -1.2154   -2.7355 H   0  0  0  0  0  0  0  0  0  0  0  0
   -0.7992    0.6682   -2.8368 H   0  0  0  0  0  0  0  0  0  0  0  0
  1  2  1  0
  1  3  1  0
  1  4  1  0
  1  5  1  0
  2  6  1  0
  2  7  1  0
  2 12  1  0
  8  9  1  0
  8 13  1  0
  8 14  1  0
  9 10  1  0
 10 11  2  3
 11 15  1  0
 11 16  1  0
M  RAD  1   8   2
M  END
>  <reaction>  (22) 
rmg_rxn_15582

>  <mol_properties>  (22) 
{"0": {"label": "*4", "atom_type": "Cs"}, "1": {"label": "*3", "atom_type": "Cs"}, "7": {"label": "*1", "atom_type": "Cs"}, "8": {"label": "*0", "atom_type": "O2s"}, "11": {"label": "*2", "atom_type": "H0"}}

>  <type>  (22) 
unop_18

>  <geom_source>  (22) 
Heuristics

$$$$

     RDKit          3D

 16 14  0  0  0  0  0  0  0  0999 V2000
    2.4760    0.1562    1.2953 C   0  0  0  0  0  0  0  0  0  0  0  0
    1.2071   -0.5641    1.7313 C   0  0  0  0  0  0  0  0  0  0  0  0
    3.2684    0.0465    2.0378 H   0  0  0  0  0  0  0  0  0  0  0  0
    2.2976    1.2241    1.1578 H   0  0  0  0  0  0  0  0  0  0  0  0
    2.8515   -0.2405    0.3504 H   0  0  0  0  0  0  0  0  0  0  0  0
    0.8316   -0.1674    2.6762 H   0  0  0  0  0  0  0  0  0  0  0  0
    1.3854   -1.6320    1.8688 H   0  0  0  0  0  0  0  0  0  0  0  0
   -0.9332    0.6598    0.8434 C   0  0  0  0  0  3  0  0  0  0  0  0
   -0.9332    0.7177   -0.5695 O   0  0  0  0  0  0  0  0  0  0  0  0
   -0.9332   -0.5562   -1.0852 N   0  0  0  0  0  0  0  0  0  0  0  0
   -0.9332   -0.5562   -2.3488 C   0  0  0  0  0  0  0  0  0  0  0  0
    0.1374    0.0476    1.2875 H   0  0  0  0  0  0  0  0  0  0  0  0
   -1.8253    0.1496    1.2135 H   0  0  0  0  0  0  0  0  0  0  0  0
   -0.9332    1.6947    1.1812 H   0  0  0  0  0  0  0  0  0  0  0  0
   -0.9332   -1.5232   -2.8337 H   0  0  0  0  0  0  0  0  0  0  0  0
   -0.9332    0.3603   -2.9350 H   0  0  0  0  0  0  0  0  0  0  0  0
  1  2  1  0
  1  3  1  0
  1  4  1  0
  1  5  1  0
  2  6  1  0
  2  7  1  0
  2 12  1  0
  8  9  1  0
  8 13  1  0
  8 14  1  0
  9 10  1  0
 10 11  2  3
 11 15  1  0
 11 16  1  0
M  RAD  1   8   2
M  END
>  <reaction>  (23) 
rmg_rxn_15582

>  <mol_properties>  (23) 
{"0": {"label": "*4", "atom_type": "Cs"}, "1": {"label": "*3", "atom_type": "Cs"}, "7": {"label": "*1", "atom_type": "Cs"}, "8": {"label": "*0", "atom_type": "O2s"}, "11": {"label": "*2", "atom_type": "H0"}}

>  <type>  (23) 
unop_19

>  <geom_source>  (23) 
Heuristics

$$$$

     RDKit          3D

 16 14  0  0  0  0  0  0  0  0999 V2000
    1.1922   -1.0323    2.7509 C   0  0  0  0  0  0  0  0  0  0  0  0
    1.4696   -0.3203    1.4337 C   0  0  0  0  0  0  0  0  0  0  0  0
    2.0933   -1.0967    3.3635 H   0  0  0  0  0  0  0  0  0  0  0  0
    0.8334   -2.0493    2.5832 H   0  0  0  0  0  0  0  0  0  0  0  0
    0.4338   -0.5062    3.3332 H   0  0  0  0  0  0  0  0  0  0  0  0
    2.2281   -0.8464    0.8514 H   0  0  0  0  0  0  0  0  0  0  0  0
    1.8284    0.6968    1.6014 H   0  0  0  0  0  0  0  0  0  0  0  0
   -0.6707    0.9036    0.5458 C   0  0  0  0  0  3  0  0  0  0  0  0
   -0.6707    0.9615   -0.8670 O   0  0  0  0  0  0  0  0  0  0  0  0
   -0.6707   -0.3124   -1.3828 N   0  0  0  0  0  0  0  0  0  0  0  0
   -0.6707   -0.3124   -2.6464 C   0  0  0  0  0  0  0  0  0  0  0  0
    0.3999    0.2914    0.9900 H   0  0  0  0  0  0  0  0  0  0  0  0
   -1.5628    0.3934    0.9160 H   0  0  0  0  0  0  0  0  0  0  0  0
   -0.6707    1.9385    0.8837 H   0  0  0  0  0  0  0  0  0  0  0  0
   -0.6707   -1.2794   -3.1312 H   0  0  0  0  0  0  0  0  0  0  0  0
   -0.6707    0.6041   -3.2325 H   0  0  0  0  0  0  0  0  0  0  0  0
  1  2  1  0
  1  3  1  0
  1  4  1  0
  1  5  1  0
  2  6  1  0
  2  7  1  0
  2 12  1  0
  8  9  1  0
  8 13  1  0
  8 14  1  0
  9 10  1  0
 10 11  2  3
 11 15  1  0
 11 16  1  0
M  RAD  1   8   2
M  END
>  <reaction>  (24) 
rmg_rxn_15582

>  <mol_properties>  (24) 
{"0": {"label": "*4", "atom_type": "Cs"}, "1": {"label": "*3", "atom_type": "Cs"}, "7": {"label": "*1", "atom_type": "Cs"}, "8": {"label": "*0", "atom_type": "O2s"}, "11": {"label": "*2", "atom_type": "H0"}}

>  <type>  (24) 
unop_20

>  <geom_source>  (24) 
Heuristics

$$$$

     RDKit          3D

 16 14  0  0  0  0  0  0  0  0999 V2000
    2.1647   -0.8095    0.7098 C   0  0  0  0  0  0  0  0  0  0  0  0
    1.2697   -0.3599    1.8568 C   0  0  0  0  0  0  0  0  0  0  0  0
    3.0562   -1.3192    1.0796 H   0  0  0  0  0  0  0  0  0  0  0  0
    2.4951    0.0398    0.1091 H   0  0  0  0  0  0  0  0  0  0  0  0
    1.6410   -1.4997    0.0461 H   0  0  0  0  0  0  0  0  0  0  0  0
    1.7935    0.3302    2.5206 H   0  0  0  0  0  0  0  0  0  0  0  0
    0.9394   -1.2093    2.4575 H   0  0  0  0  0  0  0  0  0  0  0  0
   -0.8706    0.8639    0.9690 C   0  0  0  0  0  3  0  0  0  0  0  0
   -0.8706    0.9218   -0.4439 O   0  0  0  0  0  0  0  0  0  0  0  0
   -0.8706   -0.3521   -0.9597 N   0  0  0  0  0  0  0  0  0  0  0  0
   -0.8706   -0.3521   -2.2233 C   0  0  0  0  0  0  0  0  0  0  0  0
    0.2000    0.2517    1.4131 H   0  0  0  0  0  0  0  0  0  0  0  0
   -1.7627    0.3537    1.3391 H   0  0  0  0  0  0  0  0  0  0  0  0
   -0.8706    1.8988    1.3068 H   0  0  0  0  0  0  0  0  0  0  0  0
   -0.8706   -1.3191   -2.7081 H   0  0  0  0  0  0  0  0  0  0  0  0
   -0.8706    0.5644   -2.8094 H   0  0  0  0  0  0  0  0  0  0  0  0
  1  2  1  0
  1  3  1  0
  1  4  1  0
  1  5  1  0
  2  6  1  0
  2  7  1  0
  2 12  1  0
  8  9  1  0
  8 13  1  0
  8 14  1  0
  9 10  1  0
 10 11  2  3
 11 15  1  0
 11 16  1  0
M  RAD  1   8   2
M  END
>  <reaction>  (25) 
rmg_rxn_15582

>  <mol_properties>  (25) 
{"0": {"label": "*4", "atom_type": "Cs"}, "1": {"label": "*3", "atom_type": "Cs"}, "7": {"label": "*1", "atom_type": "Cs"}, "8": {"label": "*0", "atom_type": "O2s"}, "11": {"label": "*2", "atom_type": "H0"}}

>  <type>  (25) 
unop_21

>  <geom_source>  (25) 
Heuristics

$$$$

     RDKit          3D

 16 14  0  0  0  0  0  0  0  0999 V2000
    2.1909    0.7494   -0.5827 C   0  0  0  0  0  0  0  0  0  0  0  0
    2.0708   -0.2415    0.5442 C   0  0  0  0  0  0  0  0  0  0  0  0
    2.0618    0.2557   -1.5436 H   0  0  0  0  0  0  0  0  0  0  0  0
    3.1736    1.2255   -0.5777 H   0  0  0  0  0  0  0  0  0  0  0  0
    1.4392    1.5321   -0.4953 H   0  0  0  0  0  0  0  0  0  0  0  0
    2.1114    0.2186    1.5264 H   0  0  0  0  0  0  0  0  0  0  0  0
    2.7768   -1.0615    0.4696 H   0  0  0  0  0  0  0  0  0  0  0  0
   -0.3182   -1.3663    0.3417 C   0  0  0  0  0  3  0  0  0  0  0  0
   -1.0560   -0.7006   -0.6213 O   0  0  0  0  0  0  0  0  0  0  0  0
   -1.6066    0.5073   -0.3844 N   0  0  0  0  0  0  0  0  0  0  0  0
   -1.4082    1.1502    0.6850 C   0  0  0  0  0  0  0  0  0  0  0  0
    0.9020   -0.8012    0.4644 H   0  0  0  0  0  0  0  0  0  0  0  0
   -0.1413   -2.3682   -0.0319 H   0  0  0  0  0  0  0  0  0  0  0  0
   -0.7555   -1.3523    1.3396 H   0  0  0  0  0  0  0  0  0  0  0  0
   -1.9130    2.0971    0.7589 H   0  0  0  0  0  0  0  0  0  0  0  0
   -0.7782    0.8478    1.5177 H   0  0  0  0  0  0  0  0  0  0  0  0
  1  2  1  0
  1  3  1  0
  1  4  1  0
  1  5  1  0
  2  6  1  0
  2  7  1  0
  2 12  1  0
  8  9  1  0
  8 13  1  0
  8 14  1  0
  9 10  1  0
 10 11  2  3
 11 15  1  0
 11 16  1  0
M  RAD  1   8   2
M  END
>  <reaction>  (26) 
rmg_rxn_15582

>  <mol_properties>  (26) 
{"0": {"label": "*4", "atom_type": "Cs"}, "1": {"label": "*3", "atom_type": "Cs"}, "7": {"label": "*1", "atom_type": "Cs"}, "8": {"label": "*0", "atom_type": "O2s"}, "11": {"label": "*2", "atom_type": "H0"}}

>  <type>  (26) 
unop_22

>  <geom_source>  (26) 
Heuristics

$$$$

     RDKit          3D

 16 14  0  0  0  0  0  0  0  0999 V2000
    1.7507   -0.4861   -1.3581 O   0  0  0  0  0  0  0  0  0  0  0  0
    2.8392    0.1989   -0.8433 N   0  0  0  0  0  0  0  0  0  0  0  0
   -2.4110   -0.0873    0.6245 C   0  0  0  0  0  0  0  0  0  0  0  0
   -1.3864    0.6407   -0.2272 C   0  0  0  0  0  0  0  0  0  0  0  0
    0.6440   -0.9017   -0.5649 C   0  0  0  0  0  3  0  0  0  0  0  0
    2.9488    0.5775    0.3930 C   0  0  0  0  0  0  0  0  0  0  0  0
   -2.1005   -0.0585    1.6900 H   0  0  0  0  0  0  0  0  0  0  0  0
   -2.4867   -1.1452    0.2964 H   0  0  0  0  0  0  0  0  0  0  0  0
   -3.4034    0.3997    0.5198 H   0  0  0  0  0  0  0  0  0  0  0  0
   -1.3071    1.6987    0.1005 H   0  0  0  0  0  0  0  0  0  0  0  0
   -1.6935    0.6114   -1.2938 H   0  0  0  0  0  0  0  0  0  0  0  0
   -0.2315    0.0688   -0.1012 H   0  0  0  0  0  0  0  0  0  0  0  0
    3.8355    1.1082    0.7113 H   0  0  0  0  0  0  0  0  0  0  0  0
    2.1714    0.3808    1.1188 H   0  0  0  0  0  0  0  0  0  0  0  0
    0.9712   -1.6787    0.1575 H   0  0  0  0  0  0  0  0  0  0  0  0
   -0.1409   -1.3273   -1.2231 H   0  0  0  0  0  0  0  0  0  0  0  0
  1  5  1  0
  1  2  1  0
  2  6  2  3
  3  4  1  0
  3  7  1  0
  3  8  1  0
  3  9  1  0
  4 10  1  0
  4 11  1  0
  4 12  1  0
  5 15  1  0
  5 16  1  0
  6 13  1  0
  6 14  1  0
M  RAD  1   5   2
M  END
>  <reaction>  (27) 
rmg_rxn_15582

>  <mol_properties>  (27) 
{"0": {"label": "*4", "atom_type": "Cs"}, "1": {"label": "*3", "atom_type": "Cs"}, "7": {"label": "*1", "atom_type": "Cs"}, "8": {"label": "*0", "atom_type": "O2s"}, "11": {"label": "*2", "atom_type": "H0"}}

>  <type>  (27) 
unop_23

>  <geom_source>  (27) 
AutoTST

$$$$

     RDKit          3D

 16 14  0  0  0  0  0  0  0  0999 V2000
    2.4001   -0.2772    0.8777 C   0  0  0  0  0  0  0  0  0  0  0  0
    1.2206   -0.4734    1.8205 C   0  0  0  0  0  0  0  0  0  0  0  0
    3.3458   -0.4996    1.3751 H   0  0  0  0  0  0  0  0  0  0  0  0
    2.4510    0.7513    0.5160 H   0  0  0  0  0  0  0  0  0  0  0  0
    2.3235   -0.9303    0.0066 H   0  0  0  0  0  0  0  0  0  0  0  0
    1.2973    0.1797    2.6917 H   0  0  0  0  0  0  0  0  0  0  0  0
    1.1697   -1.5019    2.1822 H   0  0  0  0  0  0  0  0  0  0  0  0
   -0.9197    0.7505    0.9327 C   0  0  0  0  0  3  0  0  0  0  0  0
   -0.9197    0.8084   -0.4802 O   0  0  0  0  0  0  0  0  0  0  0  0
   -0.9197   -0.4655   -0.9960 N   0  0  0  0  0  0  0  0  0  0  0  0
   -0.9197   -0.4655   -2.2596 C   0  0  0  0  0  0  0  0  0  0  0  0
    0.1509    0.1383    1.3768 H   0  0  0  0  0  0  0  0  0  0  0  0
   -1.8118    0.2403    1.3028 H   0  0  0  0  0  0  0  0  0  0  0  0
   -0.9197    1.7854    1.2705 H   0  0  0  0  0  0  0  0  0  0  0  0
   -0.9197   -1.4326   -2.7444 H   0  0  0  0  0  0  0  0  0  0  0  0
   -0.9197    0.4510   -2.8457 H   0  0  0  0  0  0  0  0  0  0  0  0
  1  2  1  0
  1  3  1  0
  1  4  1  0
  1  5  1  0
  2  6  1  0
  2  7  1  0
  2 12  1  0
  8  9  1  0
  8 13  1  0
  8 14  1  0
  9 10  1  0
 10 11  2  3
 11 15  1  0
 11 16  1  0
M  RAD  1   8   2
M  END
>  <reaction>  (28) 
rmg_rxn_15582

>  <mol_properties>  (28) 
{"0": {"label": "*4", "atom_type": "Cs"}, "1": {"label": "*3", "atom_type": "Cs"}, "7": {"label": "*1", "atom_type": "Cs"}, "8": {"label": "*0", "atom_type": "O2s"}, "11": {"label": "*2", "atom_type": "H0"}}

>  <type>  (28) 
unop_24

>  <geom_source>  (28) 
gaussian_log

$$$$
