
     RDKit          3D

  9  8  0  0  0  0  0  0  0  0999 V2000
   -1.0314    0.2323   -0.1227 C   0  0  0  0  0  0  0  0  0  0  0  0
    0.3094   -0.4511    0.0063 C   0  0  0  0  0  0  0  0  0  0  0  0
    0.3197   -1.7698    0.6841 N   0  0  0  0  0  0  0  0  0  0  0  0
   -0.7498   -2.1455    1.0557 O   0  0  0  0  0  0  0  0  0  0  0  0
   -1.4744    0.4198    0.8552 H   0  0  0  0  0  0  0  0  0  0  0  0
   -0.9073    1.1865   -0.6350 H   0  0  0  0  0  0  0  0  0  0  0  0
   -1.7319   -0.3778   -0.6927 H   0  0  0  0  0  0  0  0  0  0  0  0
    1.0375    0.1401    0.5713 H   0  0  0  0  0  0  0  0  0  0  0  0
    0.7826   -0.6494   -0.9609 H   0  0  0  0  0  0  0  0  0  0  0  0
  1  2  1  0
  1  5  1  0
  1  6  1  0
  1  7  1  0
  2  3  1  0
  2  8  1  0
  2  9  1  0
  3  4  2  0
M  END
>  <reaction>  (1) 
rmg_rxn_599

>  <mol_properties>  (1) 
{"1": {"label": "donator", "atom_type": "Cs"}, "7": {"label": "d_hydrogen", "atom_type": "H0"}}

>  <type>  (1) 
r1h

$$$$

     RDKit          3D

  5  4  0  0  0  0  0  0  0  0999 V2000
   -0.4986    0.0189   -0.0212 C   0  0  0  0  0  0  0  0  0  0  0  0
    0.6799   -0.4410    0.1054 N   0  0  0  0  0  0  0  0  0  0  0  0
    1.7950    0.0236    0.0595 O   0  0  0  0  0  1  0  0  0  0  0  0
   -1.3180   -0.6753    0.0776 H   0  0  0  0  0  0  0  0  0  0  0  0
   -0.6584    1.0737   -0.2213 H   0  0  0  0  0  0  0  0  0  0  0  0
  1  2  2  3
  1  4  1  0
  1  5  1  0
  2  3  1  0
M  RAD  1   3   2
M  END
>  <reaction>  (2) 
rmg_rxn_599

>  <mol_properties>  (2) 
{"0": {"label": "acceptor", "atom_type": "Cs"}}

>  <type>  (2) 
r2

$$$$

     RDKit          3D

  6  5  0  0  0  0  0  0  0  0999 V2000
   -0.4547   -0.0097   -0.0070 C   0  0  0  0  0  0  0  0  0  0  0  0
    0.8695   -0.1987   -0.6218 N   0  0  0  0  0  0  0  0  0  0  0  0
    1.0322   -1.2809   -1.0969 O   0  0  0  0  0  0  0  0  0  0  0  0
   -0.2820    0.2687    1.0347 H   0  0  0  0  0  0  0  0  0  0  0  0
   -1.0716   -0.9051   -0.0916 H   0  0  0  0  0  0  0  0  0  0  0  0
   -0.9130    0.8487   -0.5026 H   0  0  0  0  0  0  0  0  0  0  0  0
  1  2  1  0
  1  4  1  0
  1  5  1  0
  1  6  1  0
  2  3  2  0
M  END
>  <reaction>  (3) 
rmg_rxn_599

>  <mol_properties>  (3) 
{"0": {"label": "acceptor", "atom_type": "Cs"}, "5": {"label": "a_hydrogen", "atom_type": "H0"}}

>  <type>  (3) 
r2h

$$$$

     RDKit          3D

 14 12  0  0  0  0  0  0  0  0999 V2000
    1.1817   -1.2176    0.0823 C   0  0  0  0  0  0  0  0  0  0  0  0
    1.0134   -1.4676    1.4370 N   0  0  0  0  0  0  0  0  0  0  0  0
    0.7232   -0.5492    2.1648 O   0  0  0  0  0  1  0  0  0  0  0  0
    1.3835   -2.1116   -0.4968 H   0  0  0  0  0  0  0  0  0  0  0  0
    1.7954   -0.3453   -0.1475 H   0  0  0  0  0  0  0  0  0  0  0  0
   -1.0771   -0.2398   -2.1858 C   0  0  0  0  0  0  0  0  0  0  0  0
   -1.0886   -0.0396   -0.6917 C   0  0  0  0  0  0  0  0  0  0  0  0
   -0.8153    1.2512   -0.2079 N   0  0  0  0  0  0  0  0  0  0  0  0
    0.1053    1.8535   -0.7035 O   0  0  0  0  0  0  0  0  0  0  0  0
   -0.1508    0.1421   -2.6144 H   0  0  0  0  0  0  0  0  0  0  0  0
   -1.1732   -1.2999   -2.4192 H   0  0  0  0  0  0  0  0  0  0  0  0
   -1.9131    0.2870   -2.6500 H   0  0  0  0  0  0  0  0  0  0  0  0
   -0.0180   -0.7162   -0.2720 H   0  0  0  0  0  0  0  0  0  0  0  0
   -1.9157   -0.4842   -0.1447 H   0  0  0  0  0  0  0  0  0  0  0  0
  1  2  2  3
  1  4  1  0
  1  5  1  0
  2  3  1  0
  6  7  1  0
  6 10  1  0
  6 11  1  0
  6 12  1  0
  7  8  1  0
  7 13  1  0
  7 14  1  0
  8  9  2  0
M  RAD  1   3   2
M  END
>  <reaction>  (4) 
rmg_rxn_599

>  <mol_properties>  (4) 
{"0": {"label": "*3", "atom_type": "Cd"}, "1": {"label": "*4", "atom_type": "N3d"}, "6": {"label": "*1", "atom_type": "Cs"}, "7": {"label": "*0", "atom_type": "N3d"}, "12": {"label": "*2", "atom_type": "H0"}}

>  <type>  (4) 
ts

$$$$

     RDKit          3D

 14 12  0  0  0  0  0  0  0  0999 V2000
    0.8124   -1.4501    0.4563 C   0  0  0  0  0  0  0  0  0  0  0  0
    1.5273   -0.4540    1.2710 N   0  0  0  0  0  0  0  0  0  0  0  0
    2.6633   -0.7399    1.4978 O   0  0  0  0  0  0  0  0  0  0  0  0
   -0.0586   -1.7645    1.0351 H   0  0  0  0  0  0  0  0  0  0  0  0
    1.4525   -2.2933    0.1943 H   0  0  0  0  0  0  0  0  0  0  0  0
   -1.2757   -0.2341   -2.0780 C   0  0  0  0  0  0  0  0  0  0  0  0
   -1.2757   -0.2341   -0.5676 C   0  0  0  0  0  0  0  0  0  0  0  0
   -1.2757    1.0918    0.0960 N   0  0  0  0  0  0  0  0  0  0  0  0
   -1.2757    2.0214   -0.6517 O   0  0  0  0  0  1  0  0  0  0  0  0
   -0.3956    0.2732   -2.4725 H   0  0  0  0  0  0  0  0  0  0  0  0
   -1.2757   -1.2613   -2.4433 H   0  0  0  0  0  0  0  0  0  0  0  0
   -2.1559    0.2732   -2.4725 H   0  0  0  0  0  0  0  0  0  0  0  0
   -0.2303   -0.8429   -0.0550 H   0  0  0  0  0  0  0  0  0  0  0  0
   -2.1469   -0.7415   -0.1404 H   0  0  0  0  0  0  0  0  0  0  0  0
  1  2  1  0
  1  4  1  0
  1  5  1  0
  1 13  1  0
  2  3  2  0
  6  7  1  0
  6 10  1  0
  6 11  1  0
  6 12  1  0
  7  8  2  3
  7 14  1  0
  8  9  1  0
M  RAD  1   9   2
M  END
>  <reaction>  (5) 
rmg_rxn_599

>  <mol_properties>  (5) 
{"0": {"label": "*3", "atom_type": "Cd"}, "1": {"label": "*4", "atom_type": "N3d"}, "6": {"label": "*1", "atom_type": "Cs"}, "7": {"label": "*0", "atom_type": "N3d"}, "12": {"label": "*2", "atom_type": "H0"}}

>  <type>  (5) 
unop_1

>  <geom_source>  (5) 
Heuristics

$$$$

     RDKit          3D

 14 12  0  0  0  0  0  0  0  0999 V2000
    0.7644   -1.1143    1.0172 C   0  0  0  0  0  0  0  0  0  0  0  0
    1.8689   -0.9419    0.0592 N   0  0  0  0  0  0  0  0  0  0  0  0
    2.5616   -1.9062   -0.0589 O   0  0  0  0  0  0  0  0  0  0  0  0
    0.8746   -0.3307    1.7698 H   0  0  0  0  0  0  0  0  0  0  0  0
    0.7671   -2.1096    1.4631 H   0  0  0  0  0  0  0  0  0  0  0  0
   -1.3237    0.1017   -1.5171 C   0  0  0  0  0  0  0  0  0  0  0  0
   -1.3237    0.1017   -0.0066 C   0  0  0  0  0  0  0  0  0  0  0  0
   -1.3237    1.4276    0.6570 N   0  0  0  0  0  0  0  0  0  0  0  0
   -1.3237    2.3572   -0.0907 O   0  0  0  0  0  1  0  0  0  0  0  0
   -0.4435    0.6091   -1.9116 H   0  0  0  0  0  0  0  0  0  0  0  0
   -1.3237   -0.9255   -1.8824 H   0  0  0  0  0  0  0  0  0  0  0  0
   -2.2038    0.6091   -1.9116 H   0  0  0  0  0  0  0  0  0  0  0  0
   -0.2782   -0.5071    0.5060 H   0  0  0  0  0  0  0  0  0  0  0  0
   -2.1949   -0.4056    0.4206 H   0  0  0  0  0  0  0  0  0  0  0  0
  1  2  1  0
  1  4  1  0
  1  5  1  0
  1 13  1  0
  2  3  2  0
  6  7  1  0
  6 10  1  0
  6 11  1  0
  6 12  1  0
  7  8  2  3
  7 14  1  0
  8  9  1  0
M  RAD  1   9   2
M  END
>  <reaction>  (6) 
rmg_rxn_599

>  <mol_properties>  (6) 
{"0": {"label": "*3", "atom_type": "Cd"}, "1": {"label": "*4", "atom_type": "N3d"}, "6": {"label": "*1", "atom_type": "Cs"}, "7": {"label": "*0", "atom_type": "N3d"}, "12": {"label": "*2", "atom_type": "H0"}}

>  <type>  (6) 
unop_2

>  <geom_source>  (6) 
Heuristics

$$$$

     RDKit          3D

 14 12  0  0  0  0  0  0  0  0999 V2000
    0.9315   -1.3940    0.3123 C   0  0  0  0  0  0  0  0  0  0  0  0
    1.2130   -0.7424    1.6021 N   0  0  0  0  0  0  0  0  0  0  0  0
    2.3677   -0.7426    1.9023 O   0  0  0  0  0  0  0  0  0  0  0  0
    0.2141   -2.1926    0.5123 H   0  0  0  0  0  0  0  0  0  0  0  0
    1.8405   -1.7721   -0.1569 H   0  0  0  0  0  0  0  0  0  0  0  0
   -1.1566   -0.1780   -2.2220 C   0  0  0  0  0  0  0  0  0  0  0  0
   -1.1566   -0.1780   -0.7115 C   0  0  0  0  0  0  0  0  0  0  0  0
   -1.1566    1.1479   -0.0479 N   0  0  0  0  0  0  0  0  0  0  0  0
   -1.1566    2.0775   -0.7956 O   0  0  0  0  0  1  0  0  0  0  0  0
   -0.2764    0.3294   -2.6165 H   0  0  0  0  0  0  0  0  0  0  0  0
   -1.1566   -1.2052   -2.5873 H   0  0  0  0  0  0  0  0  0  0  0  0
   -2.0367    0.3294   -2.6165 H   0  0  0  0  0  0  0  0  0  0  0  0
   -0.1111   -0.7868   -0.1989 H   0  0  0  0  0  0  0  0  0  0  0  0
   -2.0278   -0.6853   -0.2843 H   0  0  0  0  0  0  0  0  0  0  0  0
  1  2  1  0
  1  4  1  0
  1  5  1  0
  1 13  1  0
  2  3  2  0
  6  7  1  0
  6 10  1  0
  6 11  1  0
  6 12  1  0
  7  8  2  3
  7 14  1  0
  8  9  1  0
M  RAD  1   9   2
M  END
>  <reaction>  (7) 
rmg_rxn_599

>  <mol_properties>  (7) 
{"0": {"label": "*3", "atom_type": "Cd"}, "1": {"label": "*4", "atom_type": "N3d"}, "6": {"label": "*1", "atom_type": "Cs"}, "7": {"label": "*0", "atom_type": "N3d"}, "12": {"label": "*2", "atom_type": "H0"}}

>  <type>  (7) 
unop_3

>  <geom_source>  (7) 
Heuristics

$$$$

     RDKit          3D

 14 12  0  0  0  0  0  0  0  0999 V2000
    1.2922   -0.6992    0.7505 C   0  0  0  0  0  0  0  0  0  0  0  0
    1.2539   -2.0893    0.2675 N   0  0  0  0  0  0  0  0  0  0  0  0
    0.6632   -2.8353    0.9873 O   0  0  0  0  0  0  0  0  0  0  0  0
    2.3455   -0.4232    0.8338 H   0  0  0  0  0  0  0  0  0  0  0  0
    0.7659   -0.5857    1.6990 H   0  0  0  0  0  0  0  0  0  0  0  0
   -0.7958    0.5168   -1.7838 C   0  0  0  0  0  0  0  0  0  0  0  0
   -0.7958    0.5168   -0.2733 C   0  0  0  0  0  0  0  0  0  0  0  0
   -0.7958    1.8427    0.3903 N   0  0  0  0  0  0  0  0  0  0  0  0
   -0.7958    2.7723   -0.3574 O   0  0  0  0  0  1  0  0  0  0  0  0
    0.0843    1.0241   -2.1783 H   0  0  0  0  0  0  0  0  0  0  0  0
   -0.7958   -0.5104   -2.1491 H   0  0  0  0  0  0  0  0  0  0  0  0
   -1.6760    1.0241   -2.1783 H   0  0  0  0  0  0  0  0  0  0  0  0
    0.2496   -0.0920    0.2393 H   0  0  0  0  0  0  0  0  0  0  0  0
   -1.6670    0.0094    0.1539 H   0  0  0  0  0  0  0  0  0  0  0  0
  1  2  1  0
  1  4  1  0
  1  5  1  0
  1 13  1  0
  2  3  2  0
  6  7  1  0
  6 10  1  0
  6 11  1  0
  6 12  1  0
  7  8  2  3
  7 14  1  0
  8  9  1  0
M  RAD  1   9   2
M  END
>  <reaction>  (8) 
rmg_rxn_599

>  <mol_properties>  (8) 
{"0": {"label": "*3", "atom_type": "Cd"}, "1": {"label": "*4", "atom_type": "N3d"}, "6": {"label": "*1", "atom_type": "Cs"}, "7": {"label": "*0", "atom_type": "N3d"}, "12": {"label": "*2", "atom_type": "H0"}}

>  <type>  (8) 
unop_4

>  <geom_source>  (8) 
Heuristics

$$$$

     RDKit          3D

 14 12  0  0  0  0  0  0  0  0999 V2000
    1.0827   -1.3145    0.2272 C   0  0  0  0  0  0  0  0  0  0  0  0
    0.9459   -1.2348    1.6908 N   0  0  0  0  0  0  0  0  0  0  0  0
    1.8688   -0.7099    2.2350 O   0  0  0  0  0  0  0  0  0  0  0  0
    1.0085   -2.3708   -0.0395 H   0  0  0  0  0  0  0  0  0  0  0  0
    2.0191   -0.8733   -0.1163 H   0  0  0  0  0  0  0  0  0  0  0  0
   -1.0054   -0.0985   -2.3071 C   0  0  0  0  0  0  0  0  0  0  0  0
   -1.0054   -0.0985   -0.7966 C   0  0  0  0  0  0  0  0  0  0  0  0
   -1.0054    1.2274   -0.1331 N   0  0  0  0  0  0  0  0  0  0  0  0
   -1.0054    2.1570   -0.8808 O   0  0  0  0  0  1  0  0  0  0  0  0
   -0.1253    0.4088   -2.7016 H   0  0  0  0  0  0  0  0  0  0  0  0
   -1.0054   -1.1257   -2.6724 H   0  0  0  0  0  0  0  0  0  0  0  0
   -1.8855    0.4088   -2.7016 H   0  0  0  0  0  0  0  0  0  0  0  0
    0.0400   -0.7073   -0.2841 H   0  0  0  0  0  0  0  0  0  0  0  0
   -1.8766   -0.6059   -0.3695 H   0  0  0  0  0  0  0  0  0  0  0  0
  1  2  1  0
  1  4  1  0
  1  5  1  0
  1 13  1  0
  2  3  2  0
  6  7  1  0
  6 10  1  0
  6 11  1  0
  6 12  1  0
  7  8  2  3
  7 14  1  0
  8  9  1  0
M  RAD  1   9   2
M  END
>  <reaction>  (9) 
rmg_rxn_599

>  <mol_properties>  (9) 
{"0": {"label": "*3", "atom_type": "Cd"}, "1": {"label": "*4", "atom_type": "N3d"}, "6": {"label": "*1", "atom_type": "Cs"}, "7": {"label": "*0", "atom_type": "N3d"}, "12": {"label": "*2", "atom_type": "H0"}}

>  <type>  (9) 
unop_5

>  <geom_source>  (9) 
Heuristics

$$$$

     RDKit          3D

 14 12  0  0  0  0  0  0  0  0999 V2000
    1.3866   -0.7744    0.5193 C   0  0  0  0  0  0  0  0  0  0  0  0
    1.0157   -2.1894    0.6852 N   0  0  0  0  0  0  0  0  0  0  0  0
    0.4266   -2.4196    1.6969 O   0  0  0  0  0  0  0  0  0  0  0  0
    2.4715   -0.7449    0.3985 H   0  0  0  0  0  0  0  0  0  0  0  0
    1.0547   -0.1676    1.3626 H   0  0  0  0  0  0  0  0  0  0  0  0
   -0.7015    0.4415   -2.0150 C   0  0  0  0  0  0  0  0  0  0  0  0
   -0.7015    0.4415   -0.5045 C   0  0  0  0  0  0  0  0  0  0  0  0
   -0.7015    1.7675    0.1591 N   0  0  0  0  0  0  0  0  0  0  0  0
   -0.7015    2.6970   -0.5886 O   0  0  0  0  0  1  0  0  0  0  0  0
    0.1786    0.9489   -2.4094 H   0  0  0  0  0  0  0  0  0  0  0  0
   -0.7015   -0.5856   -2.3802 H   0  0  0  0  0  0  0  0  0  0  0  0
   -1.5816    0.9489   -2.4094 H   0  0  0  0  0  0  0  0  0  0  0  0
    0.3439   -0.1673    0.0081 H   0  0  0  0  0  0  0  0  0  0  0  0
   -1.5727   -0.0658   -0.0773 H   0  0  0  0  0  0  0  0  0  0  0  0
  1  2  1  0
  1  4  1  0
  1  5  1  0
  1 13  1  0
  2  3  2  0
  6  7  1  0
  6 10  1  0
  6 11  1  0
  6 12  1  0
  7  8  2  3
  7 14  1  0
  8  9  1  0
M  RAD  1   9   2
M  END
>  <reaction>  (10) 
rmg_rxn_599

>  <mol_properties>  (10) 
{"0": {"label": "*3", "atom_type": "Cd"}, "1": {"label": "*4", "atom_type": "N3d"}, "6": {"label": "*1", "atom_type": "Cs"}, "7": {"label": "*0", "atom_type": "N3d"}, "12": {"label": "*2", "atom_type": "H0"}}

>  <type>  (10) 
unop_6

>  <geom_source>  (10) 
Heuristics

$$$$

     RDKit          3D

 14 12  0  0  0  0  0  0  0  0999 V2000
    1.3817   -0.9468    0.3202 C   0  0  0  0  0  0  0  0  0  0  0  0
    0.8682   -2.0602    1.1349 N   0  0  0  0  0  0  0  0  0  0  0  0
    0.5617   -1.7464    2.2444 O   0  0  0  0  0  0  0  0  0  0  0  0
    2.3803   -1.2353   -0.0147 H   0  0  0  0  0  0  0  0  0  0  0  0
    1.3948   -0.0097    0.8779 H   0  0  0  0  0  0  0  0  0  0  0  0
   -0.7064    0.2692   -2.2141 C   0  0  0  0  0  0  0  0  0  0  0  0
   -0.7064    0.2692   -0.7037 C   0  0  0  0  0  0  0  0  0  0  0  0
   -0.7064    1.5951   -0.0401 N   0  0  0  0  0  0  0  0  0  0  0  0
   -0.7064    2.5247   -0.7878 O   0  0  0  0  0  1  0  0  0  0  0  0
    0.1738    0.7766   -2.6086 H   0  0  0  0  0  0  0  0  0  0  0  0
   -0.7064   -0.7580   -2.5794 H   0  0  0  0  0  0  0  0  0  0  0  0
   -1.5865    0.7766   -2.6086 H   0  0  0  0  0  0  0  0  0  0  0  0
    0.3391   -0.3396   -0.1911 H   0  0  0  0  0  0  0  0  0  0  0  0
   -1.5776   -0.2381   -0.2765 H   0  0  0  0  0  0  0  0  0  0  0  0
  1  2  1  0
  1  4  1  0
  1  5  1  0
  1 13  1  0
  2  3  2  0
  6  7  1  0
  6 10  1  0
  6 11  1  0
  6 12  1  0
  7  8  2  3
  7 14  1  0
  8  9  1  0
M  RAD  1   9   2
M  END
>  <reaction>  (11) 
rmg_rxn_599

>  <mol_properties>  (11) 
{"0": {"label": "*3", "atom_type": "Cd"}, "1": {"label": "*4", "atom_type": "N3d"}, "6": {"label": "*1", "atom_type": "Cs"}, "7": {"label": "*0", "atom_type": "N3d"}, "12": {"label": "*2", "atom_type": "H0"}}

>  <type>  (11) 
unop_7

>  <geom_source>  (11) 
Heuristics

$$$$

     RDKit          3D

 14 12  0  0  0  0  0  0  0  0999 V2000
    0.7220   -1.4349    0.6573 C   0  0  0  0  0  0  0  0  0  0  0  0
    1.7696   -0.4140    0.8231 N   0  0  0  0  0  0  0  0  0  0  0  0
    2.8687   -0.8633    0.9403 O   0  0  0  0  0  0  0  0  0  0  0  0
    0.0006   -1.2802    1.4623 H   0  0  0  0  0  0  0  0  0  0  0  0
    1.1350   -2.4442    0.6698 H   0  0  0  0  0  0  0  0  0  0  0  0
   -1.3661   -0.2190   -1.8770 C   0  0  0  0  0  0  0  0  0  0  0  0
   -1.3661   -0.2190   -0.3666 C   0  0  0  0  0  0  0  0  0  0  0  0
   -1.3661    1.1070    0.2970 N   0  0  0  0  0  0  0  0  0  0  0  0
   -1.3661    2.0365   -0.4507 O   0  0  0  0  0  1  0  0  0  0  0  0
   -0.4859    0.2884   -2.2715 H   0  0  0  0  0  0  0  0  0  0  0  0
   -1.3661   -1.2461   -2.2423 H   0  0  0  0  0  0  0  0  0  0  0  0
   -2.2462    0.2884   -2.2715 H   0  0  0  0  0  0  0  0  0  0  0  0
   -0.3206   -0.8278    0.1460 H   0  0  0  0  0  0  0  0  0  0  0  0
   -2.2373   -0.7263    0.0606 H   0  0  0  0  0  0  0  0  0  0  0  0
  1  2  1  0
  1  4  1  0
  1  5  1  0
  1 13  1  0
  2  3  2  0
  6  7  1  0
  6 10  1  0
  6 11  1  0
  6 12  1  0
  7  8  2  3
  7 14  1  0
  8  9  1  0
M  RAD  1   9   2
M  END
>  <reaction>  (12) 
rmg_rxn_599

>  <mol_properties>  (12) 
{"0": {"label": "*3", "atom_type": "Cd"}, "1": {"label": "*4", "atom_type": "N3d"}, "6": {"label": "*1", "atom_type": "Cs"}, "7": {"label": "*0", "atom_type": "N3d"}, "12": {"label": "*2", "atom_type": "H0"}}

>  <type>  (12) 
unop_8

>  <geom_source>  (12) 
Heuristics

$$$$

     RDKit          3D

 14 12  0  0  0  0  0  0  0  0999 V2000
    1.1233   -0.7413    0.9474 C   0  0  0  0  0  0  0  0  0  0  0  0
    1.5185   -1.7869   -0.0105 N   0  0  0  0  0  0  0  0  0  0  0  0
    1.2115   -2.8903    0.3239 O   0  0  0  0  0  0  0  0  0  0  0  0
    2.0356   -0.2128    1.2316 H   0  0  0  0  0  0  0  0  0  0  0  0
    0.6091   -1.1594    1.8136 H   0  0  0  0  0  0  0  0  0  0  0  0
   -0.9648    0.4747   -1.5869 C   0  0  0  0  0  0  0  0  0  0  0  0
   -0.9648    0.4747   -0.0764 C   0  0  0  0  0  0  0  0  0  0  0  0
   -0.9648    1.8006    0.5872 N   0  0  0  0  0  0  0  0  0  0  0  0
   -0.9648    2.7302   -0.1605 O   0  0  0  0  0  1  0  0  0  0  0  0
   -0.0847    0.9820   -1.9813 H   0  0  0  0  0  0  0  0  0  0  0  0
   -0.9648   -0.5525   -1.9521 H   0  0  0  0  0  0  0  0  0  0  0  0
   -1.8450    0.9820   -1.9813 H   0  0  0  0  0  0  0  0  0  0  0  0
    0.0806   -0.1341    0.4362 H   0  0  0  0  0  0  0  0  0  0  0  0
   -1.8360   -0.0326    0.3508 H   0  0  0  0  0  0  0  0  0  0  0  0
  1  2  1  0
  1  4  1  0
  1  5  1  0
  1 13  1  0
  2  3  2  0
  6  7  1  0
  6 10  1  0
  6 11  1  0
  6 12  1  0
  7  8  2  3
  7 14  1  0
  8  9  1  0
M  RAD  1   9   2
M  END
>  <reaction>  (13) 
rmg_rxn_599

>  <mol_properties>  (13) 
{"0": {"label": "*3", "atom_type": "Cd"}, "1": {"label": "*4", "atom_type": "N3d"}, "6": {"label": "*1", "atom_type": "Cs"}, "7": {"label": "*0", "atom_type": "N3d"}, "12": {"label": "*2", "atom_type": "H0"}}

>  <type>  (13) 
unop_9

>  <geom_source>  (13) 
Heuristics

$$$$

     RDKit          3D

 14 12  0  0  0  0  0  0  0  0999 V2000
    0.6962   -1.3168    0.8670 C   0  0  0  0  0  0  0  0  0  0  0  0
    1.8863   -0.5974    0.3840 N   0  0  0  0  0  0  0  0  0  0  0  0
    2.8741   -1.2656    0.3483 O   0  0  0  0  0  0  0  0  0  0  0  0
    0.3234   -0.7646    1.7322 H   0  0  0  0  0  0  0  0  0  0  0  0
    0.9232   -2.3545    1.1140 H   0  0  0  0  0  0  0  0  0  0  0  0
   -1.3919   -0.1008   -1.6673 C   0  0  0  0  0  0  0  0  0  0  0  0
   -1.3919   -0.1008   -0.1568 C   0  0  0  0  0  0  0  0  0  0  0  0
   -1.3919    1.2251    0.5068 N   0  0  0  0  0  0  0  0  0  0  0  0
   -1.3919    2.1547   -0.2409 O   0  0  0  0  0  1  0  0  0  0  0  0
   -0.5117    0.4065   -2.0618 H   0  0  0  0  0  0  0  0  0  0  0  0
   -1.3919   -1.1280   -2.0326 H   0  0  0  0  0  0  0  0  0  0  0  0
   -2.2720    0.4065   -2.0618 H   0  0  0  0  0  0  0  0  0  0  0  0
   -0.3464   -0.7096    0.3558 H   0  0  0  0  0  0  0  0  0  0  0  0
   -2.2631   -0.6082    0.2703 H   0  0  0  0  0  0  0  0  0  0  0  0
  1  2  1  0
  1  4  1  0
  1  5  1  0
  1 13  1  0
  2  3  2  0
  6  7  1  0
  6 10  1  0
  6 11  1  0
  6 12  1  0
  7  8  2  3
  7 14  1  0
  8  9  1  0
M  RAD  1   9   2
M  END
>  <reaction>  (14) 
rmg_rxn_599

>  <mol_properties>  (14) 
{"0": {"label": "*3", "atom_type": "Cd"}, "1": {"label": "*4", "atom_type": "N3d"}, "6": {"label": "*1", "atom_type": "Cs"}, "7": {"label": "*0", "atom_type": "N3d"}, "12": {"label": "*2", "atom_type": "H0"}}

>  <type>  (14) 
unop_10

>  <geom_source>  (14) 
Heuristics

$$$$

     RDKit          3D

 14 12  0  0  0  0  0  0  0  0999 V2000
    1.2678   -1.1601    0.2137 C   0  0  0  0  0  0  0  0  0  0  0  0
    0.8400   -1.7265    1.5035 N   0  0  0  0  0  0  0  0  0  0  0  0
    1.0976   -1.0381    2.4433 O   0  0  0  0  0  0  0  0  0  0  0  0
    1.9318   -1.8938   -0.2482 H   0  0  0  0  0  0  0  0  0  0  0  0
    1.7552   -0.1924    0.3384 H   0  0  0  0  0  0  0  0  0  0  0  0
   -0.8203    0.0558   -2.3206 C   0  0  0  0  0  0  0  0  0  0  0  0
   -0.8203    0.0558   -0.8101 C   0  0  0  0  0  0  0  0  0  0  0  0
   -0.8203    1.3818   -0.1465 N   0  0  0  0  0  0  0  0  0  0  0  0
   -0.8203    2.3114   -0.8942 O   0  0  0  0  0  1  0  0  0  0  0  0
    0.0599    0.5632   -2.7151 H   0  0  0  0  0  0  0  0  0  0  0  0
   -0.8203   -0.9713   -2.6859 H   0  0  0  0  0  0  0  0  0  0  0  0
   -1.7004    0.5632   -2.7151 H   0  0  0  0  0  0  0  0  0  0  0  0
    0.2252   -0.5529   -0.2975 H   0  0  0  0  0  0  0  0  0  0  0  0
   -1.6914   -0.4515   -0.3830 H   0  0  0  0  0  0  0  0  0  0  0  0
  1  2  1  0
  1  4  1  0
  1  5  1  0
  1 13  1  0
  2  3  2  0
  6  7  1  0
  6 10  1  0
  6 11  1  0
  6 12  1  0
  7  8  2  3
  7 14  1  0
  8  9  1  0
M  RAD  1   9   2
M  END
>  <reaction>  (15) 
rmg_rxn_599

>  <mol_properties>  (15) 
{"0": {"label": "*3", "atom_type": "Cd"}, "1": {"label": "*4", "atom_type": "N3d"}, "6": {"label": "*1", "atom_type": "Cs"}, "7": {"label": "*0", "atom_type": "N3d"}, "12": {"label": "*2", "atom_type": "H0"}}

>  <type>  (15) 
unop_11

>  <geom_source>  (15) 
Heuristics

$$$$

     RDKit          3D

 14 12  0  0  0  0  0  0  0  0999 V2000
    0.9243   -0.8947    1.0489 C   0  0  0  0  0  0  0  0  0  0  0  0
    1.7378   -1.3684   -0.0829 N   0  0  0  0  0  0  0  0  0  0  0  0
    1.9343   -2.5452   -0.0783 O   0  0  0  0  0  0  0  0  0  0  0  0
    1.5178   -0.1408    1.5702 H   0  0  0  0  0  0  0  0  0  0  0  0
    0.6350   -1.7127    1.7097 H   0  0  0  0  0  0  0  0  0  0  0  0
   -1.1638    0.3213   -1.4854 C   0  0  0  0  0  0  0  0  0  0  0  0
   -1.1638    0.3213    0.0251 C   0  0  0  0  0  0  0  0  0  0  0  0
   -1.1638    1.6472    0.6887 N   0  0  0  0  0  0  0  0  0  0  0  0
   -1.1638    2.5768   -0.0590 O   0  0  0  0  0  1  0  0  0  0  0  0
   -0.2837    0.8287   -1.8799 H   0  0  0  0  0  0  0  0  0  0  0  0
   -1.1638   -0.7059   -1.8506 H   0  0  0  0  0  0  0  0  0  0  0  0
   -2.0440    0.8287   -1.8799 H   0  0  0  0  0  0  0  0  0  0  0  0
   -0.1184   -0.2875    0.5377 H   0  0  0  0  0  0  0  0  0  0  0  0
   -2.0350   -0.1860    0.4523 H   0  0  0  0  0  0  0  0  0  0  0  0
  1  2  1  0
  1  4  1  0
  1  5  1  0
  1 13  1  0
  2  3  2  0
  6  7  1  0
  6 10  1  0
  6 11  1  0
  6 12  1  0
  7  8  2  3
  7 14  1  0
  8  9  1  0
M  RAD  1   9   2
M  END
>  <reaction>  (16) 
rmg_rxn_599

>  <mol_properties>  (16) 
{"0": {"label": "*3", "atom_type": "Cd"}, "1": {"label": "*4", "atom_type": "N3d"}, "6": {"label": "*1", "atom_type": "Cs"}, "7": {"label": "*0", "atom_type": "N3d"}, "12": {"label": "*2", "atom_type": "H0"}}

>  <type>  (16) 
unop_12

>  <geom_source>  (16) 
Heuristics

$$$$

     RDKit          3D

 14 12  0  0  0  0  0  0  0  0999 V2000
    3.0772    0.2933    1.1434 O   0  0  0  0  0  0  0  0  0  0  0  0
   -1.1347    2.4732   -0.9629 O   0  0  0  0  0  1  0  0  0  0  0  0
    2.7542    0.3244   -0.0049 N   0  0  0  0  0  0  0  0  0  0  0  0
   -1.5381    1.3748   -0.7306 N   0  0  0  0  0  0  0  0  0  0  0  0
   -1.5010   -0.8360    0.2643 C   0  0  0  0  0  0  0  0  0  0  0  0
    1.5344   -0.3057   -0.4328 C   0  0  0  0  0  0  0  0  0  0  0  0
   -0.8497    0.5361    0.2146 C   0  0  0  0  0  0  0  0  0  0  0  0
   -2.5606   -0.7469    0.5859 H   0  0  0  0  0  0  0  0  0  0  0  0
   -1.4578   -1.3118   -0.7381 H   0  0  0  0  0  0  0  0  0  0  0  0
   -0.9557   -1.4769    0.9881 H   0  0  0  0  0  0  0  0  0  0  0  0
    1.4034   -0.1499   -1.5234 H   0  0  0  0  0  0  0  0  0  0  0  0
    1.5793   -1.3954   -0.2234 H   0  0  0  0  0  0  0  0  0  0  0  0
    0.5268    0.2170    0.1972 H   0  0  0  0  0  0  0  0  0  0  0  0
   -0.8777    1.0037    1.2225 H   0  0  0  0  0  0  0  0  0  0  0  0
  1  3  2  0
  2  4  1  0
  3  6  1  0
  4  7  2  3
  5  7  1  0
  5  8  1  0
  5  9  1  0
  5 10  1  0
  6 11  1  0
  6 12  1  0
  6 13  1  0
  7 14  1  0
M  RAD  1   2   2
M  END
>  <reaction>  (17) 
rmg_rxn_599

>  <mol_properties>  (17) 
{"0": {"label": "*3", "atom_type": "Cd"}, "1": {"label": "*4", "atom_type": "N3d"}, "6": {"label": "*1", "atom_type": "Cs"}, "7": {"label": "*0", "atom_type": "N3d"}, "12": {"label": "*2", "atom_type": "H0"}}

>  <type>  (17) 
unop_13

>  <geom_source>  (17) 
AutoTST

$$$$

     RDKit          3D

 14 12  0  0  0  0  0  0  0  0999 V2000
    0.7644   -1.1143    1.0172 C   0  0  0  0  0  0  0  0  0  0  0  0
    1.8689   -0.9419    0.0592 N   0  0  0  0  0  0  0  0  0  0  0  0
    2.5616   -1.9062   -0.0589 O   0  0  0  0  0  0  0  0  0  0  0  0
    0.8746   -0.3307    1.7698 H   0  0  0  0  0  0  0  0  0  0  0  0
    0.7671   -2.1096    1.4631 H   0  0  0  0  0  0  0  0  0  0  0  0
   -1.3237    0.1017   -1.5171 C   0  0  0  0  0  0  0  0  0  0  0  0
   -1.3237    0.1017   -0.0066 C   0  0  0  0  0  0  0  0  0  0  0  0
   -1.3237    1.4276    0.6570 N   0  0  0  0  0  0  0  0  0  0  0  0
   -1.3237    2.3572   -0.0907 O   0  0  0  0  0  1  0  0  0  0  0  0
   -0.4435    0.6090   -1.9116 H   0  0  0  0  0  0  0  0  0  0  0  0
   -1.3237   -0.9255   -1.8824 H   0  0  0  0  0  0  0  0  0  0  0  0
   -2.2038    0.6090   -1.9116 H   0  0  0  0  0  0  0  0  0  0  0  0
   -0.2782   -0.5071    0.5060 H   0  0  0  0  0  0  0  0  0  0  0  0
   -2.1949   -0.4056    0.4206 H   0  0  0  0  0  0  0  0  0  0  0  0
  1  2  1  0
  1  4  1  0
  1  5  1  0
  1 13  1  0
  2  3  2  0
  6  7  1  0
  6 10  1  0
  6 11  1  0
  6 12  1  0
  7  8  2  3
  7 14  1  0
  8  9  1  0
M  RAD  1   9   2
M  END
>  <reaction>  (18) 
rmg_rxn_599

>  <mol_properties>  (18) 
{"0": {"label": "*3", "atom_type": "Cd"}, "1": {"label": "*4", "atom_type": "N3d"}, "6": {"label": "*1", "atom_type": "Cs"}, "7": {"label": "*0", "atom_type": "N3d"}, "12": {"label": "*2", "atom_type": "H0"}}

>  <type>  (18) 
unop_14

>  <geom_source>  (18) 
gaussian_log

$$$$
