
     RDKit          3D

  9  8  0  0  0  0  0  0  0  0999 V2000
   -1.2461    0.5037    0.0950 C   0  0  0  0  0  0  0  0  0  0  0  0
   -0.0155   -0.3334    0.0640 C   0  0  0  0  0  0  0  0  0  0  0  0
    1.0697    0.1457   -0.3733 N   0  0  0  0  0  0  0  0  0  0  0  0
    2.1001   -0.7834   -0.3224 O   0  0  0  0  0  0  0  0  0  0  0  0
   -2.0357    0.0440   -0.5039 H   0  0  0  0  0  0  0  0  0  0  0  0
   -1.6237    0.5897    1.1166 H   0  0  0  0  0  0  0  0  0  0  0  0
   -1.0397    1.4998   -0.2929 H   0  0  0  0  0  0  0  0  0  0  0  0
   -0.0537   -1.3634    0.4205 H   0  0  0  0  0  0  0  0  0  0  0  0
    2.8478   -0.2985   -0.6758 H   0  0  0  0  0  0  0  0  0  0  0  0
  1  2  1  0
  1  5  1  0
  1  6  1  0
  1  7  1  0
  2  3  2  3
  2  8  1  0
  3  4  1  0
  4  9  1  0
M  END
>  <reaction>  (1) 
rmg_rxn_15596

>  <mol_properties>  (1) 
{"3": {"label": "donator", "atom_type": "O2s"}, "8": {"label": "d_hydrogen", "atom_type": "H0"}}

>  <type>  (1) 
r1h

$$$$

     RDKit          3D

  8  7  0  0  0  0  0  0  0  0999 V2000
    1.7077   -0.1964   -0.0607 C   0  0  0  0  0  3  0  0  0  0  0  0
    0.4209   -0.4565    0.2808 O   0  0  0  0  0  0  0  0  0  0  0  0
   -0.4607    0.4385   -0.2968 N   0  0  0  0  0  0  0  0  0  0  0  0
   -1.6584    0.1416   -0.0244 C   0  0  0  0  0  0  0  0  0  0  0  0
    2.4163   -0.7685    0.5170 H   0  0  0  0  0  0  0  0  0  0  0  0
    1.9214    0.7645   -0.5045 H   0  0  0  0  0  0  0  0  0  0  0  0
   -2.4185    0.7953   -0.4307 H   0  0  0  0  0  0  0  0  0  0  0  0
   -1.9286   -0.7185    0.5831 H   0  0  0  0  0  0  0  0  0  0  0  0
  1  2  1  0
  1  5  1  0
  1  6  1  0
  2  3  1  0
  3  4  2  3
  4  7  1  0
  4  8  1  0
M  RAD  1   1   2
M  END
>  <reaction>  (2) 
rmg_rxn_15596

>  <mol_properties>  (2) 
{"0": {"label": "acceptor", "atom_type": "Cs"}}

>  <type>  (2) 
r2

$$$$

     RDKit          3D

  9  8  0  0  0  0  0  0  0  0999 V2000
   -1.5470   -0.0755   -0.1976 C   0  0  0  0  0  0  0  0  0  0  0  0
   -0.2885    0.4507    0.1749 O   0  0  0  0  0  0  0  0  0  0  0  0
   -0.1502    1.7216   -0.3294 N   0  0  0  0  0  0  0  0  0  0  0  0
    0.9626    2.2353   -0.0219 C   0  0  0  0  0  0  0  0  0  0  0  0
   -1.6392   -0.1356   -1.2844 H   0  0  0  0  0  0  0  0  0  0  0  0
   -2.3597    0.5337    0.2044 H   0  0  0  0  0  0  0  0  0  0  0  0
   -1.5879   -1.0750    0.2318 H   0  0  0  0  0  0  0  0  0  0  0  0
    1.1497    3.2381   -0.3820 H   0  0  0  0  0  0  0  0  0  0  0  0
    1.7060    1.7101    0.5739 H   0  0  0  0  0  0  0  0  0  0  0  0
  1  2  1  0
  1  5  1  0
  1  6  1  0
  1  7  1  0
  2  3  1  0
  3  4  2  3
  4  8  1  0
  4  9  1  0
M  END
>  <reaction>  (3) 
rmg_rxn_15596

>  <mol_properties>  (3) 
{"0": {"label": "acceptor", "atom_type": "Cs"}, "8": {"label": "a_hydrogen", "atom_type": "H0"}}

>  <type>  (3) 
r2h

$$$$

     RDKit          3D

 17 15  0  0  0  0  0  0  0  0999 V2000
   -0.4384    0.6143    2.0597 C   0  0  0  0  0  3  0  0  0  0  0  0
   -0.6852    1.4552    1.0088 O   0  0  0  0  0  0  0  0  0  0  0  0
    0.4781    2.0858    0.5898 N   0  0  0  0  0  0  0  0  0  0  0  0
    0.3056    2.6588   -0.5214 C   0  0  0  0  0  0  0  0  0  0  0  0
    0.3696    0.9513    2.7081 H   0  0  0  0  0  0  0  0  0  0  0  0
   -1.3775    0.3768    2.5533 H   0  0  0  0  0  0  0  0  0  0  0  0
    1.1543    3.1995   -0.9189 H   0  0  0  0  0  0  0  0  0  0  0  0
   -0.6354    2.6175   -1.0637 H   0  0  0  0  0  0  0  0  0  0  0  0
   -0.0688   -1.9872   -2.5801 C   0  0  0  0  0  0  0  0  0  0  0  0
    0.2742   -2.1740   -1.1419 C   0  0  0  0  0  0  0  0  0  0  0  0
   -0.0022   -1.2699   -0.2959 N   0  0  0  0  0  0  0  0  0  0  0  0
    0.3409   -1.5210    0.9626 O   0  0  0  0  0  0  0  0  0  0  0  0
    0.8294   -2.0297   -3.2014 H   0  0  0  0  0  0  0  0  0  0  0  0
   -0.7373   -2.7798   -2.9252 H   0  0  0  0  0  0  0  0  0  0  0  0
   -0.5568   -1.0251   -2.7299 H   0  0  0  0  0  0  0  0  0  0  0  0
    0.7651   -3.0938   -0.8226 H   0  0  0  0  0  0  0  0  0  0  0  0
   -0.0158   -0.5180    1.5761 H   0  0  0  0  0  0  0  0  0  0  0  0
  1  2  1  0
  1  5  1  0
  1  6  1  0
  2  3  1  0
  3  4  2  3
  4  7  1  0
  4  8  1  0
  9 10  1  0
  9 13  1  0
  9 14  1  0
  9 15  1  0
 10 11  2  3
 10 16  1  0
 11 12  1  0
 12 17  1  0
M  RAD  1   1   2
M  END
>  <reaction>  (4) 
rmg_rxn_15596

>  <mol_properties>  (4) 
{"0": {"label": "*3", "atom_type": "Cs"}, "1": {"label": "*4", "atom_type": "O2s"}, "10": {"label": "*0", "atom_type": "N3d"}, "11": {"label": "*1", "atom_type": "O2s"}, "16": {"label": "*2", "atom_type": "H0"}}

>  <type>  (4) 
ts

$$$$

     RDKit          3D

 17 15  0  0  0  0  0  0  0  0999 V2000
   -0.9307   -0.1863    1.3423 C   0  0  0  0  0  3  0  0  0  0  0  0
   -1.5026   -0.9322    0.3074 O   0  0  0  0  0  0  0  0  0  0  0  0
   -2.2079   -0.3316   -0.6764 N   0  0  0  0  0  0  0  0  0  0  0  0
   -2.2683    0.9216   -0.7946 C   0  0  0  0  0  0  0  0  0  0  0  0
   -1.6229    0.5212    1.7995 H   0  0  0  0  0  0  0  0  0  0  0  0
   -0.5445   -0.9054    2.0574 H   0  0  0  0  0  0  0  0  0  0  0  0
   -2.8611    1.2820   -1.6173 H   0  0  0  0  0  0  0  0  0  0  0  0
   -1.7689    1.6552   -0.1678 H   0  0  0  0  0  0  0  0  0  0  0  0
    1.7580   -1.5207   -0.2787 C   0  0  0  0  0  0  0  0  0  0  0  0
    2.3970   -0.1803   -0.4964 C   0  0  0  0  0  0  0  0  0  0  0  0
    1.9674    0.9433   -0.1325 N   0  0  0  0  0  0  0  0  0  0  0  0
    0.9075    1.2898    0.4891 O   0  0  0  0  0  0  0  0  0  0  0  0
    0.6949   -1.4943   -0.5105 H   0  0  0  0  0  0  0  0  0  0  0  0
    2.2395   -2.2640   -0.9064 H   0  0  0  0  0  0  0  0  0  0  0  0
    1.8676   -1.8209    0.7639 H   0  0  0  0  0  0  0  0  0  0  0  0
    3.3469   -0.1456   -1.0103 H   0  0  0  0  0  0  0  0  0  0  0  0
    0.0432    0.5007    0.8996 H   0  0  0  0  0  0  0  0  0  0  0  0
  1  2  1  0
  1  5  1  0
  1  6  1  0
  2  3  1  0
  3  4  2  3
  4  7  1  0
  4  8  1  0
  9 10  1  0
  9 13  1  0
  9 14  1  0
  9 15  1  0
 10 11  2  3
 10 16  1  0
 11 12  1  0
 12 17  1  0
M  RAD  1   1   2
M  END
>  <reaction>  (5) 
rmg_rxn_15596

>  <mol_properties>  (5) 
{"0": {"label": "*3", "atom_type": "Cs"}, "1": {"label": "*4", "atom_type": "O2s"}, "10": {"label": "*0", "atom_type": "N3d"}, "11": {"label": "*1", "atom_type": "O2s"}, "16": {"label": "*2", "atom_type": "H0"}}

>  <type>  (5) 
unop_1

>  <geom_source>  (5) 
crest_best.xyz

$$$$

     RDKit          3D

 17 15  0  0  0  0  0  0  0  0999 V2000
    0.5038    1.0996    0.6396 C   0  0  0  0  0  3  0  0  0  0  0  0
   -0.6749    1.2056    1.4135 O   0  0  0  0  0  0  0  0  0  0  0  0
   -0.4252    1.9562    2.5374 N   0  0  0  0  0  0  0  0  0  0  0  0
   -1.4522    2.0795    3.2631 C   0  0  0  0  0  0  0  0  0  0  0  0
    0.8474    2.0841    0.3142 H   0  0  0  0  0  0  0  0  0  0  0  0
    1.2977    0.6037    1.2028 H   0  0  0  0  0  0  0  0  0  0  0  0
   -1.3384    2.6584    4.1699 H   0  0  0  0  0  0  0  0  0  0  0  0
   -2.4098    1.6328    3.0044 H   0  0  0  0  0  0  0  0  0  0  0  0
    0.5038   -2.0722   -3.7631 C   0  0  0  0  0  0  0  0  0  0  0  0
    0.5038   -2.0722   -2.2745 C   0  0  0  0  0  0  0  0  0  0  0  0
    0.5038   -0.9801   -1.6377 N   0  0  0  0  0  0  0  0  0  0  0  0
    0.5038   -1.1848   -0.2645 O   0  0  0  0  0  0  0  0  0  0  0  0
    1.3832   -2.5960   -4.1449 H   0  0  0  0  0  0  0  0  0  0  0  0
   -0.3756   -2.5960   -4.1449 H   0  0  0  0  0  0  0  0  0  0  0  0
    0.5038   -1.0525   -4.1445 H   0  0  0  0  0  0  0  0  0  0  0  0
    0.5038   -3.0197   -1.7343 H   0  0  0  0  0  0  0  0  0  0  0  0
    0.5038   -0.1151    0.1589 H   0  0  0  0  0  0  0  0  0  0  0  0
  1  2  1  0
  1  5  1  0
  1  6  1  0
  2  3  1  0
  3  4  2  3
  4  7  1  0
  4  8  1  0
  9 10  1  0
  9 13  1  0
  9 14  1  0
  9 15  1  0
 10 11  2  3
 10 16  1  0
 11 12  1  0
 12 17  1  0
M  RAD  1   1   2
M  END
>  <reaction>  (6) 
rmg_rxn_15596

>  <mol_properties>  (6) 
{"0": {"label": "*3", "atom_type": "Cs"}, "1": {"label": "*4", "atom_type": "O2s"}, "10": {"label": "*0", "atom_type": "N3d"}, "11": {"label": "*1", "atom_type": "O2s"}, "16": {"label": "*2", "atom_type": "H0"}}

>  <type>  (6) 
unop_2

>  <geom_source>  (6) 
Heuristics

$$$$

     RDKit          3D

 17 15  0  0  0  0  0  0  0  0999 V2000
    1.6510   -1.0681   -0.6261 C   0  0  0  0  0  3  0  0  0  0  0  0
    2.4682   -0.2825    0.1765 O   0  0  0  0  0  0  0  0  0  0  0  0
    2.2711    1.0419    0.2733 N   0  0  0  0  0  0  0  0  0  0  0  0
    1.1816    1.5914   -0.0416 C   0  0  0  0  0  0  0  0  0  0  0  0
    1.4100   -0.6047   -1.5846 H   0  0  0  0  0  0  0  0  0  0  0  0
    2.1408   -2.0305   -0.7302 H   0  0  0  0  0  0  0  0  0  0  0  0
    1.1474    2.6621    0.0621 H   0  0  0  0  0  0  0  0  0  0  0  0
    0.2766    1.0758   -0.3679 H   0  0  0  0  0  0  0  0  0  0  0  0
   -3.2138    1.0213   -0.2418 C   0  0  0  0  0  0  0  0  0  0  0  0
   -2.5318   -0.2183    0.2125 C   0  0  0  0  0  0  0  0  0  0  0  0
   -1.3085   -0.3951   -0.0384 N   0  0  0  0  0  0  0  0  0  0  0  0
   -0.6313   -1.4583    0.3290 O   0  0  0  0  0  0  0  0  0  0  0  0
   -4.0511    0.7670   -0.8904 H   0  0  0  0  0  0  0  0  0  0  0  0
   -3.6111    1.5610    0.6171 H   0  0  0  0  0  0  0  0  0  0  0  0
   -2.5236    1.6638   -0.7814 H   0  0  0  0  0  0  0  0  0  0  0  0
   -3.1235   -0.9525    0.7607 H   0  0  0  0  0  0  0  0  0  0  0  0
    0.5105   -1.3005   -0.0674 H   0  0  0  0  0  0  0  0  0  0  0  0
  1  2  1  0
  1  5  1  0
  1  6  1  0
  2  3  1  0
  3  4  2  3
  4  7  1  0
  4  8  1  0
  9 10  1  0
  9 13  1  0
  9 14  1  0
  9 15  1  0
 10 11  2  3
 10 16  1  0
 11 12  1  0
 12 17  1  0
M  RAD  1   1   2
M  END
>  <reaction>  (7) 
rmg_rxn_15596

>  <mol_properties>  (7) 
{"0": {"label": "*3", "atom_type": "Cs"}, "1": {"label": "*4", "atom_type": "O2s"}, "10": {"label": "*0", "atom_type": "N3d"}, "11": {"label": "*1", "atom_type": "O2s"}, "16": {"label": "*2", "atom_type": "H0"}}

>  <type>  (7) 
unop_3

>  <geom_source>  (7) 
Heuristics

$$$$

     RDKit          3D

 17 15  0  0  0  0  0  0  0  0999 V2000
    0.4308    0.6640    1.6072 C   0  0  0  0  0  3  0  0  0  0  0  0
   -0.2497    1.4542    0.6522 O   0  0  0  0  0  0  0  0  0  0  0  0
   -0.6623    2.6295    1.2330 N   0  0  0  0  0  0  0  0  0  0  0  0
   -1.2775    3.3717    0.4161 C   0  0  0  0  0  0  0  0  0  0  0  0
    1.3174    1.1807    1.9816 H   0  0  0  0  0  0  0  0  0  0  0  0
   -0.2247    0.4111    2.4435 H   0  0  0  0  0  0  0  0  0  0  0  0
   -1.6362    4.3187    0.7967 H   0  0  0  0  0  0  0  0  0  0  0  0
   -1.4468    3.0884   -0.6205 H   0  0  0  0  0  0  0  0  0  0  0  0
    0.4308   -2.5078   -2.7956 C   0  0  0  0  0  0  0  0  0  0  0  0
    0.4308   -2.5078   -1.3070 C   0  0  0  0  0  0  0  0  0  0  0  0
    0.4308   -1.4157   -0.6702 N   0  0  0  0  0  0  0  0  0  0  0  0
    0.4308   -1.6204    0.7030 O   0  0  0  0  0  0  0  0  0  0  0  0
    1.3102   -3.0316   -3.1774 H   0  0  0  0  0  0  0  0  0  0  0  0
   -0.4486   -3.0316   -3.1774 H   0  0  0  0  0  0  0  0  0  0  0  0
    0.4308   -1.4881   -3.1770 H   0  0  0  0  0  0  0  0  0  0  0  0
    0.4308   -3.4553   -0.7668 H   0  0  0  0  0  0  0  0  0  0  0  0
    0.4308   -0.5507    1.1264 H   0  0  0  0  0  0  0  0  0  0  0  0
  1  2  1  0
  1  5  1  0
  1  6  1  0
  2  3  1  0
  3  4  2  3
  4  7  1  0
  4  8  1  0
  9 10  1  0
  9 13  1  0
  9 14  1  0
  9 15  1  0
 10 11  2  3
 10 16  1  0
 11 12  1  0
 12 17  1  0
M  RAD  1   1   2
M  END
>  <reaction>  (8) 
rmg_rxn_15596

>  <mol_properties>  (8) 
{"0": {"label": "*3", "atom_type": "Cs"}, "1": {"label": "*4", "atom_type": "O2s"}, "10": {"label": "*0", "atom_type": "N3d"}, "11": {"label": "*1", "atom_type": "O2s"}, "16": {"label": "*2", "atom_type": "H0"}}

>  <type>  (8) 
unop_4

>  <geom_source>  (8) 
Heuristics

$$$$

     RDKit          3D

 17 15  0  0  0  0  0  0  0  0999 V2000
    1.6499    1.0676    0.6280 C   0  0  0  0  0  3  0  0  0  0  0  0
    2.4686    0.2831   -0.1746 O   0  0  0  0  0  0  0  0  0  0  0  0
    2.2713   -1.0410   -0.2745 N   0  0  0  0  0  0  0  0  0  0  0  0
    1.1822   -1.5914    0.0401 C   0  0  0  0  0  0  0  0  0  0  0  0
    1.4083    0.6031    1.5858 H   0  0  0  0  0  0  0  0  0  0  0  0
    2.1394    2.0299    0.7338 H   0  0  0  0  0  0  0  0  0  0  0  0
    1.1482   -2.6619   -0.0659 H   0  0  0  0  0  0  0  0  0  0  0  0
    0.2772   -1.0772    0.3685 H   0  0  0  0  0  0  0  0  0  0  0  0
   -3.2128   -1.0216    0.2439 C   0  0  0  0  0  0  0  0  0  0  0  0
   -2.5326    0.2183   -0.2127 C   0  0  0  0  0  0  0  0  0  0  0  0
   -1.3092    0.3957    0.0367 N   0  0  0  0  0  0  0  0  0  0  0  0
   -0.6310    1.4575   -0.3308 O   0  0  0  0  0  0  0  0  0  0  0  0
   -3.6158   -1.5598   -0.6132 H   0  0  0  0  0  0  0  0  0  0  0  0
   -2.5197   -1.6650    0.7785 H   0  0  0  0  0  0  0  0  0  0  0  0
   -4.0458   -0.7676    0.8981 H   0  0  0  0  0  0  0  0  0  0  0  0
   -3.1258    0.9514   -0.7607 H   0  0  0  0  0  0  0  0  0  0  0  0
    0.5107    1.2995    0.0678 H   0  0  0  0  0  0  0  0  0  0  0  0
  1  2  1  0
  1  5  1  0
  1  6  1  0
  2  3  1  0
  3  4  2  3
  4  7  1  0
  4  8  1  0
  9 10  1  0
  9 13  1  0
  9 14  1  0
  9 15  1  0
 10 11  2  3
 10 16  1  0
 11 12  1  0
 12 17  1  0
M  RAD  1   1   2
M  END
>  <reaction>  (9) 
rmg_rxn_15596

>  <mol_properties>  (9) 
{"0": {"label": "*3", "atom_type": "Cs"}, "1": {"label": "*4", "atom_type": "O2s"}, "10": {"label": "*0", "atom_type": "N3d"}, "11": {"label": "*1", "atom_type": "O2s"}, "16": {"label": "*2", "atom_type": "H0"}}

>  <type>  (9) 
unop_5

>  <geom_source>  (9) 
Heuristics

$$$$

     RDKit          3D

 17 15  0  0  0  0  0  0  0  0999 V2000
    0.2198    1.1223    0.4915 C   0  0  0  0  0  3  0  0  0  0  0  0
   -0.4607    1.0450    1.7286 O   0  0  0  0  0  0  0  0  0  0  0  0
   -0.0338    2.0559    2.5560 N   0  0  0  0  0  0  0  0  0  0  0  0
   -0.6155    2.0283    3.6774 C   0  0  0  0  0  0  0  0  0  0  0  0
    0.0153    2.0718   -0.0083 H   0  0  0  0  0  0  0  0  0  0  0  0
    1.2972    1.0077    0.6304 H   0  0  0  0  0  0  0  0  0  0  0  0
   -0.3344    2.7937    4.3884 H   0  0  0  0  0  0  0  0  0  0  0  0
   -1.3632    1.2801    3.9317 H   0  0  0  0  0  0  0  0  0  0  0  0
    0.2198   -2.0495   -3.9113 C   0  0  0  0  0  0  0  0  0  0  0  0
    0.2198   -2.0495   -2.4226 C   0  0  0  0  0  0  0  0  0  0  0  0
    0.2198   -0.9574   -1.7858 N   0  0  0  0  0  0  0  0  0  0  0  0
    0.2198   -1.1621   -0.4126 O   0  0  0  0  0  0  0  0  0  0  0  0
    1.0993   -2.5733   -4.2931 H   0  0  0  0  0  0  0  0  0  0  0  0
   -0.6596   -2.5733   -4.2931 H   0  0  0  0  0  0  0  0  0  0  0  0
    0.2198   -1.0298   -4.2927 H   0  0  0  0  0  0  0  0  0  0  0  0
    0.2198   -2.9970   -1.8825 H   0  0  0  0  0  0  0  0  0  0  0  0
    0.2198   -0.0924    0.0107 H   0  0  0  0  0  0  0  0  0  0  0  0
  1  2  1  0
  1  5  1  0
  1  6  1  0
  2  3  1  0
  3  4  2  3
  4  7  1  0
  4  8  1  0
  9 10  1  0
  9 13  1  0
  9 14  1  0
  9 15  1  0
 10 11  2  3
 10 16  1  0
 11 12  1  0
 12 17  1  0
M  RAD  1   1   2
M  END
>  <reaction>  (10) 
rmg_rxn_15596

>  <mol_properties>  (10) 
{"0": {"label": "*3", "atom_type": "Cs"}, "1": {"label": "*4", "atom_type": "O2s"}, "10": {"label": "*0", "atom_type": "N3d"}, "11": {"label": "*1", "atom_type": "O2s"}, "16": {"label": "*2", "atom_type": "H0"}}

>  <type>  (10) 
unop_6

>  <geom_source>  (10) 
Heuristics

$$$$

     RDKit          3D

 17 15  0  0  0  0  0  0  0  0999 V2000
   -0.6846    0.8188    1.3000 C   0  0  0  0  0  3  0  0  0  0  0  0
    0.4941    1.4257    0.8083 O   0  0  0  0  0  0  0  0  0  0  0  0
    0.9638    2.3354    1.7252 N   0  0  0  0  0  0  0  0  0  0  0  0
    2.0196    2.9058    1.3292 C   0  0  0  0  0  0  0  0  0  0  0  0
   -0.4890    0.2833    2.2318 H   0  0  0  0  0  0  0  0  0  0  0  0
   -1.4678    1.5624    1.4640 H   0  0  0  0  0  0  0  0  0  0  0  0
    2.4541    3.6385    1.9960 H   0  0  0  0  0  0  0  0  0  0  0  0
    2.4814    2.6833    0.3697 H   0  0  0  0  0  0  0  0  0  0  0  0
   -0.6846   -2.3529   -3.1027 C   0  0  0  0  0  0  0  0  0  0  0  0
   -0.6846   -2.3529   -1.6141 C   0  0  0  0  0  0  0  0  0  0  0  0
   -0.6846   -1.2609   -0.9773 N   0  0  0  0  0  0  0  0  0  0  0  0
   -0.6846   -1.4655    0.3959 O   0  0  0  0  0  0  0  0  0  0  0  0
    0.1948   -2.8768   -3.4845 H   0  0  0  0  0  0  0  0  0  0  0  0
   -1.5641   -2.8768   -3.4845 H   0  0  0  0  0  0  0  0  0  0  0  0
   -0.6846   -1.3332   -3.4842 H   0  0  0  0  0  0  0  0  0  0  0  0
   -0.6847   -3.3004   -1.0739 H   0  0  0  0  0  0  0  0  0  0  0  0
   -0.6846   -0.3959    0.8193 H   0  0  0  0  0  0  0  0  0  0  0  0
  1  2  1  0
  1  5  1  0
  1  6  1  0
  2  3  1  0
  3  4  2  3
  4  7  1  0
  4  8  1  0
  9 10  1  0
  9 13  1  0
  9 14  1  0
  9 15  1  0
 10 11  2  3
 10 16  1  0
 11 12  1  0
 12 17  1  0
M  RAD  1   1   2
M  END
>  <reaction>  (11) 
rmg_rxn_15596

>  <mol_properties>  (11) 
{"0": {"label": "*3", "atom_type": "Cs"}, "1": {"label": "*4", "atom_type": "O2s"}, "10": {"label": "*0", "atom_type": "N3d"}, "11": {"label": "*1", "atom_type": "O2s"}, "16": {"label": "*2", "atom_type": "H0"}}

>  <type>  (11) 
unop_7

>  <geom_source>  (11) 
Heuristics

$$$$

     RDKit          3D

 17 15  0  0  0  0  0  0  0  0999 V2000
    1.6513   -1.0681   -0.6262 C   0  0  0  0  0  3  0  0  0  0  0  0
    2.4686   -0.2817    0.1760 O   0  0  0  0  0  0  0  0  0  0  0  0
    2.2700    1.0423    0.2735 N   0  0  0  0  0  0  0  0  0  0  0  0
    1.1801    1.5911   -0.0413 C   0  0  0  0  0  0  0  0  0  0  0  0
    1.4107   -0.6052   -1.5850 H   0  0  0  0  0  0  0  0  0  0  0  0
    2.1419   -2.0301   -0.7301 H   0  0  0  0  0  0  0  0  0  0  0  0
    1.1450    2.6617    0.0630 H   0  0  0  0  0  0  0  0  0  0  0  0
    0.2755    1.0753   -0.3687 H   0  0  0  0  0  0  0  0  0  0  0  0
   -3.2123    1.0219   -0.2421 C   0  0  0  0  0  0  0  0  0  0  0  0
   -2.5318   -0.2187    0.2121 C   0  0  0  0  0  0  0  0  0  0  0  0
   -1.3084   -0.3960   -0.0375 N   0  0  0  0  0  0  0  0  0  0  0  0
   -0.6310   -1.4588    0.3291 O   0  0  0  0  0  0  0  0  0  0  0  0
   -2.5194    1.6671   -0.7750 H   0  0  0  0  0  0  0  0  0  0  0  0
   -4.0451    0.7691   -0.8974 H   0  0  0  0  0  0  0  0  0  0  0  0
   -3.6159    1.5581    0.6160 H   0  0  0  0  0  0  0  0  0  0  0  0
   -3.1251   -0.9531    0.7585 H   0  0  0  0  0  0  0  0  0  0  0  0
    0.5115   -1.3005   -0.0673 H   0  0  0  0  0  0  0  0  0  0  0  0
  1  2  1  0
  1  5  1  0
  1  6  1  0
  2  3  1  0
  3  4  2  3
  4  7  1  0
  4  8  1  0
  9 10  1  0
  9 13  1  0
  9 14  1  0
  9 15  1  0
 10 11  2  3
 10 16  1  0
 11 12  1  0
 12 17  1  0
M  RAD  1   1   2
M  END
>  <reaction>  (12) 
rmg_rxn_15596

>  <mol_properties>  (12) 
{"0": {"label": "*3", "atom_type": "Cs"}, "1": {"label": "*4", "atom_type": "O2s"}, "10": {"label": "*0", "atom_type": "N3d"}, "11": {"label": "*1", "atom_type": "O2s"}, "16": {"label": "*2", "atom_type": "H0"}}

>  <type>  (12) 
unop_8

>  <geom_source>  (12) 
Heuristics

$$$$

     RDKit          3D

 17 15  0  0  0  0  0  0  0  0999 V2000
    0.0000    1.0970    0.4689 C   0  0  0  0  0  3  0  0  0  0  0  0
    0.0000    0.9526    1.8756 O   0  0  0  0  0  0  0  0  0  0  0  0
   -0.0000    2.1924    2.4685 N   0  0  0  0  0  0  0  0  0  0  0  0
   -0.0000    2.1150    3.7297 C   0  0  0  0  0  0  0  0  0  0  0  0
   -0.8921    1.6289    0.1308 H   0  0  0  0  0  0  0  0  0  0  0  0
    0.8921    1.6289    0.1308 H   0  0  0  0  0  0  0  0  0  0  0  0
   -0.0000    3.0505    4.2729 H   0  0  0  0  0  0  0  0  0  0  0  0
    0.0000    1.1643    4.2586 H   0  0  0  0  0  0  0  0  0  0  0  0
    0.0000   -2.0748   -3.9338 C   0  0  0  0  0  0  0  0  0  0  0  0
    0.0000   -2.0748   -2.4452 C   0  0  0  0  0  0  0  0  0  0  0  0
    0.0000   -0.9827   -1.8084 N   0  0  0  0  0  0  0  0  0  0  0  0
    0.0000   -1.1874   -0.4352 O   0  0  0  0  0  0  0  0  0  0  0  0
    0.8794   -2.5986   -4.3156 H   0  0  0  0  0  0  0  0  0  0  0  0
   -0.8794   -2.5986   -4.3156 H   0  0  0  0  0  0  0  0  0  0  0  0
    0.0000   -1.0551   -4.3153 H   0  0  0  0  0  0  0  0  0  0  0  0
    0.0000   -3.0223   -1.9050 H   0  0  0  0  0  0  0  0  0  0  0  0
    0.0000   -0.1177   -0.0118 H   0  0  0  0  0  0  0  0  0  0  0  0
  1  2  1  0
  1  5  1  0
  1  6  1  0
  2  3  1  0
  3  4  2  3
  4  7  1  0
  4  8  1  0
  9 10  1  0
  9 13  1  0
  9 14  1  0
  9 15  1  0
 10 11  2  3
 10 16  1  0
 11 12  1  0
 12 17  1  0
M  RAD  1   1   2
M  END
>  <reaction>  (13) 
rmg_rxn_15596

>  <mol_properties>  (13) 
{"0": {"label": "*3", "atom_type": "Cs"}, "1": {"label": "*4", "atom_type": "O2s"}, "10": {"label": "*0", "atom_type": "N3d"}, "11": {"label": "*1", "atom_type": "O2s"}, "16": {"label": "*2", "atom_type": "H0"}}

>  <type>  (13) 
unop_9

>  <geom_source>  (13) 
Heuristics

$$$$

     RDKit          3D

 17 15  0  0  0  0  0  0  0  0999 V2000
   -1.6511   -1.0682   -0.6267 C   0  0  0  0  0  3  0  0  0  0  0  0
   -2.4683   -0.2836    0.1773 O   0  0  0  0  0  0  0  0  0  0  0  0
   -2.2723    1.0408    0.2746 N   0  0  0  0  0  0  0  0  0  0  0  0
   -1.1846    1.5920   -0.0432 C   0  0  0  0  0  0  0  0  0  0  0  0
   -2.1402   -2.0308   -0.7308 H   0  0  0  0  0  0  0  0  0  0  0  0
   -1.4119   -0.6040   -1.5853 H   0  0  0  0  0  0  0  0  0  0  0  0
   -1.1518    2.6627    0.0609 H   0  0  0  0  0  0  0  0  0  0  0  0
   -0.2798    1.0781   -0.3730 H   0  0  0  0  0  0  0  0  0  0  0  0
    3.2159    1.0207   -0.2416 C   0  0  0  0  0  0  0  0  0  0  0  0
    2.5327   -0.2180    0.2135 C   0  0  0  0  0  0  0  0  0  0  0  0
    1.3097   -0.3946   -0.0385 N   0  0  0  0  0  0  0  0  0  0  0  0
    0.6315   -1.4570    0.3284 O   0  0  0  0  0  0  0  0  0  0  0  0
    3.6146    1.5601    0.6168 H   0  0  0  0  0  0  0  0  0  0  0  0
    4.0524    0.7655   -0.8910 H   0  0  0  0  0  0  0  0  0  0  0  0
    2.5261    1.6639   -0.7807 H   0  0  0  0  0  0  0  0  0  0  0  0
    3.1239   -0.9522    0.7624 H   0  0  0  0  0  0  0  0  0  0  0  0
   -0.5104   -1.2993   -0.0688 H   0  0  0  0  0  0  0  0  0  0  0  0
  1  2  1  0
  1  5  1  0
  1  6  1  0
  2  3  1  0
  3  4  2  3
  4  7  1  0
  4  8  1  0
  9 10  1  0
  9 13  1  0
  9 14  1  0
  9 15  1  0
 10 11  2  3
 10 16  1  0
 11 12  1  0
 12 17  1  0
M  RAD  1   1   2
M  END
>  <reaction>  (14) 
rmg_rxn_15596

>  <mol_properties>  (14) 
{"0": {"label": "*3", "atom_type": "Cs"}, "1": {"label": "*4", "atom_type": "O2s"}, "10": {"label": "*0", "atom_type": "N3d"}, "11": {"label": "*1", "atom_type": "O2s"}, "16": {"label": "*2", "atom_type": "H0"}}

>  <type>  (14) 
unop_10

>  <geom_source>  (14) 
Heuristics

$$$$

     RDKit          3D

 17 15  0  0  0  0  0  0  0  0999 V2000
   -0.6973    0.9852    0.9363 C   0  0  0  0  0  3  0  0  0  0  0  0
    0.6638    1.3417    1.0774 O   0  0  0  0  0  0  0  0  0  0  0  0
    0.8350    2.0684    2.2312 N   0  0  0  0  0  0  0  0  0  0  0  0
    2.0393    2.4111    2.4014 C   0  0  0  0  0  0  0  0  0  0  0  0
   -1.0278    0.3659    1.7732 H   0  0  0  0  0  0  0  0  0  0  0  0
   -1.3289    1.8738    0.8681 H   0  0  0  0  0  0  0  0  0  0  0  0
    2.2582    2.9881    3.2899 H   0  0  0  0  0  0  0  0  0  0  0  0
    2.8284    2.1478    1.7003 H   0  0  0  0  0  0  0  0  0  0  0  0
   -0.6973   -2.1866   -3.4665 C   0  0  0  0  0  0  0  0  0  0  0  0
   -0.6973   -2.1866   -1.9778 C   0  0  0  0  0  0  0  0  0  0  0  0
   -0.6973   -1.0945   -1.3410 N   0  0  0  0  0  0  0  0  0  0  0  0
   -0.6973   -1.2992    0.0322 O   0  0  0  0  0  0  0  0  0  0  0  0
    0.1821   -2.7104   -3.8483 H   0  0  0  0  0  0  0  0  0  0  0  0
   -1.5767   -2.7104   -3.8483 H   0  0  0  0  0  0  0  0  0  0  0  0
   -0.6973   -1.1669   -3.8479 H   0  0  0  0  0  0  0  0  0  0  0  0
   -0.6973   -3.1341   -1.4377 H   0  0  0  0  0  0  0  0  0  0  0  0
   -0.6973   -0.2295    0.4555 H   0  0  0  0  0  0  0  0  0  0  0  0
  1  2  1  0
  1  5  1  0
  1  6  1  0
  2  3  1  0
  3  4  2  3
  4  7  1  0
  4  8  1  0
  9 10  1  0
  9 13  1  0
  9 14  1  0
  9 15  1  0
 10 11  2  3
 10 16  1  0
 11 12  1  0
 12 17  1  0
M  RAD  1   1   2
M  END
>  <reaction>  (15) 
rmg_rxn_15596

>  <mol_properties>  (15) 
{"0": {"label": "*3", "atom_type": "Cs"}, "1": {"label": "*4", "atom_type": "O2s"}, "10": {"label": "*0", "atom_type": "N3d"}, "11": {"label": "*1", "atom_type": "O2s"}, "16": {"label": "*2", "atom_type": "H0"}}

>  <type>  (15) 
unop_11

>  <geom_source>  (15) 
Heuristics

$$$$

     RDKit          3D

 17 15  0  0  0  0  0  0  0  0999 V2000
   -1.6499    1.0678   -0.6275 C   0  0  0  0  0  3  0  0  0  0  0  0
   -2.4686    0.2836    0.1752 O   0  0  0  0  0  0  0  0  0  0  0  0
   -2.2724   -1.0406    0.2741 N   0  0  0  0  0  0  0  0  0  0  0  0
   -1.1836   -1.5917   -0.0406 C   0  0  0  0  0  0  0  0  0  0  0  0
   -1.4084    0.6030   -1.5853 H   0  0  0  0  0  0  0  0  0  0  0  0
   -2.1391    2.0302   -0.7335 H   0  0  0  0  0  0  0  0  0  0  0  0
   -1.1506   -2.6623    0.0646 H   0  0  0  0  0  0  0  0  0  0  0  0
   -0.2782   -1.0778   -0.3684 H   0  0  0  0  0  0  0  0  0  0  0  0
    3.2145   -1.0211   -0.2432 C   0  0  0  0  0  0  0  0  0  0  0  0
    2.5326    0.2180    0.2130 C   0  0  0  0  0  0  0  0  0  0  0  0
    1.3094    0.3951   -0.0379 N   0  0  0  0  0  0  0  0  0  0  0  0
    0.6314    1.4571    0.3305 O   0  0  0  0  0  0  0  0  0  0  0  0
    3.6121   -1.5620    0.6148 H   0  0  0  0  0  0  0  0  0  0  0  0
    2.5242   -1.6627   -0.7834 H   0  0  0  0  0  0  0  0  0  0  0  0
    4.0516   -0.7661   -0.8919 H   0  0  0  0  0  0  0  0  0  0  0  0
    3.1244    0.9513    0.7622 H   0  0  0  0  0  0  0  0  0  0  0  0
   -0.5103    1.2997   -0.0677 H   0  0  0  0  0  0  0  0  0  0  0  0
  1  2  1  0
  1  5  1  0
  1  6  1  0
  2  3  1  0
  3  4  2  3
  4  7  1  0
  4  8  1  0
  9 10  1  0
  9 13  1  0
  9 14  1  0
  9 15  1  0
 10 11  2  3
 10 16  1  0
 11 12  1  0
 12 17  1  0
M  RAD  1   1   2
M  END
>  <reaction>  (16) 
rmg_rxn_15596

>  <mol_properties>  (16) 
{"0": {"label": "*3", "atom_type": "Cs"}, "1": {"label": "*4", "atom_type": "O2s"}, "10": {"label": "*0", "atom_type": "N3d"}, "11": {"label": "*1", "atom_type": "O2s"}, "16": {"label": "*2", "atom_type": "H0"}}

>  <type>  (16) 
unop_12

>  <geom_source>  (16) 
Heuristics

$$$$

     RDKit          3D

 17 15  0  0  0  0  0  0  0  0999 V2000
   -0.5038    1.0996    0.6396 C   0  0  0  0  0  3  0  0  0  0  0  0
    0.6749    1.2056    1.4135 O   0  0  0  0  0  0  0  0  0  0  0  0
    0.4252    1.9561    2.5374 N   0  0  0  0  0  0  0  0  0  0  0  0
    1.4522    2.0794    3.2632 C   0  0  0  0  0  0  0  0  0  0  0  0
   -1.2977    0.6038    1.2028 H   0  0  0  0  0  0  0  0  0  0  0  0
   -0.8474    2.0841    0.3142 H   0  0  0  0  0  0  0  0  0  0  0  0
    1.3384    2.6583    4.1699 H   0  0  0  0  0  0  0  0  0  0  0  0
    2.4099    1.6329    3.0044 H   0  0  0  0  0  0  0  0  0  0  0  0
   -0.5038   -2.0722   -3.7631 C   0  0  0  0  0  0  0  0  0  0  0  0
   -0.5038   -2.0722   -2.2745 C   0  0  0  0  0  0  0  0  0  0  0  0
   -0.5038   -0.9801   -1.6377 N   0  0  0  0  0  0  0  0  0  0  0  0
   -0.5038   -1.1848   -0.2645 O   0  0  0  0  0  0  0  0  0  0  0  0
    0.3756   -2.5960   -4.1449 H   0  0  0  0  0  0  0  0  0  0  0  0
   -1.3832   -2.5960   -4.1449 H   0  0  0  0  0  0  0  0  0  0  0  0
   -0.5038   -1.0525   -4.1445 H   0  0  0  0  0  0  0  0  0  0  0  0
   -0.5038   -3.0197   -1.7343 H   0  0  0  0  0  0  0  0  0  0  0  0
   -0.5038   -0.1151    0.1589 H   0  0  0  0  0  0  0  0  0  0  0  0
  1  2  1  0
  1  5  1  0
  1  6  1  0
  2  3  1  0
  3  4  2  3
  4  7  1  0
  4  8  1  0
  9 10  1  0
  9 13  1  0
  9 14  1  0
  9 15  1  0
 10 11  2  3
 10 16  1  0
 11 12  1  0
 12 17  1  0
M  RAD  1   1   2
M  END
>  <reaction>  (17) 
rmg_rxn_15596

>  <mol_properties>  (17) 
{"0": {"label": "*3", "atom_type": "Cs"}, "1": {"label": "*4", "atom_type": "O2s"}, "10": {"label": "*0", "atom_type": "N3d"}, "11": {"label": "*1", "atom_type": "O2s"}, "16": {"label": "*2", "atom_type": "H0"}}

>  <type>  (17) 
unop_13

>  <geom_source>  (17) 
Heuristics

$$$$

     RDKit          3D

 17 15  0  0  0  0  0  0  0  0999 V2000
   -1.6504    1.0674    0.6279 C   0  0  0  0  0  3  0  0  0  0  0  0
   -2.4679    0.2824   -0.1752 O   0  0  0  0  0  0  0  0  0  0  0  0
   -2.2701   -1.0416   -0.2744 N   0  0  0  0  0  0  0  0  0  0  0  0
   -1.1808   -1.5914    0.0403 C   0  0  0  0  0  0  0  0  0  0  0  0
   -2.1407    2.0292    0.7340 H   0  0  0  0  0  0  0  0  0  0  0  0
   -1.4083    0.6027    1.5855 H   0  0  0  0  0  0  0  0  0  0  0  0
   -1.1463   -2.6619   -0.0653 H   0  0  0  0  0  0  0  0  0  0  0  0
   -0.2760   -1.0765    0.3684 H   0  0  0  0  0  0  0  0  0  0  0  0
    3.2127   -1.0208    0.2439 C   0  0  0  0  0  0  0  0  0  0  0  0
    2.5311    0.2177   -0.2141 C   0  0  0  0  0  0  0  0  0  0  0  0
    1.3086    0.3965    0.0390 N   0  0  0  0  0  0  0  0  0  0  0  0
    0.6304    1.4580   -0.3309 O   0  0  0  0  0  0  0  0  0  0  0  0
    3.6057   -1.5658   -0.6136 H   0  0  0  0  0  0  0  0  0  0  0  0
    4.0528   -0.7649    0.8881 H   0  0  0  0  0  0  0  0  0  0  0  0
    2.5233   -1.6592    0.7893 H   0  0  0  0  0  0  0  0  0  0  0  0
    3.1224    0.9490   -0.7666 H   0  0  0  0  0  0  0  0  0  0  0  0
   -0.5109    1.3008    0.0680 H   0  0  0  0  0  0  0  0  0  0  0  0
  1  2  1  0
  1  5  1  0
  1  6  1  0
  2  3  1  0
  3  4  2  3
  4  7  1  0
  4  8  1  0
  9 10  1  0
  9 13  1  0
  9 14  1  0
  9 15  1  0
 10 11  2  3
 10 16  1  0
 11 12  1  0
 12 17  1  0
M  RAD  1   1   2
M  END
>  <reaction>  (18) 
rmg_rxn_15596

>  <mol_properties>  (18) 
{"0": {"label": "*3", "atom_type": "Cs"}, "1": {"label": "*4", "atom_type": "O2s"}, "10": {"label": "*0", "atom_type": "N3d"}, "11": {"label": "*1", "atom_type": "O2s"}, "16": {"label": "*2", "atom_type": "H0"}}

>  <type>  (18) 
unop_14

>  <geom_source>  (18) 
Heuristics

$$$$

     RDKit          3D

 17 15  0  0  0  0  0  0  0  0999 V2000
    0.6973    0.9852    0.9363 C   0  0  0  0  0  3  0  0  0  0  0  0
   -0.6638    1.3417    1.0774 O   0  0  0  0  0  0  0  0  0  0  0  0
   -0.8350    2.0684    2.2312 N   0  0  0  0  0  0  0  0  0  0  0  0
   -2.0393    2.4111    2.4014 C   0  0  0  0  0  0  0  0  0  0  0  0
    1.3289    1.8738    0.8681 H   0  0  0  0  0  0  0  0  0  0  0  0
    1.0278    0.3659    1.7732 H   0  0  0  0  0  0  0  0  0  0  0  0
   -2.2582    2.9881    3.2899 H   0  0  0  0  0  0  0  0  0  0  0  0
   -2.8284    2.1478    1.7003 H   0  0  0  0  0  0  0  0  0  0  0  0
    0.6973   -2.1866   -3.4665 C   0  0  0  0  0  0  0  0  0  0  0  0
    0.6973   -2.1866   -1.9778 C   0  0  0  0  0  0  0  0  0  0  0  0
    0.6973   -1.0945   -1.3410 N   0  0  0  0  0  0  0  0  0  0  0  0
    0.6973   -1.2992    0.0322 O   0  0  0  0  0  0  0  0  0  0  0  0
    1.5767   -2.7104   -3.8483 H   0  0  0  0  0  0  0  0  0  0  0  0
   -0.1821   -2.7104   -3.8483 H   0  0  0  0  0  0  0  0  0  0  0  0
    0.6973   -1.1669   -3.8479 H   0  0  0  0  0  0  0  0  0  0  0  0
    0.6973   -3.1341   -1.4377 H   0  0  0  0  0  0  0  0  0  0  0  0
    0.6973   -0.2295    0.4555 H   0  0  0  0  0  0  0  0  0  0  0  0
  1  2  1  0
  1  5  1  0
  1  6  1  0
  2  3  1  0
  3  4  2  3
  4  7  1  0
  4  8  1  0
  9 10  1  0
  9 13  1  0
  9 14  1  0
  9 15  1  0
 10 11  2  3
 10 16  1  0
 11 12  1  0
 12 17  1  0
M  RAD  1   1   2
M  END
>  <reaction>  (19) 
rmg_rxn_15596

>  <mol_properties>  (19) 
{"0": {"label": "*3", "atom_type": "Cs"}, "1": {"label": "*4", "atom_type": "O2s"}, "10": {"label": "*0", "atom_type": "N3d"}, "11": {"label": "*1", "atom_type": "O2s"}, "16": {"label": "*2", "atom_type": "H0"}}

>  <type>  (19) 
unop_15

>  <geom_source>  (19) 
Heuristics

$$$$

     RDKit          3D

 17 15  0  0  0  0  0  0  0  0999 V2000
   -0.9307   -0.1863    1.3423 C   0  0  0  0  0  3  0  0  0  0  0  0
   -1.5026   -0.9322    0.3074 O   0  0  0  0  0  0  0  0  0  0  0  0
   -2.2079   -0.3316   -0.6764 N   0  0  0  0  0  0  0  0  0  0  0  0
   -2.2683    0.9216   -0.7946 C   0  0  0  0  0  0  0  0  0  0  0  0
   -1.6229    0.5212    1.7995 H   0  0  0  0  0  0  0  0  0  0  0  0
   -0.5445   -0.9054    2.0574 H   0  0  0  0  0  0  0  0  0  0  0  0
   -2.8611    1.2820   -1.6173 H   0  0  0  0  0  0  0  0  0  0  0  0
   -1.7689    1.6552   -0.1678 H   0  0  0  0  0  0  0  0  0  0  0  0
    1.7580   -1.5207   -0.2787 C   0  0  0  0  0  0  0  0  0  0  0  0
    2.3970   -0.1803   -0.4964 C   0  0  0  0  0  0  0  0  0  0  0  0
    1.9674    0.9433   -0.1325 N   0  0  0  0  0  0  0  0  0  0  0  0
    0.9075    1.2898    0.4891 O   0  0  0  0  0  0  0  0  0  0  0  0
    0.6949   -1.4943   -0.5105 H   0  0  0  0  0  0  0  0  0  0  0  0
    2.2395   -2.2640   -0.9064 H   0  0  0  0  0  0  0  0  0  0  0  0
    1.8676   -1.8209    0.7639 H   0  0  0  0  0  0  0  0  0  0  0  0
    3.3469   -0.1456   -1.0103 H   0  0  0  0  0  0  0  0  0  0  0  0
    0.0432    0.5007    0.8996 H   0  0  0  0  0  0  0  0  0  0  0  0
  1  2  1  0
  1  5  1  0
  1  6  1  0
  2  3  1  0
  3  4  2  3
  4  7  1  0
  4  8  1  0
  9 10  1  0
  9 13  1  0
  9 14  1  0
  9 15  1  0
 10 11  2  3
 10 16  1  0
 11 12  1  0
 12 17  1  0
M  RAD  1   1   2
M  END
>  <reaction>  (20) 
rmg_rxn_15596

>  <mol_properties>  (20) 
{"0": {"label": "*3", "atom_type": "Cs"}, "1": {"label": "*4", "atom_type": "O2s"}, "10": {"label": "*0", "atom_type": "N3d"}, "11": {"label": "*1", "atom_type": "O2s"}, "16": {"label": "*2", "atom_type": "H0"}}

>  <type>  (20) 
unop_16

>  <geom_source>  (20) 
Heuristics

$$$$

     RDKit          3D

 17 15  0  0  0  0  0  0  0  0999 V2000
   -0.4308    0.6640    1.6071 C   0  0  0  0  0  3  0  0  0  0  0  0
    0.2497    1.4542    0.6522 O   0  0  0  0  0  0  0  0  0  0  0  0
    0.6623    2.6294    1.2330 N   0  0  0  0  0  0  0  0  0  0  0  0
    1.2775    3.3717    0.4161 C   0  0  0  0  0  0  0  0  0  0  0  0
    0.2247    0.4111    2.4435 H   0  0  0  0  0  0  0  0  0  0  0  0
   -1.3174    1.1807    1.9815 H   0  0  0  0  0  0  0  0  0  0  0  0
    1.6362    4.3187    0.7967 H   0  0  0  0  0  0  0  0  0  0  0  0
    1.4467    3.0884   -0.6205 H   0  0  0  0  0  0  0  0  0  0  0  0
   -0.4308   -2.5078   -2.7956 C   0  0  0  0  0  0  0  0  0  0  0  0
   -0.4308   -2.5078   -1.3070 C   0  0  0  0  0  0  0  0  0  0  0  0
   -0.4308   -1.4157   -0.6702 N   0  0  0  0  0  0  0  0  0  0  0  0
   -0.4308   -1.6204    0.7030 O   0  0  0  0  0  0  0  0  0  0  0  0
    0.4486   -3.0316   -3.1774 H   0  0  0  0  0  0  0  0  0  0  0  0
   -1.3103   -3.0316   -3.1774 H   0  0  0  0  0  0  0  0  0  0  0  0
   -0.4308   -1.4881   -3.1770 H   0  0  0  0  0  0  0  0  0  0  0  0
   -0.4308   -3.4553   -0.7668 H   0  0  0  0  0  0  0  0  0  0  0  0
   -0.4308   -0.5507    1.1264 H   0  0  0  0  0  0  0  0  0  0  0  0
  1  2  1  0
  1  5  1  0
  1  6  1  0
  2  3  1  0
  3  4  2  3
  4  7  1  0
  4  8  1  0
  9 10  1  0
  9 13  1  0
  9 14  1  0
  9 15  1  0
 10 11  2  3
 10 16  1  0
 11 12  1  0
 12 17  1  0
M  RAD  1   1   2
M  END
>  <reaction>  (21) 
rmg_rxn_15596

>  <mol_properties>  (21) 
{"0": {"label": "*3", "atom_type": "Cs"}, "1": {"label": "*4", "atom_type": "O2s"}, "10": {"label": "*0", "atom_type": "N3d"}, "11": {"label": "*1", "atom_type": "O2s"}, "16": {"label": "*2", "atom_type": "H0"}}

>  <type>  (21) 
unop_17

>  <geom_source>  (21) 
Heuristics

$$$$

     RDKit          3D

 17 15  0  0  0  0  0  0  0  0999 V2000
    0.6846    0.8188    1.3000 C   0  0  0  0  0  3  0  0  0  0  0  0
   -0.4941    1.4257    0.8083 O   0  0  0  0  0  0  0  0  0  0  0  0
   -0.9637    2.3355    1.7251 N   0  0  0  0  0  0  0  0  0  0  0  0
   -2.0195    2.9058    1.3292 C   0  0  0  0  0  0  0  0  0  0  0  0
    1.4678    1.5624    1.4640 H   0  0  0  0  0  0  0  0  0  0  0  0
    0.4890    0.2833    2.2318 H   0  0  0  0  0  0  0  0  0  0  0  0
   -2.4540    3.6385    1.9960 H   0  0  0  0  0  0  0  0  0  0  0  0
   -2.4814    2.6833    0.3697 H   0  0  0  0  0  0  0  0  0  0  0  0
    0.6846   -2.3529   -3.1027 C   0  0  0  0  0  0  0  0  0  0  0  0
    0.6846   -2.3529   -1.6141 C   0  0  0  0  0  0  0  0  0  0  0  0
    0.6846   -1.2609   -0.9773 N   0  0  0  0  0  0  0  0  0  0  0  0
    0.6846   -1.4655    0.3959 O   0  0  0  0  0  0  0  0  0  0  0  0
    1.5641   -2.8768   -3.4845 H   0  0  0  0  0  0  0  0  0  0  0  0
   -0.1948   -2.8768   -3.4845 H   0  0  0  0  0  0  0  0  0  0  0  0
    0.6846   -1.3332   -3.4842 H   0  0  0  0  0  0  0  0  0  0  0  0
    0.6846   -3.3004   -1.0739 H   0  0  0  0  0  0  0  0  0  0  0  0
    0.6846   -0.3959    0.8193 H   0  0  0  0  0  0  0  0  0  0  0  0
  1  2  1  0
  1  5  1  0
  1  6  1  0
  2  3  1  0
  3  4  2  3
  4  7  1  0
  4  8  1  0
  9 10  1  0
  9 13  1  0
  9 14  1  0
  9 15  1  0
 10 11  2  3
 10 16  1  0
 11 12  1  0
 12 17  1  0
M  RAD  1   1   2
M  END
>  <reaction>  (22) 
rmg_rxn_15596

>  <mol_properties>  (22) 
{"0": {"label": "*3", "atom_type": "Cs"}, "1": {"label": "*4", "atom_type": "O2s"}, "10": {"label": "*0", "atom_type": "N3d"}, "11": {"label": "*1", "atom_type": "O2s"}, "16": {"label": "*2", "atom_type": "H0"}}

>  <type>  (22) 
unop_18

>  <geom_source>  (22) 
Heuristics

$$$$

     RDKit          3D

 17 15  0  0  0  0  0  0  0  0999 V2000
   -0.2198    1.1223    0.4915 C   0  0  0  0  0  3  0  0  0  0  0  0
    0.4607    1.0450    1.7286 O   0  0  0  0  0  0  0  0  0  0  0  0
    0.0338    2.0559    2.5560 N   0  0  0  0  0  0  0  0  0  0  0  0
    0.6155    2.0283    3.6774 C   0  0  0  0  0  0  0  0  0  0  0  0
   -1.2972    1.0077    0.6304 H   0  0  0  0  0  0  0  0  0  0  0  0
   -0.0153    2.0718   -0.0083 H   0  0  0  0  0  0  0  0  0  0  0  0
    0.3343    2.7937    4.3884 H   0  0  0  0  0  0  0  0  0  0  0  0
    1.3632    1.2801    3.9317 H   0  0  0  0  0  0  0  0  0  0  0  0
   -0.2198   -2.0495   -3.9113 C   0  0  0  0  0  0  0  0  0  0  0  0
   -0.2198   -2.0495   -2.4226 C   0  0  0  0  0  0  0  0  0  0  0  0
   -0.2198   -0.9574   -1.7858 N   0  0  0  0  0  0  0  0  0  0  0  0
   -0.2198   -1.1621   -0.4126 O   0  0  0  0  0  0  0  0  0  0  0  0
    0.6596   -2.5733   -4.2931 H   0  0  0  0  0  0  0  0  0  0  0  0
   -1.0993   -2.5733   -4.2931 H   0  0  0  0  0  0  0  0  0  0  0  0
   -0.2198   -1.0298   -4.2927 H   0  0  0  0  0  0  0  0  0  0  0  0
   -0.2198   -2.9970   -1.8825 H   0  0  0  0  0  0  0  0  0  0  0  0
   -0.2198   -0.0924    0.0107 H   0  0  0  0  0  0  0  0  0  0  0  0
  1  2  1  0
  1  5  1  0
  1  6  1  0
  2  3  1  0
  3  4  2  3
  4  7  1  0
  4  8  1  0
  9 10  1  0
  9 13  1  0
  9 14  1  0
  9 15  1  0
 10 11  2  3
 10 16  1  0
 11 12  1  0
 12 17  1  0
M  RAD  1   1   2
M  END
>  <reaction>  (23) 
rmg_rxn_15596

>  <mol_properties>  (23) 
{"0": {"label": "*3", "atom_type": "Cs"}, "1": {"label": "*4", "atom_type": "O2s"}, "10": {"label": "*0", "atom_type": "N3d"}, "11": {"label": "*1", "atom_type": "O2s"}, "16": {"label": "*2", "atom_type": "H0"}}

>  <type>  (23) 
unop_19

>  <geom_source>  (23) 
Heuristics

$$$$

     RDKit          3D

 17 15  0  0  0  0  0  0  0  0999 V2000
   -0.0000    0.5979    1.7300 C   0  0  0  0  0  3  0  0  0  0  0  0
   -0.0000    1.4553    0.6055 O   0  0  0  0  0  0  0  0  0  0  0  0
    0.0000    2.7650    1.0217 N   0  0  0  0  0  0  0  0  0  0  0  0
    0.0000    3.5717    0.0491 C   0  0  0  0  0  0  0  0  0  0  0  0
    0.8921    0.7543    2.3406 H   0  0  0  0  0  0  0  0  0  0  0  0
   -0.8921    0.7543    2.3406 H   0  0  0  0  0  0  0  0  0  0  0  0
    0.0000    4.6256    0.2933 H   0  0  0  0  0  0  0  0  0  0  0  0
   -0.0000    3.2404   -0.9871 H   0  0  0  0  0  0  0  0  0  0  0  0
   -0.0000   -2.5739   -2.6728 C   0  0  0  0  0  0  0  0  0  0  0  0
   -0.0000   -2.5739   -1.1841 C   0  0  0  0  0  0  0  0  0  0  0  0
   -0.0000   -1.4818   -0.5473 N   0  0  0  0  0  0  0  0  0  0  0  0
   -0.0000   -1.6865    0.8259 O   0  0  0  0  0  0  0  0  0  0  0  0
    0.8794   -3.0977   -3.0546 H   0  0  0  0  0  0  0  0  0  0  0  0
   -0.8794   -3.0977   -3.0546 H   0  0  0  0  0  0  0  0  0  0  0  0
   -0.0000   -1.5542   -3.0542 H   0  0  0  0  0  0  0  0  0  0  0  0
   -0.0000   -3.5214   -0.6440 H   0  0  0  0  0  0  0  0  0  0  0  0
   -0.0000   -0.6168    1.2493 H   0  0  0  0  0  0  0  0  0  0  0  0
  1  2  1  0
  1  5  1  0
  1  6  1  0
  2  3  1  0
  3  4  2  3
  4  7  1  0
  4  8  1  0
  9 10  1  0
  9 13  1  0
  9 14  1  0
  9 15  1  0
 10 11  2  3
 10 16  1  0
 11 12  1  0
 12 17  1  0
M  RAD  1   1   2
M  END
>  <reaction>  (24) 
rmg_rxn_15596

>  <mol_properties>  (24) 
{"0": {"label": "*3", "atom_type": "Cs"}, "1": {"label": "*4", "atom_type": "O2s"}, "10": {"label": "*0", "atom_type": "N3d"}, "11": {"label": "*1", "atom_type": "O2s"}, "16": {"label": "*2", "atom_type": "H0"}}

>  <type>  (24) 
unop_20

>  <geom_source>  (24) 
Heuristics

$$$$

     RDKit          3D

 17 15  0  0  0  0  0  0  0  0999 V2000
   -2.5088   -0.8018   -0.8577 O   0  0  0  0  0  0  0  0  0  0  0  0
    0.8857   -1.3155   -1.0029 O   0  0  0  0  0  1  0  0  0  0  0  0
   -3.6886   -0.2932   -0.3372 N   0  0  0  0  0  2  0  0  0  0  0  0
    1.9998   -0.7799   -0.4006 N   0  0  0  0  0  2  0  0  0  0  0  0
    3.5280    1.0286    0.0671 C   0  0  0  0  0  0  0  0  0  0  0  0
   -1.2952   -0.8990   -0.1170 C   0  0  0  0  0  0  0  0  0  0  0  0
    2.3180    0.4588   -0.5909 C   0  0  0  0  0  3  0  0  0  0  0  0
   -3.8304    0.1513    0.8738 C   0  0  0  0  0  3  0  0  0  0  0  0
    3.6394    2.0974   -0.2115 H   0  0  0  0  0  0  0  0  0  0  0  0
    4.4314    0.4732   -0.2615 H   0  0  0  0  0  0  0  0  0  0  0  0
    3.4280    0.9509    1.1701 H   0  0  0  0  0  0  0  0  0  0  0  0
   -0.4059   -1.3959   -0.8493 H   0  0  0  0  0  0  0  0  0  0  0  0
   -1.4395   -1.5576    0.7652 H   0  0  0  0  0  0  0  0  0  0  0  0
   -0.9661    0.1102    0.2084 H   0  0  0  0  0  0  0  0  0  0  0  0
    1.7075    1.0872   -1.2286 H   0  0  0  0  0  0  0  0  0  0  0  0
   -4.7915    0.5305    1.1925 H   0  0  0  0  0  0  0  0  0  0  0  0
   -3.0118    0.1548    1.5801 H   0  0  0  0  0  0  0  0  0  0  0  0
  1  3  1  0
  1  6  1  0
  2  4  1  0
  3  8  1  0
  4  7  1  0
  5 11  1  0
  5  7  1  0
  5 10  1  0
  5  9  1  0
  6 12  1  0
  6 14  1  0
  6 13  1  0
  7 15  1  0
  8 17  1  0
  8 16  1  0
M  RAD  5   2   2   3   2   4   2   7   2   8   2
M  END
>  <reaction>  (25) 
rmg_rxn_15596

>  <mol_properties>  (25) 
{"0": {"label": "*3", "atom_type": "Cs"}, "1": {"label": "*4", "atom_type": "O2s"}, "10": {"label": "*0", "atom_type": "N3d"}, "11": {"label": "*1", "atom_type": "O2s"}, "16": {"label": "*2", "atom_type": "H0"}}

>  <type>  (25) 
unop_21

>  <geom_source>  (25) 
AutoTST

$$$$

     RDKit          3D

 17 15  0  0  0  0  0  0  0  0999 V2000
    0.4308    0.6640    1.6072 C   0  0  0  0  0  3  0  0  0  0  0  0
   -0.2497    1.4542    0.6522 O   0  0  0  0  0  0  0  0  0  0  0  0
   -0.6623    2.6295    1.2330 N   0  0  0  0  0  0  0  0  0  0  0  0
   -1.2775    3.3717    0.4161 C   0  0  0  0  0  0  0  0  0  0  0  0
    1.3174    1.1807    1.9815 H   0  0  0  0  0  0  0  0  0  0  0  0
   -0.2247    0.4111    2.4435 H   0  0  0  0  0  0  0  0  0  0  0  0
   -1.6362    4.3187    0.7967 H   0  0  0  0  0  0  0  0  0  0  0  0
   -1.4467    3.0884   -0.6205 H   0  0  0  0  0  0  0  0  0  0  0  0
    0.4308   -2.5078   -2.7956 C   0  0  0  0  0  0  0  0  0  0  0  0
    0.4308   -2.5078   -1.3070 C   0  0  0  0  0  0  0  0  0  0  0  0
    0.4308   -1.4157   -0.6702 N   0  0  0  0  0  0  0  0  0  0  0  0
    0.4308   -1.6204    0.7030 O   0  0  0  0  0  0  0  0  0  0  0  0
    1.3102   -3.0316   -3.1774 H   0  0  0  0  0  0  0  0  0  0  0  0
   -0.4486   -3.0316   -3.1774 H   0  0  0  0  0  0  0  0  0  0  0  0
    0.4308   -1.4881   -3.1770 H   0  0  0  0  0  0  0  0  0  0  0  0
    0.4308   -3.4553   -0.7668 H   0  0  0  0  0  0  0  0  0  0  0  0
    0.4308   -0.5507    1.1264 H   0  0  0  0  0  0  0  0  0  0  0  0
  1  2  1  0
  1  5  1  0
  1  6  1  0
  2  3  1  0
  3  4  2  3
  4  7  1  0
  4  8  1  0
  9 10  1  0
  9 13  1  0
  9 14  1  0
  9 15  1  0
 10 11  2  3
 10 16  1  0
 11 12  1  0
 12 17  1  0
M  RAD  1   1   2
M  END
>  <reaction>  (26) 
rmg_rxn_15596

>  <mol_properties>  (26) 
{"0": {"label": "*3", "atom_type": "Cs"}, "1": {"label": "*4", "atom_type": "O2s"}, "10": {"label": "*0", "atom_type": "N3d"}, "11": {"label": "*1", "atom_type": "O2s"}, "16": {"label": "*2", "atom_type": "H0"}}

>  <type>  (26) 
unop_22

>  <geom_source>  (26) 
gaussian_log

$$$$
