
     RDKit          3D

 15 14  0  0  0  0  0  0  0  0999 V2000
   -1.2811   -0.4129    1.0228 C   0  0  0  0  0  0  0  0  0  0  0  0
   -1.0023   -0.5809   -0.4650 C   0  0  0  0  0  0  0  0  0  0  0  0
   -2.0576    0.0568   -1.3449 C   0  0  0  0  0  0  0  0  0  0  0  0
   -2.0663    1.4464   -1.1307 O   0  0  0  0  0  0  0  0  0  0  0  0
   -3.0424    2.1072   -1.8849 C   0  0  0  0  0  0  0  0  0  0  0  0
   -2.2382   -0.8657    1.2935 H   0  0  0  0  0  0  0  0  0  0  0  0
   -1.3219    0.6426    1.2914 H   0  0  0  0  0  0  0  0  0  0  0  0
   -0.5042   -0.8881    1.6236 H   0  0  0  0  0  0  0  0  0  0  0  0
   -0.0316   -0.1460   -0.7167 H   0  0  0  0  0  0  0  0  0  0  0  0
   -0.9494   -1.6429   -0.7203 H   0  0  0  0  0  0  0  0  0  0  0  0
   -1.8518   -0.1570   -2.4041 H   0  0  0  0  0  0  0  0  0  0  0  0
   -3.0491   -0.3636   -1.1124 H   0  0  0  0  0  0  0  0  0  0  0  0
   -4.0521    1.7545   -1.6343 H   0  0  0  0  0  0  0  0  0  0  0  0
   -2.8850    1.9634   -2.9626 H   0  0  0  0  0  0  0  0  0  0  0  0
   -2.9730    3.1700   -1.6570 H   0  0  0  0  0  0  0  0  0  0  0  0
  1  2  1  0
  1  6  1  0
  1  7  1  0
  1  8  1  0
  2  3  1  0
  2  9  1  0
  2 10  1  0
  3  4  1  0
  3 11  1  0
  3 12  1  0
  4  5  1  0
  5 13  1  0
  5 14  1  0
  5 15  1  0
M  END
>  <reaction>  (1) 
rmg_rxn_657

>  <mol_properties>  (1) 
{"4": {"label": "donator", "atom_type": "Cs"}, "12": {"label": "d_hydrogen", "atom_type": "H0"}}

>  <type>  (1) 
r1h

$$$$

     RDKit          3D

 13 12  0  0  0  0  0  0  0  0999 V2000
    1.9060    0.2628    0.3980 C   0  0  0  0  0  0  0  0  0  0  0  0
    0.6330   -0.4250    0.0685 C   0  0  0  0  0  3  0  0  0  0  0  0
   -0.2610   -0.9325    1.1416 C   0  0  0  0  0  0  0  0  0  0  0  0
   -1.4364   -1.7546    0.6268 C   0  0  0  0  0  0  0  0  0  0  0  0
    2.4899   -0.3070    1.1292 H   0  0  0  0  0  0  0  0  0  0  0  0
    1.7297    1.2496    0.8515 H   0  0  0  0  0  0  0  0  0  0  0  0
    2.5269    0.4197   -0.4845 H   0  0  0  0  0  0  0  0  0  0  0  0
    0.2597   -0.3936   -0.9489 H   0  0  0  0  0  0  0  0  0  0  0  0
   -0.6439   -0.0868    1.7356 H   0  0  0  0  0  0  0  0  0  0  0  0
    0.3260   -1.5277    1.8536 H   0  0  0  0  0  0  0  0  0  0  0  0
   -1.0872   -2.6320    0.0792 H   0  0  0  0  0  0  0  0  0  0  0  0
   -2.0701   -2.0976    1.4459 H   0  0  0  0  0  0  0  0  0  0  0  0
   -2.0561   -1.1637   -0.0512 H   0  0  0  0  0  0  0  0  0  0  0  0
  1  2  1  0
  1  5  1  0
  1  6  1  0
  1  7  1  0
  2  3  1  0
  2  8  1  0
  3  4  1  0
  3  9  1  0
  3 10  1  0
  4 11  1  0
  4 12  1  0
  4 13  1  0
M  RAD  1   2   2
M  END
>  <reaction>  (2) 
rmg_rxn_657

>  <mol_properties>  (2) 
{"1": {"label": "acceptor", "atom_type": "Cs"}}

>  <type>  (2) 
r2

$$$$

     RDKit          3D

 14 13  0  0  0  0  0  0  0  0999 V2000
    1.8106   -0.5953    0.5577 C   0  0  0  0  0  0  0  0  0  0  0  0
    0.5197    0.2064    0.6554 C   0  0  0  0  0  0  0  0  0  0  0  0
   -0.5206   -0.2080   -0.3788 C   0  0  0  0  0  0  0  0  0  0  0  0
   -1.8114    0.5937   -0.2812 C   0  0  0  0  0  0  0  0  0  0  0  0
    2.2725   -0.4752   -0.4251 H   0  0  0  0  0  0  0  0  0  0  0  0
    1.6214   -1.6612    0.7052 H   0  0  0  0  0  0  0  0  0  0  0  0
    2.5364   -0.2784    1.3084 H   0  0  0  0  0  0  0  0  0  0  0  0
    0.0930    0.0950    1.6574 H   0  0  0  0  0  0  0  0  0  0  0  0
    0.7393    1.2723    0.5354 H   0  0  0  0  0  0  0  0  0  0  0  0
   -0.7402   -1.2739   -0.2588 H   0  0  0  0  0  0  0  0  0  0  0  0
   -0.0938   -0.0965   -1.3808 H   0  0  0  0  0  0  0  0  0  0  0  0
   -1.6222    1.6596   -0.4287 H   0  0  0  0  0  0  0  0  0  0  0  0
   -2.2734    0.4736    0.7017 H   0  0  0  0  0  0  0  0  0  0  0  0
   -2.5373    0.2768   -1.0318 H   0  0  0  0  0  0  0  0  0  0  0  0
  1  2  1  0
  1  5  1  0
  1  6  1  0
  1  7  1  0
  2  3  1  0
  2  8  1  0
  2  9  1  0
  3  4  1  0
  3 10  1  0
  3 11  1  0
  4 12  1  0
  4 13  1  0
  4 14  1  0
M  END
>  <reaction>  (3) 
rmg_rxn_657

>  <mol_properties>  (3) 
{"1": {"label": "acceptor", "atom_type": "Cs"}, "13": {"label": "a_hydrogen", "atom_type": "H0"}}

>  <type>  (3) 
r2h

$$$$

     RDKit          3D

 28 26  0  0  0  0  0  0  0  0999 V2000
    1.4726    2.2803    1.1884 C   0  0  0  0  0  0  0  0  0  0  0  0
    0.5759    2.0943   -0.0070 C   0  0  0  0  0  3  0  0  0  0  0  0
    1.1329    1.2609   -1.1334 C   0  0  0  0  0  0  0  0  0  0  0  0
    0.1436    1.0357   -2.2697 C   0  0  0  0  0  0  0  0  0  0  0  0
    2.3814    2.8346    0.9269 H   0  0  0  0  0  0  0  0  0  0  0  0
    1.7898    1.3160    1.5955 H   0  0  0  0  0  0  0  0  0  0  0  0
    0.9706    2.8307    1.9864 H   0  0  0  0  0  0  0  0  0  0  0  0
    0.1278    3.0270   -0.3566 H   0  0  0  0  0  0  0  0  0  0  0  0
    1.4601    0.2934   -0.7380 H   0  0  0  0  0  0  0  0  0  0  0  0
    2.0395    1.7416   -1.5260 H   0  0  0  0  0  0  0  0  0  0  0  0
   -0.1853    1.9870   -2.6947 H   0  0  0  0  0  0  0  0  0  0  0  0
    0.5908    0.4474   -3.0725 H   0  0  0  0  0  0  0  0  0  0  0  0
   -0.7382    0.5011   -1.9127 H   0  0  0  0  0  0  0  0  0  0  0  0
    0.3529   -2.6043   -0.9019 C   0  0  0  0  0  0  0  0  0  0  0  0
   -0.2027   -2.6890    0.5136 C   0  0  0  0  0  0  0  0  0  0  0  0
   -0.4019   -1.3326    1.1557 C   0  0  0  0  0  0  0  0  0  0  0  0
   -1.3962   -0.6261    0.4459 O   0  0  0  0  0  0  0  0  0  0  0  0
   -1.5662    0.6747    0.8676 C   0  0  0  0  0  0  0  0  0  0  0  0
    1.3366   -2.1284   -0.9073 H   0  0  0  0  0  0  0  0  0  0  0  0
   -0.3053   -2.0173   -1.5427 H   0  0  0  0  0  0  0  0  0  0  0  0
    0.4604   -3.5969   -1.3415 H   0  0  0  0  0  0  0  0  0  0  0  0
   -1.1607   -3.2152    0.5114 H   0  0  0  0  0  0  0  0  0  0  0  0
    0.4740   -3.2661    1.1496 H   0  0  0  0  0  0  0  0  0  0  0  0
   -0.7099   -1.4404    2.2048 H   0  0  0  0  0  0  0  0  0  0  0  0
    0.5371   -0.7623    1.1430 H   0  0  0  0  0  0  0  0  0  0  0  0
   -0.5217    1.4155    0.4540 H   0  0  0  0  0  0  0  0  0  0  0  0
   -1.5934    0.7868    1.9576 H   0  0  0  0  0  0  0  0  0  0  0  0
   -2.4362    1.1074    0.3783 H   0  0  0  0  0  0  0  0  0  0  0  0
  1  2  1  0
  1  5  1  0
  1  6  1  0
  1  7  1  0
  2  3  1  0
  2  8  1  0
  3  4  1  0
  3  9  1  0
  3 10  1  0
  4 11  1  0
  4 12  1  0
  4 13  1  0
 14 15  1  0
 14 19  1  0
 14 20  1  0
 14 21  1  0
 15 16  1  0
 15 22  1  0
 15 23  1  0
 16 17  1  0
 16 24  1  0
 16 25  1  0
 17 18  1  0
 18 26  1  0
 18 27  1  0
 18 28  1  0
M  RAD  1   2   2
M  END
>  <reaction>  (4) 
rmg_rxn_657

>  <mol_properties>  (4) 
{"1": {"label": "*3", "atom_type": "Cs"}, "2": {"label": "*4", "atom_type": "Cs"}, "16": {"label": "*0", "atom_type": "O2s"}, "17": {"label": "*1", "atom_type": "Cs"}, "25": {"label": "*2", "atom_type": "H0"}}

>  <type>  (4) 
ts

$$$$

     RDKit          3D

 28 26  0  0  0  0  0  0  0  0999 V2000
    2.2720    1.3926   -0.2931 C   0  0  0  0  0  0  0  0  0  0  0  0
    0.8140    1.6739    0.0437 C   0  0  0  0  0  0  0  0  0  0  0  0
    0.2356    2.8471   -0.7390 C   0  0  0  0  0  0  0  0  0  0  0  0
   -1.2224    3.1284   -0.4022 C   0  0  0  0  0  0  0  0  0  0  0  0
    2.8985    2.2609   -0.0756 H   0  0  0  0  0  0  0  0  0  0  0  0
    2.3904    1.1577   -1.3536 H   0  0  0  0  0  0  0  0  0  0  0  0
    2.6600    0.5493    0.2806 H   0  0  0  0  0  0  0  0  0  0  0  0
    0.7169    1.8756    1.1154 H   0  0  0  0  0  0  0  0  0  0  0  0
    0.3327    2.6454   -1.8107 H   0  0  0  0  0  0  0  0  0  0  0  0
    0.8371    3.7404   -0.5422 H   0  0  0  0  0  0  0  0  0  0  0  0
   -1.3408    3.3633    0.6583 H   0  0  0  0  0  0  0  0  0  0  0  0
   -1.6104    3.9717   -0.9759 H   0  0  0  0  0  0  0  0  0  0  0  0
   -1.8489    2.2601   -0.6196 H   0  0  0  0  0  0  0  0  0  0  0  0
    0.0857   -3.1609   -1.2603 C   0  0  0  0  0  0  0  0  0  0  0  0
    0.0857   -3.1609    0.2626 C   0  0  0  0  0  0  0  0  0  0  0  0
    0.0857   -1.7683    0.8587 C   0  0  0  0  0  0  0  0  0  0  0  0
   -1.0993   -1.1049    0.4946 O   0  0  0  0  0  0  0  0  0  0  0  0
   -1.1601    0.2062    0.9797 C   0  0  0  0  0  3  0  0  0  0  0  0
    0.9681   -2.6473   -1.6500 H   0  0  0  0  0  0  0  0  0  0  0  0
   -0.7967   -2.6510   -1.6467 H   0  0  0  0  0  0  0  0  0  0  0  0
    0.0907   -4.1789   -1.6526 H   0  0  0  0  0  0  0  0  0  0  0  0
   -0.7884   -3.6991    0.6383 H   0  0  0  0  0  0  0  0  0  0  0  0
    0.9675   -3.6871    0.6389 H   0  0  0  0  0  0  0  0  0  0  0  0
    0.1626   -1.8220    1.9548 H   0  0  0  0  0  0  0  0  0  0  0  0
    0.9581   -1.2013    0.4965 H   0  0  0  0  0  0  0  0  0  0  0  0
   -0.1714    0.9413    0.5110 H   0  0  0  0  0  0  0  0  0  0  0  0
   -1.1181    0.2323    2.0772 H   0  0  0  0  0  0  0  0  0  0  0  0
   -2.1058    0.6364    0.6526 H   0  0  0  0  0  0  0  0  0  0  0  0
  1  2  1  0
  1  5  1  0
  1  6  1  0
  1  7  1  0
  2  3  1  0
  2  8  1  0
  2 26  1  0
  3  4  1  0
  3  9  1  0
  3 10  1  0
  4 11  1  0
  4 12  1  0
  4 13  1  0
 14 15  1  0
 14 19  1  0
 14 20  1  0
 14 21  1  0
 15 16  1  0
 15 22  1  0
 15 23  1  0
 16 17  1  0
 16 24  1  0
 16 25  1  0
 17 18  1  0
 18 27  1  0
 18 28  1  0
M  RAD  1  18   2
M  END
>  <reaction>  (5) 
rmg_rxn_657

>  <mol_properties>  (5) 
{"1": {"label": "*3", "atom_type": "Cs"}, "2": {"label": "*4", "atom_type": "Cs"}, "16": {"label": "*0", "atom_type": "O2s"}, "17": {"label": "*1", "atom_type": "Cs"}, "25": {"label": "*2", "atom_type": "H0"}}

>  <type>  (5) 
unop_1

>  <geom_source>  (5) 
Heuristics

$$$$

     RDKit          3D

 28 26  0  0  0  0  0  0  0  0999 V2000
    1.7958    2.4582    1.0292 C   0  0  0  0  0  0  0  0  0  0  0  0
    0.5990    2.0485    0.1815 C   0  0  0  0  0  0  0  0  0  0  0  0
    0.9925    1.5339   -1.1983 C   0  0  0  0  0  0  0  0  0  0  0  0
   -0.2043    1.1243   -2.0460 C   0  0  0  0  0  0  0  0  0  0  0  0
    2.3660    3.2533    0.5429 H   0  0  0  0  0  0  0  0  0  0  0  0
    2.4725    1.6146    1.1845 H   0  0  0  0  0  0  0  0  0  0  0  0
    1.4858    2.8221    2.0101 H   0  0  0  0  0  0  0  0  0  0  0  0
   -0.0784    2.9008    0.0662 H   0  0  0  0  0  0  0  0  0  0  0  0
    1.6699    0.6817   -1.0831 H   0  0  0  0  0  0  0  0  0  0  0  0
    1.5642    2.3083   -1.7199 H   0  0  0  0  0  0  0  0  0  0  0  0
   -0.8810    1.9679   -2.2013 H   0  0  0  0  0  0  0  0  0  0  0  0
    0.1057    0.7604   -3.0270 H   0  0  0  0  0  0  0  0  0  0  0  0
   -0.7745    0.3292   -1.5598 H   0  0  0  0  0  0  0  0  0  0  0  0
   -0.1292   -2.7863   -1.1225 C   0  0  0  0  0  0  0  0  0  0  0  0
   -0.1292   -2.7863    0.4004 C   0  0  0  0  0  0  0  0  0  0  0  0
   -0.1292   -1.3937    0.9964 C   0  0  0  0  0  0  0  0  0  0  0  0
   -1.3142   -0.7303    0.6323 O   0  0  0  0  0  0  0  0  0  0  0  0
   -1.3750    0.5808    1.1175 C   0  0  0  0  0  3  0  0  0  0  0  0
    0.7532   -2.2726   -1.5122 H   0  0  0  0  0  0  0  0  0  0  0  0
   -1.0116   -2.2764   -1.5089 H   0  0  0  0  0  0  0  0  0  0  0  0
   -0.1243   -3.8043   -1.5148 H   0  0  0  0  0  0  0  0  0  0  0  0
   -1.0033   -3.3244    0.7760 H   0  0  0  0  0  0  0  0  0  0  0  0
    0.7525   -3.3124    0.7766 H   0  0  0  0  0  0  0  0  0  0  0  0
   -0.0524   -1.4474    2.0925 H   0  0  0  0  0  0  0  0  0  0  0  0
    0.7432   -0.8267    0.6342 H   0  0  0  0  0  0  0  0  0  0  0  0
   -0.3864    1.3159    0.6487 H   0  0  0  0  0  0  0  0  0  0  0  0
   -1.3330    0.6070    2.2149 H   0  0  0  0  0  0  0  0  0  0  0  0
   -2.3207    1.0110    0.7903 H   0  0  0  0  0  0  0  0  0  0  0  0
  1  2  1  0
  1  5  1  0
  1  6  1  0
  1  7  1  0
  2  3  1  0
  2  8  1  0
  2 26  1  0
  3  4  1  0
  3  9  1  0
  3 10  1  0
  4 11  1  0
  4 12  1  0
  4 13  1  0
 14 15  1  0
 14 19  1  0
 14 20  1  0
 14 21  1  0
 15 16  1  0
 15 22  1  0
 15 23  1  0
 16 17  1  0
 16 24  1  0
 16 25  1  0
 17 18  1  0
 18 27  1  0
 18 28  1  0
M  RAD  1  18   2
M  END
>  <reaction>  (6) 
rmg_rxn_657

>  <mol_properties>  (6) 
{"1": {"label": "*3", "atom_type": "Cs"}, "2": {"label": "*4", "atom_type": "Cs"}, "16": {"label": "*0", "atom_type": "O2s"}, "17": {"label": "*1", "atom_type": "Cs"}, "25": {"label": "*2", "atom_type": "H0"}}

>  <type>  (6) 
unop_2

>  <geom_source>  (6) 
Heuristics

$$$$

     RDKit          3D

 28 26  0  0  0  0  0  0  0  0999 V2000
    1.8289    1.2458   -1.1528 C   0  0  0  0  0  0  0  0  0  0  0  0
    0.7858    1.6145   -0.1066 C   0  0  0  0  0  0  0  0  0  0  0  0
    0.3254    3.0641   -0.2070 C   0  0  0  0  0  0  0  0  0  0  0  0
   -0.7177    3.4329    0.8392 C   0  0  0  0  0  0  0  0  0  0  0  0
    2.7196    1.8708   -1.0546 H   0  0  0  0  0  0  0  0  0  0  0  0
    1.4368    1.3866   -2.1629 H   0  0  0  0  0  0  0  0  0  0  0  0
    2.1402    0.2042   -1.0581 H   0  0  0  0  0  0  0  0  0  0  0  0
    1.1908    1.4358    0.8947 H   0  0  0  0  0  0  0  0  0  0  0  0
   -0.0796    3.2428   -1.2084 H   0  0  0  0  0  0  0  0  0  0  0  0
    1.1938    3.7235   -0.1083 H   0  0  0  0  0  0  0  0  0  0  0  0
   -0.3256    3.2920    1.8493 H   0  0  0  0  0  0  0  0  0  0  0  0
   -1.0289    4.4744    0.7445 H   0  0  0  0  0  0  0  0  0  0  0  0
   -1.6084    2.8078    0.7410 H   0  0  0  0  0  0  0  0  0  0  0  0
    0.0576   -3.2203   -1.4106 C   0  0  0  0  0  0  0  0  0  0  0  0
    0.0576   -3.2203    0.1123 C   0  0  0  0  0  0  0  0  0  0  0  0
    0.0576   -1.8278    0.7084 C   0  0  0  0  0  0  0  0  0  0  0  0
   -1.1275   -1.1643    0.3442 O   0  0  0  0  0  0  0  0  0  0  0  0
   -1.1883    0.1468    0.8294 C   0  0  0  0  0  3  0  0  0  0  0  0
    0.9400   -2.7067   -1.8003 H   0  0  0  0  0  0  0  0  0  0  0  0
   -0.8249   -2.7104   -1.7970 H   0  0  0  0  0  0  0  0  0  0  0  0
    0.0625   -4.2383   -1.8029 H   0  0  0  0  0  0  0  0  0  0  0  0
   -0.8165   -3.7585    0.4879 H   0  0  0  0  0  0  0  0  0  0  0  0
    0.9393   -3.7465    0.4886 H   0  0  0  0  0  0  0  0  0  0  0  0
    0.1344   -1.8815    1.8044 H   0  0  0  0  0  0  0  0  0  0  0  0
    0.9300   -1.2607    0.3462 H   0  0  0  0  0  0  0  0  0  0  0  0
   -0.1996    0.8819    0.3606 H   0  0  0  0  0  0  0  0  0  0  0  0
   -1.1463    0.1729    1.9269 H   0  0  0  0  0  0  0  0  0  0  0  0
   -2.1339    0.5769    0.5023 H   0  0  0  0  0  0  0  0  0  0  0  0
  1  2  1  0
  1  5  1  0
  1  6  1  0
  1  7  1  0
  2  3  1  0
  2  8  1  0
  2 26  1  0
  3  4  1  0
  3  9  1  0
  3 10  1  0
  4 11  1  0
  4 12  1  0
  4 13  1  0
 14 15  1  0
 14 19  1  0
 14 20  1  0
 14 21  1  0
 15 16  1  0
 15 22  1  0
 15 23  1  0
 16 17  1  0
 16 24  1  0
 16 25  1  0
 17 18  1  0
 18 27  1  0
 18 28  1  0
M  RAD  1  18   2
M  END
>  <reaction>  (7) 
rmg_rxn_657

>  <mol_properties>  (7) 
{"1": {"label": "*3", "atom_type": "Cs"}, "2": {"label": "*4", "atom_type": "Cs"}, "16": {"label": "*0", "atom_type": "O2s"}, "17": {"label": "*1", "atom_type": "Cs"}, "25": {"label": "*2", "atom_type": "H0"}}

>  <type>  (7) 
unop_3

>  <geom_source>  (7) 
Heuristics

$$$$

     RDKit          3D

 28 26  0  0  0  0  0  0  0  0999 V2000
   -0.1399    3.0940    0.7711 C   0  0  0  0  0  0  0  0  0  0  0  0
    0.3911    2.0710   -0.2239 C   0  0  0  0  0  0  0  0  0  0  0  0
    1.7177    1.4542    0.2041 C   0  0  0  0  0  0  0  0  0  0  0  0
    2.2487    0.4312   -0.7909 C   0  0  0  0  0  0  0  0  0  0  0  0
    0.5671    3.9168    0.9014 H   0  0  0  0  0  0  0  0  0  0  0  0
   -0.3012    2.6394    1.7515 H   0  0  0  0  0  0  0  0  0  0  0  0
   -1.0890    3.5190    0.4404 H   0  0  0  0  0  0  0  0  0  0  0  0
    0.5148    2.5421   -1.2044 H   0  0  0  0  0  0  0  0  0  0  0  0
    1.5940    0.9831    1.1846 H   0  0  0  0  0  0  0  0  0  0  0  0
    2.4558    2.2511    0.3408 H   0  0  0  0  0  0  0  0  0  0  0  0
    2.4100    0.8858   -1.7712 H   0  0  0  0  0  0  0  0  0  0  0  0
    3.1978    0.0062   -0.4602 H   0  0  0  0  0  0  0  0  0  0  0  0
    1.5417   -0.3916   -0.9212 H   0  0  0  0  0  0  0  0  0  0  0  0
   -0.3371   -2.7638   -1.5279 C   0  0  0  0  0  0  0  0  0  0  0  0
   -0.3371   -2.7638   -0.0050 C   0  0  0  0  0  0  0  0  0  0  0  0
   -0.3371   -1.3712    0.5911 C   0  0  0  0  0  0  0  0  0  0  0  0
   -1.5222   -0.7078    0.2269 O   0  0  0  0  0  0  0  0  0  0  0  0
   -1.5829    0.6033    0.7121 C   0  0  0  0  0  3  0  0  0  0  0  0
    0.5453   -2.2502   -1.9176 H   0  0  0  0  0  0  0  0  0  0  0  0
   -1.2196   -2.2539   -1.9143 H   0  0  0  0  0  0  0  0  0  0  0  0
   -0.3322   -3.7818   -1.9202 H   0  0  0  0  0  0  0  0  0  0  0  0
   -1.2112   -3.3020    0.3706 H   0  0  0  0  0  0  0  0  0  0  0  0
    0.5446   -3.2900    0.3713 H   0  0  0  0  0  0  0  0  0  0  0  0
   -0.2603   -1.4249    1.6871 H   0  0  0  0  0  0  0  0  0  0  0  0
    0.5353   -0.8042    0.2289 H   0  0  0  0  0  0  0  0  0  0  0  0
   -0.5943    1.3384    0.2433 H   0  0  0  0  0  0  0  0  0  0  0  0
   -1.5409    0.6294    1.8096 H   0  0  0  0  0  0  0  0  0  0  0  0
   -2.5286    1.0335    0.3849 H   0  0  0  0  0  0  0  0  0  0  0  0
  1  2  1  0
  1  5  1  0
  1  6  1  0
  1  7  1  0
  2  3  1  0
  2  8  1  0
  2 26  1  0
  3  4  1  0
  3  9  1  0
  3 10  1  0
  4 11  1  0
  4 12  1  0
  4 13  1  0
 14 15  1  0
 14 19  1  0
 14 20  1  0
 14 21  1  0
 15 16  1  0
 15 22  1  0
 15 23  1  0
 16 17  1  0
 16 24  1  0
 16 25  1  0
 17 18  1  0
 18 27  1  0
 18 28  1  0
M  RAD  1  18   2
M  END
>  <reaction>  (8) 
rmg_rxn_657

>  <mol_properties>  (8) 
{"1": {"label": "*3", "atom_type": "Cs"}, "2": {"label": "*4", "atom_type": "Cs"}, "16": {"label": "*0", "atom_type": "O2s"}, "17": {"label": "*1", "atom_type": "Cs"}, "25": {"label": "*2", "atom_type": "H0"}}

>  <type>  (8) 
unop_4

>  <geom_source>  (8) 
Heuristics

$$$$

     RDKit          3D

 28 26  0  0  0  0  0  0  0  0999 V2000
    0.6998    1.5831   -1.7715 C   0  0  0  0  0  0  0  0  0  0  0  0
    0.7105    1.6231   -0.2494 C   0  0  0  0  0  0  0  0  0  0  0  0
    0.5917    3.0354    0.3119 C   0  0  0  0  0  0  0  0  0  0  0  0
    0.6025    3.0755    1.8340 C   0  0  0  0  0  0  0  0  0  0  0  0
    1.5300    2.1611   -2.1841 H   0  0  0  0  0  0  0  0  0  0  0  0
   -0.2262    2.0068   -2.1676 H   0  0  0  0  0  0  0  0  0  0  0  0
    0.7860    0.5617   -2.1457 H   0  0  0  0  0  0  0  0  0  0  0  0
    1.6327    1.1658    0.1236 H   0  0  0  0  0  0  0  0  0  0  0  0
   -0.3304    3.4927   -0.0611 H   0  0  0  0  0  0  0  0  0  0  0  0
    1.4129    3.6459   -0.0775 H   0  0  0  0  0  0  0  0  0  0  0  0
    1.5284    2.6517    2.2301 H   0  0  0  0  0  0  0  0  0  0  0  0
    0.5162    4.0969    2.2082 H   0  0  0  0  0  0  0  0  0  0  0  0
   -0.2278    2.4974    2.2466 H   0  0  0  0  0  0  0  0  0  0  0  0
   -0.0177   -3.2117   -1.5534 C   0  0  0  0  0  0  0  0  0  0  0  0
   -0.0177   -3.2117   -0.0305 C   0  0  0  0  0  0  0  0  0  0  0  0
   -0.0177   -1.8191    0.5656 C   0  0  0  0  0  0  0  0  0  0  0  0
   -1.2027   -1.1557    0.2015 O   0  0  0  0  0  0  0  0  0  0  0  0
   -1.2635    0.1554    0.6866 C   0  0  0  0  0  3  0  0  0  0  0  0
    0.8647   -2.6980   -1.9431 H   0  0  0  0  0  0  0  0  0  0  0  0
   -0.9001   -2.7018   -1.9398 H   0  0  0  0  0  0  0  0  0  0  0  0
   -0.0128   -4.2297   -1.9457 H   0  0  0  0  0  0  0  0  0  0  0  0
   -0.8918   -3.7498    0.3452 H   0  0  0  0  0  0  0  0  0  0  0  0
    0.8640   -3.7378    0.3458 H   0  0  0  0  0  0  0  0  0  0  0  0
    0.0591   -1.8728    1.6617 H   0  0  0  0  0  0  0  0  0  0  0  0
    0.8547   -1.2521    0.2034 H   0  0  0  0  0  0  0  0  0  0  0  0
   -0.2748    0.8905    0.2179 H   0  0  0  0  0  0  0  0  0  0  0  0
   -1.2215    0.1816    1.7841 H   0  0  0  0  0  0  0  0  0  0  0  0
   -2.2092    0.5856    0.3595 H   0  0  0  0  0  0  0  0  0  0  0  0
  1  2  1  0
  1  5  1  0
  1  6  1  0
  1  7  1  0
  2  3  1  0
  2  8  1  0
  2 26  1  0
  3  4  1  0
  3  9  1  0
  3 10  1  0
  4 11  1  0
  4 12  1  0
  4 13  1  0
 14 15  1  0
 14 19  1  0
 14 20  1  0
 14 21  1  0
 15 16  1  0
 15 22  1  0
 15 23  1  0
 16 17  1  0
 16 24  1  0
 16 25  1  0
 17 18  1  0
 18 27  1  0
 18 28  1  0
M  RAD  1  18   2
M  END
>  <reaction>  (9) 
rmg_rxn_657

>  <mol_properties>  (9) 
{"1": {"label": "*3", "atom_type": "Cs"}, "2": {"label": "*4", "atom_type": "Cs"}, "16": {"label": "*0", "atom_type": "O2s"}, "17": {"label": "*1", "atom_type": "Cs"}, "25": {"label": "*2", "atom_type": "H0"}}

>  <type>  (9) 
unop_5

>  <geom_source>  (9) 
Heuristics

$$$$

     RDKit          3D

 28 26  0  0  0  0  0  0  0  0999 V2000
   -0.6028    2.9914    0.0993 C   0  0  0  0  0  0  0  0  0  0  0  0
    0.4235    1.9553   -0.3386 C   0  0  0  0  0  0  0  0  0  0  0  0
    1.6128    1.8547    0.6095 C   0  0  0  0  0  0  0  0  0  0  0  0
    2.6392    0.8187    0.1716 C   0  0  0  0  0  0  0  0  0  0  0  0
   -0.1550    3.9863    0.1557 H   0  0  0  0  0  0  0  0  0  0  0  0
   -1.0023    2.7529    1.0879 H   0  0  0  0  0  0  0  0  0  0  0  0
   -1.4421    3.0423   -0.5962 H   0  0  0  0  0  0  0  0  0  0  0  0
    0.7854    2.1984   -1.3429 H   0  0  0  0  0  0  0  0  0  0  0  0
    1.2509    1.6116    1.6137 H   0  0  0  0  0  0  0  0  0  0  0  0
    2.0920    2.8359    0.6884 H   0  0  0  0  0  0  0  0  0  0  0  0
    3.0387    1.0571   -0.8170 H   0  0  0  0  0  0  0  0  0  0  0  0
    3.4785    0.7677    0.8670 H   0  0  0  0  0  0  0  0  0  0  0  0
    2.1913   -0.1763    0.1152 H   0  0  0  0  0  0  0  0  0  0  0  0
   -0.3047   -2.8796   -1.6426 C   0  0  0  0  0  0  0  0  0  0  0  0
   -0.3047   -2.8796   -0.1197 C   0  0  0  0  0  0  0  0  0  0  0  0
   -0.3047   -1.4870    0.4763 C   0  0  0  0  0  0  0  0  0  0  0  0
   -1.4898   -0.8235    0.1122 O   0  0  0  0  0  0  0  0  0  0  0  0
   -1.5506    0.4876    0.5974 C   0  0  0  0  0  3  0  0  0  0  0  0
    0.5777   -2.3659   -2.0323 H   0  0  0  0  0  0  0  0  0  0  0  0
   -1.1872   -2.3697   -2.0290 H   0  0  0  0  0  0  0  0  0  0  0  0
   -0.2998   -3.8976   -2.0349 H   0  0  0  0  0  0  0  0  0  0  0  0
   -1.1788   -3.4177    0.2559 H   0  0  0  0  0  0  0  0  0  0  0  0
    0.5770   -3.4057    0.2565 H   0  0  0  0  0  0  0  0  0  0  0  0
   -0.2279   -1.5407    1.5724 H   0  0  0  0  0  0  0  0  0  0  0  0
    0.5676   -0.9200    0.1141 H   0  0  0  0  0  0  0  0  0  0  0  0
   -0.5619    1.2226    0.1286 H   0  0  0  0  0  0  0  0  0  0  0  0
   -1.5086    0.5137    1.6948 H   0  0  0  0  0  0  0  0  0  0  0  0
   -2.4962    0.9177    0.2702 H   0  0  0  0  0  0  0  0  0  0  0  0
  1  2  1  0
  1  5  1  0
  1  6  1  0
  1  7  1  0
  2  3  1  0
  2  8  1  0
  2 26  1  0
  3  4  1  0
  3  9  1  0
  3 10  1  0
  4 11  1  0
  4 12  1  0
  4 13  1  0
 14 15  1  0
 14 19  1  0
 14 20  1  0
 14 21  1  0
 15 16  1  0
 15 22  1  0
 15 23  1  0
 16 17  1  0
 16 24  1  0
 16 25  1  0
 17 18  1  0
 18 27  1  0
 18 28  1  0
M  RAD  1  18   2
M  END
>  <reaction>  (10) 
rmg_rxn_657

>  <mol_properties>  (10) 
{"1": {"label": "*3", "atom_type": "Cs"}, "2": {"label": "*4", "atom_type": "Cs"}, "16": {"label": "*0", "atom_type": "O2s"}, "17": {"label": "*1", "atom_type": "Cs"}, "25": {"label": "*2", "atom_type": "H0"}}

>  <type>  (10) 
unop_6

>  <geom_source>  (10) 
Heuristics

$$$$

     RDKit          3D

 28 26  0  0  0  0  0  0  0  0999 V2000
   -0.7256    2.6721   -0.6648 C   0  0  0  0  0  0  0  0  0  0  0  0
    0.5036    1.8181   -0.3848 C   0  0  0  0  0  0  0  0  0  0  0  0
    1.3372    2.3353    0.7818 C   0  0  0  0  0  0  0  0  0  0  0  0
    2.5664    1.4813    1.0618 C   0  0  0  0  0  0  0  0  0  0  0  0
   -0.4418    3.6992   -0.9062 H   0  0  0  0  0  0  0  0  0  0  0  0
   -1.3840    2.7080    0.2065 H   0  0  0  0  0  0  0  0  0  0  0  0
   -1.3032    2.2797   -1.5033 H   0  0  0  0  0  0  0  0  0  0  0  0
    1.1309    1.7723   -1.2809 H   0  0  0  0  0  0  0  0  0  0  0  0
    0.7099    2.3811    1.6779 H   0  0  0  0  0  0  0  0  0  0  0  0
    1.6451    3.3651    0.5734 H   0  0  0  0  0  0  0  0  0  0  0  0
    3.2248    1.4455    0.1906 H   0  0  0  0  0  0  0  0  0  0  0  0
    3.1440    1.8737    1.9004 H   0  0  0  0  0  0  0  0  0  0  0  0
    2.2826    0.4542    1.3033 H   0  0  0  0  0  0  0  0  0  0  0  0
   -0.2247   -3.0167   -1.6888 C   0  0  0  0  0  0  0  0  0  0  0  0
   -0.2247   -3.0167   -0.1659 C   0  0  0  0  0  0  0  0  0  0  0  0
   -0.2247   -1.6241    0.4302 C   0  0  0  0  0  0  0  0  0  0  0  0
   -1.4097   -0.9607    0.0660 O   0  0  0  0  0  0  0  0  0  0  0  0
   -1.4705    0.3504    0.5512 C   0  0  0  0  0  3  0  0  0  0  0  0
    0.6577   -2.5031   -2.0785 H   0  0  0  0  0  0  0  0  0  0  0  0
   -1.1071   -2.5068   -2.0752 H   0  0  0  0  0  0  0  0  0  0  0  0
   -0.2197   -4.0347   -2.0811 H   0  0  0  0  0  0  0  0  0  0  0  0
   -1.0988   -3.5549    0.2097 H   0  0  0  0  0  0  0  0  0  0  0  0
    0.6571   -3.5429    0.2104 H   0  0  0  0  0  0  0  0  0  0  0  0
   -0.1478   -1.6778    1.5262 H   0  0  0  0  0  0  0  0  0  0  0  0
    0.6477   -1.0571    0.0680 H   0  0  0  0  0  0  0  0  0  0  0  0
   -0.4818    1.0855    0.0824 H   0  0  0  0  0  0  0  0  0  0  0  0
   -1.4285    0.3765    1.6487 H   0  0  0  0  0  0  0  0  0  0  0  0
   -2.4162    0.7805    0.2240 H   0  0  0  0  0  0  0  0  0  0  0  0
  1  2  1  0
  1  5  1  0
  1  6  1  0
  1  7  1  0
  2  3  1  0
  2  8  1  0
  2 26  1  0
  3  4  1  0
  3  9  1  0
  3 10  1  0
  4 11  1  0
  4 12  1  0
  4 13  1  0
 14 15  1  0
 14 19  1  0
 14 20  1  0
 14 21  1  0
 15 16  1  0
 15 22  1  0
 15 23  1  0
 16 17  1  0
 16 24  1  0
 16 25  1  0
 17 18  1  0
 18 27  1  0
 18 28  1  0
M  RAD  1  18   2
M  END
>  <reaction>  (11) 
rmg_rxn_657

>  <mol_properties>  (11) 
{"1": {"label": "*3", "atom_type": "Cs"}, "2": {"label": "*4", "atom_type": "Cs"}, "16": {"label": "*0", "atom_type": "O2s"}, "17": {"label": "*1", "atom_type": "Cs"}, "25": {"label": "*2", "atom_type": "H0"}}

>  <type>  (11) 
unop_7

>  <geom_source>  (11) 
Heuristics

$$$$

     RDKit          3D

 28 26  0  0  0  0  0  0  0  0999 V2000
    2.2979    1.7570    0.3315 C   0  0  0  0  0  0  0  0  0  0  0  0
    0.7852    1.7873    0.1607 C   0  0  0  0  0  0  0  0  0  0  0  0
    0.3441    2.4441   -1.1422 C   0  0  0  0  0  0  0  0  0  0  0  0
   -1.1687    2.4744   -1.3129 C   0  0  0  0  0  0  0  0  0  0  0  0
    2.7125    2.7679    0.3277 H   0  0  0  0  0  0  0  0  0  0  0  0
    2.7726    1.2028   -0.4817 H   0  0  0  0  0  0  0  0  0  0  0  0
    2.5854    1.2822    1.2710 H   0  0  0  0  0  0  0  0  0  0  0  0
    0.3311    2.3203    1.0023 H   0  0  0  0  0  0  0  0  0  0  0  0
    0.7982    1.9111   -1.9838 H   0  0  0  0  0  0  0  0  0  0  0  0
    0.7385    3.4647   -1.1803 H   0  0  0  0  0  0  0  0  0  0  0  0
   -1.6433    3.0286   -0.4997 H   0  0  0  0  0  0  0  0  0  0  0  0
   -1.4561    2.9492   -2.2524 H   0  0  0  0  0  0  0  0  0  0  0  0
   -1.5833    1.4635   -1.3091 H   0  0  0  0  0  0  0  0  0  0  0  0
    0.0569   -3.0476   -1.1433 C   0  0  0  0  0  0  0  0  0  0  0  0
    0.0569   -3.0476    0.3796 C   0  0  0  0  0  0  0  0  0  0  0  0
    0.0569   -1.6550    0.9757 C   0  0  0  0  0  0  0  0  0  0  0  0
   -1.1281   -0.9915    0.6115 O   0  0  0  0  0  0  0  0  0  0  0  0
   -1.1889    0.3196    1.0967 C   0  0  0  0  0  3  0  0  0  0  0  0
    0.9393   -2.5339   -1.5330 H   0  0  0  0  0  0  0  0  0  0  0  0
   -0.8255   -2.5377   -1.5297 H   0  0  0  0  0  0  0  0  0  0  0  0
    0.0619   -4.0656   -1.5356 H   0  0  0  0  0  0  0  0  0  0  0  0
   -0.8172   -3.5857    0.7552 H   0  0  0  0  0  0  0  0  0  0  0  0
    0.9387   -3.5737    0.7559 H   0  0  0  0  0  0  0  0  0  0  0  0
    0.1338   -1.7087    2.0717 H   0  0  0  0  0  0  0  0  0  0  0  0
    0.9293   -1.0880    0.6135 H   0  0  0  0  0  0  0  0  0  0  0  0
   -0.2002    1.0546    0.6279 H   0  0  0  0  0  0  0  0  0  0  0  0
   -1.1469    0.3457    2.1942 H   0  0  0  0  0  0  0  0  0  0  0  0
   -2.1346    0.7497    0.7696 H   0  0  0  0  0  0  0  0  0  0  0  0
  1  2  1  0
  1  5  1  0
  1  6  1  0
  1  7  1  0
  2  3  1  0
  2  8  1  0
  2 26  1  0
  3  4  1  0
  3  9  1  0
  3 10  1  0
  4 11  1  0
  4 12  1  0
  4 13  1  0
 14 15  1  0
 14 19  1  0
 14 20  1  0
 14 21  1  0
 15 16  1  0
 15 22  1  0
 15 23  1  0
 16 17  1  0
 16 24  1  0
 16 25  1  0
 17 18  1  0
 18 27  1  0
 18 28  1  0
M  RAD  1  18   2
M  END
>  <reaction>  (12) 
rmg_rxn_657

>  <mol_properties>  (12) 
{"1": {"label": "*3", "atom_type": "Cs"}, "2": {"label": "*4", "atom_type": "Cs"}, "16": {"label": "*0", "atom_type": "O2s"}, "17": {"label": "*1", "atom_type": "Cs"}, "25": {"label": "*2", "atom_type": "H0"}}

>  <type>  (12) 
unop_8

>  <geom_source>  (12) 
Heuristics

$$$$

     RDKit          3D

 28 26  0  0  0  0  0  0  0  0999 V2000
    0.5533    2.9792    1.1877 C   0  0  0  0  0  0  0  0  0  0  0  0
    0.4160    2.1336   -0.0712 C   0  0  0  0  0  0  0  0  0  0  0  0
    1.6247    1.2403   -0.3255 C   0  0  0  0  0  0  0  0  0  0  0  0
    1.4874    0.3946   -1.5844 C   0  0  0  0  0  0  0  0  0  0  0  0
    1.4262    3.6335    1.1263 H   0  0  0  0  0  0  0  0  0  0  0  0
    0.6753    2.3484    2.0714 H   0  0  0  0  0  0  0  0  0  0  0  0
   -0.3245    3.6080    1.3453 H   0  0  0  0  0  0  0  0  0  0  0  0
    0.2641    2.7860   -0.9372 H   0  0  0  0  0  0  0  0  0  0  0  0
    1.7765    0.5879    0.5405 H   0  0  0  0  0  0  0  0  0  0  0  0
    2.5219    1.8634   -0.3977 H   0  0  0  0  0  0  0  0  0  0  0  0
    1.3654    1.0254   -2.4682 H   0  0  0  0  0  0  0  0  0  0  0  0
    2.3651   -0.2342   -1.7420 H   0  0  0  0  0  0  0  0  0  0  0  0
    0.6145   -0.2596   -1.5231 H   0  0  0  0  0  0  0  0  0  0  0  0
   -0.3122   -2.7013   -1.3752 C   0  0  0  0  0  0  0  0  0  0  0  0
   -0.3122   -2.7013    0.1477 C   0  0  0  0  0  0  0  0  0  0  0  0
   -0.3122   -1.3087    0.7438 C   0  0  0  0  0  0  0  0  0  0  0  0
   -1.4973   -0.6452    0.3796 O   0  0  0  0  0  0  0  0  0  0  0  0
   -1.5581    0.6659    0.8648 C   0  0  0  0  0  3  0  0  0  0  0  0
    0.5702   -2.1876   -1.7649 H   0  0  0  0  0  0  0  0  0  0  0  0
   -1.1947   -2.1914   -1.7616 H   0  0  0  0  0  0  0  0  0  0  0  0
   -0.3073   -3.7193   -1.7675 H   0  0  0  0  0  0  0  0  0  0  0  0
   -1.1863   -3.2394    0.5233 H   0  0  0  0  0  0  0  0  0  0  0  0
    0.5695   -3.2274    0.5240 H   0  0  0  0  0  0  0  0  0  0  0  0
   -0.2354   -1.3624    1.8398 H   0  0  0  0  0  0  0  0  0  0  0  0
    0.5602   -0.7417    0.3816 H   0  0  0  0  0  0  0  0  0  0  0  0
   -0.5694    1.4009    0.3960 H   0  0  0  0  0  0  0  0  0  0  0  0
   -1.5161    0.6920    1.9623 H   0  0  0  0  0  0  0  0  0  0  0  0
   -2.5037    1.0960    0.5376 H   0  0  0  0  0  0  0  0  0  0  0  0
  1  2  1  0
  1  5  1  0
  1  6  1  0
  1  7  1  0
  2  3  1  0
  2  8  1  0
  2 26  1  0
  3  4  1  0
  3  9  1  0
  3 10  1  0
  4 11  1  0
  4 12  1  0
  4 13  1  0
 14 15  1  0
 14 19  1  0
 14 20  1  0
 14 21  1  0
 15 16  1  0
 15 22  1  0
 15 23  1  0
 16 17  1  0
 16 24  1  0
 16 25  1  0
 17 18  1  0
 18 27  1  0
 18 28  1  0
M  RAD  1  18   2
M  END
>  <reaction>  (13) 
rmg_rxn_657

>  <mol_properties>  (13) 
{"1": {"label": "*3", "atom_type": "Cs"}, "2": {"label": "*4", "atom_type": "Cs"}, "16": {"label": "*0", "atom_type": "O2s"}, "17": {"label": "*1", "atom_type": "Cs"}, "25": {"label": "*2", "atom_type": "H0"}}

>  <type>  (13) 
unop_9

>  <geom_source>  (13) 
Heuristics

$$$$

     RDKit          3D

 28 26  0  0  0  0  0  0  0  0999 V2000
    2.1200    2.1389    0.7356 C   0  0  0  0  0  0  0  0  0  0  0  0
    0.7065    1.9245    0.2116 C   0  0  0  0  0  0  0  0  0  0  0  0
    0.6211    1.9636   -1.3099 C   0  0  0  0  0  0  0  0  0  0  0  0
   -0.7924    1.7492   -1.8339 C   0  0  0  0  0  0  0  0  0  0  0  0
    2.5120    3.1084    0.4190 H   0  0  0  0  0  0  0  0  0  0  0  0
    2.7981    1.3698    0.3583 H   0  0  0  0  0  0  0  0  0  0  0  0
    2.1521    2.1061    1.8259 H   0  0  0  0  0  0  0  0  0  0  0  0
    0.0409    2.6877    0.6275 H   0  0  0  0  0  0  0  0  0  0  0  0
    1.2868    1.2003   -1.7258 H   0  0  0  0  0  0  0  0  0  0  0  0
    1.0027    2.9262   -1.6655 H   0  0  0  0  0  0  0  0  0  0  0  0
   -1.4705    2.5183   -1.4566 H   0  0  0  0  0  0  0  0  0  0  0  0
   -0.8244    1.7820   -2.9242 H   0  0  0  0  0  0  0  0  0  0  0  0
   -1.1843    0.7797   -1.5173 H   0  0  0  0  0  0  0  0  0  0  0  0
   -0.0217   -2.9103   -1.0925 C   0  0  0  0  0  0  0  0  0  0  0  0
   -0.0217   -2.9103    0.4304 C   0  0  0  0  0  0  0  0  0  0  0  0
   -0.0217   -1.5178    1.0265 C   0  0  0  0  0  0  0  0  0  0  0  0
   -1.2068   -0.8543    0.6624 O   0  0  0  0  0  0  0  0  0  0  0  0
   -1.2676    0.4568    1.1475 C   0  0  0  0  0  3  0  0  0  0  0  0
    0.8607   -2.3967   -1.4822 H   0  0  0  0  0  0  0  0  0  0  0  0
   -0.9042   -2.4004   -1.4789 H   0  0  0  0  0  0  0  0  0  0  0  0
   -0.0168   -3.9283   -1.4848 H   0  0  0  0  0  0  0  0  0  0  0  0
   -0.8958   -3.4485    0.8061 H   0  0  0  0  0  0  0  0  0  0  0  0
    0.8600   -3.4365    0.8067 H   0  0  0  0  0  0  0  0  0  0  0  0
    0.0551   -1.5715    2.1226 H   0  0  0  0  0  0  0  0  0  0  0  0
    0.8507   -0.9507    0.6643 H   0  0  0  0  0  0  0  0  0  0  0  0
   -0.2789    1.1919    0.6788 H   0  0  0  0  0  0  0  0  0  0  0  0
   -1.2256    0.4829    2.2450 H   0  0  0  0  0  0  0  0  0  0  0  0
   -2.2132    0.8869    0.8204 H   0  0  0  0  0  0  0  0  0  0  0  0
  1  2  1  0
  1  5  1  0
  1  6  1  0
  1  7  1  0
  2  3  1  0
  2  8  1  0
  2 26  1  0
  3  4  1  0
  3  9  1  0
  3 10  1  0
  4 11  1  0
  4 12  1  0
  4 13  1  0
 14 15  1  0
 14 19  1  0
 14 20  1  0
 14 21  1  0
 15 16  1  0
 15 22  1  0
 15 23  1  0
 16 17  1  0
 16 24  1  0
 16 25  1  0
 17 18  1  0
 18 27  1  0
 18 28  1  0
M  RAD  1  18   2
M  END
>  <reaction>  (14) 
rmg_rxn_657

>  <mol_properties>  (14) 
{"1": {"label": "*3", "atom_type": "Cs"}, "2": {"label": "*4", "atom_type": "Cs"}, "16": {"label": "*0", "atom_type": "O2s"}, "17": {"label": "*1", "atom_type": "Cs"}, "25": {"label": "*2", "atom_type": "H0"}}

>  <type>  (14) 
unop_10

>  <geom_source>  (14) 
Heuristics

$$$$

     RDKit          3D

 28 26  0  0  0  0  0  0  0  0999 V2000
   -0.3720    2.1847   -1.4088 C   0  0  0  0  0  0  0  0  0  0  0  0
    0.6087    1.6967   -0.3511 C   0  0  0  0  0  0  0  0  0  0  0  0
    0.9635    2.7677    0.6740 C   0  0  0  0  0  0  0  0  0  0  0  0
    1.9442    2.2798    1.7317 C   0  0  0  0  0  0  0  0  0  0  0  0
    0.0391    3.0322   -1.9623 H   0  0  0  0  0  0  0  0  0  0  0  0
   -1.3091    2.5121   -0.9523 H   0  0  0  0  0  0  0  0  0  0  0  0
   -0.6082    1.3992   -2.1285 H   0  0  0  0  0  0  0  0  0  0  0  0
    1.5261    1.3458   -0.8347 H   0  0  0  0  0  0  0  0  0  0  0  0
    0.0462    3.1186    1.1576 H   0  0  0  0  0  0  0  0  0  0  0  0
    1.3845    3.6349    0.1550 H   0  0  0  0  0  0  0  0  0  0  0  0
    2.8813    1.9523    1.2752 H   0  0  0  0  0  0  0  0  0  0  0  0
    2.1805    3.0652    2.4514 H   0  0  0  0  0  0  0  0  0  0  0  0
    1.5332    1.4322    2.2853 H   0  0  0  0  0  0  0  0  0  0  0  0
   -0.1195   -3.1381   -1.6551 C   0  0  0  0  0  0  0  0  0  0  0  0
   -0.1195   -3.1381   -0.1322 C   0  0  0  0  0  0  0  0  0  0  0  0
   -0.1195   -1.7455    0.4639 C   0  0  0  0  0  0  0  0  0  0  0  0
   -1.3045   -1.0821    0.0998 O   0  0  0  0  0  0  0  0  0  0  0  0
   -1.3653    0.2290    0.5849 C   0  0  0  0  0  3  0  0  0  0  0  0
    0.7629   -2.6244   -2.0448 H   0  0  0  0  0  0  0  0  0  0  0  0
   -1.0019   -2.6282   -2.0415 H   0  0  0  0  0  0  0  0  0  0  0  0
   -0.1146   -4.1561   -2.0474 H   0  0  0  0  0  0  0  0  0  0  0  0
   -0.9936   -3.6762    0.2435 H   0  0  0  0  0  0  0  0  0  0  0  0
    0.7622   -3.6642    0.2441 H   0  0  0  0  0  0  0  0  0  0  0  0
   -0.0427   -1.7992    1.5600 H   0  0  0  0  0  0  0  0  0  0  0  0
    0.7529   -1.1785    0.1017 H   0  0  0  0  0  0  0  0  0  0  0  0
   -0.3767    0.9641    0.1162 H   0  0  0  0  0  0  0  0  0  0  0  0
   -1.3233    0.2552    1.6824 H   0  0  0  0  0  0  0  0  0  0  0  0
   -2.3110    0.6592    0.2578 H   0  0  0  0  0  0  0  0  0  0  0  0
  1  2  1  0
  1  5  1  0
  1  6  1  0
  1  7  1  0
  2  3  1  0
  2  8  1  0
  2 26  1  0
  3  4  1  0
  3  9  1  0
  3 10  1  0
  4 11  1  0
  4 12  1  0
  4 13  1  0
 14 15  1  0
 14 19  1  0
 14 20  1  0
 14 21  1  0
 15 16  1  0
 15 22  1  0
 15 23  1  0
 16 17  1  0
 16 24  1  0
 16 25  1  0
 17 18  1  0
 18 27  1  0
 18 28  1  0
M  RAD  1  18   2
M  END
>  <reaction>  (15) 
rmg_rxn_657

>  <mol_properties>  (15) 
{"1": {"label": "*3", "atom_type": "Cs"}, "2": {"label": "*4", "atom_type": "Cs"}, "16": {"label": "*0", "atom_type": "O2s"}, "17": {"label": "*1", "atom_type": "Cs"}, "25": {"label": "*2", "atom_type": "H0"}}

>  <type>  (15) 
unop_11

>  <geom_source>  (15) 
Heuristics

$$$$

     RDKit          3D

 28 26  0  0  0  0  0  0  0  0999 V2000
    1.2693    2.7352    1.2365 C   0  0  0  0  0  0  0  0  0  0  0  0
    0.4922    2.1254    0.0778 C   0  0  0  0  0  0  0  0  0  0  0  0
    1.3593    1.2695   -0.8383 C   0  0  0  0  0  0  0  0  0  0  0  0
    0.5822    0.6596   -1.9970 C   0  0  0  0  0  0  0  0  0  0  0  0
    2.0769    3.3749    0.8726 H   0  0  0  0  0  0  0  0  0  0  0  0
    1.7193    1.9576    1.8583 H   0  0  0  0  0  0  0  0  0  0  0  0
    0.6253    3.3419    1.8752 H   0  0  0  0  0  0  0  0  0  0  0  0
    0.0261    2.9217   -0.5114 H   0  0  0  0  0  0  0  0  0  0  0  0
    1.8255    0.4731   -0.2491 H   0  0  0  0  0  0  0  0  0  0  0  0
    2.1805    1.8800   -1.2276 H   0  0  0  0  0  0  0  0  0  0  0  0
    0.1323    1.4372   -2.6188 H   0  0  0  0  0  0  0  0  0  0  0  0
    1.2262    0.0529   -2.6357 H   0  0  0  0  0  0  0  0  0  0  0  0
   -0.2254    0.0199   -1.6331 H   0  0  0  0  0  0  0  0  0  0  0  0
   -0.2360   -2.7095   -1.2262 C   0  0  0  0  0  0  0  0  0  0  0  0
   -0.2360   -2.7095    0.2967 C   0  0  0  0  0  0  0  0  0  0  0  0
   -0.2360   -1.3169    0.8927 C   0  0  0  0  0  0  0  0  0  0  0  0
   -1.4210   -0.6534    0.5286 O   0  0  0  0  0  0  0  0  0  0  0  0
   -1.4818    0.6577    1.0137 C   0  0  0  0  0  3  0  0  0  0  0  0
    0.6464   -2.1958   -1.6160 H   0  0  0  0  0  0  0  0  0  0  0  0
   -1.1184   -2.1996   -1.6127 H   0  0  0  0  0  0  0  0  0  0  0  0
   -0.2311   -3.7274   -1.6185 H   0  0  0  0  0  0  0  0  0  0  0  0
   -1.1101   -3.2476    0.6723 H   0  0  0  0  0  0  0  0  0  0  0  0
    0.6457   -3.2356    0.6729 H   0  0  0  0  0  0  0  0  0  0  0  0
   -0.1592   -1.3706    1.9888 H   0  0  0  0  0  0  0  0  0  0  0  0
    0.6364   -0.7498    0.5305 H   0  0  0  0  0  0  0  0  0  0  0  0
   -0.4932    1.3928    0.5450 H   0  0  0  0  0  0  0  0  0  0  0  0
   -1.4398    0.6838    2.1112 H   0  0  0  0  0  0  0  0  0  0  0  0
   -2.4275    1.0878    0.6866 H   0  0  0  0  0  0  0  0  0  0  0  0
  1  2  1  0
  1  5  1  0
  1  6  1  0
  1  7  1  0
  2  3  1  0
  2  8  1  0
  2 26  1  0
  3  4  1  0
  3  9  1  0
  3 10  1  0
  4 11  1  0
  4 12  1  0
  4 13  1  0
 14 15  1  0
 14 19  1  0
 14 20  1  0
 14 21  1  0
 15 16  1  0
 15 22  1  0
 15 23  1  0
 16 17  1  0
 16 24  1  0
 16 25  1  0
 17 18  1  0
 18 27  1  0
 18 28  1  0
M  RAD  1  18   2
M  END
>  <reaction>  (16) 
rmg_rxn_657

>  <mol_properties>  (16) 
{"1": {"label": "*3", "atom_type": "Cs"}, "2": {"label": "*4", "atom_type": "Cs"}, "16": {"label": "*0", "atom_type": "O2s"}, "17": {"label": "*1", "atom_type": "Cs"}, "25": {"label": "*2", "atom_type": "H0"}}

>  <type>  (16) 
unop_12

>  <geom_source>  (16) 
Heuristics

$$$$

     RDKit          3D

 28 26  0  0  0  0  0  0  0  0999 V2000
    1.7481    0.5903   -0.0693 O   0  0  0  0  0  0  0  0  0  0  0  0
   -2.6077    0.6537   -1.6492 C   0  0  0  0  0  0  0  0  0  0  0  0
   -1.2329    0.0959   -1.2561 C   0  0  0  0  0  0  0  0  0  0  0  0
    2.5203   -1.3424    1.1320 C   0  0  0  0  0  0  0  0  0  0  0  0
    1.3749   -0.3542    0.9058 C   0  0  0  0  0  0  0  0  0  0  0  0
   -3.3705    1.2272   -0.4562 C   0  0  0  0  0  0  0  0  0  0  0  0
   -1.3295   -1.1917   -0.4399 C   0  0  0  0  0  0  0  0  0  0  0  0
    3.7518   -0.6609    1.7254 C   0  0  0  0  0  0  0  0  0  0  0  0
    0.6697    1.4709   -0.2308 C   0  0  0  0  0  3  0  0  0  0  0  0
   -3.2175   -0.1371   -2.1379 H   0  0  0  0  0  0  0  0  0  0  0  0
   -2.4557    1.4684   -2.3896 H   0  0  0  0  0  0  0  0  0  0  0  0
   -0.6618   -0.1208   -2.1848 H   0  0  0  0  0  0  0  0  0  0  0  0
   -0.5575    1.0009   -0.5704 H   0  0  0  0  0  0  0  0  0  0  0  0
    2.7932   -1.8225    0.1672 H   0  0  0  0  0  0  0  0  0  0  0  0
    2.1797   -2.1383    1.8292 H   0  0  0  0  0  0  0  0  0  0  0  0
    0.4860   -0.9341    0.5636 H   0  0  0  0  0  0  0  0  0  0  0  0
    1.1315    0.1439    1.8741 H   0  0  0  0  0  0  0  0  0  0  0  0
   -2.7569    1.9908    0.0674 H   0  0  0  0  0  0  0  0  0  0  0  0
   -3.6482    0.4231    0.2563 H   0  0  0  0  0  0  0  0  0  0  0  0
   -4.3044    1.7099   -0.8135 H   0  0  0  0  0  0  0  0  0  0  0  0
   -1.7834   -0.9922    0.5525 H   0  0  0  0  0  0  0  0  0  0  0  0
   -1.9341   -1.9510   -0.9801 H   0  0  0  0  0  0  0  0  0  0  0  0
   -0.3101   -1.6002   -0.2776 H   0  0  0  0  0  0  0  0  0  0  0  0
    4.1411    0.1129    1.0303 H   0  0  0  0  0  0  0  0  0  0  0  0
    3.5002   -0.1876    2.6984 H   0  0  0  0  0  0  0  0  0  0  0  0
    4.5481   -1.4162    1.8941 H   0  0  0  0  0  0  0  0  0  0  0  0
    0.9845    2.4974    0.0499 H   0  0  0  0  0  0  0  0  0  0  0  0
    0.3414    1.4636   -1.2908 H   0  0  0  0  0  0  0  0  0  0  0  0
  1  9  1  0
  1  5  1  0
  2  6  1  0
  2  3  1  0
  2 10  1  0
  2 11  1  0
  3  7  1  0
  3 12  1  0
  3 13  1  0
  4  8  1  0
  4  5  1  0
  4 14  1  0
  4 15  1  0
  5 16  1  0
  5 17  1  0
  6 18  1  0
  6 19  1  0
  6 20  1  0
  7 21  1  0
  7 22  1  0
  7 23  1  0
  8 24  1  0
  8 25  1  0
  8 26  1  0
  9 27  1  0
  9 28  1  0
M  RAD  1   9   2
M  END
>  <reaction>  (17) 
rmg_rxn_657

>  <mol_properties>  (17) 
{"1": {"label": "*3", "atom_type": "Cs"}, "2": {"label": "*4", "atom_type": "Cs"}, "16": {"label": "*0", "atom_type": "O2s"}, "17": {"label": "*1", "atom_type": "Cs"}, "25": {"label": "*2", "atom_type": "H0"}}

>  <type>  (17) 
unop_13

>  <geom_source>  (17) 
AutoTST

$$$$

     RDKit          3D

 28 26  0  0  0  0  0  0  0  0999 V2000
    1.7958    2.4582    1.0292 C   0  0  0  0  0  0  0  0  0  0  0  0
    0.5990    2.0485    0.1815 C   0  0  0  0  0  0  0  0  0  0  0  0
    0.9925    1.5339   -1.1983 C   0  0  0  0  0  0  0  0  0  0  0  0
   -0.2043    1.1243   -2.0460 C   0  0  0  0  0  0  0  0  0  0  0  0
    2.3660    3.2533    0.5429 H   0  0  0  0  0  0  0  0  0  0  0  0
    2.4725    1.6146    1.1845 H   0  0  0  0  0  0  0  0  0  0  0  0
    1.4858    2.8221    2.0101 H   0  0  0  0  0  0  0  0  0  0  0  0
   -0.0785    2.9008    0.0662 H   0  0  0  0  0  0  0  0  0  0  0  0
    1.6699    0.6817   -1.0831 H   0  0  0  0  0  0  0  0  0  0  0  0
    1.5642    2.3083   -1.7199 H   0  0  0  0  0  0  0  0  0  0  0  0
   -0.8810    1.9679   -2.2013 H   0  0  0  0  0  0  0  0  0  0  0  0
    0.1057    0.7604   -3.0270 H   0  0  0  0  0  0  0  0  0  0  0  0
   -0.7745    0.3292   -1.5598 H   0  0  0  0  0  0  0  0  0  0  0  0
   -0.1292   -2.7863   -1.1225 C   0  0  0  0  0  0  0  0  0  0  0  0
   -0.1292   -2.7863    0.4004 C   0  0  0  0  0  0  0  0  0  0  0  0
   -0.1292   -1.3937    0.9964 C   0  0  0  0  0  0  0  0  0  0  0  0
   -1.3142   -0.7302    0.6323 O   0  0  0  0  0  0  0  0  0  0  0  0
   -1.3750    0.5808    1.1175 C   0  0  0  0  0  3  0  0  0  0  0  0
    0.7532   -2.2726   -1.5122 H   0  0  0  0  0  0  0  0  0  0  0  0
   -1.0116   -2.2764   -1.5089 H   0  0  0  0  0  0  0  0  0  0  0  0
   -0.1243   -3.8043   -1.5148 H   0  0  0  0  0  0  0  0  0  0  0  0
   -1.0033   -3.3244    0.7760 H   0  0  0  0  0  0  0  0  0  0  0  0
    0.7525   -3.3124    0.7766 H   0  0  0  0  0  0  0  0  0  0  0  0
   -0.0524   -1.4474    2.0925 H   0  0  0  0  0  0  0  0  0  0  0  0
    0.7432   -0.8267    0.6342 H   0  0  0  0  0  0  0  0  0  0  0  0
   -0.3864    1.3159    0.6487 H   0  0  0  0  0  0  0  0  0  0  0  0
   -1.3330    0.6070    2.2149 H   0  0  0  0  0  0  0  0  0  0  0  0
   -2.3207    1.0110    0.7903 H   0  0  0  0  0  0  0  0  0  0  0  0
  1  2  1  0
  1  5  1  0
  1  6  1  0
  1  7  1  0
  2  3  1  0
  2  8  1  0
  2 26  1  0
  3  4  1  0
  3  9  1  0
  3 10  1  0
  4 11  1  0
  4 12  1  0
  4 13  1  0
 14 15  1  0
 14 19  1  0
 14 20  1  0
 14 21  1  0
 15 16  1  0
 15 22  1  0
 15 23  1  0
 16 17  1  0
 16 24  1  0
 16 25  1  0
 17 18  1  0
 18 27  1  0
 18 28  1  0
M  RAD  1  18   2
M  END
>  <reaction>  (18) 
rmg_rxn_657

>  <mol_properties>  (18) 
{"1": {"label": "*3", "atom_type": "Cs"}, "2": {"label": "*4", "atom_type": "Cs"}, "16": {"label": "*0", "atom_type": "O2s"}, "17": {"label": "*1", "atom_type": "Cs"}, "25": {"label": "*2", "atom_type": "H0"}}

>  <type>  (18) 
unop_14

>  <geom_source>  (18) 
gaussian_log

$$$$
