
     RDKit          3D

 18 17  0  0  0  0  0  0  0  0999 V2000
    2.2026   -0.7213   -0.2612 C   0  0  0  0  0  0  0  0  0  0  0  0
    1.5384    0.2638    0.6915 C   0  0  0  0  0  0  0  0  0  0  0  0
    2.2584    1.5946    0.7694 C   0  0  0  0  0  0  0  0  0  0  0  0
    2.2212    2.2185   -0.4893 O   0  0  0  0  0  0  0  0  0  0  0  0
    2.8988    3.4488   -0.5204 C   0  0  0  0  0  0  0  0  0  0  0  0
    2.7981    4.0296   -1.9118 C   0  0  0  0  0  0  0  0  0  0  0  0
    3.2294   -0.9309    0.0486 H   0  0  0  0  0  0  0  0  0  0  0  0
    2.2338   -0.3181   -1.2734 H   0  0  0  0  0  0  0  0  0  0  0  0
    1.6610   -1.6680   -0.2875 H   0  0  0  0  0  0  0  0  0  0  0  0
    1.4990   -0.1566    1.7002 H   0  0  0  0  0  0  0  0  0  0  0  0
    0.5055    0.4455    0.3835 H   0  0  0  0  0  0  0  0  0  0  0  0
    3.3038    1.4410    1.0808 H   0  0  0  0  0  0  0  0  0  0  0  0
    1.7844    2.2410    1.5226 H   0  0  0  0  0  0  0  0  0  0  0  0
    2.4596    4.1376    0.2164 H   0  0  0  0  0  0  0  0  0  0  0  0
    3.9524    3.3035   -0.2397 H   0  0  0  0  0  0  0  0  0  0  0  0
    1.7543    4.1869   -2.1856 H   0  0  0  0  0  0  0  0  0  0  0  0
    3.2472    3.3545   -2.6411 H   0  0  0  0  0  0  0  0  0  0  0  0
    3.3178    4.9878   -1.9600 H   0  0  0  0  0  0  0  0  0  0  0  0
  1  2  1  0
  1  7  1  0
  1  8  1  0
  1  9  1  0
  2  3  1  0
  2 10  1  0
  2 11  1  0
  3  4  1  0
  3 12  1  0
  3 13  1  0
  4  5  1  0
  5  6  1  0
  5 14  1  0
  5 15  1  0
  6 16  1  0
  6 17  1  0
  6 18  1  0
M  END
>  <reaction>  (1) 
rmg_rxn_15618

>  <mol_properties>  (1) 
{"4": {"label": "donator", "atom_type": "Cs"}, "13": {"label": "d_hydrogen", "atom_type": "H0"}}

>  <type>  (1) 
r1h

$$$$

     RDKit          3D

  8  7  0  0  0  0  0  0  0  0999 V2000
    1.7077   -0.1964   -0.0607 C   0  0  0  0  0  3  0  0  0  0  0  0
    0.4209   -0.4565    0.2808 O   0  0  0  0  0  0  0  0  0  0  0  0
   -0.4607    0.4385   -0.2968 N   0  0  0  0  0  0  0  0  0  0  0  0
   -1.6584    0.1416   -0.0244 C   0  0  0  0  0  0  0  0  0  0  0  0
    2.4163   -0.7685    0.5170 H   0  0  0  0  0  0  0  0  0  0  0  0
    1.9214    0.7645   -0.5045 H   0  0  0  0  0  0  0  0  0  0  0  0
   -2.4185    0.7953   -0.4307 H   0  0  0  0  0  0  0  0  0  0  0  0
   -1.9286   -0.7185    0.5831 H   0  0  0  0  0  0  0  0  0  0  0  0
  1  2  1  0
  1  5  1  0
  1  6  1  0
  2  3  1  0
  3  4  2  3
  4  7  1  0
  4  8  1  0
M  RAD  1   1   2
M  END
>  <reaction>  (2) 
rmg_rxn_15618

>  <mol_properties>  (2) 
{"0": {"label": "acceptor", "atom_type": "Cs"}}

>  <type>  (2) 
r2

$$$$

     RDKit          3D

  9  8  0  0  0  0  0  0  0  0999 V2000
   -1.5470   -0.0755   -0.1976 C   0  0  0  0  0  0  0  0  0  0  0  0
   -0.2885    0.4507    0.1749 O   0  0  0  0  0  0  0  0  0  0  0  0
   -0.1502    1.7216   -0.3294 N   0  0  0  0  0  0  0  0  0  0  0  0
    0.9626    2.2353   -0.0219 C   0  0  0  0  0  0  0  0  0  0  0  0
   -1.6392   -0.1356   -1.2844 H   0  0  0  0  0  0  0  0  0  0  0  0
   -2.3597    0.5337    0.2044 H   0  0  0  0  0  0  0  0  0  0  0  0
   -1.5879   -1.0750    0.2318 H   0  0  0  0  0  0  0  0  0  0  0  0
    1.1497    3.2381   -0.3820 H   0  0  0  0  0  0  0  0  0  0  0  0
    1.7060    1.7101    0.5739 H   0  0  0  0  0  0  0  0  0  0  0  0
  1  2  1  0
  1  5  1  0
  1  6  1  0
  1  7  1  0
  2  3  1  0
  3  4  2  3
  4  8  1  0
  4  9  1  0
M  END
>  <reaction>  (3) 
rmg_rxn_15618

>  <mol_properties>  (3) 
{"0": {"label": "acceptor", "atom_type": "Cs"}, "8": {"label": "a_hydrogen", "atom_type": "H0"}}

>  <type>  (3) 
r2h

$$$$

     RDKit          3D

 26 24  0  0  0  0  0  0  0  0999 V2000
   -0.1058    1.8164    1.6630 C   0  0  0  0  0  3  0  0  0  0  0  0
   -0.7151    0.6601    2.1390 O   0  0  0  0  0  0  0  0  0  0  0  0
    0.1543   -0.4049    2.1025 N   0  0  0  0  0  0  0  0  0  0  0  0
   -0.4182   -1.4913    2.4011 C   0  0  0  0  0  0  0  0  0  0  0  0
   -0.7245    2.6649    1.9440 H   0  0  0  0  0  0  0  0  0  0  0  0
    0.9385    1.9005    1.9607 H   0  0  0  0  0  0  0  0  0  0  0  0
    0.2027   -2.3770    2.4110 H   0  0  0  0  0  0  0  0  0  0  0  0
   -1.4776   -1.5505    2.6385 H   0  0  0  0  0  0  0  0  0  0  0  0
    0.8412   -2.1563   -2.7391 C   0  0  0  0  0  0  0  0  0  0  0  0
    1.2905   -1.7212   -1.3506 C   0  0  0  0  0  0  0  0  0  0  0  0
    1.1955   -0.2271   -1.1288 C   0  0  0  0  0  0  0  0  0  0  0  0
   -0.1555    0.1702   -1.2396 O   0  0  0  0  0  0  0  0  0  0  0  0
   -0.3691    1.5148   -1.0203 C   0  0  0  0  0  0  0  0  0  0  0  0
   -1.8054    1.8784   -1.2518 C   0  0  0  0  0  0  0  0  0  0  0  0
    1.4491   -1.6806   -3.5127 H   0  0  0  0  0  0  0  0  0  0  0  0
   -0.1987   -1.8795   -2.9135 H   0  0  0  0  0  0  0  0  0  0  0  0
    0.9310   -3.2368   -2.8605 H   0  0  0  0  0  0  0  0  0  0  0  0
    2.3290   -2.0182   -1.1799 H   0  0  0  0  0  0  0  0  0  0  0  0
    0.6890   -2.2190   -0.5857 H   0  0  0  0  0  0  0  0  0  0  0  0
    1.7970    0.3124   -1.8757 H   0  0  0  0  0  0  0  0  0  0  0  0
    1.5724    0.0316   -0.1328 H   0  0  0  0  0  0  0  0  0  0  0  0
   -0.1409    1.7575    0.2686 H   0  0  0  0  0  0  0  0  0  0  0  0
    0.3512    2.1468   -1.5569 H   0  0  0  0  0  0  0  0  0  0  0  0
   -2.4519    1.2973   -0.5915 H   0  0  0  0  0  0  0  0  0  0  0  0
   -2.1054    1.6807   -2.2844 H   0  0  0  0  0  0  0  0  0  0  0  0
   -1.9623    2.9380   -1.0444 H   0  0  0  0  0  0  0  0  0  0  0  0
  1  2  1  0
  1  5  1  0
  1  6  1  0
  2  3  1  0
  3  4  2  3
  4  7  1  0
  4  8  1  0
  9 10  1  0
  9 15  1  0
  9 16  1  0
  9 17  1  0
 10 11  1  0
 10 18  1  0
 10 19  1  0
 11 12  1  0
 11 20  1  0
 11 21  1  0
 12 13  1  0
 13 14  1  0
 13 22  1  0
 13 23  1  0
 14 24  1  0
 14 25  1  0
 14 26  1  0
M  RAD  1   1   2
M  END
>  <reaction>  (4) 
rmg_rxn_15618

>  <mol_properties>  (4) 
{"0": {"label": "*3", "atom_type": "Cs"}, "1": {"label": "*4", "atom_type": "O2s"}, "11": {"label": "*0", "atom_type": "O2s"}, "12": {"label": "*1", "atom_type": "Cs"}, "21": {"label": "*2", "atom_type": "H0"}}

>  <type>  (4) 
ts

$$$$

     RDKit          3D

 26 24  0  0  0  0  0  0  0  0999 V2000
    1.0401    0.8622    1.2457 C   0  0  0  0  0  0  0  0  0  0  0  0
    2.1760    0.7659    0.4438 O   0  0  0  0  0  0  0  0  0  0  0  0
    2.2543   -0.4508   -0.2008 N   0  0  0  0  0  0  0  0  0  0  0  0
    3.2425   -0.6100   -0.9722 C   0  0  0  0  0  0  0  0  0  0  0  0
    0.8587   -0.0344    1.8341 H   0  0  0  0  0  0  0  0  0  0  0  0
    1.1502    1.7562    1.8494 H   0  0  0  0  0  0  0  0  0  0  0  0
    3.3120   -1.5600   -1.4712 H   0  0  0  0  0  0  0  0  0  0  0  0
    4.0069    0.1399   -1.1503 H   0  0  0  0  0  0  0  0  0  0  0  0
   -1.2759   -2.2265    1.1668 C   0  0  0  0  0  0  0  0  0  0  0  0
   -0.9083   -1.8567   -0.2647 C   0  0  0  0  0  0  0  0  0  0  0  0
   -1.9314   -0.8915   -0.8710 C   0  0  0  0  0  0  0  0  0  0  0  0
   -2.0364    0.3350   -0.1860 O   0  0  0  0  0  0  0  0  0  0  0  0
   -1.0220    1.2587   -0.3954 C   0  0  0  0  0  3  0  0  0  0  0  0
   -1.4901    2.6597   -0.0836 C   0  0  0  0  0  0  0  0  0  0  0  0
   -0.4994   -2.8437    1.6118 H   0  0  0  0  0  0  0  0  0  0  0  0
   -2.2135   -2.7780    1.1909 H   0  0  0  0  0  0  0  0  0  0  0  0
   -1.3957   -1.3267    1.7655 H   0  0  0  0  0  0  0  0  0  0  0  0
   -0.8823   -2.7529   -0.8873 H   0  0  0  0  0  0  0  0  0  0  0  0
    0.0836   -1.4023   -0.2904 H   0  0  0  0  0  0  0  0  0  0  0  0
   -2.9325   -1.3294   -0.8131 H   0  0  0  0  0  0  0  0  0  0  0  0
   -1.6845   -0.7098   -1.9278 H   0  0  0  0  0  0  0  0  0  0  0  0
   -0.0084    1.0311    0.4656 H   0  0  0  0  0  0  0  0  0  0  0  0
   -0.5624    1.1612   -1.3851 H   0  0  0  0  0  0  0  0  0  0  0  0
   -2.2559    2.9806   -0.7917 H   0  0  0  0  0  0  0  0  0  0  0  0
   -0.6534    3.3508   -0.1362 H   0  0  0  0  0  0  0  0  0  0  0  0
   -1.9198    2.6900    0.9144 H   0  0  0  0  0  0  0  0  0  0  0  0
  1  2  1  0
  1  5  1  0
  1  6  1  0
  1 22  1  0
  2  3  1  0
  3  4  2  3
  4  7  1  0
  4  8  1  0
  9 10  1  0
  9 15  1  0
  9 16  1  0
  9 17  1  0
 10 11  1  0
 10 18  1  0
 10 19  1  0
 11 12  1  0
 11 20  1  0
 11 21  1  0
 12 13  1  0
 13 14  1  0
 13 23  1  0
 14 24  1  0
 14 25  1  0
 14 26  1  0
M  RAD  1  13   2
M  END
>  <reaction>  (5) 
rmg_rxn_15618

>  <mol_properties>  (5) 
{"0": {"label": "*3", "atom_type": "Cs"}, "1": {"label": "*4", "atom_type": "O2s"}, "11": {"label": "*0", "atom_type": "O2s"}, "12": {"label": "*1", "atom_type": "Cs"}, "21": {"label": "*2", "atom_type": "H0"}}

>  <type>  (5) 
unop_1

>  <geom_source>  (5) 
crest_best.xyz

$$$$

     RDKit          3D

 26 24  0  0  0  0  0  0  0  0999 V2000
   -0.5455    0.4949    1.6345 C   0  0  0  0  0  0  0  0  0  0  0  0
    0.5995    1.2637    1.9465 O   0  0  0  0  0  0  0  0  0  0  0  0
    0.3607    2.0143    3.0727 N   0  0  0  0  0  0  0  0  0  0  0  0
    1.3585    2.7207    3.3922 C   0  0  0  0  0  0  0  0  0  0  0  0
   -0.7885   -0.1920    2.4483 H   0  0  0  0  0  0  0  0  0  0  0  0
   -1.4046    1.1382    1.4312 H   0  0  0  0  0  0  0  0  0  0  0  0
    1.2509    3.3426    4.2708 H   0  0  0  0  0  0  0  0  0  0  0  0
    2.2862    2.7158    2.8239 H   0  0  0  0  0  0  0  0  0  0  0  0
    0.5476   -2.8866   -3.2188 C   0  0  0  0  0  0  0  0  0  0  0  0
    0.5476   -2.8866   -1.6959 C   0  0  0  0  0  0  0  0  0  0  0  0
    0.5476   -1.4936   -1.1004 C   0  0  0  0  0  0  0  0  0  0  0  0
   -0.6354   -0.8300   -1.4680 O   0  0  0  0  0  0  0  0  0  0  0  0
   -0.7061    0.4881   -0.9871 C   0  0  0  0  0  3  0  0  0  0  0  0
   -2.0094    1.1059   -1.4379 C   0  0  0  0  0  0  0  0  0  0  0  0
    1.4297   -2.3723   -3.6084 H   0  0  0  0  0  0  0  0  0  0  0  0
   -0.3351   -2.3769   -3.6049 H   0  0  0  0  0  0  0  0  0  0  0  0
    0.5531   -3.9045   -3.6115 H   0  0  0  0  0  0  0  0  0  0  0  0
    1.4292   -3.4131   -1.3196 H   0  0  0  0  0  0  0  0  0  0  0  0
   -0.3267   -3.4246   -1.3206 H   0  0  0  0  0  0  0  0  0  0  0  0
    1.4218   -0.9285   -1.4608 H   0  0  0  0  0  0  0  0  0  0  0  0
    0.6224   -1.5475   -0.0043 H   0  0  0  0  0  0  0  0  0  0  0  0
   -0.6254    0.4915    0.3306 H   0  0  0  0  0  0  0  0  0  0  0  0
    0.1468    1.0711   -1.3650 H   0  0  0  0  0  0  0  0  0  0  0  0
   -2.8558    0.5365   -1.0522 H   0  0  0  0  0  0  0  0  0  0  0  0
   -2.0702    1.1177   -2.5267 H   0  0  0  0  0  0  0  0  0  0  0  0
   -2.0870    2.1319   -1.0749 H   0  0  0  0  0  0  0  0  0  0  0  0
  1  2  1  0
  1  5  1  0
  1  6  1  0
  1 22  1  0
  2  3  1  0
  3  4  2  3
  4  7  1  0
  4  8  1  0
  9 10  1  0
  9 15  1  0
  9 16  1  0
  9 17  1  0
 10 11  1  0
 10 18  1  0
 10 19  1  0
 11 12  1  0
 11 20  1  0
 11 21  1  0
 12 13  1  0
 13 14  1  0
 13 23  1  0
 14 24  1  0
 14 25  1  0
 14 26  1  0
M  RAD  1  13   2
M  END
>  <reaction>  (6) 
rmg_rxn_15618

>  <mol_properties>  (6) 
{"0": {"label": "*3", "atom_type": "Cs"}, "1": {"label": "*4", "atom_type": "O2s"}, "11": {"label": "*0", "atom_type": "O2s"}, "12": {"label": "*1", "atom_type": "Cs"}, "21": {"label": "*2", "atom_type": "H0"}}

>  <type>  (6) 
unop_2

>  <geom_source>  (6) 
Heuristics

$$$$

     RDKit          3D

 26 24  0  0  0  0  0  0  0  0999 V2000
    1.0433   -0.8478   -1.2517 C   0  0  0  0  0  0  0  0  0  0  0  0
    2.1803   -0.7521   -0.4513 O   0  0  0  0  0  0  0  0  0  0  0  0
    2.2516    0.4585    0.2057 N   0  0  0  0  0  0  0  0  0  0  0  0
    3.2406    0.6166    0.9762 C   0  0  0  0  0  0  0  0  0  0  0  0
    0.8572    0.0517   -1.8342 H   0  0  0  0  0  0  0  0  0  0  0  0
    1.1558   -1.7376   -1.8613 H   0  0  0  0  0  0  0  0  0  0  0  0
    3.3048    1.5618    1.4848 H   0  0  0  0  0  0  0  0  0  0  0  0
    4.0105   -0.1299    1.1447 H   0  0  0  0  0  0  0  0  0  0  0  0
   -1.2948    2.2198   -1.1656 C   0  0  0  0  0  0  0  0  0  0  0  0
   -0.9222    1.8533    0.2655 C   0  0  0  0  0  0  0  0  0  0  0  0
   -1.9369    0.8805    0.8736 C   0  0  0  0  0  0  0  0  0  0  0  0
   -2.0341   -0.3466    0.1885 O   0  0  0  0  0  0  0  0  0  0  0  0
   -1.0113   -1.2619    0.3942 C   0  0  0  0  0  3  0  0  0  0  0  0
   -1.4687   -2.6667    0.0835 C   0  0  0  0  0  0  0  0  0  0  0  0
   -2.2369    2.7638   -1.1884 H   0  0  0  0  0  0  0  0  0  0  0  0
   -1.4085    1.3190   -1.7639 H   0  0  0  0  0  0  0  0  0  0  0  0
   -0.5240    2.8431   -1.6120 H   0  0  0  0  0  0  0  0  0  0  0  0
   -0.9023    2.7500    0.8876 H   0  0  0  0  0  0  0  0  0  0  0  0
    0.0732    1.4067    0.2899 H   0  0  0  0  0  0  0  0  0  0  0  0
   -2.9414    1.3108    0.8178 H   0  0  0  0  0  0  0  0  0  0  0  0
   -1.6865    0.7005    1.9298 H   0  0  0  0  0  0  0  0  0  0  0  0
   -0.0024   -1.0252   -0.4699 H   0  0  0  0  0  0  0  0  0  0  0  0
   -0.5492   -1.1609    1.3823 H   0  0  0  0  0  0  0  0  0  0  0  0
   -1.9032   -2.6997   -0.9123 H   0  0  0  0  0  0  0  0  0  0  0  0
   -2.2278   -2.9951    0.7952 H   0  0  0  0  0  0  0  0  0  0  0  0
   -0.6256   -3.3505    0.1310 H   0  0  0  0  0  0  0  0  0  0  0  0
  1  2  1  0
  1  5  1  0
  1  6  1  0
  1 22  1  0
  2  3  1  0
  3  4  2  3
  4  7  1  0
  4  8  1  0
  9 10  1  0
  9 15  1  0
  9 16  1  0
  9 17  1  0
 10 11  1  0
 10 18  1  0
 10 19  1  0
 11 12  1  0
 11 20  1  0
 11 21  1  0
 12 13  1  0
 13 14  1  0
 13 23  1  0
 14 24  1  0
 14 25  1  0
 14 26  1  0
M  RAD  1  13   2
M  END
>  <reaction>  (7) 
rmg_rxn_15618

>  <mol_properties>  (7) 
{"0": {"label": "*3", "atom_type": "Cs"}, "1": {"label": "*4", "atom_type": "O2s"}, "11": {"label": "*0", "atom_type": "O2s"}, "12": {"label": "*1", "atom_type": "Cs"}, "21": {"label": "*2", "atom_type": "H0"}}

>  <type>  (7) 
unop_3

>  <geom_source>  (7) 
Heuristics

$$$$

     RDKit          3D

 26 24  0  0  0  0  0  0  0  0999 V2000
    1.0399   -0.8617   -1.2468 C   0  0  0  0  0  0  0  0  0  0  0  0
    2.1758   -0.7655   -0.4448 O   0  0  0  0  0  0  0  0  0  0  0  0
    2.2525    0.4500    0.2021 N   0  0  0  0  0  0  0  0  0  0  0  0
    3.2403    0.6094    0.9738 C   0  0  0  0  0  0  0  0  0  0  0  0
    0.8582    0.0352   -1.8348 H   0  0  0  0  0  0  0  0  0  0  0  0
    1.1504   -1.7553   -1.8511 H   0  0  0  0  0  0  0  0  0  0  0  0
    3.3085    1.5589    1.4739 H   0  0  0  0  0  0  0  0  0  0  0  0
    4.0056   -0.1398    1.1512 H   0  0  0  0  0  0  0  0  0  0  0  0
   -1.2721    2.2288   -1.1655 C   0  0  0  0  0  0  0  0  0  0  0  0
   -0.9077    1.8559    0.2660 C   0  0  0  0  0  0  0  0  0  0  0  0
   -1.9332    0.8912    0.8691 C   0  0  0  0  0  0  0  0  0  0  0  0
   -2.0366   -0.3356    0.1841 O   0  0  0  0  0  0  0  0  0  0  0  0
   -1.0217   -1.2584    0.3947 C   0  0  0  0  0  3  0  0  0  0  0  0
   -1.4888   -2.6602    0.0849 C   0  0  0  0  0  0  0  0  0  0  0  0
   -0.4938    2.8455   -1.6080 H   0  0  0  0  0  0  0  0  0  0  0  0
   -2.2088    2.7819   -1.1900 H   0  0  0  0  0  0  0  0  0  0  0  0
   -1.3925    1.3303   -1.7661 H   0  0  0  0  0  0  0  0  0  0  0  0
   -0.8811    2.7510    0.8902 H   0  0  0  0  0  0  0  0  0  0  0  0
    0.0835    1.3999    0.2924 H   0  0  0  0  0  0  0  0  0  0  0  0
   -2.9339    1.3294    0.8077 H   0  0  0  0  0  0  0  0  0  0  0  0
   -1.6899    0.7096    1.9268 H   0  0  0  0  0  0  0  0  0  0  0  0
   -0.0084   -1.0311   -0.4667 H   0  0  0  0  0  0  0  0  0  0  0  0
   -0.5620   -1.1593    1.3842 H   0  0  0  0  0  0  0  0  0  0  0  0
   -1.9198   -2.6917   -0.9124 H   0  0  0  0  0  0  0  0  0  0  0  0
   -2.2532   -2.9812    0.7943 H   0  0  0  0  0  0  0  0  0  0  0  0
   -0.6513   -3.3504    0.1370 H   0  0  0  0  0  0  0  0  0  0  0  0
  1  2  1  0
  1  5  1  0
  1  6  1  0
  1 22  1  0
  2  3  1  0
  3  4  2  3
  4  7  1  0
  4  8  1  0
  9 10  1  0
  9 15  1  0
  9 16  1  0
  9 17  1  0
 10 11  1  0
 10 18  1  0
 10 19  1  0
 11 12  1  0
 11 20  1  0
 11 21  1  0
 12 13  1  0
 13 14  1  0
 13 23  1  0
 14 24  1  0
 14 25  1  0
 14 26  1  0
M  RAD  1  13   2
M  END
>  <reaction>  (8) 
rmg_rxn_15618

>  <mol_properties>  (8) 
{"0": {"label": "*3", "atom_type": "Cs"}, "1": {"label": "*4", "atom_type": "O2s"}, "11": {"label": "*0", "atom_type": "O2s"}, "12": {"label": "*1", "atom_type": "Cs"}, "21": {"label": "*2", "atom_type": "H0"}}

>  <type>  (8) 
unop_4

>  <geom_source>  (8) 
Heuristics

$$$$

     RDKit          3D

 26 24  0  0  0  0  0  0  0  0999 V2000
    1.4076    0.5438    1.5153 C   0  0  0  0  0  0  0  0  0  0  0  0
    2.4472    0.4236    0.5754 O   0  0  0  0  0  0  0  0  0  0  0  0
    2.0875   -0.4439   -0.4372 N   0  0  0  0  0  0  0  0  0  0  0  0
    2.9396   -0.6295   -1.3437 C   0  0  0  0  0  0  0  0  0  0  0  0
    1.7192    1.2234    2.2799 H   0  0  0  0  0  0  0  0  0  0  0  0
    0.4551    0.8141    1.0434 H   0  0  0  0  0  0  0  0  0  0  0  0
    2.6613   -1.3033   -2.1352 H   0  0  0  0  0  0  0  0  0  0  0  0
    3.9183   -0.1593   -1.3722 H   0  0  0  0  0  0  0  0  0  0  0  0
   -1.4456   -2.0421    1.2234 C   0  0  0  0  0  0  0  0  0  0  0  0
   -1.0999   -1.7458   -0.2303 C   0  0  0  0  0  0  0  0  0  0  0  0
   -2.0896   -0.7538   -0.8504 C   0  0  0  0  0  0  0  0  0  0  0  0
   -2.0967    0.4981   -0.2108 O   0  0  0  0  0  0  0  0  0  0  0  0
   -1.0192    1.3147   -0.4441 C   0  0  0  0  0  3  0  0  0  0  0  0
   -1.1877    2.7269   -0.0098 C   0  0  0  0  0  0  0  0  0  0  0  0
   -1.4810   -1.1178    1.7948 H   0  0  0  0  0  0  0  0  0  0  0  0
   -0.6983   -2.6963    1.6653 H   0  0  0  0  0  0  0  0  0  0  0  0
   -2.4172   -2.5268    1.2960 H   0  0  0  0  0  0  0  0  0  0  0  0
   -1.1301   -2.6652   -0.8176 H   0  0  0  0  0  0  0  0  0  0  0  0
   -0.0921   -1.3313   -0.2967 H   0  0  0  0  0  0  0  0  0  0  0  0
   -3.1119   -1.1305   -0.7484 H   0  0  0  0  0  0  0  0  0  0  0  0
   -1.8604   -0.6278   -1.9188 H   0  0  0  0  0  0  0  0  0  0  0  0
    1.3193   -0.3295    2.1735 H   0  0  0  0  0  0  0  0  0  0  0  0
   -0.4219    1.0935   -1.3197 H   0  0  0  0  0  0  0  0  0  0  0  0
   -0.2169    3.2099    0.0787 H   0  0  0  0  0  0  0  0  0  0  0  0
   -1.6980    2.7590    0.9506 H   0  0  0  0  0  0  0  0  0  0  0  0
   -1.7874    3.3067   -0.7228 H   0  0  0  0  0  0  0  0  0  0  0  0
  1  2  1  0
  1  5  1  0
  1  6  1  0
  1 22  1  0
  2  3  1  0
  3  4  2  3
  4  7  1  0
  4  8  1  0
  9 10  1  0
  9 15  1  0
  9 16  1  0
  9 17  1  0
 10 11  1  0
 10 18  1  0
 10 19  1  0
 11 12  1  0
 11 20  1  0
 11 21  1  0
 12 13  1  0
 13 14  1  0
 13 23  1  0
 14 24  1  0
 14 25  1  0
 14 26  1  0
M  RAD  1  13   2
M  END
>  <reaction>  (9) 
rmg_rxn_15618

>  <mol_properties>  (9) 
{"0": {"label": "*3", "atom_type": "Cs"}, "1": {"label": "*4", "atom_type": "O2s"}, "11": {"label": "*0", "atom_type": "O2s"}, "12": {"label": "*1", "atom_type": "Cs"}, "21": {"label": "*2", "atom_type": "H0"}}

>  <type>  (9) 
unop_5

>  <geom_source>  (9) 
Heuristics

$$$$

     RDKit          3D

 26 24  0  0  0  0  0  0  0  0999 V2000
   -0.5540    1.3460    1.5935 C   0  0  0  0  0  0  0  0  0  0  0  0
    0.2360    0.2231    1.9321 O   0  0  0  0  0  0  0  0  0  0  0  0
    0.7184    0.3650    3.2112 N   0  0  0  0  0  0  0  0  0  0  0  0
    1.4327   -0.6171    3.5602 C   0  0  0  0  0  0  0  0  0  0  0  0
   -1.4105    1.4380    2.2652 H   0  0  0  0  0  0  0  0  0  0  0  0
    0.0369    2.2641    1.6277 H   0  0  0  0  0  0  0  0  0  0  0  0
    1.8516   -0.5820    4.5570 H   0  0  0  0  0  0  0  0  0  0  0  0
    1.6268   -1.4632    2.9044 H   0  0  0  0  0  0  0  0  0  0  0  0
    0.5391   -2.0355   -3.2599 C   0  0  0  0  0  0  0  0  0  0  0  0
    0.5391   -2.0355   -1.7370 C   0  0  0  0  0  0  0  0  0  0  0  0
    0.5391   -0.6425   -1.1414 C   0  0  0  0  0  0  0  0  0  0  0  0
   -0.6438    0.0211   -1.5090 O   0  0  0  0  0  0  0  0  0  0  0  0
   -0.7146    1.3392   -1.0281 C   0  0  0  0  0  3  0  0  0  0  0  0
   -2.0179    1.9570   -1.4790 C   0  0  0  0  0  0  0  0  0  0  0  0
    1.4212   -1.5212   -3.6495 H   0  0  0  0  0  0  0  0  0  0  0  0
   -0.3436   -1.5259   -3.6459 H   0  0  0  0  0  0  0  0  0  0  0  0
    0.5446   -3.0534   -3.6525 H   0  0  0  0  0  0  0  0  0  0  0  0
    1.4207   -2.5620   -1.3607 H   0  0  0  0  0  0  0  0  0  0  0  0
   -0.3352   -2.5735   -1.3617 H   0  0  0  0  0  0  0  0  0  0  0  0
    1.4133   -0.0774   -1.5018 H   0  0  0  0  0  0  0  0  0  0  0  0
    0.6139   -0.6964   -0.0454 H   0  0  0  0  0  0  0  0  0  0  0  0
   -0.6339    1.3426    0.2896 H   0  0  0  0  0  0  0  0  0  0  0  0
    0.1383    1.9222   -1.4060 H   0  0  0  0  0  0  0  0  0  0  0  0
   -2.8642    1.3876   -1.0933 H   0  0  0  0  0  0  0  0  0  0  0  0
   -2.0787    1.9688   -2.5678 H   0  0  0  0  0  0  0  0  0  0  0  0
   -2.0955    2.9830   -1.1159 H   0  0  0  0  0  0  0  0  0  0  0  0
  1  2  1  0
  1  5  1  0
  1  6  1  0
  1 22  1  0
  2  3  1  0
  3  4  2  3
  4  7  1  0
  4  8  1  0
  9 10  1  0
  9 15  1  0
  9 16  1  0
  9 17  1  0
 10 11  1  0
 10 18  1  0
 10 19  1  0
 11 12  1  0
 11 20  1  0
 11 21  1  0
 12 13  1  0
 13 14  1  0
 13 23  1  0
 14 24  1  0
 14 25  1  0
 14 26  1  0
M  RAD  1  13   2
M  END
>  <reaction>  (10) 
rmg_rxn_15618

>  <mol_properties>  (10) 
{"0": {"label": "*3", "atom_type": "Cs"}, "1": {"label": "*4", "atom_type": "O2s"}, "11": {"label": "*0", "atom_type": "O2s"}, "12": {"label": "*1", "atom_type": "Cs"}, "21": {"label": "*2", "atom_type": "H0"}}

>  <type>  (10) 
unop_6

>  <geom_source>  (10) 
Heuristics

$$$$

     RDKit          3D

 26 24  0  0  0  0  0  0  0  0999 V2000
    1.0420    0.8584    1.2485 C   0  0  0  0  0  0  0  0  0  0  0  0
    2.1777    0.7610    0.4464 O   0  0  0  0  0  0  0  0  0  0  0  0
    2.2511   -0.4534   -0.2032 N   0  0  0  0  0  0  0  0  0  0  0  0
    3.2385   -0.6135   -0.9752 C   0  0  0  0  0  0  0  0  0  0  0  0
    0.8592   -0.0383    1.8363 H   0  0  0  0  0  0  0  0  0  0  0  0
    1.1538    1.7518    1.8530 H   0  0  0  0  0  0  0  0  0  0  0  0
    3.3043   -1.5617   -1.4779 H   0  0  0  0  0  0  0  0  0  0  0  0
    4.0059    0.1341   -1.1505 H   0  0  0  0  0  0  0  0  0  0  0  0
   -1.2784   -2.2253    1.1660 C   0  0  0  0  0  0  0  0  0  0  0  0
   -0.9133   -1.8551   -0.2661 C   0  0  0  0  0  0  0  0  0  0  0  0
   -1.9357   -0.8874   -0.8696 C   0  0  0  0  0  0  0  0  0  0  0  0
   -2.0356    0.3395   -0.1845 O   0  0  0  0  0  0  0  0  0  0  0  0
   -1.0177    1.2592   -0.3944 C   0  0  0  0  0  3  0  0  0  0  0  0
   -1.4808    2.6626   -0.0857 C   0  0  0  0  0  0  0  0  0  0  0  0
   -2.2166   -2.7757    1.1915 H   0  0  0  0  0  0  0  0  0  0  0  0
   -1.3960   -1.3256    1.7653 H   0  0  0  0  0  0  0  0  0  0  0  0
   -0.5018   -2.8436    1.6091 H   0  0  0  0  0  0  0  0  0  0  0  0
   -0.8903   -2.7509   -0.8894 H   0  0  0  0  0  0  0  0  0  0  0  0
    0.0795   -1.4026   -0.2935 H   0  0  0  0  0  0  0  0  0  0  0  0
   -2.9377   -1.3227   -0.8087 H   0  0  0  0  0  0  0  0  0  0  0  0
   -1.6913   -0.7065   -1.9271 H   0  0  0  0  0  0  0  0  0  0  0  0
   -0.0059    1.0295    0.4683 H   0  0  0  0  0  0  0  0  0  0  0  0
   -0.5573    1.1582   -1.3833 H   0  0  0  0  0  0  0  0  0  0  0  0
   -1.9124    2.6959    0.9114 H   0  0  0  0  0  0  0  0  0  0  0  0
   -2.2438    2.9855   -0.7958 H   0  0  0  0  0  0  0  0  0  0  0  0
   -0.6411    3.3502   -0.1375 H   0  0  0  0  0  0  0  0  0  0  0  0
  1  2  1  0
  1  5  1  0
  1  6  1  0
  1 22  1  0
  2  3  1  0
  3  4  2  3
  4  7  1  0
  4  8  1  0
  9 10  1  0
  9 15  1  0
  9 16  1  0
  9 17  1  0
 10 11  1  0
 10 18  1  0
 10 19  1  0
 11 12  1  0
 11 20  1  0
 11 21  1  0
 12 13  1  0
 13 14  1  0
 13 23  1  0
 14 24  1  0
 14 25  1  0
 14 26  1  0
M  RAD  1  13   2
M  END
>  <reaction>  (11) 
rmg_rxn_15618

>  <mol_properties>  (11) 
{"0": {"label": "*3", "atom_type": "Cs"}, "1": {"label": "*4", "atom_type": "O2s"}, "11": {"label": "*0", "atom_type": "O2s"}, "12": {"label": "*1", "atom_type": "Cs"}, "21": {"label": "*2", "atom_type": "H0"}}

>  <type>  (11) 
unop_7

>  <geom_source>  (11) 
Heuristics

$$$$

     RDKit          3D

 26 24  0  0  0  0  0  0  0  0999 V2000
   -0.3118    0.3953    1.5936 C   0  0  0  0  0  0  0  0  0  0  0  0
    0.2997    1.6232    1.9371 O   0  0  0  0  0  0  0  0  0  0  0  0
   -0.0792    1.9903    3.2061 N   0  0  0  0  0  0  0  0  0  0  0  0
    0.4436    3.0852    3.5590 C   0  0  0  0  0  0  0  0  0  0  0  0
   -0.0039   -0.3991    2.2771 H   0  0  0  0  0  0  0  0  0  0  0  0
   -1.4005    0.4845    1.6045 H   0  0  0  0  0  0  0  0  0  0  0  0
    0.1946    3.4447    4.5485 H   0  0  0  0  0  0  0  0  0  0  0  0
    1.1122    3.6506    2.9133 H   0  0  0  0  0  0  0  0  0  0  0  0
    0.7813   -2.9862   -3.2597 C   0  0  0  0  0  0  0  0  0  0  0  0
    0.7813   -2.9862   -1.7368 C   0  0  0  0  0  0  0  0  0  0  0  0
    0.7813   -1.5931   -1.1413 C   0  0  0  0  0  0  0  0  0  0  0  0
   -0.4017   -0.9295   -1.5089 O   0  0  0  0  0  0  0  0  0  0  0  0
   -0.4724    0.3885   -1.0280 C   0  0  0  0  0  3  0  0  0  0  0  0
   -1.7757    1.0063   -1.4788 C   0  0  0  0  0  0  0  0  0  0  0  0
    1.6634   -2.4719   -3.6493 H   0  0  0  0  0  0  0  0  0  0  0  0
   -0.1014   -2.4765   -3.6458 H   0  0  0  0  0  0  0  0  0  0  0  0
    0.7868   -4.0041   -3.6524 H   0  0  0  0  0  0  0  0  0  0  0  0
    1.6628   -3.5127   -1.3605 H   0  0  0  0  0  0  0  0  0  0  0  0
   -0.0931   -3.5242   -1.3615 H   0  0  0  0  0  0  0  0  0  0  0  0
    1.6555   -1.0280   -1.5017 H   0  0  0  0  0  0  0  0  0  0  0  0
    0.8561   -1.6470   -0.0452 H   0  0  0  0  0  0  0  0  0  0  0  0
   -0.3917    0.3920    0.2897 H   0  0  0  0  0  0  0  0  0  0  0  0
    0.3805    0.9715   -1.4059 H   0  0  0  0  0  0  0  0  0  0  0  0
   -2.6221    0.4369   -1.0931 H   0  0  0  0  0  0  0  0  0  0  0  0
   -1.8365    1.0182   -2.5676 H   0  0  0  0  0  0  0  0  0  0  0  0
   -1.8533    2.0323   -1.1158 H   0  0  0  0  0  0  0  0  0  0  0  0
  1  2  1  0
  1  5  1  0
  1  6  1  0
  1 22  1  0
  2  3  1  0
  3  4  2  3
  4  7  1  0
  4  8  1  0
  9 10  1  0
  9 15  1  0
  9 16  1  0
  9 17  1  0
 10 11  1  0
 10 18  1  0
 10 19  1  0
 11 12  1  0
 11 20  1  0
 11 21  1  0
 12 13  1  0
 13 14  1  0
 13 23  1  0
 14 24  1  0
 14 25  1  0
 14 26  1  0
M  RAD  1  13   2
M  END
>  <reaction>  (12) 
rmg_rxn_15618

>  <mol_properties>  (12) 
{"0": {"label": "*3", "atom_type": "Cs"}, "1": {"label": "*4", "atom_type": "O2s"}, "11": {"label": "*0", "atom_type": "O2s"}, "12": {"label": "*1", "atom_type": "Cs"}, "21": {"label": "*2", "atom_type": "H0"}}

>  <type>  (12) 
unop_8

>  <geom_source>  (12) 
Heuristics

$$$$

     RDKit          3D

 26 24  0  0  0  0  0  0  0  0999 V2000
    0.3577    1.1400    1.5630 C   0  0  0  0  0  0  0  0  0  0  0  0
   -0.7404    0.3732    2.0164 O   0  0  0  0  0  0  0  0  0  0  0  0
   -1.1747    0.8570    3.2272 N   0  0  0  0  0  0  0  0  0  0  0  0
   -2.1582    0.2017    3.6745 C   0  0  0  0  0  0  0  0  0  0  0  0
    0.0730    2.1852    1.4224 H   0  0  0  0  0  0  0  0  0  0  0  0
    1.1923    1.0805    2.2653 H   0  0  0  0  0  0  0  0  0  0  0  0
   -2.5606    0.5205    4.6267 H   0  0  0  0  0  0  0  0  0  0  0  0
   -2.5908   -0.6428    3.1421 H   0  0  0  0  0  0  0  0  0  0  0  0
    1.4509   -2.2415   -3.2903 C   0  0  0  0  0  0  0  0  0  0  0  0
    1.4509   -2.2415   -1.7674 C   0  0  0  0  0  0  0  0  0  0  0  0
    1.4509   -0.8484   -1.1719 C   0  0  0  0  0  0  0  0  0  0  0  0
    0.2679   -0.1848   -1.5395 O   0  0  0  0  0  0  0  0  0  0  0  0
    0.1972    1.1332   -1.0586 C   0  0  0  0  0  3  0  0  0  0  0  0
   -1.1061    1.7510   -1.5094 C   0  0  0  0  0  0  0  0  0  0  0  0
    2.3330   -1.7272   -3.6799 H   0  0  0  0  0  0  0  0  0  0  0  0
    0.5682   -1.7318   -3.6764 H   0  0  0  0  0  0  0  0  0  0  0  0
    1.4564   -3.2594   -3.6830 H   0  0  0  0  0  0  0  0  0  0  0  0
    2.3324   -2.7680   -1.3911 H   0  0  0  0  0  0  0  0  0  0  0  0
    0.5765   -2.7795   -1.3921 H   0  0  0  0  0  0  0  0  0  0  0  0
    2.3251   -0.2833   -1.5323 H   0  0  0  0  0  0  0  0  0  0  0  0
    1.5257   -0.9023   -0.0758 H   0  0  0  0  0  0  0  0  0  0  0  0
    0.2779    1.1367    0.2591 H   0  0  0  0  0  0  0  0  0  0  0  0
    1.0500    1.7162   -1.4365 H   0  0  0  0  0  0  0  0  0  0  0  0
   -1.9525    1.1816   -1.1237 H   0  0  0  0  0  0  0  0  0  0  0  0
   -1.1669    1.7629   -2.5982 H   0  0  0  0  0  0  0  0  0  0  0  0
   -1.1837    2.7770   -1.1464 H   0  0  0  0  0  0  0  0  0  0  0  0
  1  2  1  0
  1  5  1  0
  1  6  1  0
  1 22  1  0
  2  3  1  0
  3  4  2  3
  4  7  1  0
  4  8  1  0
  9 10  1  0
  9 15  1  0
  9 16  1  0
  9 17  1  0
 10 11  1  0
 10 18  1  0
 10 19  1  0
 11 12  1  0
 11 20  1  0
 11 21  1  0
 12 13  1  0
 13 14  1  0
 13 23  1  0
 14 24  1  0
 14 25  1  0
 14 26  1  0
M  RAD  1  13   2
M  END
>  <reaction>  (13) 
rmg_rxn_15618

>  <mol_properties>  (13) 
{"0": {"label": "*3", "atom_type": "Cs"}, "1": {"label": "*4", "atom_type": "O2s"}, "11": {"label": "*0", "atom_type": "O2s"}, "12": {"label": "*1", "atom_type": "Cs"}, "21": {"label": "*2", "atom_type": "H0"}}

>  <type>  (13) 
unop_9

>  <geom_source>  (13) 
Heuristics

$$$$

     RDKit          3D

 26 24  0  0  0  0  0  0  0  0999 V2000
    1.3566   -0.6978   -1.4461 C   0  0  0  0  0  0  0  0  0  0  0  0
    2.4223   -0.5712   -0.5385 O   0  0  0  0  0  0  0  0  0  0  0  0
    2.1551    0.4118    0.3957 N   0  0  0  0  0  0  0  0  0  0  0  0
    3.0523    0.6295    1.2499 C   0  0  0  0  0  0  0  0  0  0  0  0
    1.3076    0.1191   -2.1614 H   0  0  0  0  0  0  0  0  0  0  0  0
    1.4058   -1.6633   -1.9046 H   0  0  0  0  0  0  0  0  0  0  0  0
    2.8473    1.3936    1.9792 H   0  0  0  0  0  0  0  0  0  0  0  0
    4.0007    0.1015    1.2927 H   0  0  0  0  0  0  0  0  0  0  0  0
   -1.3068    2.0868   -1.2466 C   0  0  0  0  0  0  0  0  0  0  0  0
   -1.0100    1.7859    0.2170 C   0  0  0  0  0  0  0  0  0  0  0  0
   -2.0681    0.8585    0.8239 C   0  0  0  0  0  0  0  0  0  0  0  0
   -2.1340   -0.3980    0.1962 O   0  0  0  0  0  0  0  0  0  0  0  0
   -1.1197   -1.2799    0.4721 C   0  0  0  0  0  3  0  0  0  0  0  0
   -1.3783   -2.6865    0.0612 C   0  0  0  0  0  0  0  0  0  0  0  0
   -2.2463    2.6268   -1.3449 H   0  0  0  0  0  0  0  0  0  0  0  0
   -1.3843    1.1598   -1.8094 H   0  0  0  0  0  0  0  0  0  0  0  0
   -0.5130    2.6914   -1.6777 H   0  0  0  0  0  0  0  0  0  0  0  0
   -1.0009    2.7115    0.7953 H   0  0  0  0  0  0  0  0  0  0  0  0
   -0.0285    1.3169    0.3083 H   0  0  0  0  0  0  0  0  0  0  0  0
   -3.0644    1.2923    0.6949 H   0  0  0  0  0  0  0  0  0  0  0  0
   -1.8707    0.7311    1.8983 H   0  0  0  0  0  0  0  0  0  0  0  0
    0.3891   -0.8813   -0.9385 H   0  0  0  0  0  0  0  0  0  0  0  0
   -0.5426   -1.0882    1.3687 H   0  0  0  0  0  0  0  0  0  0  0  0
   -1.8467   -2.7046   -0.9206 H   0  0  0  0  0  0  0  0  0  0  0  0
   -2.0526   -3.1992    0.7585 H   0  0  0  0  0  0  0  0  0  0  0  0
   -0.4452   -3.2450    0.0298 H   0  0  0  0  0  0  0  0  0  0  0  0
  1  2  1  0
  1  5  1  0
  1  6  1  0
  1 22  1  0
  2  3  1  0
  3  4  2  3
  4  7  1  0
  4  8  1  0
  9 10  1  0
  9 15  1  0
  9 16  1  0
  9 17  1  0
 10 11  1  0
 10 18  1  0
 10 19  1  0
 11 12  1  0
 11 20  1  0
 11 21  1  0
 12 13  1  0
 13 14  1  0
 13 23  1  0
 14 24  1  0
 14 25  1  0
 14 26  1  0
M  RAD  1  13   2
M  END
>  <reaction>  (14) 
rmg_rxn_15618

>  <mol_properties>  (14) 
{"0": {"label": "*3", "atom_type": "Cs"}, "1": {"label": "*4", "atom_type": "O2s"}, "11": {"label": "*0", "atom_type": "O2s"}, "12": {"label": "*1", "atom_type": "Cs"}, "21": {"label": "*2", "atom_type": "H0"}}

>  <type>  (14) 
unop_10

>  <geom_source>  (14) 
Heuristics

$$$$

     RDKit          3D

 26 24  0  0  0  0  0  0  0  0999 V2000
   -0.1374    0.3993    1.5574 C   0  0  0  0  0  0  0  0  0  0  0  0
   -0.2170    1.7575    1.9428 O   0  0  0  0  0  0  0  0  0  0  0  0
   -0.1404    1.8558    3.3115 N   0  0  0  0  0  0  0  0  0  0  0  0
   -0.2074    3.0546    3.7053 C   0  0  0  0  0  0  0  0  0  0  0  0
    0.8118   -0.0409    1.8713 H   0  0  0  0  0  0  0  0  0  0  0  0
   -0.9640   -0.1760    1.9804 H   0  0  0  0  0  0  0  0  0  0  0  0
   -0.1542    3.2177    4.7734 H   0  0  0  0  0  0  0  0  0  0  0  0
   -0.3133    3.8920    3.0190 H   0  0  0  0  0  0  0  0  0  0  0  0
    0.9558   -2.9822   -3.2959 C   0  0  0  0  0  0  0  0  0  0  0  0
    0.9558   -2.9822   -1.7730 C   0  0  0  0  0  0  0  0  0  0  0  0
    0.9558   -1.5892   -1.1775 C   0  0  0  0  0  0  0  0  0  0  0  0
   -0.2272   -0.9256   -1.5451 O   0  0  0  0  0  0  0  0  0  0  0  0
   -0.2980    0.3925   -1.0642 C   0  0  0  0  0  3  0  0  0  0  0  0
   -1.6013    1.0103   -1.5150 C   0  0  0  0  0  0  0  0  0  0  0  0
    1.8378   -2.4679   -3.6856 H   0  0  0  0  0  0  0  0  0  0  0  0
    0.0730   -2.4726   -3.6820 H   0  0  0  0  0  0  0  0  0  0  0  0
    0.9612   -4.0001   -3.6886 H   0  0  0  0  0  0  0  0  0  0  0  0
    1.8373   -3.5087   -1.3967 H   0  0  0  0  0  0  0  0  0  0  0  0
    0.0814   -3.5202   -1.3977 H   0  0  0  0  0  0  0  0  0  0  0  0
    1.8300   -1.0241   -1.5379 H   0  0  0  0  0  0  0  0  0  0  0  0
    1.0305   -1.6431   -0.0815 H   0  0  0  0  0  0  0  0  0  0  0  0
   -0.2173    0.3959    0.2535 H   0  0  0  0  0  0  0  0  0  0  0  0
    0.5549    0.9755   -1.4421 H   0  0  0  0  0  0  0  0  0  0  0  0
   -2.4476    0.4409   -1.1294 H   0  0  0  0  0  0  0  0  0  0  0  0
   -1.6621    1.0221   -2.6039 H   0  0  0  0  0  0  0  0  0  0  0  0
   -1.6789    2.0363   -1.1520 H   0  0  0  0  0  0  0  0  0  0  0  0
  1  2  1  0
  1  5  1  0
  1  6  1  0
  1 22  1  0
  2  3  1  0
  3  4  2  3
  4  7  1  0
  4  8  1  0
  9 10  1  0
  9 15  1  0
  9 16  1  0
  9 17  1  0
 10 11  1  0
 10 18  1  0
 10 19  1  0
 11 12  1  0
 11 20  1  0
 11 21  1  0
 12 13  1  0
 13 14  1  0
 13 23  1  0
 14 24  1  0
 14 25  1  0
 14 26  1  0
M  RAD  1  13   2
M  END
>  <reaction>  (15) 
rmg_rxn_15618

>  <mol_properties>  (15) 
{"0": {"label": "*3", "atom_type": "Cs"}, "1": {"label": "*4", "atom_type": "O2s"}, "11": {"label": "*0", "atom_type": "O2s"}, "12": {"label": "*1", "atom_type": "Cs"}, "21": {"label": "*2", "atom_type": "H0"}}

>  <type>  (15) 
unop_11

>  <geom_source>  (15) 
Heuristics

$$$$

     RDKit          3D

 26 24  0  0  0  0  0  0  0  0999 V2000
    1.8039   -0.1505   -1.1609 C   0  0  0  0  0  0  0  0  0  0  0  0
    1.4251   -1.4393   -0.7888 O   0  0  0  0  0  0  0  0  0  0  0  0
    1.4603   -1.8330    0.5018 N   0  0  0  0  0  0  0  0  0  0  0  0
    1.7644   -1.0502    1.4447 C   0  0  0  0  0  0  0  0  0  0  0  0
    2.7580    0.1641   -0.7360 H   0  0  0  0  0  0  0  0  0  0  0  0
    1.8163   -0.1404   -2.2460 H   0  0  0  0  0  0  0  0  0  0  0  0
    1.7642   -1.4855    2.4286 H   0  0  0  0  0  0  0  0  0  0  0  0
    2.0019    0.0060    1.3605 H   0  0  0  0  0  0  0  0  0  0  0  0
   -3.1068   -1.4386   -0.3528 C   0  0  0  0  0  0  0  0  0  0  0  0
   -1.7524   -0.7740   -0.1500 C   0  0  0  0  0  0  0  0  0  0  0  0
   -1.9157    0.6496    0.3873 C   0  0  0  0  0  0  0  0  0  0  0  0
   -0.6981    1.2967    0.6755 O   0  0  0  0  0  0  0  0  0  0  0  0
    0.0568    1.7217   -0.4097 C   0  0  0  0  0  3  0  0  0  0  0  0
    0.9383    2.8911   -0.0383 C   0  0  0  0  0  0  0  0  0  0  0  0
   -3.6501   -1.4961    0.5877 H   0  0  0  0  0  0  0  0  0  0  0  0
   -2.9744   -2.4465   -0.7363 H   0  0  0  0  0  0  0  0  0  0  0  0
   -3.7093   -0.8754   -1.0628 H   0  0  0  0  0  0  0  0  0  0  0  0
   -1.2118   -0.7469   -1.0979 H   0  0  0  0  0  0  0  0  0  0  0  0
   -1.1563   -1.3540    0.5563 H   0  0  0  0  0  0  0  0  0  0  0  0
   -2.4519    0.6254    1.3402 H   0  0  0  0  0  0  0  0  0  0  0  0
   -2.4973    1.2502   -0.3289 H   0  0  0  0  0  0  0  0  0  0  0  0
    0.9129    0.7448   -0.7824 H   0  0  0  0  0  0  0  0  0  0  0  0
   -0.5517    1.9047   -1.3013 H   0  0  0  0  0  0  0  0  0  0  0  0
    0.3391    3.7802    0.1637 H   0  0  0  0  0  0  0  0  0  0  0  0
    1.6277    3.1104   -0.8495 H   0  0  0  0  0  0  0  0  0  0  0  0
    1.5031    2.6591    0.8613 H   0  0  0  0  0  0  0  0  0  0  0  0
  1  2  1  0
  1  5  1  0
  1  6  1  0
  1 22  1  0
  2  3  1  0
  3  4  2  3
  4  7  1  0
  4  8  1  0
  9 10  1  0
  9 15  1  0
  9 16  1  0
  9 17  1  0
 10 11  1  0
 10 18  1  0
 10 19  1  0
 11 12  1  0
 11 20  1  0
 11 21  1  0
 12 13  1  0
 13 14  1  0
 13 23  1  0
 14 24  1  0
 14 25  1  0
 14 26  1  0
M  RAD  1  13   2
M  END
>  <reaction>  (16) 
rmg_rxn_15618

>  <mol_properties>  (16) 
{"0": {"label": "*3", "atom_type": "Cs"}, "1": {"label": "*4", "atom_type": "O2s"}, "11": {"label": "*0", "atom_type": "O2s"}, "12": {"label": "*1", "atom_type": "Cs"}, "21": {"label": "*2", "atom_type": "H0"}}

>  <type>  (16) 
unop_12

>  <geom_source>  (16) 
Heuristics

$$$$

     RDKit          3D

 26 24  0  0  0  0  0  0  0  0999 V2000
    1.3560   -0.7007   -1.4445 C   0  0  0  0  0  0  0  0  0  0  0  0
    2.4222   -0.5738   -0.5382 O   0  0  0  0  0  0  0  0  0  0  0  0
    2.1571    0.4115    0.3944 N   0  0  0  0  0  0  0  0  0  0  0  0
    3.0554    0.6298    1.2473 C   0  0  0  0  0  0  0  0  0  0  0  0
    1.3089    0.1119   -2.1645 H   0  0  0  0  0  0  0  0  0  0  0  0
    1.3964   -1.6697   -1.8953 H   0  0  0  0  0  0  0  0  0  0  0  0
    2.8518    1.3953    1.9755 H   0  0  0  0  0  0  0  0  0  0  0  0
    4.0032    0.1007    1.2904 H   0  0  0  0  0  0  0  0  0  0  0  0
   -1.3107    2.0852   -1.2489 C   0  0  0  0  0  0  0  0  0  0  0  0
   -1.0072    1.7870    0.2139 C   0  0  0  0  0  0  0  0  0  0  0  0
   -2.0631    0.8612    0.8270 C   0  0  0  0  0  0  0  0  0  0  0  0
   -2.1341   -0.3954    0.2001 O   0  0  0  0  0  0  0  0  0  0  0  0
   -1.1211   -1.2797    0.4726 C   0  0  0  0  0  3  0  0  0  0  0  0
   -1.3841   -2.6852    0.0607 C   0  0  0  0  0  0  0  0  0  0  0  0
   -0.5187    2.6887   -1.6848 H   0  0  0  0  0  0  0  0  0  0  0  0
   -2.2505    2.6254   -1.3439 H   0  0  0  0  0  0  0  0  0  0  0  0
   -1.3911    1.1573   -1.8096 H   0  0  0  0  0  0  0  0  0  0  0  0
   -0.9950    2.7136    0.7905 H   0  0  0  0  0  0  0  0  0  0  0  0
   -0.0256    1.3176    0.3017 H   0  0  0  0  0  0  0  0  0  0  0  0
   -3.0595    1.2962    0.7036 H   0  0  0  0  0  0  0  0  0  0  0  0
   -1.8596    0.7338    1.9004 H   0  0  0  0  0  0  0  0  0  0  0  0
    0.3886   -0.8826   -0.9377 H   0  0  0  0  0  0  0  0  0  0  0  0
   -0.5419   -1.0905    1.3684 H   0  0  0  0  0  0  0  0  0  0  0  0
   -1.8539   -2.7009   -0.9206 H   0  0  0  0  0  0  0  0  0  0  0  0
   -2.0591   -3.1966    0.7582 H   0  0  0  0  0  0  0  0  0  0  0  0
   -0.4528   -3.2465    0.0274 H   0  0  0  0  0  0  0  0  0  0  0  0
  1  2  1  0
  1  5  1  0
  1  6  1  0
  1 22  1  0
  2  3  1  0
  3  4  2  3
  4  7  1  0
  4  8  1  0
  9 10  1  0
  9 15  1  0
  9 16  1  0
  9 17  1  0
 10 11  1  0
 10 18  1  0
 10 19  1  0
 11 12  1  0
 11 20  1  0
 11 21  1  0
 12 13  1  0
 13 14  1  0
 13 23  1  0
 14 24  1  0
 14 25  1  0
 14 26  1  0
M  RAD  1  13   2
M  END
>  <reaction>  (17) 
rmg_rxn_15618

>  <mol_properties>  (17) 
{"0": {"label": "*3", "atom_type": "Cs"}, "1": {"label": "*4", "atom_type": "O2s"}, "11": {"label": "*0", "atom_type": "O2s"}, "12": {"label": "*1", "atom_type": "Cs"}, "21": {"label": "*2", "atom_type": "H0"}}

>  <type>  (17) 
unop_13

>  <geom_source>  (17) 
Heuristics

$$$$

     RDKit          3D

 26 24  0  0  0  0  0  0  0  0999 V2000
    0.3931    0.8218    1.5784 C   0  0  0  0  0  0  0  0  0  0  0  0
   -0.9381    0.7197    2.0443 O   0  0  0  0  0  0  0  0  0  0  0  0
   -1.1023    1.5127    3.1547 N   0  0  0  0  0  0  0  0  0  0  0  0
   -2.2800    1.4546    3.6090 C   0  0  0  0  0  0  0  0  0  0  0  0
    0.6294    1.8493    1.2930 H   0  0  0  0  0  0  0  0  0  0  0  0
    1.1002    0.4824    2.3387 H   0  0  0  0  0  0  0  0  0  0  0  0
   -2.4915    2.0523    4.4855 H   0  0  0  0  0  0  0  0  0  0  0  0
   -3.0540    0.8401    3.1542 H   0  0  0  0  0  0  0  0  0  0  0  0
    1.4862   -2.5598   -3.2749 C   0  0  0  0  0  0  0  0  0  0  0  0
    1.4862   -2.5598   -1.7520 C   0  0  0  0  0  0  0  0  0  0  0  0
    1.4862   -1.1667   -1.1565 C   0  0  0  0  0  0  0  0  0  0  0  0
    0.3032   -0.5031   -1.5241 O   0  0  0  0  0  0  0  0  0  0  0  0
    0.2325    0.8149   -1.0432 C   0  0  0  0  0  3  0  0  0  0  0  0
   -1.0708    1.4327   -1.4940 C   0  0  0  0  0  0  0  0  0  0  0  0
    2.3683   -2.0455   -3.6645 H   0  0  0  0  0  0  0  0  0  0  0  0
    0.6035   -2.0501   -3.6610 H   0  0  0  0  0  0  0  0  0  0  0  0
    1.4917   -3.5776   -3.6676 H   0  0  0  0  0  0  0  0  0  0  0  0
    2.3678   -3.0862   -1.3757 H   0  0  0  0  0  0  0  0  0  0  0  0
    0.6119   -3.0977   -1.3767 H   0  0  0  0  0  0  0  0  0  0  0  0
    2.3604   -0.6016   -1.5169 H   0  0  0  0  0  0  0  0  0  0  0  0
    1.5610   -1.2206   -0.0604 H   0  0  0  0  0  0  0  0  0  0  0  0
    0.3132    0.8184    0.2745 H   0  0  0  0  0  0  0  0  0  0  0  0
    1.0854    1.3979   -1.4211 H   0  0  0  0  0  0  0  0  0  0  0  0
   -1.9172    0.8633   -1.1083 H   0  0  0  0  0  0  0  0  0  0  0  0
   -1.1316    1.4446   -2.5828 H   0  0  0  0  0  0  0  0  0  0  0  0
   -1.1484    2.4587   -1.1310 H   0  0  0  0  0  0  0  0  0  0  0  0
  1  2  1  0
  1  5  1  0
  1  6  1  0
  1 22  1  0
  2  3  1  0
  3  4  2  3
  4  7  1  0
  4  8  1  0
  9 10  1  0
  9 15  1  0
  9 16  1  0
  9 17  1  0
 10 11  1  0
 10 18  1  0
 10 19  1  0
 11 12  1  0
 11 20  1  0
 11 21  1  0
 12 13  1  0
 13 14  1  0
 13 23  1  0
 14 24  1  0
 14 25  1  0
 14 26  1  0
M  RAD  1  13   2
M  END
>  <reaction>  (18) 
rmg_rxn_15618

>  <mol_properties>  (18) 
{"0": {"label": "*3", "atom_type": "Cs"}, "1": {"label": "*4", "atom_type": "O2s"}, "11": {"label": "*0", "atom_type": "O2s"}, "12": {"label": "*1", "atom_type": "Cs"}, "21": {"label": "*2", "atom_type": "H0"}}

>  <type>  (18) 
unop_14

>  <geom_source>  (18) 
Heuristics

$$$$

     RDKit          3D

 26 24  0  0  0  0  0  0  0  0999 V2000
    1.8066    0.1478    1.1571 C   0  0  0  0  0  0  0  0  0  0  0  0
    1.4275    1.4380    0.7896 O   0  0  0  0  0  0  0  0  0  0  0  0
    1.4589    1.8350   -0.5001 N   0  0  0  0  0  0  0  0  0  0  0  0
    1.7578    1.0541   -1.4462 C   0  0  0  0  0  0  0  0  0  0  0  0
    2.7588   -0.1664    0.7275 H   0  0  0  0  0  0  0  0  0  0  0  0
    1.8234    0.1352    2.2421 H   0  0  0  0  0  0  0  0  0  0  0  0
    1.7546    1.4920   -2.4289 H   0  0  0  0  0  0  0  0  0  0  0  0
    1.9932   -0.0028   -1.3656 H   0  0  0  0  0  0  0  0  0  0  0  0
   -3.1036    1.4412    0.3535 C   0  0  0  0  0  0  0  0  0  0  0  0
   -1.7504    0.7734    0.1530 C   0  0  0  0  0  0  0  0  0  0  0  0
   -1.9160   -0.6495   -0.3857 C   0  0  0  0  0  0  0  0  0  0  0  0
   -0.6993   -1.2978   -0.6753 O   0  0  0  0  0  0  0  0  0  0  0  0
    0.0566   -1.7230    0.4090 C   0  0  0  0  0  3  0  0  0  0  0  0
    0.9374   -2.8926    0.0366 C   0  0  0  0  0  0  0  0  0  0  0  0
   -3.6446    1.5010   -0.5883 H   0  0  0  0  0  0  0  0  0  0  0  0
   -2.9694    2.4484    0.7382 H   0  0  0  0  0  0  0  0  0  0  0  0
   -3.7092    0.8789    1.0616 H   0  0  0  0  0  0  0  0  0  0  0  0
   -1.2118    0.7444    1.1020 H   0  0  0  0  0  0  0  0  0  0  0  0
   -1.1518    1.3525   -0.5517 H   0  0  0  0  0  0  0  0  0  0  0  0
   -2.4526   -0.6236   -1.3383 H   0  0  0  0  0  0  0  0  0  0  0  0
   -2.4980   -1.2501    0.3302 H   0  0  0  0  0  0  0  0  0  0  0  0
    0.9138   -0.7462    0.7803 H   0  0  0  0  0  0  0  0  0  0  0  0
   -0.5508   -1.9057    1.3014 H   0  0  0  0  0  0  0  0  0  0  0  0
    1.5001   -2.6612   -0.8644 H   0  0  0  0  0  0  0  0  0  0  0  0
    0.3379   -3.7819   -0.1634 H   0  0  0  0  0  0  0  0  0  0  0  0
    1.6287   -3.1112    0.8464 H   0  0  0  0  0  0  0  0  0  0  0  0
  1  2  1  0
  1  5  1  0
  1  6  1  0
  1 22  1  0
  2  3  1  0
  3  4  2  3
  4  7  1  0
  4  8  1  0
  9 10  1  0
  9 15  1  0
  9 16  1  0
  9 17  1  0
 10 11  1  0
 10 18  1  0
 10 19  1  0
 11 12  1  0
 11 20  1  0
 11 21  1  0
 12 13  1  0
 13 14  1  0
 13 23  1  0
 14 24  1  0
 14 25  1  0
 14 26  1  0
M  RAD  1  13   2
M  END
>  <reaction>  (19) 
rmg_rxn_15618

>  <mol_properties>  (19) 
{"0": {"label": "*3", "atom_type": "Cs"}, "1": {"label": "*4", "atom_type": "O2s"}, "11": {"label": "*0", "atom_type": "O2s"}, "12": {"label": "*1", "atom_type": "Cs"}, "21": {"label": "*2", "atom_type": "H0"}}

>  <type>  (19) 
unop_15

>  <geom_source>  (19) 
Heuristics

$$$$

     RDKit          3D

 26 24  0  0  0  0  0  0  0  0999 V2000
    0.2580    0.5560    1.5852 C   0  0  0  0  0  0  0  0  0  0  0  0
   -0.9433    1.1464    2.0413 O   0  0  0  0  0  0  0  0  0  0  0  0
   -0.6850    1.9348    3.1369 N   0  0  0  0  0  0  0  0  0  0  0  0
   -1.7315    2.4857    3.5820 C   0  0  0  0  0  0  0  0  0  0  0  0
    0.9790    1.3196    1.2847 H   0  0  0  0  0  0  0  0  0  0  0  0
    0.6989   -0.0788    2.3569 H   0  0  0  0  0  0  0  0  0  0  0  0
   -1.6127    3.1248    4.4467 H   0  0  0  0  0  0  0  0  0  0  0  0
   -2.7100    2.3358    3.1310 H   0  0  0  0  0  0  0  0  0  0  0  0
    1.3511   -2.8255   -3.2682 C   0  0  0  0  0  0  0  0  0  0  0  0
    1.3511   -2.8255   -1.7453 C   0  0  0  0  0  0  0  0  0  0  0  0
    1.3511   -1.4324   -1.1498 C   0  0  0  0  0  0  0  0  0  0  0  0
    0.1681   -0.7689   -1.5174 O   0  0  0  0  0  0  0  0  0  0  0  0
    0.0974    0.5492   -1.0365 C   0  0  0  0  0  3  0  0  0  0  0  0
   -1.2059    1.1670   -1.4873 C   0  0  0  0  0  0  0  0  0  0  0  0
    2.2332   -2.3112   -3.6578 H   0  0  0  0  0  0  0  0  0  0  0  0
    0.4684   -2.3158   -3.6543 H   0  0  0  0  0  0  0  0  0  0  0  0
    1.3566   -3.8434   -3.6608 H   0  0  0  0  0  0  0  0  0  0  0  0
    2.2326   -3.3520   -1.3690 H   0  0  0  0  0  0  0  0  0  0  0  0
    0.4767   -3.3635   -1.3700 H   0  0  0  0  0  0  0  0  0  0  0  0
    2.2253   -0.8674   -1.5101 H   0  0  0  0  0  0  0  0  0  0  0  0
    1.4259   -1.4864   -0.0537 H   0  0  0  0  0  0  0  0  0  0  0  0
    0.1781    0.5526    0.2812 H   0  0  0  0  0  0  0  0  0  0  0  0
    0.9503    1.1322   -1.4143 H   0  0  0  0  0  0  0  0  0  0  0  0
   -2.0523    0.5976   -1.1016 H   0  0  0  0  0  0  0  0  0  0  0  0
   -1.2667    1.1788   -2.5761 H   0  0  0  0  0  0  0  0  0  0  0  0
   -1.2835    2.1930   -1.1242 H   0  0  0  0  0  0  0  0  0  0  0  0
  1  2  1  0
  1  5  1  0
  1  6  1  0
  1 22  1  0
  2  3  1  0
  3  4  2  3
  4  7  1  0
  4  8  1  0
  9 10  1  0
  9 15  1  0
  9 16  1  0
  9 17  1  0
 10 11  1  0
 10 18  1  0
 10 19  1  0
 11 12  1  0
 11 20  1  0
 11 21  1  0
 12 13  1  0
 13 14  1  0
 13 23  1  0
 14 24  1  0
 14 25  1  0
 14 26  1  0
M  RAD  1  13   2
M  END
>  <reaction>  (20) 
rmg_rxn_15618

>  <mol_properties>  (20) 
{"0": {"label": "*3", "atom_type": "Cs"}, "1": {"label": "*4", "atom_type": "O2s"}, "11": {"label": "*0", "atom_type": "O2s"}, "12": {"label": "*1", "atom_type": "Cs"}, "21": {"label": "*2", "atom_type": "H0"}}

>  <type>  (20) 
unop_16

>  <geom_source>  (20) 
Heuristics

$$$$

     RDKit          3D

 26 24  0  0  0  0  0  0  0  0999 V2000
    1.0433   -0.8535   -1.2519 C   0  0  0  0  0  0  0  0  0  0  0  0
    2.1792   -0.7551   -0.4502 O   0  0  0  0  0  0  0  0  0  0  0  0
    2.2486    0.4570    0.2042 N   0  0  0  0  0  0  0  0  0  0  0  0
    3.2354    0.6174    0.9770 C   0  0  0  0  0  0  0  0  0  0  0  0
    0.8579    0.0441   -1.8376 H   0  0  0  0  0  0  0  0  0  0  0  0
    1.1569   -1.7452   -1.8585 H   0  0  0  0  0  0  0  0  0  0  0  0
    3.2979    1.5638    1.4834 H   0  0  0  0  0  0  0  0  0  0  0  0
    4.0052   -0.1283    1.1494 H   0  0  0  0  0  0  0  0  0  0  0  0
   -1.2937    2.2209   -1.1674 C   0  0  0  0  0  0  0  0  0  0  0  0
   -0.9164    1.8545    0.2626 C   0  0  0  0  0  0  0  0  0  0  0  0
   -1.9302    0.8835    0.8749 C   0  0  0  0  0  0  0  0  0  0  0  0
   -2.0322   -0.3436    0.1904 O   0  0  0  0  0  0  0  0  0  0  0  0
   -1.0120   -1.2619    0.3944 C   0  0  0  0  0  3  0  0  0  0  0  0
   -1.4741   -2.6653    0.0841 C   0  0  0  0  0  0  0  0  0  0  0  0
   -2.2355    2.7655   -1.1870 H   0  0  0  0  0  0  0  0  0  0  0  0
   -1.4100    1.3200   -1.7650 H   0  0  0  0  0  0  0  0  0  0  0  0
   -0.5241    2.8436   -1.6166 H   0  0  0  0  0  0  0  0  0  0  0  0
   -0.8929    2.7514    0.8843 H   0  0  0  0  0  0  0  0  0  0  0  0
    0.0785    1.4063    0.2837 H   0  0  0  0  0  0  0  0  0  0  0  0
   -2.9342    1.3155    0.8231 H   0  0  0  0  0  0  0  0  0  0  0  0
   -1.6759    0.7031    1.9302 H   0  0  0  0  0  0  0  0  0  0  0  0
   -0.0032   -1.0285   -0.4708 H   0  0  0  0  0  0  0  0  0  0  0  0
   -0.5481   -1.1625    1.3819 H   0  0  0  0  0  0  0  0  0  0  0  0
   -0.6330   -3.3516    0.1298 H   0  0  0  0  0  0  0  0  0  0  0  0
   -1.9107   -2.6966   -0.9108 H   0  0  0  0  0  0  0  0  0  0  0  0
   -2.2329   -2.9917    0.7971 H   0  0  0  0  0  0  0  0  0  0  0  0
  1  2  1  0
  1  5  1  0
  1  6  1  0
  1 22  1  0
  2  3  1  0
  3  4  2  3
  4  7  1  0
  4  8  1  0
  9 10  1  0
  9 15  1  0
  9 16  1  0
  9 17  1  0
 10 11  1  0
 10 18  1  0
 10 19  1  0
 11 12  1  0
 11 20  1  0
 11 21  1  0
 12 13  1  0
 13 14  1  0
 13 23  1  0
 14 24  1  0
 14 25  1  0
 14 26  1  0
M  RAD  1  13   2
M  END
>  <reaction>  (21) 
rmg_rxn_15618

>  <mol_properties>  (21) 
{"0": {"label": "*3", "atom_type": "Cs"}, "1": {"label": "*4", "atom_type": "O2s"}, "11": {"label": "*0", "atom_type": "O2s"}, "12": {"label": "*1", "atom_type": "Cs"}, "21": {"label": "*2", "atom_type": "H0"}}

>  <type>  (21) 
unop_17

>  <geom_source>  (21) 
Heuristics

$$$$

     RDKit          3D

 26 24  0  0  0  0  0  0  0  0999 V2000
   -0.7189    0.7372    1.6467 C   0  0  0  0  0  0  0  0  0  0  0  0
    0.6591    0.8412    1.9462 O   0  0  0  0  0  0  0  0  0  0  0  0
    0.8358    1.6601    3.0357 N   0  0  0  0  0  0  0  0  0  0  0  0
    2.0553    1.7844    3.3426 C   0  0  0  0  0  0  0  0  0  0  0  0
   -1.2690    0.3022    2.4842 H   0  0  0  0  0  0  0  0  0  0  0  0
   -1.1404    1.7147    1.4017 H   0  0  0  0  0  0  0  0  0  0  0  0
    2.2795    2.4152    4.1924 H   0  0  0  0  0  0  0  0  0  0  0  0
    2.8519    1.2894    2.7913 H   0  0  0  0  0  0  0  0  0  0  0  0
    0.3742   -2.6444   -3.2066 C   0  0  0  0  0  0  0  0  0  0  0  0
    0.3742   -2.6444   -1.6837 C   0  0  0  0  0  0  0  0  0  0  0  0
    0.3742   -1.2513   -1.0882 C   0  0  0  0  0  0  0  0  0  0  0  0
   -0.8088   -0.5877   -1.4558 O   0  0  0  0  0  0  0  0  0  0  0  0
   -0.8795    0.7304   -0.9749 C   0  0  0  0  0  3  0  0  0  0  0  0
   -2.1828    1.3481   -1.4257 C   0  0  0  0  0  0  0  0  0  0  0  0
    1.2563   -2.1300   -3.5962 H   0  0  0  0  0  0  0  0  0  0  0  0
   -0.5085   -2.1347   -3.5927 H   0  0  0  0  0  0  0  0  0  0  0  0
    0.3797   -3.6622   -3.5993 H   0  0  0  0  0  0  0  0  0  0  0  0
    1.2558   -3.1708   -1.3074 H   0  0  0  0  0  0  0  0  0  0  0  0
   -0.5002   -3.1823   -1.3084 H   0  0  0  0  0  0  0  0  0  0  0  0
    1.2484   -0.6862   -1.4486 H   0  0  0  0  0  0  0  0  0  0  0  0
    0.4490   -1.3052    0.0079 H   0  0  0  0  0  0  0  0  0  0  0  0
   -0.7988    0.7338    0.3428 H   0  0  0  0  0  0  0  0  0  0  0  0
   -0.0266    1.3133   -1.3528 H   0  0  0  0  0  0  0  0  0  0  0  0
   -3.0292    0.7787   -1.0400 H   0  0  0  0  0  0  0  0  0  0  0  0
   -2.2436    1.3600   -2.5145 H   0  0  0  0  0  0  0  0  0  0  0  0
   -2.2604    2.3742   -1.0626 H   0  0  0  0  0  0  0  0  0  0  0  0
  1  2  1  0
  1  5  1  0
  1  6  1  0
  1 22  1  0
  2  3  1  0
  3  4  2  3
  4  7  1  0
  4  8  1  0
  9 10  1  0
  9 15  1  0
  9 16  1  0
  9 17  1  0
 10 11  1  0
 10 18  1  0
 10 19  1  0
 11 12  1  0
 11 20  1  0
 11 21  1  0
 12 13  1  0
 13 14  1  0
 13 23  1  0
 14 24  1  0
 14 25  1  0
 14 26  1  0
M  RAD  1  13   2
M  END
>  <reaction>  (22) 
rmg_rxn_15618

>  <mol_properties>  (22) 
{"0": {"label": "*3", "atom_type": "Cs"}, "1": {"label": "*4", "atom_type": "O2s"}, "11": {"label": "*0", "atom_type": "O2s"}, "12": {"label": "*1", "atom_type": "Cs"}, "21": {"label": "*2", "atom_type": "H0"}}

>  <type>  (22) 
unop_18

>  <geom_source>  (22) 
Heuristics

$$$$

     RDKit          3D

 26 24  0  0  0  0  0  0  0  0999 V2000
    1.0401    0.8622    1.2457 C   0  0  0  0  0  0  0  0  0  0  0  0
    2.1760    0.7659    0.4438 O   0  0  0  0  0  0  0  0  0  0  0  0
    2.2543   -0.4508   -0.2008 N   0  0  0  0  0  0  0  0  0  0  0  0
    3.2425   -0.6100   -0.9722 C   0  0  0  0  0  0  0  0  0  0  0  0
    0.8587   -0.0344    1.8341 H   0  0  0  0  0  0  0  0  0  0  0  0
    1.1502    1.7562    1.8494 H   0  0  0  0  0  0  0  0  0  0  0  0
    3.3120   -1.5600   -1.4712 H   0  0  0  0  0  0  0  0  0  0  0  0
    4.0069    0.1399   -1.1503 H   0  0  0  0  0  0  0  0  0  0  0  0
   -1.2759   -2.2265    1.1668 C   0  0  0  0  0  0  0  0  0  0  0  0
   -0.9083   -1.8567   -0.2647 C   0  0  0  0  0  0  0  0  0  0  0  0
   -1.9314   -0.8915   -0.8710 C   0  0  0  0  0  0  0  0  0  0  0  0
   -2.0364    0.3350   -0.1860 O   0  0  0  0  0  0  0  0  0  0  0  0
   -1.0220    1.2587   -0.3954 C   0  0  0  0  0  3  0  0  0  0  0  0
   -1.4901    2.6597   -0.0836 C   0  0  0  0  0  0  0  0  0  0  0  0
   -0.4994   -2.8437    1.6118 H   0  0  0  0  0  0  0  0  0  0  0  0
   -2.2135   -2.7780    1.1909 H   0  0  0  0  0  0  0  0  0  0  0  0
   -1.3957   -1.3267    1.7655 H   0  0  0  0  0  0  0  0  0  0  0  0
   -0.8823   -2.7529   -0.8873 H   0  0  0  0  0  0  0  0  0  0  0  0
    0.0836   -1.4023   -0.2904 H   0  0  0  0  0  0  0  0  0  0  0  0
   -2.9325   -1.3294   -0.8131 H   0  0  0  0  0  0  0  0  0  0  0  0
   -1.6845   -0.7098   -1.9278 H   0  0  0  0  0  0  0  0  0  0  0  0
   -0.0084    1.0311    0.4656 H   0  0  0  0  0  0  0  0  0  0  0  0
   -0.5624    1.1612   -1.3851 H   0  0  0  0  0  0  0  0  0  0  0  0
   -2.2559    2.9806   -0.7917 H   0  0  0  0  0  0  0  0  0  0  0  0
   -0.6534    3.3508   -0.1362 H   0  0  0  0  0  0  0  0  0  0  0  0
   -1.9198    2.6900    0.9144 H   0  0  0  0  0  0  0  0  0  0  0  0
  1  2  1  0
  1  5  1  0
  1  6  1  0
  1 22  1  0
  2  3  1  0
  3  4  2  3
  4  7  1  0
  4  8  1  0
  9 10  1  0
  9 15  1  0
  9 16  1  0
  9 17  1  0
 10 11  1  0
 10 18  1  0
 10 19  1  0
 11 12  1  0
 11 20  1  0
 11 21  1  0
 12 13  1  0
 13 14  1  0
 13 23  1  0
 14 24  1  0
 14 25  1  0
 14 26  1  0
M  RAD  1  13   2
M  END
>  <reaction>  (23) 
rmg_rxn_15618

>  <mol_properties>  (23) 
{"0": {"label": "*3", "atom_type": "Cs"}, "1": {"label": "*4", "atom_type": "O2s"}, "11": {"label": "*0", "atom_type": "O2s"}, "12": {"label": "*1", "atom_type": "Cs"}, "21": {"label": "*2", "atom_type": "H0"}}

>  <type>  (23) 
unop_19

>  <geom_source>  (23) 
Heuristics

$$$$

     RDKit          3D

 26 24  0  0  0  0  0  0  0  0999 V2000
    0.1331    1.3983    1.5513 C   0  0  0  0  0  0  0  0  0  0  0  0
   -0.4316    0.1724    1.9731 O   0  0  0  0  0  0  0  0  0  0  0  0
   -0.7705    0.2518    3.3026 N   0  0  0  0  0  0  0  0  0  0  0  0
   -1.2808   -0.8236    3.7269 C   0  0  0  0  0  0  0  0  0  0  0  0
   -0.5808    2.2171    1.6656 H   0  0  0  0  0  0  0  0  0  0  0  0
    1.0412    1.6245    2.1145 H   0  0  0  0  0  0  0  0  0  0  0  0
   -1.5758   -0.8427    4.7676 H   0  0  0  0  0  0  0  0  0  0  0  0
   -1.4235   -1.6952    3.0918 H   0  0  0  0  0  0  0  0  0  0  0  0
    1.2262   -1.9833   -3.3021 C   0  0  0  0  0  0  0  0  0  0  0  0
    1.2262   -1.9833   -1.7792 C   0  0  0  0  0  0  0  0  0  0  0  0
    1.2262   -0.5902   -1.1836 C   0  0  0  0  0  0  0  0  0  0  0  0
    0.0432    0.0734   -1.5512 O   0  0  0  0  0  0  0  0  0  0  0  0
   -0.0275    1.3914   -1.0704 C   0  0  0  0  0  3  0  0  0  0  0  0
   -1.3308    2.0092   -1.5212 C   0  0  0  0  0  0  0  0  0  0  0  0
    2.1083   -1.4690   -3.6917 H   0  0  0  0  0  0  0  0  0  0  0  0
    0.3435   -1.4736   -3.6881 H   0  0  0  0  0  0  0  0  0  0  0  0
    1.2317   -3.0011   -3.6947 H   0  0  0  0  0  0  0  0  0  0  0  0
    2.1077   -2.5097   -1.4029 H   0  0  0  0  0  0  0  0  0  0  0  0
    0.3518   -2.5213   -1.4039 H   0  0  0  0  0  0  0  0  0  0  0  0
    2.1004   -0.0251   -1.5440 H   0  0  0  0  0  0  0  0  0  0  0  0
    1.3010   -0.6441   -0.0876 H   0  0  0  0  0  0  0  0  0  0  0  0
    0.0532    1.3949    0.2473 H   0  0  0  0  0  0  0  0  0  0  0  0
    0.8254    1.9744   -1.4482 H   0  0  0  0  0  0  0  0  0  0  0  0
   -2.1772    1.4398   -1.1355 H   0  0  0  0  0  0  0  0  0  0  0  0
   -1.3916    2.0211   -2.6100 H   0  0  0  0  0  0  0  0  0  0  0  0
   -1.4084    3.0352   -1.1581 H   0  0  0  0  0  0  0  0  0  0  0  0
  1  2  1  0
  1  5  1  0
  1  6  1  0
  1 22  1  0
  2  3  1  0
  3  4  2  3
  4  7  1  0
  4  8  1  0
  9 10  1  0
  9 15  1  0
  9 16  1  0
  9 17  1  0
 10 11  1  0
 10 18  1  0
 10 19  1  0
 11 12  1  0
 11 20  1  0
 11 21  1  0
 12 13  1  0
 13 14  1  0
 13 23  1  0
 14 24  1  0
 14 25  1  0
 14 26  1  0
M  RAD  1  13   2
M  END
>  <reaction>  (24) 
rmg_rxn_15618

>  <mol_properties>  (24) 
{"0": {"label": "*3", "atom_type": "Cs"}, "1": {"label": "*4", "atom_type": "O2s"}, "11": {"label": "*0", "atom_type": "O2s"}, "12": {"label": "*1", "atom_type": "Cs"}, "21": {"label": "*2", "atom_type": "H0"}}

>  <type>  (24) 
unop_20

>  <geom_source>  (24) 
Heuristics

$$$$

     RDKit          3D

 26 24  0  0  0  0  0  0  0  0999 V2000
   -0.7341    1.0570    1.6301 C   0  0  0  0  0  0  0  0  0  0  0  0
    0.5140    0.4686    1.9393 O   0  0  0  0  0  0  0  0  0  0  0  0
    1.0146    1.0235    3.0927 N   0  0  0  0  0  0  0  0  0  0  0  0
    2.1326    0.5281    3.4108 C   0  0  0  0  0  0  0  0  0  0  0  0
   -1.4584    0.8788    2.4281 H   0  0  0  0  0  0  0  0  0  0  0  0
   -0.6293    2.1318    1.4656 H   0  0  0  0  0  0  0  0  0  0  0  0
    2.5952    0.9127    4.3100 H   0  0  0  0  0  0  0  0  0  0  0  0
    2.6195   -0.2464    2.8220 H   0  0  0  0  0  0  0  0  0  0  0  0
    0.3591   -2.3245   -3.2232 C   0  0  0  0  0  0  0  0  0  0  0  0
    0.3591   -2.3245   -1.7003 C   0  0  0  0  0  0  0  0  0  0  0  0
    0.3591   -0.9315   -1.1048 C   0  0  0  0  0  0  0  0  0  0  0  0
   -0.8239   -0.2679   -1.4724 O   0  0  0  0  0  0  0  0  0  0  0  0
   -0.8947    1.0502   -0.9915 C   0  0  0  0  0  3  0  0  0  0  0  0
   -2.1980    1.6680   -1.4423 C   0  0  0  0  0  0  0  0  0  0  0  0
    1.2411   -1.8102   -3.6128 H   0  0  0  0  0  0  0  0  0  0  0  0
   -0.5237   -1.8149   -3.6093 H   0  0  0  0  0  0  0  0  0  0  0  0
    0.3645   -3.3424   -3.6159 H   0  0  0  0  0  0  0  0  0  0  0  0
    1.2406   -2.8510   -1.3240 H   0  0  0  0  0  0  0  0  0  0  0  0
   -0.5153   -2.8625   -1.3250 H   0  0  0  0  0  0  0  0  0  0  0  0
    1.2333   -0.3664   -1.4652 H   0  0  0  0  0  0  0  0  0  0  0  0
    0.4338   -0.9854   -0.0087 H   0  0  0  0  0  0  0  0  0  0  0  0
   -0.8140    1.0536    0.3262 H   0  0  0  0  0  0  0  0  0  0  0  0
   -0.0418    1.6332   -1.3694 H   0  0  0  0  0  0  0  0  0  0  0  0
   -3.0443    1.0986   -1.0566 H   0  0  0  0  0  0  0  0  0  0  0  0
   -2.2588    1.6798   -2.5312 H   0  0  0  0  0  0  0  0  0  0  0  0
   -2.2756    2.6940   -1.0793 H   0  0  0  0  0  0  0  0  0  0  0  0
  1  2  1  0
  1  5  1  0
  1  6  1  0
  1 22  1  0
  2  3  1  0
  3  4  2  3
  4  7  1  0
  4  8  1  0
  9 10  1  0
  9 15  1  0
  9 16  1  0
  9 17  1  0
 10 11  1  0
 10 18  1  0
 10 19  1  0
 11 12  1  0
 11 20  1  0
 11 21  1  0
 12 13  1  0
 13 14  1  0
 13 23  1  0
 14 24  1  0
 14 25  1  0
 14 26  1  0
M  RAD  1  13   2
M  END
>  <reaction>  (25) 
rmg_rxn_15618

>  <mol_properties>  (25) 
{"0": {"label": "*3", "atom_type": "Cs"}, "1": {"label": "*4", "atom_type": "O2s"}, "11": {"label": "*0", "atom_type": "O2s"}, "12": {"label": "*1", "atom_type": "Cs"}, "21": {"label": "*2", "atom_type": "H0"}}

>  <type>  (25) 
unop_21

>  <geom_source>  (25) 
Heuristics

$$$$

     RDKit          3D

 26 24  0  0  0  0  0  0  0  0999 V2000
    0.0387    0.4220    1.5721 C   0  0  0  0  0  0  0  0  0  0  0  0
   -0.7044    1.5468    1.9988 O   0  0  0  0  0  0  0  0  0  0  0  0
   -0.2335    1.9786    3.2156 N   0  0  0  0  0  0  0  0  0  0  0  0
   -0.8685    2.9854    3.6396 C   0  0  0  0  0  0  0  0  0  0  0  0
    1.0946    0.6743    1.4512 H   0  0  0  0  0  0  0  0  0  0  0  0
   -0.0605   -0.4034    2.2806 H   0  0  0  0  0  0  0  0  0  0  0  0
   -0.5579    3.3875    4.5947 H   0  0  0  0  0  0  0  0  0  0  0  0
   -1.6883    3.4375    3.0854 H   0  0  0  0  0  0  0  0  0  0  0  0
    1.1319   -2.9595   -3.2812 C   0  0  0  0  0  0  0  0  0  0  0  0
    1.1319   -2.9595   -1.7583 C   0  0  0  0  0  0  0  0  0  0  0  0
    1.1319   -1.5665   -1.1628 C   0  0  0  0  0  0  0  0  0  0  0  0
   -0.0511   -0.9029   -1.5304 O   0  0  0  0  0  0  0  0  0  0  0  0
   -0.1218    0.4152   -1.0495 C   0  0  0  0  0  3  0  0  0  0  0  0
   -1.4251    1.0330   -1.5003 C   0  0  0  0  0  0  0  0  0  0  0  0
    2.0140   -2.4452   -3.6709 H   0  0  0  0  0  0  0  0  0  0  0  0
    0.2492   -2.4498   -3.6673 H   0  0  0  0  0  0  0  0  0  0  0  0
    1.1374   -3.9774   -3.6739 H   0  0  0  0  0  0  0  0  0  0  0  0
    2.0134   -3.4860   -1.3821 H   0  0  0  0  0  0  0  0  0  0  0  0
    0.2575   -3.4975   -1.3831 H   0  0  0  0  0  0  0  0  0  0  0  0
    2.0061   -1.0014   -1.5232 H   0  0  0  0  0  0  0  0  0  0  0  0
    1.2067   -1.6204   -0.0668 H   0  0  0  0  0  0  0  0  0  0  0  0
   -0.0411    0.4186    0.2682 H   0  0  0  0  0  0  0  0  0  0  0  0
    0.7311    0.9982   -1.4274 H   0  0  0  0  0  0  0  0  0  0  0  0
   -2.2715    0.4636   -1.1147 H   0  0  0  0  0  0  0  0  0  0  0  0
   -1.4859    1.0448   -2.5892 H   0  0  0  0  0  0  0  0  0  0  0  0
   -1.5027    2.0590   -1.1373 H   0  0  0  0  0  0  0  0  0  0  0  0
  1  2  1  0
  1  5  1  0
  1  6  1  0
  1 22  1  0
  2  3  1  0
  3  4  2  3
  4  7  1  0
  4  8  1  0
  9 10  1  0
  9 15  1  0
  9 16  1  0
  9 17  1  0
 10 11  1  0
 10 18  1  0
 10 19  1  0
 11 12  1  0
 11 20  1  0
 11 21  1  0
 12 13  1  0
 13 14  1  0
 13 23  1  0
 14 24  1  0
 14 25  1  0
 14 26  1  0
M  RAD  1  13   2
M  END
>  <reaction>  (26) 
rmg_rxn_15618

>  <mol_properties>  (26) 
{"0": {"label": "*3", "atom_type": "Cs"}, "1": {"label": "*4", "atom_type": "O2s"}, "11": {"label": "*0", "atom_type": "O2s"}, "12": {"label": "*1", "atom_type": "Cs"}, "21": {"label": "*2", "atom_type": "H0"}}

>  <type>  (26) 
unop_22

>  <geom_source>  (26) 
Heuristics

$$$$

     RDKit          3D

 26 24  0  0  0  0  0  0  0  0999 V2000
   -0.2197    1.4828    1.5596 C   0  0  0  0  0  0  0  0  0  0  0  0
   -0.0932    0.1266    1.9395 O   0  0  0  0  0  0  0  0  0  0  0  0
   -0.0022    0.0354    3.3078 N   0  0  0  0  0  0  0  0  0  0  0  0
    0.1128   -1.1613    3.6967 C   0  0  0  0  0  0  0  0  0  0  0  0
   -1.1236    1.9249    1.9847 H   0  0  0  0  0  0  0  0  0  0  0  0
    0.6522    2.0600    1.8756 H   0  0  0  0  0  0  0  0  0  0  0  0
    0.1903   -1.3189    4.7641 H   0  0  0  0  0  0  0  0  0  0  0  0
    0.1344   -2.0023    3.0069 H   0  0  0  0  0  0  0  0  0  0  0  0
    0.8735   -1.8988   -3.2937 C   0  0  0  0  0  0  0  0  0  0  0  0
    0.8735   -1.8988   -1.7708 C   0  0  0  0  0  0  0  0  0  0  0  0
    0.8735   -0.5057   -1.1753 C   0  0  0  0  0  0  0  0  0  0  0  0
   -0.3095    0.1579   -1.5429 O   0  0  0  0  0  0  0  0  0  0  0  0
   -0.3802    1.4760   -1.0620 C   0  0  0  0  0  3  0  0  0  0  0  0
   -1.6836    2.0937   -1.5128 C   0  0  0  0  0  0  0  0  0  0  0  0
    1.7556   -1.3844   -3.6833 H   0  0  0  0  0  0  0  0  0  0  0  0
   -0.0092   -1.3891   -3.6798 H   0  0  0  0  0  0  0  0  0  0  0  0
    0.8790   -2.9166   -3.6864 H   0  0  0  0  0  0  0  0  0  0  0  0
    1.7550   -2.4252   -1.3945 H   0  0  0  0  0  0  0  0  0  0  0  0
   -0.0009   -2.4367   -1.3955 H   0  0  0  0  0  0  0  0  0  0  0  0
    1.7477    0.0594   -1.5357 H   0  0  0  0  0  0  0  0  0  0  0  0
    0.9483   -0.5596   -0.0792 H   0  0  0  0  0  0  0  0  0  0  0  0
   -0.2995    1.4794    0.2557 H   0  0  0  0  0  0  0  0  0  0  0  0
    0.4726    2.0589   -1.4399 H   0  0  0  0  0  0  0  0  0  0  0  0
   -2.5299    1.5243   -1.1271 H   0  0  0  0  0  0  0  0  0  0  0  0
   -1.7444    2.1056   -2.6016 H   0  0  0  0  0  0  0  0  0  0  0  0
   -1.7612    3.1198   -1.1498 H   0  0  0  0  0  0  0  0  0  0  0  0
  1  2  1  0
  1  5  1  0
  1  6  1  0
  1 22  1  0
  2  3  1  0
  3  4  2  3
  4  7  1  0
  4  8  1  0
  9 10  1  0
  9 15  1  0
  9 16  1  0
  9 17  1  0
 10 11  1  0
 10 18  1  0
 10 19  1  0
 11 12  1  0
 11 20  1  0
 11 21  1  0
 12 13  1  0
 13 14  1  0
 13 23  1  0
 14 24  1  0
 14 25  1  0
 14 26  1  0
M  RAD  1  13   2
M  END
>  <reaction>  (27) 
rmg_rxn_15618

>  <mol_properties>  (27) 
{"0": {"label": "*3", "atom_type": "Cs"}, "1": {"label": "*4", "atom_type": "O2s"}, "11": {"label": "*0", "atom_type": "O2s"}, "12": {"label": "*1", "atom_type": "Cs"}, "21": {"label": "*2", "atom_type": "H0"}}

>  <type>  (27) 
unop_23

>  <geom_source>  (27) 
Heuristics

$$$$

     RDKit          3D

 26 24  0  0  0  0  0  0  0  0999 V2000
   -1.3687    0.7804   -1.4162 C   0  0  0  0  0  0  0  0  0  0  0  0
   -2.4325    0.6265   -0.5101 O   0  0  0  0  0  0  0  0  0  0  0  0
   -2.1600   -0.3818    0.3954 N   0  0  0  0  0  0  0  0  0  0  0  0
   -3.0576   -0.6332    1.2394 C   0  0  0  0  0  0  0  0  0  0  0  0
   -0.4175    0.9209   -0.9287 H   0  0  0  0  0  0  0  0  0  0  0  0
   -1.3496    0.0097   -2.1826 H   0  0  0  0  0  0  0  0  0  0  0  0
   -2.8471   -1.4163    1.9467 H   0  0  0  0  0  0  0  0  0  0  0  0
   -4.0114   -0.1162    1.2945 H   0  0  0  0  0  0  0  0  0  0  0  0
    1.2110   -2.0897   -1.2717 C   0  0  0  0  0  0  0  0  0  0  0  0
    0.9620   -1.7965    0.2022 C   0  0  0  0  0  0  0  0  0  0  0  0
    2.0676   -0.9152    0.7928 C   0  0  0  0  0  0  0  0  0  0  0  0
    2.1599    0.3467    0.1799 O   0  0  0  0  0  0  0  0  0  0  0  0
    1.1860    1.2592    0.4976 C   0  0  0  0  0  3  0  0  0  0  0  0
    1.4680    2.6577    0.0777 C   0  0  0  0  0  0  0  0  0  0  0  0
    1.3115   -1.1592   -1.8250 H   0  0  0  0  0  0  0  0  0  0  0  0
    0.3833   -2.6567   -1.6900 H   0  0  0  0  0  0  0  0  0  0  0  0
    2.1257   -2.6651   -1.4002 H   0  0  0  0  0  0  0  0  0  0  0  0
    0.9328   -2.7282    0.7700 H   0  0  0  0  0  0  0  0  0  0  0  0
    0.0006   -1.2933    0.3223 H   0  0  0  0  0  0  0  0  0  0  0  0
    3.0444   -1.3814    0.6316 H   0  0  0  0  0  0  0  0  0  0  0  0
    1.9031   -0.7960    1.8738 H   0  0  0  0  0  0  0  0  0  0  0  0
   -1.4076    1.7896   -1.8311 H   0  0  0  0  0  0  0  0  0  0  0  0
    0.6289    1.0783    1.4084 H   0  0  0  0  0  0  0  0  0  0  0  0
    2.1793    3.1532    0.7506 H   0  0  0  0  0  0  0  0  0  0  0  0
    0.5500    3.2414    0.0773 H   0  0  0  0  0  0  0  0  0  0  0  0
    1.9032    2.6629   -0.9196 H   0  0  0  0  0  0  0  0  0  0  0  0
  1  2  1  0
  1  5  1  0
  1  6  1  0
  1 22  1  0
  2  3  1  0
  3  4  2  3
  4  7  1  0
  4  8  1  0
  9 10  1  0
  9 15  1  0
  9 16  1  0
  9 17  1  0
 10 11  1  0
 10 18  1  0
 10 19  1  0
 11 12  1  0
 11 20  1  0
 11 21  1  0
 12 13  1  0
 13 14  1  0
 13 23  1  0
 14 24  1  0
 14 25  1  0
 14 26  1  0
M  RAD  1  13   2
M  END
>  <reaction>  (28) 
rmg_rxn_15618

>  <mol_properties>  (28) 
{"0": {"label": "*3", "atom_type": "Cs"}, "1": {"label": "*4", "atom_type": "O2s"}, "11": {"label": "*0", "atom_type": "O2s"}, "12": {"label": "*1", "atom_type": "Cs"}, "21": {"label": "*2", "atom_type": "H0"}}

>  <type>  (28) 
unop_24

>  <geom_source>  (28) 
Heuristics

$$$$

     RDKit          3D

 26 24  0  0  0  0  0  0  0  0999 V2000
   -1.3576   -1.2657    0.4345 O   0  0  0  0  0  0  0  0  0  0  0  0
    2.0335    1.3768    0.1126 O   0  0  0  0  0  0  0  0  0  0  0  0
    3.0816    2.2598    0.3217 N   0  0  0  0  0  0  0  0  0  0  0  0
   -3.1455    0.2336   -0.0865 C   0  0  0  0  0  0  0  0  0  0  0  0
   -1.6327    0.0181   -0.0718 C   0  0  0  0  0  0  0  0  0  0  0  0
   -3.5057    1.6140   -0.6287 C   0  0  0  0  0  0  0  0  0  0  0  0
    0.4047   -2.7100   -0.3013 C   0  0  0  0  0  0  0  0  0  0  0  0
    2.1783   -0.0407    0.1325 C   0  0  0  0  0  0  0  0  0  0  0  0
    0.0361   -1.4285    0.4267 C   0  0  0  0  0  3  0  0  0  0  0  0
    4.3079    1.9074    0.5582 C   0  0  0  0  0  0  0  0  0  0  0  0
   -3.6233   -0.5428   -0.7228 H   0  0  0  0  0  0  0  0  0  0  0  0
   -3.5433    0.1338    0.9468 H   0  0  0  0  0  0  0  0  0  0  0  0
   -1.1667    0.7998    0.5735 H   0  0  0  0  0  0  0  0  0  0  0  0
   -1.2483    0.1169   -1.1146 H   0  0  0  0  0  0  0  0  0  0  0  0
   -3.0578    2.4074    0.0069 H   0  0  0  0  0  0  0  0  0  0  0  0
   -4.6092    1.7377   -0.6258 H   0  0  0  0  0  0  0  0  0  0  0  0
   -3.1385    1.7274   -1.6710 H   0  0  0  0  0  0  0  0  0  0  0  0
   -0.0503   -3.5844    0.2105 H   0  0  0  0  0  0  0  0  0  0  0  0
    0.0394   -2.6647   -1.3487 H   0  0  0  0  0  0  0  0  0  0  0  0
    1.5084   -2.8262   -0.3098 H   0  0  0  0  0  0  0  0  0  0  0  0
    2.8876   -0.3619   -0.6590 H   0  0  0  0  0  0  0  0  0  0  0  0
    2.5399   -0.3724    1.1284 H   0  0  0  0  0  0  0  0  0  0  0  0
    0.9857   -0.6070   -0.1029 H   0  0  0  0  0  0  0  0  0  0  0  0
    0.4111   -1.4656    1.4717 H   0  0  0  0  0  0  0  0  0  0  0  0
    4.6037    0.8687    0.6097 H   0  0  0  0  0  0  0  0  0  0  0  0
    5.0608    2.6687    0.7091 H   0  0  0  0  0  0  0  0  0  0  0  0
  1  9  1  0
  1  5  1  0
  2  8  1  0
  2  3  1  0
  3 10  2  3
  4  6  1  0
  4  5  1  0
  4 11  1  0
  4 12  1  0
  5 13  1  0
  5 14  1  0
  6 15  1  0
  6 16  1  0
  6 17  1  0
  7  9  1  0
  7 18  1  0
  7 19  1  0
  7 20  1  0
  8 21  1  0
  8 22  1  0
  8 23  1  0
  9 24  1  0
 10 25  1  0
 10 26  1  0
M  RAD  1   9   2
M  END
>  <reaction>  (29) 
rmg_rxn_15618

>  <mol_properties>  (29) 
{"0": {"label": "*3", "atom_type": "Cs"}, "1": {"label": "*4", "atom_type": "O2s"}, "11": {"label": "*0", "atom_type": "O2s"}, "12": {"label": "*1", "atom_type": "Cs"}, "21": {"label": "*2", "atom_type": "H0"}}

>  <type>  (29) 
unop_25

>  <geom_source>  (29) 
AutoTST

$$$$

     RDKit          3D

 26 24  0  0  0  0  0  0  0  0999 V2000
   -0.5540    1.3460    1.5935 C   0  0  0  0  0  0  0  0  0  0  0  0
    0.2360    0.2231    1.9321 O   0  0  0  0  0  0  0  0  0  0  0  0
    0.7184    0.3650    3.2111 N   0  0  0  0  0  0  0  0  0  0  0  0
    1.4327   -0.6171    3.5602 C   0  0  0  0  0  0  0  0  0  0  0  0
   -1.4105    1.4380    2.2652 H   0  0  0  0  0  0  0  0  0  0  0  0
    0.0369    2.2641    1.6277 H   0  0  0  0  0  0  0  0  0  0  0  0
    1.8516   -0.5820    4.5570 H   0  0  0  0  0  0  0  0  0  0  0  0
    1.6268   -1.4632    2.9044 H   0  0  0  0  0  0  0  0  0  0  0  0
    0.5392   -2.0356   -3.2599 C   0  0  0  0  0  0  0  0  0  0  0  0
    0.5392   -2.0356   -1.7369 C   0  0  0  0  0  0  0  0  0  0  0  0
    0.5392   -0.6425   -1.1414 C   0  0  0  0  0  0  0  0  0  0  0  0
   -0.6439    0.0211   -1.5090 O   0  0  0  0  0  0  0  0  0  0  0  0
   -0.7146    1.3392   -1.0281 C   0  0  0  0  0  3  0  0  0  0  0  0
   -2.0179    1.9570   -1.4790 C   0  0  0  0  0  0  0  0  0  0  0  0
    1.4212   -1.5212   -3.6495 H   0  0  0  0  0  0  0  0  0  0  0  0
   -0.3436   -1.5259   -3.6459 H   0  0  0  0  0  0  0  0  0  0  0  0
    0.5446   -3.0534   -3.6525 H   0  0  0  0  0  0  0  0  0  0  0  0
    1.4207   -2.5620   -1.3607 H   0  0  0  0  0  0  0  0  0  0  0  0
   -0.3352   -2.5735   -1.3617 H   0  0  0  0  0  0  0  0  0  0  0  0
    1.4133   -0.0774   -1.5018 H   0  0  0  0  0  0  0  0  0  0  0  0
    0.6139   -0.6964   -0.0454 H   0  0  0  0  0  0  0  0  0  0  0  0
   -0.6339    1.3426    0.2896 H   0  0  0  0  0  0  0  0  0  0  0  0
    0.1383    1.9222   -1.4060 H   0  0  0  0  0  0  0  0  0  0  0  0
   -2.8643    1.3876   -1.0933 H   0  0  0  0  0  0  0  0  0  0  0  0
   -2.0787    1.9688   -2.5678 H   0  0  0  0  0  0  0  0  0  0  0  0
   -2.0955    2.9830   -1.1159 H   0  0  0  0  0  0  0  0  0  0  0  0
  1  2  1  0
  1  5  1  0
  1  6  1  0
  1 22  1  0
  2  3  1  0
  3  4  2  3
  4  7  1  0
  4  8  1  0
  9 10  1  0
  9 15  1  0
  9 16  1  0
  9 17  1  0
 10 11  1  0
 10 18  1  0
 10 19  1  0
 11 12  1  0
 11 20  1  0
 11 21  1  0
 12 13  1  0
 13 14  1  0
 13 23  1  0
 14 24  1  0
 14 25  1  0
 14 26  1  0
M  RAD  1  13   2
M  END
>  <reaction>  (30) 
rmg_rxn_15618

>  <mol_properties>  (30) 
{"0": {"label": "*3", "atom_type": "Cs"}, "1": {"label": "*4", "atom_type": "O2s"}, "11": {"label": "*0", "atom_type": "O2s"}, "12": {"label": "*1", "atom_type": "Cs"}, "21": {"label": "*2", "atom_type": "H0"}}

>  <type>  (30) 
unop_26

>  <geom_source>  (30) 
gaussian_log

$$$$
