
     RDKit          3D

  9  8  0  0  0  0  0  0  0  0999 V2000
   -1.0314    0.2323   -0.1227 C   0  0  0  0  0  0  0  0  0  0  0  0
    0.3094   -0.4511    0.0063 C   0  0  0  0  0  0  0  0  0  0  0  0
    0.3197   -1.7698    0.6841 N   0  0  0  0  0  0  0  0  0  0  0  0
   -0.7498   -2.1455    1.0557 O   0  0  0  0  0  0  0  0  0  0  0  0
   -1.4744    0.4198    0.8552 H   0  0  0  0  0  0  0  0  0  0  0  0
   -0.9073    1.1865   -0.6350 H   0  0  0  0  0  0  0  0  0  0  0  0
   -1.7319   -0.3778   -0.6927 H   0  0  0  0  0  0  0  0  0  0  0  0
    1.0375    0.1401    0.5713 H   0  0  0  0  0  0  0  0  0  0  0  0
    0.7826   -0.6494   -0.9609 H   0  0  0  0  0  0  0  0  0  0  0  0
  1  2  1  0
  1  5  1  0
  1  6  1  0
  1  7  1  0
  2  3  1  0
  2  8  1  0
  2  9  1  0
  3  4  2  0
M  END
>  <reaction>  (1) 
rmg_rxn_194

>  <mol_properties>  (1) 
{"1": {"label": "donator", "atom_type": "Cs"}, "7": {"label": "d_hydrogen", "atom_type": "H0"}}

>  <type>  (1) 
r1h

$$$$

     RDKit          3D

 13 13  0  0  0  0  0  0  0  0999 V2000
   -1.1371    0.3608    0.3110 C   0  0  0  0  0  3  0  0  0  0  0  0
   -0.0045    1.3224    0.2943 C   0  0  0  0  0  0  0  0  0  0  0  0
    1.2245    0.6965    0.6137 O   0  0  0  0  0  0  0  0  0  0  0  0
    1.3926   -0.4921   -0.0955 C   0  0  0  0  0  0  0  0  0  0  0  0
    0.4387   -1.4537    0.2351 O   0  0  0  0  0  0  0  0  0  0  0  0
   -0.8659   -1.0349   -0.1206 C   0  0  0  0  0  0  0  0  0  0  0  0
   -2.1544    0.7285    0.3341 H   0  0  0  0  0  0  0  0  0  0  0  0
   -0.1488    2.1272    1.0165 H   0  0  0  0  0  0  0  0  0  0  0  0
    0.0825    1.7949   -0.7036 H   0  0  0  0  0  0  0  0  0  0  0  0
    1.3549   -0.2872   -1.1815 H   0  0  0  0  0  0  0  0  0  0  0  0
    2.3646   -0.8956    0.1787 H   0  0  0  0  0  0  0  0  0  0  0  0
   -1.5620   -1.7401    0.3358 H   0  0  0  0  0  0  0  0  0  0  0  0
   -0.9852   -1.1268   -1.2179 H   0  0  0  0  0  0  0  0  0  0  0  0
  1  2  1  0
  1  6  1  0
  1  7  1  0
  2  3  1  0
  2  8  1  0
  2  9  1  0
  3  4  1  0
  4  5  1  0
  4 10  1  0
  4 11  1  0
  5  6  1  0
  6 12  1  0
  6 13  1  0
M  RAD  1   1   2
M  END
>  <reaction>  (2) 
rmg_rxn_194

>  <mol_properties>  (2) 
{"0": {"label": "acceptor", "atom_type": "Cs"}}

>  <type>  (2) 
r2

$$$$

     RDKit          3D

 14 14  0  0  0  0  0  0  0  0999 V2000
   -1.1778    0.2241    0.1818 C   0  0  0  0  0  0  0  0  0  0  0  0
   -0.5633   -1.1636    0.0678 C   0  0  0  0  0  0  0  0  0  0  0  0
    0.6943   -1.1996    0.7146 O   0  0  0  0  0  0  0  0  0  0  0  0
    1.5547   -0.2288    0.2011 C   0  0  0  0  0  0  0  0  0  0  0  0
    1.0729    1.0696    0.3698 O   0  0  0  0  0  0  0  0  0  0  0  0
   -0.1607    1.2493   -0.2989 C   0  0  0  0  0  0  0  0  0  0  0  0
   -2.0927    0.2866   -0.4117 H   0  0  0  0  0  0  0  0  0  0  0  0
   -1.4303    0.4248    1.2248 H   0  0  0  0  0  0  0  0  0  0  0  0
   -1.1822   -1.9235    0.5431 H   0  0  0  0  0  0  0  0  0  0  0  0
   -0.4389   -1.4347   -0.9919 H   0  0  0  0  0  0  0  0  0  0  0  0
    1.7250   -0.4207   -0.8742 H   0  0  0  0  0  0  0  0  0  0  0  0
    2.4896   -0.3010    0.7524 H   0  0  0  0  0  0  0  0  0  0  0  0
   -0.0080    1.1481   -1.3844 H   0  0  0  0  0  0  0  0  0  0  0  0
   -0.4826    2.2695   -0.0942 H   0  0  0  0  0  0  0  0  0  0  0  0
  1  2  1  0
  1  6  1  0
  1  7  1  0
  1  8  1  0
  2  3  1  0
  2  9  1  0
  2 10  1  0
  3  4  1  0
  4  5  1  0
  4 11  1  0
  4 12  1  0
  5  6  1  0
  6 13  1  0
  6 14  1  0
M  END
>  <reaction>  (3) 
rmg_rxn_194

>  <mol_properties>  (3) 
{"0": {"label": "a_hydrogen", "atom_type": "H0"}, "1": {"label": "acceptor", "atom_type": "Cs"}}

>  <type>  (3) 
r2h

$$$$

     RDKit          3D

 22 21  0  0  0  0  0  0  0  0999 V2000
   -2.0091   -0.1808   -2.2754 C   0  0  0  0  0  0  0  0  0  0  0  0
   -2.1394    0.1597   -0.8133 C   0  0  0  0  0  0  0  0  0  0  0  0
   -1.9764    1.5268   -0.4098 N   0  0  0  0  0  0  0  0  0  0  0  0
   -1.3195    2.2055   -1.1650 O   0  0  0  0  0  0  0  0  0  0  0  0
   -1.0634    0.1797   -2.6775 H   0  0  0  0  0  0  0  0  0  0  0  0
   -2.0646   -1.2613   -2.4097 H   0  0  0  0  0  0  0  0  0  0  0  0
   -2.8136    0.2786   -2.8526 H   0  0  0  0  0  0  0  0  0  0  0  0
   -1.1973   -0.3876   -0.2283 H   0  0  0  0  0  0  0  0  0  0  0  0
   -3.0114   -0.2507   -0.3061 H   0  0  0  0  0  0  0  0  0  0  0  0
    0.0462   -1.0337    0.2976 C   0  0  0  0  0  3  0  0  0  0  0  0
    1.1079   -0.6981   -0.7140 C   0  0  0  0  0  0  0  0  0  0  0  0
    2.3871   -0.9249   -0.1360 O   0  0  0  0  0  0  0  0  0  0  0  0
    2.5361   -0.2009    1.0499 C   0  0  0  0  0  0  0  0  0  0  0  0
    1.6154   -0.5749    2.0313 O   0  0  0  0  0  0  0  0  0  0  0  0
    0.2816   -0.3270    1.6042 C   0  0  0  0  0  0  0  0  0  0  0  0
   -0.2333   -2.0815    0.3648 H   0  0  0  0  0  0  0  0  0  0  0  0
    1.0478   -1.3219   -1.6037 H   0  0  0  0  0  0  0  0  0  0  0  0
    1.0243    0.3555   -1.0175 H   0  0  0  0  0  0  0  0  0  0  0  0
    2.4324    0.8779    0.8385 H   0  0  0  0  0  0  0  0  0  0  0  0
    3.5275   -0.4218    1.4386 H   0  0  0  0  0  0  0  0  0  0  0  0
    0.1288    0.7553    1.4843 H   0  0  0  0  0  0  0  0  0  0  0  0
   -0.3749   -0.6836    2.3951 H   0  0  0  0  0  0  0  0  0  0  0  0
  1  2  1  0
  1  5  1  0
  1  6  1  0
  1  7  1  0
  2  3  1  0
  2  8  1  0
  2  9  1  0
  3  4  2  0
 10 11  1  0
 10 15  1  0
 10 16  1  0
 11 12  1  0
 11 17  1  0
 11 18  1  0
 12 13  1  0
 13 14  1  0
 13 19  1  0
 13 20  1  0
 14 15  1  0
 15 21  1  0
 15 22  1  0
M  RAD  1  10   2
M  END
>  <reaction>  (4) 
rmg_rxn_194

>  <mol_properties>  (4) 
{"1": {"label": "*1", "atom_type": "Cs"}, "2": {"label": "*0", "atom_type": "N3d"}, "7": {"label": "*2", "atom_type": "H0"}, "9": {"label": "*3", "atom_type": "Cs"}, "10": {"label": "*4", "atom_type": "Cs"}}

>  <type>  (4) 
ts

$$$$

     RDKit          3D

 22 21  0  0  0  0  0  0  0  0999 V2000
   -1.2573    0.4000   -2.9004 C   0  0  0  0  0  0  0  0  0  0  0  0
   -1.2573    0.4000   -1.3899 C   0  0  0  0  0  0  0  0  0  0  0  0
   -1.2573    1.7259   -0.7263 N   0  0  0  0  0  0  0  0  0  0  0  0
   -1.2573    2.6555   -1.4740 O   0  0  0  0  0  1  0  0  0  0  0  0
   -0.3771    0.9073   -3.2949 H   0  0  0  0  0  0  0  0  0  0  0  0
   -1.2573   -0.6272   -3.2657 H   0  0  0  0  0  0  0  0  0  0  0  0
   -2.1374    0.9073   -3.2949 H   0  0  0  0  0  0  0  0  0  0  0  0
   -0.2118   -0.2088   -0.8773 H   0  0  0  0  0  0  0  0  0  0  0  0
   -2.1285   -0.1074   -0.9627 H   0  0  0  0  0  0  0  0  0  0  0  0
    0.8312   -0.8162   -0.3659 C   0  0  0  0  0  0  0  0  0  0  0  0
    1.6356    0.1444    0.4982 C   0  0  0  0  0  0  0  0  0  0  0  0
    1.9806   -0.4688    1.7255 O   0  0  0  0  0  0  0  0  0  0  0  0
    0.8465   -0.9188    2.4020 C   0  0  0  0  0  0  0  0  0  0  0  0
    0.1277   -1.8746    1.6837 O   0  0  0  0  0  0  0  0  0  0  0  0
   -0.3347   -1.3504    0.4537 C   0  0  0  0  0  0  0  0  0  0  0  0
    1.4684   -1.6470   -0.6750 H   0  0  0  0  0  0  0  0  0  0  0  0
    2.5696    0.4373    0.0205 H   0  0  0  0  0  0  0  0  0  0  0  0
    1.0494    1.0552    0.6949 H   0  0  0  0  0  0  0  0  0  0  0  0
    0.1894   -0.0594    2.6295 H   0  0  0  0  0  0  0  0  0  0  0  0
    1.1847   -1.3919    3.3212 H   0  0  0  0  0  0  0  0  0  0  0  0
   -1.0596   -0.5448    0.6473 H   0  0  0  0  0  0  0  0  0  0  0  0
   -0.8542   -2.1603   -0.0567 H   0  0  0  0  0  0  0  0  0  0  0  0
  1  2  1  0
  1  5  1  0
  1  6  1  0
  1  7  1  0
  2  3  2  3
  2  9  1  0
  3  4  1  0
  8 10  1  0
 10 11  1  0
 10 15  1  0
 10 16  1  0
 11 12  1  0
 11 17  1  0
 11 18  1  0
 12 13  1  0
 13 14  1  0
 13 19  1  0
 13 20  1  0
 14 15  1  0
 15 21  1  0
 15 22  1  0
M  RAD  1   4   2
M  END
>  <reaction>  (5) 
rmg_rxn_194

>  <mol_properties>  (5) 
{"1": {"label": "*1", "atom_type": "Cs"}, "2": {"label": "*0", "atom_type": "N3d"}, "7": {"label": "*2", "atom_type": "H0"}, "9": {"label": "*3", "atom_type": "Cs"}, "10": {"label": "*4", "atom_type": "Cs"}}

>  <type>  (5) 
unop_1

>  <geom_source>  (5) 
Heuristics

$$$$

     RDKit          3D

 22 21  0  0  0  0  0  0  0  0999 V2000
   -2.0353    0.0696   -2.2887 C   0  0  0  0  0  0  0  0  0  0  0  0
   -2.0353    0.0696   -0.7782 C   0  0  0  0  0  0  0  0  0  0  0  0
   -2.0353    1.3956   -0.1146 N   0  0  0  0  0  0  0  0  0  0  0  0
   -2.0353    2.3251   -0.8623 O   0  0  0  0  0  1  0  0  0  0  0  0
   -1.1551    0.5770   -2.6832 H   0  0  0  0  0  0  0  0  0  0  0  0
   -2.0353   -0.9575   -2.6540 H   0  0  0  0  0  0  0  0  0  0  0  0
   -2.9154    0.5770   -2.6832 H   0  0  0  0  0  0  0  0  0  0  0  0
   -0.9898   -0.5392   -0.2656 H   0  0  0  0  0  0  0  0  0  0  0  0
   -2.9065   -0.4377   -0.3511 H   0  0  0  0  0  0  0  0  0  0  0  0
    0.0532   -1.1465    0.2458 C   0  0  0  0  0  0  0  0  0  0  0  0
    1.2517   -1.0194   -0.6838 C   0  0  0  0  0  0  0  0  0  0  0  0
    2.4566   -1.1467    0.0466 O   0  0  0  0  0  0  0  0  0  0  0  0
    2.5234   -0.2102    1.0786 C   0  0  0  0  0  0  0  0  0  0  0  0
    1.4934   -0.3511    2.0090 O   0  0  0  0  0  0  0  0  0  0  0  0
    0.2275   -0.1733    1.4029 C   0  0  0  0  0  0  0  0  0  0  0  0
    0.0009   -2.1658    0.6334 H   0  0  0  0  0  0  0  0  0  0  0  0
    1.2620   -1.7992   -1.4441 H   0  0  0  0  0  0  0  0  0  0  0  0
    1.2321   -0.0432   -1.1923 H   0  0  0  0  0  0  0  0  0  0  0  0
    2.4960    0.8092    0.6518 H   0  0  0  0  0  0  0  0  0  0  0  0
    3.4603   -0.3761    1.6057 H   0  0  0  0  0  0  0  0  0  0  0  0
    0.1359    0.8623    1.0412 H   0  0  0  0  0  0  0  0  0  0  0  0
   -0.5176   -0.3290    2.1819 H   0  0  0  0  0  0  0  0  0  0  0  0
  1  2  1  0
  1  5  1  0
  1  6  1  0
  1  7  1  0
  2  3  2  3
  2  9  1  0
  3  4  1  0
  8 10  1  0
 10 11  1  0
 10 15  1  0
 10 16  1  0
 11 12  1  0
 11 17  1  0
 11 18  1  0
 12 13  1  0
 13 14  1  0
 13 19  1  0
 13 20  1  0
 14 15  1  0
 15 21  1  0
 15 22  1  0
M  RAD  1   4   2
M  END
>  <reaction>  (6) 
rmg_rxn_194

>  <mol_properties>  (6) 
{"1": {"label": "*1", "atom_type": "Cs"}, "2": {"label": "*0", "atom_type": "N3d"}, "7": {"label": "*2", "atom_type": "H0"}, "9": {"label": "*3", "atom_type": "Cs"}, "10": {"label": "*4", "atom_type": "Cs"}}

>  <type>  (6) 
unop_2

>  <geom_source>  (6) 
Heuristics

$$$$

     RDKit          3D

 22 21  0  0  0  0  0  0  0  0999 V2000
   -1.2323    0.8153   -2.7740 C   0  0  0  0  0  0  0  0  0  0  0  0
   -1.2323    0.8153   -1.2635 C   0  0  0  0  0  0  0  0  0  0  0  0
   -1.2323    2.1413   -0.5999 N   0  0  0  0  0  0  0  0  0  0  0  0
   -1.2323    3.0708   -1.3476 O   0  0  0  0  0  1  0  0  0  0  0  0
   -0.3522    1.3227   -3.1684 H   0  0  0  0  0  0  0  0  0  0  0  0
   -1.2323   -0.2119   -3.1392 H   0  0  0  0  0  0  0  0  0  0  0  0
   -2.1124    1.3227   -3.1684 H   0  0  0  0  0  0  0  0  0  0  0  0
   -0.1869    0.2065   -0.7509 H   0  0  0  0  0  0  0  0  0  0  0  0
   -2.1035    0.3080   -0.8363 H   0  0  0  0  0  0  0  0  0  0  0  0
    0.8561   -0.4008   -0.2395 C   0  0  0  0  0  0  0  0  0  0  0  0
    1.2219    0.2112    1.1052 C   0  0  0  0  0  0  0  0  0  0  0  0
    1.7097   -0.7852    1.9830 O   0  0  0  0  0  0  0  0  0  0  0  0
    0.7846   -1.8178    2.1395 C   0  0  0  0  0  0  0  0  0  0  0  0
    0.4904   -2.4710    0.9424 O   0  0  0  0  0  0  0  0  0  0  0  0
   -0.0746   -1.5814   -0.0014 C   0  0  0  0  0  0  0  0  0  0  0  0
    1.7626   -0.7482   -0.7389 H   0  0  0  0  0  0  0  0  0  0  0  0
    2.0082    0.9591    1.0119 H   0  0  0  0  0  0  0  0  0  0  0  0
    0.3392    0.6939    1.5520 H   0  0  0  0  0  0  0  0  0  0  0  0
   -0.1471   -1.4132    2.5758 H   0  0  0  0  0  0  0  0  0  0  0  0
    1.2293   -2.5519    2.8077 H   0  0  0  0  0  0  0  0  0  0  0  0
   -1.0486   -1.2248    0.3676 H   0  0  0  0  0  0  0  0  0  0  0  0
   -0.2448   -2.1558   -0.9110 H   0  0  0  0  0  0  0  0  0  0  0  0
  1  2  1  0
  1  5  1  0
  1  6  1  0
  1  7  1  0
  2  3  2  3
  2  9  1  0
  3  4  1  0
  8 10  1  0
 10 11  1  0
 10 15  1  0
 10 16  1  0
 11 12  1  0
 11 17  1  0
 11 18  1  0
 12 13  1  0
 13 14  1  0
 13 19  1  0
 13 20  1  0
 14 15  1  0
 15 21  1  0
 15 22  1  0
M  RAD  1   4   2
M  END
>  <reaction>  (7) 
rmg_rxn_194

>  <mol_properties>  (7) 
{"1": {"label": "*1", "atom_type": "Cs"}, "2": {"label": "*0", "atom_type": "N3d"}, "7": {"label": "*2", "atom_type": "H0"}, "9": {"label": "*3", "atom_type": "Cs"}, "10": {"label": "*4", "atom_type": "Cs"}}

>  <type>  (7) 
unop_3

>  <geom_source>  (7) 
Heuristics

$$$$

     RDKit          3D

 22 21  0  0  0  0  0  0  0  0999 V2000
   -1.8925    0.9140   -2.2484 C   0  0  0  0  0  0  0  0  0  0  0  0
   -1.8925    0.9140   -0.7379 C   0  0  0  0  0  0  0  0  0  0  0  0
   -1.8925    2.2399   -0.0743 N   0  0  0  0  0  0  0  0  0  0  0  0
   -1.8925    3.1695   -0.8220 O   0  0  0  0  0  1  0  0  0  0  0  0
   -1.0124    1.4213   -2.6428 H   0  0  0  0  0  0  0  0  0  0  0  0
   -1.8925   -0.1132   -2.6136 H   0  0  0  0  0  0  0  0  0  0  0  0
   -2.7726    1.4213   -2.6428 H   0  0  0  0  0  0  0  0  0  0  0  0
   -0.8471    0.3052   -0.2253 H   0  0  0  0  0  0  0  0  0  0  0  0
   -2.7637    0.4066   -0.3107 H   0  0  0  0  0  0  0  0  0  0  0  0
    0.1959   -0.3022    0.2861 C   0  0  0  0  0  0  0  0  0  0  0  0
    0.2382   -1.7559   -0.1628 C   0  0  0  0  0  0  0  0  0  0  0  0
    0.9506   -2.5400    0.7748 O   0  0  0  0  0  0  0  0  0  0  0  0
    2.2382   -2.0417    0.9758 C   0  0  0  0  0  0  0  0  0  0  0  0
    2.2459   -0.7403    1.4784 O   0  0  0  0  0  0  0  0  0  0  0  0
    1.6156    0.1578    0.5853 C   0  0  0  0  0  0  0  0  0  0  0  0
   -0.4108   -0.2189    1.1899 H   0  0  0  0  0  0  0  0  0  0  0  0
   -0.7587   -2.1877   -0.2395 H   0  0  0  0  0  0  0  0  0  0  0  0
    0.7228   -1.8319   -1.1483 H   0  0  0  0  0  0  0  0  0  0  0  0
    2.7961   -2.0704    0.0218 H   0  0  0  0  0  0  0  0  0  0  0  0
    2.7190   -2.6773    1.7161 H   0  0  0  0  0  0  0  0  0  0  0  0
    2.1971    0.2164   -0.3475 H   0  0  0  0  0  0  0  0  0  0  0  0
    1.6347    1.1376    1.0605 H   0  0  0  0  0  0  0  0  0  0  0  0
  1  2  1  0
  1  5  1  0
  1  6  1  0
  1  7  1  0
  2  3  2  3
  2  9  1  0
  3  4  1  0
  8 10  1  0
 10 11  1  0
 10 15  1  0
 10 16  1  0
 11 12  1  0
 11 17  1  0
 11 18  1  0
 12 13  1  0
 13 14  1  0
 13 19  1  0
 13 20  1  0
 14 15  1  0
 15 21  1  0
 15 22  1  0
M  RAD  1   4   2
M  END
>  <reaction>  (8) 
rmg_rxn_194

>  <mol_properties>  (8) 
{"1": {"label": "*1", "atom_type": "Cs"}, "2": {"label": "*0", "atom_type": "N3d"}, "7": {"label": "*2", "atom_type": "H0"}, "9": {"label": "*3", "atom_type": "Cs"}, "10": {"label": "*4", "atom_type": "Cs"}}

>  <type>  (8) 
unop_4

>  <geom_source>  (8) 
Heuristics

$$$$

     RDKit          3D

 22 21  0  0  0  0  0  0  0  0999 V2000
   -1.5559    1.0114   -2.5255 C   0  0  0  0  0  0  0  0  0  0  0  0
   -1.5559    1.0114   -1.0150 C   0  0  0  0  0  0  0  0  0  0  0  0
   -1.5559    2.3374   -0.3514 N   0  0  0  0  0  0  0  0  0  0  0  0
   -1.5559    3.2669   -1.0991 O   0  0  0  0  0  1  0  0  0  0  0  0
   -0.6758    1.5188   -2.9200 H   0  0  0  0  0  0  0  0  0  0  0  0
   -1.5559   -0.0157   -2.8907 H   0  0  0  0  0  0  0  0  0  0  0  0
   -2.4361    1.5188   -2.9200 H   0  0  0  0  0  0  0  0  0  0  0  0
   -0.5105    0.4027   -0.5024 H   0  0  0  0  0  0  0  0  0  0  0  0
   -2.4271    0.5041   -0.5878 H   0  0  0  0  0  0  0  0  0  0  0  0
    0.5325   -0.2047    0.0090 C   0  0  0  0  0  0  0  0  0  0  0  0
    0.4751   -0.1713    1.5296 C   0  0  0  0  0  0  0  0  0  0  0  0
    1.5197   -0.9515    2.0787 O   0  0  0  0  0  0  0  0  0  0  0  0
    1.4729   -2.2633    1.6060 C   0  0  0  0  0  0  0  0  0  0  0  0
    1.6173   -2.3481    0.2209 O   0  0  0  0  0  0  0  0  0  0  0  0
    0.5789   -1.6564   -0.4459 C   0  0  0  0  0  0  0  0  0  0  0  0
    1.4321    0.3114   -0.3318 H   0  0  0  0  0  0  0  0  0  0  0  0
    0.5992    0.8379    1.9198 H   0  0  0  0  0  0  0  0  0  0  0  0
   -0.4945   -0.5583    1.8786 H   0  0  0  0  0  0  0  0  0  0  0  0
    0.5150   -2.7274    1.9045 H   0  0  0  0  0  0  0  0  0  0  0  0
    2.3090   -2.7977    2.0516 H   0  0  0  0  0  0  0  0  0  0  0  0
   -0.3835   -2.1480   -0.2359 H   0  0  0  0  0  0  0  0  0  0  0  0
    0.7795   -1.7427   -1.5130 H   0  0  0  0  0  0  0  0  0  0  0  0
  1  2  1  0
  1  5  1  0
  1  6  1  0
  1  7  1  0
  2  3  2  3
  2  9  1  0
  3  4  1  0
  8 10  1  0
 10 11  1  0
 10 15  1  0
 10 16  1  0
 11 12  1  0
 11 17  1  0
 11 18  1  0
 12 13  1  0
 13 14  1  0
 13 19  1  0
 13 20  1  0
 14 15  1  0
 15 21  1  0
 15 22  1  0
M  RAD  1   4   2
M  END
>  <reaction>  (9) 
rmg_rxn_194

>  <mol_properties>  (9) 
{"1": {"label": "*1", "atom_type": "Cs"}, "2": {"label": "*0", "atom_type": "N3d"}, "7": {"label": "*2", "atom_type": "H0"}, "9": {"label": "*3", "atom_type": "Cs"}, "10": {"label": "*4", "atom_type": "Cs"}}

>  <type>  (9) 
unop_5

>  <geom_source>  (9) 
Heuristics

$$$$

     RDKit          3D

 22 21  0  0  0  0  0  0  0  0999 V2000
   -1.8071    0.9083   -2.4213 C   0  0  0  0  0  0  0  0  0  0  0  0
   -1.8071    0.9083   -0.9108 C   0  0  0  0  0  0  0  0  0  0  0  0
   -1.8071    2.2342   -0.2472 N   0  0  0  0  0  0  0  0  0  0  0  0
   -1.8071    3.1638   -0.9949 O   0  0  0  0  0  1  0  0  0  0  0  0
   -0.9269    1.4157   -2.8158 H   0  0  0  0  0  0  0  0  0  0  0  0
   -1.8071   -0.1189   -2.7866 H   0  0  0  0  0  0  0  0  0  0  0  0
   -2.6872    1.4157   -2.8158 H   0  0  0  0  0  0  0  0  0  0  0  0
   -0.7616    0.2995   -0.3982 H   0  0  0  0  0  0  0  0  0  0  0  0
   -2.6783    0.4010   -0.4837 H   0  0  0  0  0  0  0  0  0  0  0  0
    0.2814   -0.3079    0.1131 C   0  0  0  0  0  0  0  0  0  0  0  0
   -0.0129   -1.7867    0.3207 C   0  0  0  0  0  0  0  0  0  0  0  0
    0.6784   -2.2714    1.4559 O   0  0  0  0  0  0  0  0  0  0  0  0
    2.0509   -2.0459    1.3463 C   0  0  0  0  0  0  0  0  0  0  0  0
    2.3740   -0.6922    1.2486 O   0  0  0  0  0  0  0  0  0  0  0  0
    1.7901   -0.1075    0.1003 C   0  0  0  0  0  0  0  0  0  0  0  0
   -0.1543    0.2674    0.9323 H   0  0  0  0  0  0  0  0  0  0  0  0
   -1.0719   -1.9706    0.4964 H   0  0  0  0  0  0  0  0  0  0  0  0
    0.2931   -2.3600   -0.5678 H   0  0  0  0  0  0  0  0  0  0  0  0
    2.4416   -2.5815    0.4616 H   0  0  0  0  0  0  0  0  0  0  0  0
    2.5144   -2.4243    2.2546 H   0  0  0  0  0  0  0  0  0  0  0  0
    2.2229   -0.5627   -0.8037 H   0  0  0  0  0  0  0  0  0  0  0  0
    2.0610    0.9474    0.1135 H   0  0  0  0  0  0  0  0  0  0  0  0
  1  2  1  0
  1  5  1  0
  1  6  1  0
  1  7  1  0
  2  3  2  3
  2  9  1  0
  3  4  1  0
  8 10  1  0
 10 11  1  0
 10 15  1  0
 10 16  1  0
 11 12  1  0
 11 17  1  0
 11 18  1  0
 12 13  1  0
 13 14  1  0
 13 19  1  0
 13 20  1  0
 14 15  1  0
 15 21  1  0
 15 22  1  0
M  RAD  1   4   2
M  END
>  <reaction>  (10) 
rmg_rxn_194

>  <mol_properties>  (10) 
{"1": {"label": "*1", "atom_type": "Cs"}, "2": {"label": "*0", "atom_type": "N3d"}, "7": {"label": "*2", "atom_type": "H0"}, "9": {"label": "*3", "atom_type": "Cs"}, "10": {"label": "*4", "atom_type": "Cs"}}

>  <type>  (10) 
unop_6

>  <geom_source>  (10) 
Heuristics

$$$$

     RDKit          3D

 22 21  0  0  0  0  0  0  0  0999 V2000
   -1.8090    0.8349   -2.5036 C   0  0  0  0  0  0  0  0  0  0  0  0
   -1.8090    0.8349   -0.9931 C   0  0  0  0  0  0  0  0  0  0  0  0
   -1.8090    2.1608   -0.3295 N   0  0  0  0  0  0  0  0  0  0  0  0
   -1.8090    3.0904   -1.0772 O   0  0  0  0  0  1  0  0  0  0  0  0
   -0.9289    1.3423   -2.8981 H   0  0  0  0  0  0  0  0  0  0  0  0
   -1.8090   -0.1923   -2.8689 H   0  0  0  0  0  0  0  0  0  0  0  0
   -2.6892    1.3423   -2.8981 H   0  0  0  0  0  0  0  0  0  0  0  0
   -0.7636    0.2261   -0.4805 H   0  0  0  0  0  0  0  0  0  0  0  0
   -2.6802    0.3276   -0.5660 H   0  0  0  0  0  0  0  0  0  0  0  0
    0.2794   -0.3813    0.0308 C   0  0  0  0  0  0  0  0  0  0  0  0
   -0.1591   -1.5550    0.8949 C   0  0  0  0  0  0  0  0  0  0  0  0
    0.7344   -1.7297    1.9778 O   0  0  0  0  0  0  0  0  0  0  0  0
    2.0443   -1.9015    1.5297 C   0  0  0  0  0  0  0  0  0  0  0  0
    2.5217   -0.8053    0.8106 O   0  0  0  0  0  0  0  0  0  0  0  0
    1.7416   -0.5721   -0.3463 C   0  0  0  0  0  0  0  0  0  0  0  0
    0.1682    0.5466    0.5953 H   0  0  0  0  0  0  0  0  0  0  0  0
   -1.1468   -1.3971    1.3258 H   0  0  0  0  0  0  0  0  0  0  0  0
   -0.1897   -2.4757    0.2923 H   0  0  0  0  0  0  0  0  0  0  0  0
    2.1008   -2.8075    0.8987 H   0  0  0  0  0  0  0  0  0  0  0  0
    2.6752   -2.0111    2.4089 H   0  0  0  0  0  0  0  0  0  0  0  0
    1.8446   -1.4237   -1.0362 H   0  0  0  0  0  0  0  0  0  0  0  0
    2.1558    0.3108   -0.8310 H   0  0  0  0  0  0  0  0  0  0  0  0
  1  2  1  0
  1  5  1  0
  1  6  1  0
  1  7  1  0
  2  3  2  3
  2  9  1  0
  3  4  1  0
  8 10  1  0
 10 11  1  0
 10 15  1  0
 10 16  1  0
 11 12  1  0
 11 17  1  0
 11 18  1  0
 12 13  1  0
 13 14  1  0
 13 19  1  0
 13 20  1  0
 14 15  1  0
 15 21  1  0
 15 22  1  0
M  RAD  1   4   2
M  END
>  <reaction>  (11) 
rmg_rxn_194

>  <mol_properties>  (11) 
{"1": {"label": "*1", "atom_type": "Cs"}, "2": {"label": "*0", "atom_type": "N3d"}, "7": {"label": "*2", "atom_type": "H0"}, "9": {"label": "*3", "atom_type": "Cs"}, "10": {"label": "*4", "atom_type": "Cs"}}

>  <type>  (11) 
unop_7

>  <geom_source>  (11) 
Heuristics

$$$$

     RDKit          3D

 22 21  0  0  0  0  0  0  0  0999 V2000
   -1.4940    0.0715   -2.8158 C   0  0  0  0  0  0  0  0  0  0  0  0
   -1.4940    0.0715   -1.3053 C   0  0  0  0  0  0  0  0  0  0  0  0
   -1.4940    1.3975   -0.6417 N   0  0  0  0  0  0  0  0  0  0  0  0
   -1.4940    2.3270   -1.3894 O   0  0  0  0  0  1  0  0  0  0  0  0
   -0.6138    0.5789   -3.2103 H   0  0  0  0  0  0  0  0  0  0  0  0
   -1.4940   -0.9557   -3.1811 H   0  0  0  0  0  0  0  0  0  0  0  0
   -2.3741    0.5789   -3.2103 H   0  0  0  0  0  0  0  0  0  0  0  0
   -0.4485   -0.5373   -0.7927 H   0  0  0  0  0  0  0  0  0  0  0  0
   -2.3652   -0.4358   -0.8781 H   0  0  0  0  0  0  0  0  0  0  0  0
    0.5945   -1.1446   -0.2813 C   0  0  0  0  0  0  0  0  0  0  0  0
    1.7354   -0.1589   -0.0737 C   0  0  0  0  0  0  0  0  0  0  0  0
    2.3136   -0.3376    1.2050 O   0  0  0  0  0  0  0  0  0  0  0  0
    1.3576   -0.2144    2.2136 C   0  0  0  0  0  0  0  0  0  0  0  0
    0.3388   -1.1626    2.1167 O   0  0  0  0  0  0  0  0  0  0  0  0
   -0.3645   -1.0362    0.8957 C   0  0  0  0  0  0  0  0  0  0  0  0
    0.9954   -2.1589   -0.3307 H   0  0  0  0  0  0  0  0  0  0  0  0
    2.5335   -0.3005   -0.8012 H   0  0  0  0  0  0  0  0  0  0  0  0
    1.3635    0.8730   -0.1675 H   0  0  0  0  0  0  0  0  0  0  0  0
    0.9193    0.8001    2.1824 H   0  0  0  0  0  0  0  0  0  0  0  0
    1.8645   -0.3800    3.1617 H   0  0  0  0  0  0  0  0  0  0  0  0
   -0.8841   -0.0661    0.8701 H   0  0  0  0  0  0  0  0  0  0  0  0
   -1.1154   -1.8251    0.8833 H   0  0  0  0  0  0  0  0  0  0  0  0
  1  2  1  0
  1  5  1  0
  1  6  1  0
  1  7  1  0
  2  3  2  3
  2  9  1  0
  3  4  1  0
  8 10  1  0
 10 11  1  0
 10 15  1  0
 10 16  1  0
 11 12  1  0
 11 17  1  0
 11 18  1  0
 12 13  1  0
 13 14  1  0
 13 19  1  0
 13 20  1  0
 14 15  1  0
 15 21  1  0
 15 22  1  0
M  RAD  1   4   2
M  END
>  <reaction>  (12) 
rmg_rxn_194

>  <mol_properties>  (12) 
{"1": {"label": "*1", "atom_type": "Cs"}, "2": {"label": "*0", "atom_type": "N3d"}, "7": {"label": "*2", "atom_type": "H0"}, "9": {"label": "*3", "atom_type": "Cs"}, "10": {"label": "*4", "atom_type": "Cs"}}

>  <type>  (12) 
unop_8

>  <geom_source>  (12) 
Heuristics

$$$$

     RDKit          3D

 22 21  0  0  0  0  0  0  0  0999 V2000
   -2.0386    0.7398   -2.0947 C   0  0  0  0  0  0  0  0  0  0  0  0
   -2.0386    0.7398   -0.5843 C   0  0  0  0  0  0  0  0  0  0  0  0
   -2.0386    2.0657    0.0793 N   0  0  0  0  0  0  0  0  0  0  0  0
   -2.0386    2.9953   -0.6684 O   0  0  0  0  0  1  0  0  0  0  0  0
   -1.1585    1.2471   -2.4892 H   0  0  0  0  0  0  0  0  0  0  0  0
   -2.0386   -0.2874   -2.4600 H   0  0  0  0  0  0  0  0  0  0  0  0
   -2.9187    1.2471   -2.4892 H   0  0  0  0  0  0  0  0  0  0  0  0
   -0.9931    0.1310   -0.0717 H   0  0  0  0  0  0  0  0  0  0  0  0
   -2.9098    0.2324   -0.1571 H   0  0  0  0  0  0  0  0  0  0  0  0
    0.0498   -0.4764    0.4397 C   0  0  0  0  0  0  0  0  0  0  0  0
    0.5308   -1.5815   -0.4898 C   0  0  0  0  0  0  0  0  0  0  0  0
    1.4743   -2.4036    0.1700 O   0  0  0  0  0  0  0  0  0  0  0  0
    2.5479   -1.6542    0.6521 C   0  0  0  0  0  0  0  0  0  0  0  0
    2.1631   -0.6881    1.5822 O   0  0  0  0  0  0  0  0  0  0  0  0
    1.2632    0.2427    1.0119 C   0  0  0  0  0  0  0  0  0  0  0  0
   -0.5303   -0.9141    1.2544 H   0  0  0  0  0  0  0  0  0  0  0  0
   -0.2842   -2.2312   -0.8060 H   0  0  0  0  0  0  0  0  0  0  0  0
    0.9906   -1.1438   -1.3891 H   0  0  0  0  0  0  0  0  0  0  0  0
    3.0635   -1.1644   -0.1943 H   0  0  0  0  0  0  0  0  0  0  0  0
    3.2204   -2.3421    1.1597 H   0  0  0  0  0  0  0  0  0  0  0  0
    1.7746    0.8087    0.2182 H   0  0  0  0  0  0  0  0  0  0  0  0
    0.9885    0.9386    1.8034 H   0  0  0  0  0  0  0  0  0  0  0  0
  1  2  1  0
  1  5  1  0
  1  6  1  0
  1  7  1  0
  2  3  2  3
  2  9  1  0
  3  4  1  0
  8 10  1  0
 10 11  1  0
 10 15  1  0
 10 16  1  0
 11 12  1  0
 11 17  1  0
 11 18  1  0
 12 13  1  0
 13 14  1  0
 13 19  1  0
 13 20  1  0
 14 15  1  0
 15 21  1  0
 15 22  1  0
M  RAD  1   4   2
M  END
>  <reaction>  (13) 
rmg_rxn_194

>  <mol_properties>  (13) 
{"1": {"label": "*1", "atom_type": "Cs"}, "2": {"label": "*0", "atom_type": "N3d"}, "7": {"label": "*2", "atom_type": "H0"}, "9": {"label": "*3", "atom_type": "Cs"}, "10": {"label": "*4", "atom_type": "Cs"}}

>  <type>  (13) 
unop_9

>  <geom_source>  (13) 
Heuristics

$$$$

     RDKit          3D

 22 21  0  0  0  0  0  0  0  0999 V2000
   -1.7910   -0.0551   -2.5765 C   0  0  0  0  0  0  0  0  0  0  0  0
   -1.7910   -0.0551   -1.0660 C   0  0  0  0  0  0  0  0  0  0  0  0
   -1.7910    1.2708   -0.4025 N   0  0  0  0  0  0  0  0  0  0  0  0
   -1.7910    2.2004   -1.1502 O   0  0  0  0  0  1  0  0  0  0  0  0
   -0.9108    0.4523   -2.9710 H   0  0  0  0  0  0  0  0  0  0  0  0
   -1.7910   -1.0823   -2.9418 H   0  0  0  0  0  0  0  0  0  0  0  0
   -2.6711    0.4523   -2.9710 H   0  0  0  0  0  0  0  0  0  0  0  0
   -0.7455   -0.6639   -0.5535 H   0  0  0  0  0  0  0  0  0  0  0  0
   -2.6622   -0.5624   -0.6389 H   0  0  0  0  0  0  0  0  0  0  0  0
    0.2975   -1.2713   -0.0421 C   0  0  0  0  0  0  0  0  0  0  0  0
    1.5827   -0.5906   -0.4910 C   0  0  0  0  0  0  0  0  0  0  0  0
    2.5226   -0.5677    0.5661 O   0  0  0  0  0  0  0  0  0  0  0  0
    1.9959    0.0563    1.6973 C   0  0  0  0  0  0  0  0  0  0  0  0
    0.8674   -0.5916    2.2005 O   0  0  0  0  0  0  0  0  0  0  0  0
   -0.1774   -0.6159    1.2470 C   0  0  0  0  0  0  0  0  0  0  0  0
    0.4917   -2.3302    0.1392 H   0  0  0  0  0  0  0  0  0  0  0  0
    2.0549   -1.1175   -1.3190 H   0  0  0  0  0  0  0  0  0  0  0  0
    1.3699    0.4396   -0.8153 H   0  0  0  0  0  0  0  0  0  0  0  0
    1.7399    1.1037    1.4534 H   0  0  0  0  0  0  0  0  0  0  0  0
    2.7600    0.0224    2.4707 H   0  0  0  0  0  0  0  0  0  0  0  0
   -0.5140    0.4125    1.0450 H   0  0  0  0  0  0  0  0  0  0  0  0
   -1.0035   -1.1615    1.7010 H   0  0  0  0  0  0  0  0  0  0  0  0
  1  2  1  0
  1  5  1  0
  1  6  1  0
  1  7  1  0
  2  3  2  3
  2  9  1  0
  3  4  1  0
  8 10  1  0
 10 11  1  0
 10 15  1  0
 10 16  1  0
 11 12  1  0
 11 17  1  0
 11 18  1  0
 12 13  1  0
 13 14  1  0
 13 19  1  0
 13 20  1  0
 14 15  1  0
 15 21  1  0
 15 22  1  0
M  RAD  1   4   2
M  END
>  <reaction>  (14) 
rmg_rxn_194

>  <mol_properties>  (14) 
{"1": {"label": "*1", "atom_type": "Cs"}, "2": {"label": "*0", "atom_type": "N3d"}, "7": {"label": "*2", "atom_type": "H0"}, "9": {"label": "*3", "atom_type": "Cs"}, "10": {"label": "*4", "atom_type": "Cs"}}

>  <type>  (14) 
unop_10

>  <geom_source>  (14) 
Heuristics

$$$$

     RDKit          3D

 22 21  0  0  0  0  0  0  0  0999 V2000
   -1.8076    0.8622   -2.4770 C   0  0  0  0  0  0  0  0  0  0  0  0
   -1.8076    0.8622   -0.9665 C   0  0  0  0  0  0  0  0  0  0  0  0
   -1.8076    2.1882   -0.3029 N   0  0  0  0  0  0  0  0  0  0  0  0
   -1.8076    3.1177   -1.0506 O   0  0  0  0  0  1  0  0  0  0  0  0
   -0.9274    1.3696   -2.8714 H   0  0  0  0  0  0  0  0  0  0  0  0
   -1.8076   -0.1649   -2.8422 H   0  0  0  0  0  0  0  0  0  0  0  0
   -2.6877    1.3696   -2.8714 H   0  0  0  0  0  0  0  0  0  0  0  0
   -0.7621    0.2534   -0.4539 H   0  0  0  0  0  0  0  0  0  0  0  0
   -2.6788    0.3549   -0.5393 H   0  0  0  0  0  0  0  0  0  0  0  0
    0.2809   -0.3539    0.0575 C   0  0  0  0  0  0  0  0  0  0  0  0
   -0.0709   -0.9742    1.4022 C   0  0  0  0  0  0  0  0  0  0  0  0
    1.0987   -1.1763    2.1719 O   0  0  0  0  0  0  0  0  0  0  0  0
    2.0253   -1.9625    1.4865 C   0  0  0  0  0  0  0  0  0  0  0  0
    2.4485   -1.3854    0.2889 O   0  0  0  0  0  0  0  0  0  0  0  0
    1.3643   -1.1966   -0.6002 C   0  0  0  0  0  0  0  0  0  0  0  0
    0.6536    0.6605    0.2120 H   0  0  0  0  0  0  0  0  0  0  0  0
   -0.7251   -0.3307    1.9889 H   0  0  0  0  0  0  0  0  0  0  0  0
   -0.5816   -1.9375    1.2506 H   0  0  0  0  0  0  0  0  0  0  0  0
    1.5838   -2.9548    1.2803 H   0  0  0  0  0  0  0  0  0  0  0  0
    2.9004   -2.0615    2.1248 H   0  0  0  0  0  0  0  0  0  0  0  0
    0.9546   -2.1756   -0.8926 H   0  0  0  0  0  0  0  0  0  0  0  0
    1.7689   -0.7172   -1.4906 H   0  0  0  0  0  0  0  0  0  0  0  0
  1  2  1  0
  1  5  1  0
  1  6  1  0
  1  7  1  0
  2  3  2  3
  2  9  1  0
  3  4  1  0
  8 10  1  0
 10 11  1  0
 10 15  1  0
 10 16  1  0
 11 12  1  0
 11 17  1  0
 11 18  1  0
 12 13  1  0
 13 14  1  0
 13 19  1  0
 13 20  1  0
 14 15  1  0
 15 21  1  0
 15 22  1  0
M  RAD  1   4   2
M  END
>  <reaction>  (15) 
rmg_rxn_194

>  <mol_properties>  (15) 
{"1": {"label": "*1", "atom_type": "Cs"}, "2": {"label": "*0", "atom_type": "N3d"}, "7": {"label": "*2", "atom_type": "H0"}, "9": {"label": "*3", "atom_type": "Cs"}, "10": {"label": "*4", "atom_type": "Cs"}}

>  <type>  (15) 
unop_11

>  <geom_source>  (15) 
Heuristics

$$$$

     RDKit          3D

 22 21  0  0  0  0  0  0  0  0999 V2000
   -2.1247    0.3979   -2.0941 C   0  0  0  0  0  0  0  0  0  0  0  0
   -2.1247    0.3979   -0.5836 C   0  0  0  0  0  0  0  0  0  0  0  0
   -2.1247    1.7239    0.0799 N   0  0  0  0  0  0  0  0  0  0  0  0
   -2.1247    2.6534   -0.6678 O   0  0  0  0  0  1  0  0  0  0  0  0
   -1.2446    0.9053   -2.4886 H   0  0  0  0  0  0  0  0  0  0  0  0
   -2.1247   -0.6292   -2.4594 H   0  0  0  0  0  0  0  0  0  0  0  0
   -3.0048    0.9053   -2.4886 H   0  0  0  0  0  0  0  0  0  0  0  0
   -1.0793   -0.2109   -0.0711 H   0  0  0  0  0  0  0  0  0  0  0  0
   -2.9959   -0.1094   -0.1565 H   0  0  0  0  0  0  0  0  0  0  0  0
   -0.0363   -0.8182    0.4403 C   0  0  0  0  0  0  0  0  0  0  0  0
    0.8679   -1.3447   -0.6651 C   0  0  0  0  0  0  0  0  0  0  0  0
    2.0621   -1.8683   -0.1165 O   0  0  0  0  0  0  0  0  0  0  0  0
    2.7234   -0.9143    0.6576 C   0  0  0  0  0  0  0  0  0  0  0  0
    1.9646   -0.4716    1.7413 O   0  0  0  0  0  0  0  0  0  0  0  0
    0.7641    0.1404    1.3104 C   0  0  0  0  0  0  0  0  0  0  0  0
   -0.3889   -1.6529    1.0493 H   0  0  0  0  0  0  0  0  0  0  0  0
    0.3990   -2.1532   -1.2244 H   0  0  0  0  0  0  0  0  0  0  0  0
    1.1118   -0.5351   -1.3699 H   0  0  0  0  0  0  0  0  0  0  0  0
    2.9960   -0.0511    0.0230 H   0  0  0  0  0  0  0  0  0  0  0  0
    3.6167   -1.3870    1.0598 H   0  0  0  0  0  0  0  0  0  0  0  0
    1.0007    1.0546    0.7446 H   0  0  0  0  0  0  0  0  0  0  0  0
    0.2187    0.4275    2.2084 H   0  0  0  0  0  0  0  0  0  0  0  0
  1  2  1  0
  1  5  1  0
  1  6  1  0
  1  7  1  0
  2  3  2  3
  2  9  1  0
  3  4  1  0
  8 10  1  0
 10 11  1  0
 10 15  1  0
 10 16  1  0
 11 12  1  0
 11 17  1  0
 11 18  1  0
 12 13  1  0
 13 14  1  0
 13 19  1  0
 13 20  1  0
 14 15  1  0
 15 21  1  0
 15 22  1  0
M  RAD  1   4   2
M  END
>  <reaction>  (16) 
rmg_rxn_194

>  <mol_properties>  (16) 
{"1": {"label": "*1", "atom_type": "Cs"}, "2": {"label": "*0", "atom_type": "N3d"}, "7": {"label": "*2", "atom_type": "H0"}, "9": {"label": "*3", "atom_type": "Cs"}, "10": {"label": "*4", "atom_type": "Cs"}}

>  <type>  (16) 
unop_12

>  <geom_source>  (16) 
Heuristics

$$$$

     RDKit          3D

 22 21  0  0  0  0  0  0  0  0999 V2000
   -2.3475    0.0587    0.8516 O   0  0  0  0  0  0  0  0  0  0  0  0
   -2.0836    0.7546   -1.4284 O   0  0  0  0  0  0  0  0  0  0  0  0
    2.3403   -1.2417    2.4315 O   0  0  0  0  0  1  0  0  0  0  0  0
    2.2265   -0.0983    2.1092 N   0  0  0  0  0  0  0  0  0  0  0  0
   -0.3765   -0.5754   -0.3743 C   0  0  0  0  0  0  0  0  0  0  0  0
   -1.6028   -1.0523    0.4036 C   0  0  0  0  0  0  0  0  0  0  0  0
   -0.7165    0.7370   -1.0806 C   0  0  0  0  0  0  0  0  0  0  0  0
   -2.8937    0.7690   -0.2563 C   0  0  0  0  0  0  0  0  0  0  0  0
    2.9360   -0.0513   -0.2222 C   0  0  0  0  0  0  0  0  0  0  0  0
    1.8202    0.2456    0.7707 C   0  0  0  0  0  0  0  0  0  0  0  0
   -0.0838   -1.3497   -1.1164 H   0  0  0  0  0  0  0  0  0  0  0  0
    0.6132   -0.3799    0.4345 H   0  0  0  0  0  0  0  0  0  0  0  0
   -1.2694   -1.6435    1.2819 H   0  0  0  0  0  0  0  0  0  0  0  0
   -2.2346   -1.7191   -0.2279 H   0  0  0  0  0  0  0  0  0  0  0  0
   -0.1056    0.8286   -2.0033 H   0  0  0  0  0  0  0  0  0  0  0  0
   -0.4662    1.6050   -0.4284 H   0  0  0  0  0  0  0  0  0  0  0  0
   -3.0650    1.8232    0.0486 H   0  0  0  0  0  0  0  0  0  0  0  0
   -3.8857    0.3365   -0.5061 H   0  0  0  0  0  0  0  0  0  0  0  0
    3.1715   -1.1363   -0.2177 H   0  0  0  0  0  0  0  0  0  0  0  0
    3.8478    0.5261    0.0410 H   0  0  0  0  0  0  0  0  0  0  0  0
    2.6075    0.2369   -1.2424 H   0  0  0  0  0  0  0  0  0  0  0  0
    1.5679    1.3263    0.7317 H   0  0  0  0  0  0  0  0  0  0  0  0
  1  6  1  0
  1  8  1  0
  2  7  1  0
  2  8  1  0
  3  4  1  0
  4 10  2  3
  5  6  1  0
  5  7  1  0
  5 11  1  0
  5 12  1  0
  6 13  1  0
  6 14  1  0
  7 15  1  0
  7 16  1  0
  8 17  1  0
  8 18  1  0
  9 10  1  0
  9 19  1  0
  9 20  1  0
  9 21  1  0
 10 22  1  0
M  RAD  1   3   2
M  END
>  <reaction>  (17) 
rmg_rxn_194

>  <mol_properties>  (17) 
{"1": {"label": "*1", "atom_type": "Cs"}, "2": {"label": "*0", "atom_type": "N3d"}, "7": {"label": "*2", "atom_type": "H0"}, "9": {"label": "*3", "atom_type": "Cs"}, "10": {"label": "*4", "atom_type": "Cs"}}

>  <type>  (17) 
unop_13

>  <geom_source>  (17) 
AutoTST

$$$$

     RDKit          3D

 22 21  0  0  0  0  0  0  0  0999 V2000
   -2.0353    0.0696   -2.2887 C   0  0  0  0  0  0  0  0  0  0  0  0
   -2.0353    0.0696   -0.7782 C   0  0  0  0  0  0  0  0  0  0  0  0
   -2.0353    1.3956   -0.1146 N   0  0  0  0  0  0  0  0  0  0  0  0
   -2.0353    2.3251   -0.8623 O   0  0  0  0  0  1  0  0  0  0  0  0
   -1.1551    0.5770   -2.6832 H   0  0  0  0  0  0  0  0  0  0  0  0
   -2.0353   -0.9575   -2.6540 H   0  0  0  0  0  0  0  0  0  0  0  0
   -2.9154    0.5770   -2.6832 H   0  0  0  0  0  0  0  0  0  0  0  0
   -0.9898   -0.5392   -0.2656 H   0  0  0  0  0  0  0  0  0  0  0  0
   -2.9065   -0.4377   -0.3511 H   0  0  0  0  0  0  0  0  0  0  0  0
    0.0532   -1.1465    0.2458 C   0  0  0  0  0  0  0  0  0  0  0  0
    1.2517   -1.0194   -0.6837 C   0  0  0  0  0  0  0  0  0  0  0  0
    2.4566   -1.1467    0.0466 O   0  0  0  0  0  0  0  0  0  0  0  0
    2.5234   -0.2102    1.0786 C   0  0  0  0  0  0  0  0  0  0  0  0
    1.4934   -0.3511    2.0090 O   0  0  0  0  0  0  0  0  0  0  0  0
    0.2275   -0.1733    1.4029 C   0  0  0  0  0  0  0  0  0  0  0  0
    0.0009   -2.1658    0.6334 H   0  0  0  0  0  0  0  0  0  0  0  0
    1.2620   -1.7992   -1.4441 H   0  0  0  0  0  0  0  0  0  0  0  0
    1.2321   -0.0432   -1.1923 H   0  0  0  0  0  0  0  0  0  0  0  0
    2.4960    0.8092    0.6518 H   0  0  0  0  0  0  0  0  0  0  0  0
    3.4603   -0.3761    1.6057 H   0  0  0  0  0  0  0  0  0  0  0  0
    0.1359    0.8623    1.0412 H   0  0  0  0  0  0  0  0  0  0  0  0
   -0.5176   -0.3290    2.1819 H   0  0  0  0  0  0  0  0  0  0  0  0
  1  2  1  0
  1  5  1  0
  1  6  1  0
  1  7  1  0
  2  3  2  3
  2  9  1  0
  3  4  1  0
  8 10  1  0
 10 11  1  0
 10 15  1  0
 10 16  1  0
 11 12  1  0
 11 17  1  0
 11 18  1  0
 12 13  1  0
 13 14  1  0
 13 19  1  0
 13 20  1  0
 14 15  1  0
 15 21  1  0
 15 22  1  0
M  RAD  1   4   2
M  END
>  <reaction>  (18) 
rmg_rxn_194

>  <mol_properties>  (18) 
{"1": {"label": "*1", "atom_type": "Cs"}, "2": {"label": "*0", "atom_type": "N3d"}, "7": {"label": "*2", "atom_type": "H0"}, "9": {"label": "*3", "atom_type": "Cs"}, "10": {"label": "*4", "atom_type": "Cs"}}

>  <type>  (18) 
unop_14

>  <geom_source>  (18) 
gaussian_log

$$$$
