
     RDKit          3D

  8  7  0  0  0  0  0  0  0  0999 V2000
    0.0000    0.0000    0.7560 C   0  0  0  0  0  0  0  0  0  0  0  0
    0.0000    0.0000   -0.7560 C   0  0  0  0  0  0  0  0  0  0  0  0
    1.0243    0.0000    1.1404 H   0  0  0  0  0  0  0  0  0  0  0  0
   -0.5122    0.8871    1.1404 H   0  0  0  0  0  0  0  0  0  0  0  0
   -0.5122   -0.8871    1.1404 H   0  0  0  0  0  0  0  0  0  0  0  0
    0.5122   -0.8871   -1.1404 H   0  0  0  0  0  0  0  0  0  0  0  0
    0.5122    0.8871   -1.1404 H   0  0  0  0  0  0  0  0  0  0  0  0
   -1.0243    0.0000   -1.1404 H   0  0  0  0  0  0  0  0  0  0  0  0
  1  2  1  0
  1  3  1  0
  1  4  1  0
  1  5  1  0
  2  6  1  0
  2  7  1  0
  2  8  1  0
M  END
>  <reaction>  (1) 
rmg_rxn_16796

>  <mol_properties>  (1) 
{"1": {"label": "donator", "atom_type": "Cs"}, "5": {"label": "d_hydrogen", "atom_type": "H0"}}

>  <type>  (1) 
r1h

$$$$

     RDKit          3D

  7  6  0  0  0  0  0  0  0  0999 V2000
   -1.2010    0.1038   -0.0002 C   0  0  0  0  0  0  0  0  0  0  0  0
    0.1886   -0.4250   -0.0003 C   0  0  0  0  0  3  0  0  0  0  0  0
    1.3309    0.0272    0.0001 N   0  0  0  0  0  0  0  0  0  0  0  0
   -1.7355   -0.2512    0.8930 H   0  0  0  0  0  0  0  0  0  0  0  0
   -1.2181    1.2094   -0.0132 H   0  0  0  0  0  0  0  0  0  0  0  0
   -1.7468   -0.2736   -0.8772 H   0  0  0  0  0  0  0  0  0  0  0  0
    1.4589    1.0518   -0.0003 H   0  0  0  0  0  0  0  0  0  0  0  0
  1  2  1  0
  1  4  1  0
  1  5  1  0
  1  6  1  0
  2  3  2  3
  3  7  1  0
M  RAD  1   2   2
M  END
>  <reaction>  (2) 
rmg_rxn_16796

>  <mol_properties>  (2) 
{"2": {"label": "acceptor", "atom_type": "Cd"}}

>  <type>  (2) 
r2

$$$$

     RDKit          3D

  8  7  0  0  0  0  0  0  0  0999 V2000
    1.2099   -0.1388    0.0025 C   0  0  0  0  0  0  0  0  0  0  0  0
   -0.1788    0.4141    0.0007 C   0  0  0  0  0  0  0  0  0  0  0  0
   -1.2100   -0.3603    0.0013 N   0  0  0  0  0  0  0  0  0  0  0  0
    1.7355    0.2223   -0.8851 H   0  0  0  0  0  0  0  0  0  0  0  0
    1.7521    0.1663    0.9007 H   0  0  0  0  0  0  0  0  0  0  0  0
    1.1564   -1.2296   -0.0424 H   0  0  0  0  0  0  0  0  0  0  0  0
   -0.2911    1.5112   -0.0010 H   0  0  0  0  0  0  0  0  0  0  0  0
   -2.0699    0.2005   -0.0002 H   0  0  0  0  0  0  0  0  0  0  0  0
  1  2  1  0
  1  4  1  0
  1  5  1  0
  1  6  1  0
  2  3  2  3
  2  7  1  0
  3  8  1  0
M  END
>  <reaction>  (3) 
rmg_rxn_16796

>  <mol_properties>  (3) 
{"2": {"label": "acceptor", "atom_type": "Cd"}, "6": {"label": "a_hydrogen", "atom_type": "H0"}}

>  <type>  (3) 
r2h

$$$$

     RDKit          3D

 15 13  0  0  0  0  0  0  0  0999 V2000
   -1.0637    1.4244   -0.0117 N   0  0  0  0  0  0  0  0  0  0  0  0
   -2.1753   -0.7522    0.0145 C   0  0  0  0  0  0  0  0  0  0  0  0
    2.3539    0.3037    0.0220 C   0  0  0  0  0  0  0  0  0  0  0  0
   -1.0010    0.1700   -0.0050 C   0  0  0  0  0  0  0  0  0  0  0  0
    1.4835   -0.9243   -0.0231 C   0  0  0  0  0  3  0  0  0  0  0  0
   -2.1298   -1.4008    0.9030 H   0  0  0  0  0  0  0  0  0  0  0  0
   -3.1167   -0.1833    0.0217 H   0  0  0  0  0  0  0  0  0  0  0  0
   -2.1495   -1.4116   -0.8668 H   0  0  0  0  0  0  0  0  0  0  0  0
    3.4288    0.0496    0.0147 H   0  0  0  0  0  0  0  0  0  0  0  0
    2.1758    0.9573   -0.8473 H   0  0  0  0  0  0  0  0  0  0  0  0
    2.1721    0.8946    0.9342 H   0  0  0  0  0  0  0  0  0  0  0  0
    0.1648   -0.4435   -0.0143 H   0  0  0  0  0  0  0  0  0  0  0  0
    1.5380   -1.5059   -0.9533 H   0  0  0  0  0  0  0  0  0  0  0  0
    1.5297   -1.5687    0.8651 H   0  0  0  0  0  0  0  0  0  0  0  0
   -0.1340    1.8571   -0.0246 H   0  0  0  0  0  0  0  0  0  0  0  0
  1  4  2  3
  1 15  1  0
  2  4  1  0
  2  6  1  0
  2  7  1  0
  2  8  1  0
  3  5  1  0
  3  9  1  0
  3 10  1  0
  3 11  1  0
  4 12  1  0
  5 13  1  0
  5 14  1  0
M  RAD  1   5   2
M  END
>  <reaction>  (4) 
rmg_rxn_16796

>  <mol_properties>  (4) 
{"0": {"label": "*0", "atom_type": "N3d"}, "2": {"label": "*4", "atom_type": "Cs"}, "3": {"label": "*1", "atom_type": "Cd"}, "4": {"label": "*3", "atom_type": "Cs"}, "11": {"label": "*2", "atom_type": "H0"}}

>  <type>  (4) 
ts

$$$$

     RDKit          3D

 15 13  0  0  0  0  0  0  0  0999 V2000
   -1.9981   -0.9383   -0.0060 C   0  0  0  0  0  0  0  0  0  0  0  0
   -0.9610    0.1167    0.0025 C   0  0  0  0  0  3  0  0  0  0  0  0
   -1.2046    1.3359    0.0031 N   0  0  0  0  0  0  0  0  0  0  0  0
   -1.8717   -1.5703    0.8720 H   0  0  0  0  0  0  0  0  0  0  0  0
   -3.0028   -0.5151   -0.0099 H   0  0  0  0  0  0  0  0  0  0  0  0
   -1.8626   -1.5647   -0.8866 H   0  0  0  0  0  0  0  0  0  0  0  0
   -0.4260    1.9867    0.0089 H   0  0  0  0  0  0  0  0  0  0  0  0
    2.4621    0.3481   -0.0083 C   0  0  0  0  0  0  0  0  0  0  0  0
    1.5241   -0.8339    0.0093 C   0  0  0  0  0  0  0  0  0  0  0  0
    2.3082    0.9755    0.8686 H   0  0  0  0  0  0  0  0  0  0  0  0
    3.5056    0.0254   -0.0075 H   0  0  0  0  0  0  0  0  0  0  0  0
    2.3026    0.9535   -0.8996 H   0  0  0  0  0  0  0  0  0  0  0  0
    0.3047   -0.3885    0.0073 H   0  0  0  0  0  0  0  0  0  0  0  0
    1.6241   -1.4327    0.9092 H   0  0  0  0  0  0  0  0  0  0  0  0
    1.6191   -1.4553   -0.8757 H   0  0  0  0  0  0  0  0  0  0  0  0
  1  2  1  0
  1  4  1  0
  1  5  1  0
  1  6  1  0
  2  3  2  3
  3  7  1  0
  8  9  1  0
  8 10  1  0
  8 11  1  0
  8 12  1  0
  9 13  1  0
  9 14  1  0
  9 15  1  0
M  RAD  1   2   2
M  END
>  <reaction>  (5) 
rmg_rxn_16796

>  <mol_properties>  (5) 
{"0": {"label": "*0", "atom_type": "N3d"}, "2": {"label": "*4", "atom_type": "Cs"}, "3": {"label": "*1", "atom_type": "Cd"}, "4": {"label": "*3", "atom_type": "Cs"}, "11": {"label": "*2", "atom_type": "H0"}}

>  <type>  (5) 
unop_1

>  <geom_source>  (5) 
crest_best.xyz

$$$$

     RDKit          3D

 15 13  0  0  0  0  0  0  0  0999 V2000
   -1.1583    1.2869    1.3236 C   0  0  0  0  0  0  0  0  0  0  0  0
   -0.0107    0.8722    0.4603 C   0  0  0  0  0  3  0  0  0  0  0  0
    1.2022    1.1978    0.7535 N   0  0  0  0  0  0  0  0  0  0  0  0
   -1.6780    0.4158    1.7297 H   0  0  0  0  0  0  0  0  0  0  0  0
   -0.7801    1.9045    2.1422 H   0  0  0  0  0  0  0  0  0  0  0  0
   -1.8522    1.8842    0.7266 H   0  0  0  0  0  0  0  0  0  0  0  0
    1.8463    0.8242    0.0467 H   0  0  0  0  0  0  0  0  0  0  0  0
   -0.0107   -1.5961   -1.9780 C   0  0  0  0  0  0  0  0  0  0  0  0
   -0.0107   -1.5961   -0.4659 C   0  0  0  0  0  0  0  0  0  0  0  0
    0.8764   -1.0839   -2.3623 H   0  0  0  0  0  0  0  0  0  0  0  0
   -0.0107   -2.6204   -2.3623 H   0  0  0  0  0  0  0  0  0  0  0  0
   -0.8978   -1.0839   -2.3623 H   0  0  0  0  0  0  0  0  0  0  0  0
   -0.0107   -0.3669   -0.0047 H   0  0  0  0  0  0  0  0  0  0  0  0
    0.8764   -2.1082   -0.0815 H   0  0  0  0  0  0  0  0  0  0  0  0
   -0.8978   -2.1082   -0.0815 H   0  0  0  0  0  0  0  0  0  0  0  0
  1  2  1  0
  1  4  1  0
  1  5  1  0
  1  6  1  0
  2  3  2  3
  3  7  1  0
  8  9  1  0
  8 10  1  0
  8 11  1  0
  8 12  1  0
  9 13  1  0
  9 14  1  0
  9 15  1  0
M  RAD  1   2   2
M  END
>  <reaction>  (6) 
rmg_rxn_16796

>  <mol_properties>  (6) 
{"0": {"label": "*0", "atom_type": "N3d"}, "2": {"label": "*4", "atom_type": "Cs"}, "3": {"label": "*1", "atom_type": "Cd"}, "4": {"label": "*3", "atom_type": "Cs"}, "11": {"label": "*2", "atom_type": "H0"}}

>  <type>  (6) 
unop_2

>  <geom_source>  (6) 
Heuristics

$$$$

     RDKit          3D

 15 13  0  0  0  0  0  0  0  0999 V2000
   -0.5769    1.8180   -0.2155 C   0  0  0  0  0  0  0  0  0  0  0  0
    0.0857    0.7674    0.6160 C   0  0  0  0  0  3  0  0  0  0  0  0
    0.3375    0.9600    1.8661 N   0  0  0  0  0  0  0  0  0  0  0  0
   -1.5348    1.4641   -0.6039 H   0  0  0  0  0  0  0  0  0  0  0  0
   -0.7351    2.7078    0.3992 H   0  0  0  0  0  0  0  0  0  0  0  0
    0.0831    2.0798   -1.0464 H   0  0  0  0  0  0  0  0  0  0  0  0
    0.7920    0.1301    2.2643 H   0  0  0  0  0  0  0  0  0  0  0  0
    0.0857   -1.7009   -1.8222 C   0  0  0  0  0  0  0  0  0  0  0  0
    0.0857   -1.7009   -0.3102 C   0  0  0  0  0  0  0  0  0  0  0  0
    0.9728   -1.1887   -2.2066 H   0  0  0  0  0  0  0  0  0  0  0  0
    0.0857   -2.7252   -2.2066 H   0  0  0  0  0  0  0  0  0  0  0  0
   -0.8014   -1.1887   -2.2066 H   0  0  0  0  0  0  0  0  0  0  0  0
    0.0857   -0.4717    0.1511 H   0  0  0  0  0  0  0  0  0  0  0  0
    0.9728   -2.2131    0.0742 H   0  0  0  0  0  0  0  0  0  0  0  0
   -0.8014   -2.2131    0.0742 H   0  0  0  0  0  0  0  0  0  0  0  0
  1  2  1  0
  1  4  1  0
  1  5  1  0
  1  6  1  0
  2  3  2  3
  3  7  1  0
  8  9  1  0
  8 10  1  0
  8 11  1  0
  8 12  1  0
  9 13  1  0
  9 14  1  0
  9 15  1  0
M  RAD  1   2   2
M  END
>  <reaction>  (7) 
rmg_rxn_16796

>  <mol_properties>  (7) 
{"0": {"label": "*0", "atom_type": "N3d"}, "2": {"label": "*4", "atom_type": "Cs"}, "3": {"label": "*1", "atom_type": "Cd"}, "4": {"label": "*3", "atom_type": "Cs"}, "11": {"label": "*2", "atom_type": "H0"}}

>  <type>  (7) 
unop_3

>  <geom_source>  (7) 
Heuristics

$$$$

     RDKit          3D

 15 13  0  0  0  0  0  0  0  0999 V2000
   -0.7363    1.0786    1.8198 C   0  0  0  0  0  0  0  0  0  0  0  0
   -0.0737    0.8343    0.5024 C   0  0  0  0  0  3  0  0  0  0  0  0
    0.9558    1.5168    0.1316 N   0  0  0  0  0  0  0  0  0  0  0  0
   -0.6908    0.1888    2.4523 H   0  0  0  0  0  0  0  0  0  0  0  0
   -0.2343    1.9112    2.3192 H   0  0  0  0  0  0  0  0  0  0  0  0
   -1.7797    1.3532    1.6454 H   0  0  0  0  0  0  0  0  0  0  0  0
    1.2670    1.2062   -0.7962 H   0  0  0  0  0  0  0  0  0  0  0  0
   -0.0737   -1.6340   -1.9359 C   0  0  0  0  0  0  0  0  0  0  0  0
   -0.0737   -1.6340   -0.4238 C   0  0  0  0  0  0  0  0  0  0  0  0
    0.8134   -1.1218   -2.3202 H   0  0  0  0  0  0  0  0  0  0  0  0
   -0.0737   -2.6583   -2.3202 H   0  0  0  0  0  0  0  0  0  0  0  0
   -0.9608   -1.1218   -2.3202 H   0  0  0  0  0  0  0  0  0  0  0  0
   -0.0737   -0.4048    0.0374 H   0  0  0  0  0  0  0  0  0  0  0  0
    0.8134   -2.1462   -0.0394 H   0  0  0  0  0  0  0  0  0  0  0  0
   -0.9608   -2.1462   -0.0394 H   0  0  0  0  0  0  0  0  0  0  0  0
  1  2  1  0
  1  4  1  0
  1  5  1  0
  1  6  1  0
  2  3  2  3
  3  7  1  0
  8  9  1  0
  8 10  1  0
  8 11  1  0
  8 12  1  0
  9 13  1  0
  9 14  1  0
  9 15  1  0
M  RAD  1   2   2
M  END
>  <reaction>  (8) 
rmg_rxn_16796

>  <mol_properties>  (8) 
{"0": {"label": "*0", "atom_type": "N3d"}, "2": {"label": "*4", "atom_type": "Cs"}, "3": {"label": "*1", "atom_type": "Cd"}, "4": {"label": "*3", "atom_type": "Cs"}, "11": {"label": "*2", "atom_type": "H0"}}

>  <type>  (8) 
unop_4

>  <geom_source>  (8) 
Heuristics

$$$$

     RDKit          3D

 15 13  0  0  0  0  0  0  0  0999 V2000
    1.0323    1.6964    0.1679 C   0  0  0  0  0  0  0  0  0  0  0  0
   -0.1153    0.8162    0.5453 C   0  0  0  0  0  3  0  0  0  0  0  0
   -0.7175    0.9466    1.6782 N   0  0  0  0  0  0  0  0  0  0  0  0
    0.7999    2.2822   -0.7247 H   0  0  0  0  0  0  0  0  0  0  0  0
    1.2522    2.3679    1.0018 H   0  0  0  0  0  0  0  0  0  0  0  0
    1.9099    1.0726   -0.0196 H   0  0  0  0  0  0  0  0  0  0  0  0
   -1.4742    0.2570    1.7546 H   0  0  0  0  0  0  0  0  0  0  0  0
   -0.1153   -1.6521   -1.8930 C   0  0  0  0  0  0  0  0  0  0  0  0
   -0.1153   -1.6521   -0.3809 C   0  0  0  0  0  0  0  0  0  0  0  0
    0.7718   -1.1399   -2.2774 H   0  0  0  0  0  0  0  0  0  0  0  0
   -0.1153   -2.6764   -2.2774 H   0  0  0  0  0  0  0  0  0  0  0  0
   -1.0024   -1.1399   -2.2774 H   0  0  0  0  0  0  0  0  0  0  0  0
   -0.1153   -0.4229    0.0803 H   0  0  0  0  0  0  0  0  0  0  0  0
    0.7718   -2.1643    0.0034 H   0  0  0  0  0  0  0  0  0  0  0  0
   -1.0024   -2.1643    0.0034 H   0  0  0  0  0  0  0  0  0  0  0  0
  1  2  1  0
  1  4  1  0
  1  5  1  0
  1  6  1  0
  2  3  2  3
  3  7  1  0
  8  9  1  0
  8 10  1  0
  8 11  1  0
  8 12  1  0
  9 13  1  0
  9 14  1  0
  9 15  1  0
M  RAD  1   2   2
M  END
>  <reaction>  (9) 
rmg_rxn_16796

>  <mol_properties>  (9) 
{"0": {"label": "*0", "atom_type": "N3d"}, "2": {"label": "*4", "atom_type": "Cs"}, "3": {"label": "*1", "atom_type": "Cd"}, "4": {"label": "*3", "atom_type": "Cs"}, "11": {"label": "*2", "atom_type": "H0"}}

>  <type>  (9) 
unop_5

>  <geom_source>  (9) 
Heuristics

$$$$

     RDKit          3D

 15 13  0  0  0  0  0  0  0  0999 V2000
    0.0005    0.9619    2.0397 C   0  0  0  0  0  0  0  0  0  0  0  0
    0.0005    0.7800    0.5561 C   0  0  0  0  0  3  0  0  0  0  0  0
    0.0005    1.7910   -0.2445 N   0  0  0  0  0  0  0  0  0  0  0  0
    0.8988    0.5302    2.4874 H   0  0  0  0  0  0  0  0  0  0  0  0
   -0.0460    2.0304    2.2650 H   0  0  0  0  0  0  0  0  0  0  0  0
   -0.8869    0.4778    2.4554 H   0  0  0  0  0  0  0  0  0  0  0  0
    0.0005    1.4670   -1.2187 H   0  0  0  0  0  0  0  0  0  0  0  0
    0.0005   -1.6883   -1.8822 C   0  0  0  0  0  0  0  0  0  0  0  0
    0.0005   -1.6883   -0.3701 C   0  0  0  0  0  0  0  0  0  0  0  0
    0.8876   -1.1762   -2.2666 H   0  0  0  0  0  0  0  0  0  0  0  0
    0.0005   -2.7127   -2.2666 H   0  0  0  0  0  0  0  0  0  0  0  0
   -0.8866   -1.1762   -2.2666 H   0  0  0  0  0  0  0  0  0  0  0  0
    0.0005   -0.4591    0.0911 H   0  0  0  0  0  0  0  0  0  0  0  0
    0.8876   -2.2005    0.0142 H   0  0  0  0  0  0  0  0  0  0  0  0
   -0.8866   -2.2005    0.0142 H   0  0  0  0  0  0  0  0  0  0  0  0
  1  2  1  0
  1  4  1  0
  1  5  1  0
  1  6  1  0
  2  3  2  3
  3  7  1  0
  8  9  1  0
  8 10  1  0
  8 11  1  0
  8 12  1  0
  9 13  1  0
  9 14  1  0
  9 15  1  0
M  RAD  1   2   2
M  END
>  <reaction>  (10) 
rmg_rxn_16796

>  <mol_properties>  (10) 
{"0": {"label": "*0", "atom_type": "N3d"}, "2": {"label": "*4", "atom_type": "Cs"}, "3": {"label": "*1", "atom_type": "Cd"}, "4": {"label": "*3", "atom_type": "Cs"}, "11": {"label": "*2", "atom_type": "H0"}}

>  <type>  (10) 
unop_6

>  <geom_source>  (10) 
Heuristics

$$$$

     RDKit          3D

 15 13  0  0  0  0  0  0  0  0999 V2000
    1.2514    1.5074    0.7233 C   0  0  0  0  0  0  0  0  0  0  0  0
   -0.0737    0.8600    0.4804 C   0  0  0  0  0  3  0  0  0  0  0  0
   -1.0567    1.0136    1.3008 N   0  0  0  0  0  0  0  0  0  0  0  0
    1.4993    2.2060   -0.0794 H   0  0  0  0  0  0  0  0  0  0  0  0
    1.2152    2.0404    1.6769 H   0  0  0  0  0  0  0  0  0  0  0  0
    2.0183    0.7312    0.7854 H   0  0  0  0  0  0  0  0  0  0  0  0
   -1.8775    0.4957    0.9658 H   0  0  0  0  0  0  0  0  0  0  0  0
   -0.0737   -1.6083   -1.9579 C   0  0  0  0  0  0  0  0  0  0  0  0
   -0.0737   -1.6083   -0.4458 C   0  0  0  0  0  0  0  0  0  0  0  0
    0.8134   -1.0962   -2.3423 H   0  0  0  0  0  0  0  0  0  0  0  0
   -0.0737   -2.6327   -2.3423 H   0  0  0  0  0  0  0  0  0  0  0  0
   -0.9608   -1.0962   -2.3423 H   0  0  0  0  0  0  0  0  0  0  0  0
   -0.0737   -0.3791    0.0154 H   0  0  0  0  0  0  0  0  0  0  0  0
    0.8134   -2.1205   -0.0615 H   0  0  0  0  0  0  0  0  0  0  0  0
   -0.9608   -2.1205   -0.0615 H   0  0  0  0  0  0  0  0  0  0  0  0
  1  2  1  0
  1  4  1  0
  1  5  1  0
  1  6  1  0
  2  3  2  3
  3  7  1  0
  8  9  1  0
  8 10  1  0
  8 11  1  0
  8 12  1  0
  9 13  1  0
  9 14  1  0
  9 15  1  0
M  RAD  1   2   2
M  END
>  <reaction>  (11) 
rmg_rxn_16796

>  <mol_properties>  (11) 
{"0": {"label": "*0", "atom_type": "N3d"}, "2": {"label": "*4", "atom_type": "Cs"}, "3": {"label": "*1", "atom_type": "Cd"}, "4": {"label": "*3", "atom_type": "Cs"}, "11": {"label": "*2", "atom_type": "H0"}}

>  <type>  (11) 
unop_7

>  <geom_source>  (11) 
Heuristics

$$$$

     RDKit          3D

 15 13  0  0  0  0  0  0  0  0999 V2000
    1.1584    1.2878    1.3230 C   0  0  0  0  0  0  0  0  0  0  0  0
    0.0108    0.8731    0.4598 C   0  0  0  0  0  3  0  0  0  0  0  0
   -1.2021    1.1986    0.7529 N   0  0  0  0  0  0  0  0  0  0  0  0
    1.8522    1.9272    0.7721 H   0  0  0  0  0  0  0  0  0  0  0  0
    0.7711    1.8271    2.1912 H   0  0  0  0  0  0  0  0  0  0  0  0
    1.6803    0.3929    1.6715 H   0  0  0  0  0  0  0  0  0  0  0  0
   -1.8462    0.8250    0.0461 H   0  0  0  0  0  0  0  0  0  0  0  0
    0.0108   -1.5952   -1.9785 C   0  0  0  0  0  0  0  0  0  0  0  0
    0.0108   -1.5952   -0.4664 C   0  0  0  0  0  0  0  0  0  0  0  0
    0.8979   -1.0831   -2.3629 H   0  0  0  0  0  0  0  0  0  0  0  0
    0.0108   -2.6196   -2.3629 H   0  0  0  0  0  0  0  0  0  0  0  0
   -0.8763   -1.0831   -2.3629 H   0  0  0  0  0  0  0  0  0  0  0  0
    0.0108   -0.3660   -0.0052 H   0  0  0  0  0  0  0  0  0  0  0  0
    0.8979   -2.1074   -0.0821 H   0  0  0  0  0  0  0  0  0  0  0  0
   -0.8763   -2.1074   -0.0821 H   0  0  0  0  0  0  0  0  0  0  0  0
  1  2  1  0
  1  4  1  0
  1  5  1  0
  1  6  1  0
  2  3  2  3
  3  7  1  0
  8  9  1  0
  8 10  1  0
  8 11  1  0
  8 12  1  0
  9 13  1  0
  9 14  1  0
  9 15  1  0
M  RAD  1   2   2
M  END
>  <reaction>  (12) 
rmg_rxn_16796

>  <mol_properties>  (12) 
{"0": {"label": "*0", "atom_type": "N3d"}, "2": {"label": "*4", "atom_type": "Cs"}, "3": {"label": "*1", "atom_type": "Cd"}, "4": {"label": "*3", "atom_type": "Cs"}, "11": {"label": "*2", "atom_type": "H0"}}

>  <type>  (12) 
unop_8

>  <geom_source>  (12) 
Heuristics

$$$$

     RDKit          3D

 15 13  0  0  0  0  0  0  0  0999 V2000
   -1.2517    1.5066    0.7238 C   0  0  0  0  0  0  0  0  0  0  0  0
    0.0734    0.8592    0.4809 C   0  0  0  0  0  3  0  0  0  0  0  0
    1.0564    1.0128    1.3013 N   0  0  0  0  0  0  0  0  0  0  0  0
   -2.0388    0.7575    0.8384 H   0  0  0  0  0  0  0  0  0  0  0  0
   -1.1876    2.1145    1.6299 H   0  0  0  0  0  0  0  0  0  0  0  0
   -1.4860    2.1604   -0.1201 H   0  0  0  0  0  0  0  0  0  0  0  0
    1.8772    0.4949    0.9663 H   0  0  0  0  0  0  0  0  0  0  0  0
    0.0734   -1.6091   -1.9574 C   0  0  0  0  0  0  0  0  0  0  0  0
    0.0734   -1.6091   -0.4453 C   0  0  0  0  0  0  0  0  0  0  0  0
    0.9605   -1.0970   -2.3417 H   0  0  0  0  0  0  0  0  0  0  0  0
    0.0734   -2.6335   -2.3417 H   0  0  0  0  0  0  0  0  0  0  0  0
   -0.8137   -1.0970   -2.3417 H   0  0  0  0  0  0  0  0  0  0  0  0
    0.0734   -0.3799    0.0159 H   0  0  0  0  0  0  0  0  0  0  0  0
    0.9605   -2.1213   -0.0609 H   0  0  0  0  0  0  0  0  0  0  0  0
   -0.8137   -2.1213   -0.0609 H   0  0  0  0  0  0  0  0  0  0  0  0
  1  2  1  0
  1  4  1  0
  1  5  1  0
  1  6  1  0
  2  3  2  3
  3  7  1  0
  8  9  1  0
  8 10  1  0
  8 11  1  0
  8 12  1  0
  9 13  1  0
  9 14  1  0
  9 15  1  0
M  RAD  1   2   2
M  END
>  <reaction>  (13) 
rmg_rxn_16796

>  <mol_properties>  (13) 
{"0": {"label": "*0", "atom_type": "N3d"}, "2": {"label": "*4", "atom_type": "Cs"}, "3": {"label": "*1", "atom_type": "Cd"}, "4": {"label": "*3", "atom_type": "Cs"}, "11": {"label": "*2", "atom_type": "H0"}}

>  <type>  (13) 
unop_9

>  <geom_source>  (13) 
Heuristics

$$$$

     RDKit          3D

 15 13  0  0  0  0  0  0  0  0999 V2000
   -1.9981   -0.9383   -0.0060 C   0  0  0  0  0  0  0  0  0  0  0  0
   -0.9610    0.1167    0.0025 C   0  0  0  0  0  3  0  0  0  0  0  0
   -1.2046    1.3359    0.0031 N   0  0  0  0  0  0  0  0  0  0  0  0
   -1.8717   -1.5703    0.8720 H   0  0  0  0  0  0  0  0  0  0  0  0
   -3.0028   -0.5151   -0.0099 H   0  0  0  0  0  0  0  0  0  0  0  0
   -1.8626   -1.5647   -0.8866 H   0  0  0  0  0  0  0  0  0  0  0  0
   -0.4260    1.9867    0.0089 H   0  0  0  0  0  0  0  0  0  0  0  0
    2.4621    0.3481   -0.0083 C   0  0  0  0  0  0  0  0  0  0  0  0
    1.5241   -0.8339    0.0093 C   0  0  0  0  0  0  0  0  0  0  0  0
    2.3082    0.9755    0.8686 H   0  0  0  0  0  0  0  0  0  0  0  0
    3.5056    0.0254   -0.0075 H   0  0  0  0  0  0  0  0  0  0  0  0
    2.3026    0.9535   -0.8996 H   0  0  0  0  0  0  0  0  0  0  0  0
    0.3047   -0.3885    0.0073 H   0  0  0  0  0  0  0  0  0  0  0  0
    1.6241   -1.4327    0.9092 H   0  0  0  0  0  0  0  0  0  0  0  0
    1.6191   -1.4553   -0.8757 H   0  0  0  0  0  0  0  0  0  0  0  0
  1  2  1  0
  1  4  1  0
  1  5  1  0
  1  6  1  0
  2  3  2  3
  3  7  1  0
  8  9  1  0
  8 10  1  0
  8 11  1  0
  8 12  1  0
  9 13  1  0
  9 14  1  0
  9 15  1  0
M  RAD  1   2   2
M  END
>  <reaction>  (14) 
rmg_rxn_16796

>  <mol_properties>  (14) 
{"0": {"label": "*0", "atom_type": "N3d"}, "2": {"label": "*4", "atom_type": "Cs"}, "3": {"label": "*1", "atom_type": "Cd"}, "4": {"label": "*3", "atom_type": "Cs"}, "11": {"label": "*2", "atom_type": "H0"}}

>  <type>  (14) 
unop_10

>  <geom_source>  (14) 
Heuristics

$$$$

     RDKit          3D

 15 13  0  0  0  0  0  0  0  0999 V2000
    0.5760    1.8184   -0.2157 C   0  0  0  0  0  0  0  0  0  0  0  0
   -0.0866    0.7678    0.6158 C   0  0  0  0  0  3  0  0  0  0  0  0
   -0.3383    0.9604    1.8658 N   0  0  0  0  0  0  0  0  0  0  0  0
   -0.0748    2.1402   -1.0322 H   0  0  0  0  0  0  0  0  0  0  0  0
    0.8175    2.6733    0.4211 H   0  0  0  0  0  0  0  0  0  0  0  0
    1.5052    1.4127   -0.6238 H   0  0  0  0  0  0  0  0  0  0  0  0
   -0.7929    0.1305    2.2641 H   0  0  0  0  0  0  0  0  0  0  0  0
   -0.0866   -1.7005   -1.8225 C   0  0  0  0  0  0  0  0  0  0  0  0
   -0.0866   -1.7005   -0.3104 C   0  0  0  0  0  0  0  0  0  0  0  0
    0.8005   -1.1883   -2.2068 H   0  0  0  0  0  0  0  0  0  0  0  0
   -0.0866   -2.7249   -2.2068 H   0  0  0  0  0  0  0  0  0  0  0  0
   -0.9737   -1.1883   -2.2068 H   0  0  0  0  0  0  0  0  0  0  0  0
   -0.0866   -0.4713    0.1508 H   0  0  0  0  0  0  0  0  0  0  0  0
    0.8005   -2.2127    0.0740 H   0  0  0  0  0  0  0  0  0  0  0  0
   -0.9737   -2.2127    0.0740 H   0  0  0  0  0  0  0  0  0  0  0  0
  1  2  1  0
  1  4  1  0
  1  5  1  0
  1  6  1  0
  2  3  2  3
  3  7  1  0
  8  9  1  0
  8 10  1  0
  8 11  1  0
  8 12  1  0
  9 13  1  0
  9 14  1  0
  9 15  1  0
M  RAD  1   2   2
M  END
>  <reaction>  (15) 
rmg_rxn_16796

>  <mol_properties>  (15) 
{"0": {"label": "*0", "atom_type": "N3d"}, "2": {"label": "*4", "atom_type": "Cs"}, "3": {"label": "*1", "atom_type": "Cd"}, "4": {"label": "*3", "atom_type": "Cs"}, "11": {"label": "*2", "atom_type": "H0"}}

>  <type>  (15) 
unop_11

>  <geom_source>  (15) 
Heuristics

$$$$

     RDKit          3D

 15 13  0  0  0  0  0  0  0  0999 V2000
   -1.0329    1.6958    0.1683 C   0  0  0  0  0  0  0  0  0  0  0  0
    0.1147    0.8156    0.5457 C   0  0  0  0  0  3  0  0  0  0  0  0
    0.7169    0.9460    1.6786 N   0  0  0  0  0  0  0  0  0  0  0  0
   -1.9430    1.1102    0.0178 H   0  0  0  0  0  0  0  0  0  0  0  0
   -1.1937    2.4279    0.9638 H   0  0  0  0  0  0  0  0  0  0  0  0
   -0.7820    2.2289   -0.7522 H   0  0  0  0  0  0  0  0  0  0  0  0
    1.4736    0.2563    1.7550 H   0  0  0  0  0  0  0  0  0  0  0  0
    0.1147   -1.6527   -1.8926 C   0  0  0  0  0  0  0  0  0  0  0  0
    0.1147   -1.6527   -0.3805 C   0  0  0  0  0  0  0  0  0  0  0  0
    1.0018   -1.1406   -2.2770 H   0  0  0  0  0  0  0  0  0  0  0  0
    0.1147   -2.6771   -2.2770 H   0  0  0  0  0  0  0  0  0  0  0  0
   -0.7725   -1.1406   -2.2770 H   0  0  0  0  0  0  0  0  0  0  0  0
    0.1147   -0.4235    0.0807 H   0  0  0  0  0  0  0  0  0  0  0  0
    1.0018   -2.1649    0.0038 H   0  0  0  0  0  0  0  0  0  0  0  0
   -0.7725   -2.1649    0.0038 H   0  0  0  0  0  0  0  0  0  0  0  0
  1  2  1  0
  1  4  1  0
  1  5  1  0
  1  6  1  0
  2  3  2  3
  3  7  1  0
  8  9  1  0
  8 10  1  0
  8 11  1  0
  8 12  1  0
  9 13  1  0
  9 14  1  0
  9 15  1  0
M  RAD  1   2   2
M  END
>  <reaction>  (16) 
rmg_rxn_16796

>  <mol_properties>  (16) 
{"0": {"label": "*0", "atom_type": "N3d"}, "2": {"label": "*4", "atom_type": "Cs"}, "3": {"label": "*1", "atom_type": "Cd"}, "4": {"label": "*3", "atom_type": "Cs"}, "11": {"label": "*2", "atom_type": "H0"}}

>  <type>  (16) 
unop_12

>  <geom_source>  (16) 
Heuristics

$$$$

     RDKit          3D

 15 13  0  0  0  0  0  0  0  0999 V2000
    0.7369    1.0793    1.8193 C   0  0  0  0  0  0  0  0  0  0  0  0
    0.0743    0.8350    0.5020 C   0  0  0  0  0  3  0  0  0  0  0  0
   -0.9552    1.5174    0.1312 N   0  0  0  0  0  0  0  0  0  0  0  0
    1.7719    1.4021    1.6836 H   0  0  0  0  0  0  0  0  0  0  0  0
    0.1790    1.8491    2.3585 H   0  0  0  0  0  0  0  0  0  0  0  0
    0.7130    0.1561    2.4038 H   0  0  0  0  0  0  0  0  0  0  0  0
   -1.2664    1.2069   -0.7966 H   0  0  0  0  0  0  0  0  0  0  0  0
    0.0743   -1.6333   -1.9363 C   0  0  0  0  0  0  0  0  0  0  0  0
    0.0743   -1.6333   -0.4242 C   0  0  0  0  0  0  0  0  0  0  0  0
    0.9614   -1.1212   -2.3207 H   0  0  0  0  0  0  0  0  0  0  0  0
    0.0743   -2.6577   -2.3207 H   0  0  0  0  0  0  0  0  0  0  0  0
   -0.8128   -1.1211   -2.3207 H   0  0  0  0  0  0  0  0  0  0  0  0
    0.0743   -0.4041    0.0370 H   0  0  0  0  0  0  0  0  0  0  0  0
    0.9614   -2.1455   -0.0399 H   0  0  0  0  0  0  0  0  0  0  0  0
   -0.8128   -2.1455   -0.0399 H   0  0  0  0  0  0  0  0  0  0  0  0
  1  2  1  0
  1  4  1  0
  1  5  1  0
  1  6  1  0
  2  3  2  3
  3  7  1  0
  8  9  1  0
  8 10  1  0
  8 11  1  0
  8 12  1  0
  9 13  1  0
  9 14  1  0
  9 15  1  0
M  RAD  1   2   2
M  END
>  <reaction>  (17) 
rmg_rxn_16796

>  <mol_properties>  (17) 
{"0": {"label": "*0", "atom_type": "N3d"}, "2": {"label": "*4", "atom_type": "Cs"}, "3": {"label": "*1", "atom_type": "Cd"}, "4": {"label": "*3", "atom_type": "Cs"}, "11": {"label": "*2", "atom_type": "H0"}}

>  <type>  (17) 
unop_13

>  <geom_source>  (17) 
Heuristics

$$$$

     RDKit          3D

 15 13  0  0  0  0  0  0  0  0999 V2000
   -0.0005    1.8589   -0.3509 C   0  0  0  0  0  0  0  0  0  0  0  0
   -0.0005    0.7459    0.6468 C   0  0  0  0  0  3  0  0  0  0  0  0
   -0.0005    0.9807    1.9149 N   0  0  0  0  0  0  0  0  0  0  0  0
   -0.8988    1.8284   -0.9721 H   0  0  0  0  0  0  0  0  0  0  0  0
    0.0460    2.8119    0.1823 H   0  0  0  0  0  0  0  0  0  0  0  0
    0.8869    1.7678   -0.9824 H   0  0  0  0  0  0  0  0  0  0  0  0
   -0.0005    0.0958    2.4355 H   0  0  0  0  0  0  0  0  0  0  0  0
   -0.0005   -1.7224   -1.7915 C   0  0  0  0  0  0  0  0  0  0  0  0
   -0.0005   -1.7224   -0.2794 C   0  0  0  0  0  0  0  0  0  0  0  0
    0.8866   -1.2102   -2.1758 H   0  0  0  0  0  0  0  0  0  0  0  0
   -0.0005   -2.7467   -2.1758 H   0  0  0  0  0  0  0  0  0  0  0  0
   -0.8876   -1.2102   -2.1758 H   0  0  0  0  0  0  0  0  0  0  0  0
   -0.0005   -0.4932    0.1819 H   0  0  0  0  0  0  0  0  0  0  0  0
    0.8866   -2.2345    0.1050 H   0  0  0  0  0  0  0  0  0  0  0  0
   -0.8876   -2.2345    0.1050 H   0  0  0  0  0  0  0  0  0  0  0  0
  1  2  1  0
  1  4  1  0
  1  5  1  0
  1  6  1  0
  2  3  2  3
  3  7  1  0
  8  9  1  0
  8 10  1  0
  8 11  1  0
  8 12  1  0
  9 13  1  0
  9 14  1  0
  9 15  1  0
M  RAD  1   2   2
M  END
>  <reaction>  (18) 
rmg_rxn_16796

>  <mol_properties>  (18) 
{"0": {"label": "*0", "atom_type": "N3d"}, "2": {"label": "*4", "atom_type": "Cs"}, "3": {"label": "*1", "atom_type": "Cd"}, "4": {"label": "*3", "atom_type": "Cs"}, "11": {"label": "*2", "atom_type": "H0"}}

>  <type>  (18) 
unop_14

>  <geom_source>  (18) 
Heuristics

$$$$

     RDKit          3D

 15 13  0  0  0  0  0  0  0  0999 V2000
   -1.6902    1.7759    0.1036 N   0  0  0  0  0  0  0  0  0  0  0  0
   -2.2758   -0.5433   -0.1722 C   0  0  0  0  0  0  0  0  0  0  0  0
    2.3439   -0.5419    0.4732 C   0  0  0  0  0  0  0  0  0  0  0  0
   -1.2941    0.5575    0.0572 C   0  0  0  0  0  0  0  0  0  0  0  0
    1.2144    0.0628   -0.3398 C   0  0  0  0  0  3  0  0  0  0  0  0
   -3.0328   -0.5483    0.6399 H   0  0  0  0  0  0  0  0  0  0  0  0
   -2.7825   -0.3987   -1.1495 H   0  0  0  0  0  0  0  0  0  0  0  0
   -1.7455   -1.5180   -0.1795 H   0  0  0  0  0  0  0  0  0  0  0  0
    3.2288   -0.7116   -0.1758 H   0  0  0  0  0  0  0  0  0  0  0  0
    2.6199    0.1483    1.2974 H   0  0  0  0  0  0  0  0  0  0  0  0
    2.0145   -1.5097    0.9053 H   0  0  0  0  0  0  0  0  0  0  0  0
   -0.0462    0.2806    0.2085 H   0  0  0  0  0  0  0  0  0  0  0  0
    1.5334    1.0362   -0.7685 H   0  0  0  0  0  0  0  0  0  0  0  0
    0.9263   -0.6261   -1.1617 H   0  0  0  0  0  0  0  0  0  0  0  0
   -1.0140    2.5362    0.2618 H   0  0  0  0  0  0  0  0  0  0  0  0
  1  4  2  3
  1 15  1  0
  2  4  1  0
  2  6  1  0
  2  7  1  0
  2  8  1  0
  3  5  1  0
  3  9  1  0
  3 10  1  0
  3 11  1  0
  4 12  1  0
  5 13  1  0
  5 14  1  0
M  RAD  1   5   2
M  END
>  <reaction>  (19) 
rmg_rxn_16796

>  <mol_properties>  (19) 
{"0": {"label": "*0", "atom_type": "N3d"}, "2": {"label": "*4", "atom_type": "Cs"}, "3": {"label": "*1", "atom_type": "Cd"}, "4": {"label": "*3", "atom_type": "Cs"}, "11": {"label": "*2", "atom_type": "H0"}}

>  <type>  (19) 
unop_15

>  <geom_source>  (19) 
AutoTST

$$$$

     RDKit          3D

 15 13  0  0  0  0  0  0  0  0999 V2000
   -0.5769    1.8180   -0.2155 C   0  0  0  0  0  0  0  0  0  0  0  0
    0.0857    0.7674    0.6160 C   0  0  0  0  0  3  0  0  0  0  0  0
    0.3375    0.9600    1.8661 N   0  0  0  0  0  0  0  0  0  0  0  0
   -1.5348    1.4641   -0.6039 H   0  0  0  0  0  0  0  0  0  0  0  0
   -0.7351    2.7079    0.3992 H   0  0  0  0  0  0  0  0  0  0  0  0
    0.0831    2.0798   -1.0464 H   0  0  0  0  0  0  0  0  0  0  0  0
    0.7920    0.1301    2.2643 H   0  0  0  0  0  0  0  0  0  0  0  0
    0.0857   -1.7009   -1.8222 C   0  0  0  0  0  0  0  0  0  0  0  0
    0.0857   -1.7009   -0.3102 C   0  0  0  0  0  0  0  0  0  0  0  0
    0.9728   -1.1887   -2.2066 H   0  0  0  0  0  0  0  0  0  0  0  0
    0.0857   -2.7252   -2.2066 H   0  0  0  0  0  0  0  0  0  0  0  0
   -0.8014   -1.1887   -2.2066 H   0  0  0  0  0  0  0  0  0  0  0  0
    0.0857   -0.4717    0.1511 H   0  0  0  0  0  0  0  0  0  0  0  0
    0.9728   -2.2131    0.0742 H   0  0  0  0  0  0  0  0  0  0  0  0
   -0.8014   -2.2131    0.0742 H   0  0  0  0  0  0  0  0  0  0  0  0
  1  2  1  0
  1  4  1  0
  1  5  1  0
  1  6  1  0
  2  3  2  3
  3  7  1  0
  8  9  1  0
  8 10  1  0
  8 11  1  0
  8 12  1  0
  9 13  1  0
  9 14  1  0
  9 15  1  0
M  RAD  1   2   2
M  END
>  <reaction>  (20) 
rmg_rxn_16796

>  <mol_properties>  (20) 
{"0": {"label": "*0", "atom_type": "N3d"}, "2": {"label": "*4", "atom_type": "Cs"}, "3": {"label": "*1", "atom_type": "Cd"}, "4": {"label": "*3", "atom_type": "Cs"}, "11": {"label": "*2", "atom_type": "H0"}}

>  <type>  (20) 
unop_16

>  <geom_source>  (20) 
gaussian_log

$$$$
