
     RDKit          3D

 10  9  0  0  0  0  0  0  0  0999 V2000
    2.0404   -0.0573    0.0122 C   0  0  0  0  0  0  0  0  0  0  0  0
    0.5946   -0.0168    0.1900 C   0  0  0  0  0  0  0  0  0  0  0  0
   -0.5945    0.0167    0.3361 C   0  0  0  0  0  0  0  0  0  0  0  0
   -2.0404    0.0573    0.5136 C   0  0  0  0  0  0  0  0  0  0  0  0
    2.4743    0.9378    0.1231 H   0  0  0  0  0  0  0  0  0  0  0  0
    2.3003   -0.4299   -0.9801 H   0  0  0  0  0  0  0  0  0  0  0  0
    2.5053   -0.7123    0.7509 H   0  0  0  0  0  0  0  0  0  0  0  0
   -2.3752    1.0686    0.7507 H   0  0  0  0  0  0  0  0  0  0  0  0
   -2.3514   -0.6004    1.3270 H   0  0  0  0  0  0  0  0  0  0  0  0
   -2.5533   -0.2636   -0.3947 H   0  0  0  0  0  0  0  0  0  0  0  0
  1  2  1  0
  1  5  1  0
  1  6  1  0
  1  7  1  0
  2  3  3  0
  3  4  1  0
  4  8  1  0
  4  9  1  0
  4 10  1  0
M  END
>  <reaction>  (1) 
rmg_rxn_31

>  <mol_properties>  (1) 
{"3": {"label": "donator", "atom_type": "Cs"}, "9": {"label": "d_hydrogen", "atom_type": "H0"}}

>  <type>  (1) 
r1h

$$$$

     RDKit          3D

 13 12  0  0  0  0  0  0  0  0999 V2000
    2.0654   -0.2739   -0.0844 C   0  0  0  0  0  3  0  0  0  0  0  0
    0.6326   -0.4110   -0.4406 C   0  0  0  0  0  0  0  0  0  0  0  0
   -0.3055    0.4151    0.4359 C   0  0  0  0  0  0  0  0  0  0  0  0
   -1.7714    0.2357    0.0671 C   0  0  0  0  0  0  0  0  0  0  0  0
    2.3610    0.0676    0.8995 H   0  0  0  0  0  0  0  0  0  0  0  0
    2.8408   -0.6127   -0.7582 H   0  0  0  0  0  0  0  0  0  0  0  0
    0.3313   -1.4695   -0.3768 H   0  0  0  0  0  0  0  0  0  0  0  0
    0.4826   -0.1432   -1.4940 H   0  0  0  0  0  0  0  0  0  0  0  0
   -0.1518    0.1351    1.4826 H   0  0  0  0  0  0  0  0  0  0  0  0
   -0.0303    1.4705    0.3565 H   0  0  0  0  0  0  0  0  0  0  0  0
   -2.0768   -0.8084    0.1692 H   0  0  0  0  0  0  0  0  0  0  0  0
   -1.9546    0.5339   -0.9679 H   0  0  0  0  0  0  0  0  0  0  0  0
   -2.4194    0.8370    0.7066 H   0  0  0  0  0  0  0  0  0  0  0  0
  1  2  1  0
  1  5  1  0
  1  6  1  0
  2  3  1  0
  2  7  1  0
  2  8  1  0
  3  4  1  0
  3  9  1  0
  3 10  1  0
  4 11  1  0
  4 12  1  0
  4 13  1  0
M  RAD  1   1   2
M  END
>  <reaction>  (2) 
rmg_rxn_31

>  <mol_properties>  (2) 
{"0": {"label": "acceptor", "atom_type": "Cs"}}

>  <type>  (2) 
r2

$$$$

     RDKit          3D

 14 13  0  0  0  0  0  0  0  0999 V2000
    1.8106   -0.5953    0.5577 C   0  0  0  0  0  0  0  0  0  0  0  0
    0.5197    0.2064    0.6554 C   0  0  0  0  0  0  0  0  0  0  0  0
   -0.5206   -0.2080   -0.3788 C   0  0  0  0  0  0  0  0  0  0  0  0
   -1.8114    0.5937   -0.2812 C   0  0  0  0  0  0  0  0  0  0  0  0
    2.2725   -0.4752   -0.4251 H   0  0  0  0  0  0  0  0  0  0  0  0
    1.6214   -1.6612    0.7052 H   0  0  0  0  0  0  0  0  0  0  0  0
    2.5364   -0.2784    1.3084 H   0  0  0  0  0  0  0  0  0  0  0  0
    0.0930    0.0950    1.6574 H   0  0  0  0  0  0  0  0  0  0  0  0
    0.7393    1.2723    0.5354 H   0  0  0  0  0  0  0  0  0  0  0  0
   -0.7402   -1.2739   -0.2588 H   0  0  0  0  0  0  0  0  0  0  0  0
   -0.0938   -0.0965   -1.3808 H   0  0  0  0  0  0  0  0  0  0  0  0
   -1.6222    1.6596   -0.4287 H   0  0  0  0  0  0  0  0  0  0  0  0
   -2.2734    0.4736    0.7017 H   0  0  0  0  0  0  0  0  0  0  0  0
   -2.5373    0.2768   -1.0318 H   0  0  0  0  0  0  0  0  0  0  0  0
  1  2  1  0
  1  5  1  0
  1  6  1  0
  1  7  1  0
  2  3  1  0
  2  8  1  0
  2  9  1  0
  3  4  1  0
  3 10  1  0
  3 11  1  0
  4 12  1  0
  4 13  1  0
  4 14  1  0
M  END
>  <reaction>  (3) 
rmg_rxn_31

>  <mol_properties>  (3) 
{"0": {"label": "a_hydrogen", "atom_type": "H0"}, "1": {"label": "acceptor", "atom_type": "Cs"}}

>  <type>  (3) 
r2h

$$$$

     RDKit          3D

 23 21  0  0  0  0  0  0  0  0999 V2000
    0.6963    1.7155   -2.7611 C   0  0  0  0  0  0  0  0  0  0  0  0
   -0.4297    1.2000   -1.9957 C   0  0  0  0  0  0  0  0  0  0  0  0
   -1.3639    0.7765   -1.3662 C   0  0  0  0  0  0  0  0  0  0  0  0
   -2.4178    0.2419   -0.5644 C   0  0  0  0  0  0  0  0  0  0  0  0
    0.6337    2.8001   -2.8660 H   0  0  0  0  0  0  0  0  0  0  0  0
    0.7205    1.2802   -3.7617 H   0  0  0  0  0  0  0  0  0  0  0  0
    1.6423    1.4795   -2.2687 H   0  0  0  0  0  0  0  0  0  0  0  0
   -3.0042   -0.5339   -1.0535 H   0  0  0  0  0  0  0  0  0  0  0  0
   -3.0540    0.9936   -0.1007 H   0  0  0  0  0  0  0  0  0  0  0  0
   -1.8780   -0.3729    0.4488 H   0  0  0  0  0  0  0  0  0  0  0  0
   -1.2034   -1.0017    1.4990 C   0  0  0  0  0  3  0  0  0  0  0  0
    0.2483   -0.7034    1.2573 C   0  0  0  0  0  0  0  0  0  0  0  0
    1.1775   -1.3189    2.3072 C   0  0  0  0  0  0  0  0  0  0  0  0
    2.6446   -1.0048    2.0443 C   0  0  0  0  0  0  0  0  0  0  0  0
   -1.6387   -0.5411    2.3845 H   0  0  0  0  0  0  0  0  0  0  0  0
   -1.4946   -2.0452    1.3893 H   0  0  0  0  0  0  0  0  0  0  0  0
    0.4011    0.3803    1.2358 H   0  0  0  0  0  0  0  0  0  0  0  0
    0.5367   -1.0678    0.2663 H   0  0  0  0  0  0  0  0  0  0  0  0
    0.8930   -0.9526    3.2981 H   0  0  0  0  0  0  0  0  0  0  0  0
    1.0295   -2.4028    2.3265 H   0  0  0  0  0  0  0  0  0  0  0  0
    2.8201    0.0735    2.0485 H   0  0  0  0  0  0  0  0  0  0  0  0
    2.9574   -1.3870    1.0698 H   0  0  0  0  0  0  0  0  0  0  0  0
    3.2903   -1.4517    2.8020 H   0  0  0  0  0  0  0  0  0  0  0  0
  1  2  1  0
  1  5  1  0
  1  6  1  0
  1  7  1  0
  2  3  3  0
  3  4  1  0
  4  8  1  0
  4  9  1  0
  4 10  1  0
 11 12  1  0
 11 15  1  0
 11 16  1  0
 12 13  1  0
 12 17  1  0
 12 18  1  0
 13 14  1  0
 13 19  1  0
 13 20  1  0
 14 21  1  0
 14 22  1  0
 14 23  1  0
M  RAD  1  11   2
M  END
>  <reaction>  (4) 
rmg_rxn_31

>  <mol_properties>  (4) 
{"2": {"label": "*0", "atom_type": "Ct"}, "3": {"label": "*1", "atom_type": "Cs"}, "9": {"label": "*2", "atom_type": "H0"}, "10": {"label": "*3", "atom_type": "Cs"}, "11": {"label": "*4", "atom_type": "Cs"}}

>  <type>  (4) 
ts

$$$$

     RDKit          3D

 23 21  0  0  0  0  0  0  0  0999 V2000
   -1.3610    1.0443   -4.3749 C   0  0  0  0  0  0  0  0  0  0  0  0
   -1.3610    1.0443   -2.9177 C   0  0  0  0  0  3  0  0  0  0  0  0
   -1.3610    1.0443   -1.7192 C   0  0  0  0  0  0  0  0  0  0  0  0
   -1.3610    1.0443   -0.2619 C   0  0  0  0  0  0  0  0  0  0  0  0
   -2.3761    0.9498   -4.7643 H   0  0  0  0  0  0  0  0  0  0  0  0
   -0.7716    0.2124   -4.7643 H   0  0  0  0  0  0  0  0  0  0  0  0
   -0.9353    1.9706   -4.7643 H   0  0  0  0  0  0  0  0  0  0  0  0
   -2.3786    0.9815    0.1274 H   0  0  0  0  0  0  0  0  0  0  0  0
   -0.9065    1.9569    0.1274 H   0  0  0  0  0  0  0  0  0  0  0  0
   -0.6852    0.0244    0.2052 H   0  0  0  0  0  0  0  0  0  0  0  0
   -0.0096   -0.9954    0.6724 C   0  0  0  0  0  0  0  0  0  0  0  0
    1.1618   -0.5423    1.5333 C   0  0  0  0  0  0  0  0  0  0  0  0
    1.3628   -1.4078    2.7719 C   0  0  0  0  0  0  0  0  0  0  0  0
    2.5341   -0.9547    3.6328 C   0  0  0  0  0  0  0  0  0  0  0  0
   -0.9445   -0.9663    1.2369 H   0  0  0  0  0  0  0  0  0  0  0  0
    0.1340   -2.0212    0.3247 H   0  0  0  0  0  0  0  0  0  0  0  0
    1.0097    0.4967    1.8431 H   0  0  0  0  0  0  0  0  0  0  0  0
    2.0803   -0.5505    0.9376 H   0  0  0  0  0  0  0  0  0  0  0  0
    0.4443   -1.3996    3.3676 H   0  0  0  0  0  0  0  0  0  0  0  0
    1.5149   -2.4468    2.4621 H   0  0  0  0  0  0  0  0  0  0  0  0
    2.3906    0.0711    3.9805 H   0  0  0  0  0  0  0  0  0  0  0  0
    3.4691   -0.9839    3.0682 H   0  0  0  0  0  0  0  0  0  0  0  0
    2.6550   -1.5908    4.5112 H   0  0  0  0  0  0  0  0  0  0  0  0
  1  2  1  0
  1  5  1  0
  1  6  1  0
  1  7  1  0
  2  3  2  0
  3  4  2  0
  4  8  1  0
  4  9  1  0
 10 11  1  0
 11 12  1  0
 11 15  1  0
 11 16  1  0
 12 13  1  0
 12 17  1  0
 12 18  1  0
 13 14  1  0
 13 19  1  0
 13 20  1  0
 14 21  1  0
 14 22  1  0
 14 23  1  0
M  RAD  1   2   2
M  END
>  <reaction>  (5) 
rmg_rxn_31

>  <mol_properties>  (5) 
{"2": {"label": "*0", "atom_type": "Ct"}, "3": {"label": "*1", "atom_type": "Cs"}, "9": {"label": "*2", "atom_type": "H0"}, "10": {"label": "*3", "atom_type": "Cs"}, "11": {"label": "*4", "atom_type": "Cs"}}

>  <type>  (5) 
unop_1

>  <geom_source>  (5) 
Heuristics

$$$$

     RDKit          3D

 23 21  0  0  0  0  0  0  0  0999 V2000
   -1.5652    1.4939   -3.2781 C   0  0  0  0  0  0  0  0  0  0  0  0
   -1.5652    1.4939   -1.8208 C   0  0  0  0  0  3  0  0  0  0  0  0
   -1.5652    1.4939   -0.6223 C   0  0  0  0  0  0  0  0  0  0  0  0
   -1.5652    1.4939    0.8349 C   0  0  0  0  0  0  0  0  0  0  0  0
   -2.5804    1.3995   -3.6674 H   0  0  0  0  0  0  0  0  0  0  0  0
   -0.9759    0.6621   -3.6674 H   0  0  0  0  0  0  0  0  0  0  0  0
   -1.1395    2.4203   -3.6675 H   0  0  0  0  0  0  0  0  0  0  0  0
   -2.5828    1.4312    1.2243 H   0  0  0  0  0  0  0  0  0  0  0  0
   -1.1108    2.4066    1.2243 H   0  0  0  0  0  0  0  0  0  0  0  0
   -0.8895    0.4741    1.3021 H   0  0  0  0  0  0  0  0  0  0  0  0
   -0.2138   -0.5457    1.7692 C   0  0  0  0  0  0  0  0  0  0  0  0
    0.9066   -0.9544    0.8225 C   0  0  0  0  0  0  0  0  0  0  0  0
    1.9694   -1.8177    1.4922 C   0  0  0  0  0  0  0  0  0  0  0  0
    3.0898   -2.2264    0.5455 C   0  0  0  0  0  0  0  0  0  0  0  0
    0.1768    0.0271    2.6137 H   0  0  0  0  0  0  0  0  0  0  0  0
   -0.7240   -1.4232    2.1737 H   0  0  0  0  0  0  0  0  0  0  0  0
    1.3813   -0.0595    0.4072 H   0  0  0  0  0  0  0  0  0  0  0  0
    0.4871   -1.4992   -0.0295 H   0  0  0  0  0  0  0  0  0  0  0  0
    2.3889   -1.2730    2.3442 H   0  0  0  0  0  0  0  0  0  0  0  0
    1.4947   -2.7126    1.9075 H   0  0  0  0  0  0  0  0  0  0  0  0
    3.6000   -1.3490    0.1410 H   0  0  0  0  0  0  0  0  0  0  0  0
    2.6992   -2.7993   -0.2989 H   0  0  0  0  0  0  0  0  0  0  0  0
    3.8356   -2.8427    1.0502 H   0  0  0  0  0  0  0  0  0  0  0  0
  1  2  1  0
  1  5  1  0
  1  6  1  0
  1  7  1  0
  2  3  2  0
  3  4  2  0
  4  8  1  0
  4  9  1  0
 10 11  1  0
 11 12  1  0
 11 15  1  0
 11 16  1  0
 12 13  1  0
 12 17  1  0
 12 18  1  0
 13 14  1  0
 13 19  1  0
 13 20  1  0
 14 21  1  0
 14 22  1  0
 14 23  1  0
M  RAD  1   2   2
M  END
>  <reaction>  (6) 
rmg_rxn_31

>  <mol_properties>  (6) 
{"2": {"label": "*0", "atom_type": "Ct"}, "3": {"label": "*1", "atom_type": "Cs"}, "9": {"label": "*2", "atom_type": "H0"}, "10": {"label": "*3", "atom_type": "Cs"}, "11": {"label": "*4", "atom_type": "Cs"}}

>  <type>  (6) 
unop_2

>  <geom_source>  (6) 
Heuristics

$$$$

     RDKit          3D

 23 21  0  0  0  0  0  0  0  0999 V2000
   -1.0732    1.2101   -4.5343 C   0  0  0  0  0  0  0  0  0  0  0  0
   -1.0732    1.2101   -3.0770 C   0  0  0  0  0  3  0  0  0  0  0  0
   -1.0732    1.2101   -1.8785 C   0  0  0  0  0  0  0  0  0  0  0  0
   -1.0732    1.2101   -0.4213 C   0  0  0  0  0  0  0  0  0  0  0  0
   -2.0883    1.1156   -4.9236 H   0  0  0  0  0  0  0  0  0  0  0  0
   -0.4838    0.3782   -4.9236 H   0  0  0  0  0  0  0  0  0  0  0  0
   -0.6475    2.1365   -4.9237 H   0  0  0  0  0  0  0  0  0  0  0  0
   -2.0908    1.1474   -0.0320 H   0  0  0  0  0  0  0  0  0  0  0  0
   -0.6188    2.1228   -0.0319 H   0  0  0  0  0  0  0  0  0  0  0  0
   -0.3975    0.1902    0.0459 H   0  0  0  0  0  0  0  0  0  0  0  0
    0.2782   -0.8295    0.5130 C   0  0  0  0  0  0  0  0  0  0  0  0
    0.9152   -0.5086    1.8583 C   0  0  0  0  0  0  0  0  0  0  0  0
    1.0842   -1.7355    2.7470 C   0  0  0  0  0  0  0  0  0  0  0  0
    1.7212   -1.4146    4.0924 C   0  0  0  0  0  0  0  0  0  0  0  0
   -0.7142   -1.2674    0.6444 H   0  0  0  0  0  0  0  0  0  0  0  0
    0.8840   -1.5470   -0.0457 H   0  0  0  0  0  0  0  0  0  0  0  0
    0.3071    0.2341    2.3848 H   0  0  0  0  0  0  0  0  0  0  0  0
    1.8935   -0.0434    1.6999 H   0  0  0  0  0  0  0  0  0  0  0  0
    0.1059   -2.2007    2.9055 H   0  0  0  0  0  0  0  0  0  0  0  0
    1.6923   -2.4782    2.2205 H   0  0  0  0  0  0  0  0  0  0  0  0
    1.1155   -0.6971    4.6510 H   0  0  0  0  0  0  0  0  0  0  0  0
    2.7136   -0.9767    3.9610 H   0  0  0  0  0  0  0  0  0  0  0  0
    1.8302   -2.3094    4.7073 H   0  0  0  0  0  0  0  0  0  0  0  0
  1  2  1  0
  1  5  1  0
  1  6  1  0
  1  7  1  0
  2  3  2  0
  3  4  2  0
  4  8  1  0
  4  9  1  0
 10 11  1  0
 11 12  1  0
 11 15  1  0
 11 16  1  0
 12 13  1  0
 12 17  1  0
 12 18  1  0
 13 14  1  0
 13 19  1  0
 13 20  1  0
 14 21  1  0
 14 22  1  0
 14 23  1  0
M  RAD  1   2   2
M  END
>  <reaction>  (7) 
rmg_rxn_31

>  <mol_properties>  (7) 
{"2": {"label": "*0", "atom_type": "Ct"}, "3": {"label": "*1", "atom_type": "Cs"}, "9": {"label": "*2", "atom_type": "H0"}, "10": {"label": "*3", "atom_type": "Cs"}, "11": {"label": "*4", "atom_type": "Cs"}}

>  <type>  (7) 
unop_3

>  <geom_source>  (7) 
Heuristics

$$$$

     RDKit          3D

 23 21  0  0  0  0  0  0  0  0999 V2000
   -0.4323    2.0413   -3.6237 C   0  0  0  0  0  0  0  0  0  0  0  0
   -0.4323    2.0413   -2.1665 C   0  0  0  0  0  3  0  0  0  0  0  0
   -0.4323    2.0413   -0.9680 C   0  0  0  0  0  0  0  0  0  0  0  0
   -0.4323    2.0413    0.4893 C   0  0  0  0  0  0  0  0  0  0  0  0
   -1.4475    1.9468   -4.0131 H   0  0  0  0  0  0  0  0  0  0  0  0
    0.1570    1.2094   -4.0131 H   0  0  0  0  0  0  0  0  0  0  0  0
   -0.0066    2.9676   -4.0131 H   0  0  0  0  0  0  0  0  0  0  0  0
   -1.4499    1.9785    0.8786 H   0  0  0  0  0  0  0  0  0  0  0  0
    0.0221    2.9539    0.8786 H   0  0  0  0  0  0  0  0  0  0  0  0
    0.2434    1.0214    0.9564 H   0  0  0  0  0  0  0  0  0  0  0  0
    0.9191    0.0016    1.4236 C   0  0  0  0  0  0  0  0  0  0  0  0
    0.3243   -1.3216    0.9612 C   0  0  0  0  0  0  0  0  0  0  0  0
    0.5034   -2.4443    1.9766 C   0  0  0  0  0  0  0  0  0  0  0  0
   -0.0914   -3.7676    1.5142 C   0  0  0  0  0  0  0  0  0  0  0  0
    1.9919   -0.0943    1.6069 H   0  0  0  0  0  0  0  0  0  0  0  0
    0.4540    0.3359    2.3540 H   0  0  0  0  0  0  0  0  0  0  0  0
    0.7835   -1.6194    0.0130 H   0  0  0  0  0  0  0  0  0  0  0  0
   -0.7431   -1.1924    0.7546 H   0  0  0  0  0  0  0  0  0  0  0  0
    1.5708   -2.5736    2.1831 H   0  0  0  0  0  0  0  0  0  0  0  0
    0.0442   -2.1466    2.9247 H   0  0  0  0  0  0  0  0  0  0  0  0
    0.3737   -4.1019    0.5837 H   0  0  0  0  0  0  0  0  0  0  0  0
   -1.1642   -3.6717    1.3308 H   0  0  0  0  0  0  0  0  0  0  0  0
    0.0508   -4.5524    2.2589 H   0  0  0  0  0  0  0  0  0  0  0  0
  1  2  1  0
  1  5  1  0
  1  6  1  0
  1  7  1  0
  2  3  2  0
  3  4  2  0
  4  8  1  0
  4  9  1  0
 10 11  1  0
 11 12  1  0
 11 15  1  0
 11 16  1  0
 12 13  1  0
 12 17  1  0
 12 18  1  0
 13 14  1  0
 13 19  1  0
 13 20  1  0
 14 21  1  0
 14 22  1  0
 14 23  1  0
M  RAD  1   2   2
M  END
>  <reaction>  (8) 
rmg_rxn_31

>  <mol_properties>  (8) 
{"2": {"label": "*0", "atom_type": "Ct"}, "3": {"label": "*1", "atom_type": "Cs"}, "9": {"label": "*2", "atom_type": "H0"}, "10": {"label": "*3", "atom_type": "Cs"}, "11": {"label": "*4", "atom_type": "Cs"}}

>  <type>  (8) 
unop_4

>  <geom_source>  (8) 
Heuristics

$$$$

     RDKit          3D

 23 21  0  0  0  0  0  0  0  0999 V2000
   -0.9084    1.3710   -4.5448 C   0  0  0  0  0  0  0  0  0  0  0  0
   -0.9084    1.3710   -3.0875 C   0  0  0  0  0  3  0  0  0  0  0  0
   -0.9084    1.3710   -1.8890 C   0  0  0  0  0  0  0  0  0  0  0  0
   -0.9084    1.3710   -0.4317 C   0  0  0  0  0  0  0  0  0  0  0  0
   -1.9235    1.2765   -4.9341 H   0  0  0  0  0  0  0  0  0  0  0  0
   -0.3190    0.5391   -4.9341 H   0  0  0  0  0  0  0  0  0  0  0  0
   -0.4827    2.2974   -4.9341 H   0  0  0  0  0  0  0  0  0  0  0  0
   -1.9260    1.3082   -0.0424 H   0  0  0  0  0  0  0  0  0  0  0  0
   -0.4539    2.2836   -0.0424 H   0  0  0  0  0  0  0  0  0  0  0  0
   -0.2326    0.3511    0.0354 H   0  0  0  0  0  0  0  0  0  0  0  0
    0.4430   -0.6687    0.5025 C   0  0  0  0  0  0  0  0  0  0  0  0
    0.4522   -0.6825    2.0251 C   0  0  0  0  0  0  0  0  0  0  0  0
    1.2304   -1.8569    2.6072 C   0  0  0  0  0  0  0  0  0  0  0  0
    1.2395   -1.8708    4.1298 C   0  0  0  0  0  0  0  0  0  0  0  0
   -0.0107   -1.5799    0.1056 H   0  0  0  0  0  0  0  0  0  0  0  0
    1.4591   -0.6061    0.1056 H   0  0  0  0  0  0  0  0  0  0  0  0
   -0.5765   -0.7142    2.3984 H   0  0  0  0  0  0  0  0  0  0  0  0
    0.8824    0.2525    2.3984 H   0  0  0  0  0  0  0  0  0  0  0  0
    0.8002   -2.7920    2.2339 H   0  0  0  0  0  0  0  0  0  0  0  0
    2.2591   -1.8253    2.2339 H   0  0  0  0  0  0  0  0  0  0  0  0
    0.2235   -1.9334    4.5267 H   0  0  0  0  0  0  0  0  0  0  0  0
    1.6932   -0.9596    4.5267 H   0  0  0  0  0  0  0  0  0  0  0  0
    1.8026   -2.7206    4.5190 H   0  0  0  0  0  0  0  0  0  0  0  0
  1  2  1  0
  1  5  1  0
  1  6  1  0
  1  7  1  0
  2  3  2  0
  3  4  2  0
  4  8  1  0
  4  9  1  0
 10 11  1  0
 11 12  1  0
 11 15  1  0
 11 16  1  0
 12 13  1  0
 12 17  1  0
 12 18  1  0
 13 14  1  0
 13 19  1  0
 13 20  1  0
 14 21  1  0
 14 22  1  0
 14 23  1  0
M  RAD  1   2   2
M  END
>  <reaction>  (9) 
rmg_rxn_31

>  <mol_properties>  (9) 
{"2": {"label": "*0", "atom_type": "Ct"}, "3": {"label": "*1", "atom_type": "Cs"}, "9": {"label": "*2", "atom_type": "H0"}, "10": {"label": "*3", "atom_type": "Cs"}, "11": {"label": "*4", "atom_type": "Cs"}}

>  <type>  (9) 
unop_5

>  <geom_source>  (9) 
Heuristics

$$$$

     RDKit          3D

 23 21  0  0  0  0  0  0  0  0999 V2000
   -0.3162    1.8938   -4.0374 C   0  0  0  0  0  0  0  0  0  0  0  0
   -0.3162    1.8938   -2.5802 C   0  0  0  0  0  3  0  0  0  0  0  0
   -0.3162    1.8938   -1.3817 C   0  0  0  0  0  0  0  0  0  0  0  0
   -0.3162    1.8938    0.0756 C   0  0  0  0  0  0  0  0  0  0  0  0
   -1.3313    1.7993   -4.4268 H   0  0  0  0  0  0  0  0  0  0  0  0
    0.2732    1.0619   -4.4268 H   0  0  0  0  0  0  0  0  0  0  0  0
    0.1095    2.8202   -4.4268 H   0  0  0  0  0  0  0  0  0  0  0  0
   -1.3338    1.8311    0.4649 H   0  0  0  0  0  0  0  0  0  0  0  0
    0.1382    2.8065    0.4650 H   0  0  0  0  0  0  0  0  0  0  0  0
    0.3595    0.8739    0.5427 H   0  0  0  0  0  0  0  0  0  0  0  0
    1.0352   -0.1458    1.0099 C   0  0  0  0  0  0  0  0  0  0  0  0
    0.1427   -1.3633    1.2092 C   0  0  0  0  0  0  0  0  0  0  0  0
    0.4690   -2.1419    2.4783 C   0  0  0  0  0  0  0  0  0  0  0  0
   -0.4235   -3.3594    2.6776 C   0  0  0  0  0  0  0  0  0  0  0  0
    2.0861   -0.4376    0.9437 H   0  0  0  0  0  0  0  0  0  0  0  0
    0.9385    0.5514    1.8455 H   0  0  0  0  0  0  0  0  0  0  0  0
    0.2336   -2.0307    0.3460 H   0  0  0  0  0  0  0  0  0  0  0  0
   -0.9056   -1.0490    1.2412 H   0  0  0  0  0  0  0  0  0  0  0  0
    1.5172   -2.4562    2.4463 H   0  0  0  0  0  0  0  0  0  0  0  0
    0.3781   -1.4746    3.3414 H   0  0  0  0  0  0  0  0  0  0  0  0
   -0.3268   -4.0566    1.8420 H   0  0  0  0  0  0  0  0  0  0  0  0
   -1.4744   -3.0677    2.7438 H   0  0  0  0  0  0  0  0  0  0  0  0
   -0.1685   -3.8974    3.5921 H   0  0  0  0  0  0  0  0  0  0  0  0
  1  2  1  0
  1  5  1  0
  1  6  1  0
  1  7  1  0
  2  3  2  0
  3  4  2  0
  4  8  1  0
  4  9  1  0
 10 11  1  0
 11 12  1  0
 11 15  1  0
 11 16  1  0
 12 13  1  0
 12 17  1  0
 12 18  1  0
 13 14  1  0
 13 19  1  0
 13 20  1  0
 14 21  1  0
 14 22  1  0
 14 23  1  0
M  RAD  1   2   2
M  END
>  <reaction>  (10) 
rmg_rxn_31

>  <mol_properties>  (10) 
{"2": {"label": "*0", "atom_type": "Ct"}, "3": {"label": "*1", "atom_type": "Cs"}, "9": {"label": "*2", "atom_type": "H0"}, "10": {"label": "*3", "atom_type": "Cs"}, "11": {"label": "*4", "atom_type": "Cs"}}

>  <type>  (10) 
unop_6

>  <geom_source>  (10) 
Heuristics

$$$$

     RDKit          3D

 23 21  0  0  0  0  0  0  0  0999 V2000
   -0.4311    1.6604   -4.3749 C   0  0  0  0  0  0  0  0  0  0  0  0
   -0.4311    1.6604   -2.9177 C   0  0  0  0  0  3  0  0  0  0  0  0
   -0.4311    1.6604   -1.7192 C   0  0  0  0  0  0  0  0  0  0  0  0
   -0.4311    1.6604   -0.2619 C   0  0  0  0  0  0  0  0  0  0  0  0
   -1.4462    1.5659   -4.7643 H   0  0  0  0  0  0  0  0  0  0  0  0
    0.1583    0.8285   -4.7643 H   0  0  0  0  0  0  0  0  0  0  0  0
   -0.0053    2.5868   -4.7643 H   0  0  0  0  0  0  0  0  0  0  0  0
   -1.4486    1.5976    0.1274 H   0  0  0  0  0  0  0  0  0  0  0  0
    0.0234    2.5730    0.1274 H   0  0  0  0  0  0  0  0  0  0  0  0
    0.2447    0.6405    0.2052 H   0  0  0  0  0  0  0  0  0  0  0  0
    0.9204   -0.3793    0.6724 C   0  0  0  0  0  0  0  0  0  0  0  0
    0.0465   -1.2813    1.5333 C   0  0  0  0  0  0  0  0  0  0  0  0
    0.7651   -1.8038    2.7719 C   0  0  0  0  0  0  0  0  0  0  0  0
   -0.1088   -2.7058    3.6328 C   0  0  0  0  0  0  0  0  0  0  0  0
    1.8091   -0.9114    0.3247 H   0  0  0  0  0  0  0  0  0  0  0  0
    1.2581    0.4931    1.2369 H   0  0  0  0  0  0  0  0  0  0  0  0
   -0.3041   -2.1303    0.9376 H   0  0  0  0  0  0  0  0  0  0  0  0
   -0.8510   -0.7362    1.8431 H   0  0  0  0  0  0  0  0  0  0  0  0
    1.6626   -2.3489    2.4621 H   0  0  0  0  0  0  0  0  0  0  0  0
    1.1157   -0.9548    3.3676 H   0  0  0  0  0  0  0  0  0  0  0  0
   -0.4464   -3.5782    3.0682 H   0  0  0  0  0  0  0  0  0  0  0  0
   -0.9974   -2.1737    3.9805 H   0  0  0  0  0  0  0  0  0  0  0  0
    0.4298   -3.0651    4.5112 H   0  0  0  0  0  0  0  0  0  0  0  0
  1  2  1  0
  1  5  1  0
  1  6  1  0
  1  7  1  0
  2  3  2  0
  3  4  2  0
  4  8  1  0
  4  9  1  0
 10 11  1  0
 11 12  1  0
 11 15  1  0
 11 16  1  0
 12 13  1  0
 12 17  1  0
 12 18  1  0
 13 14  1  0
 13 19  1  0
 13 20  1  0
 14 21  1  0
 14 22  1  0
 14 23  1  0
M  RAD  1   2   2
M  END
>  <reaction>  (11) 
rmg_rxn_31

>  <mol_properties>  (11) 
{"2": {"label": "*0", "atom_type": "Ct"}, "3": {"label": "*1", "atom_type": "Cs"}, "9": {"label": "*2", "atom_type": "H0"}, "10": {"label": "*3", "atom_type": "Cs"}, "11": {"label": "*4", "atom_type": "Cs"}}

>  <type>  (11) 
unop_7

>  <geom_source>  (11) 
Heuristics

$$$$

     RDKit          3D

 23 21  0  0  0  0  0  0  0  0999 V2000
   -1.6207    1.0295   -4.0374 C   0  0  0  0  0  0  0  0  0  0  0  0
   -1.6207    1.0295   -2.5802 C   0  0  0  0  0  3  0  0  0  0  0  0
   -1.6207    1.0295   -1.3817 C   0  0  0  0  0  0  0  0  0  0  0  0
   -1.6207    1.0295    0.0756 C   0  0  0  0  0  0  0  0  0  0  0  0
   -2.6358    0.9350   -4.4268 H   0  0  0  0  0  0  0  0  0  0  0  0
   -1.0313    0.1976   -4.4268 H   0  0  0  0  0  0  0  0  0  0  0  0
   -1.1950    1.9559   -4.4268 H   0  0  0  0  0  0  0  0  0  0  0  0
   -2.6383    0.9667    0.4649 H   0  0  0  0  0  0  0  0  0  0  0  0
   -1.1663    1.9421    0.4650 H   0  0  0  0  0  0  0  0  0  0  0  0
   -0.9450    0.0096    0.5427 H   0  0  0  0  0  0  0  0  0  0  0  0
   -0.2693   -1.0102    1.0099 C   0  0  0  0  0  0  0  0  0  0  0  0
    1.1998   -0.6629    1.2092 C   0  0  0  0  0  0  0  0  0  0  0  0
    1.7896   -1.2669    2.4783 C   0  0  0  0  0  0  0  0  0  0  0  0
    3.2587   -0.9196    2.6776 C   0  0  0  0  0  0  0  0  0  0  0  0
   -0.8736   -0.6492    1.8455 H   0  0  0  0  0  0  0  0  0  0  0  0
   -0.4103   -2.0916    0.9437 H   0  0  0  0  0  0  0  0  0  0  0  0
    1.3190    0.4250    1.2412 H   0  0  0  0  0  0  0  0  0  0  0  0
    1.7789   -1.0068    0.3460 H   0  0  0  0  0  0  0  0  0  0  0  0
    1.2105   -0.9230    3.3414 H   0  0  0  0  0  0  0  0  0  0  0  0
    1.6704   -2.3548    2.4462 H   0  0  0  0  0  0  0  0  0  0  0  0
    3.3997    0.1618    2.7438 H   0  0  0  0  0  0  0  0  0  0  0  0
    3.8630   -1.2806    1.8420 H   0  0  0  0  0  0  0  0  0  0  0  0
    3.6547   -1.3642    3.5921 H   0  0  0  0  0  0  0  0  0  0  0  0
  1  2  1  0
  1  5  1  0
  1  6  1  0
  1  7  1  0
  2  3  2  0
  3  4  2  0
  4  8  1  0
  4  9  1  0
 10 11  1  0
 11 12  1  0
 11 15  1  0
 11 16  1  0
 12 13  1  0
 12 17  1  0
 12 18  1  0
 13 14  1  0
 13 19  1  0
 13 20  1  0
 14 21  1  0
 14 22  1  0
 14 23  1  0
M  RAD  1   2   2
M  END
>  <reaction>  (12) 
rmg_rxn_31

>  <mol_properties>  (12) 
{"2": {"label": "*0", "atom_type": "Ct"}, "3": {"label": "*1", "atom_type": "Cs"}, "9": {"label": "*2", "atom_type": "H0"}, "10": {"label": "*3", "atom_type": "Cs"}, "11": {"label": "*4", "atom_type": "Cs"}}

>  <type>  (12) 
unop_8

>  <geom_source>  (12) 
Heuristics

$$$$

     RDKit          3D

 23 21  0  0  0  0  0  0  0  0999 V2000
   -0.7655    2.0238   -3.2781 C   0  0  0  0  0  0  0  0  0  0  0  0
   -0.7655    2.0238   -1.8208 C   0  0  0  0  0  3  0  0  0  0  0  0
   -0.7655    2.0238   -0.6223 C   0  0  0  0  0  0  0  0  0  0  0  0
   -0.7655    2.0238    0.8349 C   0  0  0  0  0  0  0  0  0  0  0  0
   -1.7806    1.9293   -3.6674 H   0  0  0  0  0  0  0  0  0  0  0  0
   -0.1761    1.1919   -3.6674 H   0  0  0  0  0  0  0  0  0  0  0  0
   -0.3398    2.9502   -3.6675 H   0  0  0  0  0  0  0  0  0  0  0  0
   -1.7831    1.9611    1.2243 H   0  0  0  0  0  0  0  0  0  0  0  0
   -0.3111    2.9364    1.2243 H   0  0  0  0  0  0  0  0  0  0  0  0
   -0.0898    1.0039    1.3021 H   0  0  0  0  0  0  0  0  0  0  0  0
    0.5859   -0.0158    1.7692 C   0  0  0  0  0  0  0  0  0  0  0  0
    0.5255   -1.2069    0.8225 C   0  0  0  0  0  0  0  0  0  0  0  0
    0.9061   -2.5222    1.4922 C   0  0  0  0  0  0  0  0  0  0  0  0
    0.8457   -3.7133    0.5455 C   0  0  0  0  0  0  0  0  0  0  0  0
    1.5928    0.1119    2.1737 H   0  0  0  0  0  0  0  0  0  0  0  0
   -0.0939   -0.1522    2.6137 H   0  0  0  0  0  0  0  0  0  0  0  0
    1.1906   -1.0330   -0.0295 H   0  0  0  0  0  0  0  0  0  0  0  0
   -0.4837   -1.2952    0.4072 H   0  0  0  0  0  0  0  0  0  0  0  0
    1.9153   -2.4340    1.9075 H   0  0  0  0  0  0  0  0  0  0  0  0
    0.2409   -2.6961    2.3442 H   0  0  0  0  0  0  0  0  0  0  0  0
    1.5255   -3.5770   -0.2989 H   0  0  0  0  0  0  0  0  0  0  0  0
   -0.1612   -3.8411    0.1410 H   0  0  0  0  0  0  0  0  0  0  0  0
    1.1225   -4.6404    1.0502 H   0  0  0  0  0  0  0  0  0  0  0  0
  1  2  1  0
  1  5  1  0
  1  6  1  0
  1  7  1  0
  2  3  2  0
  3  4  2  0
  4  8  1  0
  4  9  1  0
 10 11  1  0
 11 12  1  0
 11 15  1  0
 11 16  1  0
 12 13  1  0
 12 17  1  0
 12 18  1  0
 13 14  1  0
 13 19  1  0
 13 20  1  0
 14 21  1  0
 14 22  1  0
 14 23  1  0
M  RAD  1   2   2
M  END
>  <reaction>  (13) 
rmg_rxn_31

>  <mol_properties>  (13) 
{"2": {"label": "*0", "atom_type": "Ct"}, "3": {"label": "*1", "atom_type": "Cs"}, "9": {"label": "*2", "atom_type": "H0"}, "10": {"label": "*3", "atom_type": "Cs"}, "11": {"label": "*4", "atom_type": "Cs"}}

>  <type>  (13) 
unop_9

>  <geom_source>  (13) 
Heuristics

$$$$

     RDKit          3D

 23 21  0  0  0  0  0  0  0  0999 V2000
   -1.7112    1.1939   -3.6237 C   0  0  0  0  0  0  0  0  0  0  0  0
   -1.7112    1.1939   -2.1665 C   0  0  0  0  0  3  0  0  0  0  0  0
   -1.7112    1.1939   -0.9680 C   0  0  0  0  0  0  0  0  0  0  0  0
   -1.7112    1.1939    0.4893 C   0  0  0  0  0  0  0  0  0  0  0  0
   -2.7263    1.0995   -4.0131 H   0  0  0  0  0  0  0  0  0  0  0  0
   -1.1218    0.3620   -4.0131 H   0  0  0  0  0  0  0  0  0  0  0  0
   -1.2855    2.1203   -4.0131 H   0  0  0  0  0  0  0  0  0  0  0  0
   -2.7288    1.1312    0.8786 H   0  0  0  0  0  0  0  0  0  0  0  0
   -1.2568    2.1066    0.8786 H   0  0  0  0  0  0  0  0  0  0  0  0
   -1.0355    0.1740    0.9564 H   0  0  0  0  0  0  0  0  0  0  0  0
   -0.3598   -0.8457    1.4236 C   0  0  0  0  0  0  0  0  0  0  0  0
    1.0907   -0.8139    0.9612 C   0  0  0  0  0  0  0  0  0  0  0  0
    2.0547   -1.4165    1.9766 C   0  0  0  0  0  0  0  0  0  0  0  0
    3.5051   -1.3847    1.5142 C   0  0  0  0  0  0  0  0  0  0  0  0
   -0.4863   -0.2871    2.3540 H   0  0  0  0  0  0  0  0  0  0  0  0
   -0.6897   -1.8711    1.6069 H   0  0  0  0  0  0  0  0  0  0  0  0
    1.3877    0.2194    0.7546 H   0  0  0  0  0  0  0  0  0  0  0  0
    1.1859   -1.3529    0.0130 H   0  0  0  0  0  0  0  0  0  0  0  0
    1.9595   -0.8775    2.9247 H   0  0  0  0  0  0  0  0  0  0  0  0
    1.7576   -2.4498    2.1831 H   0  0  0  0  0  0  0  0  0  0  0  0
    3.8350   -0.3593    1.3308 H   0  0  0  0  0  0  0  0  0  0  0  0
    3.6317   -1.9433    0.5837 H   0  0  0  0  0  0  0  0  0  0  0  0
    4.1724   -1.8216    2.2589 H   0  0  0  0  0  0  0  0  0  0  0  0
  1  2  1  0
  1  5  1  0
  1  6  1  0
  1  7  1  0
  2  3  2  0
  3  4  2  0
  4  8  1  0
  4  9  1  0
 10 11  1  0
 11 12  1  0
 11 15  1  0
 11 16  1  0
 12 13  1  0
 12 17  1  0
 12 18  1  0
 13 14  1  0
 13 19  1  0
 13 20  1  0
 14 21  1  0
 14 22  1  0
 14 23  1  0
M  RAD  1   2   2
M  END
>  <reaction>  (14) 
rmg_rxn_31

>  <mol_properties>  (14) 
{"2": {"label": "*0", "atom_type": "Ct"}, "3": {"label": "*1", "atom_type": "Cs"}, "9": {"label": "*2", "atom_type": "H0"}, "10": {"label": "*3", "atom_type": "Cs"}, "11": {"label": "*4", "atom_type": "Cs"}}

>  <type>  (14) 
unop_10

>  <geom_source>  (14) 
Heuristics

$$$$

     RDKit          3D

 23 21  0  0  0  0  0  0  0  0999 V2000
   -0.6960    1.4601   -4.5343 C   0  0  0  0  0  0  0  0  0  0  0  0
   -0.6960    1.4601   -3.0770 C   0  0  0  0  0  3  0  0  0  0  0  0
   -0.6960    1.4601   -1.8785 C   0  0  0  0  0  0  0  0  0  0  0  0
   -0.6960    1.4601   -0.4213 C   0  0  0  0  0  0  0  0  0  0  0  0
   -1.7111    1.3656   -4.9236 H   0  0  0  0  0  0  0  0  0  0  0  0
   -0.1066    0.6282   -4.9236 H   0  0  0  0  0  0  0  0  0  0  0  0
   -0.2703    2.3864   -4.9237 H   0  0  0  0  0  0  0  0  0  0  0  0
   -1.7136    1.3973   -0.0320 H   0  0  0  0  0  0  0  0  0  0  0  0
   -0.2415    2.3727   -0.0319 H   0  0  0  0  0  0  0  0  0  0  0  0
   -0.0202    0.4402    0.0459 H   0  0  0  0  0  0  0  0  0  0  0  0
    0.6554   -0.5796    0.5130 C   0  0  0  0  0  0  0  0  0  0  0  0
    0.1116   -1.0411    1.8583 C   0  0  0  0  0  0  0  0  0  0  0  0
    1.1755   -1.6750    2.7470 C   0  0  0  0  0  0  0  0  0  0  0  0
    0.6316   -2.1365    4.0924 C   0  0  0  0  0  0  0  0  0  0  0  0
    1.0800   -1.4171   -0.0457 H   0  0  0  0  0  0  0  0  0  0  0  0
    1.4455    0.1636    0.6444 H   0  0  0  0  0  0  0  0  0  0  0  0
   -0.6982   -1.7606    1.6999 H   0  0  0  0  0  0  0  0  0  0  0  0
   -0.3353   -0.1915    2.3848 H   0  0  0  0  0  0  0  0  0  0  0  0
    1.6224   -2.5246    2.2205 H   0  0  0  0  0  0  0  0  0  0  0  0
    1.9852   -0.9555    2.9055 H   0  0  0  0  0  0  0  0  0  0  0  0
   -0.1585   -2.8797    3.9610 H   0  0  0  0  0  0  0  0  0  0  0  0
    0.2071   -1.2990    4.6510 H   0  0  0  0  0  0  0  0  0  0  0  0
    1.4131   -2.5857    4.7073 H   0  0  0  0  0  0  0  0  0  0  0  0
  1  2  1  0
  1  5  1  0
  1  6  1  0
  1  7  1  0
  2  3  2  0
  3  4  2  0
  4  8  1  0
  4  9  1  0
 10 11  1  0
 11 12  1  0
 11 15  1  0
 11 16  1  0
 12 13  1  0
 12 17  1  0
 12 18  1  0
 13 14  1  0
 13 19  1  0
 13 20  1  0
 14 21  1  0
 14 22  1  0
 14 23  1  0
M  RAD  1   2   2
M  END
>  <reaction>  (15) 
rmg_rxn_31

>  <mol_properties>  (15) 
{"2": {"label": "*0", "atom_type": "Ct"}, "3": {"label": "*1", "atom_type": "Cs"}, "9": {"label": "*2", "atom_type": "H0"}, "10": {"label": "*3", "atom_type": "Cs"}, "11": {"label": "*4", "atom_type": "Cs"}}

>  <type>  (15) 
unop_11

>  <geom_source>  (15) 
Heuristics

$$$$

     RDKit          3D

 23 21  0  0  0  0  0  0  0  0999 V2000
   -1.2044    1.8177   -3.1413 C   0  0  0  0  0  0  0  0  0  0  0  0
   -1.2044    1.8177   -1.6841 C   0  0  0  0  0  3  0  0  0  0  0  0
   -1.2044    1.8177   -0.4856 C   0  0  0  0  0  0  0  0  0  0  0  0
   -1.2044    1.8177    0.9717 C   0  0  0  0  0  0  0  0  0  0  0  0
   -2.2195    1.7232   -3.5307 H   0  0  0  0  0  0  0  0  0  0  0  0
   -0.6150    0.9858   -3.5307 H   0  0  0  0  0  0  0  0  0  0  0  0
   -0.7787    2.7441   -3.5307 H   0  0  0  0  0  0  0  0  0  0  0  0
   -2.2220    1.7550    1.3610 H   0  0  0  0  0  0  0  0  0  0  0  0
   -0.7499    2.7304    1.3611 H   0  0  0  0  0  0  0  0  0  0  0  0
   -0.5286    0.7978    1.4388 H   0  0  0  0  0  0  0  0  0  0  0  0
    0.1470   -0.2219    1.9060 C   0  0  0  0  0  0  0  0  0  0  0  0
    0.7144   -1.0783    0.7819 C   0  0  0  0  0  0  0  0  0  0  0  0
    1.5088   -2.2772    1.2870 C   0  0  0  0  0  0  0  0  0  0  0  0
    2.0762   -3.1335    0.1630 C   0  0  0  0  0  0  0  0  0  0  0  0
    0.9454    0.1692    2.5412 H   0  0  0  0  0  0  0  0  0  0  0  0
   -0.5243   -0.8046    2.5412 H   0  0  0  0  0  0  0  0  0  0  0  0
    1.3582   -0.4656    0.1425 H   0  0  0  0  0  0  0  0  0  0  0  0
   -0.1007   -1.4322    0.1425 H   0  0  0  0  0  0  0  0  0  0  0  0
    2.3239   -1.9232    1.9264 H   0  0  0  0  0  0  0  0  0  0  0  0
    0.8650   -2.8898    1.9264 H   0  0  0  0  0  0  0  0  0  0  0  0
    2.7475   -2.5508   -0.4722 H   0  0  0  0  0  0  0  0  0  0  0  0
    1.2778   -3.5246   -0.4722 H   0  0  0  0  0  0  0  0  0  0  0  0
    2.6392   -3.9833    0.5523 H   0  0  0  0  0  0  0  0  0  0  0  0
  1  2  1  0
  1  5  1  0
  1  6  1  0
  1  7  1  0
  2  3  2  0
  3  4  2  0
  4  8  1  0
  4  9  1  0
 10 11  1  0
 11 12  1  0
 11 15  1  0
 11 16  1  0
 12 13  1  0
 12 17  1  0
 12 18  1  0
 13 14  1  0
 13 19  1  0
 13 20  1  0
 14 21  1  0
 14 22  1  0
 14 23  1  0
M  RAD  1   2   2
M  END
>  <reaction>  (16) 
rmg_rxn_31

>  <mol_properties>  (16) 
{"2": {"label": "*0", "atom_type": "Ct"}, "3": {"label": "*1", "atom_type": "Cs"}, "9": {"label": "*2", "atom_type": "H0"}, "10": {"label": "*3", "atom_type": "Cs"}, "11": {"label": "*4", "atom_type": "Cs"}}

>  <type>  (16) 
unop_12

>  <geom_source>  (16) 
Heuristics

$$$$

     RDKit          3D

 23 21  0  0  0  0  0  0  0  0999 V2000
   -1.4393   -0.2202   -0.1495 C   0  0  0  0  0  0  0  0  0  0  0  0
   -2.9305   -0.5075   -0.3553 C   0  0  0  0  0  0  0  0  0  0  0  0
   -0.7014   -1.4611    0.3414 C   0  0  0  0  0  0  0  0  0  0  0  0
   -3.6678    0.7348   -0.8465 C   0  0  0  0  0  0  0  0  0  0  0  0
    4.6654    1.4668   -0.4789 C   0  0  0  0  0  0  0  0  0  0  0  0
    1.5999   -0.6734    1.2793 C   0  0  0  0  0  0  0  0  0  0  0  0
    3.5798    0.7089    0.1437 C   0  0  0  0  0  3  0  0  0  0  0  0
    2.6854    0.0844    0.6568 C   0  0  0  0  0  0  0  0  0  0  0  0
   -0.9840    0.1109   -1.1080 H   0  0  0  0  0  0  0  0  0  0  0  0
   -1.3124    0.5912    0.5998 H   0  0  0  0  0  0  0  0  0  0  0  0
   -3.0561   -1.3198   -1.1042 H   0  0  0  0  0  0  0  0  0  0  0  0
   -3.3845   -0.8394    0.6039 H   0  0  0  0  0  0  0  0  0  0  0  0
   -1.1185   -1.7994    1.3139 H   0  0  0  0  0  0  0  0  0  0  0  0
   -0.7886   -2.2820   -0.4020 H   0  0  0  0  0  0  0  0  0  0  0  0
    0.5593   -1.1767    0.5038 H   0  0  0  0  0  0  0  0  0  0  0  0
   -3.2491    1.0730   -1.8183 H   0  0  0  0  0  0  0  0  0  0  0  0
   -3.5789    1.5554   -0.1029 H   0  0  0  0  0  0  0  0  0  0  0  0
   -4.7435    0.4977   -0.9866 H   0  0  0  0  0  0  0  0  0  0  0  0
    4.9666    0.9723   -1.4253 H   0  0  0  0  0  0  0  0  0  0  0  0
    4.3199    2.4987   -0.6947 H   0  0  0  0  0  0  0  0  0  0  0  0
    5.5335    1.5044    0.2110 H   0  0  0  0  0  0  0  0  0  0  0  0
    1.0207   -0.0067    1.9508 H   0  0  0  0  0  0  0  0  0  0  0  0
    2.0245   -1.5126    1.8678 H   0  0  0  0  0  0  0  0  0  0  0  0
  1  3  1  0
  1  2  1  0
  1  9  1  0
  1 10  1  0
  2  4  1  0
  2 11  1  0
  2 12  1  0
  3 13  1  0
  3 14  1  0
  3 15  1  0
  4 16  1  0
  4 17  1  0
  4 18  1  0
  5  7  1  0
  5 19  1  0
  5 20  1  0
  5 21  1  0
  6  8  2  0
  6 22  1  0
  6 23  1  0
  7  8  2  0
M  RAD  1   7   2
M  END
>  <reaction>  (17) 
rmg_rxn_31

>  <mol_properties>  (17) 
{"2": {"label": "*0", "atom_type": "Ct"}, "3": {"label": "*1", "atom_type": "Cs"}, "9": {"label": "*2", "atom_type": "H0"}, "10": {"label": "*3", "atom_type": "Cs"}, "11": {"label": "*4", "atom_type": "Cs"}}

>  <type>  (17) 
unop_13

>  <geom_source>  (17) 
AutoTST

$$$$

     RDKit          3D

 23 21  0  0  0  0  0  0  0  0999 V2000
   -1.5653    1.4939   -3.2781 C   0  0  0  0  0  0  0  0  0  0  0  0
   -1.5653    1.4939   -1.8208 C   0  0  0  0  0  3  0  0  0  0  0  0
   -1.5653    1.4939   -0.6223 C   0  0  0  0  0  0  0  0  0  0  0  0
   -1.5653    1.4939    0.8349 C   0  0  0  0  0  0  0  0  0  0  0  0
   -2.5804    1.3995   -3.6674 H   0  0  0  0  0  0  0  0  0  0  0  0
   -0.9759    0.6621   -3.6674 H   0  0  0  0  0  0  0  0  0  0  0  0
   -1.1395    2.4203   -3.6675 H   0  0  0  0  0  0  0  0  0  0  0  0
   -2.5828    1.4312    1.2243 H   0  0  0  0  0  0  0  0  0  0  0  0
   -1.1108    2.4066    1.2243 H   0  0  0  0  0  0  0  0  0  0  0  0
   -0.8895    0.4741    1.3021 H   0  0  0  0  0  0  0  0  0  0  0  0
   -0.2138   -0.5457    1.7692 C   0  0  0  0  0  0  0  0  0  0  0  0
    0.9066   -0.9544    0.8225 C   0  0  0  0  0  0  0  0  0  0  0  0
    1.9694   -1.8177    1.4922 C   0  0  0  0  0  0  0  0  0  0  0  0
    3.0898   -2.2264    0.5455 C   0  0  0  0  0  0  0  0  0  0  0  0
    0.1768    0.0271    2.6136 H   0  0  0  0  0  0  0  0  0  0  0  0
   -0.7240   -1.4231    2.1737 H   0  0  0  0  0  0  0  0  0  0  0  0
    1.3813   -0.0595    0.4072 H   0  0  0  0  0  0  0  0  0  0  0  0
    0.4871   -1.4992   -0.0295 H   0  0  0  0  0  0  0  0  0  0  0  0
    2.3889   -1.2730    2.3442 H   0  0  0  0  0  0  0  0  0  0  0  0
    1.4947   -2.7126    1.9075 H   0  0  0  0  0  0  0  0  0  0  0  0
    3.6000   -1.3490    0.1410 H   0  0  0  0  0  0  0  0  0  0  0  0
    2.6992   -2.7993   -0.2989 H   0  0  0  0  0  0  0  0  0  0  0  0
    3.8356   -2.8427    1.0502 H   0  0  0  0  0  0  0  0  0  0  0  0
  1  2  1  0
  1  5  1  0
  1  6  1  0
  1  7  1  0
  2  3  2  0
  3  4  2  0
  4  8  1  0
  4  9  1  0
 10 11  1  0
 11 12  1  0
 11 15  1  0
 11 16  1  0
 12 13  1  0
 12 17  1  0
 12 18  1  0
 13 14  1  0
 13 19  1  0
 13 20  1  0
 14 21  1  0
 14 22  1  0
 14 23  1  0
M  RAD  1   2   2
M  END
>  <reaction>  (18) 
rmg_rxn_31

>  <mol_properties>  (18) 
{"2": {"label": "*0", "atom_type": "Ct"}, "3": {"label": "*1", "atom_type": "Cs"}, "9": {"label": "*2", "atom_type": "H0"}, "10": {"label": "*3", "atom_type": "Cs"}, "11": {"label": "*4", "atom_type": "Cs"}}

>  <type>  (18) 
unop_14

>  <geom_source>  (18) 
gaussian_log

$$$$
