
     RDKit          3D

  7  6  0  0  0  0  0  0  0  0999 V2000
   -0.8548    0.0121    0.2120 C   0  0  0  0  0  0  0  0  0  0  0  0
    0.1921   -0.9637    0.4698 N   0  0  0  0  0  0  0  0  0  0  0  0
    0.8785   -1.2092   -0.5201 N   0  0  0  0  0  0  0  0  0  0  0  0
   -1.8110   -0.4522    0.4600 H   0  0  0  0  0  0  0  0  0  0  0  0
   -0.7101    0.8457    0.9015 H   0  0  0  0  0  0  0  0  0  0  0  0
   -0.8478    0.3585   -0.8239 H   0  0  0  0  0  0  0  0  0  0  0  0
    1.5811   -1.9033   -0.2318 H   0  0  0  0  0  0  0  0  0  0  0  0
  1  2  1  0
  1  4  1  0
  1  5  1  0
  1  6  1  0
  2  3  2  3
  3  7  1  0
M  END
>  <reaction>  (1) 
rmg_rxn_15453

>  <mol_properties>  (1) 
{"0": {"label": "donator", "atom_type": "Cs"}, "3": {"label": "d_hydrogen", "atom_type": "H0"}}

>  <type>  (1) 
r1h

$$$$

     RDKit          3D

  5  4  0  0  0  0  0  0  0  0999 V2000
    0.8934    0.3742    0.4948 O   0  0  0  0  0  0  0  0  0  0  0  0
    0.1582   -0.1610   -0.5904 N   0  0  0  0  0  0  0  0  0  0  0  0
   -1.0297   -0.3739   -0.4689 C   0  0  0  0  0  3  0  0  0  0  0  0
    1.7805    0.4382    0.1306 H   0  0  0  0  0  0  0  0  0  0  0  0
   -1.8023   -0.2775    0.2859 H   0  0  0  0  0  0  0  0  0  0  0  0
  1  2  1  0
  1  4  1  0
  2  3  2  3
  3  5  1  0
M  RAD  1   3   2
M  END
>  <reaction>  (2) 
rmg_rxn_15453

>  <mol_properties>  (2) 
{"2": {"label": "acceptor", "atom_type": "Cd"}}

>  <type>  (2) 
r2

$$$$

     RDKit          3D

  6  5  0  0  0  0  0  0  0  0999 V2000
    1.2314    0.0428    0.5088 O   0  0  0  0  0  0  0  0  0  0  0  0
    0.2987    0.2341   -0.4915 N   0  0  0  0  0  0  0  0  0  0  0  0
   -0.8599   -0.1122   -0.1290 C   0  0  0  0  0  0  0  0  0  0  0  0
    2.0507    0.3401    0.1082 H   0  0  0  0  0  0  0  0  0  0  0  0
   -1.0700   -0.5112    0.8610 H   0  0  0  0  0  0  0  0  0  0  0  0
   -1.6509    0.0064   -0.8574 H   0  0  0  0  0  0  0  0  0  0  0  0
  1  2  1  0
  1  4  1  0
  2  3  2  3
  3  5  1  0
  3  6  1  0
M  END
>  <reaction>  (3) 
rmg_rxn_15453

>  <mol_properties>  (3) 
{"2": {"label": "acceptor", "atom_type": "Cd"}, "5": {"label": "a_hydrogen", "atom_type": "H0"}}

>  <type>  (3) 
r2h

$$$$

     RDKit          3D

 12 10  0  0  0  0  0  0  0  0999 V2000
   -2.1767    0.4811    2.3598 O   0  0  0  0  0  0  0  0  0  0  0  0
   -1.3860    0.8341    1.2640 N   0  0  0  0  0  0  0  0  0  0  0  0
   -0.5959   -0.0392    0.8853 C   0  0  0  0  0  3  0  0  0  0  0  0
   -2.7084    1.2682    2.5012 H   0  0  0  0  0  0  0  0  0  0  0  0
   -0.4093   -1.0433    1.2611 H   0  0  0  0  0  0  0  0  0  0  0  0
    0.8510    0.7166   -1.2637 C   0  0  0  0  0  0  0  0  0  0  0  0
    2.0997    0.0446   -1.1653 N   0  0  0  0  0  0  0  0  0  0  0  0
    2.1266   -1.0293   -1.7830 N   0  0  0  0  0  0  0  0  0  0  0  0
    0.2108    0.3705   -0.2536 H   0  0  0  0  0  0  0  0  0  0  0  0
    0.9572    1.7906   -1.1364 H   0  0  0  0  0  0  0  0  0  0  0  0
    0.2321    0.4099   -2.1086 H   0  0  0  0  0  0  0  0  0  0  0  0
    3.0583   -1.4344   -1.6313 H   0  0  0  0  0  0  0  0  0  0  0  0
  1  2  1  0
  1  4  1  0
  2  3  2  3
  3  5  1  0
  6  7  1  0
  6  9  1  0
  6 10  1  0
  6 11  1  0
  7  8  2  3
  8 12  1  0
M  RAD  1   3   2
M  END
>  <reaction>  (4) 
rmg_rxn_15453

>  <mol_properties>  (4) 
{"1": {"label": "*4", "atom_type": "N3d"}, "2": {"label": "*3", "atom_type": "Cd"}, "5": {"label": "*1", "atom_type": "Cs"}, "6": {"label": "*0", "atom_type": "N3d"}, "8": {"label": "*2", "atom_type": "H0"}}

>  <type>  (4) 
ts

$$$$

     RDKit          3D

 12 10  0  0  0  0  0  0  0  0999 V2000
   -3.1989   -0.2770    0.0195 O   0  0  0  0  0  0  0  0  0  0  0  0
   -1.9385    0.3299   -0.0458 N   0  0  0  0  0  0  0  0  0  0  0  0
   -0.9338   -0.4025    0.0568 C   0  0  0  0  0  0  0  0  0  0  0  0
   -3.8252    0.4534   -0.0797 H   0  0  0  0  0  0  0  0  0  0  0  0
   -0.9195   -1.4783    0.1918 H   0  0  0  0  0  0  0  0  0  0  0  0
    1.3170    0.9495   -0.1229 C   0  0  0  0  0  3  0  0  0  0  0  0
    2.3424    0.2555    0.2752 N   0  0  0  0  0  0  0  0  0  0  0  0
    2.8211   -0.8166   -0.1697 N   0  0  0  0  0  0  0  0  0  0  0  0
    0.1370    0.1961   -0.0087 H   0  0  0  0  0  0  0  0  0  0  0  0
    1.0528    1.7681    0.5353 H   0  0  0  0  0  0  0  0  0  0  0  0
    1.1966    1.1530   -1.1889 H   0  0  0  0  0  0  0  0  0  0  0  0
    3.7528   -0.9998    0.1986 H   0  0  0  0  0  0  0  0  0  0  0  0
  1  2  1  0
  1  4  1  0
  2  3  2  3
  3  5  1  0
  3  9  1  0
  6  7  1  0
  6 10  1  0
  6 11  1  0
  7  8  2  3
  8 12  1  0
M  RAD  1   6   2
M  END
>  <reaction>  (5) 
rmg_rxn_15453

>  <mol_properties>  (5) 
{"1": {"label": "*4", "atom_type": "N3d"}, "2": {"label": "*3", "atom_type": "Cd"}, "5": {"label": "*1", "atom_type": "Cs"}, "6": {"label": "*0", "atom_type": "N3d"}, "8": {"label": "*2", "atom_type": "H0"}}

>  <type>  (5) 
unop_1

>  <geom_source>  (5) 
crest_best.xyz

$$$$

     RDKit          3D

 12 10  0  0  0  0  0  0  0  0999 V2000
   -1.6131    1.4649    2.3433 O   0  0  0  0  0  0  0  0  0  0  0  0
   -0.7358    0.5191    1.8505 N   0  0  0  0  0  0  0  0  0  0  0  0
   -0.9479    0.2683    0.6316 C   0  0  0  0  0  0  0  0  0  0  0  0
   -1.3461    1.5592    3.2597 H   0  0  0  0  0  0  0  0  0  0  0  0
   -1.7361    0.7549    0.0611 H   0  0  0  0  0  0  0  0  0  0  0  0
    1.1527    0.0580   -0.8997 C   0  0  0  0  0  0  0  0  0  0  0  0
    1.1527   -1.2790   -1.4715 N   0  0  0  0  0  0  0  0  0  0  0  0
    1.1527   -1.2790   -2.7009 N   0  0  0  0  0  2  0  0  0  0  0  0
    0.0978    0.1637   -0.1306 H   0  0  0  0  0  0  0  0  0  0  0  0
    2.0318    0.1461   -0.2588 H   0  0  0  0  0  0  0  0  0  0  0  0
    1.1527    0.8340   -1.6686 H   0  0  0  0  0  0  0  0  0  0  0  0
    1.1527   -2.2636   -2.9995 H   0  0  0  0  0  0  0  0  0  0  0  0
  1  2  1  0
  1  4  1  0
  2  3  2  3
  3  5  1  0
  3  9  1  0
  6  7  2  3
  6 10  1  0
  6 11  1  0
  7  8  1  0
  8 12  1  0
M  RAD  1   8   2
M  END
>  <reaction>  (6) 
rmg_rxn_15453

>  <mol_properties>  (6) 
{"1": {"label": "*4", "atom_type": "N3d"}, "2": {"label": "*3", "atom_type": "Cd"}, "5": {"label": "*1", "atom_type": "Cs"}, "6": {"label": "*0", "atom_type": "N3d"}, "8": {"label": "*2", "atom_type": "H0"}}

>  <type>  (6) 
unop_2

>  <geom_source>  (6) 
Heuristics

$$$$

     RDKit          3D

 12 10  0  0  0  0  0  0  0  0999 V2000
   -1.9795    0.0674    2.3715 O   0  0  0  0  0  0  0  0  0  0  0  0
   -1.1445   -0.1928    1.3029 N   0  0  0  0  0  0  0  0  0  0  0  0
   -0.7383    0.8679    0.7520 C   0  0  0  0  0  0  0  0  0  0  0  0
   -2.2100   -0.8070    2.6913 H   0  0  0  0  0  0  0  0  0  0  0  0
   -1.0281    1.8573    1.0992 H   0  0  0  0  0  0  0  0  0  0  0  0
    1.3622    0.6576   -0.7794 C   0  0  0  0  0  0  0  0  0  0  0  0
    1.3622   -0.6795   -1.3512 N   0  0  0  0  0  0  0  0  0  0  0  0
    1.3622   -0.6795   -2.5805 N   0  0  0  0  0  2  0  0  0  0  0  0
    0.3073    0.7632   -0.0103 H   0  0  0  0  0  0  0  0  0  0  0  0
    2.2413    0.7456   -0.1385 H   0  0  0  0  0  0  0  0  0  0  0  0
    1.3622    1.4335   -1.5483 H   0  0  0  0  0  0  0  0  0  0  0  0
    1.3622   -1.6641   -2.8792 H   0  0  0  0  0  0  0  0  0  0  0  0
  1  2  1  0
  1  4  1  0
  2  3  2  3
  3  5  1  0
  3  9  1  0
  6  7  2  3
  6 10  1  0
  6 11  1  0
  7  8  1  0
  8 12  1  0
M  RAD  1   8   2
M  END
>  <reaction>  (7) 
rmg_rxn_15453

>  <mol_properties>  (7) 
{"1": {"label": "*4", "atom_type": "N3d"}, "2": {"label": "*3", "atom_type": "Cd"}, "5": {"label": "*1", "atom_type": "Cs"}, "6": {"label": "*0", "atom_type": "N3d"}, "8": {"label": "*2", "atom_type": "H0"}}

>  <type>  (7) 
unop_3

>  <geom_source>  (7) 
Heuristics

$$$$

     RDKit          3D

 12 10  0  0  0  0  0  0  0  0999 V2000
   -1.9467    1.5370    2.0402 O   0  0  0  0  0  0  0  0  0  0  0  0
   -0.7445    0.9265    1.7414 N   0  0  0  0  0  0  0  0  0  0  0  0
   -0.8427    0.1501    0.7510 C   0  0  0  0  0  0  0  0  0  0  0  0
   -1.7342    2.0876    2.7962 H   0  0  0  0  0  0  0  0  0  0  0  0
   -1.7771   -0.0013    0.2146 H   0  0  0  0  0  0  0  0  0  0  0  0
    1.2578   -0.0602   -0.7804 C   0  0  0  0  0  0  0  0  0  0  0  0
    1.2578   -1.3973   -1.3522 N   0  0  0  0  0  0  0  0  0  0  0  0
    1.2578   -1.3973   -2.5815 N   0  0  0  0  0  2  0  0  0  0  0  0
    0.2029    0.0454   -0.0113 H   0  0  0  0  0  0  0  0  0  0  0  0
    2.1369    0.0278   -0.1395 H   0  0  0  0  0  0  0  0  0  0  0  0
    1.2578    0.7157   -1.5493 H   0  0  0  0  0  0  0  0  0  0  0  0
    1.2578   -2.3819   -2.8802 H   0  0  0  0  0  0  0  0  0  0  0  0
  1  2  1  0
  1  4  1  0
  2  3  2  3
  3  5  1  0
  3  9  1  0
  6  7  2  3
  6 10  1  0
  6 11  1  0
  7  8  1  0
  8 12  1  0
M  RAD  1   8   2
M  END
>  <reaction>  (8) 
rmg_rxn_15453

>  <mol_properties>  (8) 
{"1": {"label": "*4", "atom_type": "N3d"}, "2": {"label": "*3", "atom_type": "Cd"}, "5": {"label": "*1", "atom_type": "Cs"}, "6": {"label": "*0", "atom_type": "N3d"}, "8": {"label": "*2", "atom_type": "H0"}}

>  <type>  (8) 
unop_4

>  <geom_source>  (8) 
Heuristics

$$$$

     RDKit          3D

 12 10  0  0  0  0  0  0  0  0999 V2000
   -2.5618    1.0561    1.2750 O   0  0  0  0  0  0  0  0  0  0  0  0
   -1.5785    0.2891    0.6818 N   0  0  0  0  0  0  0  0  0  0  0  0
   -0.4561    0.4488    1.2371 C   0  0  0  0  0  0  0  0  0  0  0  0
   -3.3466    0.8432    0.7662 H   0  0  0  0  0  0  0  0  0  0  0  0
   -0.3096    1.1184    2.0819 H   0  0  0  0  0  0  0  0  0  0  0  0
    1.6444    0.2386   -0.2943 C   0  0  0  0  0  0  0  0  0  0  0  0
    1.6444   -1.0985   -0.8660 N   0  0  0  0  0  0  0  0  0  0  0  0
    1.6444   -1.0985   -2.0954 N   0  0  0  0  0  2  0  0  0  0  0  0
    0.5895    0.3442    0.4748 H   0  0  0  0  0  0  0  0  0  0  0  0
    2.5235    0.3266    0.3466 H   0  0  0  0  0  0  0  0  0  0  0  0
    1.6444    1.0145   -1.0632 H   0  0  0  0  0  0  0  0  0  0  0  0
    1.6444   -2.0831   -2.3941 H   0  0  0  0  0  0  0  0  0  0  0  0
  1  2  1  0
  1  4  1  0
  2  3  2  3
  3  5  1  0
  3  9  1  0
  6  7  2  3
  6 10  1  0
  6 11  1  0
  7  8  1  0
  8 12  1  0
M  RAD  1   8   2
M  END
>  <reaction>  (9) 
rmg_rxn_15453

>  <mol_properties>  (9) 
{"1": {"label": "*4", "atom_type": "N3d"}, "2": {"label": "*3", "atom_type": "Cd"}, "5": {"label": "*1", "atom_type": "Cs"}, "6": {"label": "*0", "atom_type": "N3d"}, "8": {"label": "*2", "atom_type": "H0"}}

>  <type>  (9) 
unop_5

>  <geom_source>  (9) 
Heuristics

$$$$

     RDKit          3D

 12 10  0  0  0  0  0  0  0  0999 V2000
   -2.0646    1.2670    2.1655 O   0  0  0  0  0  0  0  0  0  0  0  0
   -0.9272    1.2609    1.3824 N   0  0  0  0  0  0  0  0  0  0  0  0
   -0.7632    0.1547    0.7969 C   0  0  0  0  0  0  0  0  0  0  0  0
   -2.0683    2.1480    2.5448 H   0  0  0  0  0  0  0  0  0  0  0  0
   -1.4527   -0.6787    0.9136 H   0  0  0  0  0  0  0  0  0  0  0  0
    1.3373   -0.0556   -0.7345 C   0  0  0  0  0  0  0  0  0  0  0  0
    1.3373   -1.3927   -1.3063 N   0  0  0  0  0  0  0  0  0  0  0  0
    1.3373   -1.3927   -2.5356 N   0  0  0  0  0  2  0  0  0  0  0  0
    0.2824    0.0500    0.0346 H   0  0  0  0  0  0  0  0  0  0  0  0
    2.2164    0.0324   -0.0936 H   0  0  0  0  0  0  0  0  0  0  0  0
    1.3373    0.7203   -1.5034 H   0  0  0  0  0  0  0  0  0  0  0  0
    1.3373   -2.3773   -2.8343 H   0  0  0  0  0  0  0  0  0  0  0  0
  1  2  1  0
  1  4  1  0
  2  3  2  3
  3  5  1  0
  3  9  1  0
  6  7  2  3
  6 10  1  0
  6 11  1  0
  7  8  1  0
  8 12  1  0
M  RAD  1   8   2
M  END
>  <reaction>  (10) 
rmg_rxn_15453

>  <mol_properties>  (10) 
{"1": {"label": "*4", "atom_type": "N3d"}, "2": {"label": "*3", "atom_type": "Cd"}, "5": {"label": "*1", "atom_type": "Cs"}, "6": {"label": "*0", "atom_type": "N3d"}, "8": {"label": "*2", "atom_type": "H0"}}

>  <type>  (10) 
unop_6

>  <geom_source>  (10) 
Heuristics

$$$$

     RDKit          3D

 12 10  0  0  0  0  0  0  0  0999 V2000
    3.1981    0.2780    0.0152 O   0  0  0  0  0  0  0  0  0  0  0  0
    1.9382   -0.3291   -0.0548 N   0  0  0  0  0  0  0  0  0  0  0  0
    0.9334    0.3986    0.0764 C   0  0  0  0  0  0  0  0  0  0  0  0
    3.8246   -0.4482   -0.1098 H   0  0  0  0  0  0  0  0  0  0  0  0
    0.9190    1.4704    0.2401 H   0  0  0  0  0  0  0  0  0  0  0  0
   -1.3177   -0.9513   -0.1163 C   0  0  0  0  0  3  0  0  0  0  0  0
   -2.3443   -0.2539    0.2725 N   0  0  0  0  0  0  0  0  0  0  0  0
   -2.8170    0.8185   -0.1780 N   0  0  0  0  0  0  0  0  0  0  0  0
   -0.1372   -0.1997    0.0050 H   0  0  0  0  0  0  0  0  0  0  0  0
   -1.0604   -1.7692    0.5457 H   0  0  0  0  0  0  0  0  0  0  0  0
   -1.1894   -1.1575   -1.1809 H   0  0  0  0  0  0  0  0  0  0  0  0
   -3.7510    1.0046    0.1828 H   0  0  0  0  0  0  0  0  0  0  0  0
  1  2  1  0
  1  4  1  0
  2  3  2  3
  3  5  1  0
  3  9  1  0
  6  7  1  0
  6 10  1  0
  6 11  1  0
  7  8  2  3
  8 12  1  0
M  RAD  1   6   2
M  END
>  <reaction>  (11) 
rmg_rxn_15453

>  <mol_properties>  (11) 
{"1": {"label": "*4", "atom_type": "N3d"}, "2": {"label": "*3", "atom_type": "Cd"}, "5": {"label": "*1", "atom_type": "Cs"}, "6": {"label": "*0", "atom_type": "N3d"}, "8": {"label": "*2", "atom_type": "H0"}}

>  <type>  (11) 
unop_7

>  <geom_source>  (11) 
Heuristics

$$$$

     RDKit          3D

 12 10  0  0  0  0  0  0  0  0999 V2000
   -2.2804    1.5250    1.4560 O   0  0  0  0  0  0  0  0  0  0  0  0
   -1.5963    0.6418    0.6441 N   0  0  0  0  0  0  0  0  0  0  0  0
   -0.5389    0.2209    1.1901 C   0  0  0  0  0  0  0  0  0  0  0  0
   -3.0468    1.7618    0.9302 H   0  0  0  0  0  0  0  0  0  0  0  0
   -0.2274    0.5338    2.1843 H   0  0  0  0  0  0  0  0  0  0  0  0
    1.5617    0.0106   -0.3413 C   0  0  0  0  0  0  0  0  0  0  0  0
    1.5617   -1.3265   -0.9131 N   0  0  0  0  0  0  0  0  0  0  0  0
    1.5617   -1.3265   -2.1424 N   0  0  0  0  0  2  0  0  0  0  0  0
    0.5067    0.1162    0.4278 H   0  0  0  0  0  0  0  0  0  0  0  0
    2.4408    0.0986    0.2996 H   0  0  0  0  0  0  0  0  0  0  0  0
    1.5617    0.7865   -1.1102 H   0  0  0  0  0  0  0  0  0  0  0  0
    1.5617   -2.3110   -2.4411 H   0  0  0  0  0  0  0  0  0  0  0  0
  1  2  1  0
  1  4  1  0
  2  3  2  3
  3  5  1  0
  3  9  1  0
  6  7  2  3
  6 10  1  0
  6 11  1  0
  7  8  1  0
  8 12  1  0
M  RAD  1   8   2
M  END
>  <reaction>  (12) 
rmg_rxn_15453

>  <mol_properties>  (12) 
{"1": {"label": "*4", "atom_type": "N3d"}, "2": {"label": "*3", "atom_type": "Cd"}, "5": {"label": "*1", "atom_type": "Cs"}, "6": {"label": "*0", "atom_type": "N3d"}, "8": {"label": "*2", "atom_type": "H0"}}

>  <type>  (12) 
unop_8

>  <geom_source>  (12) 
Heuristics

$$$$

     RDKit          3D

 12 10  0  0  0  0  0  0  0  0999 V2000
    3.1984   -0.2775   -0.0226 O   0  0  0  0  0  0  0  0  0  0  0  0
    1.9386    0.3309    0.0397 N   0  0  0  0  0  0  0  0  0  0  0  0
    0.9332   -0.4030   -0.0433 C   0  0  0  0  0  0  0  0  0  0  0  0
    3.8255    0.4543    0.0592 H   0  0  0  0  0  0  0  0  0  0  0  0
    0.9178   -1.4809   -0.1597 H   0  0  0  0  0  0  0  0  0  0  0  0
   -1.3179    0.9500    0.1273 C   0  0  0  0  0  3  0  0  0  0  0  0
   -2.3407    0.2558   -0.2770 N   0  0  0  0  0  0  0  0  0  0  0  0
   -2.8208   -0.8172    0.1641 N   0  0  0  0  0  0  0  0  0  0  0  0
   -0.1373    0.1967    0.0181 H   0  0  0  0  0  0  0  0  0  0  0  0
   -1.0507    1.7697   -0.5284 H   0  0  0  0  0  0  0  0  0  0  0  0
   -1.2034    1.1523    1.1942 H   0  0  0  0  0  0  0  0  0  0  0  0
   -3.7504   -1.0007   -0.2091 H   0  0  0  0  0  0  0  0  0  0  0  0
  1  2  1  0
  1  4  1  0
  2  3  2  3
  3  5  1  0
  3  9  1  0
  6  7  1  0
  6 10  1  0
  6 11  1  0
  7  8  2  3
  8 12  1  0
M  RAD  1   6   2
M  END
>  <reaction>  (13) 
rmg_rxn_15453

>  <mol_properties>  (13) 
{"1": {"label": "*4", "atom_type": "N3d"}, "2": {"label": "*3", "atom_type": "Cd"}, "5": {"label": "*1", "atom_type": "Cs"}, "6": {"label": "*0", "atom_type": "N3d"}, "8": {"label": "*2", "atom_type": "H0"}}

>  <type>  (13) 
unop_9

>  <geom_source>  (13) 
Heuristics

$$$$

     RDKit          3D

 12 10  0  0  0  0  0  0  0  0999 V2000
   -1.9475    1.6733    1.8560 O   0  0  0  0  0  0  0  0  0  0  0  0
   -1.4965    0.9932    0.7419 N   0  0  0  0  0  0  0  0  0  0  0  0
   -0.6653    0.0922    1.0434 C   0  0  0  0  0  0  0  0  0  0  0  0
   -2.5596    2.3155    1.4913 H   0  0  0  0  0  0  0  0  0  0  0  0
   -0.3584   -0.1036    2.0687 H   0  0  0  0  0  0  0  0  0  0  0  0
    1.4353   -0.1181   -0.4879 C   0  0  0  0  0  0  0  0  0  0  0  0
    1.4353   -1.4551   -1.0597 N   0  0  0  0  0  0  0  0  0  0  0  0
    1.4353   -1.4551   -2.2891 N   0  0  0  0  0  2  0  0  0  0  0  0
    0.3803   -0.0125    0.2812 H   0  0  0  0  0  0  0  0  0  0  0  0
    2.3144   -0.0301    0.1530 H   0  0  0  0  0  0  0  0  0  0  0  0
    1.4353    0.6579   -1.2568 H   0  0  0  0  0  0  0  0  0  0  0  0
    1.4353   -2.4397   -2.5877 H   0  0  0  0  0  0  0  0  0  0  0  0
  1  2  1  0
  1  4  1  0
  2  3  2  3
  3  5  1  0
  3  9  1  0
  6  7  2  3
  6 10  1  0
  6 11  1  0
  7  8  1  0
  8 12  1  0
M  RAD  1   8   2
M  END
>  <reaction>  (14) 
rmg_rxn_15453

>  <mol_properties>  (14) 
{"1": {"label": "*4", "atom_type": "N3d"}, "2": {"label": "*3", "atom_type": "Cd"}, "5": {"label": "*1", "atom_type": "Cs"}, "6": {"label": "*0", "atom_type": "N3d"}, "8": {"label": "*2", "atom_type": "H0"}}

>  <type>  (14) 
unop_10

>  <geom_source>  (14) 
Heuristics

$$$$

     RDKit          3D

 12 10  0  0  0  0  0  0  0  0999 V2000
   -1.4771    1.0244    2.6266 O   0  0  0  0  0  0  0  0  0  0  0  0
   -0.8223    0.1594    1.7721 N   0  0  0  0  0  0  0  0  0  0  0  0
   -0.9695    0.4892    0.5626 C   0  0  0  0  0  0  0  0  0  0  0  0
   -1.2867    0.6649    3.4952 H   0  0  0  0  0  0  0  0  0  0  0  0
   -1.5494    1.3577    0.2577 H   0  0  0  0  0  0  0  0  0  0  0  0
    1.1311    0.2789   -0.9688 C   0  0  0  0  0  0  0  0  0  0  0  0
    1.1311   -1.0582   -1.5406 N   0  0  0  0  0  0  0  0  0  0  0  0
    1.1311   -1.0582   -2.7699 N   0  0  0  0  0  2  0  0  0  0  0  0
    0.0761    0.3845   -0.1997 H   0  0  0  0  0  0  0  0  0  0  0  0
    2.0102    0.3669   -0.3279 H   0  0  0  0  0  0  0  0  0  0  0  0
    1.1311    1.0548   -1.7377 H   0  0  0  0  0  0  0  0  0  0  0  0
    1.1311   -2.0427   -3.0686 H   0  0  0  0  0  0  0  0  0  0  0  0
  1  2  1  0
  1  4  1  0
  2  3  2  3
  3  5  1  0
  3  9  1  0
  6  7  2  3
  6 10  1  0
  6 11  1  0
  7  8  1  0
  8 12  1  0
M  RAD  1   8   2
M  END
>  <reaction>  (15) 
rmg_rxn_15453

>  <mol_properties>  (15) 
{"1": {"label": "*4", "atom_type": "N3d"}, "2": {"label": "*3", "atom_type": "Cd"}, "5": {"label": "*1", "atom_type": "Cs"}, "6": {"label": "*0", "atom_type": "N3d"}, "8": {"label": "*2", "atom_type": "H0"}}

>  <type>  (15) 
unop_11

>  <geom_source>  (15) 
Heuristics

$$$$

     RDKit          3D

 12 10  0  0  0  0  0  0  0  0999 V2000
   -3.1989   -0.2770    0.0195 O   0  0  0  0  0  0  0  0  0  0  0  0
   -1.9385    0.3299   -0.0458 N   0  0  0  0  0  0  0  0  0  0  0  0
   -0.9338   -0.4025    0.0568 C   0  0  0  0  0  0  0  0  0  0  0  0
   -3.8252    0.4534   -0.0797 H   0  0  0  0  0  0  0  0  0  0  0  0
   -0.9195   -1.4783    0.1918 H   0  0  0  0  0  0  0  0  0  0  0  0
    1.3170    0.9495   -0.1229 C   0  0  0  0  0  3  0  0  0  0  0  0
    2.3424    0.2555    0.2752 N   0  0  0  0  0  0  0  0  0  0  0  0
    2.8211   -0.8166   -0.1697 N   0  0  0  0  0  0  0  0  0  0  0  0
    0.1370    0.1961   -0.0087 H   0  0  0  0  0  0  0  0  0  0  0  0
    1.0528    1.7681    0.5353 H   0  0  0  0  0  0  0  0  0  0  0  0
    1.1966    1.1530   -1.1889 H   0  0  0  0  0  0  0  0  0  0  0  0
    3.7528   -0.9998    0.1986 H   0  0  0  0  0  0  0  0  0  0  0  0
  1  2  1  0
  1  4  1  0
  2  3  2  3
  3  5  1  0
  3  9  1  0
  6  7  1  0
  6 10  1  0
  6 11  1  0
  7  8  2  3
  8 12  1  0
M  RAD  1   6   2
M  END
>  <reaction>  (16) 
rmg_rxn_15453

>  <mol_properties>  (16) 
{"1": {"label": "*4", "atom_type": "N3d"}, "2": {"label": "*3", "atom_type": "Cd"}, "5": {"label": "*1", "atom_type": "Cs"}, "6": {"label": "*0", "atom_type": "N3d"}, "8": {"label": "*2", "atom_type": "H0"}}

>  <type>  (16) 
unop_12

>  <geom_source>  (16) 
Heuristics

$$$$

     RDKit          3D

 12 10  0  0  0  0  0  0  0  0999 V2000
   -2.6246    0.4695    1.4314 O   0  0  0  0  0  0  0  0  0  0  0  0
   -1.4706    0.0104    0.8276 N   0  0  0  0  0  0  0  0  0  0  0  0
   -0.4622    0.6957    1.1544 C   0  0  0  0  0  0  0  0  0  0  0  0
   -3.2996   -0.1280    1.1035 H   0  0  0  0  0  0  0  0  0  0  0  0
   -0.5239    1.5431    1.8339 H   0  0  0  0  0  0  0  0  0  0  0  0
    1.6384    0.4855   -0.3769 C   0  0  0  0  0  0  0  0  0  0  0  0
    1.6384   -0.8516   -0.9487 N   0  0  0  0  0  0  0  0  0  0  0  0
    1.6384   -0.8516   -2.1781 N   0  0  0  0  0  2  0  0  0  0  0  0
    0.5835    0.5911    0.3922 H   0  0  0  0  0  0  0  0  0  0  0  0
    2.5175    0.5735    0.2640 H   0  0  0  0  0  0  0  0  0  0  0  0
    1.6384    1.2614   -1.1458 H   0  0  0  0  0  0  0  0  0  0  0  0
    1.6384   -1.8362   -2.4767 H   0  0  0  0  0  0  0  0  0  0  0  0
  1  2  1  0
  1  4  1  0
  2  3  2  3
  3  5  1  0
  3  9  1  0
  6  7  2  3
  6 10  1  0
  6 11  1  0
  7  8  1  0
  8 12  1  0
M  RAD  1   8   2
M  END
>  <reaction>  (17) 
rmg_rxn_15453

>  <mol_properties>  (17) 
{"1": {"label": "*4", "atom_type": "N3d"}, "2": {"label": "*3", "atom_type": "Cd"}, "5": {"label": "*1", "atom_type": "Cs"}, "6": {"label": "*0", "atom_type": "N3d"}, "8": {"label": "*2", "atom_type": "H0"}}

>  <type>  (17) 
unop_13

>  <geom_source>  (17) 
Heuristics

$$$$

     RDKit          3D

 12 10  0  0  0  0  0  0  0  0999 V2000
   -1.6145    0.4657    2.6555 O   0  0  0  0  0  0  0  0  0  0  0  0
   -0.9710   -0.0894    1.5670 N   0  0  0  0  0  0  0  0  0  0  0  0
   -0.8920    0.7204    0.6020 C   0  0  0  0  0  0  0  0  0  0  0  0
   -1.6057   -0.2417    3.3032 H   0  0  0  0  0  0  0  0  0  0  0  0
   -1.2924    1.7309    0.6497 H   0  0  0  0  0  0  0  0  0  0  0  0
    1.2086    0.5102   -0.9294 C   0  0  0  0  0  0  0  0  0  0  0  0
    1.2086   -0.8269   -1.5012 N   0  0  0  0  0  0  0  0  0  0  0  0
    1.2086   -0.8269   -2.7305 N   0  0  0  0  0  2  0  0  0  0  0  0
    0.1536    0.6158   -0.1603 H   0  0  0  0  0  0  0  0  0  0  0  0
    2.0877    0.5982   -0.2885 H   0  0  0  0  0  0  0  0  0  0  0  0
    1.2086    1.2861   -1.6983 H   0  0  0  0  0  0  0  0  0  0  0  0
    1.2086   -1.8115   -3.0292 H   0  0  0  0  0  0  0  0  0  0  0  0
  1  2  1  0
  1  4  1  0
  2  3  2  3
  3  5  1  0
  3  9  1  0
  6  7  2  3
  6 10  1  0
  6 11  1  0
  7  8  1  0
  8 12  1  0
M  RAD  1   8   2
M  END
>  <reaction>  (18) 
rmg_rxn_15453

>  <mol_properties>  (18) 
{"1": {"label": "*4", "atom_type": "N3d"}, "2": {"label": "*3", "atom_type": "Cd"}, "5": {"label": "*1", "atom_type": "Cs"}, "6": {"label": "*0", "atom_type": "N3d"}, "8": {"label": "*2", "atom_type": "H0"}}

>  <type>  (18) 
unop_14

>  <geom_source>  (18) 
Heuristics

$$$$

     RDKit          3D

 12 10  0  0  0  0  0  0  0  0999 V2000
   -1.8140    1.4543    2.2335 O   0  0  0  0  0  0  0  0  0  0  0  0
   -1.2652    1.2510    0.9827 N   0  0  0  0  0  0  0  0  0  0  0  0
   -0.7610    0.0991    0.8701 C   0  0  0  0  0  0  0  0  0  0  0  0
   -2.1545    2.3496    2.1837 H   0  0  0  0  0  0  0  0  0  0  0  0
   -0.7718   -0.6277    1.6795 H   0  0  0  0  0  0  0  0  0  0  0  0
    1.3395   -0.1111   -0.6613 C   0  0  0  0  0  0  0  0  0  0  0  0
    1.3395   -1.4482   -1.2331 N   0  0  0  0  0  0  0  0  0  0  0  0
    1.3395   -1.4482   -2.4625 N   0  0  0  0  0  2  0  0  0  0  0  0
    0.2846   -0.0055    0.1078 H   0  0  0  0  0  0  0  0  0  0  0  0
    2.2186   -0.0231   -0.0204 H   0  0  0  0  0  0  0  0  0  0  0  0
    1.3395    0.6648   -1.4302 H   0  0  0  0  0  0  0  0  0  0  0  0
    1.3395   -2.4328   -2.7611 H   0  0  0  0  0  0  0  0  0  0  0  0
  1  2  1  0
  1  4  1  0
  2  3  2  3
  3  5  1  0
  3  9  1  0
  6  7  2  3
  6 10  1  0
  6 11  1  0
  7  8  1  0
  8 12  1  0
M  RAD  1   8   2
M  END
>  <reaction>  (19) 
rmg_rxn_15453

>  <mol_properties>  (19) 
{"1": {"label": "*4", "atom_type": "N3d"}, "2": {"label": "*3", "atom_type": "Cd"}, "5": {"label": "*1", "atom_type": "Cs"}, "6": {"label": "*0", "atom_type": "N3d"}, "8": {"label": "*2", "atom_type": "H0"}}

>  <type>  (19) 
unop_15

>  <geom_source>  (19) 
Heuristics

$$$$

     RDKit          3D

 12 10  0  0  0  0  0  0  0  0999 V2000
   -2.3956    0.0614    1.8771 O   0  0  0  0  0  0  0  0  0  0  0  0
   -1.3157   -0.1544    1.0438 N   0  0  0  0  0  0  0  0  0  0  0  0
   -0.5694    0.8607    0.9658 C   0  0  0  0  0  0  0  0  0  0  0  0
   -2.8698   -0.7717    1.8463 H   0  0  0  0  0  0  0  0  0  0  0  0
   -0.7767    1.7838    1.5028 H   0  0  0  0  0  0  0  0  0  0  0  0
    1.5311    0.6504   -0.5656 C   0  0  0  0  0  0  0  0  0  0  0  0
    1.5311   -0.6867   -1.1374 N   0  0  0  0  0  0  0  0  0  0  0  0
    1.5311   -0.6867   -2.3667 N   0  0  0  0  0  2  0  0  0  0  0  0
    0.4762    0.7560    0.2035 H   0  0  0  0  0  0  0  0  0  0  0  0
    2.4102    0.7384    0.0753 H   0  0  0  0  0  0  0  0  0  0  0  0
    1.5311    1.4263   -1.3345 H   0  0  0  0  0  0  0  0  0  0  0  0
    1.5311   -1.6713   -2.6654 H   0  0  0  0  0  0  0  0  0  0  0  0
  1  2  1  0
  1  4  1  0
  2  3  2  3
  3  5  1  0
  3  9  1  0
  6  7  2  3
  6 10  1  0
  6 11  1  0
  7  8  1  0
  8 12  1  0
M  RAD  1   8   2
M  END
>  <reaction>  (20) 
rmg_rxn_15453

>  <mol_properties>  (20) 
{"1": {"label": "*4", "atom_type": "N3d"}, "2": {"label": "*3", "atom_type": "Cd"}, "5": {"label": "*1", "atom_type": "Cs"}, "6": {"label": "*0", "atom_type": "N3d"}, "8": {"label": "*2", "atom_type": "H0"}}

>  <type>  (20) 
unop_16

>  <geom_source>  (20) 
Heuristics

$$$$

     RDKit          3D

 12 10  0  0  0  0  0  0  0  0999 V2000
    3.1999    0.8503   -0.6710 O   0  0  0  0  0  0  0  0  0  0  0  0
    2.0130    0.2374   -1.0130 N   0  0  0  0  0  0  0  0  0  0  0  0
   -1.8409   -0.2244    0.7242 N   0  0  0  0  0  0  0  0  0  0  0  0
   -2.2366    0.8460    0.2291 N   0  0  0  0  0  0  0  0  0  0  0  0
   -1.1608   -1.1915   -0.0935 C   0  0  0  0  0  3  0  0  0  0  0  0
    1.0254    0.1524   -0.1809 C   0  0  0  0  0  0  0  0  0  0  0  0
    1.1032    0.5641    0.8174 H   0  0  0  0  0  0  0  0  0  0  0  0
   -0.0464   -0.4182   -0.5349 H   0  0  0  0  0  0  0  0  0  0  0  0
   -1.8470   -1.5697   -0.8806 H   0  0  0  0  0  0  0  0  0  0  0  0
   -0.8281   -2.0401    0.5388 H   0  0  0  0  0  0  0  0  0  0  0  0
    3.3417    1.2574    0.2469 H   0  0  0  0  0  0  0  0  0  0  0  0
   -2.7234    1.5364    0.8176 H   0  0  0  0  0  0  0  0  0  0  0  0
  1  2  1  0
  1 11  1  0
  2  6  2  3
  3  5  1  0
  3  4  2  3
  4 12  1  0
  5  9  1  0
  5 10  1  0
  6  7  1  0
  6  8  1  0
M  RAD  1   5   2
M  END
>  <reaction>  (21) 
rmg_rxn_15453

>  <mol_properties>  (21) 
{"1": {"label": "*4", "atom_type": "N3d"}, "2": {"label": "*3", "atom_type": "Cd"}, "5": {"label": "*1", "atom_type": "Cs"}, "6": {"label": "*0", "atom_type": "N3d"}, "8": {"label": "*2", "atom_type": "H0"}}

>  <type>  (21) 
unop_17

>  <geom_source>  (21) 
AutoTST

$$$$

     RDKit          3D

 12 10  0  0  0  0  0  0  0  0999 V2000
   -1.9795    0.0674    2.3715 O   0  0  0  0  0  0  0  0  0  0  0  0
   -1.1445   -0.1928    1.3029 N   0  0  0  0  0  0  0  0  0  0  0  0
   -0.7383    0.8679    0.7520 C   0  0  0  0  0  0  0  0  0  0  0  0
   -2.2100   -0.8070    2.6913 H   0  0  0  0  0  0  0  0  0  0  0  0
   -1.0281    1.8573    1.0992 H   0  0  0  0  0  0  0  0  0  0  0  0
    1.3622    0.6576   -0.7794 C   0  0  0  0  0  0  0  0  0  0  0  0
    1.3622   -0.6795   -1.3512 N   0  0  0  0  0  0  0  0  0  0  0  0
    1.3622   -0.6795   -2.5805 N   0  0  0  0  0  2  0  0  0  0  0  0
    0.3073    0.7632   -0.0103 H   0  0  0  0  0  0  0  0  0  0  0  0
    2.2413    0.7456   -0.1385 H   0  0  0  0  0  0  0  0  0  0  0  0
    1.3622    1.4335   -1.5483 H   0  0  0  0  0  0  0  0  0  0  0  0
    1.3622   -1.6641   -2.8792 H   0  0  0  0  0  0  0  0  0  0  0  0
  1  2  1  0
  1  4  1  0
  2  3  2  3
  3  5  1  0
  3  9  1  0
  6  7  2  3
  6 10  1  0
  6 11  1  0
  7  8  1  0
  8 12  1  0
M  RAD  1   8   2
M  END
>  <reaction>  (22) 
rmg_rxn_15453

>  <mol_properties>  (22) 
{"1": {"label": "*4", "atom_type": "N3d"}, "2": {"label": "*3", "atom_type": "Cd"}, "5": {"label": "*1", "atom_type": "Cs"}, "6": {"label": "*0", "atom_type": "N3d"}, "8": {"label": "*2", "atom_type": "H0"}}

>  <type>  (22) 
unop_18

>  <geom_source>  (22) 
gaussian_log

$$$$
