
     RDKit          3D

 14 14  0  0  0  0  0  0  0  0999 V2000
   -1.1778    0.2241    0.1818 C   0  0  0  0  0  0  0  0  0  0  0  0
   -0.5633   -1.1636    0.0678 C   0  0  0  0  0  0  0  0  0  0  0  0
    0.6943   -1.1996    0.7146 O   0  0  0  0  0  0  0  0  0  0  0  0
    1.5547   -0.2288    0.2011 C   0  0  0  0  0  0  0  0  0  0  0  0
    1.0729    1.0696    0.3698 O   0  0  0  0  0  0  0  0  0  0  0  0
   -0.1607    1.2493   -0.2989 C   0  0  0  0  0  0  0  0  0  0  0  0
   -2.0927    0.2866   -0.4117 H   0  0  0  0  0  0  0  0  0  0  0  0
   -1.4303    0.4248    1.2248 H   0  0  0  0  0  0  0  0  0  0  0  0
   -1.1822   -1.9235    0.5431 H   0  0  0  0  0  0  0  0  0  0  0  0
   -0.4389   -1.4347   -0.9919 H   0  0  0  0  0  0  0  0  0  0  0  0
    1.7250   -0.4207   -0.8742 H   0  0  0  0  0  0  0  0  0  0  0  0
    2.4896   -0.3010    0.7524 H   0  0  0  0  0  0  0  0  0  0  0  0
   -0.0080    1.1481   -1.3844 H   0  0  0  0  0  0  0  0  0  0  0  0
   -0.4826    2.2695   -0.0942 H   0  0  0  0  0  0  0  0  0  0  0  0
  1  2  1  0
  1  6  1  0
  1  7  1  0
  1  8  1  0
  2  3  1  0
  2  9  1  0
  2 10  1  0
  3  4  1  0
  4  5  1  0
  4 11  1  0
  4 12  1  0
  5  6  1  0
  6 13  1  0
  6 14  1  0
M  END
>  <reaction>  (1) 
rmg_rxn_255

>  <mol_properties>  (1) 
{"1": {"label": "donator", "atom_type": "Cs"}, "8": {"label": "d_hydrogen", "atom_type": "H0"}}

>  <type>  (1) 
r1h

$$$$

     RDKit          3D

 14 13  0  0  0  0  0  0  0  0999 V2000
    2.5796   -0.5432    0.2329 C   0  0  0  0  0  3  0  0  0  0  0  0
    1.2594    0.0982    0.3029 C   0  0  0  0  0  0  0  0  0  0  0  0
   -0.0483   -1.0244    0.9576 S   0  0  0  0  0  0  0  0  0  0  0  0
   -0.0049   -2.3732   -0.2491 C   0  0  0  0  0  0  0  0  0  0  0  0
   -0.3891   -1.9781   -1.6653 C   0  0  0  0  0  0  0  0  0  0  0  0
    2.9359   -0.9798   -0.6903 H   0  0  0  0  0  0  0  0  0  0  0  0
    3.1327   -0.7454    1.1400 H   0  0  0  0  0  0  0  0  0  0  0  0
    0.9347    0.4858   -0.6621 H   0  0  0  0  0  0  0  0  0  0  0  0
    1.2442    0.9220    1.0193 H   0  0  0  0  0  0  0  0  0  0  0  0
    0.9819   -2.8380   -0.2257 H   0  0  0  0  0  0  0  0  0  0  0  0
   -0.7110   -3.1037    0.1493 H   0  0  0  0  0  0  0  0  0  0  0  0
    0.3274   -1.2737   -2.0913 H   0  0  0  0  0  0  0  0  0  0  0  0
   -0.4075   -2.8581   -2.3121 H   0  0  0  0  0  0  0  0  0  0  0  0
   -1.3749   -1.5123   -1.6865 H   0  0  0  0  0  0  0  0  0  0  0  0
  1  2  1  0
  1  6  1  0
  1  7  1  0
  2  3  1  0
  2  8  1  0
  2  9  1  0
  3  4  1  0
  4  5  1  0
  4 10  1  0
  4 11  1  0
  5 12  1  0
  5 13  1  0
  5 14  1  0
M  RAD  1   1   2
M  END
>  <reaction>  (2) 
rmg_rxn_255

>  <mol_properties>  (2) 
{"0": {"label": "acceptor", "atom_type": "Cs"}}

>  <type>  (2) 
r2

$$$$

     RDKit          3D

 15 14  0  0  0  0  0  0  0  0999 V2000
   -2.0554    0.0723   -0.4910 C   0  0  0  0  0  0  0  0  0  0  0  0
   -0.7461   -0.6266   -0.8178 C   0  0  0  0  0  0  0  0  0  0  0  0
    0.3249    0.2591   -1.9782 S   0  0  0  0  0  0  0  0  0  0  0  0
   -0.7172    0.3642   -3.4551 C   0  0  0  0  0  0  0  0  0  0  0  0
   -1.1375   -0.9737   -4.0409 C   0  0  0  0  0  0  0  0  0  0  0  0
   -2.7005    0.1427   -1.3684 H   0  0  0  0  0  0  0  0  0  0  0  0
   -2.6016   -0.4848    0.2733 H   0  0  0  0  0  0  0  0  0  0  0  0
   -1.8758    1.0825   -0.1213 H   0  0  0  0  0  0  0  0  0  0  0  0
   -0.1320   -0.7246    0.0789 H   0  0  0  0  0  0  0  0  0  0  0  0
   -0.9254   -1.6374   -1.1879 H   0  0  0  0  0  0  0  0  0  0  0  0
   -1.5873    0.9874   -3.2422 H   0  0  0  0  0  0  0  0  0  0  0  0
   -0.1021    0.9161   -4.1678 H   0  0  0  0  0  0  0  0  0  0  0  0
   -1.7876   -1.5224   -3.3574 H   0  0  0  0  0  0  0  0  0  0  0  0
   -0.2676   -1.5962   -4.2534 H   0  0  0  0  0  0  0  0  0  0  0  0
   -1.6916   -0.8229   -4.9700 H   0  0  0  0  0  0  0  0  0  0  0  0
  1  2  1  0
  1  6  1  0
  1  7  1  0
  1  8  1  0
  2  3  1  0
  2  9  1  0
  2 10  1  0
  3  4  1  0
  4  5  1  0
  4 11  1  0
  4 12  1  0
  5 13  1  0
  5 14  1  0
  5 15  1  0
M  END
>  <reaction>  (3) 
rmg_rxn_255

>  <mol_properties>  (3) 
{"0": {"label": "a_hydrogen", "atom_type": "H0"}, "1": {"label": "acceptor", "atom_type": "Cs"}}

>  <type>  (3) 
r2h

$$$$

     RDKit          3D

 28 27  0  0  0  0  0  0  0  0999 V2000
    1.4540    1.0654   -1.0234 C   0  0  0  0  0  0  0  0  0  0  0  0
    1.2759    0.9308    0.4667 C   0  0  0  0  0  0  0  0  0  0  0  0
    0.0233    1.3835    0.8924 O   0  0  0  0  0  0  0  0  0  0  0  0
   -0.2283    2.6977    0.4657 C   0  0  0  0  0  0  0  0  0  0  0  0
   -0.1894    2.8291   -0.9171 O   0  0  0  0  0  0  0  0  0  0  0  0
    1.0853    2.4899   -1.4319 C   0  0  0  0  0  0  0  0  0  0  0  0
    2.4841    0.8412   -1.3075 H   0  0  0  0  0  0  0  0  0  0  0  0
    0.7921    0.3597   -1.5290 H   0  0  0  0  0  0  0  0  0  0  0  0
    1.2642   -0.3483    0.8277 H   0  0  0  0  0  0  0  0  0  0  0  0
    2.0858    1.3735    1.0614 H   0  0  0  0  0  0  0  0  0  0  0  0
    0.5126    3.3735    0.9278 H   0  0  0  0  0  0  0  0  0  0  0  0
   -1.2343    2.9525    0.7920 H   0  0  0  0  0  0  0  0  0  0  0  0
    1.8338    3.2028   -1.0555 H   0  0  0  0  0  0  0  0  0  0  0  0
    1.0228    2.5953   -2.5143 H   0  0  0  0  0  0  0  0  0  0  0  0
    1.0839   -1.5771    1.3799 C   0  0  0  0  0  3  0  0  0  0  0  0
    0.7684   -2.6099    0.3343 C   0  0  0  0  0  0  0  0  0  0  0  0
   -0.5013   -2.1605   -0.8859 S   0  0  0  0  0  0  0  0  0  0  0  0
   -1.8422   -1.5474    0.1629 C   0  0  0  0  0  0  0  0  0  0  0  0
   -2.4180   -2.5748    1.1231 C   0  0  0  0  0  0  0  0  0  0  0  0
    0.2765   -1.3710    2.0796 H   0  0  0  0  0  0  0  0  0  0  0  0
    2.0225   -1.7593    1.9017 H   0  0  0  0  0  0  0  0  0  0  0  0
    0.4770   -3.5511    0.8111 H   0  0  0  0  0  0  0  0  0  0  0  0
    1.6491   -2.8272   -0.2725 H   0  0  0  0  0  0  0  0  0  0  0  0
   -1.4995   -0.6533    0.6854 H   0  0  0  0  0  0  0  0  0  0  0  0
   -2.6011   -1.2232   -0.5513 H   0  0  0  0  0  0  0  0  0  0  0  0
   -1.6726   -2.9034    1.8497 H   0  0  0  0  0  0  0  0  0  0  0  0
   -3.2529   -2.1448    1.6809 H   0  0  0  0  0  0  0  0  0  0  0  0
   -2.7764   -3.4546    0.5872 H   0  0  0  0  0  0  0  0  0  0  0  0
  1  2  1  0
  1  6  1  0
  1  7  1  0
  1  8  1  0
  2  3  1  0
  2  9  1  0
  2 10  1  0
  3  4  1  0
  4  5  1  0
  4 11  1  0
  4 12  1  0
  5  6  1  0
  6 13  1  0
  6 14  1  0
 15 16  1  0
 15 20  1  0
 15 21  1  0
 16 17  1  0
 16 22  1  0
 16 23  1  0
 17 18  1  0
 18 19  1  0
 18 24  1  0
 18 25  1  0
 19 26  1  0
 19 27  1  0
 19 28  1  0
M  RAD  1  15   2
M  END
>  <reaction>  (4) 
rmg_rxn_255

>  <mol_properties>  (4) 
{"1": {"label": "*1", "atom_type": "Cs"}, "2": {"label": "*0", "atom_type": "O2s"}, "8": {"label": "*2", "atom_type": "H0"}, "14": {"label": "*3", "atom_type": "Cs"}, "15": {"label": "*4", "atom_type": "Cs"}}

>  <type>  (4) 
ts

$$$$

     RDKit          3D

 28 27  0  0  0  0  0  0  0  0999 V2000
   -0.2651    1.4873   -1.7369 C   0  0  0  0  0  0  0  0  0  0  0  0
   -0.2651    1.4873   -0.2149 C   0  0  0  0  0  0  0  0  0  0  0  0
   -1.3134    2.2999    0.2772 O   0  0  0  0  0  0  0  0  0  0  0  0
   -1.2225    3.5995   -0.2221 C   0  0  0  0  0  0  0  0  0  0  0  0
   -1.3134    3.6557   -1.6132 O   0  0  0  0  0  0  0  0  0  0  0  0
   -0.2651    2.9290   -2.2250 C   0  0  0  0  0  0  0  0  0  0  0  0
    0.6089    0.9549   -2.1188 H   0  0  0  0  0  0  0  0  0  0  0  0
   -1.1617    0.9812   -2.0999 H   0  0  0  0  0  0  0  0  0  0  0  0
   -0.4559    0.2903    0.2739 H   0  0  0  0  0  0  0  0  0  0  0  0
    0.6985    1.8633    0.1618 H   0  0  0  0  0  0  0  0  0  0  0  0
   -0.2672    4.0516    0.1021 H   0  0  0  0  0  0  0  0  0  0  0  0
   -2.0636    4.1600    0.1799 H   0  0  0  0  0  0  0  0  0  0  0  0
    0.6985    3.4064   -1.9897 H   0  0  0  0  0  0  0  0  0  0  0  0
   -0.4241    2.9949   -3.3005 H   0  0  0  0  0  0  0  0  0  0  0  0
   -0.6468   -0.9083    0.7634 C   0  0  0  0  0  3  0  0  0  0  0  0
    0.5298   -1.3366    1.6246 C   0  0  0  0  0  0  0  0  0  0  0  0
    1.7840   -2.3238    0.7698 S   0  0  0  0  0  0  0  0  0  0  0  0
    0.8339   -3.7709    0.2390 C   0  0  0  0  0  0  0  0  0  0  0  0
    0.2065   -4.5754    1.3653 C   0  0  0  0  0  0  0  0  0  0  0  0
   -1.2354   -1.7669    0.4356 H   0  0  0  0  0  0  0  0  0  0  0  0
   -1.3117   -0.2523    1.3297 H   0  0  0  0  0  0  0  0  0  0  0  0
    0.1889   -1.8719    2.5123 H   0  0  0  0  0  0  0  0  0  0  0  0
    1.0823   -0.4638    1.9766 H   0  0  0  0  0  0  0  0  0  0  0  0
    0.0801   -3.4639   -0.4880 H   0  0  0  0  0  0  0  0  0  0  0  0
    1.5636   -4.3762   -0.3014 H   0  0  0  0  0  0  0  0  0  0  0  0
   -0.5560   -3.9986    1.8915 H   0  0  0  0  0  0  0  0  0  0  0  0
   -0.2765   -5.4708    0.9676 H   0  0  0  0  0  0  0  0  0  0  0  0
    0.9600   -4.8819    2.0916 H   0  0  0  0  0  0  0  0  0  0  0  0
  1  2  1  0
  1  6  1  0
  1  7  1  0
  1  8  1  0
  2  3  1  0
  2  9  1  0
  2 10  1  0
  3  4  1  0
  4  5  1  0
  4 11  1  0
  4 12  1  0
  5  6  1  0
  6 13  1  0
  6 14  1  0
 15 16  1  0
 15 20  1  0
 15 21  1  0
 16 17  1  0
 16 22  1  0
 16 23  1  0
 17 18  1  0
 18 19  1  0
 18 24  1  0
 18 25  1  0
 19 26  1  0
 19 27  1  0
 19 28  1  0
M  RAD  1  15   2
M  END
>  <reaction>  (5) 
rmg_rxn_255

>  <mol_properties>  (5) 
{"1": {"label": "*1", "atom_type": "Cs"}, "2": {"label": "*0", "atom_type": "O2s"}, "8": {"label": "*2", "atom_type": "H0"}, "14": {"label": "*3", "atom_type": "Cs"}, "15": {"label": "*4", "atom_type": "Cs"}}

>  <type>  (5) 
unop_1

>  <geom_source>  (5) 
Heuristics

$$$$

     RDKit          3D

 28 27  0  0  0  0  0  0  0  0999 V2000
    0.8105    1.3986   -0.9288 C   0  0  0  0  0  0  0  0  0  0  0  0
    0.8105    1.3986    0.5933 C   0  0  0  0  0  0  0  0  0  0  0  0
   -0.2378    2.2112    1.0854 O   0  0  0  0  0  0  0  0  0  0  0  0
   -0.1469    3.5108    0.5861 C   0  0  0  0  0  0  0  0  0  0  0  0
   -0.2378    3.5670   -0.8050 O   0  0  0  0  0  0  0  0  0  0  0  0
    0.8105    2.8403   -1.4169 C   0  0  0  0  0  0  0  0  0  0  0  0
    1.6845    0.8662   -1.3106 H   0  0  0  0  0  0  0  0  0  0  0  0
   -0.0861    0.8925   -1.2918 H   0  0  0  0  0  0  0  0  0  0  0  0
    0.6198    0.2016    1.0821 H   0  0  0  0  0  0  0  0  0  0  0  0
    1.7741    1.7746    0.9700 H   0  0  0  0  0  0  0  0  0  0  0  0
    0.8085    3.9629    0.9103 H   0  0  0  0  0  0  0  0  0  0  0  0
   -0.9879    4.0713    0.9880 H   0  0  0  0  0  0  0  0  0  0  0  0
    1.7741    3.3177   -1.1816 H   0  0  0  0  0  0  0  0  0  0  0  0
    0.6516    2.9062   -2.4923 H   0  0  0  0  0  0  0  0  0  0  0  0
    0.4288   -0.9970    1.5715 C   0  0  0  0  0  3  0  0  0  0  0  0
    0.9782   -2.0597    0.6343 C   0  0  0  0  0  0  0  0  0  0  0  0
    0.0045   -2.3324   -0.8676 S   0  0  0  0  0  0  0  0  0  0  0  0
   -1.5948   -2.8522   -0.1963 C   0  0  0  0  0  0  0  0  0  0  0  0
   -1.5573   -4.1172    0.6451 C   0  0  0  0  0  0  0  0  0  0  0  0
   -0.5344   -1.2931    1.9904 H   0  0  0  0  0  0  0  0  0  0  0  0
    1.1143   -0.8378    2.4069 H   0  0  0  0  0  0  0  0  0  0  0  0
    1.1136   -3.0082    1.1567 H   0  0  0  0  0  0  0  0  0  0  0  0
    1.9592   -1.7656    0.2576 H   0  0  0  0  0  0  0  0  0  0  0  0
   -2.0408   -2.0264    0.3605 H   0  0  0  0  0  0  0  0  0  0  0  0
   -2.2119   -3.0026   -1.0836 H   0  0  0  0  0  0  0  0  0  0  0  0
   -0.9774   -3.9725    1.5582 H   0  0  0  0  0  0  0  0  0  0  0  0
   -2.5684   -4.4050    0.9414 H   0  0  0  0  0  0  0  0  0  0  0  0
   -1.1114   -4.9421    0.0884 H   0  0  0  0  0  0  0  0  0  0  0  0
  1  2  1  0
  1  6  1  0
  1  7  1  0
  1  8  1  0
  2  3  1  0
  2  9  1  0
  2 10  1  0
  3  4  1  0
  4  5  1  0
  4 11  1  0
  4 12  1  0
  5  6  1  0
  6 13  1  0
  6 14  1  0
 15 16  1  0
 15 20  1  0
 15 21  1  0
 16 17  1  0
 16 22  1  0
 16 23  1  0
 17 18  1  0
 18 19  1  0
 18 24  1  0
 18 25  1  0
 19 26  1  0
 19 27  1  0
 19 28  1  0
M  RAD  1  15   2
M  END
>  <reaction>  (6) 
rmg_rxn_255

>  <mol_properties>  (6) 
{"1": {"label": "*1", "atom_type": "Cs"}, "2": {"label": "*0", "atom_type": "O2s"}, "8": {"label": "*2", "atom_type": "H0"}, "14": {"label": "*3", "atom_type": "Cs"}, "15": {"label": "*4", "atom_type": "Cs"}}

>  <type>  (6) 
unop_2

>  <geom_source>  (6) 
Heuristics

$$$$

     RDKit          3D

 28 27  0  0  0  0  0  0  0  0999 V2000
   -0.3689    1.2323   -2.1077 C   0  0  0  0  0  0  0  0  0  0  0  0
   -0.3689    1.2323   -0.5856 C   0  0  0  0  0  0  0  0  0  0  0  0
   -1.4172    2.0449   -0.0935 O   0  0  0  0  0  0  0  0  0  0  0  0
   -1.3263    3.3444   -0.5928 C   0  0  0  0  0  0  0  0  0  0  0  0
   -1.4172    3.4006   -1.9839 O   0  0  0  0  0  0  0  0  0  0  0  0
   -0.3689    2.6739   -2.5958 C   0  0  0  0  0  0  0  0  0  0  0  0
    0.5051    0.6998   -2.4895 H   0  0  0  0  0  0  0  0  0  0  0  0
   -1.2655    0.7261   -2.4707 H   0  0  0  0  0  0  0  0  0  0  0  0
   -0.5597    0.0352   -0.0968 H   0  0  0  0  0  0  0  0  0  0  0  0
    0.5947    1.6082   -0.2089 H   0  0  0  0  0  0  0  0  0  0  0  0
   -0.3710    3.7965   -0.2686 H   0  0  0  0  0  0  0  0  0  0  0  0
   -2.1674    3.9049   -0.1909 H   0  0  0  0  0  0  0  0  0  0  0  0
    0.5947    3.1513   -2.3605 H   0  0  0  0  0  0  0  0  0  0  0  0
   -0.5279    2.7398   -3.6712 H   0  0  0  0  0  0  0  0  0  0  0  0
   -0.7506   -1.1634    0.3926 C   0  0  0  0  0  3  0  0  0  0  0  0
   -0.0566   -1.3180    1.7357 C   0  0  0  0  0  0  0  0  0  0  0  0
    1.6985   -1.7533    1.6441 S   0  0  0  0  0  0  0  0  0  0  0  0
    1.6531   -3.3402    0.7736 C   0  0  0  0  0  0  0  0  0  0  0  0
    0.8735   -4.4375    1.4792 C   0  0  0  0  0  0  0  0  0  0  0  0
   -0.7919   -2.1109   -0.1471 H   0  0  0  0  0  0  0  0  0  0  0  0
   -1.7785   -0.8222    0.5346 H   0  0  0  0  0  0  0  0  0  0  0  0
   -0.5783   -2.0424    2.3633 H   0  0  0  0  0  0  0  0  0  0  0  0
   -0.0610   -0.3713    2.2784 H   0  0  0  0  0  0  0  0  0  0  0  0
    1.2807   -3.1877   -0.2407 H   0  0  0  0  0  0  0  0  0  0  0  0
    2.7048   -3.6171    0.6839 H   0  0  0  0  0  0  0  0  0  0  0  0
   -0.1889   -4.1957    1.5416 H   0  0  0  0  0  0  0  0  0  0  0  0
    0.9638   -5.3782    0.9317 H   0  0  0  0  0  0  0  0  0  0  0  0
    1.2459   -4.5895    2.4929 H   0  0  0  0  0  0  0  0  0  0  0  0
  1  2  1  0
  1  6  1  0
  1  7  1  0
  1  8  1  0
  2  3  1  0
  2  9  1  0
  2 10  1  0
  3  4  1  0
  4  5  1  0
  4 11  1  0
  4 12  1  0
  5  6  1  0
  6 13  1  0
  6 14  1  0
 15 16  1  0
 15 20  1  0
 15 21  1  0
 16 17  1  0
 16 22  1  0
 16 23  1  0
 17 18  1  0
 18 19  1  0
 18 24  1  0
 18 25  1  0
 19 26  1  0
 19 27  1  0
 19 28  1  0
M  RAD  1  15   2
M  END
>  <reaction>  (7) 
rmg_rxn_255

>  <mol_properties>  (7) 
{"1": {"label": "*1", "atom_type": "Cs"}, "2": {"label": "*0", "atom_type": "O2s"}, "8": {"label": "*2", "atom_type": "H0"}, "14": {"label": "*3", "atom_type": "Cs"}, "15": {"label": "*4", "atom_type": "Cs"}}

>  <type>  (7) 
unop_3

>  <geom_source>  (7) 
Heuristics

$$$$

     RDKit          3D

 28 27  0  0  0  0  0  0  0  0999 V2000
    1.5126    0.3867   -1.6557 C   0  0  0  0  0  0  0  0  0  0  0  0
    1.5126    0.3867   -0.1337 C   0  0  0  0  0  0  0  0  0  0  0  0
    0.4643    1.1993    0.3584 O   0  0  0  0  0  0  0  0  0  0  0  0
    0.5552    2.4988   -0.1409 C   0  0  0  0  0  0  0  0  0  0  0  0
    0.4643    2.5550   -1.5319 O   0  0  0  0  0  0  0  0  0  0  0  0
    1.5126    1.8283   -2.1438 C   0  0  0  0  0  0  0  0  0  0  0  0
    2.3866   -0.1458   -2.0376 H   0  0  0  0  0  0  0  0  0  0  0  0
    0.6160   -0.1195   -2.0187 H   0  0  0  0  0  0  0  0  0  0  0  0
    1.3218   -0.8104    0.3552 H   0  0  0  0  0  0  0  0  0  0  0  0
    2.4762    0.7626    0.2431 H   0  0  0  0  0  0  0  0  0  0  0  0
    1.5105    2.9509    0.1833 H   0  0  0  0  0  0  0  0  0  0  0  0
   -0.2859    3.0593    0.2611 H   0  0  0  0  0  0  0  0  0  0  0  0
    2.4762    2.3057   -1.9085 H   0  0  0  0  0  0  0  0  0  0  0  0
    1.3536    1.8942   -3.2193 H   0  0  0  0  0  0  0  0  0  0  0  0
    1.1309   -2.0090    0.8446 C   0  0  0  0  0  3  0  0  0  0  0  0
   -0.2042   -2.5746    0.3893 C   0  0  0  0  0  0  0  0  0  0  0  0
   -1.4351   -1.3372   -0.0919 S   0  0  0  0  0  0  0  0  0  0  0  0
   -1.6424   -0.3904    1.4374 C   0  0  0  0  0  0  0  0  0  0  0  0
   -2.1394   -1.1940    2.6277 C   0  0  0  0  0  0  0  0  0  0  0  0
    1.0282   -1.4371    1.7684 H   0  0  0  0  0  0  0  0  0  0  0  0
    1.8390   -2.8179    1.0371 H   0  0  0  0  0  0  0  0  0  0  0  0
   -0.6285   -3.2328    1.1493 H   0  0  0  0  0  0  0  0  0  0  0  0
   -0.0758   -3.1768   -0.5117 H   0  0  0  0  0  0  0  0  0  0  0  0
   -0.7096    0.1234    1.6759 H   0  0  0  0  0  0  0  0  0  0  0  0
   -2.3663    0.3808    1.1690 H   0  0  0  0  0  0  0  0  0  0  0  0
   -1.4093   -1.9441    2.9362 H   0  0  0  0  0  0  0  0  0  0  0  0
   -2.3145   -0.5364    3.4820 H   0  0  0  0  0  0  0  0  0  0  0  0
   -3.0715   -1.7074    2.3890 H   0  0  0  0  0  0  0  0  0  0  0  0
  1  2  1  0
  1  6  1  0
  1  7  1  0
  1  8  1  0
  2  3  1  0
  2  9  1  0
  2 10  1  0
  3  4  1  0
  4  5  1  0
  4 11  1  0
  4 12  1  0
  5  6  1  0
  6 13  1  0
  6 14  1  0
 15 16  1  0
 15 20  1  0
 15 21  1  0
 16 17  1  0
 16 22  1  0
 16 23  1  0
 17 18  1  0
 18 19  1  0
 18 24  1  0
 18 25  1  0
 19 26  1  0
 19 27  1  0
 19 28  1  0
M  RAD  1  15   2
M  END
>  <reaction>  (8) 
rmg_rxn_255

>  <mol_properties>  (8) 
{"1": {"label": "*1", "atom_type": "Cs"}, "2": {"label": "*0", "atom_type": "O2s"}, "8": {"label": "*2", "atom_type": "H0"}, "14": {"label": "*3", "atom_type": "Cs"}, "15": {"label": "*4", "atom_type": "Cs"}}

>  <type>  (8) 
unop_4

>  <geom_source>  (8) 
Heuristics

$$$$

     RDKit          3D

 28 27  0  0  0  0  0  0  0  0999 V2000
   -0.2664    0.7066   -2.4853 C   0  0  0  0  0  0  0  0  0  0  0  0
   -0.2664    0.7066   -0.9632 C   0  0  0  0  0  0  0  0  0  0  0  0
   -1.3147    1.5192   -0.4711 O   0  0  0  0  0  0  0  0  0  0  0  0
   -1.2238    2.8187   -0.9705 C   0  0  0  0  0  0  0  0  0  0  0  0
   -1.3147    2.8749   -2.3615 O   0  0  0  0  0  0  0  0  0  0  0  0
   -0.2664    2.1482   -2.9734 C   0  0  0  0  0  0  0  0  0  0  0  0
    0.6076    0.1741   -2.8671 H   0  0  0  0  0  0  0  0  0  0  0  0
   -1.1630    0.2004   -2.8483 H   0  0  0  0  0  0  0  0  0  0  0  0
   -0.4571   -0.4904   -0.4744 H   0  0  0  0  0  0  0  0  0  0  0  0
    0.6972    1.0825   -0.5865 H   0  0  0  0  0  0  0  0  0  0  0  0
   -0.2684    3.2708   -0.6462 H   0  0  0  0  0  0  0  0  0  0  0  0
   -2.0648    3.3793   -0.5685 H   0  0  0  0  0  0  0  0  0  0  0  0
    0.6972    2.6256   -2.7381 H   0  0  0  0  0  0  0  0  0  0  0  0
   -0.4253    2.2141   -4.0488 H   0  0  0  0  0  0  0  0  0  0  0  0
   -0.6481   -1.6890    0.0150 C   0  0  0  0  0  3  0  0  0  0  0  0
   -0.6437   -1.6617    1.5345 C   0  0  0  0  0  0  0  0  0  0  0  0
    0.8356   -0.9333    2.2822 S   0  0  0  0  0  0  0  0  0  0  0  0
    2.1475   -2.0203    1.6693 C   0  0  0  0  0  0  0  0  0  0  0  0
    2.0148   -3.4788    2.0751 C   0  0  0  0  0  0  0  0  0  0  0  0
    0.1341   -2.3425   -0.3750 H   0  0  0  0  0  0  0  0  0  0  0  0
   -1.6043   -2.0662   -0.3542 H   0  0  0  0  0  0  0  0  0  0  0  0
   -0.8028   -2.6610    1.9430 H   0  0  0  0  0  0  0  0  0  0  0  0
   -1.4571   -1.0368    1.9069 H   0  0  0  0  0  0  0  0  0  0  0  0
    2.2235   -1.9225    0.5851 H   0  0  0  0  0  0  0  0  0  0  0  0
    3.0583   -1.5893    2.0883 H   0  0  0  0  0  0  0  0  0  0  0  0
    1.1300   -3.9380    1.6311 H   0  0  0  0  0  0  0  0  0  0  0  0
    2.8838   -4.0468    1.7358 H   0  0  0  0  0  0  0  0  0  0  0  0
    1.9388   -3.5761    3.1587 H   0  0  0  0  0  0  0  0  0  0  0  0
  1  2  1  0
  1  6  1  0
  1  7  1  0
  1  8  1  0
  2  3  1  0
  2  9  1  0
  2 10  1  0
  3  4  1  0
  4  5  1  0
  4 11  1  0
  4 12  1  0
  5  6  1  0
  6 13  1  0
  6 14  1  0
 15 16  1  0
 15 20  1  0
 15 21  1  0
 16 17  1  0
 16 22  1  0
 16 23  1  0
 17 18  1  0
 18 19  1  0
 18 24  1  0
 18 25  1  0
 19 26  1  0
 19 27  1  0
 19 28  1  0
M  RAD  1  15   2
M  END
>  <reaction>  (9) 
rmg_rxn_255

>  <mol_properties>  (9) 
{"1": {"label": "*1", "atom_type": "Cs"}, "2": {"label": "*0", "atom_type": "O2s"}, "8": {"label": "*2", "atom_type": "H0"}, "14": {"label": "*3", "atom_type": "Cs"}, "15": {"label": "*4", "atom_type": "Cs"}}

>  <type>  (9) 
unop_5

>  <geom_source>  (9) 
Heuristics

$$$$

     RDKit          3D

 28 27  0  0  0  0  0  0  0  0999 V2000
    1.3354    0.1683   -2.0772 C   0  0  0  0  0  0  0  0  0  0  0  0
    1.3354    0.1683   -0.5552 C   0  0  0  0  0  0  0  0  0  0  0  0
    0.2871    0.9810   -0.0631 O   0  0  0  0  0  0  0  0  0  0  0  0
    0.3780    2.2805   -0.5624 C   0  0  0  0  0  0  0  0  0  0  0  0
    0.2871    2.3367   -1.9535 O   0  0  0  0  0  0  0  0  0  0  0  0
    1.3354    1.6100   -2.5653 C   0  0  0  0  0  0  0  0  0  0  0  0
    2.2094   -0.3641   -2.4591 H   0  0  0  0  0  0  0  0  0  0  0  0
    0.4388   -0.3378   -2.4402 H   0  0  0  0  0  0  0  0  0  0  0  0
    1.1447   -1.0287   -0.0664 H   0  0  0  0  0  0  0  0  0  0  0  0
    2.2990    0.5443   -0.1785 H   0  0  0  0  0  0  0  0  0  0  0  0
    1.3334    2.7326   -0.2382 H   0  0  0  0  0  0  0  0  0  0  0  0
   -0.4630    2.8410   -0.1604 H   0  0  0  0  0  0  0  0  0  0  0  0
    2.2990    2.0874   -2.3300 H   0  0  0  0  0  0  0  0  0  0  0  0
    1.1765    1.6759   -3.6408 H   0  0  0  0  0  0  0  0  0  0  0  0
    0.9537   -2.2273    0.4230 C   0  0  0  0  0  3  0  0  0  0  0  0
   -0.5274   -2.5009    0.6260 C   0  0  0  0  0  0  0  0  0  0  0  0
   -1.5879   -1.0338    0.5920 S   0  0  0  0  0  0  0  0  0  0  0  0
   -0.9343   -0.0585    1.9703 C   0  0  0  0  0  0  0  0  0  0  0  0
   -1.0123   -0.7346    3.3291 C   0  0  0  0  0  0  0  0  0  0  0  0
    1.3684   -1.6429    1.2461 H   0  0  0  0  0  0  0  0  0  0  0  0
    1.5093   -3.1665    0.3757 H   0  0  0  0  0  0  0  0  0  0  0  0
   -0.6989   -3.0518    1.5522 H   0  0  0  0  0  0  0  0  0  0  0  0
   -0.9153   -3.1202   -0.1845 H   0  0  0  0  0  0  0  0  0  0  0  0
    0.0886    0.2483    1.7454 H   0  0  0  0  0  0  0  0  0  0  0  0
   -1.5435    0.8468    1.9593 H   0  0  0  0  0  0  0  0  0  0  0  0
   -0.3762   -1.6204    3.3716 H   0  0  0  0  0  0  0  0  0  0  0  0
   -0.6752   -0.0514    4.1119 H   0  0  0  0  0  0  0  0  0  0  0  0
   -2.0345   -1.0411    3.5535 H   0  0  0  0  0  0  0  0  0  0  0  0
  1  2  1  0
  1  6  1  0
  1  7  1  0
  1  8  1  0
  2  3  1  0
  2  9  1  0
  2 10  1  0
  3  4  1  0
  4  5  1  0
  4 11  1  0
  4 12  1  0
  5  6  1  0
  6 13  1  0
  6 14  1  0
 15 16  1  0
 15 20  1  0
 15 21  1  0
 16 17  1  0
 16 22  1  0
 16 23  1  0
 17 18  1  0
 18 19  1  0
 18 24  1  0
 18 25  1  0
 19 26  1  0
 19 27  1  0
 19 28  1  0
M  RAD  1  15   2
M  END
>  <reaction>  (10) 
rmg_rxn_255

>  <mol_properties>  (10) 
{"1": {"label": "*1", "atom_type": "Cs"}, "2": {"label": "*0", "atom_type": "O2s"}, "8": {"label": "*2", "atom_type": "H0"}, "14": {"label": "*3", "atom_type": "Cs"}, "15": {"label": "*4", "atom_type": "Cs"}}

>  <type>  (10) 
unop_6

>  <geom_source>  (10) 
Heuristics

$$$$

     RDKit          3D

 28 27  0  0  0  0  0  0  0  0999 V2000
    0.9299    0.0766   -2.4511 C   0  0  0  0  0  0  0  0  0  0  0  0
    0.9299    0.0766   -0.9291 C   0  0  0  0  0  0  0  0  0  0  0  0
   -0.1184    0.8892   -0.4370 O   0  0  0  0  0  0  0  0  0  0  0  0
   -0.0275    2.1888   -0.9363 C   0  0  0  0  0  0  0  0  0  0  0  0
   -0.1184    2.2450   -2.3274 O   0  0  0  0  0  0  0  0  0  0  0  0
    0.9299    1.5183   -2.9392 C   0  0  0  0  0  0  0  0  0  0  0  0
    1.8039   -0.4558   -2.8330 H   0  0  0  0  0  0  0  0  0  0  0  0
    0.0333   -0.4295   -2.8141 H   0  0  0  0  0  0  0  0  0  0  0  0
    0.7392   -1.1204   -0.4403 H   0  0  0  0  0  0  0  0  0  0  0  0
    1.8935    0.4526   -0.5524 H   0  0  0  0  0  0  0  0  0  0  0  0
    0.9278    2.6408   -0.6121 H   0  0  0  0  0  0  0  0  0  0  0  0
   -0.8685    2.7493   -0.5343 H   0  0  0  0  0  0  0  0  0  0  0  0
    1.8935    1.9957   -2.7039 H   0  0  0  0  0  0  0  0  0  0  0  0
    0.7709    1.5842   -4.0147 H   0  0  0  0  0  0  0  0  0  0  0  0
    0.5482   -2.3190    0.0492 C   0  0  0  0  0  3  0  0  0  0  0  0
   -0.7033   -2.3604    0.9104 C   0  0  0  0  0  0  0  0  0  0  0  0
   -1.3459   -0.7413    1.4042 S   0  0  0  0  0  0  0  0  0  0  0  0
    0.0401   -0.0506    2.3423 C   0  0  0  0  0  0  0  0  0  0  0  0
    0.4491   -0.8519    3.5671 C   0  0  0  0  0  0  0  0  0  0  0  0
    1.3974   -1.9087    0.5981 H   0  0  0  0  0  0  0  0  0  0  0  0
    0.8211   -3.3270   -0.2709 H   0  0  0  0  0  0  0  0  0  0  0  0
   -0.5456   -2.9749    1.7983 H   0  0  0  0  0  0  0  0  0  0  0  0
   -1.5306   -2.8107    0.3594 H   0  0  0  0  0  0  0  0  0  0  0  0
    0.8899    0.1028    1.6750 H   0  0  0  0  0  0  0  0  0  0  0  0
   -0.3126    0.9397    2.6348 H   0  0  0  0  0  0  0  0  0  0  0  0
    0.8432   -1.8312    3.2905 H   0  0  0  0  0  0  0  0  0  0  0  0
    1.2325   -0.3273    4.1186 H   0  0  0  0  0  0  0  0  0  0  0  0
   -0.4004   -1.0051    4.2336 H   0  0  0  0  0  0  0  0  0  0  0  0
  1  2  1  0
  1  6  1  0
  1  7  1  0
  1  8  1  0
  2  3  1  0
  2  9  1  0
  2 10  1  0
  3  4  1  0
  4  5  1  0
  4 11  1  0
  4 12  1  0
  5  6  1  0
  6 13  1  0
  6 14  1  0
 15 16  1  0
 15 20  1  0
 15 21  1  0
 16 17  1  0
 16 22  1  0
 16 23  1  0
 17 18  1  0
 18 19  1  0
 18 24  1  0
 18 25  1  0
 19 26  1  0
 19 27  1  0
 19 28  1  0
M  RAD  1  15   2
M  END
>  <reaction>  (11) 
rmg_rxn_255

>  <mol_properties>  (11) 
{"1": {"label": "*1", "atom_type": "Cs"}, "2": {"label": "*0", "atom_type": "O2s"}, "8": {"label": "*2", "atom_type": "H0"}, "14": {"label": "*3", "atom_type": "Cs"}, "15": {"label": "*4", "atom_type": "Cs"}}

>  <type>  (11) 
unop_7

>  <geom_source>  (11) 
Heuristics

$$$$

     RDKit          3D

 28 27  0  0  0  0  0  0  0  0999 V2000
   -0.0414    1.5978   -1.3690 C   0  0  0  0  0  0  0  0  0  0  0  0
   -0.0414    1.5978    0.1531 C   0  0  0  0  0  0  0  0  0  0  0  0
   -1.0896    2.4105    0.6452 O   0  0  0  0  0  0  0  0  0  0  0  0
   -0.9987    3.7100    0.1458 C   0  0  0  0  0  0  0  0  0  0  0  0
   -1.0896    3.7662   -1.2452 O   0  0  0  0  0  0  0  0  0  0  0  0
   -0.0414    3.0395   -1.8571 C   0  0  0  0  0  0  0  0  0  0  0  0
    0.8326    1.0654   -1.7509 H   0  0  0  0  0  0  0  0  0  0  0  0
   -0.9379    1.0917   -1.7320 H   0  0  0  0  0  0  0  0  0  0  0  0
   -0.2321    0.4008    0.6419 H   0  0  0  0  0  0  0  0  0  0  0  0
    0.9223    1.9738    0.5298 H   0  0  0  0  0  0  0  0  0  0  0  0
   -0.0434    4.1621    0.4700 H   0  0  0  0  0  0  0  0  0  0  0  0
   -1.8398    4.2705    0.5478 H   0  0  0  0  0  0  0  0  0  0  0  0
    0.9223    3.5169   -1.6218 H   0  0  0  0  0  0  0  0  0  0  0  0
   -0.2003    3.1054   -2.9325 H   0  0  0  0  0  0  0  0  0  0  0  0
   -0.4231   -0.7978    1.1313 C   0  0  0  0  0  3  0  0  0  0  0  0
    0.8996   -1.5181    1.3342 C   0  0  0  0  0  0  0  0  0  0  0  0
    1.4073   -2.5859   -0.0370 S   0  0  0  0  0  0  0  0  0  0  0  0
    0.0475   -3.7787   -0.1155 C   0  0  0  0  0  0  0  0  0  0  0  0
   -0.1584   -4.6015    1.1456 C   0  0  0  0  0  0  0  0  0  0  0  0
   -1.2573   -1.4998    1.0850 H   0  0  0  0  0  0  0  0  0  0  0  0
   -0.6145   -0.1160    1.9629 H   0  0  0  0  0  0  0  0  0  0  0  0
    0.8913   -2.0953    2.2603 H   0  0  0  0  0  0  0  0  0  0  0  0
    1.7162   -0.7992    1.4193 H   0  0  0  0  0  0  0  0  0  0  0  0
   -0.8717   -3.2637   -0.3995 H   0  0  0  0  0  0  0  0  0  0  0  0
    0.3172   -4.4249   -0.9525 H   0  0  0  0  0  0  0  0  0  0  0  0
   -0.4689   -3.9760    1.9843 H   0  0  0  0  0  0  0  0  0  0  0  0
   -0.9395   -5.3483    0.9871 H   0  0  0  0  0  0  0  0  0  0  0  0
    0.7604   -5.1159    1.4292 H   0  0  0  0  0  0  0  0  0  0  0  0
  1  2  1  0
  1  6  1  0
  1  7  1  0
  1  8  1  0
  2  3  1  0
  2  9  1  0
  2 10  1  0
  3  4  1  0
  4  5  1  0
  4 11  1  0
  4 12  1  0
  5  6  1  0
  6 13  1  0
  6 14  1  0
 15 16  1  0
 15 20  1  0
 15 21  1  0
 16 17  1  0
 16 22  1  0
 16 23  1  0
 17 18  1  0
 18 19  1  0
 18 24  1  0
 18 25  1  0
 19 26  1  0
 19 27  1  0
 19 28  1  0
M  RAD  1  15   2
M  END
>  <reaction>  (12) 
rmg_rxn_255

>  <mol_properties>  (12) 
{"1": {"label": "*1", "atom_type": "Cs"}, "2": {"label": "*0", "atom_type": "O2s"}, "8": {"label": "*2", "atom_type": "H0"}, "14": {"label": "*3", "atom_type": "Cs"}, "15": {"label": "*4", "atom_type": "Cs"}}

>  <type>  (12) 
unop_8

>  <geom_source>  (12) 
Heuristics

$$$$

     RDKit          3D

 28 27  0  0  0  0  0  0  0  0999 V2000
    1.4787    0.6991   -1.2759 C   0  0  0  0  0  0  0  0  0  0  0  0
    1.4787    0.6991    0.2462 C   0  0  0  0  0  0  0  0  0  0  0  0
    0.4305    1.5117    0.7383 O   0  0  0  0  0  0  0  0  0  0  0  0
    0.5214    2.8112    0.2389 C   0  0  0  0  0  0  0  0  0  0  0  0
    0.4305    2.8674   -1.1521 O   0  0  0  0  0  0  0  0  0  0  0  0
    1.4787    2.1407   -1.7640 C   0  0  0  0  0  0  0  0  0  0  0  0
    2.3527    0.1666   -1.6577 H   0  0  0  0  0  0  0  0  0  0  0  0
    0.5822    0.1929   -1.6389 H   0  0  0  0  0  0  0  0  0  0  0  0
    1.2880   -0.4980    0.7350 H   0  0  0  0  0  0  0  0  0  0  0  0
    2.4424    1.0750    0.6229 H   0  0  0  0  0  0  0  0  0  0  0  0
    1.4767    3.2633    0.5632 H   0  0  0  0  0  0  0  0  0  0  0  0
   -0.3197    3.3717    0.6409 H   0  0  0  0  0  0  0  0  0  0  0  0
    2.4424    2.6181   -1.5287 H   0  0  0  0  0  0  0  0  0  0  0  0
    1.3198    2.2066   -2.8394 H   0  0  0  0  0  0  0  0  0  0  0  0
    1.0970   -1.6966    1.2244 C   0  0  0  0  0  3  0  0  0  0  0  0
    0.2446   -2.5359    0.2872 C   0  0  0  0  0  0  0  0  0  0  0  0
   -1.0772   -1.6333   -0.5593 S   0  0  0  0  0  0  0  0  0  0  0  0
   -2.0744   -1.0291    0.8259 C   0  0  0  0  0  0  0  0  0  0  0  0
   -2.6612   -2.1127    1.7153 C   0  0  0  0  0  0  0  0  0  0  0  0
    0.5146   -1.3253    2.0694 H   0  0  0  0  0  0  0  0  0  0  0  0
    1.9164   -2.2948    1.6289 H   0  0  0  0  0  0  0  0  0  0  0  0
   -0.1791   -3.3952    0.8097 H   0  0  0  0  0  0  0  0  0  0  0  0
    0.8517   -2.9321   -0.5285 H   0  0  0  0  0  0  0  0  0  0  0  0
   -1.4895   -0.3181    1.4117 H   0  0  0  0  0  0  0  0  0  0  0  0
   -2.8702   -0.4593    0.3435 H   0  0  0  0  0  0  0  0  0  0  0  0
   -1.8799   -2.6669    2.2382 H   0  0  0  0  0  0  0  0  0  0  0  0
   -3.3116   -1.6699    2.4728 H   0  0  0  0  0  0  0  0  0  0  0  0
   -3.2455   -2.8232    1.1295 H   0  0  0  0  0  0  0  0  0  0  0  0
  1  2  1  0
  1  6  1  0
  1  7  1  0
  1  8  1  0
  2  3  1  0
  2  9  1  0
  2 10  1  0
  3  4  1  0
  4  5  1  0
  4 11  1  0
  4 12  1  0
  5  6  1  0
  6 13  1  0
  6 14  1  0
 15 16  1  0
 15 20  1  0
 15 21  1  0
 16 17  1  0
 16 22  1  0
 16 23  1  0
 17 18  1  0
 18 19  1  0
 18 24  1  0
 18 25  1  0
 19 26  1  0
 19 27  1  0
 19 28  1  0
M  RAD  1  15   2
M  END
>  <reaction>  (13) 
rmg_rxn_255

>  <mol_properties>  (13) 
{"1": {"label": "*1", "atom_type": "Cs"}, "2": {"label": "*0", "atom_type": "O2s"}, "8": {"label": "*2", "atom_type": "H0"}, "14": {"label": "*3", "atom_type": "Cs"}, "15": {"label": "*4", "atom_type": "Cs"}}

>  <type>  (13) 
unop_9

>  <geom_source>  (13) 
Heuristics

$$$$

     RDKit          3D

 28 27  0  0  0  0  0  0  0  0999 V2000
    0.3358    1.5791   -1.0675 C   0  0  0  0  0  0  0  0  0  0  0  0
    0.3358    1.5791    0.4545 C   0  0  0  0  0  0  0  0  0  0  0  0
   -0.7125    2.3917    0.9466 O   0  0  0  0  0  0  0  0  0  0  0  0
   -0.6216    3.6913    0.4473 C   0  0  0  0  0  0  0  0  0  0  0  0
   -0.7125    3.7475   -0.9438 O   0  0  0  0  0  0  0  0  0  0  0  0
    0.3358    3.0208   -1.5556 C   0  0  0  0  0  0  0  0  0  0  0  0
    1.2098    1.0466   -1.4494 H   0  0  0  0  0  0  0  0  0  0  0  0
   -0.5608    1.0729   -1.4305 H   0  0  0  0  0  0  0  0  0  0  0  0
    0.1450    0.3821    0.9433 H   0  0  0  0  0  0  0  0  0  0  0  0
    1.2994    1.9551    0.8312 H   0  0  0  0  0  0  0  0  0  0  0  0
    0.3337    4.1433    0.7715 H   0  0  0  0  0  0  0  0  0  0  0  0
   -1.4627    4.2518    0.8493 H   0  0  0  0  0  0  0  0  0  0  0  0
    1.2994    3.4981   -1.3203 H   0  0  0  0  0  0  0  0  0  0  0  0
    0.1768    3.0867   -2.6311 H   0  0  0  0  0  0  0  0  0  0  0  0
   -0.0460   -0.8165    1.4327 C   0  0  0  0  0  3  0  0  0  0  0  0
    1.0471   -1.7691    0.9774 C   0  0  0  0  0  0  0  0  0  0  0  0
    0.7436   -2.5769   -0.6143 S   0  0  0  0  0  0  0  0  0  0  0  0
   -0.7893   -3.4858   -0.2947 C   0  0  0  0  0  0  0  0  0  0  0  0
   -0.7025   -4.5212    0.8144 C   0  0  0  0  0  0  0  0  0  0  0  0
   -0.9786   -1.3460    1.6345 H   0  0  0  0  0  0  0  0  0  0  0  0
    0.2509   -0.3127    2.3553 H   0  0  0  0  0  0  0  0  0  0  0  0
    1.2457   -2.5267    1.7373 H   0  0  0  0  0  0  0  0  0  0  0  0
    1.9823   -1.2291    0.8201 H   0  0  0  0  0  0  0  0  0  0  0  0
   -1.5984   -2.7785   -0.1054 H   0  0  0  0  0  0  0  0  0  0  0  0
   -1.0094   -3.9670   -1.2491 H   0  0  0  0  0  0  0  0  0  0  0  0
   -0.5233   -4.0538    1.7841 H   0  0  0  0  0  0  0  0  0  0  0  0
   -1.6395   -5.0777    0.8871 H   0  0  0  0  0  0  0  0  0  0  0  0
    0.1063   -5.2279    0.6249 H   0  0  0  0  0  0  0  0  0  0  0  0
  1  2  1  0
  1  6  1  0
  1  7  1  0
  1  8  1  0
  2  3  1  0
  2  9  1  0
  2 10  1  0
  3  4  1  0
  4  5  1  0
  4 11  1  0
  4 12  1  0
  5  6  1  0
  6 13  1  0
  6 14  1  0
 15 16  1  0
 15 20  1  0
 15 21  1  0
 16 17  1  0
 16 22  1  0
 16 23  1  0
 17 18  1  0
 18 19  1  0
 18 24  1  0
 18 25  1  0
 19 26  1  0
 19 27  1  0
 19 28  1  0
M  RAD  1  15   2
M  END
>  <reaction>  (14) 
rmg_rxn_255

>  <mol_properties>  (14) 
{"1": {"label": "*1", "atom_type": "Cs"}, "2": {"label": "*0", "atom_type": "O2s"}, "8": {"label": "*2", "atom_type": "H0"}, "14": {"label": "*3", "atom_type": "Cs"}, "15": {"label": "*4", "atom_type": "Cs"}}

>  <type>  (14) 
unop_10

>  <geom_source>  (14) 
Heuristics

$$$$

     RDKit          3D

 28 27  0  0  0  0  0  0  0  0999 V2000
    0.3111    0.2060   -2.6449 C   0  0  0  0  0  0  0  0  0  0  0  0
    0.3111    0.2060   -1.1228 C   0  0  0  0  0  0  0  0  0  0  0  0
   -0.7372    1.0186   -0.6307 O   0  0  0  0  0  0  0  0  0  0  0  0
   -0.6463    2.3182   -1.1300 C   0  0  0  0  0  0  0  0  0  0  0  0
   -0.7372    2.3744   -2.5211 O   0  0  0  0  0  0  0  0  0  0  0  0
    0.3111    1.6477   -3.1330 C   0  0  0  0  0  0  0  0  0  0  0  0
    1.1851   -0.3264   -3.0267 H   0  0  0  0  0  0  0  0  0  0  0  0
   -0.5855   -0.3001   -3.0079 H   0  0  0  0  0  0  0  0  0  0  0  0
    0.1204   -0.9910   -0.6340 H   0  0  0  0  0  0  0  0  0  0  0  0
    1.2747    0.5820   -0.7461 H   0  0  0  0  0  0  0  0  0  0  0  0
    0.3091    2.7703   -0.8058 H   0  0  0  0  0  0  0  0  0  0  0  0
   -1.4873    2.8787   -0.7281 H   0  0  0  0  0  0  0  0  0  0  0  0
    1.2747    2.1251   -2.8977 H   0  0  0  0  0  0  0  0  0  0  0  0
    0.1522    1.7136   -4.2084 H   0  0  0  0  0  0  0  0  0  0  0  0
   -0.0706   -2.1896   -0.1446 C   0  0  0  0  0  3  0  0  0  0  0  0
   -0.7784   -2.1208    1.1985 C   0  0  0  0  0  0  0  0  0  0  0  0
   -0.5206   -0.5845    2.1212 S   0  0  0  0  0  0  0  0  0  0  0  0
    1.2747   -0.5769    2.3557 C   0  0  0  0  0  0  0  0  0  0  0  0
    1.8254   -1.7593    3.1354 C   0  0  0  0  0  0  0  0  0  0  0  0
    1.0141   -2.1899   -0.0249 H   0  0  0  0  0  0  0  0  0  0  0  0
   -0.3425   -3.1081   -0.6693 H   0  0  0  0  0  0  0  0  0  0  0  0
   -0.5074   -2.9714    1.8262 H   0  0  0  0  0  0  0  0  0  0  0  0
   -1.8602   -2.1630    1.0620 H   0  0  0  0  0  0  0  0  0  0  0  0
    1.7673   -0.4855    1.3862 H   0  0  0  0  0  0  0  0  0  0  0  0
    1.4622    0.3545    2.8925 H   0  0  0  0  0  0  0  0  0  0  0  0
    1.6831   -2.6961    2.5939 H   0  0  0  0  0  0  0  0  0  0  0  0
    2.8979   -1.6368    3.3018 H   0  0  0  0  0  0  0  0  0  0  0  0
    1.3328   -1.8504    4.1041 H   0  0  0  0  0  0  0  0  0  0  0  0
  1  2  1  0
  1  6  1  0
  1  7  1  0
  1  8  1  0
  2  3  1  0
  2  9  1  0
  2 10  1  0
  3  4  1  0
  4  5  1  0
  4 11  1  0
  4 12  1  0
  5  6  1  0
  6 13  1  0
  6 14  1  0
 15 16  1  0
 15 20  1  0
 15 21  1  0
 16 17  1  0
 16 22  1  0
 16 23  1  0
 17 18  1  0
 18 19  1  0
 18 24  1  0
 18 25  1  0
 19 26  1  0
 19 27  1  0
 19 28  1  0
M  RAD  1  15   2
M  END
>  <reaction>  (15) 
rmg_rxn_255

>  <mol_properties>  (15) 
{"1": {"label": "*1", "atom_type": "Cs"}, "2": {"label": "*0", "atom_type": "O2s"}, "8": {"label": "*2", "atom_type": "H0"}, "14": {"label": "*3", "atom_type": "Cs"}, "15": {"label": "*4", "atom_type": "Cs"}}

>  <type>  (15) 
unop_11

>  <geom_source>  (15) 
Heuristics

$$$$

     RDKit          3D

 28 27  0  0  0  0  0  0  0  0999 V2000
    1.2356    1.0702   -1.0087 C   0  0  0  0  0  0  0  0  0  0  0  0
    1.2356    1.0702    0.5133 C   0  0  0  0  0  0  0  0  0  0  0  0
    0.1873    1.8828    1.0055 O   0  0  0  0  0  0  0  0  0  0  0  0
    0.2783    3.1824    0.5061 C   0  0  0  0  0  0  0  0  0  0  0  0
    0.1873    3.2386   -0.8849 O   0  0  0  0  0  0  0  0  0  0  0  0
    1.2356    2.5119   -1.4968 C   0  0  0  0  0  0  0  0  0  0  0  0
    2.1096    0.5378   -1.3906 H   0  0  0  0  0  0  0  0  0  0  0  0
    0.3391    0.5640   -1.3717 H   0  0  0  0  0  0  0  0  0  0  0  0
    1.0449   -0.1268    1.0022 H   0  0  0  0  0  0  0  0  0  0  0  0
    2.1993    1.4462    0.8901 H   0  0  0  0  0  0  0  0  0  0  0  0
    1.2336    3.6344    0.8303 H   0  0  0  0  0  0  0  0  0  0  0  0
   -0.5628    3.7429    0.9081 H   0  0  0  0  0  0  0  0  0  0  0  0
    2.1993    2.9893   -1.2615 H   0  0  0  0  0  0  0  0  0  0  0  0
    1.0767    2.5778   -2.5723 H   0  0  0  0  0  0  0  0  0  0  0  0
    0.8539   -1.3254    1.4916 C   0  0  0  0  0  3  0  0  0  0  0  0
    0.6912   -2.3467    0.3780 C   0  0  0  0  0  0  0  0  0  0  0  0
   -0.6121   -1.9698   -0.8210 S   0  0  0  0  0  0  0  0  0  0  0  0
   -2.0918   -1.9358    0.2219 C   0  0  0  0  0  0  0  0  0  0  0  0
   -2.3989   -3.2377    0.9432 C   0  0  0  0  0  0  0  0  0  0  0  0
   -0.0271   -1.2920    2.1348 H   0  0  0  0  0  0  0  0  0  0  0  0
    1.7089   -1.5837    2.1203 H   0  0  0  0  0  0  0  0  0  0  0  0
    0.5318   -3.3463    0.7857 H   0  0  0  0  0  0  0  0  0  0  0  0
    1.5963   -2.3958   -0.2296 H   0  0  0  0  0  0  0  0  0  0  0  0
   -2.0200   -1.1065    0.9275 H   0  0  0  0  0  0  0  0  0  0  0  0
   -2.8943   -1.6873   -0.4746 H   0  0  0  0  0  0  0  0  0  0  0  0
   -1.6260   -3.4813    1.6742 H   0  0  0  0  0  0  0  0  0  0  0  0
   -3.3457   -3.1579    1.4819 H   0  0  0  0  0  0  0  0  0  0  0  0
   -2.4704   -4.0663    0.2378 H   0  0  0  0  0  0  0  0  0  0  0  0
  1  2  1  0
  1  6  1  0
  1  7  1  0
  1  8  1  0
  2  3  1  0
  2  9  1  0
  2 10  1  0
  3  4  1  0
  4  5  1  0
  4 11  1  0
  4 12  1  0
  5  6  1  0
  6 13  1  0
  6 14  1  0
 15 16  1  0
 15 20  1  0
 15 21  1  0
 16 17  1  0
 16 22  1  0
 16 23  1  0
 17 18  1  0
 18 19  1  0
 18 24  1  0
 18 25  1  0
 19 26  1  0
 19 27  1  0
 19 28  1  0
M  RAD  1  15   2
M  END
>  <reaction>  (16) 
rmg_rxn_255

>  <mol_properties>  (16) 
{"1": {"label": "*1", "atom_type": "Cs"}, "2": {"label": "*0", "atom_type": "O2s"}, "8": {"label": "*2", "atom_type": "H0"}, "14": {"label": "*3", "atom_type": "Cs"}, "15": {"label": "*4", "atom_type": "Cs"}}

>  <type>  (16) 
unop_12

>  <geom_source>  (16) 
Heuristics

$$$$

     RDKit          3D

 28 25  0  0  0  0  0  0  0  0999 V2000
   -2.0698   -1.0427    1.3491 S   0  0  0  0  0  0  0  0  0  0  0  0
    3.7831    0.6105   -1.3873 O   0  0  0  0  0  0  0  0  0  0  0  0
    2.8939   -0.8004    0.3348 O   0  0  0  0  0  1  0  0  0  0  0  0
    1.7505    1.2232   -0.2416 C   0  0  0  0  0  3  0  0  0  0  0  0
    3.1893    1.6137   -0.5896 C   0  0  0  0  0  0  0  0  0  0  0  0
   -1.6930   -1.8190   -0.2619 C   0  0  0  0  0  0  0  0  0  0  0  0
   -3.4027    0.0429    0.7325 C   0  0  0  0  0  0  0  0  0  0  0  0
   -0.6676   -0.9950   -1.0277 C   0  0  0  0  0  0  0  0  0  0  0  0
   -3.9470    0.8911    1.8717 C   0  0  0  0  0  0  0  0  0  0  0  0
    3.8892   -0.6147   -0.6633 C   0  0  0  0  0  0  0  0  0  0  0  0
    1.6744   -0.2970   -0.1482 C   0  0  0  0  0  1  0  0  0  0  0  0
    1.4585    1.6874    0.7252 H   0  0  0  0  0  0  0  0  0  0  0  0
    1.0543    1.5674   -1.0356 H   0  0  0  0  0  0  0  0  0  0  0  0
   -2.6125   -1.9492   -0.8712 H   0  0  0  0  0  0  0  0  0  0  0  0
   -1.2660   -2.8253   -0.0683 H   0  0  0  0  0  0  0  0  0  0  0  0
   -3.0117    0.7117   -0.0623 H   0  0  0  0  0  0  0  0  0  0  0  0
   -4.2253   -0.5761    0.3154 H   0  0  0  0  0  0  0  0  0  0  0  0
    3.7858    1.7751    0.3379 H   0  0  0  0  0  0  0  0  0  0  0  0
    3.1859    2.5709   -1.1526 H   0  0  0  0  0  0  0  0  0  0  0  0
   -1.0755    0.0073   -1.2723 H   0  0  0  0  0  0  0  0  0  0  0  0
   -0.4069   -1.5123   -1.9749 H   0  0  0  0  0  0  0  0  0  0  0  0
    0.4009   -0.8585   -0.3219 H   0  0  0  0  0  0  0  0  0  0  0  0
   -4.3580    0.2392    2.6716 H   0  0  0  0  0  0  0  0  0  0  0  0
   -4.7585    1.5478    1.4933 H   0  0  0  0  0  0  0  0  0  0  0  0
   -3.1401    1.5267    2.2944 H   0  0  0  0  0  0  0  0  0  0  0  0
    4.8870   -0.6561   -0.1778 H   0  0  0  0  0  0  0  0  0  0  0  0
    3.8416   -1.4592   -1.3838 H   0  0  0  0  0  0  0  0  0  0  0  0
    0.8402   -0.6094    0.5146 H   0  0  0  0  0  0  0  0  0  0  0  0
  1  6  1  0
  1  7  1  0
  2  5  1  0
  2 10  1  0
  3 10  1  0
  4  5  1  0
  4 12  1  0
  4 13  1  0
  5 18  1  0
  5 19  1  0
  6  8  1  0
  6 14  1  0
  6 15  1  0
  7  9  1  0
  7 16  1  0
  7 17  1  0
  8 20  1  0
  8 21  1  0
  8 22  1  0
  9 23  1  0
  9 24  1  0
  9 25  1  0
 10 26  1  0
 10 27  1  0
 11 28  1  0
M  CHG  2   3  -1   4   1
M  RAD  1  11   2
M  END
>  <reaction>  (17) 
rmg_rxn_255

>  <mol_properties>  (17) 
{"1": {"label": "*1", "atom_type": "Cs"}, "2": {"label": "*0", "atom_type": "O2s"}, "8": {"label": "*2", "atom_type": "H0"}, "14": {"label": "*3", "atom_type": "Cs"}, "15": {"label": "*4", "atom_type": "Cs"}}

>  <type>  (17) 
unop_13

>  <geom_source>  (17) 
AutoTST

$$$$

     RDKit          3D

 28 27  0  0  0  0  0  0  0  0999 V2000
    0.8105    1.3986   -0.9287 C   0  0  0  0  0  0  0  0  0  0  0  0
    0.8105    1.3986    0.5933 C   0  0  0  0  0  0  0  0  0  0  0  0
   -0.2378    2.2112    1.0854 O   0  0  0  0  0  0  0  0  0  0  0  0
   -0.1469    3.5108    0.5861 C   0  0  0  0  0  0  0  0  0  0  0  0
   -0.2378    3.5670   -0.8050 O   0  0  0  0  0  0  0  0  0  0  0  0
    0.8105    2.8403   -1.4169 C   0  0  0  0  0  0  0  0  0  0  0  0
    1.6845    0.8662   -1.3106 H   0  0  0  0  0  0  0  0  0  0  0  0
   -0.0861    0.8925   -1.2918 H   0  0  0  0  0  0  0  0  0  0  0  0
    0.6198    0.2016    1.0821 H   0  0  0  0  0  0  0  0  0  0  0  0
    1.7741    1.7746    0.9700 H   0  0  0  0  0  0  0  0  0  0  0  0
    0.8085    3.9629    0.9103 H   0  0  0  0  0  0  0  0  0  0  0  0
   -0.9879    4.0713    0.9880 H   0  0  0  0  0  0  0  0  0  0  0  0
    1.7741    3.3177   -1.1816 H   0  0  0  0  0  0  0  0  0  0  0  0
    0.6516    2.9062   -2.4923 H   0  0  0  0  0  0  0  0  0  0  0  0
    0.4288   -0.9970    1.5715 C   0  0  0  0  0  3  0  0  0  0  0  0
    0.9782   -2.0597    0.6343 C   0  0  0  0  0  0  0  0  0  0  0  0
    0.0044   -2.3324   -0.8676 S   0  0  0  0  0  0  0  0  0  0  0  0
   -1.5947   -2.8522   -0.1963 C   0  0  0  0  0  0  0  0  0  0  0  0
   -1.5573   -4.1172    0.6451 C   0  0  0  0  0  0  0  0  0  0  0  0
   -0.5344   -1.2931    1.9904 H   0  0  0  0  0  0  0  0  0  0  0  0
    1.1143   -0.8378    2.4069 H   0  0  0  0  0  0  0  0  0  0  0  0
    1.1136   -3.0082    1.1567 H   0  0  0  0  0  0  0  0  0  0  0  0
    1.9592   -1.7656    0.2576 H   0  0  0  0  0  0  0  0  0  0  0  0
   -2.0408   -2.0265    0.3605 H   0  0  0  0  0  0  0  0  0  0  0  0
   -2.2119   -3.0026   -1.0836 H   0  0  0  0  0  0  0  0  0  0  0  0
   -0.9774   -3.9725    1.5582 H   0  0  0  0  0  0  0  0  0  0  0  0
   -2.5684   -4.4050    0.9414 H   0  0  0  0  0  0  0  0  0  0  0  0
   -1.1114   -4.9421    0.0884 H   0  0  0  0  0  0  0  0  0  0  0  0
  1  2  1  0
  1  6  1  0
  1  7  1  0
  1  8  1  0
  2  3  1  0
  2  9  1  0
  2 10  1  0
  3  4  1  0
  4  5  1  0
  4 11  1  0
  4 12  1  0
  5  6  1  0
  6 13  1  0
  6 14  1  0
 15 16  1  0
 15 20  1  0
 15 21  1  0
 16 17  1  0
 16 22  1  0
 16 23  1  0
 17 18  1  0
 18 19  1  0
 18 24  1  0
 18 25  1  0
 19 26  1  0
 19 27  1  0
 19 28  1  0
M  RAD  1  15   2
M  END
>  <reaction>  (18) 
rmg_rxn_255

>  <mol_properties>  (18) 
{"1": {"label": "*1", "atom_type": "Cs"}, "2": {"label": "*0", "atom_type": "O2s"}, "8": {"label": "*2", "atom_type": "H0"}, "14": {"label": "*3", "atom_type": "Cs"}, "15": {"label": "*4", "atom_type": "Cs"}}

>  <type>  (18) 
unop_14

>  <geom_source>  (18) 
gaussian_log

$$$$
