
     RDKit          3D

 18 17  0  0  0  0  0  0  0  0999 V2000
   -2.0254    0.7225    0.6719 C   0  0  0  0  0  0  0  0  0  0  0  0
   -2.2626   -0.2040   -0.5052 C   0  0  0  0  0  0  0  0  0  0  0  0
   -3.5754   -0.8355   -0.4351 N   0  0  0  0  0  0  0  0  0  0  0  0
   -3.5392   -1.8231    0.5862 O   0  0  0  0  0  0  0  0  0  0  0  0
   -4.4086   -1.5316    1.5955 C   0  0  0  0  0  0  0  0  0  0  0  0
   -4.4172   -2.2097    2.7340 C   0  0  0  0  0  0  0  0  0  0  0  0
   -3.5003   -3.3384    3.0849 C   0  0  0  0  0  0  0  0  0  0  0  0
   -2.0351    0.1658    1.6097 H   0  0  0  0  0  0  0  0  0  0  0  0
   -1.0553    1.2127    0.5795 H   0  0  0  0  0  0  0  0  0  0  0  0
   -2.8006    1.4885    0.7196 H   0  0  0  0  0  0  0  0  0  0  0  0
   -2.2617    0.3617   -1.4411 H   0  0  0  0  0  0  0  0  0  0  0  0
   -1.4639   -0.9537   -0.5663 H   0  0  0  0  0  0  0  0  0  0  0  0
   -3.7190   -1.3842   -1.2756 H   0  0  0  0  0  0  0  0  0  0  0  0
   -5.0824   -0.7134    1.3757 H   0  0  0  0  0  0  0  0  0  0  0  0
   -5.1655   -1.9143    3.4590 H   0  0  0  0  0  0  0  0  0  0  0  0
   -2.9940   -3.1485    4.0345 H   0  0  0  0  0  0  0  0  0  0  0  0
   -4.0536   -4.2744    3.1995 H   0  0  0  0  0  0  0  0  0  0  0  0
   -2.7416   -3.4886    2.3179 H   0  0  0  0  0  0  0  0  0  0  0  0
  1  2  1  0
  1  8  1  0
  1  9  1  0
  1 10  1  0
  2  3  1  0
  2 11  1  0
  2 12  1  0
  3  4  1  0
  3 13  1  0
  4  5  1  0
  5  6  2  3
  5 14  1  0
  6  7  1  0
  6 15  1  0
  7 16  1  0
  7 17  1  0
  7 18  1  0
M  END
>  <reaction>  (1) 
rmg_rxn_16755

>  <mol_properties>  (1) 
{"2": {"label": "donator", "atom_type": "N3s"}, "12": {"label": "d_hydrogen", "atom_type": "H0"}}

>  <type>  (1) 
r1h

$$$$

     RDKit          3D

  7  6  0  0  0  0  0  0  0  0999 V2000
   -0.6441   -0.1356    0.0624 C   0  0  0  0  0  0  0  0  0  0  0  0
    0.8523    0.0148   -0.0333 C   0  0  0  0  0  0  0  0  0  0  0  0
    1.6700   -0.6077    0.6603 N   0  0  0  0  0  2  0  0  0  0  0  0
   -1.0940    0.8275    0.3091 H   0  0  0  0  0  0  0  0  0  0  0  0
   -0.9104   -0.8656    0.8237 H   0  0  0  0  0  0  0  0  0  0  0  0
   -1.0427   -0.4545   -0.9022 H   0  0  0  0  0  0  0  0  0  0  0  0
    1.2362    0.7308   -0.7748 H   0  0  0  0  0  0  0  0  0  0  0  0
  1  2  1  0
  1  4  1  0
  1  5  1  0
  1  6  1  0
  2  3  2  0
  2  7  1  0
M  RAD  1   3   2
M  END
>  <reaction>  (2) 
rmg_rxn_16755

>  <mol_properties>  (2) 
{"2": {"label": "acceptor", "atom_type": "N3d"}}

>  <type>  (2) 
r2

$$$$

     RDKit          3D

  8  7  0  0  0  0  0  0  0  0999 V2000
    0.9548    0.1194   -0.0790 C   0  0  0  0  0  0  0  0  0  0  0  0
   -0.4838   -0.2649    0.0193 C   0  0  0  0  0  0  0  0  0  0  0  0
   -0.8933   -1.1081    0.8664 N   0  0  0  0  0  0  0  0  0  0  0  0
    1.3360   -0.0983   -1.0800 H   0  0  0  0  0  0  0  0  0  0  0  0
    1.0698    1.1948    0.0786 H   0  0  0  0  0  0  0  0  0  0  0  0
    1.5426   -0.4219    0.6602 H   0  0  0  0  0  0  0  0  0  0  0  0
   -1.1575    0.2324   -0.6905 H   0  0  0  0  0  0  0  0  0  0  0  0
   -1.8989   -1.2455    0.7886 H   0  0  0  0  0  0  0  0  0  0  0  0
  1  2  1  0
  1  4  1  0
  1  5  1  0
  1  6  1  0
  2  3  2  3
  2  7  1  0
  3  8  1  0
M  END
>  <reaction>  (3) 
rmg_rxn_16755

>  <mol_properties>  (3) 
{"2": {"label": "acceptor", "atom_type": "N3d"}, "7": {"label": "a_hydrogen", "atom_type": "H0"}}

>  <type>  (3) 
r2h

$$$$

     RDKit          3D

 25 23  0  0  0  0  0  0  0  0999 V2000
   -0.1691    0.8428    3.3469 C   0  0  0  0  0  0  0  0  0  0  0  0
   -0.4504    0.4227    1.9333 C   0  0  0  0  0  0  0  0  0  0  0  0
   -1.6021    0.3264    1.4582 N   0  0  0  0  0  2  0  0  0  0  0  0
    0.3922    0.0591    3.8604 H   0  0  0  0  0  0  0  0  0  0  0  0
   -1.0949    1.0397    3.8836 H   0  0  0  0  0  0  0  0  0  0  0  0
    0.4513    1.7416    3.3459 H   0  0  0  0  0  0  0  0  0  0  0  0
    0.4316    0.2020    1.3086 H   0  0  0  0  0  0  0  0  0  0  0  0
   -0.8704   -2.6092   -2.0271 C   0  0  0  0  0  0  0  0  0  0  0  0
   -1.1217   -1.9024   -0.7039 C   0  0  0  0  0  0  0  0  0  0  0  0
   -1.1668   -0.4605   -0.8605 N   0  0  0  0  0  0  0  0  0  0  0  0
    0.1560   -0.0433   -1.0185 O   0  0  0  0  0  0  0  0  0  0  0  0
    0.2233    1.2474   -1.4592 C   0  0  0  0  0  0  0  0  0  0  0  0
    1.3369    1.9577   -1.3596 C   0  0  0  0  0  0  0  0  0  0  0  0
    2.6192    1.4919   -0.7491 C   0  0  0  0  0  0  0  0  0  0  0  0
    0.1030   -2.3336   -2.4328 H   0  0  0  0  0  0  0  0  0  0  0  0
   -0.8888   -3.6907   -1.8844 H   0  0  0  0  0  0  0  0  0  0  0  0
   -1.6367   -2.3418   -2.7555 H   0  0  0  0  0  0  0  0  0  0  0  0
   -2.0970   -2.1782   -0.2982 H   0  0  0  0  0  0  0  0  0  0  0  0
   -0.3612   -2.1887    0.0336 H   0  0  0  0  0  0  0  0  0  0  0  0
   -1.5240   -0.0139    0.2065 H   0  0  0  0  0  0  0  0  0  0  0  0
   -0.6966    1.6141   -1.8961 H   0  0  0  0  0  0  0  0  0  0  0  0
    1.3032    2.9586   -1.7718 H   0  0  0  0  0  0  0  0  0  0  0  0
    2.9550    2.1869    0.0244 H   0  0  0  0  0  0  0  0  0  0  0  0
    2.5161    0.5028   -0.3042 H   0  0  0  0  0  0  0  0  0  0  0  0
    3.4138    1.4405   -1.4980 H   0  0  0  0  0  0  0  0  0  0  0  0
  1  2  1  0
  1  4  1  0
  1  5  1  0
  1  6  1  0
  2  3  2  0
  2  7  1  0
  8  9  1  0
  8 15  1  0
  8 16  1  0
  8 17  1  0
  9 10  1  0
  9 18  1  0
  9 19  1  0
 10 11  1  0
 10 20  1  0
 11 12  1  0
 12 13  2  3
 12 21  1  0
 13 14  1  0
 13 22  1  0
 14 23  1  0
 14 24  1  0
 14 25  1  0
M  RAD  1   3   2
M  END
>  <reaction>  (4) 
rmg_rxn_16755

>  <mol_properties>  (4) 
{"1": {"label": "*4", "atom_type": "Cd"}, "2": {"label": "*3", "atom_type": "N3d"}, "9": {"label": "*1", "atom_type": "N3s"}, "10": {"label": "*0", "atom_type": "O2s"}, "19": {"label": "*2", "atom_type": "H0"}}

>  <type>  (4) 
ts

$$$$

     RDKit          3D

 25 23  0  0  0  0  0  0  0  0999 V2000
    1.2022    3.3138    0.3048 C   0  0  0  0  0  0  0  0  0  0  0  0
    0.8961    1.8560    0.1574 C   0  0  0  0  0  0  0  0  0  0  0  0
    1.4764    1.1182   -0.6537 N   0  0  0  0  0  0  0  0  0  0  0  0
    1.9876    3.6055   -0.3866 H   0  0  0  0  0  0  0  0  0  0  0  0
    1.5170    3.5176    1.3272 H   0  0  0  0  0  0  0  0  0  0  0  0
    0.3021    3.8930    0.1045 H   0  0  0  0  0  0  0  0  0  0  0  0
    0.1034    1.5002    0.8384 H   0  0  0  0  0  0  0  0  0  0  0  0
    2.7770   -1.9322    0.1283 C   0  0  0  0  0  0  0  0  0  0  0  0
    1.3464   -1.7831    0.6218 C   0  0  0  0  0  0  0  0  0  0  0  0
    0.5622   -1.1360   -0.3930 N   0  0  0  0  0  2  0  0  0  0  0  0
   -0.6986   -0.8324    0.1240 O   0  0  0  0  0  0  0  0  0  0  0  0
   -1.5886   -0.4565   -0.8322 C   0  0  0  0  0  0  0  0  0  0  0  0
   -2.8232   -0.0665   -0.5269 C   0  0  0  0  0  0  0  0  0  0  0  0
   -3.3715   -0.0009    0.8595 C   0  0  0  0  0  0  0  0  0  0  0  0
    3.3700   -2.4672    0.8653 H   0  0  0  0  0  0  0  0  0  0  0  0
    2.7908   -2.4834   -0.8076 H   0  0  0  0  0  0  0  0  0  0  0  0
    3.2181   -0.9535   -0.0418 H   0  0  0  0  0  0  0  0  0  0  0  0
    0.9044   -2.7696    0.8165 H   0  0  0  0  0  0  0  0  0  0  0  0
    1.3192   -1.2204    1.5682 H   0  0  0  0  0  0  0  0  0  0  0  0
    1.1011   -0.0277   -0.6489 H   0  0  0  0  0  0  0  0  0  0  0  0
   -1.2104   -0.4915   -1.8453 H   0  0  0  0  0  0  0  0  0  0  0  0
   -3.4824    0.2170   -1.3319 H   0  0  0  0  0  0  0  0  0  0  0  0
   -3.6925    1.0147    1.0918 H   0  0  0  0  0  0  0  0  0  0  0  0
   -4.2413   -0.6507    0.9534 H   0  0  0  0  0  0  0  0  0  0  0  0
   -2.6206   -0.3113    1.5803 H   0  0  0  0  0  0  0  0  0  0  0  0
  1  2  1  0
  1  4  1  0
  1  5  1  0
  1  6  1  0
  2  3  2  3
  2  7  1  0
  3 20  1  0
  8  9  1  0
  8 15  1  0
  8 16  1  0
  8 17  1  0
  9 10  1  0
  9 18  1  0
  9 19  1  0
 10 11  1  0
 11 12  1  0
 12 13  2  3
 12 21  1  0
 13 14  1  0
 13 22  1  0
 14 23  1  0
 14 24  1  0
 14 25  1  0
M  RAD  1  10   2
M  END
>  <reaction>  (5) 
rmg_rxn_16755

>  <mol_properties>  (5) 
{"1": {"label": "*4", "atom_type": "Cd"}, "2": {"label": "*3", "atom_type": "N3d"}, "9": {"label": "*1", "atom_type": "N3s"}, "10": {"label": "*0", "atom_type": "O2s"}, "19": {"label": "*2", "atom_type": "H0"}}

>  <type>  (5) 
unop_1

>  <geom_source>  (5) 
crest_best.xyz

$$$$

     RDKit          3D

 25 23  0  0  0  0  0  0  0  0999 V2000
   -0.3241    0.8131    3.8748 C   0  0  0  0  0  0  0  0  0  0  0  0
   -0.1822   -0.0658    2.6771 C   0  0  0  0  0  0  0  0  0  0  0  0
   -1.1814   -0.6032    2.1211 N   0  0  0  0  0  2  0  0  0  0  0  0
    0.2501    0.4067    4.7113 H   0  0  0  0  0  0  0  0  0  0  0  0
   -1.3712    0.8989    4.1594 H   0  0  0  0  0  0  0  0  0  0  0  0
    0.0801    1.8065    3.6639 H   0  0  0  0  0  0  0  0  0  0  0  0
    0.8435   -0.2124    2.3147 H   0  0  0  0  0  0  0  0  0  0  0  0
   -0.9998   -1.8422   -2.3609 C   0  0  0  0  0  0  0  0  0  0  0  0
   -0.9998   -1.8422   -0.8442 C   0  0  0  0  0  0  0  0  0  0  0  0
   -0.9998   -0.4861   -0.3076 N   0  0  0  0  0  0  0  0  0  0  0  0
    0.2938    0.0688   -0.5026 O   0  0  0  0  0  0  0  0  0  0  0  0
    0.2541    1.1535   -1.3280 C   0  0  0  0  0  0  0  0  0  0  0  0
    1.3560    1.7217   -1.7962 C   0  0  0  0  0  0  0  0  0  0  0  0
    2.7554    1.2696   -1.5224 C   0  0  0  0  0  0  0  0  0  0  0  0
   -0.0947   -1.3723   -2.7472 H   0  0  0  0  0  0  0  0  0  0  0  0
   -1.0388   -2.8642   -2.7404 H   0  0  0  0  0  0  0  0  0  0  0  0
   -1.8615   -1.2942   -2.7446 H   0  0  0  0  0  0  0  0  0  0  0  0
   -1.9143   -2.3057   -0.4636 H   0  0  0  0  0  0  0  0  0  0  0  0
   -0.1483   -2.4200   -0.4639 H   0  0  0  0  0  0  0  0  0  0  0  0
   -1.0904   -0.5445    0.9044 H   0  0  0  0  0  0  0  0  0  0  0  0
   -0.7460    1.5019   -1.5518 H   0  0  0  0  0  0  0  0  0  0  0  0
    1.2134    2.5937   -2.4222 H   0  0  0  0  0  0  0  0  0  0  0  0
    3.3026    1.1091   -2.4547 H   0  0  0  0  0  0  0  0  0  0  0  0
    3.3082    2.0217   -0.9530 H   0  0  0  0  0  0  0  0  0  0  0  0
    2.7700    0.3405   -0.9541 H   0  0  0  0  0  0  0  0  0  0  0  0
  1  2  1  0
  1  4  1  0
  1  5  1  0
  1  6  1  0
  2  3  2  0
  2  7  1  0
  8  9  1  0
  8 15  1  0
  8 16  1  0
  8 17  1  0
  9 10  1  0
  9 18  1  0
  9 19  1  0
 10 11  1  0
 10 20  1  0
 11 12  1  0
 12 13  2  3
 12 21  1  0
 13 14  1  0
 13 22  1  0
 14 23  1  0
 14 24  1  0
 14 25  1  0
M  RAD  1   3   2
M  END
>  <reaction>  (6) 
rmg_rxn_16755

>  <mol_properties>  (6) 
{"1": {"label": "*4", "atom_type": "Cd"}, "2": {"label": "*3", "atom_type": "N3d"}, "9": {"label": "*1", "atom_type": "N3s"}, "10": {"label": "*0", "atom_type": "O2s"}, "19": {"label": "*2", "atom_type": "H0"}}

>  <type>  (6) 
unop_2

>  <geom_source>  (6) 
Heuristics

$$$$

     RDKit          3D

 25 23  0  0  0  0  0  0  0  0999 V2000
   -0.2120   -1.3718    3.9932 C   0  0  0  0  0  0  0  0  0  0  0  0
   -0.6150   -1.2312    2.5633 C   0  0  0  0  0  0  0  0  0  0  0  0
   -1.1432   -0.1727    2.1194 N   0  0  0  0  0  2  0  0  0  0  0  0
   -0.7344   -2.2155    4.4514 H   0  0  0  0  0  0  0  0  0  0  0  0
   -0.4407   -0.4601    4.5424 H   0  0  0  0  0  0  0  0  0  0  0  0
    0.8581   -1.5830    4.0647 H   0  0  0  0  0  0  0  0  0  0  0  0
   -0.4223   -2.1051    1.9277 H   0  0  0  0  0  0  0  0  0  0  0  0
   -0.9617   -1.4118   -2.3626 C   0  0  0  0  0  0  0  0  0  0  0  0
   -0.9617   -1.4118   -0.8459 C   0  0  0  0  0  0  0  0  0  0  0  0
   -0.9617   -0.0557   -0.3093 N   0  0  0  0  0  0  0  0  0  0  0  0
    0.3320    0.4992   -0.5043 O   0  0  0  0  0  0  0  0  0  0  0  0
    0.2923    1.5839   -1.3297 C   0  0  0  0  0  0  0  0  0  0  0  0
    1.3942    2.1521   -1.7978 C   0  0  0  0  0  0  0  0  0  0  0  0
    2.7936    1.7000   -1.5241 C   0  0  0  0  0  0  0  0  0  0  0  0
   -0.0565   -0.9418   -2.7489 H   0  0  0  0  0  0  0  0  0  0  0  0
   -1.0006   -2.4338   -2.7421 H   0  0  0  0  0  0  0  0  0  0  0  0
   -1.8233   -0.8637   -2.7463 H   0  0  0  0  0  0  0  0  0  0  0  0
   -1.8761   -1.8752   -0.4653 H   0  0  0  0  0  0  0  0  0  0  0  0
   -0.1101   -1.9895   -0.4656 H   0  0  0  0  0  0  0  0  0  0  0  0
   -1.0523   -0.1141    0.9027 H   0  0  0  0  0  0  0  0  0  0  0  0
   -0.7079    1.9324   -1.5535 H   0  0  0  0  0  0  0  0  0  0  0  0
    1.2516    3.0242   -2.4239 H   0  0  0  0  0  0  0  0  0  0  0  0
    3.3408    1.5396   -2.4564 H   0  0  0  0  0  0  0  0  0  0  0  0
    3.3464    2.4521   -0.9547 H   0  0  0  0  0  0  0  0  0  0  0  0
    2.8082    0.7709   -0.9557 H   0  0  0  0  0  0  0  0  0  0  0  0
  1  2  1  0
  1  4  1  0
  1  5  1  0
  1  6  1  0
  2  3  2  0
  2  7  1  0
  8  9  1  0
  8 15  1  0
  8 16  1  0
  8 17  1  0
  9 10  1  0
  9 18  1  0
  9 19  1  0
 10 11  1  0
 10 20  1  0
 11 12  1  0
 12 13  2  3
 12 21  1  0
 13 14  1  0
 13 22  1  0
 14 23  1  0
 14 24  1  0
 14 25  1  0
M  RAD  1   3   2
M  END
>  <reaction>  (7) 
rmg_rxn_16755

>  <mol_properties>  (7) 
{"1": {"label": "*4", "atom_type": "Cd"}, "2": {"label": "*3", "atom_type": "N3d"}, "9": {"label": "*1", "atom_type": "N3s"}, "10": {"label": "*0", "atom_type": "O2s"}, "19": {"label": "*2", "atom_type": "H0"}}

>  <type>  (7) 
unop_3

>  <geom_source>  (7) 
Heuristics

$$$$

     RDKit          3D

 25 23  0  0  0  0  0  0  0  0999 V2000
   -0.9545    0.8951    3.9523 C   0  0  0  0  0  0  0  0  0  0  0  0
   -0.4818    0.3197    2.6591 C   0  0  0  0  0  0  0  0  0  0  0  0
   -1.0617   -0.6611    2.1131 N   0  0  0  0  0  2  0  0  0  0  0  0
   -0.1595    0.8450    4.7007 H   0  0  0  0  0  0  0  0  0  0  0  0
   -1.8274    0.3528    4.3114 H   0  0  0  0  0  0  0  0  0  0  0  0
   -1.2066    1.9511    3.8258 H   0  0  0  0  0  0  0  0  0  0  0  0
    0.3987    0.8040    2.2177 H   0  0  0  0  0  0  0  0  0  0  0  0
   -0.8801   -1.9002   -2.3689 C   0  0  0  0  0  0  0  0  0  0  0  0
   -0.8801   -1.9002   -0.8523 C   0  0  0  0  0  0  0  0  0  0  0  0
   -0.8801   -0.5441   -0.3156 N   0  0  0  0  0  0  0  0  0  0  0  0
    0.4136    0.0108   -0.5106 O   0  0  0  0  0  0  0  0  0  0  0  0
    0.3738    1.0955   -1.3360 C   0  0  0  0  0  0  0  0  0  0  0  0
    1.4757    1.6637   -1.8042 C   0  0  0  0  0  0  0  0  0  0  0  0
    2.8751    1.2116   -1.5304 C   0  0  0  0  0  0  0  0  0  0  0  0
    0.0250   -1.4302   -2.7553 H   0  0  0  0  0  0  0  0  0  0  0  0
   -0.9191   -2.9222   -2.7485 H   0  0  0  0  0  0  0  0  0  0  0  0
   -1.7418   -1.3522   -2.7526 H   0  0  0  0  0  0  0  0  0  0  0  0
   -1.7946   -2.3637   -0.4716 H   0  0  0  0  0  0  0  0  0  0  0  0
   -0.0285   -2.4780   -0.4719 H   0  0  0  0  0  0  0  0  0  0  0  0
   -0.9707   -0.6025    0.8964 H   0  0  0  0  0  0  0  0  0  0  0  0
   -0.6263    1.4440   -1.5598 H   0  0  0  0  0  0  0  0  0  0  0  0
    1.3331    2.5358   -2.4302 H   0  0  0  0  0  0  0  0  0  0  0  0
    3.4223    1.0511   -2.4627 H   0  0  0  0  0  0  0  0  0  0  0  0
    3.4279    1.9637   -0.9610 H   0  0  0  0  0  0  0  0  0  0  0  0
    2.8897    0.2825   -0.9621 H   0  0  0  0  0  0  0  0  0  0  0  0
  1  2  1  0
  1  4  1  0
  1  5  1  0
  1  6  1  0
  2  3  2  0
  2  7  1  0
  8  9  1  0
  8 15  1  0
  8 16  1  0
  8 17  1  0
  9 10  1  0
  9 18  1  0
  9 19  1  0
 10 11  1  0
 10 20  1  0
 11 12  1  0
 12 13  2  3
 12 21  1  0
 13 14  1  0
 13 22  1  0
 14 23  1  0
 14 24  1  0
 14 25  1  0
M  RAD  1   3   2
M  END
>  <reaction>  (8) 
rmg_rxn_16755

>  <mol_properties>  (8) 
{"1": {"label": "*4", "atom_type": "Cd"}, "2": {"label": "*3", "atom_type": "N3d"}, "9": {"label": "*1", "atom_type": "N3s"}, "10": {"label": "*0", "atom_type": "O2s"}, "19": {"label": "*2", "atom_type": "H0"}}

>  <type>  (8) 
unop_4

>  <geom_source>  (8) 
Heuristics

$$$$

     RDKit          3D

 25 23  0  0  0  0  0  0  0  0999 V2000
   -2.5046   -0.5239    3.7465 C   0  0  0  0  0  0  0  0  0  0  0  0
   -1.7670   -0.9052    2.5065 C   0  0  0  0  0  0  0  0  0  0  0  0
   -0.7002   -0.3243    2.1588 N   0  0  0  0  0  2  0  0  0  0  0  0
   -3.5231   -0.2137    3.4994 H   0  0  0  0  0  0  0  0  0  0  0  0
   -1.9907    0.2880    4.2581 H   0  0  0  0  0  0  0  0  0  0  0  0
   -2.5872   -1.3838    4.4160 H   0  0  0  0  0  0  0  0  0  0  0  0
   -2.2122   -1.7200    1.9210 H   0  0  0  0  0  0  0  0  0  0  0  0
   -0.5187   -1.5634   -2.3231 C   0  0  0  0  0  0  0  0  0  0  0  0
   -0.5187   -1.5634   -0.8065 C   0  0  0  0  0  0  0  0  0  0  0  0
   -0.5187   -0.2073   -0.2698 N   0  0  0  0  0  0  0  0  0  0  0  0
    0.7750    0.3476   -0.4648 O   0  0  0  0  0  0  0  0  0  0  0  0
    0.7353    1.4323   -1.2903 C   0  0  0  0  0  0  0  0  0  0  0  0
    1.8372    2.0005   -1.7584 C   0  0  0  0  0  0  0  0  0  0  0  0
    3.2366    1.5484   -1.4846 C   0  0  0  0  0  0  0  0  0  0  0  0
    0.3865   -1.0934   -2.7095 H   0  0  0  0  0  0  0  0  0  0  0  0
   -0.5576   -2.5854   -2.7027 H   0  0  0  0  0  0  0  0  0  0  0  0
   -1.3803   -1.0153   -2.7068 H   0  0  0  0  0  0  0  0  0  0  0  0
   -1.4331   -2.0268   -0.4258 H   0  0  0  0  0  0  0  0  0  0  0  0
    0.3329   -2.1411   -0.4261 H   0  0  0  0  0  0  0  0  0  0  0  0
   -0.6093   -0.2657    0.9422 H   0  0  0  0  0  0  0  0  0  0  0  0
   -0.2649    1.7808   -1.5140 H   0  0  0  0  0  0  0  0  0  0  0  0
    1.6946    2.8726   -2.3844 H   0  0  0  0  0  0  0  0  0  0  0  0
    3.7838    1.3880   -2.4169 H   0  0  0  0  0  0  0  0  0  0  0  0
    3.7894    2.3005   -0.9152 H   0  0  0  0  0  0  0  0  0  0  0  0
    3.2512    0.6193   -0.9163 H   0  0  0  0  0  0  0  0  0  0  0  0
  1  2  1  0
  1  4  1  0
  1  5  1  0
  1  6  1  0
  2  3  2  0
  2  7  1  0
  8  9  1  0
  8 15  1  0
  8 16  1  0
  8 17  1  0
  9 10  1  0
  9 18  1  0
  9 19  1  0
 10 11  1  0
 10 20  1  0
 11 12  1  0
 12 13  2  3
 12 21  1  0
 13 14  1  0
 13 22  1  0
 14 23  1  0
 14 24  1  0
 14 25  1  0
M  RAD  1   3   2
M  END
>  <reaction>  (9) 
rmg_rxn_16755

>  <mol_properties>  (9) 
{"1": {"label": "*4", "atom_type": "Cd"}, "2": {"label": "*3", "atom_type": "N3d"}, "9": {"label": "*1", "atom_type": "N3s"}, "10": {"label": "*0", "atom_type": "O2s"}, "19": {"label": "*2", "atom_type": "H0"}}

>  <type>  (9) 
unop_5

>  <geom_source>  (9) 
Heuristics

$$$$

     RDKit          3D

 25 23  0  0  0  0  0  0  0  0999 V2000
   -1.0883    0.7078    4.0859 C   0  0  0  0  0  0  0  0  0  0  0  0
   -0.9863    0.4974    2.6120 C   0  0  0  0  0  0  0  0  0  0  0  0
   -0.9823   -0.6582    2.1012 N   0  0  0  0  0  2  0  0  0  0  0  0
   -0.2179    1.2601    4.4494 H   0  0  0  0  0  0  0  0  0  0  0  0
   -1.1538   -0.2488    4.6013 H   0  0  0  0  0  0  0  0  0  0  0  0
   -1.9690    1.3109    4.3210 H   0  0  0  0  0  0  0  0  0  0  0  0
   -0.9153    1.4099    2.0061 H   0  0  0  0  0  0  0  0  0  0  0  0
   -0.8008   -1.8973   -2.3808 C   0  0  0  0  0  0  0  0  0  0  0  0
   -0.8008   -1.8973   -0.8641 C   0  0  0  0  0  0  0  0  0  0  0  0
   -0.8008   -0.5412   -0.3275 N   0  0  0  0  0  0  0  0  0  0  0  0
    0.4929    0.0137   -0.5225 O   0  0  0  0  0  0  0  0  0  0  0  0
    0.4532    1.0985   -1.3479 C   0  0  0  0  0  0  0  0  0  0  0  0
    1.5550    1.6666   -1.8160 C   0  0  0  0  0  0  0  0  0  0  0  0
    2.9545    1.2145   -1.5423 C   0  0  0  0  0  0  0  0  0  0  0  0
    0.1043   -1.4273   -2.7671 H   0  0  0  0  0  0  0  0  0  0  0  0
   -0.8397   -2.9193   -2.7603 H   0  0  0  0  0  0  0  0  0  0  0  0
   -1.6625   -1.3492   -2.7645 H   0  0  0  0  0  0  0  0  0  0  0  0
   -1.7153   -2.3607   -0.4835 H   0  0  0  0  0  0  0  0  0  0  0  0
    0.0508   -2.4750   -0.4838 H   0  0  0  0  0  0  0  0  0  0  0  0
   -0.8914   -0.5996    0.8845 H   0  0  0  0  0  0  0  0  0  0  0  0
   -0.5470    1.4469   -1.5717 H   0  0  0  0  0  0  0  0  0  0  0  0
    1.4125    2.5387   -2.4420 H   0  0  0  0  0  0  0  0  0  0  0  0
    3.5016    1.0541   -2.4745 H   0  0  0  0  0  0  0  0  0  0  0  0
    3.5072    1.9666   -0.9729 H   0  0  0  0  0  0  0  0  0  0  0  0
    2.9691    0.2855   -0.9739 H   0  0  0  0  0  0  0  0  0  0  0  0
  1  2  1  0
  1  4  1  0
  1  5  1  0
  1  6  1  0
  2  3  2  0
  2  7  1  0
  8  9  1  0
  8 15  1  0
  8 16  1  0
  8 17  1  0
  9 10  1  0
  9 18  1  0
  9 19  1  0
 10 11  1  0
 10 20  1  0
 11 12  1  0
 12 13  2  3
 12 21  1  0
 13 14  1  0
 13 22  1  0
 14 23  1  0
 14 24  1  0
 14 25  1  0
M  RAD  1   3   2
M  END
>  <reaction>  (10) 
rmg_rxn_16755

>  <mol_properties>  (10) 
{"1": {"label": "*4", "atom_type": "Cd"}, "2": {"label": "*3", "atom_type": "N3d"}, "9": {"label": "*1", "atom_type": "N3s"}, "10": {"label": "*0", "atom_type": "O2s"}, "19": {"label": "*2", "atom_type": "H0"}}

>  <type>  (10) 
unop_6

>  <geom_source>  (10) 
Heuristics

$$$$

     RDKit          3D

 25 23  0  0  0  0  0  0  0  0999 V2000
   -2.3690    0.3142    3.7075 C   0  0  0  0  0  0  0  0  0  0  0  0
   -1.9099   -0.4750    2.5271 C   0  0  0  0  0  0  0  0  0  0  0  0
   -0.7006   -0.4874    2.1615 N   0  0  0  0  0  2  0  0  0  0  0  0
   -3.1314    1.0366    3.4051 H   0  0  0  0  0  0  0  0  0  0  0  0
   -1.5301    0.8387    4.1616 H   0  0  0  0  0  0  0  0  0  0  0  0
   -2.8308   -0.3457    4.4463 H   0  0  0  0  0  0  0  0  0  0  0  0
   -2.6903   -1.0405    2.0016 H   0  0  0  0  0  0  0  0  0  0  0  0
   -0.5190   -1.7264   -2.3205 C   0  0  0  0  0  0  0  0  0  0  0  0
   -0.5190   -1.7264   -0.8039 C   0  0  0  0  0  0  0  0  0  0  0  0
   -0.5190   -0.3703   -0.2672 N   0  0  0  0  0  0  0  0  0  0  0  0
    0.7746    0.1845   -0.4622 O   0  0  0  0  0  0  0  0  0  0  0  0
    0.7349    1.2693   -1.2876 C   0  0  0  0  0  0  0  0  0  0  0  0
    1.8368    1.8375   -1.7558 C   0  0  0  0  0  0  0  0  0  0  0  0
    3.2362    1.3854   -1.4820 C   0  0  0  0  0  0  0  0  0  0  0  0
    0.3861   -1.2565   -2.7068 H   0  0  0  0  0  0  0  0  0  0  0  0
   -0.5580   -2.7485   -2.7001 H   0  0  0  0  0  0  0  0  0  0  0  0
   -1.3807   -1.1784   -2.7042 H   0  0  0  0  0  0  0  0  0  0  0  0
   -1.4335   -2.1899   -0.4232 H   0  0  0  0  0  0  0  0  0  0  0  0
    0.3325   -2.3042   -0.4235 H   0  0  0  0  0  0  0  0  0  0  0  0
   -0.6096   -0.4287    0.9448 H   0  0  0  0  0  0  0  0  0  0  0  0
   -0.2652    1.6177   -1.5114 H   0  0  0  0  0  0  0  0  0  0  0  0
    1.6942    2.7095   -2.3818 H   0  0  0  0  0  0  0  0  0  0  0  0
    3.7834    1.2249   -2.4143 H   0  0  0  0  0  0  0  0  0  0  0  0
    3.7890    2.1375   -0.9126 H   0  0  0  0  0  0  0  0  0  0  0  0
    3.2508    0.4563   -0.9137 H   0  0  0  0  0  0  0  0  0  0  0  0
  1  2  1  0
  1  4  1  0
  1  5  1  0
  1  6  1  0
  2  3  2  0
  2  7  1  0
  8  9  1  0
  8 15  1  0
  8 16  1  0
  8 17  1  0
  9 10  1  0
  9 18  1  0
  9 19  1  0
 10 11  1  0
 10 20  1  0
 11 12  1  0
 12 13  2  3
 12 21  1  0
 13 14  1  0
 13 22  1  0
 14 23  1  0
 14 24  1  0
 14 25  1  0
M  RAD  1   3   2
M  END
>  <reaction>  (11) 
rmg_rxn_16755

>  <mol_properties>  (11) 
{"1": {"label": "*4", "atom_type": "Cd"}, "2": {"label": "*3", "atom_type": "N3d"}, "9": {"label": "*1", "atom_type": "N3s"}, "10": {"label": "*0", "atom_type": "O2s"}, "19": {"label": "*2", "atom_type": "H0"}}

>  <type>  (11) 
unop_7

>  <geom_source>  (11) 
Heuristics

$$$$

     RDKit          3D

 25 23  0  0  0  0  0  0  0  0999 V2000
   -1.8062    0.8561    3.7660 C   0  0  0  0  0  0  0  0  0  0  0  0
   -1.8224   -0.0182    2.5567 C   0  0  0  0  0  0  0  0  0  0  0  0
   -0.7855   -0.6147    2.1501 N   0  0  0  0  0  2  0  0  0  0  0  0
   -2.1173    1.8703    3.5027 H   0  0  0  0  0  0  0  0  0  0  0  0
   -0.8085    0.8826    4.2007 H   0  0  0  0  0  0  0  0  0  0  0  0
   -2.5187    0.4870    4.5082 H   0  0  0  0  0  0  0  0  0  0  0  0
   -2.7910   -0.1069    2.0481 H   0  0  0  0  0  0  0  0  0  0  0  0
   -0.6039   -1.8537   -2.3319 C   0  0  0  0  0  0  0  0  0  0  0  0
   -0.6039   -1.8537   -0.8152 C   0  0  0  0  0  0  0  0  0  0  0  0
   -0.6039   -0.4976   -0.2785 N   0  0  0  0  0  0  0  0  0  0  0  0
    0.6898    0.0573   -0.4736 O   0  0  0  0  0  0  0  0  0  0  0  0
    0.6501    1.1420   -1.2990 C   0  0  0  0  0  0  0  0  0  0  0  0
    1.7519    1.7102   -1.7671 C   0  0  0  0  0  0  0  0  0  0  0  0
    3.1513    1.2581   -1.4934 C   0  0  0  0  0  0  0  0  0  0  0  0
    0.3012   -1.3838   -2.7182 H   0  0  0  0  0  0  0  0  0  0  0  0
   -0.6428   -2.8757   -2.7114 H   0  0  0  0  0  0  0  0  0  0  0  0
   -1.4656   -1.3057   -2.7156 H   0  0  0  0  0  0  0  0  0  0  0  0
   -1.5184   -2.3172   -0.4346 H   0  0  0  0  0  0  0  0  0  0  0  0
    0.2477   -2.4315   -0.4349 H   0  0  0  0  0  0  0  0  0  0  0  0
   -0.6945   -0.5560    0.9334 H   0  0  0  0  0  0  0  0  0  0  0  0
   -0.3501    1.4904   -1.5228 H   0  0  0  0  0  0  0  0  0  0  0  0
    1.6093    2.5822   -2.3931 H   0  0  0  0  0  0  0  0  0  0  0  0
    3.6985    1.0976   -2.4256 H   0  0  0  0  0  0  0  0  0  0  0  0
    3.7041    2.0102   -0.9240 H   0  0  0  0  0  0  0  0  0  0  0  0
    3.1660    0.3290   -0.9250 H   0  0  0  0  0  0  0  0  0  0  0  0
  1  2  1  0
  1  4  1  0
  1  5  1  0
  1  6  1  0
  2  3  2  0
  2  7  1  0
  8  9  1  0
  8 15  1  0
  8 16  1  0
  8 17  1  0
  9 10  1  0
  9 18  1  0
  9 19  1  0
 10 11  1  0
 10 20  1  0
 11 12  1  0
 12 13  2  3
 12 21  1  0
 13 14  1  0
 13 22  1  0
 14 23  1  0
 14 24  1  0
 14 25  1  0
M  RAD  1   3   2
M  END
>  <reaction>  (12) 
rmg_rxn_16755

>  <mol_properties>  (12) 
{"1": {"label": "*4", "atom_type": "Cd"}, "2": {"label": "*3", "atom_type": "N3d"}, "9": {"label": "*1", "atom_type": "N3s"}, "10": {"label": "*0", "atom_type": "O2s"}, "19": {"label": "*2", "atom_type": "H0"}}

>  <type>  (12) 
unop_8

>  <geom_source>  (12) 
Heuristics

$$$$

     RDKit          3D

 25 23  0  0  0  0  0  0  0  0999 V2000
    0.2090    0.2394    3.8966 C   0  0  0  0  0  0  0  0  0  0  0  0
   -0.1177   -0.5271    2.6585 C   0  0  0  0  0  0  0  0  0  0  0  0
   -1.2595   -0.4712    2.1205 N   0  0  0  0  0  2  0  0  0  0  0  0
    0.5194   -0.4430    4.6920 H   0  0  0  0  0  0  0  0  0  0  0  0
   -0.6554    0.8133    4.2258 H   0  0  0  0  0  0  0  0  0  0  0  0
    1.0479    0.9153    3.7117 H   0  0  0  0  0  0  0  0  0  0  0  0
    0.6970   -1.1388    2.2501 H   0  0  0  0  0  0  0  0  0  0  0  0
   -1.0780   -1.7102   -2.3615 C   0  0  0  0  0  0  0  0  0  0  0  0
   -1.0780   -1.7102   -0.8449 C   0  0  0  0  0  0  0  0  0  0  0  0
   -1.0780   -0.3541   -0.3082 N   0  0  0  0  0  0  0  0  0  0  0  0
    0.2157    0.2008   -0.5032 O   0  0  0  0  0  0  0  0  0  0  0  0
    0.1760    1.2855   -1.3286 C   0  0  0  0  0  0  0  0  0  0  0  0
    1.2778    1.8537   -1.7968 C   0  0  0  0  0  0  0  0  0  0  0  0
    2.6773    1.4016   -1.5230 C   0  0  0  0  0  0  0  0  0  0  0  0
   -0.1729   -1.2403   -2.7478 H   0  0  0  0  0  0  0  0  0  0  0  0
   -1.1169   -2.7322   -2.7411 H   0  0  0  0  0  0  0  0  0  0  0  0
   -1.9397   -1.1622   -2.7452 H   0  0  0  0  0  0  0  0  0  0  0  0
   -1.9925   -2.1737   -0.4642 H   0  0  0  0  0  0  0  0  0  0  0  0
   -0.2264   -2.2880   -0.4645 H   0  0  0  0  0  0  0  0  0  0  0  0
   -1.1686   -0.4125    0.9038 H   0  0  0  0  0  0  0  0  0  0  0  0
   -0.8242    1.6340   -1.5524 H   0  0  0  0  0  0  0  0  0  0  0  0
    1.1353    2.7258   -2.4228 H   0  0  0  0  0  0  0  0  0  0  0  0
    3.2244    1.2411   -2.4553 H   0  0  0  0  0  0  0  0  0  0  0  0
    3.2300    2.1537   -0.9536 H   0  0  0  0  0  0  0  0  0  0  0  0
    2.6919    0.4725   -0.9547 H   0  0  0  0  0  0  0  0  0  0  0  0
  1  2  1  0
  1  4  1  0
  1  5  1  0
  1  6  1  0
  2  3  2  0
  2  7  1  0
  8  9  1  0
  8 15  1  0
  8 16  1  0
  8 17  1  0
  9 10  1  0
  9 18  1  0
  9 19  1  0
 10 11  1  0
 10 20  1  0
 11 12  1  0
 12 13  2  3
 12 21  1  0
 13 14  1  0
 13 22  1  0
 14 23  1  0
 14 24  1  0
 14 25  1  0
M  RAD  1   3   2
M  END
>  <reaction>  (13) 
rmg_rxn_16755

>  <mol_properties>  (13) 
{"1": {"label": "*4", "atom_type": "Cd"}, "2": {"label": "*3", "atom_type": "N3d"}, "9": {"label": "*1", "atom_type": "N3s"}, "10": {"label": "*0", "atom_type": "O2s"}, "19": {"label": "*2", "atom_type": "H0"}}

>  <type>  (13) 
unop_9

>  <geom_source>  (13) 
Heuristics

$$$$

     RDKit          3D

 25 23  0  0  0  0  0  0  0  0999 V2000
    1.2022    3.3138    0.3048 C   0  0  0  0  0  0  0  0  0  0  0  0
    0.8961    1.8560    0.1574 C   0  0  0  0  0  0  0  0  0  0  0  0
    1.4764    1.1182   -0.6537 N   0  0  0  0  0  0  0  0  0  0  0  0
    1.9876    3.6055   -0.3866 H   0  0  0  0  0  0  0  0  0  0  0  0
    1.5170    3.5176    1.3272 H   0  0  0  0  0  0  0  0  0  0  0  0
    0.3021    3.8930    0.1045 H   0  0  0  0  0  0  0  0  0  0  0  0
    0.1034    1.5002    0.8384 H   0  0  0  0  0  0  0  0  0  0  0  0
    2.7770   -1.9322    0.1283 C   0  0  0  0  0  0  0  0  0  0  0  0
    1.3464   -1.7831    0.6218 C   0  0  0  0  0  0  0  0  0  0  0  0
    0.5622   -1.1360   -0.3930 N   0  0  0  0  0  2  0  0  0  0  0  0
   -0.6986   -0.8324    0.1240 O   0  0  0  0  0  0  0  0  0  0  0  0
   -1.5886   -0.4565   -0.8322 C   0  0  0  0  0  0  0  0  0  0  0  0
   -2.8232   -0.0665   -0.5269 C   0  0  0  0  0  0  0  0  0  0  0  0
   -3.3715   -0.0009    0.8595 C   0  0  0  0  0  0  0  0  0  0  0  0
    3.3700   -2.4672    0.8653 H   0  0  0  0  0  0  0  0  0  0  0  0
    2.7908   -2.4834   -0.8076 H   0  0  0  0  0  0  0  0  0  0  0  0
    3.2181   -0.9535   -0.0418 H   0  0  0  0  0  0  0  0  0  0  0  0
    0.9044   -2.7696    0.8165 H   0  0  0  0  0  0  0  0  0  0  0  0
    1.3192   -1.2204    1.5682 H   0  0  0  0  0  0  0  0  0  0  0  0
    1.1011   -0.0277   -0.6489 H   0  0  0  0  0  0  0  0  0  0  0  0
   -1.2104   -0.4915   -1.8453 H   0  0  0  0  0  0  0  0  0  0  0  0
   -3.4824    0.2170   -1.3319 H   0  0  0  0  0  0  0  0  0  0  0  0
   -3.6925    1.0147    1.0918 H   0  0  0  0  0  0  0  0  0  0  0  0
   -4.2413   -0.6507    0.9534 H   0  0  0  0  0  0  0  0  0  0  0  0
   -2.6206   -0.3113    1.5803 H   0  0  0  0  0  0  0  0  0  0  0  0
  1  2  1  0
  1  4  1  0
  1  5  1  0
  1  6  1  0
  2  3  2  3
  2  7  1  0
  3 20  1  0
  8  9  1  0
  8 15  1  0
  8 16  1  0
  8 17  1  0
  9 10  1  0
  9 18  1  0
  9 19  1  0
 10 11  1  0
 11 12  1  0
 12 13  2  3
 12 21  1  0
 13 14  1  0
 13 22  1  0
 14 23  1  0
 14 24  1  0
 14 25  1  0
M  RAD  1  10   2
M  END
>  <reaction>  (14) 
rmg_rxn_16755

>  <mol_properties>  (14) 
{"1": {"label": "*4", "atom_type": "Cd"}, "2": {"label": "*3", "atom_type": "N3d"}, "9": {"label": "*1", "atom_type": "N3s"}, "10": {"label": "*0", "atom_type": "O2s"}, "19": {"label": "*2", "atom_type": "H0"}}

>  <type>  (14) 
unop_10

>  <geom_source>  (14) 
Heuristics

$$$$

     RDKit          3D

 25 23  0  0  0  0  0  0  0  0999 V2000
   -2.0602   -1.3181    3.8576 C   0  0  0  0  0  0  0  0  0  0  0  0
   -1.4455   -1.2071    2.5023 C   0  0  0  0  0  0  0  0  0  0  0  0
   -0.7981   -0.1827    2.1447 N   0  0  0  0  0  2  0  0  0  0  0  0
   -3.1396   -1.4670    3.7715 H   0  0  0  0  0  0  0  0  0  0  0  0
   -1.8618   -0.4189    4.4382 H   0  0  0  0  0  0  0  0  0  0  0  0
   -1.6597   -2.1886    4.3835 H   0  0  0  0  0  0  0  0  0  0  0  0
   -1.5936   -2.0711    1.8417 H   0  0  0  0  0  0  0  0  0  0  0  0
   -0.6165   -1.4218   -2.3373 C   0  0  0  0  0  0  0  0  0  0  0  0
   -0.6165   -1.4218   -0.8206 C   0  0  0  0  0  0  0  0  0  0  0  0
   -0.6165   -0.0657   -0.2840 N   0  0  0  0  0  0  0  0  0  0  0  0
    0.6771    0.4892   -0.4790 O   0  0  0  0  0  0  0  0  0  0  0  0
    0.6374    1.5739   -1.3044 C   0  0  0  0  0  0  0  0  0  0  0  0
    1.7393    2.1421   -1.7725 C   0  0  0  0  0  0  0  0  0  0  0  0
    3.1387    1.6900   -1.4988 C   0  0  0  0  0  0  0  0  0  0  0  0
    0.2886   -0.9518   -2.7236 H   0  0  0  0  0  0  0  0  0  0  0  0
   -0.6555   -2.4438   -2.7168 H   0  0  0  0  0  0  0  0  0  0  0  0
   -1.4782   -0.8738   -2.7210 H   0  0  0  0  0  0  0  0  0  0  0  0
   -1.5310   -1.8853   -0.4400 H   0  0  0  0  0  0  0  0  0  0  0  0
    0.2350   -1.9996   -0.4403 H   0  0  0  0  0  0  0  0  0  0  0  0
   -0.7071   -0.1241    0.9280 H   0  0  0  0  0  0  0  0  0  0  0  0
   -0.3627    1.9224   -1.5282 H   0  0  0  0  0  0  0  0  0  0  0  0
    1.5967    3.0142   -2.3985 H   0  0  0  0  0  0  0  0  0  0  0  0
    3.6859    1.5295   -2.4310 H   0  0  0  0  0  0  0  0  0  0  0  0
    3.6915    2.4421   -0.9294 H   0  0  0  0  0  0  0  0  0  0  0  0
    3.1533    0.7609   -0.9304 H   0  0  0  0  0  0  0  0  0  0  0  0
  1  2  1  0
  1  4  1  0
  1  5  1  0
  1  6  1  0
  2  3  2  0
  2  7  1  0
  8  9  1  0
  8 15  1  0
  8 16  1  0
  8 17  1  0
  9 10  1  0
  9 18  1  0
  9 19  1  0
 10 11  1  0
 10 20  1  0
 11 12  1  0
 12 13  2  3
 12 21  1  0
 13 14  1  0
 13 22  1  0
 14 23  1  0
 14 24  1  0
 14 25  1  0
M  RAD  1   3   2
M  END
>  <reaction>  (15) 
rmg_rxn_16755

>  <mol_properties>  (15) 
{"1": {"label": "*4", "atom_type": "Cd"}, "2": {"label": "*3", "atom_type": "N3d"}, "9": {"label": "*1", "atom_type": "N3s"}, "10": {"label": "*0", "atom_type": "O2s"}, "19": {"label": "*2", "atom_type": "H0"}}

>  <type>  (15) 
unop_11

>  <geom_source>  (15) 
Heuristics

$$$$

     RDKit          3D

 25 23  0  0  0  0  0  0  0  0999 V2000
    0.2890   -0.6049    3.9514 C   0  0  0  0  0  0  0  0  0  0  0  0
   -0.2807   -0.9484    2.6155 C   0  0  0  0  0  0  0  0  0  0  0  0
   -1.2501   -0.3084    2.1185 N   0  0  0  0  0  2  0  0  0  0  0  0
    0.2233   -1.4654    4.6222 H   0  0  0  0  0  0  0  0  0  0  0  0
   -0.2463    0.2374    4.3861 H   0  0  0  0  0  0  0  0  0  0  0  0
    1.3488   -0.3551    3.8568 H   0  0  0  0  0  0  0  0  0  0  0  0
    0.1973   -1.7899    2.0977 H   0  0  0  0  0  0  0  0  0  0  0  0
   -1.0686   -1.5474   -2.3635 C   0  0  0  0  0  0  0  0  0  0  0  0
   -1.0686   -1.5474   -0.8468 C   0  0  0  0  0  0  0  0  0  0  0  0
   -1.0686   -0.1913   -0.3102 N   0  0  0  0  0  0  0  0  0  0  0  0
    0.2251    0.3636   -0.5052 O   0  0  0  0  0  0  0  0  0  0  0  0
    0.1854    1.4483   -1.3306 C   0  0  0  0  0  0  0  0  0  0  0  0
    1.2873    2.0165   -1.7987 C   0  0  0  0  0  0  0  0  0  0  0  0
    2.6867    1.5644   -1.5250 C   0  0  0  0  0  0  0  0  0  0  0  0
   -0.1634   -1.0775   -2.7498 H   0  0  0  0  0  0  0  0  0  0  0  0
   -1.1075   -2.5694   -2.7430 H   0  0  0  0  0  0  0  0  0  0  0  0
   -1.9302   -0.9994   -2.7472 H   0  0  0  0  0  0  0  0  0  0  0  0
   -1.9830   -2.0109   -0.4662 H   0  0  0  0  0  0  0  0  0  0  0  0
   -0.2170   -2.1252   -0.4665 H   0  0  0  0  0  0  0  0  0  0  0  0
   -1.1592   -0.2497    0.9018 H   0  0  0  0  0  0  0  0  0  0  0  0
   -0.8148    1.7968   -1.5544 H   0  0  0  0  0  0  0  0  0  0  0  0
    1.1447    2.8886   -2.4247 H   0  0  0  0  0  0  0  0  0  0  0  0
    3.2338    1.4039   -2.4572 H   0  0  0  0  0  0  0  0  0  0  0  0
    3.2395    2.3165   -0.9556 H   0  0  0  0  0  0  0  0  0  0  0  0
    2.7013    0.6353   -0.9566 H   0  0  0  0  0  0  0  0  0  0  0  0
  1  2  1  0
  1  4  1  0
  1  5  1  0
  1  6  1  0
  2  3  2  0
  2  7  1  0
  8  9  1  0
  8 15  1  0
  8 16  1  0
  8 17  1  0
  9 10  1  0
  9 18  1  0
  9 19  1  0
 10 11  1  0
 10 20  1  0
 11 12  1  0
 12 13  2  3
 12 21  1  0
 13 14  1  0
 13 22  1  0
 14 23  1  0
 14 24  1  0
 14 25  1  0
M  RAD  1   3   2
M  END
>  <reaction>  (16) 
rmg_rxn_16755

>  <mol_properties>  (16) 
{"1": {"label": "*4", "atom_type": "Cd"}, "2": {"label": "*3", "atom_type": "N3d"}, "9": {"label": "*1", "atom_type": "N3s"}, "10": {"label": "*0", "atom_type": "O2s"}, "19": {"label": "*2", "atom_type": "H0"}}

>  <type>  (16) 
unop_12

>  <geom_source>  (16) 
Heuristics

$$$$

     RDKit          3D

 25 23  0  0  0  0  0  0  0  0999 V2000
   -1.1901    0.9019    3.9350 C   0  0  0  0  0  0  0  0  0  0  0  0
   -1.5016    0.3493    2.5843 C   0  0  0  0  0  0  0  0  0  0  0  0
   -0.9059   -0.6657    2.1245 N   0  0  0  0  0  2  0  0  0  0  0  0
   -0.8617    1.9411    3.8511 H   0  0  0  0  0  0  0  0  0  0  0  0
   -0.4116    0.3117    4.4153 H   0  0  0  0  0  0  0  0  0  0  0  0
   -2.0873    0.9009    4.5593 H   0  0  0  0  0  0  0  0  0  0  0  0
   -2.2789    0.8818    2.0213 H   0  0  0  0  0  0  0  0  0  0  0  0
   -0.7243   -1.9047   -2.3575 C   0  0  0  0  0  0  0  0  0  0  0  0
   -0.7243   -1.9047   -0.8408 C   0  0  0  0  0  0  0  0  0  0  0  0
   -0.7243   -0.5486   -0.3042 N   0  0  0  0  0  0  0  0  0  0  0  0
    0.5694    0.0063   -0.4992 O   0  0  0  0  0  0  0  0  0  0  0  0
    0.5296    1.0910   -1.3246 C   0  0  0  0  0  0  0  0  0  0  0  0
    1.6315    1.6592   -1.7928 C   0  0  0  0  0  0  0  0  0  0  0  0
    3.0309    1.2071   -1.5190 C   0  0  0  0  0  0  0  0  0  0  0  0
    0.1808   -1.4348   -2.7438 H   0  0  0  0  0  0  0  0  0  0  0  0
   -0.7633   -2.9267   -2.7370 H   0  0  0  0  0  0  0  0  0  0  0  0
   -1.5860   -1.3567   -2.7412 H   0  0  0  0  0  0  0  0  0  0  0  0
   -1.6388   -2.3682   -0.4602 H   0  0  0  0  0  0  0  0  0  0  0  0
    0.1273   -2.4825   -0.4605 H   0  0  0  0  0  0  0  0  0  0  0  0
   -0.8149   -0.6070    0.9078 H   0  0  0  0  0  0  0  0  0  0  0  0
   -0.4705    1.4395   -1.5484 H   0  0  0  0  0  0  0  0  0  0  0  0
    1.4889    2.5313   -2.4188 H   0  0  0  0  0  0  0  0  0  0  0  0
    3.5781    1.0466   -2.4513 H   0  0  0  0  0  0  0  0  0  0  0  0
    3.5837    1.9592   -0.9496 H   0  0  0  0  0  0  0  0  0  0  0  0
    3.0455    0.2780   -0.9506 H   0  0  0  0  0  0  0  0  0  0  0  0
  1  2  1  0
  1  4  1  0
  1  5  1  0
  1  6  1  0
  2  3  2  0
  2  7  1  0
  8  9  1  0
  8 15  1  0
  8 16  1  0
  8 17  1  0
  9 10  1  0
  9 18  1  0
  9 19  1  0
 10 11  1  0
 10 20  1  0
 11 12  1  0
 12 13  2  3
 12 21  1  0
 13 14  1  0
 13 22  1  0
 14 23  1  0
 14 24  1  0
 14 25  1  0
M  RAD  1   3   2
M  END
>  <reaction>  (17) 
rmg_rxn_16755

>  <mol_properties>  (17) 
{"1": {"label": "*4", "atom_type": "Cd"}, "2": {"label": "*3", "atom_type": "N3d"}, "9": {"label": "*1", "atom_type": "N3s"}, "10": {"label": "*0", "atom_type": "O2s"}, "19": {"label": "*2", "atom_type": "H0"}}

>  <type>  (17) 
unop_13

>  <geom_source>  (17) 
Heuristics

$$$$

     RDKit          3D

 25 23  0  0  0  0  0  0  0  0999 V2000
   -1.1486   -1.6724    3.9667 C   0  0  0  0  0  0  0  0  0  0  0  0
   -1.0324   -1.3212    2.5209 C   0  0  0  0  0  0  0  0  0  0  0  0
   -0.9687   -0.1221    2.1281 N   0  0  0  0  0  2  0  0  0  0  0  0
   -2.0593   -2.2506    4.1426 H   0  0  0  0  0  0  0  0  0  0  0  0
   -1.1671   -0.7699    4.5751 H   0  0  0  0  0  0  0  0  0  0  0  0
   -0.3082   -2.3015    4.2710 H   0  0  0  0  0  0  0  0  0  0  0  0
   -1.0061   -2.1711    1.8267 H   0  0  0  0  0  0  0  0  0  0  0  0
   -0.7872   -1.3612   -2.3539 C   0  0  0  0  0  0  0  0  0  0  0  0
   -0.7872   -1.3612   -0.8373 C   0  0  0  0  0  0  0  0  0  0  0  0
   -0.7872   -0.0050   -0.3006 N   0  0  0  0  0  0  0  0  0  0  0  0
    0.5065    0.5498   -0.4956 O   0  0  0  0  0  0  0  0  0  0  0  0
    0.4668    1.6346   -1.3210 C   0  0  0  0  0  0  0  0  0  0  0  0
    1.5686    2.2028   -1.7892 C   0  0  0  0  0  0  0  0  0  0  0  0
    2.9680    1.7507   -1.5154 C   0  0  0  0  0  0  0  0  0  0  0  0
    0.1179   -0.8912   -2.7402 H   0  0  0  0  0  0  0  0  0  0  0  0
   -0.8261   -2.3832   -2.7335 H   0  0  0  0  0  0  0  0  0  0  0  0
   -1.6489   -0.8131   -2.7376 H   0  0  0  0  0  0  0  0  0  0  0  0
   -1.7017   -1.8246   -0.4566 H   0  0  0  0  0  0  0  0  0  0  0  0
    0.0644   -1.9389   -0.4569 H   0  0  0  0  0  0  0  0  0  0  0  0
   -0.8778   -0.0635    0.9114 H   0  0  0  0  0  0  0  0  0  0  0  0
   -0.5334    1.9830   -1.5448 H   0  0  0  0  0  0  0  0  0  0  0  0
    1.4260    3.0748   -2.4152 H   0  0  0  0  0  0  0  0  0  0  0  0
    3.5152    1.5902   -2.4477 H   0  0  0  0  0  0  0  0  0  0  0  0
    3.5208    2.5027   -0.9460 H   0  0  0  0  0  0  0  0  0  0  0  0
    2.9827    0.8216   -0.9471 H   0  0  0  0  0  0  0  0  0  0  0  0
  1  2  1  0
  1  4  1  0
  1  5  1  0
  1  6  1  0
  2  3  2  0
  2  7  1  0
  8  9  1  0
  8 15  1  0
  8 16  1  0
  8 17  1  0
  9 10  1  0
  9 18  1  0
  9 19  1  0
 10 11  1  0
 10 20  1  0
 11 12  1  0
 12 13  2  3
 12 21  1  0
 13 14  1  0
 13 22  1  0
 14 23  1  0
 14 24  1  0
 14 25  1  0
M  RAD  1   3   2
M  END
>  <reaction>  (18) 
rmg_rxn_16755

>  <mol_properties>  (18) 
{"1": {"label": "*4", "atom_type": "Cd"}, "2": {"label": "*3", "atom_type": "N3d"}, "9": {"label": "*1", "atom_type": "N3s"}, "10": {"label": "*0", "atom_type": "O2s"}, "19": {"label": "*2", "atom_type": "H0"}}

>  <type>  (18) 
unop_14

>  <geom_source>  (18) 
Heuristics

$$$$

     RDKit          3D

 25 23  0  0  0  0  0  0  0  0999 V2000
   -0.2120   -1.3718    3.9932 C   0  0  0  0  0  0  0  0  0  0  0  0
   -0.6150   -1.2312    2.5633 C   0  0  0  0  0  0  0  0  0  0  0  0
   -1.1432   -0.1727    2.1194 N   0  0  0  0  0  2  0  0  0  0  0  0
   -0.7344   -2.2155    4.4514 H   0  0  0  0  0  0  0  0  0  0  0  0
   -0.4406   -0.4602    4.5424 H   0  0  0  0  0  0  0  0  0  0  0  0
    0.8580   -1.5830    4.0647 H   0  0  0  0  0  0  0  0  0  0  0  0
   -0.4223   -2.1051    1.9277 H   0  0  0  0  0  0  0  0  0  0  0  0
   -0.9617   -1.4118   -2.3626 C   0  0  0  0  0  0  0  0  0  0  0  0
   -0.9617   -1.4118   -0.8459 C   0  0  0  0  0  0  0  0  0  0  0  0
   -0.9617   -0.0557   -0.3093 N   0  0  0  0  0  0  0  0  0  0  0  0
    0.3320    0.4992   -0.5043 O   0  0  0  0  0  0  0  0  0  0  0  0
    0.2923    1.5839   -1.3297 C   0  0  0  0  0  0  0  0  0  0  0  0
    1.3942    2.1521   -1.7978 C   0  0  0  0  0  0  0  0  0  0  0  0
    2.7936    1.7000   -1.5241 C   0  0  0  0  0  0  0  0  0  0  0  0
   -0.0565   -0.9418   -2.7489 H   0  0  0  0  0  0  0  0  0  0  0  0
   -1.0006   -2.4338   -2.7421 H   0  0  0  0  0  0  0  0  0  0  0  0
   -1.8234   -0.8638   -2.7463 H   0  0  0  0  0  0  0  0  0  0  0  0
   -1.8761   -1.8752   -0.4653 H   0  0  0  0  0  0  0  0  0  0  0  0
   -0.1101   -1.9895   -0.4656 H   0  0  0  0  0  0  0  0  0  0  0  0
   -1.0523   -0.1141    0.9027 H   0  0  0  0  0  0  0  0  0  0  0  0
   -0.7079    1.9324   -1.5535 H   0  0  0  0  0  0  0  0  0  0  0  0
    1.2516    3.0242   -2.4239 H   0  0  0  0  0  0  0  0  0  0  0  0
    3.3407    1.5395   -2.4564 H   0  0  0  0  0  0  0  0  0  0  0  0
    3.3464    2.4521   -0.9547 H   0  0  0  0  0  0  0  0  0  0  0  0
    2.8082    0.7710   -0.9557 H   0  0  0  0  0  0  0  0  0  0  0  0
  1  2  1  0
  1  4  1  0
  1  5  1  0
  1  6  1  0
  2  3  2  0
  2  7  1  0
  8  9  1  0
  8 15  1  0
  8 16  1  0
  8 17  1  0
  9 10  1  0
  9 18  1  0
  9 19  1  0
 10 11  1  0
 10 20  1  0
 11 12  1  0
 12 13  2  3
 12 21  1  0
 13 14  1  0
 13 22  1  0
 14 23  1  0
 14 24  1  0
 14 25  1  0
M  RAD  1   3   2
M  END
>  <reaction>  (19) 
rmg_rxn_16755

>  <mol_properties>  (19) 
{"1": {"label": "*4", "atom_type": "Cd"}, "2": {"label": "*3", "atom_type": "N3d"}, "9": {"label": "*1", "atom_type": "N3s"}, "10": {"label": "*0", "atom_type": "O2s"}, "19": {"label": "*2", "atom_type": "H0"}}

>  <type>  (19) 
unop_15

>  <geom_source>  (19) 
gaussian_log

$$$$
