
     RDKit          3D

  6  5  0  0  0  0  0  0  0  0999 V2000
   -0.4901    0.0045    0.0014 C   0  0  0  0  0  0  0  0  0  0  0  0
    0.9645   -0.0089   -0.0027 C   0  0  0  0  0  0  0  0  0  0  0  0
    2.1108   -0.0195   -0.0059 N   0  0  0  0  0  0  0  0  0  0  0  0
   -0.8700   -0.6407   -0.7900 H   0  0  0  0  0  0  0  0  0  0  0  0
   -0.8625   -0.3540    0.9604 H   0  0  0  0  0  0  0  0  0  0  0  0
   -0.8530    1.0185   -0.1631 H   0  0  0  0  0  0  0  0  0  0  0  0
  1  2  1  0
  1  4  1  0
  1  5  1  0
  1  6  1  0
  2  3  3  0
M  END
>  <reaction>  (1) 
rmg_rxn_96

>  <mol_properties>  (1) 
{"0": {"label": "donator", "atom_type": "Cs"}, "3": {"label": "d_hydrogen", "atom_type": "H0"}}

>  <type>  (1) 
r1h

$$$$

     RDKit          3D

 14 13  0  0  0  0  0  0  0  0999 V2000
    2.5796   -0.5432    0.2329 C   0  0  0  0  0  3  0  0  0  0  0  0
    1.2594    0.0982    0.3029 C   0  0  0  0  0  0  0  0  0  0  0  0
   -0.0483   -1.0244    0.9576 S   0  0  0  0  0  0  0  0  0  0  0  0
   -0.0049   -2.3732   -0.2491 C   0  0  0  0  0  0  0  0  0  0  0  0
   -0.3891   -1.9781   -1.6653 C   0  0  0  0  0  0  0  0  0  0  0  0
    2.9359   -0.9798   -0.6903 H   0  0  0  0  0  0  0  0  0  0  0  0
    3.1327   -0.7454    1.1400 H   0  0  0  0  0  0  0  0  0  0  0  0
    0.9347    0.4858   -0.6621 H   0  0  0  0  0  0  0  0  0  0  0  0
    1.2442    0.9220    1.0193 H   0  0  0  0  0  0  0  0  0  0  0  0
    0.9819   -2.8380   -0.2257 H   0  0  0  0  0  0  0  0  0  0  0  0
   -0.7110   -3.1037    0.1493 H   0  0  0  0  0  0  0  0  0  0  0  0
    0.3274   -1.2737   -2.0913 H   0  0  0  0  0  0  0  0  0  0  0  0
   -0.4075   -2.8581   -2.3121 H   0  0  0  0  0  0  0  0  0  0  0  0
   -1.3749   -1.5123   -1.6865 H   0  0  0  0  0  0  0  0  0  0  0  0
  1  2  1  0
  1  6  1  0
  1  7  1  0
  2  3  1  0
  2  8  1  0
  2  9  1  0
  3  4  1  0
  4  5  1  0
  4 10  1  0
  4 11  1  0
  5 12  1  0
  5 13  1  0
  5 14  1  0
M  RAD  1   1   2
M  END
>  <reaction>  (2) 
rmg_rxn_96

>  <mol_properties>  (2) 
{"0": {"label": "acceptor", "atom_type": "Cs"}}

>  <type>  (2) 
r2

$$$$

     RDKit          3D

 15 14  0  0  0  0  0  0  0  0999 V2000
   -2.0554    0.0723   -0.4910 C   0  0  0  0  0  0  0  0  0  0  0  0
   -0.7461   -0.6266   -0.8178 C   0  0  0  0  0  0  0  0  0  0  0  0
    0.3249    0.2591   -1.9782 S   0  0  0  0  0  0  0  0  0  0  0  0
   -0.7172    0.3642   -3.4551 C   0  0  0  0  0  0  0  0  0  0  0  0
   -1.1375   -0.9737   -4.0409 C   0  0  0  0  0  0  0  0  0  0  0  0
   -2.7005    0.1427   -1.3684 H   0  0  0  0  0  0  0  0  0  0  0  0
   -2.6016   -0.4848    0.2733 H   0  0  0  0  0  0  0  0  0  0  0  0
   -1.8758    1.0825   -0.1213 H   0  0  0  0  0  0  0  0  0  0  0  0
   -0.1320   -0.7246    0.0789 H   0  0  0  0  0  0  0  0  0  0  0  0
   -0.9254   -1.6374   -1.1879 H   0  0  0  0  0  0  0  0  0  0  0  0
   -1.5873    0.9874   -3.2422 H   0  0  0  0  0  0  0  0  0  0  0  0
   -0.1021    0.9161   -4.1678 H   0  0  0  0  0  0  0  0  0  0  0  0
   -1.7876   -1.5224   -3.3574 H   0  0  0  0  0  0  0  0  0  0  0  0
   -0.2676   -1.5962   -4.2534 H   0  0  0  0  0  0  0  0  0  0  0  0
   -1.6916   -0.8229   -4.9700 H   0  0  0  0  0  0  0  0  0  0  0  0
  1  2  1  0
  1  6  1  0
  1  7  1  0
  1  8  1  0
  2  3  1  0
  2  9  1  0
  2 10  1  0
  3  4  1  0
  4  5  1  0
  4 11  1  0
  4 12  1  0
  5 13  1  0
  5 14  1  0
  5 15  1  0
M  END
>  <reaction>  (3) 
rmg_rxn_96

>  <mol_properties>  (3) 
{"0": {"label": "a_hydrogen", "atom_type": "H0"}, "1": {"label": "acceptor", "atom_type": "Cs"}}

>  <type>  (3) 
r2h

$$$$

     RDKit          3D

 20 18  0  0  0  0  0  0  0  0999 V2000
    1.1800    1.9798   -0.5561 C   0  0  0  0  0  0  0  0  0  0  0  0
    0.5873    1.5066   -1.7651 C   0  0  0  0  0  0  0  0  0  0  0  0
    0.0478    1.1058   -2.6996 N   0  0  0  0  0  0  0  0  0  0  0  0
    0.3123    1.6856    0.4002 H   0  0  0  0  0  0  0  0  0  0  0  0
    2.0757    1.4361   -0.2723 H   0  0  0  0  0  0  0  0  0  0  0  0
    1.2896    3.0599   -0.5165 H   0  0  0  0  0  0  0  0  0  0  0  0
   -0.6131    1.2856    1.3132 C   0  0  0  0  0  3  0  0  0  0  0  0
   -0.0754    0.0562    1.9848 C   0  0  0  0  0  0  0  0  0  0  0  0
    0.5533   -1.2382    0.8812 S   0  0  0  0  0  0  0  0  0  0  0  0
   -0.8725   -1.5598   -0.1887 C   0  0  0  0  0  0  0  0  0  0  0  0
   -2.1241   -2.0215    0.5379 C   0  0  0  0  0  0  0  0  0  0  0  0
   -1.4802    1.1320    0.6742 H   0  0  0  0  0  0  0  0  0  0  0  0
   -0.7298    2.1489    1.9655 H   0  0  0  0  0  0  0  0  0  0  0  0
   -0.8396   -0.3735    2.6405 H   0  0  0  0  0  0  0  0  0  0  0  0
    0.7756    0.3044    2.6211 H   0  0  0  0  0  0  0  0  0  0  0  0
   -1.0692   -0.6831   -0.8069 H   0  0  0  0  0  0  0  0  0  0  0  0
   -0.5118   -2.3366   -0.8644 H   0  0  0  0  0  0  0  0  0  0  0  0
   -2.5188   -1.2425    1.1929 H   0  0  0  0  0  0  0  0  0  0  0  0
   -2.9059   -2.2678   -0.1834 H   0  0  0  0  0  0  0  0  0  0  0  0
   -1.9225   -2.9047    1.1452 H   0  0  0  0  0  0  0  0  0  0  0  0
  1  2  1  0
  1  4  1  0
  1  5  1  0
  1  6  1  0
  2  3  3  0
  7  8  1  0
  7 12  1  0
  7 13  1  0
  8  9  1  0
  8 14  1  0
  8 15  1  0
  9 10  1  0
 10 11  1  0
 10 16  1  0
 10 17  1  0
 11 18  1  0
 11 19  1  0
 11 20  1  0
M  RAD  1   7   2
M  END
>  <reaction>  (4) 
rmg_rxn_96

>  <mol_properties>  (4) 
{"0": {"label": "*1", "atom_type": "Cs"}, "1": {"label": "*0", "atom_type": "Ct"}, "3": {"label": "*2", "atom_type": "H0"}, "6": {"label": "*3", "atom_type": "Cs"}, "7": {"label": "*4", "atom_type": "Cs"}}

>  <type>  (4) 
ts

$$$$

     RDKit          3D

 20 18  0  0  0  0  0  0  0  0999 V2000
    1.3407    2.5568   -0.2878 C   0  0  0  0  0  0  0  0  0  0  0  0
    1.3407    2.5568   -1.7424 C   0  0  0  0  0  0  0  0  0  0  0  0
    1.3407    2.5568   -2.8889 N   0  0  0  0  0  0  0  0  0  0  0  0
    0.3877    1.7810    0.1583 H   0  0  0  0  0  0  0  0  0  0  0  0
    2.2977    2.1923    0.0839 H   0  0  0  0  0  0  0  0  0  0  0  0
    1.1779    3.5679    0.0839 H   0  0  0  0  0  0  0  0  0  0  0  0
   -0.5663    1.0043    0.6049 C   0  0  0  0  0  3  0  0  0  0  0  0
    0.0021   -0.1182    1.4572 C   0  0  0  0  0  0  0  0  0  0  0  0
    0.3026   -1.6709    0.5757 S   0  0  0  0  0  0  0  0  0  0  0  0
   -1.3549   -2.1040   -0.0102 C   0  0  0  0  0  0  0  0  0  0  0  0
   -2.3891   -2.3102    1.0840 C   0  0  0  0  0  0  0  0  0  0  0  0
   -1.5680    0.7642    0.2443 H   0  0  0  0  0  0  0  0  0  0  0  0
   -0.6404    1.9237    1.1899 H   0  0  0  0  0  0  0  0  0  0  0  0
   -0.6327   -0.3095    2.3240 H   0  0  0  0  0  0  0  0  0  0  0  0
    0.9856    0.1560    1.8423 H   0  0  0  0  0  0  0  0  0  0  0  0
   -1.6925   -1.3567   -0.7302 H   0  0  0  0  0  0  0  0  0  0  0  0
   -1.1994   -3.0294   -0.5673 H   0  0  0  0  0  0  0  0  0  0  0  0
   -2.5876   -1.3838    1.6257 H   0  0  0  0  0  0  0  0  0  0  0  0
   -3.3346   -2.6466    0.6529 H   0  0  0  0  0  0  0  0  0  0  0  0
   -2.0513   -3.0570    1.8034 H   0  0  0  0  0  0  0  0  0  0  0  0
  1  2  1  0
  1  4  1  0
  1  5  1  0
  1  6  1  0
  2  3  3  0
  7  8  1  0
  7 12  1  0
  7 13  1  0
  8  9  1  0
  8 14  1  0
  8 15  1  0
  9 10  1  0
 10 11  1  0
 10 16  1  0
 10 17  1  0
 11 18  1  0
 11 19  1  0
 11 20  1  0
M  RAD  1   7   2
M  END
>  <reaction>  (5) 
rmg_rxn_96

>  <mol_properties>  (5) 
{"0": {"label": "*1", "atom_type": "Cs"}, "1": {"label": "*0", "atom_type": "Ct"}, "3": {"label": "*2", "atom_type": "H0"}, "6": {"label": "*3", "atom_type": "Cs"}, "7": {"label": "*4", "atom_type": "Cs"}}

>  <type>  (5) 
unop_1

>  <geom_source>  (5) 
Heuristics

$$$$

     RDKit          3D

 20 18  0  0  0  0  0  0  0  0999 V2000
    2.3220    1.4662    0.8158 C   0  0  0  0  0  0  0  0  0  0  0  0
    2.3220    1.4662   -0.6388 C   0  0  0  0  0  0  0  0  0  0  0  0
    2.3220    1.4662   -1.7853 N   0  0  0  0  0  0  0  0  0  0  0  0
    1.3690    0.6904    1.2619 H   0  0  0  0  0  0  0  0  0  0  0  0
    3.2790    1.1017    1.1875 H   0  0  0  0  0  0  0  0  0  0  0  0
    2.1592    2.4773    1.1875 H   0  0  0  0  0  0  0  0  0  0  0  0
    0.4150   -0.0862    1.7084 C   0  0  0  0  0  3  0  0  0  0  0  0
    0.1422   -1.2235    0.7380 C   0  0  0  0  0  0  0  0  0  0  0  0
   -0.7244   -0.7444   -0.7778 S   0  0  0  0  0  0  0  0  0  0  0  0
   -2.2810   -0.0806   -0.1338 C   0  0  0  0  0  0  0  0  0  0  0  0
   -3.1185   -1.0667    0.6635 C   0  0  0  0  0  0  0  0  0  0  0  0
   -0.5117    0.3259    2.1115 H   0  0  0  0  0  0  0  0  0  0  0  0
    1.0092   -0.4430    2.5526 H   0  0  0  0  0  0  0  0  0  0  0  0
   -0.4028   -2.0321    1.2280 H   0  0  0  0  0  0  0  0  0  0  0  0
    1.0796   -1.6499    0.3771 H   0  0  0  0  0  0  0  0  0  0  0  0
   -2.0786    0.8197    0.4488 H   0  0  0  0  0  0  0  0  0  0  0  0
   -2.8171    0.2384   -1.0292 H   0  0  0  0  0  0  0  0  0  0  0  0
   -2.6147   -1.3656    1.5843 H   0  0  0  0  0  0  0  0  0  0  0  0
   -4.0719   -0.6137    0.9440 H   0  0  0  0  0  0  0  0  0  0  0  0
   -3.3204   -1.9663    0.0810 H   0  0  0  0  0  0  0  0  0  0  0  0
  1  2  1  0
  1  4  1  0
  1  5  1  0
  1  6  1  0
  2  3  3  0
  7  8  1  0
  7 12  1  0
  7 13  1  0
  8  9  1  0
  8 14  1  0
  8 15  1  0
  9 10  1  0
 10 11  1  0
 10 16  1  0
 10 17  1  0
 11 18  1  0
 11 19  1  0
 11 20  1  0
M  RAD  1   7   2
M  END
>  <reaction>  (6) 
rmg_rxn_96

>  <mol_properties>  (6) 
{"0": {"label": "*1", "atom_type": "Cs"}, "1": {"label": "*0", "atom_type": "Ct"}, "3": {"label": "*2", "atom_type": "H0"}, "6": {"label": "*3", "atom_type": "Cs"}, "7": {"label": "*4", "atom_type": "Cs"}}

>  <type>  (6) 
unop_2

>  <geom_source>  (6) 
Heuristics

$$$$

     RDKit          3D

 20 18  0  0  0  0  0  0  0  0999 V2000
    1.0178    2.4034   -0.8051 C   0  0  0  0  0  0  0  0  0  0  0  0
    1.0178    2.4034   -2.2597 C   0  0  0  0  0  0  0  0  0  0  0  0
    1.0178    2.4034   -3.4061 N   0  0  0  0  0  0  0  0  0  0  0  0
    0.0647    1.6276   -0.3590 H   0  0  0  0  0  0  0  0  0  0  0  0
    1.9748    2.0389   -0.4334 H   0  0  0  0  0  0  0  0  0  0  0  0
    0.8550    3.4145   -0.4334 H   0  0  0  0  0  0  0  0  0  0  0  0
   -0.8893    0.8510    0.0876 C   0  0  0  0  0  3  0  0  0  0  0  0
   -0.5114    0.2433    1.4283 C   0  0  0  0  0  0  0  0  0  0  0  0
    0.5094   -1.2489    1.3314 S   0  0  0  0  0  0  0  0  0  0  0  0
   -0.5577   -2.3818    0.4062 C   0  0  0  0  0  0  0  0  0  0  0  0
   -1.8889   -2.6953    1.0690 C   0  0  0  0  0  0  0  0  0  0  0  0
   -1.5364    0.1844   -0.4849 H   0  0  0  0  0  0  0  0  0  0  0  0
   -1.4321    1.7871    0.2356 H   0  0  0  0  0  0  0  0  0  0  0  0
   -1.3999    0.0374    2.0275 H   0  0  0  0  0  0  0  0  0  0  0  0
    0.1011    0.9397    2.0035 H   0  0  0  0  0  0  0  0  0  0  0  0
   -0.7062   -1.9974   -0.6043 H   0  0  0  0  0  0  0  0  0  0  0  0
    0.0443   -3.2871    0.3128 H   0  0  0  0  0  0  0  0  0  0  0  0
   -2.5215   -1.8084    1.1339 H   0  0  0  0  0  0  0  0  0  0  0  0
   -2.4333   -3.4443    0.4897 H   0  0  0  0  0  0  0  0  0  0  0  0
   -1.7401   -3.0792    2.0789 H   0  0  0  0  0  0  0  0  0  0  0  0
  1  2  1  0
  1  4  1  0
  1  5  1  0
  1  6  1  0
  2  3  3  0
  7  8  1  0
  7 12  1  0
  7 13  1  0
  8  9  1  0
  8 14  1  0
  8 15  1  0
  9 10  1  0
 10 11  1  0
 10 16  1  0
 10 17  1  0
 11 18  1  0
 11 19  1  0
 11 20  1  0
M  RAD  1   7   2
M  END
>  <reaction>  (7) 
rmg_rxn_96

>  <mol_properties>  (7) 
{"0": {"label": "*1", "atom_type": "Cs"}, "1": {"label": "*0", "atom_type": "Ct"}, "3": {"label": "*2", "atom_type": "H0"}, "6": {"label": "*3", "atom_type": "Cs"}, "7": {"label": "*4", "atom_type": "Cs"}}

>  <type>  (7) 
unop_3

>  <geom_source>  (7) 
Heuristics

$$$$

     RDKit          3D

 20 18  0  0  0  0  0  0  0  0999 V2000
    2.1438   -0.1757   -0.2158 C   0  0  0  0  0  0  0  0  0  0  0  0
    2.1438   -0.1757   -1.6705 C   0  0  0  0  0  0  0  0  0  0  0  0
    2.1438   -0.1757   -2.8169 N   0  0  0  0  0  0  0  0  0  0  0  0
    1.1907   -0.9515    0.2303 H   0  0  0  0  0  0  0  0  0  0  0  0
    3.1008   -0.5402    0.1559 H   0  0  0  0  0  0  0  0  0  0  0  0
    1.9810    0.8354    0.1559 H   0  0  0  0  0  0  0  0  0  0  0  0
    0.2367   -1.7281    0.6768 C   0  0  0  0  0  3  0  0  0  0  0  0
   -1.1228   -1.2497    0.1948 C   0  0  0  0  0  0  0  0  0  0  0  0
   -1.2031    0.5036   -0.2500 S   0  0  0  0  0  0  0  0  0  0  0  0
   -0.7686    1.3133    1.3101 C   0  0  0  0  0  0  0  0  0  0  0  0
   -1.7068    1.0195    2.4690 C   0  0  0  0  0  0  0  0  0  0  0  0
    0.5159   -1.2540    1.6193 H   0  0  0  0  0  0  0  0  0  0  0  0
    0.2206   -2.8072    0.8451 H   0  0  0  0  0  0  0  0  0  0  0  0
   -1.8981   -1.4741    0.9292 H   0  0  0  0  0  0  0  0  0  0  0  0
   -1.4036   -1.7639   -0.7258 H   0  0  0  0  0  0  0  0  0  0  0  0
    0.2624    1.0691    1.5713 H   0  0  0  0  0  0  0  0  0  0  0  0
   -0.7872    2.3764    1.0645 H   0  0  0  0  0  0  0  0  0  0  0  0
   -1.6704   -0.0330    2.7554 H   0  0  0  0  0  0  0  0  0  0  0  0
   -1.4225    1.6072    3.3447 H   0  0  0  0  0  0  0  0  0  0  0  0
   -2.7370    1.2635    2.2075 H   0  0  0  0  0  0  0  0  0  0  0  0
  1  2  1  0
  1  4  1  0
  1  5  1  0
  1  6  1  0
  2  3  3  0
  7  8  1  0
  7 12  1  0
  7 13  1  0
  8  9  1  0
  8 14  1  0
  8 15  1  0
  9 10  1  0
 10 11  1  0
 10 16  1  0
 10 17  1  0
 11 18  1  0
 11 19  1  0
 11 20  1  0
M  RAD  1   7   2
M  END
>  <reaction>  (8) 
rmg_rxn_96

>  <mol_properties>  (8) 
{"0": {"label": "*1", "atom_type": "Cs"}, "1": {"label": "*0", "atom_type": "Ct"}, "3": {"label": "*2", "atom_type": "H0"}, "6": {"label": "*3", "atom_type": "Cs"}, "7": {"label": "*4", "atom_type": "Cs"}}

>  <type>  (8) 
unop_4

>  <geom_source>  (8) 
Heuristics

$$$$

     RDKit          3D

 20 18  0  0  0  0  0  0  0  0999 V2000
    0.6591    1.7884   -1.3429 C   0  0  0  0  0  0  0  0  0  0  0  0
    0.6591    1.7884   -2.7975 C   0  0  0  0  0  0  0  0  0  0  0  0
    0.6591    1.7884   -3.9440 N   0  0  0  0  0  0  0  0  0  0  0  0
   -0.2939    1.0126   -0.8968 H   0  0  0  0  0  0  0  0  0  0  0  0
    1.6161    1.4239   -0.9712 H   0  0  0  0  0  0  0  0  0  0  0  0
    0.4963    2.7995   -0.9712 H   0  0  0  0  0  0  0  0  0  0  0  0
   -1.2479    0.2360   -0.4503 C   0  0  0  0  0  3  0  0  0  0  0  0
   -1.2678    0.2198    1.0692 C   0  0  0  0  0  0  0  0  0  0  0  0
    0.2997   -0.2402    1.8499 S   0  0  0  0  0  0  0  0  0  0  0  0
    0.5704   -1.9110    1.2069 C   0  0  0  0  0  0  0  0  0  0  0  0
   -0.5110   -2.9182    1.5612 C   0  0  0  0  0  0  0  0  0  0  0  0
   -1.0894   -0.7637   -0.8583 H   0  0  0  0  0  0  0  0  0  0  0  0
   -2.2019    0.6005   -0.8376 H   0  0  0  0  0  0  0  0  0  0  0  0
   -2.0631   -0.4278    1.4420 H   0  0  0  0  0  0  0  0  0  0  0  0
   -1.4680    1.2193    1.4586 H   0  0  0  0  0  0  0  0  0  0  0  0
    0.7216   -1.8647    0.1272 H   0  0  0  0  0  0  0  0  0  0  0  0
    1.5250   -2.2062    1.6456 H   0  0  0  0  0  0  0  0  0  0  0  0
   -1.4644   -2.6607    1.0967 H   0  0  0  0  0  0  0  0  0  0  0  0
   -0.2324   -3.9133    1.2073 H   0  0  0  0  0  0  0  0  0  0  0  0
   -0.6620   -2.9641    2.6403 H   0  0  0  0  0  0  0  0  0  0  0  0
  1  2  1  0
  1  4  1  0
  1  5  1  0
  1  6  1  0
  2  3  3  0
  7  8  1  0
  7 12  1  0
  7 13  1  0
  8  9  1  0
  8 14  1  0
  8 15  1  0
  9 10  1  0
 10 11  1  0
 10 16  1  0
 10 17  1  0
 11 18  1  0
 11 19  1  0
 11 20  1  0
M  RAD  1   7   2
M  END
>  <reaction>  (9) 
rmg_rxn_96

>  <mol_properties>  (9) 
{"0": {"label": "*1", "atom_type": "Cs"}, "1": {"label": "*0", "atom_type": "Ct"}, "3": {"label": "*2", "atom_type": "H0"}, "6": {"label": "*3", "atom_type": "Cs"}, "7": {"label": "*4", "atom_type": "Cs"}}

>  <type>  (9) 
unop_5

>  <geom_source>  (9) 
Heuristics

$$$$

     RDKit          3D

 20 18  0  0  0  0  0  0  0  0999 V2000
    1.7816   -0.2237   -0.8010 C   0  0  0  0  0  0  0  0  0  0  0  0
    1.7816   -0.2237   -2.2557 C   0  0  0  0  0  0  0  0  0  0  0  0
    1.7816   -0.2237   -3.4021 N   0  0  0  0  0  0  0  0  0  0  0  0
    0.8286   -0.9995   -0.3549 H   0  0  0  0  0  0  0  0  0  0  0  0
    2.7386   -0.5882   -0.4293 H   0  0  0  0  0  0  0  0  0  0  0  0
    1.6188    0.7874   -0.4293 H   0  0  0  0  0  0  0  0  0  0  0  0
   -0.1254   -1.7761    0.0916 C   0  0  0  0  0  3  0  0  0  0  0  0
   -1.4172   -0.9972    0.2768 C   0  0  0  0  0  0  0  0  0  0  0  0
   -1.2297    0.8036    0.2878 S   0  0  0  0  0  0  0  0  0  0  0  0
   -0.1303    1.0641    1.7026 C   0  0  0  0  0  0  0  0  0  0  0  0
   -0.6758    0.5822    3.0368 C   0  0  0  0  0  0  0  0  0  0  0  0
    0.5505   -1.6353    0.9367 H   0  0  0  0  0  0  0  0  0  0  0  0
   -0.3355   -2.8452    0.0148 H   0  0  0  0  0  0  0  0  0  0  0  0
   -1.9372   -1.3139    1.1824 H   0  0  0  0  0  0  0  0  0  0  0  0
   -2.0967   -1.1821   -0.5568 H   0  0  0  0  0  0  0  0  0  0  0  0
    0.8425    0.6158    1.4942 H   0  0  0  0  0  0  0  0  0  0  0  0
    0.0188    2.1449    1.7197 H   0  0  0  0  0  0  0  0  0  0  0  0
   -0.7928   -0.5027    3.0521 H   0  0  0  0  0  0  0  0  0  0  0  0
    0.0092    0.8492    3.8446 H   0  0  0  0  0  0  0  0  0  0  0  0
   -1.6480    1.0302    3.2447 H   0  0  0  0  0  0  0  0  0  0  0  0
  1  2  1  0
  1  4  1  0
  1  5  1  0
  1  6  1  0
  2  3  3  0
  7  8  1  0
  7 12  1  0
  7 13  1  0
  8  9  1  0
  8 14  1  0
  8 15  1  0
  9 10  1  0
 10 11  1  0
 10 16  1  0
 10 17  1  0
 11 18  1  0
 11 19  1  0
 11 20  1  0
M  RAD  1   7   2
M  END
>  <reaction>  (10) 
rmg_rxn_96

>  <mol_properties>  (10) 
{"0": {"label": "*1", "atom_type": "Cs"}, "1": {"label": "*0", "atom_type": "Ct"}, "3": {"label": "*2", "atom_type": "H0"}, "6": {"label": "*3", "atom_type": "Cs"}, "7": {"label": "*4", "atom_type": "Cs"}}

>  <type>  (10) 
unop_6

>  <geom_source>  (10) 
Heuristics

$$$$

     RDKit          3D

 20 18  0  0  0  0  0  0  0  0999 V2000
    1.3007    0.0626   -1.3172 C   0  0  0  0  0  0  0  0  0  0  0  0
    1.3007    0.0626   -2.7718 C   0  0  0  0  0  0  0  0  0  0  0  0
    1.3007    0.0626   -3.9183 N   0  0  0  0  0  0  0  0  0  0  0  0
    0.3477   -0.7132   -0.8711 H   0  0  0  0  0  0  0  0  0  0  0  0
    2.2577   -0.3019   -0.9455 H   0  0  0  0  0  0  0  0  0  0  0  0
    1.1379    1.0737   -0.9455 H   0  0  0  0  0  0  0  0  0  0  0  0
   -0.6063   -1.4898   -0.4245 C   0  0  0  0  0  3  0  0  0  0  0  0
   -1.5902   -0.7056    0.4278 C   0  0  0  0  0  0  0  0  0  0  0  0
   -1.0043    0.9182    0.9739 S   0  0  0  0  0  0  0  0  0  0  0  0
    0.4634    0.4882    1.9430 C   0  0  0  0  0  0  0  0  0  0  0  0
    0.2012   -0.4086    3.1416 C   0  0  0  0  0  0  0  0  0  0  0  0
    0.2851   -1.7624    0.1430 H   0  0  0  0  0  0  0  0  0  0  0  0
   -1.0655   -2.4157   -0.7778 H   0  0  0  0  0  0  0  0  0  0  0  0
   -1.9061   -1.2882    1.2947 H   0  0  0  0  0  0  0  0  0  0  0  0
   -2.4918   -0.4775   -0.1430 H   0  0  0  0  0  0  0  0  0  0  0  0
    1.2172    0.0509    1.2861 H   0  0  0  0  0  0  0  0  0  0  0  0
    0.8522    1.4547    2.2677 H   0  0  0  0  0  0  0  0  0  0  0  0
   -0.1497   -1.3949    2.8333 H   0  0  0  0  0  0  0  0  0  0  0  0
    1.1196   -0.5521    3.7152 H   0  0  0  0  0  0  0  0  0  0  0  0
   -0.5522    0.0287    3.7977 H   0  0  0  0  0  0  0  0  0  0  0  0
  1  2  1  0
  1  4  1  0
  1  5  1  0
  1  6  1  0
  2  3  3  0
  7  8  1  0
  7 12  1  0
  7 13  1  0
  8  9  1  0
  8 14  1  0
  8 15  1  0
  9 10  1  0
 10 11  1  0
 10 16  1  0
 10 17  1  0
 11 18  1  0
 11 19  1  0
 11 20  1  0
M  RAD  1   7   2
M  END
>  <reaction>  (11) 
rmg_rxn_96

>  <mol_properties>  (11) 
{"0": {"label": "*1", "atom_type": "Cs"}, "1": {"label": "*0", "atom_type": "Ct"}, "3": {"label": "*2", "atom_type": "H0"}, "6": {"label": "*3", "atom_type": "Cs"}, "7": {"label": "*4", "atom_type": "Cs"}}

>  <type>  (11) 
unop_7

>  <geom_source>  (11) 
Heuristics

$$$$

     RDKit          3D

 20 18  0  0  0  0  0  0  0  0999 V2000
    1.6544    2.4547    0.2198 C   0  0  0  0  0  0  0  0  0  0  0  0
    1.6544    2.4547   -1.2349 C   0  0  0  0  0  0  0  0  0  0  0  0
    1.6544    2.4547   -2.3813 N   0  0  0  0  0  0  0  0  0  0  0  0
    0.7014    1.6789    0.6659 H   0  0  0  0  0  0  0  0  0  0  0  0
    2.6114    2.0902    0.5915 H   0  0  0  0  0  0  0  0  0  0  0  0
    1.4916    3.4658    0.5915 H   0  0  0  0  0  0  0  0  0  0  0  0
   -0.2526    0.9023    1.1124 C   0  0  0  0  0  3  0  0  0  0  0  0
    0.2480   -0.5206    1.2976 C   0  0  0  0  0  0  0  0  0  0  0  0
   -0.0474   -1.6243   -0.1070 S   0  0  0  0  0  0  0  0  0  0  0  0
   -1.8534   -1.6049   -0.2343 C   0  0  0  0  0  0  0  0  0  0  0  0
   -2.5892   -2.1086    0.9964 C   0  0  0  0  0  0  0  0  0  0  0  0
   -1.3408    0.9362    1.0372 H   0  0  0  0  0  0  0  0  0  0  0  0
    0.0362    1.5194    1.9661 H   0  0  0  0  0  0  0  0  0  0  0  0
   -0.1678   -0.9657    2.2030 H   0  0  0  0  0  0  0  0  0  0  0  0
    1.3332   -0.5312    1.4120 H   0  0  0  0  0  0  0  0  0  0  0  0
   -2.1878   -0.6021   -0.5054 H   0  0  0  0  0  0  0  0  0  0  0  0
   -2.0599   -2.2476   -1.0917 H   0  0  0  0  0  0  0  0  0  0  0  0
   -2.4269   -1.4542    1.8545 H   0  0  0  0  0  0  0  0  0  0  0  0
   -3.6645   -2.1410    0.8078 H   0  0  0  0  0  0  0  0  0  0  0  0
   -2.2546   -3.1107    1.2671 H   0  0  0  0  0  0  0  0  0  0  0  0
  1  2  1  0
  1  4  1  0
  1  5  1  0
  1  6  1  0
  2  3  3  0
  7  8  1  0
  7 12  1  0
  7 13  1  0
  8  9  1  0
  8 14  1  0
  8 15  1  0
  9 10  1  0
 10 11  1  0
 10 16  1  0
 10 17  1  0
 11 18  1  0
 11 19  1  0
 11 20  1  0
M  RAD  1   7   2
M  END
>  <reaction>  (12) 
rmg_rxn_96

>  <mol_properties>  (12) 
{"0": {"label": "*1", "atom_type": "Cs"}, "1": {"label": "*0", "atom_type": "Ct"}, "3": {"label": "*2", "atom_type": "H0"}, "6": {"label": "*3", "atom_type": "Cs"}, "7": {"label": "*4", "atom_type": "Cs"}}

>  <type>  (12) 
unop_8

>  <geom_source>  (12) 
Heuristics

$$$$

     RDKit          3D

 20 18  0  0  0  0  0  0  0  0999 V2000
    2.3786    0.1605    0.3155 C   0  0  0  0  0  0  0  0  0  0  0  0
    2.3786    0.1605   -1.1392 C   0  0  0  0  0  0  0  0  0  0  0  0
    2.3786    0.1605   -2.2856 N   0  0  0  0  0  0  0  0  0  0  0  0
    1.4256   -0.6153    0.7616 H   0  0  0  0  0  0  0  0  0  0  0  0
    3.3357   -0.2040    0.6872 H   0  0  0  0  0  0  0  0  0  0  0  0
    2.2159    1.1716    0.6872 H   0  0  0  0  0  0  0  0  0  0  0  0
    0.4716   -1.3920    1.2081 C   0  0  0  0  0  3  0  0  0  0  0  0
   -0.6974   -1.4284    0.2377 C   0  0  0  0  0  0  0  0  0  0  0  0
   -1.0584    0.1440   -0.5843 S   0  0  0  0  0  0  0  0  0  0  0  0
   -1.4370    1.2282    0.8155 C   0  0  0  0  0  0  0  0  0  0  0  0
   -2.6204    0.7922    1.6636 C   0  0  0  0  0  0  0  0  0  0  0  0
    0.2618   -0.7459    2.0622 H   0  0  0  0  0  0  0  0  0  0  0  0
    0.6729   -2.3929    1.5962 H   0  0  0  0  0  0  0  0  0  0  0  0
   -1.5997   -1.7978    0.7277 H   0  0  0  0  0  0  0  0  0  0  0  0
   -0.4865   -2.1102   -0.5878 H   0  0  0  0  0  0  0  0  0  0  0  0
   -0.5434    1.3551    1.4288 H   0  0  0  0  0  0  0  0  0  0  0  0
   -1.6376    2.1939    0.3487 H   0  0  0  0  0  0  0  0  0  0  0  0
   -2.4213   -0.1531    2.1712 H   0  0  0  0  0  0  0  0  0  0  0  0
   -2.8308    1.5390    2.4324 H   0  0  0  0  0  0  0  0  0  0  0  0
   -3.5132    0.6653    1.0503 H   0  0  0  0  0  0  0  0  0  0  0  0
  1  2  1  0
  1  4  1  0
  1  5  1  0
  1  6  1  0
  2  3  3  0
  7  8  1  0
  7 12  1  0
  7 13  1  0
  8  9  1  0
  8 14  1  0
  8 15  1  0
  9 10  1  0
 10 11  1  0
 10 16  1  0
 10 17  1  0
 11 18  1  0
 11 19  1  0
 11 20  1  0
M  RAD  1   7   2
M  END
>  <reaction>  (13) 
rmg_rxn_96

>  <mol_properties>  (13) 
{"0": {"label": "*1", "atom_type": "Cs"}, "1": {"label": "*0", "atom_type": "Ct"}, "3": {"label": "*2", "atom_type": "H0"}, "6": {"label": "*3", "atom_type": "Cs"}, "7": {"label": "*4", "atom_type": "Cs"}}

>  <type>  (13) 
unop_9

>  <geom_source>  (13) 
Heuristics

$$$$

     RDKit          3D

 20 18  0  0  0  0  0  0  0  0999 V2000
    2.0090    2.0844    0.6319 C   0  0  0  0  0  0  0  0  0  0  0  0
    2.0090    2.0844   -0.8227 C   0  0  0  0  0  0  0  0  0  0  0  0
    2.0090    2.0844   -1.9692 N   0  0  0  0  0  0  0  0  0  0  0  0
    1.0559    1.3085    1.0780 H   0  0  0  0  0  0  0  0  0  0  0  0
    2.9660    1.7198    1.0036 H   0  0  0  0  0  0  0  0  0  0  0  0
    1.8462    3.0954    1.0036 H   0  0  0  0  0  0  0  0  0  0  0  0
    0.1020    0.5319    1.5246 C   0  0  0  0  0  3  0  0  0  0  0  0
    0.2947   -0.8964    1.0425 C   0  0  0  0  0  0  0  0  0  0  0  0
   -0.4263   -1.2607   -0.5779 S   0  0  0  0  0  0  0  0  0  0  0  0
   -2.1831   -0.9232   -0.2984 C   0  0  0  0  0  0  0  0  0  0  0  0
   -2.8381   -1.7772    0.7746 C   0  0  0  0  0  0  0  0  0  0  0  0
   -0.9514    0.7546    1.7027 H   0  0  0  0  0  0  0  0  0  0  0  0
    0.6337    0.6890    2.4656 H   0  0  0  0  0  0  0  0  0  0  0  0
   -0.0826   -1.6101    1.7768 H   0  0  0  0  0  0  0  0  0  0  0  0
    1.3557   -1.1139    0.9092 H   0  0  0  0  0  0  0  0  0  0  0  0
   -2.3202    0.1390   -0.0892 H   0  0  0  0  0  0  0  0  0  0  0  0
   -2.6416   -1.1139   -1.2701 H   0  0  0  0  0  0  0  0  0  0  0  0
   -2.4196   -1.5698    1.7609 H   0  0  0  0  0  0  0  0  0  0  0  0
   -3.9092   -1.5689    0.8228 H   0  0  0  0  0  0  0  0  0  0  0  0
   -2.7007   -2.8386    0.5652 H   0  0  0  0  0  0  0  0  0  0  0  0
  1  2  1  0
  1  4  1  0
  1  5  1  0
  1  6  1  0
  2  3  3  0
  7  8  1  0
  7 12  1  0
  7 13  1  0
  8  9  1  0
  8 14  1  0
  8 15  1  0
  9 10  1  0
 10 11  1  0
 10 16  1  0
 10 17  1  0
 11 18  1  0
 11 19  1  0
 11 20  1  0
M  RAD  1   7   2
M  END
>  <reaction>  (14) 
rmg_rxn_96

>  <mol_properties>  (14) 
{"0": {"label": "*1", "atom_type": "Cs"}, "1": {"label": "*0", "atom_type": "Ct"}, "3": {"label": "*2", "atom_type": "H0"}, "6": {"label": "*3", "atom_type": "Cs"}, "7": {"label": "*4", "atom_type": "Cs"}}

>  <type>  (14) 
unop_10

>  <geom_source>  (14) 
Heuristics

$$$$

     RDKit          3D

 20 18  0  0  0  0  0  0  0  0999 V2000
    0.7972    0.7613   -1.5793 C   0  0  0  0  0  0  0  0  0  0  0  0
    0.7972    0.7613   -3.0340 C   0  0  0  0  0  0  0  0  0  0  0  0
    0.7972    0.7613   -4.1804 N   0  0  0  0  0  0  0  0  0  0  0  0
   -0.1558   -0.0145   -1.1332 H   0  0  0  0  0  0  0  0  0  0  0  0
    1.7543    0.3968   -1.2076 H   0  0  0  0  0  0  0  0  0  0  0  0
    0.6345    1.7724   -1.2076 H   0  0  0  0  0  0  0  0  0  0  0  0
   -1.1098   -0.7911   -0.6867 C   0  0  0  0  0  3  0  0  0  0  0  0
   -1.6281   -0.2979    0.6540 C   0  0  0  0  0  0  0  0  0  0  0  0
   -0.4378    0.6546    1.6308 S   0  0  0  0  0  0  0  0  0  0  0  0
    0.8992   -0.5416    1.8753 C   0  0  0  0  0  0  0  0  0  0  0  0
    0.5008   -1.8071    2.6167 C   0  0  0  0  0  0  0  0  0  0  0  0
   -0.3047   -1.5170   -0.5611 H   0  0  0  0  0  0  0  0  0  0  0  0
   -1.9100   -1.2827   -1.2445 H   0  0  0  0  0  0  0  0  0  0  0  0
   -2.0098   -1.1262    1.2533 H   0  0  0  0  0  0  0  0  0  0  0  0
   -2.4589    0.3949    0.5102 H   0  0  0  0  0  0  0  0  0  0  0  0
    1.3536   -0.7804    0.9124 H   0  0  0  0  0  0  0  0  0  0  0  0
    1.6446    0.0155    2.4452 H   0  0  0  0  0  0  0  0  0  0  0  0
   -0.2144   -2.3981    2.0422 H   0  0  0  0  0  0  0  0  0  0  0  0
    1.3774   -2.4344    2.7931 H   0  0  0  0  0  0  0  0  0  0  0  0
    0.0466   -1.5680    3.5789 H   0  0  0  0  0  0  0  0  0  0  0  0
  1  2  1  0
  1  4  1  0
  1  5  1  0
  1  6  1  0
  2  3  3  0
  7  8  1  0
  7 12  1  0
  7 13  1  0
  8  9  1  0
  8 14  1  0
  8 15  1  0
  9 10  1  0
 10 11  1  0
 10 16  1  0
 10 17  1  0
 11 18  1  0
 11 19  1  0
 11 20  1  0
M  RAD  1   7   2
M  END
>  <reaction>  (15) 
rmg_rxn_96

>  <mol_properties>  (15) 
{"0": {"label": "*1", "atom_type": "Cs"}, "1": {"label": "*0", "atom_type": "Ct"}, "3": {"label": "*2", "atom_type": "H0"}, "6": {"label": "*3", "atom_type": "Cs"}, "7": {"label": "*4", "atom_type": "Cs"}}

>  <type>  (15) 
unop_11

>  <geom_source>  (15) 
Heuristics

$$$$

     RDKit          3D

 20 18  0  0  0  0  0  0  0  0999 V2000
    2.4586    0.7496    0.6947 C   0  0  0  0  0  0  0  0  0  0  0  0
    2.4586    0.7496   -0.7599 C   0  0  0  0  0  0  0  0  0  0  0  0
    2.4586    0.7496   -1.9063 N   0  0  0  0  0  0  0  0  0  0  0  0
    1.5056   -0.0262    1.1408 H   0  0  0  0  0  0  0  0  0  0  0  0
    3.4156    0.3851    1.0664 H   0  0  0  0  0  0  0  0  0  0  0  0
    2.2958    1.7607    1.0664 H   0  0  0  0  0  0  0  0  0  0  0  0
    0.5516   -0.8028    1.5874 C   0  0  0  0  0  3  0  0  0  0  0  0
   -0.2196   -1.4307    0.4382 C   0  0  0  0  0  0  0  0  0  0  0  0
   -0.9075   -0.2546   -0.7542 S   0  0  0  0  0  0  0  0  0  0  0  0
   -2.0162    0.7340    0.2810 C   0  0  0  0  0  0  0  0  0  0  0  0
   -3.1319   -0.0473    0.9551 C   0  0  0  0  0  0  0  0  0  0  0  0
   -0.1004   -0.2049    2.2265 H   0  0  0  0  0  0  0  0  0  0  0  0
    0.9998   -1.5791    2.2115 H   0  0  0  0  0  0  0  0  0  0  0  0
   -1.0153   -2.0782    0.8101 H   0  0  0  0  0  0  0  0  0  0  0  0
    0.4389   -2.0571   -0.1658 H   0  0  0  0  0  0  0  0  0  0  0  0
   -1.4295    1.2884    1.0153 H   0  0  0  0  0  0  0  0  0  0  0  0
   -2.4300    1.4695   -0.4108 H   0  0  0  0  0  0  0  0  0  0  0  0
   -2.7379   -0.7602    1.6814 H   0  0  0  0  0  0  0  0  0  0  0  0
   -3.7992    0.6313    1.4910 H   0  0  0  0  0  0  0  0  0  0  0  0
   -3.7179   -0.6014    0.2210 H   0  0  0  0  0  0  0  0  0  0  0  0
  1  2  1  0
  1  4  1  0
  1  5  1  0
  1  6  1  0
  2  3  3  0
  7  8  1  0
  7 12  1  0
  7 13  1  0
  8  9  1  0
  8 14  1  0
  8 15  1  0
  9 10  1  0
 10 11  1  0
 10 16  1  0
 10 17  1  0
 11 18  1  0
 11 19  1  0
 11 20  1  0
M  RAD  1   7   2
M  END
>  <reaction>  (16) 
rmg_rxn_96

>  <mol_properties>  (16) 
{"0": {"label": "*1", "atom_type": "Cs"}, "1": {"label": "*0", "atom_type": "Ct"}, "3": {"label": "*2", "atom_type": "H0"}, "6": {"label": "*3", "atom_type": "Cs"}, "7": {"label": "*4", "atom_type": "Cs"}}

>  <type>  (16) 
unop_12

>  <geom_source>  (16) 
Heuristics

$$$$

     RDKit          3D

 20 18  0  0  0  0  0  0  0  0999 V2000
    1.2803   -1.0847   -1.0686 S   0  0  0  0  0  0  0  0  0  0  0  0
   -2.4126   -0.9102    2.2786 N   0  0  0  0  0  2  0  0  0  0  0  0
   -0.1031   -0.1504   -0.3278 C   0  0  0  0  0  0  0  0  0  0  0  0
    2.4734   -0.7623    0.2785 C   0  0  0  0  0  0  0  0  0  0  0  0
   -1.3104   -0.1950   -1.2504 C   0  0  0  0  0  0  0  0  0  0  0  0
    3.2193    0.5436    0.0377 C   0  0  0  0  0  0  0  0  0  0  0  0
   -3.2038    0.6404    0.3202 C   0  0  0  0  0  0  0  0  0  0  0  0
   -2.7621   -0.2254    1.4137 C   0  0  0  0  0  0  0  0  0  0  0  0
   -0.3784   -0.6005    0.6494 H   0  0  0  0  0  0  0  0  0  0  0  0
    0.1915    0.9078   -0.1710 H   0  0  0  0  0  0  0  0  0  0  0  0
    1.9661   -0.7361    1.2663 H   0  0  0  0  0  0  0  0  0  0  0  0
    3.2080   -1.5946    0.2953 H   0  0  0  0  0  0  0  0  0  0  0  0
   -1.0603    0.2636   -2.2306 H   0  0  0  0  0  0  0  0  0  0  0  0
   -1.6341   -1.2458   -1.4074 H   0  0  0  0  0  0  0  0  0  0  0  0
   -2.2914    0.4716   -0.7118 H   0  0  0  0  0  0  0  0  0  0  0  0
    2.5173    1.4026    0.0514 H   0  0  0  0  0  0  0  0  0  0  0  0
    3.7391    0.5114   -0.9433 H   0  0  0  0  0  0  0  0  0  0  0  0
    3.9755    0.6922    0.8370 H   0  0  0  0  0  0  0  0  0  0  0  0
   -3.1733    1.6990    0.6509 H   0  0  0  0  0  0  0  0  0  0  0  0
   -4.2412    0.3727    0.0321 H   0  0  0  0  0  0  0  0  0  0  0  0
  1  3  1  0
  1  4  1  0
  2  8  2  0
  3  5  1  0
  3  9  1  0
  3 10  1  0
  4  6  1  0
  4 11  1  0
  4 12  1  0
  5 13  1  0
  5 14  1  0
  5 15  1  0
  6 16  1  0
  6 17  1  0
  6 18  1  0
  7  8  2  0
  7 19  1  0
  7 20  1  0
M  RAD  1   2   2
M  END
>  <reaction>  (17) 
rmg_rxn_96

>  <mol_properties>  (17) 
{"0": {"label": "*1", "atom_type": "Cs"}, "1": {"label": "*0", "atom_type": "Ct"}, "3": {"label": "*2", "atom_type": "H0"}, "6": {"label": "*3", "atom_type": "Cs"}, "7": {"label": "*4", "atom_type": "Cs"}}

>  <type>  (17) 
unop_13

>  <geom_source>  (17) 
AutoTST

$$$$

     RDKit          3D

 20 18  0  0  0  0  0  0  0  0999 V2000
    2.3220    1.4662    0.8158 C   0  0  0  0  0  0  0  0  0  0  0  0
    2.3220    1.4662   -0.6388 C   0  0  0  0  0  0  0  0  0  0  0  0
    2.3220    1.4662   -1.7853 N   0  0  0  0  0  0  0  0  0  0  0  0
    1.3690    0.6904    1.2619 H   0  0  0  0  0  0  0  0  0  0  0  0
    3.2790    1.1017    1.1875 H   0  0  0  0  0  0  0  0  0  0  0  0
    2.1592    2.4773    1.1875 H   0  0  0  0  0  0  0  0  0  0  0  0
    0.4150   -0.0862    1.7085 C   0  0  0  0  0  3  0  0  0  0  0  0
    0.1422   -1.2235    0.7380 C   0  0  0  0  0  0  0  0  0  0  0  0
   -0.7244   -0.7444   -0.7778 S   0  0  0  0  0  0  0  0  0  0  0  0
   -2.2810   -0.0806   -0.1338 C   0  0  0  0  0  0  0  0  0  0  0  0
   -3.1185   -1.0667    0.6635 C   0  0  0  0  0  0  0  0  0  0  0  0
   -0.5117    0.3259    2.1115 H   0  0  0  0  0  0  0  0  0  0  0  0
    1.0092   -0.4430    2.5526 H   0  0  0  0  0  0  0  0  0  0  0  0
   -0.4028   -2.0321    1.2280 H   0  0  0  0  0  0  0  0  0  0  0  0
    1.0796   -1.6499    0.3771 H   0  0  0  0  0  0  0  0  0  0  0  0
   -2.0786    0.8197    0.4488 H   0  0  0  0  0  0  0  0  0  0  0  0
   -2.8171    0.2384   -1.0292 H   0  0  0  0  0  0  0  0  0  0  0  0
   -2.6147   -1.3656    1.5843 H   0  0  0  0  0  0  0  0  0  0  0  0
   -4.0720   -0.6137    0.9440 H   0  0  0  0  0  0  0  0  0  0  0  0
   -3.3203   -1.9663    0.0810 H   0  0  0  0  0  0  0  0  0  0  0  0
  1  2  1  0
  1  4  1  0
  1  5  1  0
  1  6  1  0
  2  3  3  0
  7  8  1  0
  7 12  1  0
  7 13  1  0
  8  9  1  0
  8 14  1  0
  8 15  1  0
  9 10  1  0
 10 11  1  0
 10 16  1  0
 10 17  1  0
 11 18  1  0
 11 19  1  0
 11 20  1  0
M  RAD  1   7   2
M  END
>  <reaction>  (18) 
rmg_rxn_96

>  <mol_properties>  (18) 
{"0": {"label": "*1", "atom_type": "Cs"}, "1": {"label": "*0", "atom_type": "Ct"}, "3": {"label": "*2", "atom_type": "H0"}, "6": {"label": "*3", "atom_type": "Cs"}, "7": {"label": "*4", "atom_type": "Cs"}}

>  <type>  (18) 
unop_14

>  <geom_source>  (18) 
gaussian_log

$$$$
