
     RDKit          3D

  3  2  0  0  0  0  0  0  0  0999 V2000
   -0.0007    0.6157    0.0000 S   0  0  0  0  0  0  0  0  0  0  0  0
   -0.9686   -0.3090    0.0000 H   0  0  0  0  0  0  0  0  0  0  0  0
    0.9693   -0.3067    0.0000 H   0  0  0  0  0  0  0  0  0  0  0  0
  1  2  1  0
  1  3  1  0
M  END
>  <reaction>  (1) 
rmg_rxn_529

>  <mol_properties>  (1) 
{"0": {"label": "donator", "atom_type": "S2s"}, "1": {"label": "d_hydrogen", "atom_type": "H0"}}

>  <type>  (1) 
r1h

$$$$

     RDKit          3D

 11 10  0  0  0  0  0  0  0  0999 V2000
    2.2312    0.7411   -0.3115 C   0  0  0  0  0  3  0  0  0  0  0  0
    0.6426    1.1039   -0.7896 S   0  0  0  0  0  0  0  0  0  0  0  0
    0.9085    2.4168   -2.0061 C   0  0  0  0  0  0  0  0  0  0  0  0
    1.5570    1.9429   -3.2967 C   0  0  0  0  0  0  0  0  0  0  0  0
    2.3707   -0.0938    0.3575 H   0  0  0  0  0  0  0  0  0  0  0  0
    3.0432    1.4267   -0.5066 H   0  0  0  0  0  0  0  0  0  0  0  0
    1.4997    3.2005   -1.5289 H   0  0  0  0  0  0  0  0  0  0  0  0
   -0.0844    2.8269   -2.1951 H   0  0  0  0  0  0  0  0  0  0  0  0
    0.9451    1.1830   -3.7838 H   0  0  0  0  0  0  0  0  0  0  0  0
    1.6803    2.7812   -3.9857 H   0  0  0  0  0  0  0  0  0  0  0  0
    2.5399    1.5119   -3.1043 H   0  0  0  0  0  0  0  0  0  0  0  0
  1  2  1  0
  1  5  1  0
  1  6  1  0
  2  3  1  0
  3  4  1  0
  3  7  1  0
  3  8  1  0
  4  9  1  0
  4 10  1  0
  4 11  1  0
M  RAD  1   1   2
M  END
>  <reaction>  (2) 
rmg_rxn_529

>  <mol_properties>  (2) 
{"0": {"label": "acceptor", "atom_type": "Cs"}}

>  <type>  (2) 
r2

$$$$

     RDKit          3D

 12 11  0  0  0  0  0  0  0  0999 V2000
    1.8075    0.1979    0.4695 C   0  0  0  0  0  0  0  0  0  0  0  0
    1.0072   -0.8859   -0.7259 S   0  0  0  0  0  0  0  0  0  0  0  0
   -0.7258   -0.6904   -0.2447 C   0  0  0  0  0  0  0  0  0  0  0  0
   -1.0856   -1.2776    1.1108 C   0  0  0  0  0  0  0  0  0  0  0  0
    1.7126   -0.1777    1.4878 H   0  0  0  0  0  0  0  0  0  0  0  0
    1.4024    1.2089    0.4095 H   0  0  0  0  0  0  0  0  0  0  0  0
    2.8647    0.2298    0.2095 H   0  0  0  0  0  0  0  0  0  0  0  0
   -1.2866   -1.1892   -1.0369 H   0  0  0  0  0  0  0  0  0  0  0  0
   -0.9814    0.3707   -0.2917 H   0  0  0  0  0  0  0  0  0  0  0  0
   -0.5492   -0.7768    1.9180 H   0  0  0  0  0  0  0  0  0  0  0  0
   -0.8418   -2.3397    1.1503 H   0  0  0  0  0  0  0  0  0  0  0  0
   -2.1545   -1.1604    1.3035 H   0  0  0  0  0  0  0  0  0  0  0  0
  1  2  1  0
  1  5  1  0
  1  6  1  0
  1  7  1  0
  2  3  1  0
  3  4  1  0
  3  8  1  0
  3  9  1  0
  4 10  1  0
  4 11  1  0
  4 12  1  0
M  END
>  <reaction>  (3) 
rmg_rxn_529

>  <mol_properties>  (3) 
{"0": {"label": "a_hydrogen", "atom_type": "H0"}, "1": {"label": "acceptor", "atom_type": "Cs"}}

>  <type>  (3) 
r2h

$$$$

     RDKit          3D

 14 12  0  0  0  0  0  0  0  0999 V2000
   -0.7358   -2.3821    0.8660 S   0  0  0  0  0  1  0  0  0  0  0  0
   -0.6417   -0.8622    0.9712 H   0  0  0  0  0  0  0  0  0  0  0  0
   -1.5799   -2.2470   -0.1660 H   0  0  0  0  0  0  0  0  0  0  0  0
   -0.5188    0.5786    0.9950 C   0  0  0  0  0  0  0  0  0  0  0  0
   -0.5268    1.1595   -0.6282 S   0  0  0  0  0  0  0  0  0  0  0  0
    1.0671    0.5484   -1.2351 C   0  0  0  0  0  0  0  0  0  0  0  0
    2.2799    1.2672   -0.6683 C   0  0  0  0  0  0  0  0  0  0  0  0
   -1.3933    0.8915    1.5560 H   0  0  0  0  0  0  0  0  0  0  0  0
    0.4165    0.6482    1.5440 H   0  0  0  0  0  0  0  0  0  0  0  0
    1.0125    0.6747   -2.3169 H   0  0  0  0  0  0  0  0  0  0  0  0
    1.0988   -0.5231   -1.0282 H   0  0  0  0  0  0  0  0  0  0  0  0
    2.3509    1.1453    0.4130 H   0  0  0  0  0  0  0  0  0  0  0  0
    3.1914    0.8550   -1.1054 H   0  0  0  0  0  0  0  0  0  0  0  0
    2.2438    2.3341   -0.8894 H   0  0  0  0  0  0  0  0  0  0  0  0
  1  3  1  0
  2  4  1  0
  4  5  1  0
  4  8  1  0
  4  9  1  0
  5  6  1  0
  6  7  1  0
  6 10  1  0
  6 11  1  0
  7 12  1  0
  7 13  1  0
  7 14  1  0
M  RAD  1   1   2
M  END
>  <reaction>  (4) 
rmg_rxn_529

>  <mol_properties>  (4) 
{"0": {"label": "*3", "atom_type": "S2s"}, "1": {"label": "*2", "atom_type": "H0"}, "2": {"label": "*4", "atom_type": "H0"}, "3": {"label": "*1", "atom_type": "Cs"}, "4": {"label": "*0", "atom_type": "S2s"}}

>  <type>  (4) 
ts

$$$$

     RDKit          3D

 14 12  0  0  0  0  0  0  0  0999 V2000
    1.0433   -2.6186   -0.0750 S   0  0  0  0  0  1  0  0  0  0  0  0
    1.0433   -1.0141    0.0021 H   0  0  0  0  0  0  0  0  0  0  0  0
    1.0433   -2.6186   -1.4136 H   0  0  0  0  0  0  0  0  0  0  0  0
    1.0433    0.2934    0.0649 C   0  0  0  0  0  0  0  0  0  0  0  0
   -0.4144    0.8938    0.9362 S   0  0  0  0  0  0  0  0  0  0  0  0
   -1.5090    1.2579   -0.4574 C   0  0  0  0  0  0  0  0  0  0  0  0
   -1.0720    2.4245   -1.3290 C   0  0  0  0  0  0  0  0  0  0  0  0
    1.7467   -0.0480    0.8231 H   0  0  0  0  0  0  0  0  0  0  0  0
    1.5199    1.0783   -0.5214 H   0  0  0  0  0  0  0  0  0  0  0  0
   -2.4759    1.4676    0.0030 H   0  0  0  0  0  0  0  0  0  0  0  0
   -1.6284    0.3489   -1.0515 H   0  0  0  0  0  0  0  0  0  0  0  0
   -0.1158    2.2240   -1.8144 H   0  0  0  0  0  0  0  0  0  0  0  0
   -1.8082    2.6076   -2.1150 H   0  0  0  0  0  0  0  0  0  0  0  0
   -0.9665    3.3334   -0.7358 H   0  0  0  0  0  0  0  0  0  0  0  0
  1  3  1  0
  2  4  1  0
  4  5  1  0
  4  8  1  0
  4  9  1  0
  5  6  1  0
  6  7  1  0
  6 10  1  0
  6 11  1  0
  7 12  1  0
  7 13  1  0
  7 14  1  0
M  RAD  1   1   2
M  END
>  <reaction>  (5) 
rmg_rxn_529

>  <mol_properties>  (5) 
{"0": {"label": "*3", "atom_type": "S2s"}, "1": {"label": "*2", "atom_type": "H0"}, "2": {"label": "*4", "atom_type": "H0"}, "3": {"label": "*1", "atom_type": "Cs"}, "4": {"label": "*0", "atom_type": "S2s"}}

>  <type>  (5) 
unop_1

>  <geom_source>  (5) 
Heuristics

$$$$

     RDKit          3D

 14 12  0  0  0  0  0  0  0  0999 V2000
   -0.0431   -2.4649    1.0322 S   0  0  0  0  0  1  0  0  0  0  0  0
   -0.0431   -0.8604    1.1093 H   0  0  0  0  0  0  0  0  0  0  0  0
   -0.0431   -2.4649   -0.3064 H   0  0  0  0  0  0  0  0  0  0  0  0
   -0.0431    0.4470    1.1721 C   0  0  0  0  0  0  0  0  0  0  0  0
   -0.8847    1.1577   -0.2531 S   0  0  0  0  0  0  0  0  0  0  0  0
    0.3602    0.8961   -1.5395 C   0  0  0  0  0  0  0  0  0  0  0  0
    1.6260    1.7242   -1.3856 C   0  0  0  0  0  0  0  0  0  0  0  0
   -0.7508    0.4672    1.9998 H   0  0  0  0  0  0  0  0  0  0  0  0
    0.8371    1.0233    1.4550 H   0  0  0  0  0  0  0  0  0  0  0  0
   -0.1510    1.1510   -2.4693 H   0  0  0  0  0  0  0  0  0  0  0  0
    0.5934   -0.1701   -1.5849 H   0  0  0  0  0  0  0  0  0  0  0  0
    2.1618    1.4682   -0.4704 H   0  0  0  0  0  0  0  0  0  0  0  0
    2.3020    1.5436   -2.2244 H   0  0  0  0  0  0  0  0  0  0  0  0
    1.3914    2.7887   -1.3538 H   0  0  0  0  0  0  0  0  0  0  0  0
  1  3  1  0
  2  4  1  0
  4  5  1  0
  4  8  1  0
  4  9  1  0
  5  6  1  0
  6  7  1  0
  6 10  1  0
  6 11  1  0
  7 12  1  0
  7 13  1  0
  7 14  1  0
M  RAD  1   1   2
M  END
>  <reaction>  (6) 
rmg_rxn_529

>  <mol_properties>  (6) 
{"0": {"label": "*3", "atom_type": "S2s"}, "1": {"label": "*2", "atom_type": "H0"}, "2": {"label": "*4", "atom_type": "H0"}, "3": {"label": "*1", "atom_type": "Cs"}, "4": {"label": "*0", "atom_type": "S2s"}}

>  <type>  (6) 
unop_2

>  <geom_source>  (6) 
Heuristics

$$$$

     RDKit          3D

 14 12  0  0  0  0  0  0  0  0999 V2000
    0.9738   -2.4897   -0.6120 S   0  0  0  0  0  1  0  0  0  0  0  0
    0.9738   -0.8852   -0.5349 H   0  0  0  0  0  0  0  0  0  0  0  0
    0.9738   -2.4897   -1.9506 H   0  0  0  0  0  0  0  0  0  0  0  0
    0.9738    0.4223   -0.4721 C   0  0  0  0  0  0  0  0  0  0  0  0
    0.1323    0.9931    1.0146 S   0  0  0  0  0  0  0  0  0  0  0  0
   -1.5845    0.9992    0.4439 C   0  0  0  0  0  0  0  0  0  0  0  0
   -1.9070    2.0473   -0.6092 C   0  0  0  0  0  0  0  0  0  0  0  0
    2.0229    0.2905   -0.2109 H   0  0  0  0  0  0  0  0  0  0  0  0
    0.9072    1.1477   -1.2822 H   0  0  0  0  0  0  0  0  0  0  0  0
   -2.1714    1.1737    1.3472 H   0  0  0  0  0  0  0  0  0  0  0  0
   -1.8355   -0.0028    0.0884 H   0  0  0  0  0  0  0  0  0  0  0  0
   -1.3440    1.8766   -1.5280 H   0  0  0  0  0  0  0  0  0  0  0  0
   -2.9690    2.0158   -0.8632 H   0  0  0  0  0  0  0  0  0  0  0  0
   -1.6679    3.0475   -0.2467 H   0  0  0  0  0  0  0  0  0  0  0  0
  1  3  1  0
  2  4  1  0
  4  5  1  0
  4  8  1  0
  4  9  1  0
  5  6  1  0
  6  7  1  0
  6 10  1  0
  6 11  1  0
  7 12  1  0
  7 13  1  0
  7 14  1  0
M  RAD  1   1   2
M  END
>  <reaction>  (7) 
rmg_rxn_529

>  <mol_properties>  (7) 
{"0": {"label": "*3", "atom_type": "S2s"}, "1": {"label": "*2", "atom_type": "H0"}, "2": {"label": "*4", "atom_type": "H0"}, "3": {"label": "*1", "atom_type": "Cs"}, "4": {"label": "*0", "atom_type": "S2s"}}

>  <type>  (7) 
unop_3

>  <geom_source>  (7) 
Heuristics

$$$$

     RDKit          3D

 14 12  0  0  0  0  0  0  0  0999 V2000
   -1.1837   -1.9810    0.1288 S   0  0  0  0  0  1  0  0  0  0  0  0
   -1.1837   -0.3765    0.2059 H   0  0  0  0  0  0  0  0  0  0  0  0
   -1.1837   -1.9810   -1.2098 H   0  0  0  0  0  0  0  0  0  0  0  0
   -1.1837    0.9310    0.2687 C   0  0  0  0  0  0  0  0  0  0  0  0
    0.2739    1.6121   -0.5411 S   0  0  0  0  0  0  0  0  0  0  0  0
    1.4142    0.2140   -0.4054 C   0  0  0  0  0  0  0  0  0  0  0  0
    1.8718   -0.1059    1.0087 C   0  0  0  0  0  0  0  0  0  0  0  0
   -1.9786    1.6677    0.1612 H   0  0  0  0  0  0  0  0  0  0  0  0
   -1.0154    0.7556    1.3308 H   0  0  0  0  0  0  0  0  0  0  0  0
    2.2658    0.4956   -1.0269 H   0  0  0  0  0  0  0  0  0  0  0  0
    0.9514   -0.6578   -0.8736 H   0  0  0  0  0  0  0  0  0  0  0  0
    1.0355   -0.4097    1.6399 H   0  0  0  0  0  0  0  0  0  0  0  0
    2.5916   -0.9277    0.9979 H   0  0  0  0  0  0  0  0  0  0  0  0
    2.3452    0.7620    1.4687 H   0  0  0  0  0  0  0  0  0  0  0  0
  1  3  1  0
  2  4  1  0
  4  5  1  0
  4  8  1  0
  4  9  1  0
  5  6  1  0
  6  7  1  0
  6 10  1  0
  6 11  1  0
  7 12  1  0
  7 13  1  0
  7 14  1  0
M  RAD  1   1   2
M  END
>  <reaction>  (8) 
rmg_rxn_529

>  <mol_properties>  (8) 
{"0": {"label": "*3", "atom_type": "S2s"}, "1": {"label": "*2", "atom_type": "H0"}, "2": {"label": "*4", "atom_type": "H0"}, "3": {"label": "*1", "atom_type": "Cs"}, "4": {"label": "*0", "atom_type": "S2s"}}

>  <type>  (8) 
unop_4

>  <geom_source>  (8) 
Heuristics

$$$$

     RDKit          3D

 14 12  0  0  0  0  0  0  0  0999 V2000
    0.5831   -2.1844   -1.1242 S   0  0  0  0  0  1  0  0  0  0  0  0
    0.5831   -0.5799   -1.0471 H   0  0  0  0  0  0  0  0  0  0  0  0
    0.5831   -2.1844   -2.4628 H   0  0  0  0  0  0  0  0  0  0  0  0
    0.5831    0.7275   -0.9843 C   0  0  0  0  0  0  0  0  0  0  0  0
    0.5831    1.2876    0.7277 S   0  0  0  0  0  0  0  0  0  0  0  0
   -0.8999    0.4584    1.3493 C   0  0  0  0  0  0  0  0  0  0  0  0
   -2.2106    0.9718    0.7748 C   0  0  0  0  0  0  0  0  0  0  0  0
    1.5009    1.0986   -1.4384 H   0  0  0  0  0  0  0  0  0  0  0  0
   -0.2643    1.1237   -1.5428 H   0  0  0  0  0  0  0  0  0  0  0  0
   -0.8688    0.6173    2.4285 H   0  0  0  0  0  0  0  0  0  0  0  0
   -0.7931   -0.6157    1.1812 H   0  0  0  0  0  0  0  0  0  0  0  0
   -2.2683    0.8027   -0.3015 H   0  0  0  0  0  0  0  0  0  0  0  0
   -3.0553    0.4541    1.2351 H   0  0  0  0  0  0  0  0  0  0  0  0
   -2.3207    2.0415    0.9557 H   0  0  0  0  0  0  0  0  0  0  0  0
  1  3  1  0
  2  4  1  0
  4  5  1  0
  4  8  1  0
  4  9  1  0
  5  6  1  0
  6  7  1  0
  6 10  1  0
  6 11  1  0
  7 12  1  0
  7 13  1  0
  7 14  1  0
M  RAD  1   1   2
M  END
>  <reaction>  (9) 
rmg_rxn_529

>  <mol_properties>  (9) 
{"0": {"label": "*3", "atom_type": "S2s"}, "1": {"label": "*2", "atom_type": "H0"}, "2": {"label": "*4", "atom_type": "H0"}, "3": {"label": "*1", "atom_type": "Cs"}, "4": {"label": "*0", "atom_type": "S2s"}}

>  <type>  (9) 
unop_5

>  <geom_source>  (9) 
Heuristics

$$$$

     RDKit          3D

 14 12  0  0  0  0  0  0  0  0999 V2000
   -1.1485   -1.9077   -0.4261 S   0  0  0  0  0  1  0  0  0  0  0  0
   -1.1485   -0.3032   -0.3490 H   0  0  0  0  0  0  0  0  0  0  0  0
   -1.1485   -1.9077   -1.7647 H   0  0  0  0  0  0  0  0  0  0  0  0
   -1.1485    1.0042   -0.2862 C   0  0  0  0  0  0  0  0  0  0  0  0
    0.5346    1.6450   -0.2554 S   0  0  0  0  0  0  0  0  0  0  0  0
    1.4506    0.1530    0.2005 C   0  0  0  0  0  0  0  0  0  0  0  0
    1.2013   -0.3461    1.6148 C   0  0  0  0  0  0  0  0  0  0  0  0
   -1.7871    1.8099   -0.6459 H   0  0  0  0  0  0  0  0  0  0  0  0
   -1.4901    0.7079    0.7050 H   0  0  0  0  0  0  0  0  0  0  0  0
    2.4991    0.4272    0.0726 H   0  0  0  0  0  0  0  0  0  0  0  0
    1.2323   -0.6260   -0.5335 H   0  0  0  0  0  0  0  0  0  0  0  0
    0.1614   -0.6445    1.7554 H   0  0  0  0  0  0  0  0  0  0  0  0
    1.8253   -1.2178    1.8252 H   0  0  0  0  0  0  0  0  0  0  0  0
    1.4327    0.4290    2.3460 H   0  0  0  0  0  0  0  0  0  0  0  0
  1  3  1  0
  2  4  1  0
  4  5  1  0
  4  8  1  0
  4  9  1  0
  5  6  1  0
  6  7  1  0
  6 10  1  0
  6 11  1  0
  7 12  1  0
  7 13  1  0
  7 14  1  0
M  RAD  1   1   2
M  END
>  <reaction>  (10) 
rmg_rxn_529

>  <mol_properties>  (10) 
{"0": {"label": "*3", "atom_type": "S2s"}, "1": {"label": "*2", "atom_type": "H0"}, "2": {"label": "*4", "atom_type": "H0"}, "3": {"label": "*1", "atom_type": "Cs"}, "4": {"label": "*0", "atom_type": "S2s"}}

>  <type>  (10) 
unop_6

>  <geom_source>  (10) 
Heuristics

$$$$

     RDKit          3D

 14 12  0  0  0  0  0  0  0  0999 V2000
   -0.8238   -1.8803   -0.9508 S   0  0  0  0  0  1  0  0  0  0  0  0
   -0.8238   -0.2758   -0.8737 H   0  0  0  0  0  0  0  0  0  0  0  0
   -0.8238   -1.8803   -2.2894 H   0  0  0  0  0  0  0  0  0  0  0  0
   -0.8238    1.0316   -0.8109 C   0  0  0  0  0  0  0  0  0  0  0  0
    0.6338    1.6320    0.0605 S   0  0  0  0  0  0  0  0  0  0  0  0
    1.1704    0.1186    0.8941 C   0  0  0  0  0  0  0  0  0  0  0  0
    0.2401   -0.3742    1.9910 C   0  0  0  0  0  0  0  0  0  0  0  0
   -1.1819    1.8522   -1.4311 H   0  0  0  0  0  0  0  0  0  0  0  0
   -1.6193    0.7437   -0.1244 H   0  0  0  0  0  0  0  0  0  0  0  0
    2.1489    0.3676    1.3079 H   0  0  0  0  0  0  0  0  0  0  0  0
    1.3300   -0.6551    0.1396 H   0  0  0  0  0  0  0  0  0  0  0  0
   -0.7379   -0.6477    1.5923 H   0  0  0  0  0  0  0  0  0  0  0  0
    0.6584   -1.2605    2.4736 H   0  0  0  0  0  0  0  0  0  0  0  0
    0.0931    0.3953    2.7495 H   0  0  0  0  0  0  0  0  0  0  0  0
  1  3  1  0
  2  4  1  0
  4  5  1  0
  4  8  1  0
  4  9  1  0
  5  6  1  0
  6  7  1  0
  6 10  1  0
  6 11  1  0
  7 12  1  0
  7 13  1  0
  7 14  1  0
M  RAD  1   1   2
M  END
>  <reaction>  (11) 
rmg_rxn_529

>  <mol_properties>  (11) 
{"0": {"label": "*3", "atom_type": "S2s"}, "1": {"label": "*2", "atom_type": "H0"}, "2": {"label": "*4", "atom_type": "H0"}, "3": {"label": "*1", "atom_type": "Cs"}, "4": {"label": "*0", "atom_type": "S2s"}}

>  <type>  (11) 
unop_7

>  <geom_source>  (11) 
Heuristics

$$$$

     RDKit          3D

 14 12  0  0  0  0  0  0  0  0999 V2000
    0.8856   -2.6400    0.4427 S   0  0  0  0  0  1  0  0  0  0  0  0
    0.8856   -1.0355    0.5197 H   0  0  0  0  0  0  0  0  0  0  0  0
    0.8856   -2.6400   -0.8960 H   0  0  0  0  0  0  0  0  0  0  0  0
    0.8856    0.2719    0.5825 C   0  0  0  0  0  0  0  0  0  0  0  0
   -0.7975    0.9127    0.6133 S   0  0  0  0  0  0  0  0  0  0  0  0
   -1.0449    1.2831   -1.1402 C   0  0  0  0  0  0  0  0  0  0  0  0
   -0.2046    2.4301   -1.6786 C   0  0  0  0  0  0  0  0  0  0  0  0
    1.1104   -0.0751    1.5902 H   0  0  0  0  0  0  0  0  0  0  0  0
    1.6093    1.0399    0.3113 H   0  0  0  0  0  0  0  0  0  0  0  0
   -2.1074    1.5183   -1.2218 H   0  0  0  0  0  0  0  0  0  0  0  0
   -0.8747    0.3699   -1.7150 H   0  0  0  0  0  0  0  0  0  0  0  0
    0.8613    2.2041   -1.6239 H   0  0  0  0  0  0  0  0  0  0  0  0
   -0.4477    2.6193   -2.7267 H   0  0  0  0  0  0  0  0  0  0  0  0
   -0.3863    3.3435   -1.1114 H   0  0  0  0  0  0  0  0  0  0  0  0
  1  3  1  0
  2  4  1  0
  4  5  1  0
  4  8  1  0
  4  9  1  0
  5  6  1  0
  6  7  1  0
  6 10  1  0
  6 11  1  0
  7 12  1  0
  7 13  1  0
  7 14  1  0
M  RAD  1   1   2
M  END
>  <reaction>  (12) 
rmg_rxn_529

>  <mol_properties>  (12) 
{"0": {"label": "*3", "atom_type": "S2s"}, "1": {"label": "*2", "atom_type": "H0"}, "2": {"label": "*4", "atom_type": "H0"}, "3": {"label": "*1", "atom_type": "Cs"}, "4": {"label": "*0", "atom_type": "S2s"}}

>  <type>  (12) 
unop_8

>  <geom_source>  (12) 
Heuristics

$$$$

     RDKit          3D

 14 12  0  0  0  0  0  0  0  0999 V2000
   -0.9814   -2.1059    0.6063 S   0  0  0  0  0  1  0  0  0  0  0  0
   -0.9814   -0.5014    0.6834 H   0  0  0  0  0  0  0  0  0  0  0  0
   -0.9814   -2.1059   -0.7324 H   0  0  0  0  0  0  0  0  0  0  0  0
   -0.9814    0.8060    0.7462 C   0  0  0  0  0  0  0  0  0  0  0  0
   -0.1399    1.5168   -0.6790 S   0  0  0  0  0  0  0  0  0  0  0  0
    1.2209    0.3420   -0.8822 C   0  0  0  0  0  0  0  0  0  0  0  0
    2.2582    0.3631    0.2292 C   0  0  0  0  0  0  0  0  0  0  0  0
   -1.8864    1.3913    0.9034 H   0  0  0  0  0  0  0  0  0  0  0  0
   -0.3727    0.8606    1.6480 H   0  0  0  0  0  0  0  0  0  0  0  0
    1.6776    0.6160   -1.8347 H   0  0  0  0  0  0  0  0  0  0  0  0
    0.8000   -0.6585   -1.0056 H   0  0  0  0  0  0  0  0  0  0  0  0
    1.8237    0.0715    1.1865 H   0  0  0  0  0  0  0  0  0  0  0  0
    3.0664   -0.3377    0.0074 H   0  0  0  0  0  0  0  0  0  0  0  0
    2.6862    1.3597    0.3413 H   0  0  0  0  0  0  0  0  0  0  0  0
  1  3  1  0
  2  4  1  0
  4  5  1  0
  4  8  1  0
  4  9  1  0
  5  6  1  0
  6  7  1  0
  6 10  1  0
  6 11  1  0
  7 12  1  0
  7 13  1  0
  7 14  1  0
M  RAD  1   1   2
M  END
>  <reaction>  (13) 
rmg_rxn_529

>  <mol_properties>  (13) 
{"0": {"label": "*3", "atom_type": "S2s"}, "1": {"label": "*2", "atom_type": "H0"}, "2": {"label": "*4", "atom_type": "H0"}, "3": {"label": "*1", "atom_type": "Cs"}, "4": {"label": "*0", "atom_type": "S2s"}}

>  <type>  (13) 
unop_9

>  <geom_source>  (13) 
Heuristics

$$$$

     RDKit          3D

 14 12  0  0  0  0  0  0  0  0999 V2000
    0.4985   -2.5892    0.8504 S   0  0  0  0  0  1  0  0  0  0  0  0
    0.4985   -0.9847    0.9275 H   0  0  0  0  0  0  0  0  0  0  0  0
    0.4985   -2.5892   -0.4882 H   0  0  0  0  0  0  0  0  0  0  0  0
    0.4985    0.3227    0.9903 C   0  0  0  0  0  0  0  0  0  0  0  0
   -0.9591    1.0039    0.1805 S   0  0  0  0  0  0  0  0  0  0  0  0
   -0.3568    1.1527   -1.5190 C   0  0  0  0  0  0  0  0  0  0  0  0
    0.7256    2.2000   -1.7268 C   0  0  0  0  0  0  0  0  0  0  0  0
    0.2151    0.1021    2.0185 H   0  0  0  0  0  0  0  0  0  0  0  0
    1.3260    1.0313    1.0037 H   0  0  0  0  0  0  0  0  0  0  0  0
   -1.2450    1.4020   -2.1020 H   0  0  0  0  0  0  0  0  0  0  0  0
   -0.0195    0.1695   -1.8549 H   0  0  0  0  0  0  0  0  0  0  0  0
    1.6297    1.9564   -1.1670 H   0  0  0  0  0  0  0  0  0  0  0  0
    0.9984    2.2595   -2.7830 H   0  0  0  0  0  0  0  0  0  0  0  0
    0.3815    3.1828   -1.4030 H   0  0  0  0  0  0  0  0  0  0  0  0
  1  3  1  0
  2  4  1  0
  4  5  1  0
  4  8  1  0
  4  9  1  0
  5  6  1  0
  6  7  1  0
  6 10  1  0
  6 11  1  0
  7 12  1  0
  7 13  1  0
  7 14  1  0
M  RAD  1   1   2
M  END
>  <reaction>  (14) 
rmg_rxn_529

>  <mol_properties>  (14) 
{"0": {"label": "*3", "atom_type": "S2s"}, "1": {"label": "*2", "atom_type": "H0"}, "2": {"label": "*4", "atom_type": "H0"}, "3": {"label": "*1", "atom_type": "Cs"}, "4": {"label": "*0", "atom_type": "S2s"}}

>  <type>  (14) 
unop_10

>  <geom_source>  (14) 
Heuristics

$$$$

     RDKit          3D

 14 12  0  0  0  0  0  0  0  0999 V2000
   -0.1872   -1.9347   -1.2703 S   0  0  0  0  0  1  0  0  0  0  0  0
   -0.1872   -0.3302   -1.1933 H   0  0  0  0  0  0  0  0  0  0  0  0
   -0.1872   -1.9347   -2.6090 H   0  0  0  0  0  0  0  0  0  0  0  0
   -0.1872    0.9772   -1.1304 C   0  0  0  0  0  0  0  0  0  0  0  0
    0.6543    1.5480    0.3563 S   0  0  0  0  0  0  0  0  0  0  0  0
    0.3707    0.1428    1.4599 C   0  0  0  0  0  0  0  0  0  0  0  0
   -1.0750   -0.0565    1.8865 C   0  0  0  0  0  0  0  0  0  0  0  0
    0.0017    1.7189   -1.9054 H   0  0  0  0  0  0  0  0  0  0  0  0
   -1.2638    0.8961   -0.9838 H   0  0  0  0  0  0  0  0  0  0  0  0
    0.9994    0.3468    2.3281 H   0  0  0  0  0  0  0  0  0  0  0  0
    0.7657   -0.7576    0.9837 H   0  0  0  0  0  0  0  0  0  0  0  0
   -1.7158   -0.2821    1.0329 H   0  0  0  0  0  0  0  0  0  0  0  0
   -1.1524   -0.8919    2.5862 H   0  0  0  0  0  0  0  0  0  0  0  0
   -1.4625    0.8390    2.3733 H   0  0  0  0  0  0  0  0  0  0  0  0
  1  3  1  0
  2  4  1  0
  4  5  1  0
  4  8  1  0
  4  9  1  0
  5  6  1  0
  6  7  1  0
  6 10  1  0
  6 11  1  0
  7 12  1  0
  7 13  1  0
  7 14  1  0
M  RAD  1   1   2
M  END
>  <reaction>  (15) 
rmg_rxn_529

>  <mol_properties>  (15) 
{"0": {"label": "*3", "atom_type": "S2s"}, "1": {"label": "*2", "atom_type": "H0"}, "2": {"label": "*4", "atom_type": "H0"}, "3": {"label": "*1", "atom_type": "Cs"}, "4": {"label": "*0", "atom_type": "S2s"}}

>  <type>  (15) 
unop_11

>  <geom_source>  (15) 
Heuristics

$$$$

     RDKit          3D

 14 12  0  0  0  0  0  0  0  0999 V2000
   -0.5831   -2.2833    0.9343 S   0  0  0  0  0  1  0  0  0  0  0  0
   -0.5831   -0.6788    1.0114 H   0  0  0  0  0  0  0  0  0  0  0  0
   -0.5831   -2.2833   -0.4043 H   0  0  0  0  0  0  0  0  0  0  0  0
   -0.5831    0.6287    1.0742 C   0  0  0  0  0  0  0  0  0  0  0  0
   -0.5831    1.3502   -0.5762 S   0  0  0  0  0  0  0  0  0  0  0  0
    0.8999    0.5845   -1.2744 C   0  0  0  0  0  0  0  0  0  0  0  0
    2.2106    1.0404   -0.6534 C   0  0  0  0  0  0  0  0  0  0  0  0
   -1.5009    0.9544    1.5618 H   0  0  0  0  0  0  0  0  0  0  0  0
    0.2643    0.9694    1.6681 H   0  0  0  0  0  0  0  0  0  0  0  0
    0.8688    0.8460   -2.3334 H   0  0  0  0  0  0  0  0  0  0  0  0
    0.7931   -0.5008   -1.2100 H   0  0  0  0  0  0  0  0  0  0  0  0
    2.2683    0.7689    0.4017 H   0  0  0  0  0  0  0  0  0  0  0  0
    3.0553    0.5693   -1.1612 H   0  0  0  0  0  0  0  0  0  0  0  0
    2.3207    2.1225   -0.7309 H   0  0  0  0  0  0  0  0  0  0  0  0
  1  3  1  0
  2  4  1  0
  4  5  1  0
  4  8  1  0
  4  9  1  0
  5  6  1  0
  6  7  1  0
  6 10  1  0
  6 11  1  0
  7 12  1  0
  7 13  1  0
  7 14  1  0
M  RAD  1   1   2
M  END
>  <reaction>  (16) 
rmg_rxn_529

>  <mol_properties>  (16) 
{"0": {"label": "*3", "atom_type": "S2s"}, "1": {"label": "*2", "atom_type": "H0"}, "2": {"label": "*4", "atom_type": "H0"}, "3": {"label": "*1", "atom_type": "Cs"}, "4": {"label": "*0", "atom_type": "S2s"}}

>  <type>  (16) 
unop_12

>  <geom_source>  (16) 
Heuristics

$$$$

     RDKit          3D

 14 12  0  0  0  0  0  0  0  0999 V2000
   -0.0431   -2.4649    1.0322 S   0  0  0  0  0  1  0  0  0  0  0  0
   -0.0431   -0.8604    1.1093 H   0  0  0  0  0  0  0  0  0  0  0  0
   -0.0431   -2.4649   -0.3064 H   0  0  0  0  0  0  0  0  0  0  0  0
   -0.0431    0.4470    1.1721 C   0  0  0  0  0  0  0  0  0  0  0  0
   -0.8847    1.1577   -0.2531 S   0  0  0  0  0  0  0  0  0  0  0  0
    0.3602    0.8961   -1.5395 C   0  0  0  0  0  0  0  0  0  0  0  0
    1.6260    1.7242   -1.3856 C   0  0  0  0  0  0  0  0  0  0  0  0
   -0.7508    0.4672    1.9998 H   0  0  0  0  0  0  0  0  0  0  0  0
    0.8371    1.0233    1.4550 H   0  0  0  0  0  0  0  0  0  0  0  0
   -0.1510    1.1510   -2.4693 H   0  0  0  0  0  0  0  0  0  0  0  0
    0.5934   -0.1701   -1.5849 H   0  0  0  0  0  0  0  0  0  0  0  0
    2.1618    1.4682   -0.4704 H   0  0  0  0  0  0  0  0  0  0  0  0
    2.3020    1.5436   -2.2244 H   0  0  0  0  0  0  0  0  0  0  0  0
    1.3914    2.7887   -1.3538 H   0  0  0  0  0  0  0  0  0  0  0  0
  1  3  1  0
  2  4  1  0
  4  5  1  0
  4  8  1  0
  4  9  1  0
  5  6  1  0
  6  7  1  0
  6 10  1  0
  6 11  1  0
  7 12  1  0
  7 13  1  0
  7 14  1  0
M  RAD  1   1   2
M  END
>  <reaction>  (17) 
rmg_rxn_529

>  <mol_properties>  (17) 
{"0": {"label": "*3", "atom_type": "S2s"}, "1": {"label": "*2", "atom_type": "H0"}, "2": {"label": "*4", "atom_type": "H0"}, "3": {"label": "*1", "atom_type": "Cs"}, "4": {"label": "*0", "atom_type": "S2s"}}

>  <type>  (17) 
unop_13

>  <geom_source>  (17) 
gaussian_log

$$$$
