
     RDKit          3D

  5  4  0  0  0  0  0  0  0  0999 V2000
   -0.3689   -0.0540    0.1184 C   0  0  0  0  0  0  0  0  0  0  0  0
    0.7862    0.4359    0.2394 N   0  0  0  0  0  0  0  0  0  0  0  0
   -0.6872   -0.7035   -0.7033 H   0  0  0  0  0  0  0  0  0  0  0  0
   -1.1194    0.1733    0.8758 H   0  0  0  0  0  0  0  0  0  0  0  0
    1.3892    0.1482   -0.5303 H   0  0  0  0  0  0  0  0  0  0  0  0
  1  2  2  3
  1  3  1  0
  1  4  1  0
  2  5  1  0
M  END
>  <reaction>  (1) 
rmg_rxn_15675

>  <mol_properties>  (1) 
{"1": {"label": "donator", "atom_type": "N3d"}, "4": {"label": "d_hydrogen", "atom_type": "H0"}}

>  <type>  (1) 
r1h

$$$$

     RDKit          3D

  8  7  0  0  0  0  0  0  0  0999 V2000
    1.7077   -0.1964   -0.0607 C   0  0  0  0  0  3  0  0  0  0  0  0
    0.4209   -0.4565    0.2808 O   0  0  0  0  0  0  0  0  0  0  0  0
   -0.4607    0.4385   -0.2968 N   0  0  0  0  0  0  0  0  0  0  0  0
   -1.6584    0.1416   -0.0244 C   0  0  0  0  0  0  0  0  0  0  0  0
    2.4163   -0.7685    0.5170 H   0  0  0  0  0  0  0  0  0  0  0  0
    1.9214    0.7645   -0.5045 H   0  0  0  0  0  0  0  0  0  0  0  0
   -2.4185    0.7953   -0.4307 H   0  0  0  0  0  0  0  0  0  0  0  0
   -1.9286   -0.7185    0.5831 H   0  0  0  0  0  0  0  0  0  0  0  0
  1  2  1  0
  1  5  1  0
  1  6  1  0
  2  3  1  0
  3  4  2  3
  4  7  1  0
  4  8  1  0
M  RAD  1   1   2
M  END
>  <reaction>  (2) 
rmg_rxn_15675

>  <mol_properties>  (2) 
{"0": {"label": "acceptor", "atom_type": "Cs"}}

>  <type>  (2) 
r2

$$$$

     RDKit          3D

  9  8  0  0  0  0  0  0  0  0999 V2000
   -1.5470   -0.0755   -0.1976 C   0  0  0  0  0  0  0  0  0  0  0  0
   -0.2885    0.4507    0.1749 O   0  0  0  0  0  0  0  0  0  0  0  0
   -0.1502    1.7216   -0.3294 N   0  0  0  0  0  0  0  0  0  0  0  0
    0.9626    2.2353   -0.0219 C   0  0  0  0  0  0  0  0  0  0  0  0
   -1.6392   -0.1356   -1.2844 H   0  0  0  0  0  0  0  0  0  0  0  0
   -2.3597    0.5337    0.2044 H   0  0  0  0  0  0  0  0  0  0  0  0
   -1.5879   -1.0750    0.2318 H   0  0  0  0  0  0  0  0  0  0  0  0
    1.1497    3.2381   -0.3820 H   0  0  0  0  0  0  0  0  0  0  0  0
    1.7060    1.7101    0.5739 H   0  0  0  0  0  0  0  0  0  0  0  0
  1  2  1  0
  1  5  1  0
  1  6  1  0
  1  7  1  0
  2  3  1  0
  3  4  2  3
  4  8  1  0
  4  9  1  0
M  END
>  <reaction>  (3) 
rmg_rxn_15675

>  <mol_properties>  (3) 
{"0": {"label": "a_hydrogen", "atom_type": "H0"}, "1": {"label": "acceptor", "atom_type": "Cs"}}

>  <type>  (3) 
r2h

$$$$

     RDKit          3D

 13 11  0  0  0  0  0  0  0  0999 V2000
    0.2025   -1.9682   -1.1915 C   0  0  0  0  0  0  0  0  0  0  0  0
    0.2953   -2.3336    0.0025 N   0  0  0  0  0  0  0  0  0  0  0  0
    0.3399   -0.9315   -1.5234 H   0  0  0  0  0  0  0  0  0  0  0  0
   -0.0278   -2.7066   -1.9650 H   0  0  0  0  0  0  0  0  0  0  0  0
    0.5555   -1.3301    0.6737 H   0  0  0  0  0  0  0  0  0  0  0  0
    0.8457   -0.0917    1.1960 C   0  0  0  0  0  3  0  0  0  0  0  0
    0.5242    0.8874    0.2733 O   0  0  0  0  0  0  0  0  0  0  0  0
   -0.8255    1.1867    0.3172 N   0  0  0  0  0  0  0  0  0  0  0  0
   -1.1420    2.0244   -0.5738 C   0  0  0  0  0  0  0  0  0  0  0  0
    1.9225   -0.0916    1.3417 H   0  0  0  0  0  0  0  0  0  0  0  0
    0.2488   -0.0405    2.1047 H   0  0  0  0  0  0  0  0  0  0  0  0
   -2.1808    2.3247   -0.6039 H   0  0  0  0  0  0  0  0  0  0  0  0
   -0.4223    2.4351   -1.2782 H   0  0  0  0  0  0  0  0  0  0  0  0
  1  2  2  3
  1  3  1  0
  1  4  1  0
  2  5  1  0
  6  7  1  0
  6 10  1  0
  6 11  1  0
  7  8  1  0
  8  9  2  3
  9 12  1  0
  9 13  1  0
M  RAD  1   6   2
M  END
>  <reaction>  (4) 
rmg_rxn_15675

>  <mol_properties>  (4) 
{"0": {"label": "*0", "atom_type": "Cd"}, "1": {"label": "*1", "atom_type": "N3d"}, "4": {"label": "*2", "atom_type": "H0"}, "5": {"label": "*3", "atom_type": "Cs"}, "6": {"label": "*4", "atom_type": "O2s"}}

>  <type>  (4) 
ts

$$$$

     RDKit          3D

 13 11  0  0  0  0  0  0  0  0999 V2000
    2.0885   -1.0722   -0.2162 C   0  0  0  0  0  0  0  0  0  0  0  0
    2.2876    0.0100    0.3446 N   0  0  0  0  0  0  0  0  0  0  0  0
    1.1776   -1.3429   -0.7635 H   0  0  0  0  0  0  0  0  0  0  0  0
    2.8519   -1.8486   -0.1910 H   0  0  0  0  0  0  0  0  0  0  0  0
    1.3237    0.7922    0.2404 H   0  0  0  0  0  0  0  0  0  0  0  0
    0.2035    1.4350    0.0185 C   0  0  0  0  0  3  0  0  0  0  0  0
   -0.7025    0.5334   -0.5189 O   0  0  0  0  0  0  0  0  0  0  0  0
   -1.4983   -0.0567    0.4426 N   0  0  0  0  0  0  0  0  0  0  0  0
   -2.3051   -0.9339    0.0295 C   0  0  0  0  0  0  0  0  0  0  0  0
    0.4276    2.1900   -0.7276 H   0  0  0  0  0  0  0  0  0  0  0  0
   -0.1067    1.8304    0.9814 H   0  0  0  0  0  0  0  0  0  0  0  0
   -2.9319   -1.3945    0.7719 H   0  0  0  0  0  0  0  0  0  0  0  0
   -2.4039   -1.2383   -1.0088 H   0  0  0  0  0  0  0  0  0  0  0  0
  1  2  2  3
  1  3  1  0
  1  4  1  0
  2  5  1  0
  6  7  1  0
  6 10  1  0
  6 11  1  0
  7  8  1  0
  8  9  2  3
  9 12  1  0
  9 13  1  0
M  RAD  1   6   2
M  END
>  <reaction>  (5) 
rmg_rxn_15675

>  <mol_properties>  (5) 
{"0": {"label": "*0", "atom_type": "Cd"}, "1": {"label": "*1", "atom_type": "N3d"}, "4": {"label": "*2", "atom_type": "H0"}, "5": {"label": "*3", "atom_type": "Cs"}, "6": {"label": "*4", "atom_type": "O2s"}}

>  <type>  (5) 
unop_1

>  <geom_source>  (5) 
crest_best.xyz

$$$$

     RDKit          3D

 13 11  0  0  0  0  0  0  0  0999 V2000
    0.6775   -1.9155   -2.5334 C   0  0  0  0  0  0  0  0  0  0  0  0
    0.6775   -1.9155   -1.2730 N   0  0  0  0  0  0  0  0  0  0  0  0
    0.6775   -1.0154   -3.1564 H   0  0  0  0  0  0  0  0  0  0  0  0
    0.6775   -2.8701   -3.0600 H   0  0  0  0  0  0  0  0  0  0  0  0
    0.6775   -0.7744   -0.8327 H   0  0  0  0  0  0  0  0  0  0  0  0
    0.6775    0.4445   -0.3625 C   0  0  0  0  0  3  0  0  0  0  0  0
   -0.5012    0.5572    0.4104 O   0  0  0  0  0  0  0  0  0  0  0  0
   -0.2515    1.3175    1.5277 N   0  0  0  0  0  0  0  0  0  0  0  0
   -1.2785    1.4470    2.2524 C   0  0  0  0  0  0  0  0  0  0  0  0
    1.0211    1.4261   -0.6965 H   0  0  0  0  0  0  0  0  0  0  0  0
    1.4713   -0.0465    0.2049 H   0  0  0  0  0  0  0  0  0  0  0  0
   -1.1647    2.0338    3.1541 H   0  0  0  0  0  0  0  0  0  0  0  0
   -2.2362    0.9982    1.9975 H   0  0  0  0  0  0  0  0  0  0  0  0
  1  2  2  3
  1  3  1  0
  1  4  1  0
  2  5  1  0
  6  7  1  0
  6 10  1  0
  6 11  1  0
  7  8  1  0
  8  9  2  3
  9 12  1  0
  9 13  1  0
M  RAD  1   6   2
M  END
>  <reaction>  (6) 
rmg_rxn_15675

>  <mol_properties>  (6) 
{"0": {"label": "*0", "atom_type": "Cd"}, "1": {"label": "*1", "atom_type": "N3d"}, "4": {"label": "*2", "atom_type": "H0"}, "5": {"label": "*3", "atom_type": "Cs"}, "6": {"label": "*4", "atom_type": "O2s"}}

>  <type>  (6) 
unop_2

>  <geom_source>  (6) 
Heuristics

$$$$

     RDKit          3D

 13 11  0  0  0  0  0  0  0  0999 V2000
    0.5793   -2.4900   -1.2274 C   0  0  0  0  0  0  0  0  0  0  0  0
    0.5793   -2.4900    0.0331 N   0  0  0  0  0  0  0  0  0  0  0  0
    0.5793   -1.5899   -1.8504 H   0  0  0  0  0  0  0  0  0  0  0  0
    0.5793   -3.4446   -1.7540 H   0  0  0  0  0  0  0  0  0  0  0  0
    0.5793   -1.3489    0.4733 H   0  0  0  0  0  0  0  0  0  0  0  0
    0.5793   -0.1301    0.9435 C   0  0  0  0  0  3  0  0  0  0  0  0
   -0.1012    0.6519   -0.0182 O   0  0  0  0  0  0  0  0  0  0  0  0
   -0.5138    1.8321    0.5523 N   0  0  0  0  0  0  0  0  0  0  0  0
   -1.1290    2.5672   -0.2710 C   0  0  0  0  0  0  0  0  0  0  0  0
    1.4659    0.3900    1.3134 H   0  0  0  0  0  0  0  0  0  0  0  0
   -0.0761   -0.3757    1.7821 H   0  0  0  0  0  0  0  0  0  0  0  0
   -1.4877    3.5175    0.1014 H   0  0  0  0  0  0  0  0  0  0  0  0
   -1.2982    2.2750   -1.3051 H   0  0  0  0  0  0  0  0  0  0  0  0
  1  2  2  3
  1  3  1  0
  1  4  1  0
  2  5  1  0
  6  7  1  0
  6 10  1  0
  6 11  1  0
  7  8  1  0
  8  9  2  3
  9 12  1  0
  9 13  1  0
M  RAD  1   6   2
M  END
>  <reaction>  (7) 
rmg_rxn_15675

>  <mol_properties>  (7) 
{"0": {"label": "*0", "atom_type": "Cd"}, "1": {"label": "*1", "atom_type": "N3d"}, "4": {"label": "*2", "atom_type": "H0"}, "5": {"label": "*3", "atom_type": "Cs"}, "6": {"label": "*4", "atom_type": "O2s"}}

>  <type>  (7) 
unop_3

>  <geom_source>  (7) 
Heuristics

$$$$

     RDKit          3D

 13 11  0  0  0  0  0  0  0  0999 V2000
    0.2956   -1.8867   -2.7329 C   0  0  0  0  0  0  0  0  0  0  0  0
    0.2956   -1.8867   -1.4724 N   0  0  0  0  0  0  0  0  0  0  0  0
    0.2956   -0.9866   -3.3559 H   0  0  0  0  0  0  0  0  0  0  0  0
    0.2956   -2.8413   -3.2595 H   0  0  0  0  0  0  0  0  0  0  0  0
    0.2956   -0.7456   -1.0322 H   0  0  0  0  0  0  0  0  0  0  0  0
    0.2956    0.4732   -0.5620 C   0  0  0  0  0  3  0  0  0  0  0  0
   -0.3849    0.4066    0.6757 O   0  0  0  0  0  0  0  0  0  0  0  0
    0.0419    1.4247    1.4943 N   0  0  0  0  0  0  0  0  0  0  0  0
   -0.5397    1.4068    2.6159 C   0  0  0  0  0  0  0  0  0  0  0  0
    0.0911    1.4184   -1.0700 H   0  0  0  0  0  0  0  0  0  0  0  0
    1.3730    0.3598   -0.4221 H   0  0  0  0  0  0  0  0  0  0  0  0
   -0.2586    2.1784    3.3202 H   0  0  0  0  0  0  0  0  0  0  0  0
   -1.2874    0.6609    2.8767 H   0  0  0  0  0  0  0  0  0  0  0  0
  1  2  2  3
  1  3  1  0
  1  4  1  0
  2  5  1  0
  6  7  1  0
  6 10  1  0
  6 11  1  0
  7  8  1  0
  8  9  2  3
  9 12  1  0
  9 13  1  0
M  RAD  1   6   2
M  END
>  <reaction>  (8) 
rmg_rxn_15675

>  <mol_properties>  (8) 
{"0": {"label": "*0", "atom_type": "Cd"}, "1": {"label": "*1", "atom_type": "N3d"}, "4": {"label": "*2", "atom_type": "H0"}, "5": {"label": "*3", "atom_type": "Cs"}, "6": {"label": "*4", "atom_type": "O2s"}}

>  <type>  (8) 
unop_4

>  <geom_source>  (8) 
Heuristics

$$$$

     RDKit          3D

 13 11  0  0  0  0  0  0  0  0999 V2000
   -0.9207   -2.2853   -1.6422 C   0  0  0  0  0  0  0  0  0  0  0  0
   -0.9207   -2.2853   -0.3817 N   0  0  0  0  0  0  0  0  0  0  0  0
   -0.9207   -1.3852   -2.2652 H   0  0  0  0  0  0  0  0  0  0  0  0
   -0.9207   -3.2400   -2.1688 H   0  0  0  0  0  0  0  0  0  0  0  0
   -0.9207   -1.1442    0.0585 H   0  0  0  0  0  0  0  0  0  0  0  0
   -0.9207    0.0746    0.5287 C   0  0  0  0  0  3  0  0  0  0  0  0
    0.2581    0.6772    0.0318 O   0  0  0  0  0  0  0  0  0  0  0  0
    0.7277    1.5949    0.9407 N   0  0  0  0  0  0  0  0  0  0  0  0
    1.7835    2.1617    0.5398 C   0  0  0  0  0  0  0  0  0  0  0  0
   -0.7250   -0.4528    1.4651 H   0  0  0  0  0  0  0  0  0  0  0  0
   -1.7038    0.8196    0.6863 H   0  0  0  0  0  0  0  0  0  0  0  0
    2.2180    2.9002    1.2003 H   0  0  0  0  0  0  0  0  0  0  0  0
    2.2454    1.9310   -0.4177 H   0  0  0  0  0  0  0  0  0  0  0  0
  1  2  2  3
  1  3  1  0
  1  4  1  0
  2  5  1  0
  6  7  1  0
  6 10  1  0
  6 11  1  0
  7  8  1  0
  8  9  2  3
  9 12  1  0
  9 13  1  0
M  RAD  1   6   2
M  END
>  <reaction>  (9) 
rmg_rxn_15675

>  <mol_properties>  (9) 
{"0": {"label": "*0", "atom_type": "Cd"}, "1": {"label": "*1", "atom_type": "N3d"}, "4": {"label": "*2", "atom_type": "H0"}, "5": {"label": "*3", "atom_type": "Cs"}, "6": {"label": "*4", "atom_type": "O2s"}}

>  <type>  (9) 
unop_5

>  <geom_source>  (9) 
Heuristics

$$$$

     RDKit          3D

 13 11  0  0  0  0  0  0  0  0999 V2000
    0.0000   -1.9210   -2.7630 C   0  0  0  0  0  0  0  0  0  0  0  0
    0.0000   -1.9210   -1.5025 N   0  0  0  0  0  0  0  0  0  0  0  0
    0.0000   -1.0209   -3.3860 H   0  0  0  0  0  0  0  0  0  0  0  0
    0.0000   -2.8756   -3.2896 H   0  0  0  0  0  0  0  0  0  0  0  0
    0.0000   -0.7798   -1.0623 H   0  0  0  0  0  0  0  0  0  0  0  0
    0.0000    0.4390   -0.5921 C   0  0  0  0  0  3  0  0  0  0  0  0
    0.0000    0.3068    0.8158 O   0  0  0  0  0  0  0  0  0  0  0  0
   -0.0000    1.5517    1.3979 N   0  0  0  0  0  0  0  0  0  0  0  0
   -0.0000    1.4852    2.6598 C   0  0  0  0  0  0  0  0  0  0  0  0
   -0.8921    0.9679   -0.9348 H   0  0  0  0  0  0  0  0  0  0  0  0
    0.8921    0.9679   -0.9348 H   0  0  0  0  0  0  0  0  0  0  0  0
   -0.0000    2.4254    3.1948 H   0  0  0  0  0  0  0  0  0  0  0  0
    0.0000    0.5391    3.1968 H   0  0  0  0  0  0  0  0  0  0  0  0
  1  2  2  3
  1  3  1  0
  1  4  1  0
  2  5  1  0
  6  7  1  0
  6 10  1  0
  6 11  1  0
  7  8  1  0
  8  9  2  3
  9 12  1  0
  9 13  1  0
M  RAD  1   6   2
M  END
>  <reaction>  (10) 
rmg_rxn_15675

>  <mol_properties>  (10) 
{"0": {"label": "*0", "atom_type": "Cd"}, "1": {"label": "*1", "atom_type": "N3d"}, "4": {"label": "*2", "atom_type": "H0"}, "5": {"label": "*3", "atom_type": "Cs"}, "6": {"label": "*4", "atom_type": "O2s"}}

>  <type>  (10) 
unop_6

>  <geom_source>  (10) 
Heuristics

$$$$

     RDKit          3D

 13 11  0  0  0  0  0  0  0  0999 V2000
   -2.1326   -0.5518    0.5742 C   0  0  0  0  0  0  0  0  0  0  0  0
   -1.9569   -0.0562   -0.5437 N   0  0  0  0  0  0  0  0  0  0  0  0
   -1.4872   -0.3961    1.4461 H   0  0  0  0  0  0  0  0  0  0  0  0
   -2.9857   -1.2058    0.7490 H   0  0  0  0  0  0  0  0  0  0  0  0
   -0.9373    0.6616   -0.6071 H   0  0  0  0  0  0  0  0  0  0  0  0
    0.1879    1.3152   -0.4713 C   0  0  0  0  0  3  0  0  0  0  0  0
    0.9030    0.7516    0.5776 O   0  0  0  0  0  0  0  0  0  0  0  0
    1.5329   -0.4358    0.4429 N   0  0  0  0  0  0  0  0  0  0  0  0
    1.4073   -1.1589   -0.5832 C   0  0  0  0  0  0  0  0  0  0  0  0
   -0.0702    2.3244   -0.1708 H   0  0  0  0  0  0  0  0  0  0  0  0
    0.6913    1.2696   -1.4363 H   0  0  0  0  0  0  0  0  0  0  0  0
    1.9646   -2.0792   -0.5730 H   0  0  0  0  0  0  0  0  0  0  0  0
    0.7876   -0.9519   -1.4517 H   0  0  0  0  0  0  0  0  0  0  0  0
  1  2  2  3
  1  3  1  0
  1  4  1  0
  2  5  1  0
  6  7  1  0
  6 10  1  0
  6 11  1  0
  7  8  1  0
  8  9  2  3
  9 12  1  0
  9 13  1  0
M  RAD  1   6   2
M  END
>  <reaction>  (11) 
rmg_rxn_15675

>  <mol_properties>  (11) 
{"0": {"label": "*0", "atom_type": "Cd"}, "1": {"label": "*1", "atom_type": "N3d"}, "4": {"label": "*2", "atom_type": "H0"}, "5": {"label": "*3", "atom_type": "Cs"}, "6": {"label": "*4", "atom_type": "O2s"}}

>  <type>  (11) 
unop_7

>  <geom_source>  (11) 
Heuristics

$$$$

     RDKit          3D

 13 11  0  0  0  0  0  0  0  0999 V2000
   -0.9377   -2.0658   -2.1332 C   0  0  0  0  0  0  0  0  0  0  0  0
   -0.9377   -2.0658   -0.8727 N   0  0  0  0  0  0  0  0  0  0  0  0
   -0.9377   -1.1658   -2.7562 H   0  0  0  0  0  0  0  0  0  0  0  0
   -0.9377   -3.0205   -2.6598 H   0  0  0  0  0  0  0  0  0  0  0  0
   -0.9377   -0.9247   -0.4325 H   0  0  0  0  0  0  0  0  0  0  0  0
   -0.9377    0.2941    0.0377 C   0  0  0  0  0  3  0  0  0  0  0  0
    0.4234    0.6518    0.1757 O   0  0  0  0  0  0  0  0  0  0  0  0
    0.5947    1.3885    1.3231 N   0  0  0  0  0  0  0  0  0  0  0  0
    1.7989    1.7326    1.4904 C   0  0  0  0  0  0  0  0  0  0  0  0
   -1.2681   -0.3179    0.8800 H   0  0  0  0  0  0  0  0  0  0  0  0
   -1.5692    1.1821   -0.0382 H   0  0  0  0  0  0  0  0  0  0  0  0
    2.0179    2.3173    2.3739 H   0  0  0  0  0  0  0  0  0  0  0  0
    2.5880    1.4633    0.7916 H   0  0  0  0  0  0  0  0  0  0  0  0
  1  2  2  3
  1  3  1  0
  1  4  1  0
  2  5  1  0
  6  7  1  0
  6 10  1  0
  6 11  1  0
  7  8  1  0
  8  9  2  3
  9 12  1  0
  9 13  1  0
M  RAD  1   6   2
M  END
>  <reaction>  (12) 
rmg_rxn_15675

>  <mol_properties>  (12) 
{"0": {"label": "*0", "atom_type": "Cd"}, "1": {"label": "*1", "atom_type": "N3d"}, "4": {"label": "*2", "atom_type": "H0"}, "5": {"label": "*3", "atom_type": "Cs"}, "6": {"label": "*4", "atom_type": "O2s"}}

>  <type>  (12) 
unop_8

>  <geom_source>  (12) 
Heuristics

$$$$

     RDKit          3D

 13 11  0  0  0  0  0  0  0  0999 V2000
    2.1312   -0.5533    0.5738 C   0  0  0  0  0  0  0  0  0  0  0  0
    1.9574   -0.0549   -0.5432 N   0  0  0  0  0  0  0  0  0  0  0  0
    1.4842   -0.4000    1.4448 H   0  0  0  0  0  0  0  0  0  0  0  0
    2.9844   -1.2072    0.7485 H   0  0  0  0  0  0  0  0  0  0  0  0
    0.9377    0.6627   -0.6066 H   0  0  0  0  0  0  0  0  0  0  0  0
   -0.1879    1.3157   -0.4706 C   0  0  0  0  0  3  0  0  0  0  0  0
   -0.9027    0.7512    0.5780 O   0  0  0  0  0  0  0  0  0  0  0  0
   -1.5325   -0.4362    0.4425 N   0  0  0  0  0  0  0  0  0  0  0  0
   -1.4070   -1.1585   -0.5841 C   0  0  0  0  0  0  0  0  0  0  0  0
   -0.6912    1.2704   -1.4356 H   0  0  0  0  0  0  0  0  0  0  0  0
    0.0697    2.3249   -0.1696 H   0  0  0  0  0  0  0  0  0  0  0  0
   -1.9642   -2.0789   -0.5744 H   0  0  0  0  0  0  0  0  0  0  0  0
   -0.7875   -0.9508   -1.4525 H   0  0  0  0  0  0  0  0  0  0  0  0
  1  2  2  3
  1  3  1  0
  1  4  1  0
  2  5  1  0
  6  7  1  0
  6 10  1  0
  6 11  1  0
  7  8  1  0
  8  9  2  3
  9 12  1  0
  9 13  1  0
M  RAD  1   6   2
M  END
>  <reaction>  (13) 
rmg_rxn_15675

>  <mol_properties>  (13) 
{"0": {"label": "*0", "atom_type": "Cd"}, "1": {"label": "*1", "atom_type": "N3d"}, "4": {"label": "*2", "atom_type": "H0"}, "5": {"label": "*3", "atom_type": "Cs"}, "6": {"label": "*4", "atom_type": "O2s"}}

>  <type>  (13) 
unop_9

>  <geom_source>  (13) 
Heuristics

$$$$

     RDKit          3D

 13 11  0  0  0  0  0  0  0  0999 V2000
   -0.6775   -1.9155   -2.5335 C   0  0  0  0  0  0  0  0  0  0  0  0
   -0.6775   -1.9155   -1.2730 N   0  0  0  0  0  0  0  0  0  0  0  0
   -0.6775   -1.0154   -3.1564 H   0  0  0  0  0  0  0  0  0  0  0  0
   -0.6775   -2.8701   -3.0601 H   0  0  0  0  0  0  0  0  0  0  0  0
   -0.6775   -0.7744   -0.8327 H   0  0  0  0  0  0  0  0  0  0  0  0
   -0.6775    0.4445   -0.3625 C   0  0  0  0  0  3  0  0  0  0  0  0
    0.5012    0.5572    0.4104 O   0  0  0  0  0  0  0  0  0  0  0  0
    0.2515    1.3174    1.5277 N   0  0  0  0  0  0  0  0  0  0  0  0
    1.2785    1.4470    2.2524 C   0  0  0  0  0  0  0  0  0  0  0  0
   -1.4713   -0.0465    0.2049 H   0  0  0  0  0  0  0  0  0  0  0  0
   -1.0211    1.4261   -0.6965 H   0  0  0  0  0  0  0  0  0  0  0  0
    1.1647    2.0337    3.1541 H   0  0  0  0  0  0  0  0  0  0  0  0
    2.2362    0.9982    1.9975 H   0  0  0  0  0  0  0  0  0  0  0  0
  1  2  2  3
  1  3  1  0
  1  4  1  0
  2  5  1  0
  6  7  1  0
  6 10  1  0
  6 11  1  0
  7  8  1  0
  8  9  2  3
  9 12  1  0
  9 13  1  0
M  RAD  1   6   2
M  END
>  <reaction>  (14) 
rmg_rxn_15675

>  <mol_properties>  (14) 
{"0": {"label": "*0", "atom_type": "Cd"}, "1": {"label": "*1", "atom_type": "N3d"}, "4": {"label": "*2", "atom_type": "H0"}, "5": {"label": "*3", "atom_type": "Cs"}, "6": {"label": "*4", "atom_type": "O2s"}}

>  <type>  (14) 
unop_10

>  <geom_source>  (14) 
Heuristics

$$$$

     RDKit          3D

 13 11  0  0  0  0  0  0  0  0999 V2000
    0.9377   -2.0659   -2.1332 C   0  0  0  0  0  0  0  0  0  0  0  0
    0.9377   -2.0659   -0.8727 N   0  0  0  0  0  0  0  0  0  0  0  0
    0.9377   -1.1658   -2.7562 H   0  0  0  0  0  0  0  0  0  0  0  0
    0.9377   -3.0205   -2.6598 H   0  0  0  0  0  0  0  0  0  0  0  0
    0.9377   -0.9247   -0.4325 H   0  0  0  0  0  0  0  0  0  0  0  0
    0.9377    0.2941    0.0377 C   0  0  0  0  0  3  0  0  0  0  0  0
   -0.4234    0.6518    0.1757 O   0  0  0  0  0  0  0  0  0  0  0  0
   -0.5947    1.3885    1.3231 N   0  0  0  0  0  0  0  0  0  0  0  0
   -1.7989    1.7326    1.4904 C   0  0  0  0  0  0  0  0  0  0  0  0
    1.5692    1.1821   -0.0382 H   0  0  0  0  0  0  0  0  0  0  0  0
    1.2681   -0.3179    0.8800 H   0  0  0  0  0  0  0  0  0  0  0  0
   -2.0179    2.3173    2.3739 H   0  0  0  0  0  0  0  0  0  0  0  0
   -2.5880    1.4632    0.7916 H   0  0  0  0  0  0  0  0  0  0  0  0
  1  2  2  3
  1  3  1  0
  1  4  1  0
  2  5  1  0
  6  7  1  0
  6 10  1  0
  6 11  1  0
  7  8  1  0
  8  9  2  3
  9 12  1  0
  9 13  1  0
M  RAD  1   6   2
M  END
>  <reaction>  (15) 
rmg_rxn_15675

>  <mol_properties>  (15) 
{"0": {"label": "*0", "atom_type": "Cd"}, "1": {"label": "*1", "atom_type": "N3d"}, "4": {"label": "*2", "atom_type": "H0"}, "5": {"label": "*3", "atom_type": "Cs"}, "6": {"label": "*4", "atom_type": "O2s"}}

>  <type>  (15) 
unop_11

>  <geom_source>  (15) 
Heuristics

$$$$

     RDKit          3D

 13 11  0  0  0  0  0  0  0  0999 V2000
    2.0885   -1.0722   -0.2162 C   0  0  0  0  0  0  0  0  0  0  0  0
    2.2876    0.0100    0.3446 N   0  0  0  0  0  0  0  0  0  0  0  0
    1.1776   -1.3429   -0.7635 H   0  0  0  0  0  0  0  0  0  0  0  0
    2.8519   -1.8486   -0.1910 H   0  0  0  0  0  0  0  0  0  0  0  0
    1.3237    0.7922    0.2404 H   0  0  0  0  0  0  0  0  0  0  0  0
    0.2035    1.4350    0.0185 C   0  0  0  0  0  3  0  0  0  0  0  0
   -0.7025    0.5334   -0.5189 O   0  0  0  0  0  0  0  0  0  0  0  0
   -1.4983   -0.0567    0.4426 N   0  0  0  0  0  0  0  0  0  0  0  0
   -2.3051   -0.9339    0.0295 C   0  0  0  0  0  0  0  0  0  0  0  0
    0.4276    2.1900   -0.7276 H   0  0  0  0  0  0  0  0  0  0  0  0
   -0.1067    1.8304    0.9814 H   0  0  0  0  0  0  0  0  0  0  0  0
   -2.9319   -1.3945    0.7719 H   0  0  0  0  0  0  0  0  0  0  0  0
   -2.4039   -1.2383   -1.0088 H   0  0  0  0  0  0  0  0  0  0  0  0
  1  2  2  3
  1  3  1  0
  1  4  1  0
  2  5  1  0
  6  7  1  0
  6 10  1  0
  6 11  1  0
  7  8  1  0
  8  9  2  3
  9 12  1  0
  9 13  1  0
M  RAD  1   6   2
M  END
>  <reaction>  (16) 
rmg_rxn_15675

>  <mol_properties>  (16) 
{"0": {"label": "*0", "atom_type": "Cd"}, "1": {"label": "*1", "atom_type": "N3d"}, "4": {"label": "*2", "atom_type": "H0"}, "5": {"label": "*3", "atom_type": "Cs"}, "6": {"label": "*4", "atom_type": "O2s"}}

>  <type>  (16) 
unop_12

>  <geom_source>  (16) 
Heuristics

$$$$

     RDKit          3D

 13 11  0  0  0  0  0  0  0  0999 V2000
   -0.5794   -2.4900   -1.2274 C   0  0  0  0  0  0  0  0  0  0  0  0
   -0.5794   -2.4900    0.0331 N   0  0  0  0  0  0  0  0  0  0  0  0
   -0.5794   -1.5899   -1.8504 H   0  0  0  0  0  0  0  0  0  0  0  0
   -0.5794   -3.4446   -1.7540 H   0  0  0  0  0  0  0  0  0  0  0  0
   -0.5794   -1.3489    0.4733 H   0  0  0  0  0  0  0  0  0  0  0  0
   -0.5794   -0.1301    0.9435 C   0  0  0  0  0  3  0  0  0  0  0  0
    0.1012    0.6519   -0.0182 O   0  0  0  0  0  0  0  0  0  0  0  0
    0.5138    1.8321    0.5523 N   0  0  0  0  0  0  0  0  0  0  0  0
    1.1290    2.5672   -0.2710 C   0  0  0  0  0  0  0  0  0  0  0  0
    0.0761   -0.3757    1.7821 H   0  0  0  0  0  0  0  0  0  0  0  0
   -1.4659    0.3900    1.3134 H   0  0  0  0  0  0  0  0  0  0  0  0
    1.4877    3.5175    0.1014 H   0  0  0  0  0  0  0  0  0  0  0  0
    1.2982    2.2750   -1.3051 H   0  0  0  0  0  0  0  0  0  0  0  0
  1  2  2  3
  1  3  1  0
  1  4  1  0
  2  5  1  0
  6  7  1  0
  6 10  1  0
  6 11  1  0
  7  8  1  0
  8  9  2  3
  9 12  1  0
  9 13  1  0
M  RAD  1   6   2
M  END
>  <reaction>  (17) 
rmg_rxn_15675

>  <mol_properties>  (17) 
{"0": {"label": "*0", "atom_type": "Cd"}, "1": {"label": "*1", "atom_type": "N3d"}, "4": {"label": "*2", "atom_type": "H0"}, "5": {"label": "*3", "atom_type": "Cs"}, "6": {"label": "*4", "atom_type": "O2s"}}

>  <type>  (17) 
unop_13

>  <geom_source>  (17) 
Heuristics

$$$$

     RDKit          3D

 13 11  0  0  0  0  0  0  0  0999 V2000
    0.9207   -2.2853   -1.6422 C   0  0  0  0  0  0  0  0  0  0  0  0
    0.9207   -2.2853   -0.3817 N   0  0  0  0  0  0  0  0  0  0  0  0
    0.9207   -1.3852   -2.2652 H   0  0  0  0  0  0  0  0  0  0  0  0
    0.9207   -3.2400   -2.1688 H   0  0  0  0  0  0  0  0  0  0  0  0
    0.9207   -1.1442    0.0585 H   0  0  0  0  0  0  0  0  0  0  0  0
    0.9207    0.0746    0.5287 C   0  0  0  0  0  3  0  0  0  0  0  0
   -0.2581    0.6772    0.0318 O   0  0  0  0  0  0  0  0  0  0  0  0
   -0.7277    1.5949    0.9407 N   0  0  0  0  0  0  0  0  0  0  0  0
   -1.7835    2.1617    0.5398 C   0  0  0  0  0  0  0  0  0  0  0  0
    1.7038    0.8196    0.6863 H   0  0  0  0  0  0  0  0  0  0  0  0
    0.7250   -0.4528    1.4651 H   0  0  0  0  0  0  0  0  0  0  0  0
   -2.2180    2.9002    1.2002 H   0  0  0  0  0  0  0  0  0  0  0  0
   -2.2454    1.9309   -0.4177 H   0  0  0  0  0  0  0  0  0  0  0  0
  1  2  2  3
  1  3  1  0
  1  4  1  0
  2  5  1  0
  6  7  1  0
  6 10  1  0
  6 11  1  0
  7  8  1  0
  8  9  2  3
  9 12  1  0
  9 13  1  0
M  RAD  1   6   2
M  END
>  <reaction>  (18) 
rmg_rxn_15675

>  <mol_properties>  (18) 
{"0": {"label": "*0", "atom_type": "Cd"}, "1": {"label": "*1", "atom_type": "N3d"}, "4": {"label": "*2", "atom_type": "H0"}, "5": {"label": "*3", "atom_type": "Cs"}, "6": {"label": "*4", "atom_type": "O2s"}}

>  <type>  (18) 
unop_14

>  <geom_source>  (18) 
Heuristics

$$$$

     RDKit          3D

 13 11  0  0  0  0  0  0  0  0999 V2000
   -0.2956   -1.8867   -2.7329 C   0  0  0  0  0  0  0  0  0  0  0  0
   -0.2956   -1.8867   -1.4724 N   0  0  0  0  0  0  0  0  0  0  0  0
   -0.2956   -0.9866   -3.3559 H   0  0  0  0  0  0  0  0  0  0  0  0
   -0.2956   -2.8413   -3.2595 H   0  0  0  0  0  0  0  0  0  0  0  0
   -0.2956   -0.7456   -1.0322 H   0  0  0  0  0  0  0  0  0  0  0  0
   -0.2956    0.4732   -0.5620 C   0  0  0  0  0  3  0  0  0  0  0  0
    0.3849    0.4067    0.6757 O   0  0  0  0  0  0  0  0  0  0  0  0
   -0.0420    1.4247    1.4943 N   0  0  0  0  0  0  0  0  0  0  0  0
    0.5397    1.4068    2.6160 C   0  0  0  0  0  0  0  0  0  0  0  0
   -1.3730    0.3599   -0.4221 H   0  0  0  0  0  0  0  0  0  0  0  0
   -0.0910    1.4184   -1.0700 H   0  0  0  0  0  0  0  0  0  0  0  0
    0.2586    2.1784    3.3202 H   0  0  0  0  0  0  0  0  0  0  0  0
    1.2874    0.6609    2.8767 H   0  0  0  0  0  0  0  0  0  0  0  0
  1  2  2  3
  1  3  1  0
  1  4  1  0
  2  5  1  0
  6  7  1  0
  6 10  1  0
  6 11  1  0
  7  8  1  0
  8  9  2  3
  9 12  1  0
  9 13  1  0
M  RAD  1   6   2
M  END
>  <reaction>  (19) 
rmg_rxn_15675

>  <mol_properties>  (19) 
{"0": {"label": "*0", "atom_type": "Cd"}, "1": {"label": "*1", "atom_type": "N3d"}, "4": {"label": "*2", "atom_type": "H0"}, "5": {"label": "*3", "atom_type": "Cs"}, "6": {"label": "*4", "atom_type": "O2s"}}

>  <type>  (19) 
unop_15

>  <geom_source>  (19) 
Heuristics

$$$$

     RDKit          3D

 13 11  0  0  0  0  0  0  0  0999 V2000
   -0.0000   -2.5774   -1.0614 C   0  0  0  0  0  0  0  0  0  0  0  0
   -0.0000   -2.5774    0.1991 N   0  0  0  0  0  0  0  0  0  0  0  0
   -0.0000   -1.6773   -1.6844 H   0  0  0  0  0  0  0  0  0  0  0  0
   -0.0000   -3.5320   -1.5880 H   0  0  0  0  0  0  0  0  0  0  0  0
   -0.0000   -1.4363    0.6393 H   0  0  0  0  0  0  0  0  0  0  0  0
   -0.0000   -0.2175    1.1095 C   0  0  0  0  0  3  0  0  0  0  0  0
   -0.0000    0.6301   -0.0224 O   0  0  0  0  0  0  0  0  0  0  0  0
    0.0000    1.9434    0.3825 N   0  0  0  0  0  0  0  0  0  0  0  0
    0.0000    2.7416   -0.5971 C   0  0  0  0  0  0  0  0  0  0  0  0
    0.8921   -0.0557    1.7187 H   0  0  0  0  0  0  0  0  0  0  0  0
   -0.8921   -0.0557    1.7187 H   0  0  0  0  0  0  0  0  0  0  0  0
    0.0000    3.7976   -0.3621 H   0  0  0  0  0  0  0  0  0  0  0  0
   -0.0000    2.4014   -1.6305 H   0  0  0  0  0  0  0  0  0  0  0  0
  1  2  2  3
  1  3  1  0
  1  4  1  0
  2  5  1  0
  6  7  1  0
  6 10  1  0
  6 11  1  0
  7  8  1  0
  8  9  2  3
  9 12  1  0
  9 13  1  0
M  RAD  1   6   2
M  END
>  <reaction>  (20) 
rmg_rxn_15675

>  <mol_properties>  (20) 
{"0": {"label": "*0", "atom_type": "Cd"}, "1": {"label": "*1", "atom_type": "N3d"}, "4": {"label": "*2", "atom_type": "H0"}, "5": {"label": "*3", "atom_type": "Cs"}, "6": {"label": "*4", "atom_type": "O2s"}}

>  <type>  (20) 
unop_16

>  <geom_source>  (20) 
Heuristics

$$$$

     RDKit          3D

 13 11  0  0  0  0  0  0  0  0999 V2000
    0.5794   -2.4900   -1.2274 C   0  0  0  0  0  0  0  0  0  0  0  0
    0.5794   -2.4900    0.0331 N   0  0  0  0  0  0  0  0  0  0  0  0
    0.5794   -1.5899   -1.8504 H   0  0  0  0  0  0  0  0  0  0  0  0
    0.5794   -3.4446   -1.7540 H   0  0  0  0  0  0  0  0  0  0  0  0
    0.5794   -1.3489    0.4733 H   0  0  0  0  0  0  0  0  0  0  0  0
    0.5794   -0.1301    0.9435 C   0  0  0  0  0  3  0  0  0  0  0  0
   -0.1012    0.6519   -0.0182 O   0  0  0  0  0  0  0  0  0  0  0  0
   -0.5138    1.8321    0.5523 N   0  0  0  0  0  0  0  0  0  0  0  0
   -1.1290    2.5672   -0.2710 C   0  0  0  0  0  0  0  0  0  0  0  0
    1.4659    0.3900    1.3134 H   0  0  0  0  0  0  0  0  0  0  0  0
   -0.0761   -0.3757    1.7821 H   0  0  0  0  0  0  0  0  0  0  0  0
   -1.4877    3.5175    0.1014 H   0  0  0  0  0  0  0  0  0  0  0  0
   -1.2982    2.2750   -1.3051 H   0  0  0  0  0  0  0  0  0  0  0  0
  1  2  2  3
  1  3  1  0
  1  4  1  0
  2  5  1  0
  6  7  1  0
  6 10  1  0
  6 11  1  0
  7  8  1  0
  8  9  2  3
  9 12  1  0
  9 13  1  0
M  RAD  1   6   2
M  END
>  <reaction>  (21) 
rmg_rxn_15675

>  <mol_properties>  (21) 
{"0": {"label": "*0", "atom_type": "Cd"}, "1": {"label": "*1", "atom_type": "N3d"}, "4": {"label": "*2", "atom_type": "H0"}, "5": {"label": "*3", "atom_type": "Cs"}, "6": {"label": "*4", "atom_type": "O2s"}}

>  <type>  (21) 
unop_17

>  <geom_source>  (21) 
gaussian_log

$$$$
