
     RDKit          3D

 18 17  0  0  0  0  0  0  0  0999 V2000
    2.2026   -0.7213   -0.2612 C   0  0  0  0  0  0  0  0  0  0  0  0
    1.5384    0.2638    0.6915 C   0  0  0  0  0  0  0  0  0  0  0  0
    2.2584    1.5946    0.7694 C   0  0  0  0  0  0  0  0  0  0  0  0
    2.2212    2.2185   -0.4893 O   0  0  0  0  0  0  0  0  0  0  0  0
    2.8988    3.4488   -0.5204 C   0  0  0  0  0  0  0  0  0  0  0  0
    2.7981    4.0296   -1.9118 C   0  0  0  0  0  0  0  0  0  0  0  0
    3.2294   -0.9309    0.0486 H   0  0  0  0  0  0  0  0  0  0  0  0
    2.2338   -0.3181   -1.2734 H   0  0  0  0  0  0  0  0  0  0  0  0
    1.6610   -1.6680   -0.2875 H   0  0  0  0  0  0  0  0  0  0  0  0
    1.4990   -0.1566    1.7002 H   0  0  0  0  0  0  0  0  0  0  0  0
    0.5055    0.4455    0.3835 H   0  0  0  0  0  0  0  0  0  0  0  0
    3.3038    1.4410    1.0808 H   0  0  0  0  0  0  0  0  0  0  0  0
    1.7844    2.2410    1.5226 H   0  0  0  0  0  0  0  0  0  0  0  0
    2.4596    4.1376    0.2164 H   0  0  0  0  0  0  0  0  0  0  0  0
    3.9524    3.3035   -0.2397 H   0  0  0  0  0  0  0  0  0  0  0  0
    1.7543    4.1869   -2.1856 H   0  0  0  0  0  0  0  0  0  0  0  0
    3.2472    3.3545   -2.6411 H   0  0  0  0  0  0  0  0  0  0  0  0
    3.3178    4.9878   -1.9600 H   0  0  0  0  0  0  0  0  0  0  0  0
  1  2  1  0
  1  7  1  0
  1  8  1  0
  1  9  1  0
  2  3  1  0
  2 10  1  0
  2 11  1  0
  3  4  1  0
  3 12  1  0
  3 13  1  0
  4  5  1  0
  5  6  1  0
  5 14  1  0
  5 15  1  0
  6 16  1  0
  6 17  1  0
  6 18  1  0
M  END
>  <reaction>  (1) 
rmg_rxn_234

>  <mol_properties>  (1) 
{"0": {"label": "donator", "atom_type": "Cs"}, "6": {"label": "d_hydrogen", "atom_type": "H0"}}

>  <type>  (1) 
r1h

$$$$

     RDKit          3D

 14 13  0  0  0  0  0  0  0  0999 V2000
    2.5796   -0.5432    0.2329 C   0  0  0  0  0  3  0  0  0  0  0  0
    1.2594    0.0982    0.3029 C   0  0  0  0  0  0  0  0  0  0  0  0
   -0.0483   -1.0244    0.9576 S   0  0  0  0  0  0  0  0  0  0  0  0
   -0.0049   -2.3732   -0.2491 C   0  0  0  0  0  0  0  0  0  0  0  0
   -0.3891   -1.9781   -1.6653 C   0  0  0  0  0  0  0  0  0  0  0  0
    2.9359   -0.9798   -0.6903 H   0  0  0  0  0  0  0  0  0  0  0  0
    3.1327   -0.7454    1.1400 H   0  0  0  0  0  0  0  0  0  0  0  0
    0.9347    0.4858   -0.6621 H   0  0  0  0  0  0  0  0  0  0  0  0
    1.2442    0.9220    1.0193 H   0  0  0  0  0  0  0  0  0  0  0  0
    0.9819   -2.8380   -0.2257 H   0  0  0  0  0  0  0  0  0  0  0  0
   -0.7110   -3.1037    0.1493 H   0  0  0  0  0  0  0  0  0  0  0  0
    0.3274   -1.2737   -2.0913 H   0  0  0  0  0  0  0  0  0  0  0  0
   -0.4075   -2.8581   -2.3121 H   0  0  0  0  0  0  0  0  0  0  0  0
   -1.3749   -1.5123   -1.6865 H   0  0  0  0  0  0  0  0  0  0  0  0
  1  2  1  0
  1  6  1  0
  1  7  1  0
  2  3  1  0
  2  8  1  0
  2  9  1  0
  3  4  1  0
  4  5  1  0
  4 10  1  0
  4 11  1  0
  5 12  1  0
  5 13  1  0
  5 14  1  0
M  RAD  1   1   2
M  END
>  <reaction>  (2) 
rmg_rxn_234

>  <mol_properties>  (2) 
{"0": {"label": "acceptor", "atom_type": "Cs"}}

>  <type>  (2) 
r2

$$$$

     RDKit          3D

 15 14  0  0  0  0  0  0  0  0999 V2000
   -2.0554    0.0723   -0.4910 C   0  0  0  0  0  0  0  0  0  0  0  0
   -0.7461   -0.6266   -0.8178 C   0  0  0  0  0  0  0  0  0  0  0  0
    0.3249    0.2591   -1.9782 S   0  0  0  0  0  0  0  0  0  0  0  0
   -0.7172    0.3642   -3.4551 C   0  0  0  0  0  0  0  0  0  0  0  0
   -1.1375   -0.9737   -4.0409 C   0  0  0  0  0  0  0  0  0  0  0  0
   -2.7005    0.1427   -1.3684 H   0  0  0  0  0  0  0  0  0  0  0  0
   -2.6016   -0.4848    0.2733 H   0  0  0  0  0  0  0  0  0  0  0  0
   -1.8758    1.0825   -0.1213 H   0  0  0  0  0  0  0  0  0  0  0  0
   -0.1320   -0.7246    0.0789 H   0  0  0  0  0  0  0  0  0  0  0  0
   -0.9254   -1.6374   -1.1879 H   0  0  0  0  0  0  0  0  0  0  0  0
   -1.5873    0.9874   -3.2422 H   0  0  0  0  0  0  0  0  0  0  0  0
   -0.1021    0.9161   -4.1678 H   0  0  0  0  0  0  0  0  0  0  0  0
   -1.7876   -1.5224   -3.3574 H   0  0  0  0  0  0  0  0  0  0  0  0
   -0.2676   -1.5962   -4.2534 H   0  0  0  0  0  0  0  0  0  0  0  0
   -1.6916   -0.8229   -4.9700 H   0  0  0  0  0  0  0  0  0  0  0  0
  1  2  1  0
  1  6  1  0
  1  7  1  0
  1  8  1  0
  2  3  1  0
  2  9  1  0
  2 10  1  0
  3  4  1  0
  4  5  1  0
  4 11  1  0
  4 12  1  0
  5 13  1  0
  5 14  1  0
  5 15  1  0
M  END
>  <reaction>  (3) 
rmg_rxn_234

>  <mol_properties>  (3) 
{"0": {"label": "acceptor", "atom_type": "Cs"}, "14": {"label": "a_hydrogen", "atom_type": "H0"}}

>  <type>  (3) 
r2h

$$$$

     RDKit          3D

 32 30  0  0  0  0  0  0  0  0999 V2000
   -0.4141    0.2785    1.8964 C   0  0  0  0  0  3  0  0  0  0  0  0
   -1.0440   -0.1533    0.6004 C   0  0  0  0  0  0  0  0  0  0  0  0
   -1.1675    1.1294   -0.6720 S   0  0  0  0  0  0  0  0  0  0  0  0
   -2.2834    2.3268    0.1019 C   0  0  0  0  0  0  0  0  0  0  0  0
   -3.6644    1.7946    0.4468 C   0  0  0  0  0  0  0  0  0  0  0  0
   -0.8489    1.1651    2.3540 H   0  0  0  0  0  0  0  0  0  0  0  0
   -0.3108   -0.5298    2.6205 H   0  0  0  0  0  0  0  0  0  0  0  0
   -2.0343   -0.5888    0.7619 H   0  0  0  0  0  0  0  0  0  0  0  0
   -0.4353   -0.9246    0.1249 H   0  0  0  0  0  0  0  0  0  0  0  0
   -1.8008    2.7556    0.9819 H   0  0  0  0  0  0  0  0  0  0  0  0
   -2.3564    3.1270   -0.6366 H   0  0  0  0  0  0  0  0  0  0  0  0
   -3.6141    1.0264    1.2201 H   0  0  0  0  0  0  0  0  0  0  0  0
   -4.2965    2.6004    0.8266 H   0  0  0  0  0  0  0  0  0  0  0  0
   -4.1455    1.3618   -0.4311 H   0  0  0  0  0  0  0  0  0  0  0  0
    2.0984    0.9193    1.1998 C   0  0  0  0  0  0  0  0  0  0  0  0
    2.9588   -0.3103    1.3476 C   0  0  0  0  0  0  0  0  0  0  0  0
    2.3585   -1.5539    0.7173 C   0  0  0  0  0  0  0  0  0  0  0  0
    2.0406   -1.2911   -0.6247 O   0  0  0  0  0  0  0  0  0  0  0  0
    1.4971   -2.3976   -1.3001 C   0  0  0  0  0  0  0  0  0  0  0  0
    1.0462   -1.9563   -2.6729 C   0  0  0  0  0  0  0  0  0  0  0  0
    0.8618    0.6300    1.6088 H   0  0  0  0  0  0  0  0  0  0  0  0
    1.9230    1.2234    0.1713 H   0  0  0  0  0  0  0  0  0  0  0  0
    2.3969    1.7559    1.8287 H   0  0  0  0  0  0  0  0  0  0  0  0
    3.1407   -0.5269    2.4039 H   0  0  0  0  0  0  0  0  0  0  0  0
    3.9394   -0.1282    0.8925 H   0  0  0  0  0  0  0  0  0  0  0  0
    1.4496   -1.8524    1.2625 H   0  0  0  0  0  0  0  0  0  0  0  0
    3.0675   -2.3915    0.7847 H   0  0  0  0  0  0  0  0  0  0  0  0
    2.2467   -3.1989   -1.3718 H   0  0  0  0  0  0  0  0  0  0  0  0
    0.6470   -2.8040   -0.7305 H   0  0  0  0  0  0  0  0  0  0  0  0
    1.8868   -1.5539   -3.2390 H   0  0  0  0  0  0  0  0  0  0  0  0
    0.2830   -1.1806   -2.5933 H   0  0  0  0  0  0  0  0  0  0  0  0
    0.6286   -2.8007   -3.2234 H   0  0  0  0  0  0  0  0  0  0  0  0
  1  2  1  0
  1  6  1  0
  1  7  1  0
  2  3  1  0
  2  8  1  0
  2  9  1  0
  3  4  1  0
  4  5  1  0
  4 10  1  0
  4 11  1  0
  5 12  1  0
  5 13  1  0
  5 14  1  0
 15 16  1  0
 15 21  1  0
 15 22  1  0
 15 23  1  0
 16 17  1  0
 16 24  1  0
 16 25  1  0
 17 18  1  0
 17 26  1  0
 17 27  1  0
 18 19  1  0
 19 20  1  0
 19 28  1  0
 19 29  1  0
 20 30  1  0
 20 31  1  0
 20 32  1  0
M  RAD  1   1   2
M  END
>  <reaction>  (4) 
rmg_rxn_234

>  <mol_properties>  (4) 
{"0": {"label": "*3", "atom_type": "Cs"}, "1": {"label": "*4", "atom_type": "Cs"}, "14": {"label": "*1", "atom_type": "Cs"}, "15": {"label": "*0", "atom_type": "Cs"}, "20": {"label": "*2", "atom_type": "H0"}}

>  <type>  (4) 
ts

$$$$

     RDKit          3D

 32 30  0  0  0  0  0  0  0  0999 V2000
   -1.1921    0.3773   -0.0036 C   0  0  0  0  0  0  0  0  0  0  0  0
   -1.9722    1.3668    0.8460 C   0  0  0  0  0  0  0  0  0  0  0  0
   -1.5820    1.3315    2.6137 S   0  0  0  0  0  0  0  0  0  0  0  0
   -2.0177   -0.3665    3.0668 C   0  0  0  0  0  0  0  0  0  0  0  0
   -3.4738   -0.7378    2.8404 C   0  0  0  0  0  0  0  0  0  0  0  0
   -1.4434   -0.6535    0.2517 H   0  0  0  0  0  0  0  0  0  0  0  0
   -1.4260    0.5193   -1.0610 H   0  0  0  0  0  0  0  0  0  0  0  0
   -3.0469    1.2366    0.7086 H   0  0  0  0  0  0  0  0  0  0  0  0
   -1.7392    2.3908    0.5494 H   0  0  0  0  0  0  0  0  0  0  0  0
   -1.3531   -1.0619    2.5514 H   0  0  0  0  0  0  0  0  0  0  0  0
   -1.7702   -0.4233    4.1281 H   0  0  0  0  0  0  0  0  0  0  0  0
   -3.7288   -0.7261    1.7794 H   0  0  0  0  0  0  0  0  0  0  0  0
   -3.6700   -1.7455    3.2133 H   0  0  0  0  0  0  0  0  0  0  0  0
   -4.1376   -0.0425    3.3555 H   0  0  0  0  0  0  0  0  0  0  0  0
    0.9301    1.5075   -1.0447 C   0  0  0  0  0  3  0  0  0  0  0  0
    2.2000    0.8003   -0.5904 C   0  0  0  0  0  0  0  0  0  0  0  0
    2.2396   -0.6626   -0.9822 C   0  0  0  0  0  0  0  0  0  0  0  0
    2.2405   -0.7696   -2.3835 O   0  0  0  0  0  0  0  0  0  0  0  0
    2.2405   -2.0982   -2.8398 C   0  0  0  0  0  0  0  0  0  0  0  0
    2.2405   -2.0982   -4.3510 C   0  0  0  0  0  0  0  0  0  0  0  0
   -0.1321    0.9418   -0.5236 H   0  0  0  0  0  0  0  0  0  0  0  0
    0.8329    1.4673   -2.1296 H   0  0  0  0  0  0  0  0  0  0  0  0
    0.9342    2.5554   -0.7410 H   0  0  0  0  0  0  0  0  0  0  0  0
    2.2951    0.8596    0.4974 H   0  0  0  0  0  0  0  0  0  0  0  0
    3.0776    1.2966   -1.0126 H   0  0  0  0  0  0  0  0  0  0  0  0
    1.3656   -1.1890   -0.5668 H   0  0  0  0  0  0  0  0  0  0  0  0
    3.1380   -1.1439   -0.5687 H   0  0  0  0  0  0  0  0  0  0  0  0
    3.1254   -2.6269   -2.4554 H   0  0  0  0  0  0  0  0  0  0  0  0
    1.3556   -2.6264   -2.4553 H   0  0  0  0  0  0  0  0  0  0  0  0
    3.1247   -1.5867   -4.7331 H   0  0  0  0  0  0  0  0  0  0  0  0
    1.3557   -1.5878   -4.7331 H   0  0  0  0  0  0  0  0  0  0  0  0
    2.2411   -3.1217   -4.7291 H   0  0  0  0  0  0  0  0  0  0  0  0
  1  2  1  0
  1  6  1  0
  1  7  1  0
  1 21  1  0
  2  3  1  0
  2  8  1  0
  2  9  1  0
  3  4  1  0
  4  5  1  0
  4 10  1  0
  4 11  1  0
  5 12  1  0
  5 13  1  0
  5 14  1  0
 15 16  1  0
 15 22  1  0
 15 23  1  0
 16 17  1  0
 16 24  1  0
 16 25  1  0
 17 18  1  0
 17 26  1  0
 17 27  1  0
 18 19  1  0
 19 20  1  0
 19 28  1  0
 19 29  1  0
 20 30  1  0
 20 31  1  0
 20 32  1  0
M  RAD  1  15   2
M  END
>  <reaction>  (5) 
rmg_rxn_234

>  <mol_properties>  (5) 
{"0": {"label": "*3", "atom_type": "Cs"}, "1": {"label": "*4", "atom_type": "Cs"}, "14": {"label": "*1", "atom_type": "Cs"}, "15": {"label": "*0", "atom_type": "Cs"}, "20": {"label": "*2", "atom_type": "H0"}}

>  <type>  (5) 
unop_1

>  <geom_source>  (5) 
Heuristics

$$$$

     RDKit          3D

 32 30  0  0  0  0  0  0  0  0999 V2000
   -1.7662    1.4555    0.5666 C   0  0  0  0  0  0  0  0  0  0  0  0
   -1.4461    0.8433    1.9202 C   0  0  0  0  0  0  0  0  0  0  0  0
   -0.4586   -0.6731    1.8595 S   0  0  0  0  0  0  0  0  0  0  0  0
   -1.5223   -1.7831    0.9033 C   0  0  0  0  0  0  0  0  0  0  0  0
   -2.8811   -2.0628    1.5239 C   0  0  0  0  0  0  0  0  0  0  0  0
   -2.4105    0.8027   -0.0248 H   0  0  0  0  0  0  0  0  0  0  0  0
   -2.2910    2.4048    0.6949 H   0  0  0  0  0  0  0  0  0  0  0  0
   -2.3579    0.6604    2.4911 H   0  0  0  0  0  0  0  0  0  0  0  0
   -0.8358    1.5267    2.5130 H   0  0  0  0  0  0  0  0  0  0  0  0
   -1.6291   -1.3985   -0.1123 H   0  0  0  0  0  0  0  0  0  0  0  0
   -0.9394   -2.7029    0.8314 H   0  0  0  0  0  0  0  0  0  0  0  0
   -3.4941   -1.1610    1.5663 H   0  0  0  0  0  0  0  0  0  0  0  0
   -3.4244   -2.8005    0.9292 H   0  0  0  0  0  0  0  0  0  0  0  0
   -2.7739   -2.4471    2.5389 H   0  0  0  0  0  0  0  0  0  0  0  0
    0.3560    2.5858   -0.4745 C   0  0  0  0  0  3  0  0  0  0  0  0
    1.6259    1.8785   -0.0202 C   0  0  0  0  0  0  0  0  0  0  0  0
    1.6655    0.4156   -0.4121 C   0  0  0  0  0  0  0  0  0  0  0  0
    1.6664    0.3087   -1.8133 O   0  0  0  0  0  0  0  0  0  0  0  0
    1.6664   -1.0200   -2.2697 C   0  0  0  0  0  0  0  0  0  0  0  0
    1.6664   -1.0200   -3.7808 C   0  0  0  0  0  0  0  0  0  0  0  0
   -0.7062    2.0201    0.0466 H   0  0  0  0  0  0  0  0  0  0  0  0
    0.2587    2.5455   -1.5594 H   0  0  0  0  0  0  0  0  0  0  0  0
    0.3600    3.6336   -0.1709 H   0  0  0  0  0  0  0  0  0  0  0  0
    1.7210    1.9379    1.0676 H   0  0  0  0  0  0  0  0  0  0  0  0
    2.5034    2.3749   -0.4425 H   0  0  0  0  0  0  0  0  0  0  0  0
    0.7915   -0.1107    0.0034 H   0  0  0  0  0  0  0  0  0  0  0  0
    2.5639   -0.0657    0.0015 H   0  0  0  0  0  0  0  0  0  0  0  0
    2.5513   -1.5487   -1.8853 H   0  0  0  0  0  0  0  0  0  0  0  0
    0.7815   -1.5482   -1.8852 H   0  0  0  0  0  0  0  0  0  0  0  0
    2.5505   -0.5085   -4.1630 H   0  0  0  0  0  0  0  0  0  0  0  0
    0.7816   -0.5096   -4.1630 H   0  0  0  0  0  0  0  0  0  0  0  0
    1.6670   -2.0435   -4.1589 H   0  0  0  0  0  0  0  0  0  0  0  0
  1  2  1  0
  1  6  1  0
  1  7  1  0
  1 21  1  0
  2  3  1  0
  2  8  1  0
  2  9  1  0
  3  4  1  0
  4  5  1  0
  4 10  1  0
  4 11  1  0
  5 12  1  0
  5 13  1  0
  5 14  1  0
 15 16  1  0
 15 22  1  0
 15 23  1  0
 16 17  1  0
 16 24  1  0
 16 25  1  0
 17 18  1  0
 17 26  1  0
 17 27  1  0
 18 19  1  0
 19 20  1  0
 19 28  1  0
 19 29  1  0
 20 30  1  0
 20 31  1  0
 20 32  1  0
M  RAD  1  15   2
M  END
>  <reaction>  (6) 
rmg_rxn_234

>  <mol_properties>  (6) 
{"0": {"label": "*3", "atom_type": "Cs"}, "1": {"label": "*4", "atom_type": "Cs"}, "14": {"label": "*1", "atom_type": "Cs"}, "15": {"label": "*0", "atom_type": "Cs"}, "20": {"label": "*2", "atom_type": "H0"}}

>  <type>  (6) 
unop_2

>  <geom_source>  (6) 
Heuristics

$$$$

     RDKit          3D

 32 30  0  0  0  0  0  0  0  0999 V2000
   -1.0259   -0.0022    0.2002 C   0  0  0  0  0  0  0  0  0  0  0  0
   -2.1403    1.0124    0.3959 C   0  0  0  0  0  0  0  0  0  0  0  0
   -2.0371    1.9764    1.9250 S   0  0  0  0  0  0  0  0  0  0  0  0
   -2.1293    0.6888    3.1947 C   0  0  0  0  0  0  0  0  0  0  0  0
   -3.4035   -0.1393    3.1779 C   0  0  0  0  0  0  0  0  0  0  0  0
   -1.0661   -0.7901    0.9543 H   0  0  0  0  0  0  0  0  0  0  0  0
   -1.1163   -0.4800   -0.7779 H   0  0  0  0  0  0  0  0  0  0  0  0
   -3.1190    0.5338    0.3334 H   0  0  0  0  0  0  0  0  0  0  0  0
   -2.1095    1.7688   -0.3901 H   0  0  0  0  0  0  0  0  0  0  0  0
   -1.2476    0.0493    3.1282 H   0  0  0  0  0  0  0  0  0  0  0  0
   -2.0464    1.2421    4.1316 H   0  0  0  0  0  0  0  0  0  0  0  0
   -3.4829   -0.7315    2.2647 H   0  0  0  0  0  0  0  0  0  0  0  0
   -3.4147   -0.8339    4.0208 H   0  0  0  0  0  0  0  0  0  0  0  0
   -4.2844    0.5001    3.2441 H   0  0  0  0  0  0  0  0  0  0  0  0
    1.0963    1.1280   -0.8409 C   0  0  0  0  0  3  0  0  0  0  0  0
    2.3662    0.4207   -0.3866 C   0  0  0  0  0  0  0  0  0  0  0  0
    2.4058   -1.0422   -0.7784 C   0  0  0  0  0  0  0  0  0  0  0  0
    2.4067   -1.1491   -2.1797 O   0  0  0  0  0  0  0  0  0  0  0  0
    2.4067   -2.4778   -2.6361 C   0  0  0  0  0  0  0  0  0  0  0  0
    2.4067   -2.4778   -4.1472 C   0  0  0  0  0  0  0  0  0  0  0  0
    0.0341    0.5623   -0.3198 H   0  0  0  0  0  0  0  0  0  0  0  0
    0.9990    1.0878   -1.9258 H   0  0  0  0  0  0  0  0  0  0  0  0
    1.1003    2.1758   -0.5372 H   0  0  0  0  0  0  0  0  0  0  0  0
    2.4613    0.4801    0.7012 H   0  0  0  0  0  0  0  0  0  0  0  0
    3.2437    0.9171   -0.8089 H   0  0  0  0  0  0  0  0  0  0  0  0
    1.5318   -1.5685   -0.3630 H   0  0  0  0  0  0  0  0  0  0  0  0
    3.3042   -1.5235   -0.3649 H   0  0  0  0  0  0  0  0  0  0  0  0
    3.2916   -3.0065   -2.2517 H   0  0  0  0  0  0  0  0  0  0  0  0
    1.5218   -3.0060   -2.2516 H   0  0  0  0  0  0  0  0  0  0  0  0
    3.2908   -1.9663   -4.5294 H   0  0  0  0  0  0  0  0  0  0  0  0
    1.5219   -1.9674   -4.5294 H   0  0  0  0  0  0  0  0  0  0  0  0
    2.4073   -3.5013   -4.5253 H   0  0  0  0  0  0  0  0  0  0  0  0
  1  2  1  0
  1  6  1  0
  1  7  1  0
  1 21  1  0
  2  3  1  0
  2  8  1  0
  2  9  1  0
  3  4  1  0
  4  5  1  0
  4 10  1  0
  4 11  1  0
  5 12  1  0
  5 13  1  0
  5 14  1  0
 15 16  1  0
 15 22  1  0
 15 23  1  0
 16 17  1  0
 16 24  1  0
 16 25  1  0
 17 18  1  0
 17 26  1  0
 17 27  1  0
 18 19  1  0
 19 20  1  0
 19 28  1  0
 19 29  1  0
 20 30  1  0
 20 31  1  0
 20 32  1  0
M  RAD  1  15   2
M  END
>  <reaction>  (7) 
rmg_rxn_234

>  <mol_properties>  (7) 
{"0": {"label": "*3", "atom_type": "Cs"}, "1": {"label": "*4", "atom_type": "Cs"}, "14": {"label": "*1", "atom_type": "Cs"}, "15": {"label": "*0", "atom_type": "Cs"}, "20": {"label": "*2", "atom_type": "H0"}}

>  <type>  (7) 
unop_3

>  <geom_source>  (7) 
Heuristics

$$$$

     RDKit          3D

 32 30  0  0  0  0  0  0  0  0999 V2000
   -1.5755    1.0741    1.9314 C   0  0  0  0  0  0  0  0  0  0  0  0
   -1.6744   -0.3836    1.5130 C   0  0  0  0  0  0  0  0  0  0  0  0
   -0.8045   -0.8003   -0.0193 S   0  0  0  0  0  0  0  0  0  0  0  0
   -1.6355    0.2589   -1.2299 C   0  0  0  0  0  0  0  0  0  0  0  0
   -3.1265    0.0093   -1.3851 C   0  0  0  0  0  0  0  0  0  0  0  0
   -2.0743    1.7297    1.2156 H   0  0  0  0  0  0  0  0  0  0  0  0
   -2.0550    1.2230    2.9014 H   0  0  0  0  0  0  0  0  0  0  0  0
   -2.7167   -0.6974    1.4359 H   0  0  0  0  0  0  0  0  0  0  0  0
   -1.2069   -1.0273    2.2600 H   0  0  0  0  0  0  0  0  0  0  0  0
   -1.4378    1.3057   -0.9931 H   0  0  0  0  0  0  0  0  0  0  0  0
   -1.1137    0.0441   -2.1640 H   0  0  0  0  0  0  0  0  0  0  0  0
   -3.6703    0.2582   -0.4723 H   0  0  0  0  0  0  0  0  0  0  0  0
   -3.5327    0.6289   -2.1877 H   0  0  0  0  0  0  0  0  0  0  0  0
   -3.3236   -1.0369   -1.6216 H   0  0  0  0  0  0  0  0  0  0  0  0
    0.5467    2.2043    0.8903 C   0  0  0  0  0  3  0  0  0  0  0  0
    1.8166    1.4970    1.3446 C   0  0  0  0  0  0  0  0  0  0  0  0
    1.8561    0.0341    0.9527 C   0  0  0  0  0  0  0  0  0  0  0  0
    1.8571   -0.0728   -0.4485 O   0  0  0  0  0  0  0  0  0  0  0  0
    1.8571   -1.4015   -0.9049 C   0  0  0  0  0  0  0  0  0  0  0  0
    1.8571   -1.4015   -2.4160 C   0  0  0  0  0  0  0  0  0  0  0  0
   -0.5155    1.6386    1.4114 H   0  0  0  0  0  0  0  0  0  0  0  0
    0.4494    2.1640   -0.1946 H   0  0  0  0  0  0  0  0  0  0  0  0
    0.5507    3.2521    1.1939 H   0  0  0  0  0  0  0  0  0  0  0  0
    1.9117    1.5564    2.4324 H   0  0  0  0  0  0  0  0  0  0  0  0
    2.6941    1.9934    0.9223 H   0  0  0  0  0  0  0  0  0  0  0  0
    0.9822   -0.4922    1.3682 H   0  0  0  0  0  0  0  0  0  0  0  0
    2.7546   -0.4472    1.3663 H   0  0  0  0  0  0  0  0  0  0  0  0
    2.7420   -1.9302   -0.5205 H   0  0  0  0  0  0  0  0  0  0  0  0
    0.9722   -1.9297   -0.5204 H   0  0  0  0  0  0  0  0  0  0  0  0
    2.7412   -0.8900   -2.7982 H   0  0  0  0  0  0  0  0  0  0  0  0
    0.9723   -0.8911   -2.7982 H   0  0  0  0  0  0  0  0  0  0  0  0
    1.8577   -2.4250   -2.7941 H   0  0  0  0  0  0  0  0  0  0  0  0
  1  2  1  0
  1  6  1  0
  1  7  1  0
  1 21  1  0
  2  3  1  0
  2  8  1  0
  2  9  1  0
  3  4  1  0
  4  5  1  0
  4 10  1  0
  4 11  1  0
  5 12  1  0
  5 13  1  0
  5 14  1  0
 15 16  1  0
 15 22  1  0
 15 23  1  0
 16 17  1  0
 16 24  1  0
 16 25  1  0
 17 18  1  0
 17 26  1  0
 17 27  1  0
 18 19  1  0
 19 20  1  0
 19 28  1  0
 19 29  1  0
 20 30  1  0
 20 31  1  0
 20 32  1  0
M  RAD  1  15   2
M  END
>  <reaction>  (8) 
rmg_rxn_234

>  <mol_properties>  (8) 
{"0": {"label": "*3", "atom_type": "Cs"}, "1": {"label": "*4", "atom_type": "Cs"}, "14": {"label": "*1", "atom_type": "Cs"}, "15": {"label": "*0", "atom_type": "Cs"}, "20": {"label": "*2", "atom_type": "H0"}}

>  <type>  (8) 
unop_4

>  <geom_source>  (8) 
Heuristics

$$$$

     RDKit          3D

 32 30  0  0  0  0  0  0  0  0999 V2000
   -0.9643   -0.3858    0.7277 C   0  0  0  0  0  0  0  0  0  0  0  0
   -2.2320    0.3194    0.2748 C   0  0  0  0  0  0  0  0  0  0  0  0
   -2.2752    2.0998    0.6012 S   0  0  0  0  0  0  0  0  0  0  0  0
   -2.1323    2.1606    2.4051 C   0  0  0  0  0  0  0  0  0  0  0  0
   -3.2477    1.4583    3.1615 C   0  0  0  0  0  0  0  0  0  0  0  0
   -0.8612   -0.3636    1.8139 H   0  0  0  0  0  0  0  0  0  0  0  0
   -0.9843   -1.4342    0.4220 H   0  0  0  0  0  0  0  0  0  0  0  0
   -3.1161   -0.1510    0.7083 H   0  0  0  0  0  0  0  0  0  0  0  0
   -2.3396    0.2517   -0.8090 H   0  0  0  0  0  0  0  0  0  0  0  0
   -1.1558    1.7770    2.7054 H   0  0  0  0  0  0  0  0  0  0  0  0
   -2.1329    3.2285    2.6295 H   0  0  0  0  0  0  0  0  0  0  0  0
   -3.2368    0.3821    2.9810 H   0  0  0  0  0  0  0  0  0  0  0  0
   -3.1308    1.6113    4.2367 H   0  0  0  0  0  0  0  0  0  0  0  0
   -4.2234    1.8418    2.8611 H   0  0  0  0  0  0  0  0  0  0  0  0
    1.1579    0.7444   -0.3134 C   0  0  0  0  0  3  0  0  0  0  0  0
    2.4278    0.0371    0.1410 C   0  0  0  0  0  0  0  0  0  0  0  0
    2.4674   -1.4258   -0.2509 C   0  0  0  0  0  0  0  0  0  0  0  0
    2.4683   -1.5327   -1.6521 O   0  0  0  0  0  0  0  0  0  0  0  0
    2.4683   -2.8613   -2.1085 C   0  0  0  0  0  0  0  0  0  0  0  0
    2.4683   -2.8613   -3.6197 C   0  0  0  0  0  0  0  0  0  0  0  0
    0.0957    0.1787    0.2077 H   0  0  0  0  0  0  0  0  0  0  0  0
    1.0606    0.7042   -1.3983 H   0  0  0  0  0  0  0  0  0  0  0  0
    1.1620    1.7923   -0.0097 H   0  0  0  0  0  0  0  0  0  0  0  0
    2.5229    0.0965    1.2287 H   0  0  0  0  0  0  0  0  0  0  0  0
    3.3054    0.5335   -0.2813 H   0  0  0  0  0  0  0  0  0  0  0  0
    1.5934   -1.9521    0.1646 H   0  0  0  0  0  0  0  0  0  0  0  0
    3.3658   -1.9071    0.1626 H   0  0  0  0  0  0  0  0  0  0  0  0
    3.3532   -3.3901   -1.7241 H   0  0  0  0  0  0  0  0  0  0  0  0
    1.5834   -3.3896   -1.7240 H   0  0  0  0  0  0  0  0  0  0  0  0
    3.3524   -2.3499   -4.0018 H   0  0  0  0  0  0  0  0  0  0  0  0
    1.5835   -2.3510   -4.0018 H   0  0  0  0  0  0  0  0  0  0  0  0
    2.4689   -3.8849   -3.9977 H   0  0  0  0  0  0  0  0  0  0  0  0
  1  2  1  0
  1  6  1  0
  1  7  1  0
  1 21  1  0
  2  3  1  0
  2  8  1  0
  2  9  1  0
  3  4  1  0
  4  5  1  0
  4 10  1  0
  4 11  1  0
  5 12  1  0
  5 13  1  0
  5 14  1  0
 15 16  1  0
 15 22  1  0
 15 23  1  0
 16 17  1  0
 16 24  1  0
 16 25  1  0
 17 18  1  0
 17 26  1  0
 17 27  1  0
 18 19  1  0
 19 20  1  0
 19 28  1  0
 19 29  1  0
 20 30  1  0
 20 31  1  0
 20 32  1  0
M  RAD  1  15   2
M  END
>  <reaction>  (9) 
rmg_rxn_234

>  <mol_properties>  (9) 
{"0": {"label": "*3", "atom_type": "Cs"}, "1": {"label": "*4", "atom_type": "Cs"}, "14": {"label": "*1", "atom_type": "Cs"}, "15": {"label": "*0", "atom_type": "Cs"}, "20": {"label": "*2", "atom_type": "H0"}}

>  <type>  (9) 
unop_5

>  <geom_source>  (9) 
Heuristics

$$$$

     RDKit          3D

 32 30  0  0  0  0  0  0  0  0999 V2000
   -1.3579    0.6396    2.0747 C   0  0  0  0  0  0  0  0  0  0  0  0
   -1.8823   -0.4651    1.1722 C   0  0  0  0  0  0  0  0  0  0  0  0
   -1.2468   -0.4342   -0.5229 S   0  0  0  0  0  0  0  0  0  0  0  0
   -1.8125    1.1813   -1.1131 C   0  0  0  0  0  0  0  0  0  0  0  0
   -3.3200    1.3736   -1.1112 C   0  0  0  0  0  0  0  0  0  0  0  0
   -1.6913    1.6226    1.7377 H   0  0  0  0  0  0  0  0  0  0  0  0
   -1.7241    0.5013    3.0944 H   0  0  0  0  0  0  0  0  0  0  0  0
   -2.9734   -0.4666    1.1513 H   0  0  0  0  0  0  0  0  0  0  0  0
   -1.5738   -1.4424    1.5472 H   0  0  0  0  0  0  0  0  0  0  0  0
   -1.3180    1.9698   -0.5434 H   0  0  0  0  0  0  0  0  0  0  0  0
   -1.4223    1.2368   -2.1307 H   0  0  0  0  0  0  0  0  0  0  0  0
   -3.7229    1.3619   -0.0971 H   0  0  0  0  0  0  0  0  0  0  0  0
   -3.5794    2.3371   -1.5556 H   0  0  0  0  0  0  0  0  0  0  0  0
   -3.8139    0.5854   -1.6805 H   0  0  0  0  0  0  0  0  0  0  0  0
    0.7643    1.7698    1.0336 C   0  0  0  0  0  3  0  0  0  0  0  0
    2.0341    1.0626    1.4879 C   0  0  0  0  0  0  0  0  0  0  0  0
    2.0737   -0.4004    1.0961 C   0  0  0  0  0  0  0  0  0  0  0  0
    2.0747   -0.5073   -0.3052 O   0  0  0  0  0  0  0  0  0  0  0  0
    2.0747   -1.8359   -0.7616 C   0  0  0  0  0  0  0  0  0  0  0  0
    2.0747   -1.8359   -2.2727 C   0  0  0  0  0  0  0  0  0  0  0  0
   -0.2980    1.2041    1.5547 H   0  0  0  0  0  0  0  0  0  0  0  0
    0.6670    1.7296   -0.0513 H   0  0  0  0  0  0  0  0  0  0  0  0
    0.7683    2.8177    1.3373 H   0  0  0  0  0  0  0  0  0  0  0  0
    2.1293    1.1219    2.5757 H   0  0  0  0  0  0  0  0  0  0  0  0
    2.9117    1.5589    1.0656 H   0  0  0  0  0  0  0  0  0  0  0  0
    1.1998   -0.9267    1.5115 H   0  0  0  0  0  0  0  0  0  0  0  0
    2.9721   -0.8817    1.5096 H   0  0  0  0  0  0  0  0  0  0  0  0
    2.9595   -2.3647   -0.3772 H   0  0  0  0  0  0  0  0  0  0  0  0
    1.1897   -2.3642   -0.3771 H   0  0  0  0  0  0  0  0  0  0  0  0
    2.9588   -1.3244   -2.6549 H   0  0  0  0  0  0  0  0  0  0  0  0
    1.1899   -1.3256   -2.6549 H   0  0  0  0  0  0  0  0  0  0  0  0
    2.0753   -2.8595   -2.6508 H   0  0  0  0  0  0  0  0  0  0  0  0
  1  2  1  0
  1  6  1  0
  1  7  1  0
  1 21  1  0
  2  3  1  0
  2  8  1  0
  2  9  1  0
  3  4  1  0
  4  5  1  0
  4 10  1  0
  4 11  1  0
  5 12  1  0
  5 13  1  0
  5 14  1  0
 15 16  1  0
 15 22  1  0
 15 23  1  0
 16 17  1  0
 16 24  1  0
 16 25  1  0
 17 18  1  0
 17 26  1  0
 17 27  1  0
 18 19  1  0
 19 20  1  0
 19 28  1  0
 19 29  1  0
 20 30  1  0
 20 31  1  0
 20 32  1  0
M  RAD  1  15   2
M  END
>  <reaction>  (10) 
rmg_rxn_234

>  <mol_properties>  (10) 
{"0": {"label": "*3", "atom_type": "Cs"}, "1": {"label": "*4", "atom_type": "Cs"}, "14": {"label": "*1", "atom_type": "Cs"}, "15": {"label": "*0", "atom_type": "Cs"}, "20": {"label": "*2", "atom_type": "H0"}}

>  <type>  (10) 
unop_6

>  <geom_source>  (10) 
Heuristics

$$$$

     RDKit          3D

 32 30  0  0  0  0  0  0  0  0999 V2000
   -1.1478    0.1338    1.9625 C   0  0  0  0  0  0  0  0  0  0  0  0
   -2.0749   -0.3845    0.8756 C   0  0  0  0  0  0  0  0  0  0  0  0
   -1.7465    0.2633   -0.7830 S   0  0  0  0  0  0  0  0  0  0  0  0
   -1.9832    2.0433   -0.5511 C   0  0  0  0  0  0  0  0  0  0  0  0
   -3.3728    2.4516   -0.0907 C   0  0  0  0  0  0  0  0  0  0  0  0
   -1.2777    1.2058    2.1205 H   0  0  0  0  0  0  0  0  0  0  0  0
   -1.3597   -0.3651    2.9107 H   0  0  0  0  0  0  0  0  0  0  0  0
   -3.1194   -0.2050    1.1355 H   0  0  0  0  0  0  0  0  0  0  0  0
   -1.9608   -1.4636    0.7598 H   0  0  0  0  0  0  0  0  0  0  0  0
   -1.2193    2.4260    0.1277 H   0  0  0  0  0  0  0  0  0  0  0  0
   -1.7686    2.4638   -1.5349 H   0  0  0  0  0  0  0  0  0  0  0  0
   -3.5892    2.0736    0.9099 H   0  0  0  0  0  0  0  0  0  0  0  0
   -3.4551    3.5402   -0.0546 H   0  0  0  0  0  0  0  0  0  0  0  0
   -4.1359    2.0689   -0.7693 H   0  0  0  0  0  0  0  0  0  0  0  0
    0.9744    1.2641    0.9214 C   0  0  0  0  0  3  0  0  0  0  0  0
    2.2443    0.5568    1.3757 C   0  0  0  0  0  0  0  0  0  0  0  0
    2.2839   -0.9061    0.9839 C   0  0  0  0  0  0  0  0  0  0  0  0
    2.2848   -1.0130   -0.4174 O   0  0  0  0  0  0  0  0  0  0  0  0
    2.2848   -2.3417   -0.8738 C   0  0  0  0  0  0  0  0  0  0  0  0
    2.2848   -2.3417   -2.3849 C   0  0  0  0  0  0  0  0  0  0  0  0
   -0.0878    0.6984    1.4425 H   0  0  0  0  0  0  0  0  0  0  0  0
    0.8772    1.2238   -0.1635 H   0  0  0  0  0  0  0  0  0  0  0  0
    0.9785    2.3119    1.2251 H   0  0  0  0  0  0  0  0  0  0  0  0
    2.3394    0.6162    2.4635 H   0  0  0  0  0  0  0  0  0  0  0  0
    3.1219    1.0532    0.9535 H   0  0  0  0  0  0  0  0  0  0  0  0
    1.4099   -1.4324    1.3993 H   0  0  0  0  0  0  0  0  0  0  0  0
    3.1823   -1.3874    1.3974 H   0  0  0  0  0  0  0  0  0  0  0  0
    3.1697   -2.8704   -0.4893 H   0  0  0  0  0  0  0  0  0  0  0  0
    1.3999   -2.8699   -0.4893 H   0  0  0  0  0  0  0  0  0  0  0  0
    3.1690   -1.8302   -2.7670 H   0  0  0  0  0  0  0  0  0  0  0  0
    1.4000   -1.8313   -2.7670 H   0  0  0  0  0  0  0  0  0  0  0  0
    2.2854   -3.3652   -2.7630 H   0  0  0  0  0  0  0  0  0  0  0  0
  1  2  1  0
  1  6  1  0
  1  7  1  0
  1 21  1  0
  2  3  1  0
  2  8  1  0
  2  9  1  0
  3  4  1  0
  4  5  1  0
  4 10  1  0
  4 11  1  0
  5 12  1  0
  5 13  1  0
  5 14  1  0
 15 16  1  0
 15 22  1  0
 15 23  1  0
 16 17  1  0
 16 24  1  0
 16 25  1  0
 17 18  1  0
 17 26  1  0
 17 27  1  0
 18 19  1  0
 19 20  1  0
 19 28  1  0
 19 29  1  0
 20 30  1  0
 20 31  1  0
 20 32  1  0
M  RAD  1  15   2
M  END
>  <reaction>  (11) 
rmg_rxn_234

>  <mol_properties>  (11) 
{"0": {"label": "*3", "atom_type": "Cs"}, "1": {"label": "*4", "atom_type": "Cs"}, "14": {"label": "*1", "atom_type": "Cs"}, "15": {"label": "*0", "atom_type": "Cs"}, "20": {"label": "*2", "atom_type": "H0"}}

>  <type>  (11) 
unop_7

>  <geom_source>  (11) 
Heuristics

$$$$

     RDKit          3D

 32 30  0  0  0  0  0  0  0  0999 V2000
   -1.4135    0.7620   -0.0279 C   0  0  0  0  0  0  0  0  0  0  0  0
   -1.7682    1.3985    1.3058 C   0  0  0  0  0  0  0  0  0  0  0  0
   -1.0902    0.5577    2.7590 S   0  0  0  0  0  0  0  0  0  0  0  0
   -1.8349   -1.0876    2.6298 C   0  0  0  0  0  0  0  0  0  0  0  0
   -3.3540   -1.1095    2.6684 C   0  0  0  0  0  0  0  0  0  0  0  0
   -1.8565   -0.2304   -0.1272 H   0  0  0  0  0  0  0  0  0  0  0  0
   -1.7903    1.3729   -0.8511 H   0  0  0  0  0  0  0  0  0  0  0  0
   -2.8493    1.4981    1.4152 H   0  0  0  0  0  0  0  0  0  0  0  0
   -1.3516    2.4050    1.3707 H   0  0  0  0  0  0  0  0  0  0  0  0
   -1.4602   -1.5867    1.7347 H   0  0  0  0  0  0  0  0  0  0  0  0
   -1.4239   -1.6262    3.4853 H   0  0  0  0  0  0  0  0  0  0  0  0
   -3.7829   -0.6103    1.7980 H   0  0  0  0  0  0  0  0  0  0  0  0
   -3.7180   -2.1394    2.6678 H   0  0  0  0  0  0  0  0  0  0  0  0
   -3.7280   -0.6105    3.5631 H   0  0  0  0  0  0  0  0  0  0  0  0
    0.7087    1.8922   -1.0690 C   0  0  0  0  0  3  0  0  0  0  0  0
    1.9786    1.1850   -0.6146 C   0  0  0  0  0  0  0  0  0  0  0  0
    2.0182   -0.2780   -1.0065 C   0  0  0  0  0  0  0  0  0  0  0  0
    2.0191   -0.3849   -2.4077 O   0  0  0  0  0  0  0  0  0  0  0  0
    2.0191   -1.7135   -2.8641 C   0  0  0  0  0  0  0  0  0  0  0  0
    2.0191   -1.7135   -4.3753 C   0  0  0  0  0  0  0  0  0  0  0  0
   -0.3535    1.3265   -0.5479 H   0  0  0  0  0  0  0  0  0  0  0  0
    0.6115    1.8520   -2.1539 H   0  0  0  0  0  0  0  0  0  0  0  0
    0.7128    2.9401   -0.7653 H   0  0  0  0  0  0  0  0  0  0  0  0
    2.0737    1.2443    0.4731 H   0  0  0  0  0  0  0  0  0  0  0  0
    2.8562    1.6813   -1.0369 H   0  0  0  0  0  0  0  0  0  0  0  0
    1.1442   -0.8043   -0.5910 H   0  0  0  0  0  0  0  0  0  0  0  0
    2.9166   -0.7592   -0.5930 H   0  0  0  0  0  0  0  0  0  0  0  0
    2.9040   -2.2423   -2.4797 H   0  0  0  0  0  0  0  0  0  0  0  0
    1.1342   -2.2418   -2.4796 H   0  0  0  0  0  0  0  0  0  0  0  0
    2.9033   -1.2020   -4.7574 H   0  0  0  0  0  0  0  0  0  0  0  0
    1.1343   -1.2032   -4.7574 H   0  0  0  0  0  0  0  0  0  0  0  0
    2.0197   -2.7370   -4.7533 H   0  0  0  0  0  0  0  0  0  0  0  0
  1  2  1  0
  1  6  1  0
  1  7  1  0
  1 21  1  0
  2  3  1  0
  2  8  1  0
  2  9  1  0
  3  4  1  0
  4  5  1  0
  4 10  1  0
  4 11  1  0
  5 12  1  0
  5 13  1  0
  5 14  1  0
 15 16  1  0
 15 22  1  0
 15 23  1  0
 16 17  1  0
 16 24  1  0
 16 25  1  0
 17 18  1  0
 17 26  1  0
 17 27  1  0
 18 19  1  0
 19 20  1  0
 19 28  1  0
 19 29  1  0
 20 30  1  0
 20 31  1  0
 20 32  1  0
M  RAD  1  15   2
M  END
>  <reaction>  (12) 
rmg_rxn_234

>  <mol_properties>  (12) 
{"0": {"label": "*3", "atom_type": "Cs"}, "1": {"label": "*4", "atom_type": "Cs"}, "14": {"label": "*1", "atom_type": "Cs"}, "15": {"label": "*0", "atom_type": "Cs"}, "20": {"label": "*2", "atom_type": "H0"}}

>  <type>  (12) 
unop_8

>  <geom_source>  (12) 
Heuristics

$$$$

     RDKit          3D

 32 30  0  0  0  0  0  0  0  0999 V2000
   -1.7394    1.3915    1.5918 C   0  0  0  0  0  0  0  0  0  0  0  0
   -1.5041   -0.0913    1.8274 C   0  0  0  0  0  0  0  0  0  0  0  0
   -0.5119   -0.9193    0.5592 S   0  0  0  0  0  0  0  0  0  0  0  0
   -1.5113   -0.6702   -0.9299 C   0  0  0  0  0  0  0  0  0  0  0  0
   -2.9059   -1.2715   -0.8752 C   0  0  0  0  0  0  0  0  0  0  0  0
   -2.3439    1.5632    0.6996 H   0  0  0  0  0  0  0  0  0  0  0  0
   -2.2730    1.8294    2.4383 H   0  0  0  0  0  0  0  0  0  0  0  0
   -2.4498   -0.6213    1.9523 H   0  0  0  0  0  0  0  0  0  0  0  0
   -0.9337   -0.2459    2.7448 H   0  0  0  0  0  0  0  0  0  0  0  0
   -1.5545    0.3947   -1.1645 H   0  0  0  0  0  0  0  0  0  0  0  0
   -0.9232   -1.1422   -1.7188 H   0  0  0  0  0  0  0  0  0  0  0  0
   -3.5220   -0.7830   -0.1184 H   0  0  0  0  0  0  0  0  0  0  0  0
   -3.4093   -1.1485   -1.8367 H   0  0  0  0  0  0  0  0  0  0  0  0
   -2.8623   -2.3356   -0.6406 H   0  0  0  0  0  0  0  0  0  0  0  0
    0.3828    2.5217    0.5507 C   0  0  0  0  0  3  0  0  0  0  0  0
    1.6527    1.8144    1.0051 C   0  0  0  0  0  0  0  0  0  0  0  0
    1.6923    0.3515    0.6132 C   0  0  0  0  0  0  0  0  0  0  0  0
    1.6932    0.2446   -0.7880 O   0  0  0  0  0  0  0  0  0  0  0  0
    1.6932   -1.0840   -1.2444 C   0  0  0  0  0  0  0  0  0  0  0  0
    1.6932   -1.0840   -2.7556 C   0  0  0  0  0  0  0  0  0  0  0  0
   -0.6794    1.9560    1.0718 H   0  0  0  0  0  0  0  0  0  0  0  0
    0.2855    2.4815   -0.5342 H   0  0  0  0  0  0  0  0  0  0  0  0
    0.3868    3.5696    0.8544 H   0  0  0  0  0  0  0  0  0  0  0  0
    1.7478    1.8738    2.0928 H   0  0  0  0  0  0  0  0  0  0  0  0
    2.5303    2.3108    0.5828 H   0  0  0  0  0  0  0  0  0  0  0  0
    0.8183   -0.1748    1.0287 H   0  0  0  0  0  0  0  0  0  0  0  0
    2.5907   -0.1298    1.0267 H   0  0  0  0  0  0  0  0  0  0  0  0
    2.5781   -1.6128   -0.8600 H   0  0  0  0  0  0  0  0  0  0  0  0
    0.8083   -1.6123   -0.8599 H   0  0  0  0  0  0  0  0  0  0  0  0
    2.5773   -0.5725   -3.1377 H   0  0  0  0  0  0  0  0  0  0  0  0
    0.8084   -0.5737   -3.1377 H   0  0  0  0  0  0  0  0  0  0  0  0
    1.6938   -2.1076   -3.1336 H   0  0  0  0  0  0  0  0  0  0  0  0
  1  2  1  0
  1  6  1  0
  1  7  1  0
  1 21  1  0
  2  3  1  0
  2  8  1  0
  2  9  1  0
  3  4  1  0
  4  5  1  0
  4 10  1  0
  4 11  1  0
  5 12  1  0
  5 13  1  0
  5 14  1  0
 15 16  1  0
 15 22  1  0
 15 23  1  0
 16 17  1  0
 16 24  1  0
 16 25  1  0
 17 18  1  0
 17 26  1  0
 17 27  1  0
 18 19  1  0
 19 20  1  0
 19 28  1  0
 19 29  1  0
 20 30  1  0
 20 31  1  0
 20 32  1  0
M  RAD  1  15   2
M  END
>  <reaction>  (13) 
rmg_rxn_234

>  <mol_properties>  (13) 
{"0": {"label": "*3", "atom_type": "Cs"}, "1": {"label": "*4", "atom_type": "Cs"}, "14": {"label": "*1", "atom_type": "Cs"}, "15": {"label": "*0", "atom_type": "Cs"}, "20": {"label": "*2", "atom_type": "H0"}}

>  <type>  (13) 
unop_9

>  <geom_source>  (13) 
Heuristics

$$$$

     RDKit          3D

 32 30  0  0  0  0  0  0  0  0999 V2000
   -1.6237    1.1549    0.1586 C   0  0  0  0  0  0  0  0  0  0  0  0
   -1.5756    1.2051    1.6768 C   0  0  0  0  0  0  0  0  0  0  0  0
   -0.6931   -0.1682    2.4600 S   0  0  0  0  0  0  0  0  0  0  0  0
   -1.6518   -1.6018    1.9085 C   0  0  0  0  0  0  0  0  0  0  0  0
   -3.1107   -1.6008    2.3342 C   0  0  0  0  0  0  0  0  0  0  0  0
   -2.2010    0.2988   -0.1946 H   0  0  0  0  0  0  0  0  0  0  0  0
   -2.0994    2.0558   -0.2352 H   0  0  0  0  0  0  0  0  0  0  0  0
   -2.5802    1.2780    2.0966 H   0  0  0  0  0  0  0  0  0  0  0  0
   -1.0300    2.0888    2.0120 H   0  0  0  0  0  0  0  0  0  0  0  0
   -1.5615   -1.7045    0.8258 H   0  0  0  0  0  0  0  0  0  0  0  0
   -1.1264   -2.4504    2.3496 H   0  0  0  0  0  0  0  0  0  0  0  0
   -3.6619   -0.7816    1.8694 H   0  0  0  0  0  0  0  0  0  0  0  0
   -3.5936   -2.5330    2.0331 H   0  0  0  0  0  0  0  0  0  0  0  0
   -3.2005   -1.4980    3.4162 H   0  0  0  0  0  0  0  0  0  0  0  0
    0.4985    2.2852   -0.8825 C   0  0  0  0  0  3  0  0  0  0  0  0
    1.7684    1.5779   -0.4281 C   0  0  0  0  0  0  0  0  0  0  0  0
    1.8080    0.1150   -0.8200 C   0  0  0  0  0  0  0  0  0  0  0  0
    1.8090    0.0080   -2.2213 O   0  0  0  0  0  0  0  0  0  0  0  0
    1.8090   -1.3206   -2.6776 C   0  0  0  0  0  0  0  0  0  0  0  0
    1.8090   -1.3206   -4.1888 C   0  0  0  0  0  0  0  0  0  0  0  0
   -0.5637    1.7194   -0.3614 H   0  0  0  0  0  0  0  0  0  0  0  0
    0.4013    2.2449   -1.9674 H   0  0  0  0  0  0  0  0  0  0  0  0
    0.5026    3.3330   -0.5788 H   0  0  0  0  0  0  0  0  0  0  0  0
    1.8636    1.6372    0.6596 H   0  0  0  0  0  0  0  0  0  0  0  0
    2.6460    2.0742   -0.8504 H   0  0  0  0  0  0  0  0  0  0  0  0
    0.9340   -0.4114   -0.4046 H   0  0  0  0  0  0  0  0  0  0  0  0
    2.7064   -0.3663   -0.4065 H   0  0  0  0  0  0  0  0  0  0  0  0
    2.6938   -1.8493   -2.2932 H   0  0  0  0  0  0  0  0  0  0  0  0
    0.9240   -1.8488   -2.2931 H   0  0  0  0  0  0  0  0  0  0  0  0
    2.6931   -0.8091   -4.5709 H   0  0  0  0  0  0  0  0  0  0  0  0
    0.9241   -0.8102   -4.5709 H   0  0  0  0  0  0  0  0  0  0  0  0
    1.8096   -2.3441   -4.5669 H   0  0  0  0  0  0  0  0  0  0  0  0
  1  2  1  0
  1  6  1  0
  1  7  1  0
  1 21  1  0
  2  3  1  0
  2  8  1  0
  2  9  1  0
  3  4  1  0
  4  5  1  0
  4 10  1  0
  4 11  1  0
  5 12  1  0
  5 13  1  0
  5 14  1  0
 15 16  1  0
 15 22  1  0
 15 23  1  0
 16 17  1  0
 16 24  1  0
 16 25  1  0
 17 18  1  0
 17 26  1  0
 17 27  1  0
 18 19  1  0
 19 20  1  0
 19 28  1  0
 19 29  1  0
 20 30  1  0
 20 31  1  0
 20 32  1  0
M  RAD  1  15   2
M  END
>  <reaction>  (14) 
rmg_rxn_234

>  <mol_properties>  (14) 
{"0": {"label": "*3", "atom_type": "Cs"}, "1": {"label": "*4", "atom_type": "Cs"}, "14": {"label": "*1", "atom_type": "Cs"}, "15": {"label": "*0", "atom_type": "Cs"}, "20": {"label": "*2", "atom_type": "H0"}}

>  <type>  (14) 
unop_10

>  <geom_source>  (14) 
Heuristics

$$$$

     RDKit          3D

 32 30  0  0  0  0  0  0  0  0999 V2000
   -1.0058   -0.3212    1.5045 C   0  0  0  0  0  0  0  0  0  0  0  0
   -2.2050   -0.1771    0.5822 C   0  0  0  0  0  0  0  0  0  0  0  0
   -2.1527    1.2568   -0.5221 S   0  0  0  0  0  0  0  0  0  0  0  0
   -2.0901    2.6372    0.6479 C   0  0  0  0  0  0  0  0  0  0  0  0
   -3.2809    2.7375    1.5868 C   0  0  0  0  0  0  0  0  0  0  0  0
   -0.9520    0.5002    2.2209 H   0  0  0  0  0  0  0  0  0  0  0  0
   -1.0766   -1.2497    2.0754 H   0  0  0  0  0  0  0  0  0  0  0  0
   -3.1357   -0.1634    1.1517 H   0  0  0  0  0  0  0  0  0  0  0  0
   -2.2662   -1.0272   -0.0994 H   0  0  0  0  0  0  0  0  0  0  0  0
   -1.1543    2.5969    1.2077 H   0  0  0  0  0  0  0  0  0  0  0  0
   -2.0350    3.5184    0.0065 H   0  0  0  0  0  0  0  0  0  0  0  0
   -3.3284    1.8833    2.2643 H   0  0  0  0  0  0  0  0  0  0  0  0
   -3.2047    3.6381    2.2001 H   0  0  0  0  0  0  0  0  0  0  0  0
   -4.2159    2.7777    1.0270 H   0  0  0  0  0  0  0  0  0  0  0  0
    1.1164    0.8090    0.4634 C   0  0  0  0  0  3  0  0  0  0  0  0
    2.3863    0.1018    0.9177 C   0  0  0  0  0  0  0  0  0  0  0  0
    2.4259   -1.3612    0.5259 C   0  0  0  0  0  0  0  0  0  0  0  0
    2.4268   -1.4681   -0.8754 O   0  0  0  0  0  0  0  0  0  0  0  0
    2.4268   -2.7967   -1.3317 C   0  0  0  0  0  0  0  0  0  0  0  0
    2.4268   -2.7967   -2.8429 C   0  0  0  0  0  0  0  0  0  0  0  0
    0.0542    0.2433    0.9845 H   0  0  0  0  0  0  0  0  0  0  0  0
    1.0191    0.7688   -0.6215 H   0  0  0  0  0  0  0  0  0  0  0  0
    1.1204    1.8569    0.7671 H   0  0  0  0  0  0  0  0  0  0  0  0
    2.4814    0.1611    2.0055 H   0  0  0  0  0  0  0  0  0  0  0  0
    3.2638    0.5981    0.4955 H   0  0  0  0  0  0  0  0  0  0  0  0
    1.5519   -1.8875    0.9413 H   0  0  0  0  0  0  0  0  0  0  0  0
    3.3243   -1.8425    0.9394 H   0  0  0  0  0  0  0  0  0  0  0  0
    3.3117   -3.3255   -0.9473 H   0  0  0  0  0  0  0  0  0  0  0  0
    1.5419   -3.3250   -0.9472 H   0  0  0  0  0  0  0  0  0  0  0  0
    3.3109   -2.2852   -3.2250 H   0  0  0  0  0  0  0  0  0  0  0  0
    1.5420   -2.2864   -3.2250 H   0  0  0  0  0  0  0  0  0  0  0  0
    2.4274   -3.8203   -3.2210 H   0  0  0  0  0  0  0  0  0  0  0  0
  1  2  1  0
  1  6  1  0
  1  7  1  0
  1 21  1  0
  2  3  1  0
  2  8  1  0
  2  9  1  0
  3  4  1  0
  4  5  1  0
  4 10  1  0
  4 11  1  0
  5 12  1  0
  5 13  1  0
  5 14  1  0
 15 16  1  0
 15 22  1  0
 15 23  1  0
 16 17  1  0
 16 24  1  0
 16 25  1  0
 17 18  1  0
 17 26  1  0
 17 27  1  0
 18 19  1  0
 19 20  1  0
 19 28  1  0
 19 29  1  0
 20 30  1  0
 20 31  1  0
 20 32  1  0
M  RAD  1  15   2
M  END
>  <reaction>  (15) 
rmg_rxn_234

>  <mol_properties>  (15) 
{"0": {"label": "*3", "atom_type": "Cs"}, "1": {"label": "*4", "atom_type": "Cs"}, "14": {"label": "*1", "atom_type": "Cs"}, "15": {"label": "*0", "atom_type": "Cs"}, "20": {"label": "*2", "atom_type": "H0"}}

>  <type>  (15) 
unop_11

>  <geom_source>  (15) 
Heuristics

$$$$

     RDKit          3D

 32 30  0  0  0  0  0  0  0  0999 V2000
   -1.8078    1.5418    1.1011 C   0  0  0  0  0  0  0  0  0  0  0  0
   -1.4191    0.3685    1.9852 C   0  0  0  0  0  0  0  0  0  0  0  0
   -0.3985   -0.8914    1.1793 S   0  0  0  0  0  0  0  0  0  0  0  0
   -1.4726   -1.4481   -0.1678 C   0  0  0  0  0  0  0  0  0  0  0  0
   -2.7983   -2.0460    0.2734 C   0  0  0  0  0  0  0  0  0  0  0  0
   -2.4592    1.2276    0.2839 H   0  0  0  0  0  0  0  0  0  0  0  0
   -2.3498    2.2909    1.6826 H   0  0  0  0  0  0  0  0  0  0  0  0
   -2.3027   -0.1026    2.4189 H   0  0  0  0  0  0  0  0  0  0  0  0
   -0.8023    0.7074    2.8192 H   0  0  0  0  0  0  0  0  0  0  0  0
   -1.6292   -0.6278   -0.8703 H   0  0  0  0  0  0  0  0  0  0  0  0
   -0.8710   -2.1960   -0.6870 H   0  0  0  0  0  0  0  0  0  0  0  0
   -3.4307   -1.3007    0.7589 H   0  0  0  0  0  0  0  0  0  0  0  0
   -3.3470   -2.4289   -0.5899 H   0  0  0  0  0  0  0  0  0  0  0  0
   -2.6414   -2.8656    0.9755 H   0  0  0  0  0  0  0  0  0  0  0  0
    0.3144    2.6721    0.0599 C   0  0  0  0  0  3  0  0  0  0  0  0
    1.5843    1.9648    0.5143 C   0  0  0  0  0  0  0  0  0  0  0  0
    1.6239    0.5019    0.1224 C   0  0  0  0  0  0  0  0  0  0  0  0
    1.6249    0.3950   -1.2788 O   0  0  0  0  0  0  0  0  0  0  0  0
    1.6249   -0.9337   -1.7352 C   0  0  0  0  0  0  0  0  0  0  0  0
    1.6249   -0.9337   -3.2463 C   0  0  0  0  0  0  0  0  0  0  0  0
   -0.7478    2.1063    0.5811 H   0  0  0  0  0  0  0  0  0  0  0  0
    0.2172    2.6318   -1.0249 H   0  0  0  0  0  0  0  0  0  0  0  0
    0.3185    3.7199    0.3636 H   0  0  0  0  0  0  0  0  0  0  0  0
    1.6794    2.0242    1.6021 H   0  0  0  0  0  0  0  0  0  0  0  0
    2.4619    2.4611    0.0920 H   0  0  0  0  0  0  0  0  0  0  0  0
    0.7499   -0.0244    0.5379 H   0  0  0  0  0  0  0  0  0  0  0  0
    2.5223    0.0206    0.5360 H   0  0  0  0  0  0  0  0  0  0  0  0
    2.5097   -1.4624   -1.3508 H   0  0  0  0  0  0  0  0  0  0  0  0
    0.7399   -1.4619   -1.3507 H   0  0  0  0  0  0  0  0  0  0  0  0
    2.5090   -0.4222   -3.6285 H   0  0  0  0  0  0  0  0  0  0  0  0
    0.7400   -0.4233   -3.6285 H   0  0  0  0  0  0  0  0  0  0  0  0
    1.6255   -1.9572   -3.6244 H   0  0  0  0  0  0  0  0  0  0  0  0
  1  2  1  0
  1  6  1  0
  1  7  1  0
  1 21  1  0
  2  3  1  0
  2  8  1  0
  2  9  1  0
  3  4  1  0
  4  5  1  0
  4 10  1  0
  4 11  1  0
  5 12  1  0
  5 13  1  0
  5 14  1  0
 15 16  1  0
 15 22  1  0
 15 23  1  0
 16 17  1  0
 16 24  1  0
 16 25  1  0
 17 18  1  0
 17 26  1  0
 17 27  1  0
 18 19  1  0
 19 20  1  0
 19 28  1  0
 19 29  1  0
 20 30  1  0
 20 31  1  0
 20 32  1  0
M  RAD  1  15   2
M  END
>  <reaction>  (16) 
rmg_rxn_234

>  <mol_properties>  (16) 
{"0": {"label": "*3", "atom_type": "Cs"}, "1": {"label": "*4", "atom_type": "Cs"}, "14": {"label": "*1", "atom_type": "Cs"}, "15": {"label": "*0", "atom_type": "Cs"}, "20": {"label": "*2", "atom_type": "H0"}}

>  <type>  (16) 
unop_12

>  <geom_source>  (16) 
Heuristics

$$$$

     RDKit          3D

 32 30  0  0  0  0  0  0  0  0999 V2000
   -3.4012   -1.0981    0.0155 S   0  0  0  0  0  0  0  0  0  0  0  0
    3.2420    0.1642    0.5641 O   0  0  0  0  0  0  0  0  0  0  0  0
    1.6660   -1.6214    0.7926 C   0  0  0  0  0  0  0  0  0  0  0  0
    2.0075   -0.3174    0.0769 C   0  0  0  0  0  0  0  0  0  0  0  0
   -4.6219    0.2520    0.1853 C   0  0  0  0  0  0  0  0  0  0  0  0
   -2.3352   -0.2427   -1.1946 C   0  0  0  0  0  0  0  0  0  0  0  0
    3.5675    1.3721   -0.0900 C   0  0  0  0  0  0  0  0  0  0  0  0
   -4.1875    1.2405    1.2596 C   0  0  0  0  0  0  0  0  0  0  0  0
   -1.1485   -1.1248   -1.5467 C   0  0  0  0  0  0  0  0  0  0  0  0
    4.8981    1.8837    0.4402 C   0  0  0  0  0  0  0  0  0  0  0  0
    0.3275   -2.1676    0.3138 C   0  0  0  0  0  3  0  0  0  0  0  0
    2.4611   -2.3744    0.6010 H   0  0  0  0  0  0  0  0  0  0  0  0
    1.6084   -1.4364    1.8869 H   0  0  0  0  0  0  0  0  0  0  0  0
   -4.7740    0.7795   -0.7803 H   0  0  0  0  0  0  0  0  0  0  0  0
   -5.5926   -0.1961    0.4847 H   0  0  0  0  0  0  0  0  0  0  0  0
   -2.9145   -0.0256   -2.1172 H   0  0  0  0  0  0  0  0  0  0  0  0
   -1.9609    0.7095   -0.7652 H   0  0  0  0  0  0  0  0  0  0  0  0
    2.7935    2.1493    0.1044 H   0  0  0  0  0  0  0  0  0  0  0  0
    3.6682    1.2137   -1.1881 H   0  0  0  0  0  0  0  0  0  0  0  0
    1.1943    0.4191    0.2744 H   0  0  0  0  0  0  0  0  0  0  0  0
    2.0707   -0.5179   -1.0179 H   0  0  0  0  0  0  0  0  0  0  0  0
   -4.0501    0.7156    2.2287 H   0  0  0  0  0  0  0  0  0  0  0  0
   -4.9680    2.0203    1.3841 H   0  0  0  0  0  0  0  0  0  0  0  0
   -3.2365    1.7350    0.9737 H   0  0  0  0  0  0  0  0  0  0  0  0
   -0.4972   -0.6013   -2.2779 H   0  0  0  0  0  0  0  0  0  0  0  0
   -1.4995   -2.0777   -1.9967 H   0  0  0  0  0  0  0  0  0  0  0  0
   -0.4418   -1.3884   -0.4529 H   0  0  0  0  0  0  0  0  0  0  0  0
    5.6968    1.1362    0.2475 H   0  0  0  0  0  0  0  0  0  0  0  0
    5.1646    2.8345   -0.0678 H   0  0  0  0  0  0  0  0  0  0  0  0
    4.8265    2.0670    1.5334 H   0  0  0  0  0  0  0  0  0  0  0  0
    0.0594   -3.0756    0.8939 H   0  0  0  0  0  0  0  0  0  0  0  0
    0.3773   -2.4272   -0.7652 H   0  0  0  0  0  0  0  0  0  0  0  0
  1  5  1  0
  1  6  1  0
  2  7  1  0
  2  4  1  0
  3 11  1  0
  3  4  1  0
  3 12  1  0
  3 13  1  0
  4 20  1  0
  4 21  1  0
  5  8  1  0
  5 14  1  0
  5 15  1  0
  6  9  1  0
  6 16  1  0
  6 17  1  0
  7 10  1  0
  7 18  1  0
  7 19  1  0
  8 22  1  0
  8 23  1  0
  8 24  1  0
  9 25  1  0
  9 26  1  0
  9 27  1  0
 10 28  1  0
 10 29  1  0
 10 30  1  0
 11 31  1  0
 11 32  1  0
M  RAD  1  11   2
M  END
>  <reaction>  (17) 
rmg_rxn_234

>  <mol_properties>  (17) 
{"0": {"label": "*3", "atom_type": "Cs"}, "1": {"label": "*4", "atom_type": "Cs"}, "14": {"label": "*1", "atom_type": "Cs"}, "15": {"label": "*0", "atom_type": "Cs"}, "20": {"label": "*2", "atom_type": "H0"}}

>  <type>  (17) 
unop_13

>  <geom_source>  (17) 
AutoTST

$$$$

     RDKit          3D

 32 30  0  0  0  0  0  0  0  0999 V2000
   -1.7662    1.4555    0.5666 C   0  0  0  0  0  0  0  0  0  0  0  0
   -1.4461    0.8433    1.9202 C   0  0  0  0  0  0  0  0  0  0  0  0
   -0.4586   -0.6731    1.8595 S   0  0  0  0  0  0  0  0  0  0  0  0
   -1.5223   -1.7832    0.9033 C   0  0  0  0  0  0  0  0  0  0  0  0
   -2.8811   -2.0629    1.5239 C   0  0  0  0  0  0  0  0  0  0  0  0
   -2.4105    0.8027   -0.0248 H   0  0  0  0  0  0  0  0  0  0  0  0
   -2.2910    2.4048    0.6949 H   0  0  0  0  0  0  0  0  0  0  0  0
   -2.3579    0.6604    2.4911 H   0  0  0  0  0  0  0  0  0  0  0  0
   -0.8358    1.5267    2.5130 H   0  0  0  0  0  0  0  0  0  0  0  0
   -1.6291   -1.3985   -0.1123 H   0  0  0  0  0  0  0  0  0  0  0  0
   -0.9394   -2.7029    0.8314 H   0  0  0  0  0  0  0  0  0  0  0  0
   -3.4941   -1.1610    1.5663 H   0  0  0  0  0  0  0  0  0  0  0  0
   -3.4244   -2.8005    0.9292 H   0  0  0  0  0  0  0  0  0  0  0  0
   -2.7739   -2.4471    2.5389 H   0  0  0  0  0  0  0  0  0  0  0  0
    0.3560    2.5858   -0.4746 C   0  0  0  0  0  3  0  0  0  0  0  0
    1.6259    1.8785   -0.0202 C   0  0  0  0  0  0  0  0  0  0  0  0
    1.6655    0.4156   -0.4121 C   0  0  0  0  0  0  0  0  0  0  0  0
    1.6664    0.3087   -1.8133 O   0  0  0  0  0  0  0  0  0  0  0  0
    1.6664   -1.0200   -2.2697 C   0  0  0  0  0  0  0  0  0  0  0  0
    1.6664   -1.0200   -3.7808 C   0  0  0  0  0  0  0  0  0  0  0  0
   -0.7063    2.0200    0.0466 H   0  0  0  0  0  0  0  0  0  0  0  0
    0.2587    2.5455   -1.5594 H   0  0  0  0  0  0  0  0  0  0  0  0
    0.3600    3.6336   -0.1709 H   0  0  0  0  0  0  0  0  0  0  0  0
    1.7210    1.9379    1.0676 H   0  0  0  0  0  0  0  0  0  0  0  0
    2.5034    2.3749   -0.4425 H   0  0  0  0  0  0  0  0  0  0  0  0
    0.7915   -0.1107    0.0034 H   0  0  0  0  0  0  0  0  0  0  0  0
    2.5639   -0.0657    0.0015 H   0  0  0  0  0  0  0  0  0  0  0  0
    2.5513   -1.5487   -1.8853 H   0  0  0  0  0  0  0  0  0  0  0  0
    0.7814   -1.5482   -1.8852 H   0  0  0  0  0  0  0  0  0  0  0  0
    2.5505   -0.5085   -4.1630 H   0  0  0  0  0  0  0  0  0  0  0  0
    0.7816   -0.5096   -4.1630 H   0  0  0  0  0  0  0  0  0  0  0  0
    1.6670   -2.0435   -4.1589 H   0  0  0  0  0  0  0  0  0  0  0  0
  1  2  1  0
  1  6  1  0
  1  7  1  0
  1 21  1  0
  2  3  1  0
  2  8  1  0
  2  9  1  0
  3  4  1  0
  4  5  1  0
  4 10  1  0
  4 11  1  0
  5 12  1  0
  5 13  1  0
  5 14  1  0
 15 16  1  0
 15 22  1  0
 15 23  1  0
 16 17  1  0
 16 24  1  0
 16 25  1  0
 17 18  1  0
 17 26  1  0
 17 27  1  0
 18 19  1  0
 19 20  1  0
 19 28  1  0
 19 29  1  0
 20 30  1  0
 20 31  1  0
 20 32  1  0
M  RAD  1  15   2
M  END
>  <reaction>  (18) 
rmg_rxn_234

>  <mol_properties>  (18) 
{"0": {"label": "*3", "atom_type": "Cs"}, "1": {"label": "*4", "atom_type": "Cs"}, "14": {"label": "*1", "atom_type": "Cs"}, "15": {"label": "*0", "atom_type": "Cs"}, "20": {"label": "*2", "atom_type": "H0"}}

>  <type>  (18) 
unop_14

>  <geom_source>  (18) 
gaussian_log

$$$$
