
     RDKit          3D

  6  5  0  0  0  0  0  0  0  0999 V2000
   -0.4901    0.0045    0.0014 C   0  0  0  0  0  0  0  0  0  0  0  0
    0.9645   -0.0089   -0.0027 C   0  0  0  0  0  0  0  0  0  0  0  0
    2.1108   -0.0195   -0.0059 N   0  0  0  0  0  0  0  0  0  0  0  0
   -0.8700   -0.6407   -0.7900 H   0  0  0  0  0  0  0  0  0  0  0  0
   -0.8625   -0.3540    0.9604 H   0  0  0  0  0  0  0  0  0  0  0  0
   -0.8530    1.0185   -0.1631 H   0  0  0  0  0  0  0  0  0  0  0  0
  1  2  1  0
  1  4  1  0
  1  5  1  0
  1  6  1  0
  2  3  3  0
M  END
>  <reaction>  (1) 
rmg_rxn_504

>  <mol_properties>  (1) 
{"0": {"label": "donator", "atom_type": "Cs"}, "3": {"label": "d_hydrogen", "atom_type": "H0"}}

>  <type>  (1) 
r1h

$$$$

     RDKit          3D

 10  9  0  0  0  0  0  0  0  0999 V2000
    1.4352    0.2660   -0.1351 C   0  0  0  0  0  3  0  0  0  0  0  0
    0.2236   -0.3243    0.4850 C   0  0  0  0  0  0  0  0  0  0  0  0
   -0.8893    0.6872    0.7364 C   0  0  0  0  0  0  0  0  0  0  0  0
    2.3577   -0.2958   -0.1940 H   0  0  0  0  0  0  0  0  0  0  0  0
    1.3935    1.2286   -0.6287 H   0  0  0  0  0  0  0  0  0  0  0  0
   -0.1633   -1.1318   -0.1556 H   0  0  0  0  0  0  0  0  0  0  0  0
    0.4945   -0.8215    1.4240 H   0  0  0  0  0  0  0  0  0  0  0  0
   -1.1991    1.1627   -0.1967 H   0  0  0  0  0  0  0  0  0  0  0  0
   -1.7660    0.2103    1.1768 H   0  0  0  0  0  0  0  0  0  0  0  0
   -0.5545    1.4732    1.4159 H   0  0  0  0  0  0  0  0  0  0  0  0
  1  2  1  0
  1  4  1  0
  1  5  1  0
  2  3  1  0
  2  6  1  0
  2  7  1  0
  3  8  1  0
  3  9  1  0
  3 10  1  0
M  RAD  1   1   2
M  END
>  <reaction>  (2) 
rmg_rxn_504

>  <mol_properties>  (2) 
{"0": {"label": "acceptor", "atom_type": "Cs"}}

>  <type>  (2) 
r2

$$$$

     RDKit          3D

 11 10  0  0  0  0  0  0  0  0999 V2000
   -1.2710    0.1907   -0.2084 C   0  0  0  0  0  0  0  0  0  0  0  0
    0.0202   -0.6130   -0.2928 C   0  0  0  0  0  0  0  0  0  0  0  0
    0.1086   -1.6953    0.7756 C   0  0  0  0  0  0  0  0  0  0  0  0
   -1.3607    0.6851    0.7620 H   0  0  0  0  0  0  0  0  0  0  0  0
   -2.1429   -0.4567   -0.3299 H   0  0  0  0  0  0  0  0  0  0  0  0
   -1.3158    0.9602   -0.9809 H   0  0  0  0  0  0  0  0  0  0  0  0
    0.8757    0.0616   -0.1992 H   0  0  0  0  0  0  0  0  0  0  0  0
    0.0997   -1.0712   -1.2825 H   0  0  0  0  0  0  0  0  0  0  0  0
   -0.7198   -2.4022    0.6850 H   0  0  0  0  0  0  0  0  0  0  0  0
    1.0395   -2.2596    0.6989 H   0  0  0  0  0  0  0  0  0  0  0  0
    0.0624   -1.2603    1.7770 H   0  0  0  0  0  0  0  0  0  0  0  0
  1  2  1  0
  1  4  1  0
  1  5  1  0
  1  6  1  0
  2  3  1  0
  2  7  1  0
  2  8  1  0
  3  9  1  0
  3 10  1  0
  3 11  1  0
M  END
>  <reaction>  (3) 
rmg_rxn_504

>  <mol_properties>  (3) 
{"0": {"label": "a_hydrogen", "atom_type": "H0"}, "1": {"label": "acceptor", "atom_type": "Cs"}}

>  <type>  (3) 
r2h

$$$$

     RDKit          3D

 16 14  0  0  0  0  0  0  0  0999 V2000
    1.1676    1.0906    0.6639 C   0  0  0  0  0  0  0  0  0  0  0  0
    0.7877    1.4244   -0.6693 C   0  0  0  0  0  0  0  0  0  0  0  0
    0.4241    1.6566   -1.7370 N   0  0  0  0  0  0  0  0  0  0  0  0
    0.1605    0.3706    1.1720 H   0  0  0  0  0  0  0  0  0  0  0  0
    2.0283    0.4306    0.7201 H   0  0  0  0  0  0  0  0  0  0  0  0
    1.2441    1.9484    1.3256 H   0  0  0  0  0  0  0  0  0  0  0  0
   -0.9019   -0.3484    1.5967 C   0  0  0  0  0  3  0  0  0  0  0  0
   -1.4950   -0.9615    0.3592 C   0  0  0  0  0  0  0  0  0  0  0  0
   -0.5756   -1.9763   -0.3084 C   0  0  0  0  0  0  0  0  0  0  0  0
   -1.5103    0.4075    2.0892 H   0  0  0  0  0  0  0  0  0  0  0  0
   -0.4558   -1.0490    2.3018 H   0  0  0  0  0  0  0  0  0  0  0  0
   -2.4420   -1.4458    0.6277 H   0  0  0  0  0  0  0  0  0  0  0  0
   -1.7528   -0.1718   -0.3518 H   0  0  0  0  0  0  0  0  0  0  0  0
   -0.3160   -2.7834    0.3805 H   0  0  0  0  0  0  0  0  0  0  0  0
   -1.0505   -2.4196   -1.1839 H   0  0  0  0  0  0  0  0  0  0  0  0
    0.3512   -1.5055   -0.6422 H   0  0  0  0  0  0  0  0  0  0  0  0
  1  2  1  0
  1  4  1  0
  1  5  1  0
  1  6  1  0
  2  3  3  0
  7  8  1  0
  7 10  1  0
  7 11  1  0
  8  9  1  0
  8 12  1  0
  8 13  1  0
  9 14  1  0
  9 15  1  0
  9 16  1  0
M  RAD  1   7   2
M  END
>  <reaction>  (4) 
rmg_rxn_504

>  <mol_properties>  (4) 
{"0": {"label": "*1", "atom_type": "Cs"}, "1": {"label": "*0", "atom_type": "Ct"}, "3": {"label": "*2", "atom_type": "H0"}, "6": {"label": "*3", "atom_type": "Cs"}, "7": {"label": "*4", "atom_type": "Cs"}}

>  <type>  (4) 
ts

$$$$

     RDKit          3D

 16 14  0  0  0  0  0  0  0  0999 V2000
    0.5408    1.1327   -0.2300 C   0  0  0  0  0  0  0  0  0  0  0  0
    0.5408    1.1327   -1.6847 C   0  0  0  0  0  0  0  0  0  0  0  0
    0.5408    1.1327   -2.8311 N   0  0  0  0  0  0  0  0  0  0  0  0
   -0.4122    0.3569    0.2161 H   0  0  0  0  0  0  0  0  0  0  0  0
    1.4978    0.7682    0.1417 H   0  0  0  0  0  0  0  0  0  0  0  0
    0.3780    2.1438    0.1417 H   0  0  0  0  0  0  0  0  0  0  0  0
   -1.3681   -0.4213    0.6635 C   0  0  0  0  0  3  0  0  0  0  0  0
   -0.7990   -1.5467    1.5179 C   0  0  0  0  0  0  0  0  0  0  0  0
    0.5975   -1.2370    2.0417 C   0  0  0  0  0  0  0  0  0  0  0  0
   -2.3679   -0.6614    0.2979 H   0  0  0  0  0  0  0  0  0  0  0  0
   -1.4349    0.5077    1.2350 H   0  0  0  0  0  0  0  0  0  0  0  0
   -1.4694   -1.7388    2.3603 H   0  0  0  0  0  0  0  0  0  0  0  0
   -0.7718   -2.4700    0.9327 H   0  0  0  0  0  0  0  0  0  0  0  0
    0.5927   -0.3338    2.6567 H   0  0  0  0  0  0  0  0  0  0  0  0
    0.9878   -2.0540    2.6509 H   0  0  0  0  0  0  0  0  0  0  0  0
    1.2958   -1.0707    1.2178 H   0  0  0  0  0  0  0  0  0  0  0  0
  1  2  1  0
  1  4  1  0
  1  5  1  0
  1  6  1  0
  2  3  3  0
  7  8  1  0
  7 10  1  0
  7 11  1  0
  8  9  1  0
  8 12  1  0
  8 13  1  0
  9 14  1  0
  9 15  1  0
  9 16  1  0
M  RAD  1   7   2
M  END
>  <reaction>  (5) 
rmg_rxn_504

>  <mol_properties>  (5) 
{"0": {"label": "*1", "atom_type": "Cs"}, "1": {"label": "*0", "atom_type": "Ct"}, "3": {"label": "*2", "atom_type": "H0"}, "6": {"label": "*3", "atom_type": "Cs"}, "7": {"label": "*4", "atom_type": "Cs"}}

>  <type>  (5) 
unop_1

>  <geom_source>  (5) 
Heuristics

$$$$

     RDKit          3D

 16 14  0  0  0  0  0  0  0  0999 V2000
    0.8522    1.3079    0.6016 C   0  0  0  0  0  0  0  0  0  0  0  0
    0.8522    1.3079   -0.8530 C   0  0  0  0  0  0  0  0  0  0  0  0
    0.8522    1.3079   -1.9995 N   0  0  0  0  0  0  0  0  0  0  0  0
   -0.1008    0.5321    1.0477 H   0  0  0  0  0  0  0  0  0  0  0  0
    1.8092    0.9434    0.9733 H   0  0  0  0  0  0  0  0  0  0  0  0
    0.6894    2.3190    0.9733 H   0  0  0  0  0  0  0  0  0  0  0  0
   -1.0567   -0.2460    1.4951 C   0  0  0  0  0  3  0  0  0  0  0  0
   -1.3306   -1.3863    0.5228 C   0  0  0  0  0  0  0  0  0  0  0  0
   -0.0540   -1.9864   -0.0523 C   0  0  0  0  0  0  0  0  0  0  0  0
   -1.9823    0.1704    1.8960 H   0  0  0  0  0  0  0  0  0  0  0  0
   -0.4511   -0.5883    2.3379 H   0  0  0  0  0  0  0  0  0  0  0  0
   -1.9037   -2.1674    1.0300 H   0  0  0  0  0  0  0  0  0  0  0  0
   -1.9627   -1.0250   -0.2931 H   0  0  0  0  0  0  0  0  0  0  0  0
    0.5831   -2.3835    0.7417 H   0  0  0  0  0  0  0  0  0  0  0  0
   -0.2706   -2.8007   -0.7457 H   0  0  0  0  0  0  0  0  0  0  0  0
    0.5236   -1.2320   -0.5919 H   0  0  0  0  0  0  0  0  0  0  0  0
  1  2  1  0
  1  4  1  0
  1  5  1  0
  1  6  1  0
  2  3  3  0
  7  8  1  0
  7 10  1  0
  7 11  1  0
  8  9  1  0
  8 12  1  0
  8 13  1  0
  9 14  1  0
  9 15  1  0
  9 16  1  0
M  RAD  1   7   2
M  END
>  <reaction>  (6) 
rmg_rxn_504

>  <mol_properties>  (6) 
{"0": {"label": "*1", "atom_type": "Cs"}, "1": {"label": "*0", "atom_type": "Ct"}, "3": {"label": "*2", "atom_type": "H0"}, "6": {"label": "*3", "atom_type": "Cs"}, "7": {"label": "*4", "atom_type": "Cs"}}

>  <type>  (6) 
unop_2

>  <geom_source>  (6) 
Heuristics

$$$$

     RDKit          3D

 16 14  0  0  0  0  0  0  0  0999 V2000
    0.6987    0.8471   -0.4498 C   0  0  0  0  0  0  0  0  0  0  0  0
    0.6987    0.8471   -1.9044 C   0  0  0  0  0  0  0  0  0  0  0  0
    0.6987    0.8471   -3.0508 N   0  0  0  0  0  0  0  0  0  0  0  0
   -0.2543    0.0713   -0.0037 H   0  0  0  0  0  0  0  0  0  0  0  0
    1.6558    0.4826   -0.0781 H   0  0  0  0  0  0  0  0  0  0  0  0
    0.5360    1.8582   -0.0781 H   0  0  0  0  0  0  0  0  0  0  0  0
   -1.2102   -0.7069    0.4438 C   0  0  0  0  0  3  0  0  0  0  0  0
   -0.8320   -1.3163    1.7877 C   0  0  0  0  0  0  0  0  0  0  0  0
    0.0669   -0.4047    2.6132 C   0  0  0  0  0  0  0  0  0  0  0  0
   -1.8536   -1.3739   -0.1324 H   0  0  0  0  0  0  0  0  0  0  0  0
   -1.7429    0.2376    0.5791 H   0  0  0  0  0  0  0  0  0  0  0  0
   -1.7402   -1.5415    2.3537 H   0  0  0  0  0  0  0  0  0  0  0  0
   -0.3287   -2.2733    1.6247 H   0  0  0  0  0  0  0  0  0  0  0  0
   -0.4255    0.5493    2.8169 H   0  0  0  0  0  0  0  0  0  0  0  0
    0.3267   -0.8580    3.5713 H   0  0  0  0  0  0  0  0  0  0  0  0
    0.9971   -0.1883    2.0821 H   0  0  0  0  0  0  0  0  0  0  0  0
  1  2  1  0
  1  4  1  0
  1  5  1  0
  1  6  1  0
  2  3  3  0
  7  8  1  0
  7 10  1  0
  7 11  1  0
  8  9  1  0
  8 12  1  0
  8 13  1  0
  9 14  1  0
  9 15  1  0
  9 16  1  0
M  RAD  1   7   2
M  END
>  <reaction>  (7) 
rmg_rxn_504

>  <mol_properties>  (7) 
{"0": {"label": "*1", "atom_type": "Cs"}, "1": {"label": "*0", "atom_type": "Ct"}, "3": {"label": "*2", "atom_type": "H0"}, "6": {"label": "*3", "atom_type": "Cs"}, "7": {"label": "*4", "atom_type": "Cs"}}

>  <type>  (7) 
unop_3

>  <geom_source>  (7) 
Heuristics

$$$$

     RDKit          3D

 16 14  0  0  0  0  0  0  0  0999 V2000
    1.5341    0.7506    0.5617 C   0  0  0  0  0  0  0  0  0  0  0  0
    1.5341    0.7506   -0.8930 C   0  0  0  0  0  0  0  0  0  0  0  0
    1.5341    0.7506   -2.0394 N   0  0  0  0  0  0  0  0  0  0  0  0
    0.5811   -0.0252    1.0078 H   0  0  0  0  0  0  0  0  0  0  0  0
    2.4911    0.3861    0.9334 H   0  0  0  0  0  0  0  0  0  0  0  0
    1.3713    1.7617    0.9334 H   0  0  0  0  0  0  0  0  0  0  0  0
   -0.3748   -0.8033    1.4552 C   0  0  0  0  0  3  0  0  0  0  0  0
   -1.7378   -0.3243    0.9724 C   0  0  0  0  0  0  0  0  0  0  0  0
   -2.1565   -0.9732   -0.3407 C   0  0  0  0  0  0  0  0  0  0  0  0
   -0.0926   -0.3278    2.3960 H   0  0  0  0  0  0  0  0  0  0  0  0
   -0.3743   -1.8845    1.6133 H   0  0  0  0  0  0  0  0  0  0  0  0
   -2.4897   -0.5342    1.7382 H   0  0  0  0  0  0  0  0  0  0  0  0
   -1.7200    0.7625    0.8519 H   0  0  0  0  0  0  0  0  0  0  0  0
   -2.2121   -2.0597   -0.2392 H   0  0  0  0  0  0  0  0  0  0  0  0
   -3.1344   -0.6178   -0.6699 H   0  0  0  0  0  0  0  0  0  0  0  0
   -1.4364   -0.7528   -1.1324 H   0  0  0  0  0  0  0  0  0  0  0  0
  1  2  1  0
  1  4  1  0
  1  5  1  0
  1  6  1  0
  2  3  3  0
  7  8  1  0
  7 10  1  0
  7 11  1  0
  8  9  1  0
  8 12  1  0
  8 13  1  0
  9 14  1  0
  9 15  1  0
  9 16  1  0
M  RAD  1   7   2
M  END
>  <reaction>  (8) 
rmg_rxn_504

>  <mol_properties>  (8) 
{"0": {"label": "*1", "atom_type": "Cs"}, "1": {"label": "*0", "atom_type": "Ct"}, "3": {"label": "*2", "atom_type": "H0"}, "6": {"label": "*3", "atom_type": "Cs"}, "7": {"label": "*4", "atom_type": "Cs"}}

>  <type>  (8) 
unop_4

>  <geom_source>  (8) 
Heuristics

$$$$

     RDKit          3D

 16 14  0  0  0  0  0  0  0  0999 V2000
    1.0363    0.5636   -0.4684 C   0  0  0  0  0  0  0  0  0  0  0  0
    1.0363    0.5636   -1.9230 C   0  0  0  0  0  0  0  0  0  0  0  0
    1.0363    0.5636   -3.0695 N   0  0  0  0  0  0  0  0  0  0  0  0
    0.0832   -0.2122   -0.0223 H   0  0  0  0  0  0  0  0  0  0  0  0
    1.9933    0.1991   -0.0967 H   0  0  0  0  0  0  0  0  0  0  0  0
    0.8735    1.5747   -0.0967 H   0  0  0  0  0  0  0  0  0  0  0  0
   -0.8726   -0.9904    0.4251 C   0  0  0  0  0  3  0  0  0  0  0  0
   -0.8931   -1.0071    1.9482 C   0  0  0  0  0  0  0  0  0  0  0  0
   -1.1183    0.3754    2.5472 C   0  0  0  0  0  0  0  0  0  0  0  0
   -0.7104   -1.9886    0.0152 H   0  0  0  0  0  0  0  0  0  0  0  0
   -1.8176   -0.6141    0.0258 H   0  0  0  0  0  0  0  0  0  0  0  0
   -1.6775   -1.6859    2.2943 H   0  0  0  0  0  0  0  0  0  0  0  0
    0.0503   -1.4158    2.3205 H   0  0  0  0  0  0  0  0  0  0  0  0
   -2.0711    0.7946    2.2147 H   0  0  0  0  0  0  0  0  0  0  0  0
   -1.1298    0.3430    3.6379 H   0  0  0  0  0  0  0  0  0  0  0  0
   -0.3295    1.0669    2.2412 H   0  0  0  0  0  0  0  0  0  0  0  0
  1  2  1  0
  1  4  1  0
  1  5  1  0
  1  6  1  0
  2  3  3  0
  7  8  1  0
  7 10  1  0
  7 11  1  0
  8  9  1  0
  8 12  1  0
  8 13  1  0
  9 14  1  0
  9 15  1  0
  9 16  1  0
M  RAD  1   7   2
M  END
>  <reaction>  (9) 
rmg_rxn_504

>  <mol_properties>  (9) 
{"0": {"label": "*1", "atom_type": "Cs"}, "1": {"label": "*0", "atom_type": "Ct"}, "3": {"label": "*2", "atom_type": "H0"}, "6": {"label": "*3", "atom_type": "Cs"}, "7": {"label": "*4", "atom_type": "Cs"}}

>  <type>  (9) 
unop_5

>  <geom_source>  (9) 
Heuristics

$$$$

     RDKit          3D

 16 14  0  0  0  0  0  0  0  0999 V2000
    1.6055    0.5641    0.3021 C   0  0  0  0  0  0  0  0  0  0  0  0
    1.6055    0.5641   -1.1525 C   0  0  0  0  0  0  0  0  0  0  0  0
    1.6055    0.5641   -2.2990 N   0  0  0  0  0  0  0  0  0  0  0  0
    0.6525   -0.2117    0.7482 H   0  0  0  0  0  0  0  0  0  0  0  0
    2.5625    0.1996    0.6738 H   0  0  0  0  0  0  0  0  0  0  0  0
    1.4427    1.5752    0.6738 H   0  0  0  0  0  0  0  0  0  0  0  0
   -0.3034   -0.9898    1.1956 C   0  0  0  0  0  3  0  0  0  0  0  0
   -1.5986   -0.2097    1.3815 C   0  0  0  0  0  0  0  0  0  0  0  0
   -2.5646   -0.3907    0.2176 C   0  0  0  0  0  0  0  0  0  0  0  0
    0.3750   -0.8477    2.0386 H   0  0  0  0  0  0  0  0  0  0  0  0
   -0.5021   -2.0603    1.1028 H   0  0  0  0  0  0  0  0  0  0  0  0
   -2.0835   -0.5250    2.3095 H   0  0  0  0  0  0  0  0  0  0  0  0
   -1.3694    0.8527    1.5025 H   0  0  0  0  0  0  0  0  0  0  0  0
   -2.8346   -1.4423    0.0939 H   0  0  0  0  0  0  0  0  0  0  0  0
   -3.4854    0.1752    0.3689 H   0  0  0  0  0  0  0  0  0  0  0  0
   -2.1148   -0.0537   -0.7195 H   0  0  0  0  0  0  0  0  0  0  0  0
  1  2  1  0
  1  4  1  0
  1  5  1  0
  1  6  1  0
  2  3  3  0
  7  8  1  0
  7 10  1  0
  7 11  1  0
  8  9  1  0
  8 12  1  0
  8 13  1  0
  9 14  1  0
  9 15  1  0
  9 16  1  0
M  RAD  1   7   2
M  END
>  <reaction>  (10) 
rmg_rxn_504

>  <mol_properties>  (10) 
{"0": {"label": "*1", "atom_type": "Cs"}, "1": {"label": "*0", "atom_type": "Ct"}, "3": {"label": "*2", "atom_type": "H0"}, "6": {"label": "*3", "atom_type": "Cs"}, "7": {"label": "*4", "atom_type": "Cs"}}

>  <type>  (10) 
unop_6

>  <geom_source>  (10) 
Heuristics

$$$$

     RDKit          3D

 16 14  0  0  0  0  0  0  0  0999 V2000
    1.5487    0.4632    0.0005 C   0  0  0  0  0  0  0  0  0  0  0  0
    1.5487    0.4632   -1.4541 C   0  0  0  0  0  0  0  0  0  0  0  0
    1.5487    0.4632   -2.6006 N   0  0  0  0  0  0  0  0  0  0  0  0
    0.5956   -0.3127    0.4466 H   0  0  0  0  0  0  0  0  0  0  0  0
    2.5057    0.0986    0.3722 H   0  0  0  0  0  0  0  0  0  0  0  0
    1.3859    1.4742    0.3722 H   0  0  0  0  0  0  0  0  0  0  0  0
   -0.3602   -1.0908    0.8941 C   0  0  0  0  0  3  0  0  0  0  0  0
   -1.3468   -0.3053    1.7485 C   0  0  0  0  0  0  0  0  0  0  0  0
   -2.6044    0.0858    0.9829 C   0  0  0  0  0  0  0  0  0  0  0  0
    0.5331   -1.3616    1.4593 H   0  0  0  0  0  0  0  0  0  0  0  0
   -0.8134   -2.0130    0.5223 H   0  0  0  0  0  0  0  0  0  0  0  0
   -1.6236   -0.8992    2.6240 H   0  0  0  0  0  0  0  0  0  0  0  0
   -0.8595    0.5953    2.1323 H   0  0  0  0  0  0  0  0  0  0  0  0
   -3.1282   -0.7993    0.6140 H   0  0  0  0  0  0  0  0  0  0  0  0
   -3.2981    0.6472    1.6111 H   0  0  0  0  0  0  0  0  0  0  0  0
   -2.3581    0.7070    0.1184 H   0  0  0  0  0  0  0  0  0  0  0  0
  1  2  1  0
  1  4  1  0
  1  5  1  0
  1  6  1  0
  2  3  3  0
  7  8  1  0
  7 10  1  0
  7 11  1  0
  8  9  1  0
  8 12  1  0
  8 13  1  0
  9 14  1  0
  9 15  1  0
  9 16  1  0
M  RAD  1   7   2
M  END
>  <reaction>  (11) 
rmg_rxn_504

>  <mol_properties>  (11) 
{"0": {"label": "*1", "atom_type": "Cs"}, "1": {"label": "*0", "atom_type": "Ct"}, "3": {"label": "*2", "atom_type": "H0"}, "6": {"label": "*3", "atom_type": "Cs"}, "7": {"label": "*4", "atom_type": "Cs"}}

>  <type>  (11) 
unop_7

>  <geom_source>  (11) 
Heuristics

$$$$

     RDKit          3D

 16 14  0  0  0  0  0  0  0  0999 V2000
    0.5401    1.3091    0.0735 C   0  0  0  0  0  0  0  0  0  0  0  0
    0.5401    1.3091   -1.3812 C   0  0  0  0  0  0  0  0  0  0  0  0
    0.5401    1.3091   -2.5276 N   0  0  0  0  0  0  0  0  0  0  0  0
   -0.4129    0.5333    0.5195 H   0  0  0  0  0  0  0  0  0  0  0  0
    1.4971    0.9446    0.4451 H   0  0  0  0  0  0  0  0  0  0  0  0
    0.3773    2.3202    0.4452 H   0  0  0  0  0  0  0  0  0  0  0  0
   -1.3688   -0.2448    0.9670 C   0  0  0  0  0  3  0  0  0  0  0  0
   -0.8676   -1.6713    1.1528 C   0  0  0  0  0  0  0  0  0  0  0  0
    0.6493   -1.7499    1.2676 C   0  0  0  0  0  0  0  0  0  0  0  0
   -2.4566   -0.2091    0.8868 H   0  0  0  0  0  0  0  0  0  0  0  0
   -1.0744    0.3855    1.8096 H   0  0  0  0  0  0  0  0  0  0  0  0
   -1.3233   -2.1035    2.0480 H   0  0  0  0  0  0  0  0  0  0  0  0
   -1.2015   -2.2868    0.3128 H   0  0  0  0  0  0  0  0  0  0  0  0
    1.0073   -1.1670    2.1197 H   0  0  0  0  0  0  0  0  0  0  0  0
    0.9888   -2.7786    1.4001 H   0  0  0  0  0  0  0  0  0  0  0  0
    1.1301   -1.3517    0.3708 H   0  0  0  0  0  0  0  0  0  0  0  0
  1  2  1  0
  1  4  1  0
  1  5  1  0
  1  6  1  0
  2  3  3  0
  7  8  1  0
  7 10  1  0
  7 11  1  0
  8  9  1  0
  8 12  1  0
  8 13  1  0
  9 14  1  0
  9 15  1  0
  9 16  1  0
M  RAD  1   7   2
M  END
>  <reaction>  (12) 
rmg_rxn_504

>  <mol_properties>  (12) 
{"0": {"label": "*1", "atom_type": "Cs"}, "1": {"label": "*0", "atom_type": "Ct"}, "3": {"label": "*2", "atom_type": "H0"}, "6": {"label": "*3", "atom_type": "Cs"}, "7": {"label": "*4", "atom_type": "Cs"}}

>  <type>  (12) 
unop_8

>  <geom_source>  (12) 
Heuristics

$$$$

     RDKit          3D

 16 14  0  0  0  0  0  0  0  0999 V2000
    1.3479    0.9752    0.7136 C   0  0  0  0  0  0  0  0  0  0  0  0
    1.3479    0.9752   -0.7410 C   0  0  0  0  0  0  0  0  0  0  0  0
    1.3479    0.9752   -1.8874 N   0  0  0  0  0  0  0  0  0  0  0  0
    0.3949    0.1994    1.1597 H   0  0  0  0  0  0  0  0  0  0  0  0
    2.3049    0.6107    1.0853 H   0  0  0  0  0  0  0  0  0  0  0  0
    1.1851    1.9863    1.0853 H   0  0  0  0  0  0  0  0  0  0  0  0
   -0.5610   -0.5788    1.6072 C   0  0  0  0  0  3  0  0  0  0  0  0
   -1.7331   -0.6157    0.6349 C   0  0  0  0  0  0  0  0  0  0  0  0
   -1.4706   -1.5146   -0.5667 C   0  0  0  0  0  0  0  0  0  0  0  0
   -0.7678    0.0696    2.4603 H   0  0  0  0  0  0  0  0  0  0  0  0
   -0.3407   -1.5776    1.9916 H   0  0  0  0  0  0  0  0  0  0  0  0
   -2.6294   -0.9601    1.1582 H   0  0  0  0  0  0  0  0  0  0  0  0
   -1.9519    0.3986    0.2897 H   0  0  0  0  0  0  0  0  0  0  0  0
   -1.2790   -2.5429   -0.2507 H   0  0  0  0  0  0  0  0  0  0  0  0
   -2.3206   -1.5280   -1.2509 H   0  0  0  0  0  0  0  0  0  0  0  0
   -0.5961   -1.1735   -1.1260 H   0  0  0  0  0  0  0  0  0  0  0  0
  1  2  1  0
  1  4  1  0
  1  5  1  0
  1  6  1  0
  2  3  3  0
  7  8  1  0
  7 10  1  0
  7 11  1  0
  8  9  1  0
  8 12  1  0
  8 13  1  0
  9 14  1  0
  9 15  1  0
  9 16  1  0
M  RAD  1   7   2
M  END
>  <reaction>  (13) 
rmg_rxn_504

>  <mol_properties>  (13) 
{"0": {"label": "*1", "atom_type": "Cs"}, "1": {"label": "*0", "atom_type": "Ct"}, "3": {"label": "*2", "atom_type": "H0"}, "6": {"label": "*3", "atom_type": "Cs"}, "7": {"label": "*4", "atom_type": "Cs"}}

>  <type>  (13) 
unop_9

>  <geom_source>  (13) 
Heuristics

$$$$

     RDKit          3D

 16 14  0  0  0  0  0  0  0  0999 V2000
    0.6558    1.3614    0.3718 C   0  0  0  0  0  0  0  0  0  0  0  0
    0.6558    1.3614   -1.0828 C   0  0  0  0  0  0  0  0  0  0  0  0
    0.6558    1.3614   -2.2293 N   0  0  0  0  0  0  0  0  0  0  0  0
   -0.2972    0.5856    0.8179 H   0  0  0  0  0  0  0  0  0  0  0  0
    1.6128    0.9969    0.7435 H   0  0  0  0  0  0  0  0  0  0  0  0
    0.4930    2.3725    0.7435 H   0  0  0  0  0  0  0  0  0  0  0  0
   -1.2531   -0.1925    1.2653 C   0  0  0  0  0  3  0  0  0  0  0  0
   -1.0605   -1.6244    0.7825 C   0  0  0  0  0  0  0  0  0  0  0  0
    0.4024   -1.9671    0.5311 C   0  0  0  0  0  0  0  0  0  0  0  0
   -2.3063    0.0337    1.4397 H   0  0  0  0  0  0  0  0  0  0  0  0
   -0.7144   -0.0197    2.2002 H   0  0  0  0  0  0  0  0  0  0  0  0
   -1.4747   -2.3164    1.5210 H   0  0  0  0  0  0  0  0  0  0  0  0
   -1.6336   -1.7791   -0.1359 H   0  0  0  0  0  0  0  0  0  0  0  0
    0.9932   -1.8502    1.4429 H   0  0  0  0  0  0  0  0  0  0  0  0
    0.5199   -2.9958    0.1863 H   0  0  0  0  0  0  0  0  0  0  0  0
    0.8331   -1.3086   -0.2271 H   0  0  0  0  0  0  0  0  0  0  0  0
  1  2  1  0
  1  4  1  0
  1  5  1  0
  1  6  1  0
  2  3  3  0
  7  8  1  0
  7 10  1  0
  7 11  1  0
  8  9  1  0
  8 12  1  0
  8 13  1  0
  9 14  1  0
  9 15  1  0
  9 16  1  0
M  RAD  1   7   2
M  END
>  <reaction>  (14) 
rmg_rxn_504

>  <mol_properties>  (14) 
{"0": {"label": "*1", "atom_type": "Cs"}, "1": {"label": "*0", "atom_type": "Ct"}, "3": {"label": "*2", "atom_type": "H0"}, "6": {"label": "*3", "atom_type": "Cs"}, "7": {"label": "*4", "atom_type": "Cs"}}

>  <type>  (14) 
unop_10

>  <geom_source>  (14) 
Heuristics

$$$$

     RDKit          3D

 16 14  0  0  0  0  0  0  0  0999 V2000
    1.3654    0.4556   -0.2764 C   0  0  0  0  0  0  0  0  0  0  0  0
    1.3654    0.4556   -1.7310 C   0  0  0  0  0  0  0  0  0  0  0  0
    1.3654    0.4556   -2.8775 N   0  0  0  0  0  0  0  0  0  0  0  0
    0.4124   -0.3202    0.1697 H   0  0  0  0  0  0  0  0  0  0  0  0
    2.3224    0.0911    0.0953 H   0  0  0  0  0  0  0  0  0  0  0  0
    1.2026    1.4667    0.0953 H   0  0  0  0  0  0  0  0  0  0  0  0
   -0.5435   -1.0983    0.6171 C   0  0  0  0  0  3  0  0  0  0  0  0
   -1.0636   -0.6044    1.9611 C   0  0  0  0  0  0  0  0  0  0  0  0
   -2.1925    0.4082    1.8171 C   0  0  0  0  0  0  0  0  0  0  0  0
    0.2638   -1.8221    0.7408 H   0  0  0  0  0  0  0  0  0  0  0  0
   -1.3393   -1.5794    0.0432 H   0  0  0  0  0  0  0  0  0  0  0  0
   -1.4117   -1.4562    2.5520 H   0  0  0  0  0  0  0  0  0  0  0  0
   -0.2421   -0.1559    2.5266 H   0  0  0  0  0  0  0  0  0  0  0  0
   -3.0402   -0.0255    1.2811 H   0  0  0  0  0  0  0  0  0  0  0  0
   -2.5513    0.7498    2.7895 H   0  0  0  0  0  0  0  0  0  0  0  0
   -1.8614    1.2851    1.2556 H   0  0  0  0  0  0  0  0  0  0  0  0
  1  2  1  0
  1  4  1  0
  1  5  1  0
  1  6  1  0
  2  3  3  0
  7  8  1  0
  7 10  1  0
  7 11  1  0
  8  9  1  0
  8 12  1  0
  8 13  1  0
  9 14  1  0
  9 15  1  0
  9 16  1  0
M  RAD  1   7   2
M  END
>  <reaction>  (15) 
rmg_rxn_504

>  <mol_properties>  (15) 
{"0": {"label": "*1", "atom_type": "Cs"}, "1": {"label": "*0", "atom_type": "Ct"}, "3": {"label": "*2", "atom_type": "H0"}, "6": {"label": "*3", "atom_type": "Cs"}, "7": {"label": "*4", "atom_type": "Cs"}}

>  <type>  (15) 
unop_11

>  <geom_source>  (15) 
Heuristics

$$$$

     RDKit          3D

 16 14  0  0  0  0  0  0  0  0999 V2000
    1.0979    1.1737    0.7243 C   0  0  0  0  0  0  0  0  0  0  0  0
    1.0979    1.1737   -0.7304 C   0  0  0  0  0  0  0  0  0  0  0  0
    1.0979    1.1737   -1.8768 N   0  0  0  0  0  0  0  0  0  0  0  0
    0.1448    0.3979    1.1704 H   0  0  0  0  0  0  0  0  0  0  0  0
    2.0549    0.8092    1.0960 H   0  0  0  0  0  0  0  0  0  0  0  0
    0.9351    2.1848    1.0960 H   0  0  0  0  0  0  0  0  0  0  0  0
   -0.8110   -0.3802    1.6178 C   0  0  0  0  0  3  0  0  0  0  0  0
   -1.5845   -1.0099    0.4664 C   0  0  0  0  0  0  0  0  0  0  0  0
   -0.7005   -1.8560   -0.4410 C   0  0  0  0  0  0  0  0  0  0  0  0
   -1.4606    0.2213    2.2559 H   0  0  0  0  0  0  0  0  0  0  0  0
   -0.3462   -1.1474    2.2419 H   0  0  0  0  0  0  0  0  0  0  0  0
   -2.3932   -1.6280    0.8660 H   0  0  0  0  0  0  0  0  0  0  0  0
   -2.0641   -0.2235   -0.1231 H   0  0  0  0  0  0  0  0  0  0  0  0
   -0.2322   -2.6697    0.1182 H   0  0  0  0  0  0  0  0  0  0  0  0
   -1.2719   -2.2981   -1.2589 H   0  0  0  0  0  0  0  0  0  0  0  0
    0.0995   -1.2541   -0.8787 H   0  0  0  0  0  0  0  0  0  0  0  0
  1  2  1  0
  1  4  1  0
  1  5  1  0
  1  6  1  0
  2  3  3  0
  7  8  1  0
  7 10  1  0
  7 11  1  0
  8  9  1  0
  8 12  1  0
  8 13  1  0
  9 14  1  0
  9 15  1  0
  9 16  1  0
M  RAD  1   7   2
M  END
>  <reaction>  (16) 
rmg_rxn_504

>  <mol_properties>  (16) 
{"0": {"label": "*1", "atom_type": "Cs"}, "1": {"label": "*0", "atom_type": "Ct"}, "3": {"label": "*2", "atom_type": "H0"}, "6": {"label": "*3", "atom_type": "Cs"}, "7": {"label": "*4", "atom_type": "Cs"}}

>  <type>  (16) 
unop_12

>  <geom_source>  (16) 
Heuristics

$$$$

     RDKit          3D

 16 14  0  0  0  0  0  0  0  0999 V2000
    3.0504    1.4555   -0.1270 N   0  0  0  0  0  2  0  0  0  0  0  0
   -1.2099    0.2569    0.7647 C   0  0  0  0  0  0  0  0  0  0  0  0
   -0.6636   -1.0428    0.1846 C   0  0  0  0  0  0  0  0  0  0  0  0
   -1.4198    1.3019   -0.3262 C   0  0  0  0  0  0  0  0  0  0  0  0
    1.8723   -0.8685   -0.4039 C   0  0  0  0  0  0  0  0  0  0  0  0
    2.5302    0.4292   -0.2493 C   0  0  0  0  0  0  0  0  0  0  0  0
   -0.4928    0.6508    1.5165 H   0  0  0  0  0  0  0  0  0  0  0  0
   -2.1778    0.0551    1.2723 H   0  0  0  0  0  0  0  0  0  0  0  0
   -0.5130   -1.7805    1.0008 H   0  0  0  0  0  0  0  0  0  0  0  0
   -1.3782   -1.4677   -0.5522 H   0  0  0  0  0  0  0  0  0  0  0  0
    0.4803   -0.8258   -0.3995 H   0  0  0  0  0  0  0  0  0  0  0  0
   -1.8164    2.2355    0.1254 H   0  0  0  0  0  0  0  0  0  0  0  0
   -2.1495    0.9334   -1.0785 H   0  0  0  0  0  0  0  0  0  0  0  0
   -0.4571    1.5324   -0.8304 H   0  0  0  0  0  0  0  0  0  0  0  0
    2.2071   -1.3428   -1.3493 H   0  0  0  0  0  0  0  0  0  0  0  0
    2.1378   -1.5224    0.4521 H   0  0  0  0  0  0  0  0  0  0  0  0
  1  6  2  0
  2  3  1  0
  2  4  1  0
  2  7  1  0
  2  8  1  0
  3  9  1  0
  3 10  1  0
  3 11  1  0
  4 12  1  0
  4 13  1  0
  4 14  1  0
  5  6  2  0
  5 15  1  0
  5 16  1  0
M  RAD  1   1   2
M  END
>  <reaction>  (17) 
rmg_rxn_504

>  <mol_properties>  (17) 
{"0": {"label": "*1", "atom_type": "Cs"}, "1": {"label": "*0", "atom_type": "Ct"}, "3": {"label": "*2", "atom_type": "H0"}, "6": {"label": "*3", "atom_type": "Cs"}, "7": {"label": "*4", "atom_type": "Cs"}}

>  <type>  (17) 
unop_13

>  <geom_source>  (17) 
AutoTST

$$$$

     RDKit          3D

 16 14  0  0  0  0  0  0  0  0999 V2000
    0.8522    1.3079    0.6016 C   0  0  0  0  0  0  0  0  0  0  0  0
    0.8522    1.3079   -0.8530 C   0  0  0  0  0  0  0  0  0  0  0  0
    0.8522    1.3079   -1.9995 N   0  0  0  0  0  0  0  0  0  0  0  0
   -0.1008    0.5321    1.0477 H   0  0  0  0  0  0  0  0  0  0  0  0
    1.8092    0.9434    0.9733 H   0  0  0  0  0  0  0  0  0  0  0  0
    0.6894    2.3190    0.9733 H   0  0  0  0  0  0  0  0  0  0  0  0
   -1.0567   -0.2460    1.4951 C   0  0  0  0  0  3  0  0  0  0  0  0
   -1.3306   -1.3863    0.5228 C   0  0  0  0  0  0  0  0  0  0  0  0
   -0.0541   -1.9864   -0.0523 C   0  0  0  0  0  0  0  0  0  0  0  0
   -1.9823    0.1704    1.8960 H   0  0  0  0  0  0  0  0  0  0  0  0
   -0.4511   -0.5883    2.3379 H   0  0  0  0  0  0  0  0  0  0  0  0
   -1.9037   -2.1674    1.0300 H   0  0  0  0  0  0  0  0  0  0  0  0
   -1.9627   -1.0250   -0.2931 H   0  0  0  0  0  0  0  0  0  0  0  0
    0.5831   -2.3835    0.7417 H   0  0  0  0  0  0  0  0  0  0  0  0
   -0.2706   -2.8007   -0.7457 H   0  0  0  0  0  0  0  0  0  0  0  0
    0.5236   -1.2320   -0.5919 H   0  0  0  0  0  0  0  0  0  0  0  0
  1  2  1  0
  1  4  1  0
  1  5  1  0
  1  6  1  0
  2  3  3  0
  7  8  1  0
  7 10  1  0
  7 11  1  0
  8  9  1  0
  8 12  1  0
  8 13  1  0
  9 14  1  0
  9 15  1  0
  9 16  1  0
M  RAD  1   7   2
M  END
>  <reaction>  (18) 
rmg_rxn_504

>  <mol_properties>  (18) 
{"0": {"label": "*1", "atom_type": "Cs"}, "1": {"label": "*0", "atom_type": "Ct"}, "3": {"label": "*2", "atom_type": "H0"}, "6": {"label": "*3", "atom_type": "Cs"}, "7": {"label": "*4", "atom_type": "Cs"}}

>  <type>  (18) 
unop_14

>  <geom_source>  (18) 
gaussian_log

$$$$
