
     RDKit          3D

  8  7  0  0  0  0  0  0  0  0999 V2000
    0.9548    0.1194   -0.0790 C   0  0  0  0  0  0  0  0  0  0  0  0
   -0.4838   -0.2649    0.0193 C   0  0  0  0  0  0  0  0  0  0  0  0
   -0.8933   -1.1081    0.8664 N   0  0  0  0  0  0  0  0  0  0  0  0
    1.3360   -0.0983   -1.0800 H   0  0  0  0  0  0  0  0  0  0  0  0
    1.0698    1.1948    0.0786 H   0  0  0  0  0  0  0  0  0  0  0  0
    1.5426   -0.4219    0.6602 H   0  0  0  0  0  0  0  0  0  0  0  0
   -1.1575    0.2324   -0.6905 H   0  0  0  0  0  0  0  0  0  0  0  0
   -1.8989   -1.2455    0.7886 H   0  0  0  0  0  0  0  0  0  0  0  0
  1  2  1  0
  1  4  1  0
  1  5  1  0
  1  6  1  0
  2  3  2  3
  2  7  1  0
  3  8  1  0
M  END
>  <reaction>  (1) 
rmg_rxn_16511

>  <mol_properties>  (1) 
{"2": {"label": "donator", "atom_type": "N3d"}, "7": {"label": "d_hydrogen", "atom_type": "H0"}}

>  <type>  (1) 
r1h

$$$$

     RDKit          3D

  8  7  0  0  0  0  0  0  0  0999 V2000
    1.4098   -0.3617   -0.1137 C   0  0  0  0  0  0  0  0  0  0  0  0
    0.1829   -0.1715   -0.5109 C   0  0  0  0  0  3  0  0  0  0  0  0
   -1.1129    0.2669    0.0153 C   0  0  0  0  0  0  0  0  0  0  0  0
    2.1881   -0.7137   -0.7829 H   0  0  0  0  0  0  0  0  0  0  0  0
    1.7065   -0.1722    0.9205 H   0  0  0  0  0  0  0  0  0  0  0  0
   -1.8665   -0.5154   -0.0958 H   0  0  0  0  0  0  0  0  0  0  0  0
   -1.0351    0.5163    1.0818 H   0  0  0  0  0  0  0  0  0  0  0  0
   -1.4726    1.1513   -0.5143 H   0  0  0  0  0  0  0  0  0  0  0  0
  1  2  2  3
  1  4  1  0
  1  5  1  0
  2  3  1  0
  3  6  1  0
  3  7  1  0
  3  8  1  0
M  RAD  1   2   2
M  END
>  <reaction>  (2) 
rmg_rxn_16511

>  <mol_properties>  (2) 
{"1": {"label": "acceptor", "atom_type": "Cd"}}

>  <type>  (2) 
r2

$$$$

     RDKit          3D

  9  8  0  0  0  0  0  0  0  0999 V2000
    1.1303   -0.2933   -0.7510 C   0  0  0  0  0  0  0  0  0  0  0  0
    0.2866    0.4560   -0.0588 C   0  0  0  0  0  0  0  0  0  0  0  0
   -0.9719   -0.0331    0.5823 C   0  0  0  0  0  0  0  0  0  0  0  0
    2.0274    0.1230   -1.1916 H   0  0  0  0  0  0  0  0  0  0  0  0
    0.9532   -1.3530   -0.9023 H   0  0  0  0  0  0  0  0  0  0  0  0
    0.5065    1.5132    0.0659 H   0  0  0  0  0  0  0  0  0  0  0  0
   -0.9526    0.1426    1.6610 H   0  0  0  0  0  0  0  0  0  0  0  0
   -1.1182   -1.1002    0.4106 H   0  0  0  0  0  0  0  0  0  0  0  0
   -1.8412    0.5010    0.1901 H   0  0  0  0  0  0  0  0  0  0  0  0
  1  2  2  3
  1  4  1  0
  1  5  1  0
  2  3  1  0
  2  6  1  0
  3  7  1  0
  3  8  1  0
  3  9  1  0
M  END
>  <reaction>  (3) 
rmg_rxn_16511

>  <mol_properties>  (3) 
{"0": {"label": "a_hydrogen", "atom_type": "H0"}, "2": {"label": "acceptor", "atom_type": "Cd"}}

>  <type>  (3) 
r2h

$$$$

     RDKit          3D

 16 14  0  0  0  0  0  0  0  0999 V2000
   -3.0763   -0.0216    0.1188 C   0  0  0  0  0  0  0  0  0  0  0  0
   -1.5830   -0.1131    0.0579 C   0  0  0  0  0  0  0  0  0  0  0  0
   -0.8936    0.6553   -0.6601 N   0  0  0  0  0  0  0  0  0  0  0  0
   -3.3963    0.1639    1.1469 H   0  0  0  0  0  0  0  0  0  0  0  0
   -3.4395    0.7774   -0.5248 H   0  0  0  0  0  0  0  0  0  0  0  0
   -3.5204   -0.9703   -0.1917 H   0  0  0  0  0  0  0  0  0  0  0  0
   -1.1187   -0.8916    0.6773 H   0  0  0  0  0  0  0  0  0  0  0  0
    0.2453    0.3672   -0.5401 H   0  0  0  0  0  0  0  0  0  0  0  0
    1.6992   -1.4242   -0.3663 C   0  0  0  0  0  0  0  0  0  0  0  0
    1.5354   -0.1303   -0.2178 C   0  0  0  0  0  3  0  0  0  0  0  0
    2.4389    0.9441    0.2495 C   0  0  0  0  0  0  0  0  0  0  0  0
    0.9076   -2.0627   -0.7437 H   0  0  0  0  0  0  0  0  0  0  0  0
    2.6446   -1.9080   -0.1235 H   0  0  0  0  0  0  0  0  0  0  0  0
    2.5730    1.7008   -0.5264 H   0  0  0  0  0  0  0  0  0  0  0  0
    2.0229    1.4487    1.1242 H   0  0  0  0  0  0  0  0  0  0  0  0
    3.4217    0.5414    0.5146 H   0  0  0  0  0  0  0  0  0  0  0  0
  1  2  1  0
  1  4  1  0
  1  5  1  0
  1  6  1  0
  2  3  2  3
  2  7  1  0
  3  8  1  0
  9 10  2  3
  9 12  1  0
  9 13  1  0
 10 11  1  0
 11 14  1  0
 11 15  1  0
 11 16  1  0
M  RAD  1  10   2
M  END
>  <reaction>  (4) 
rmg_rxn_16511

>  <mol_properties>  (4) 
{"1": {"label": "*0", "atom_type": "Cd"}, "2": {"label": "*1", "atom_type": "N3d"}, "7": {"label": "*2", "atom_type": "H0"}, "8": {"label": "*4", "atom_type": "Cd"}, "9": {"label": "*3", "atom_type": "Cd"}}

>  <type>  (4) 
ts

$$$$

     RDKit          3D

 16 14  0  0  0  0  0  0  0  0999 V2000
   -3.1684    0.0031   -0.0007 C   0  0  0  0  0  0  0  0  0  0  0  0
   -1.6875   -0.2336   -0.0000 C   0  0  0  0  0  0  0  0  0  0  0  0
   -0.8620    0.6894    0.0013 N   0  0  0  0  0  0  0  0  0  0  0  0
   -3.6081   -0.4605    0.8810 H   0  0  0  0  0  0  0  0  0  0  0  0
   -3.3803    1.0685    0.0006 H   0  0  0  0  0  0  0  0  0  0  0  0
   -3.6069   -0.4582   -0.8841 H   0  0  0  0  0  0  0  0  0  0  0  0
   -1.4136   -1.3002   -0.0014 H   0  0  0  0  0  0  0  0  0  0  0  0
    0.3399    0.3241    0.0012 H   0  0  0  0  0  0  0  0  0  0  0  0
    1.7548   -1.3989    0.0002 C   0  0  0  0  0  0  0  0  0  0  0  0
    1.5491   -0.1050    0.0002 C   0  0  0  0  0  3  0  0  0  0  0  0
    2.5282    1.0044   -0.0007 C   0  0  0  0  0  0  0  0  0  0  0  0
    0.9484   -2.1149    0.0010 H   0  0  0  0  0  0  0  0  0  0  0  0
    2.7504   -1.8300   -0.0009 H   0  0  0  0  0  0  0  0  0  0  0  0
    2.3806    1.6311   -0.8795 H   0  0  0  0  0  0  0  0  0  0  0  0
    2.3834    1.6301    0.8793 H   0  0  0  0  0  0  0  0  0  0  0  0
    3.5528    0.6276   -0.0025 H   0  0  0  0  0  0  0  0  0  0  0  0
  1  2  1  0
  1  4  1  0
  1  5  1  0
  1  6  1  0
  2  3  2  3
  2  7  1  0
  3  8  1  0
  9 10  2  3
  9 12  1  0
  9 13  1  0
 10 11  1  0
 11 14  1  0
 11 15  1  0
 11 16  1  0
M  RAD  1  10   2
M  END
>  <reaction>  (5) 
rmg_rxn_16511

>  <mol_properties>  (5) 
{"1": {"label": "*0", "atom_type": "Cd"}, "2": {"label": "*1", "atom_type": "N3d"}, "7": {"label": "*2", "atom_type": "H0"}, "8": {"label": "*4", "atom_type": "Cd"}, "9": {"label": "*3", "atom_type": "Cd"}}

>  <type>  (5) 
unop_1

>  <geom_source>  (5) 
crest_best.xyz

$$$$

     RDKit          3D

 16 14  0  0  0  0  0  0  0  0999 V2000
    0.0940   -0.5608   -3.0892 C   0  0  0  0  0  0  0  0  0  0  0  0
    0.0940   -0.5608   -1.5968 C   0  0  0  0  0  0  0  0  0  0  0  0
    0.0940    0.5118   -0.9291 N   0  0  0  0  0  0  0  0  0  0  0  0
    0.9722   -1.0908   -3.4666 H   0  0  0  0  0  0  0  0  0  0  0  0
   -0.7843   -1.0908   -3.4666 H   0  0  0  0  0  0  0  0  0  0  0  0
    0.0940    0.4598   -3.4677 H   0  0  0  0  0  0  0  0  0  0  0  0
    0.0940   -1.5505   -1.1222 H   0  0  0  0  0  0  0  0  0  0  0  0
    0.0940    0.2816    0.2705 H   0  0  0  0  0  0  0  0  0  0  0  0
    1.0987    0.4854    2.2869 C   0  0  0  0  0  0  0  0  0  0  0  0
    0.0940    0.0358    1.5515 C   0  0  0  0  0  3  0  0  0  0  0  0
   -1.3501    0.1092    1.9304 C   0  0  0  0  0  0  0  0  0  0  0  0
    2.1257    0.4017    1.9546 H   0  0  0  0  0  0  0  0  0  0  0  0
    0.9292    0.9545    3.2504 H   0  0  0  0  0  0  0  0  0  0  0  0
   -1.7922   -0.8895    1.9728 H   0  0  0  0  0  0  0  0  0  0  0  0
   -1.4834    0.5856    2.9025 H   0  0  0  0  0  0  0  0  0  0  0  0
   -1.9185    0.6759    1.1885 H   0  0  0  0  0  0  0  0  0  0  0  0
  1  2  1  0
  1  4  1  0
  1  5  1  0
  1  6  1  0
  2  3  2  3
  2  7  1  0
  3  8  1  0
  9 10  2  3
  9 12  1  0
  9 13  1  0
 10 11  1  0
 11 14  1  0
 11 15  1  0
 11 16  1  0
M  RAD  1  10   2
M  END
>  <reaction>  (6) 
rmg_rxn_16511

>  <mol_properties>  (6) 
{"1": {"label": "*0", "atom_type": "Cd"}, "2": {"label": "*1", "atom_type": "N3d"}, "7": {"label": "*2", "atom_type": "H0"}, "8": {"label": "*4", "atom_type": "Cd"}, "9": {"label": "*3", "atom_type": "Cd"}}

>  <type>  (6) 
unop_2

>  <geom_source>  (6) 
Heuristics

$$$$

     RDKit          3D

 16 14  0  0  0  0  0  0  0  0999 V2000
   -0.0396   -0.4953   -3.1239 C   0  0  0  0  0  0  0  0  0  0  0  0
   -0.0396   -0.4953   -1.6316 C   0  0  0  0  0  0  0  0  0  0  0  0
   -0.0396    0.5773   -0.9639 N   0  0  0  0  0  0  0  0  0  0  0  0
    0.8386   -1.0253   -3.5013 H   0  0  0  0  0  0  0  0  0  0  0  0
   -0.9179   -1.0253   -3.5013 H   0  0  0  0  0  0  0  0  0  0  0  0
   -0.0396    0.5253   -3.5025 H   0  0  0  0  0  0  0  0  0  0  0  0
   -0.0396   -1.4850   -1.1569 H   0  0  0  0  0  0  0  0  0  0  0  0
   -0.0396    0.3472    0.2357 H   0  0  0  0  0  0  0  0  0  0  0  0
    0.5404   -1.0054    1.9536 C   0  0  0  0  0  0  0  0  0  0  0  0
   -0.0396    0.1014    1.5167 C   0  0  0  0  0  3  0  0  0  0  0  0
   -0.3739    1.2886    2.3611 C   0  0  0  0  0  0  0  0  0  0  0  0
    0.7564   -1.8322    1.2886 H   0  0  0  0  0  0  0  0  0  0  0  0
    0.8208   -1.1245    2.9949 H   0  0  0  0  0  0  0  0  0  0  0  0
   -1.4471    1.4947    2.3349 H   0  0  0  0  0  0  0  0  0  0  0  0
   -0.0789    1.1348    3.3999 H   0  0  0  0  0  0  0  0  0  0  0  0
    0.1297    2.1846    1.9892 H   0  0  0  0  0  0  0  0  0  0  0  0
  1  2  1  0
  1  4  1  0
  1  5  1  0
  1  6  1  0
  2  3  2  3
  2  7  1  0
  3  8  1  0
  9 10  2  3
  9 12  1  0
  9 13  1  0
 10 11  1  0
 11 14  1  0
 11 15  1  0
 11 16  1  0
M  RAD  1  10   2
M  END
>  <reaction>  (7) 
rmg_rxn_16511

>  <mol_properties>  (7) 
{"1": {"label": "*0", "atom_type": "Cd"}, "2": {"label": "*1", "atom_type": "N3d"}, "7": {"label": "*2", "atom_type": "H0"}, "8": {"label": "*4", "atom_type": "Cd"}, "9": {"label": "*3", "atom_type": "Cd"}}

>  <type>  (7) 
unop_3

>  <geom_source>  (7) 
Heuristics

$$$$

     RDKit          3D

 16 14  0  0  0  0  0  0  0  0999 V2000
    0.1268   -0.4700   -3.0927 C   0  0  0  0  0  0  0  0  0  0  0  0
    0.1268   -0.4700   -1.6003 C   0  0  0  0  0  0  0  0  0  0  0  0
    0.1268    0.6026   -0.9327 N   0  0  0  0  0  0  0  0  0  0  0  0
    1.0051   -1.0000   -3.4701 H   0  0  0  0  0  0  0  0  0  0  0  0
   -0.7514   -1.0000   -3.4701 H   0  0  0  0  0  0  0  0  0  0  0  0
    0.1268    0.5506   -3.4713 H   0  0  0  0  0  0  0  0  0  0  0  0
    0.1268   -1.4597   -1.1257 H   0  0  0  0  0  0  0  0  0  0  0  0
    0.1268    0.3724    0.2669 H   0  0  0  0  0  0  0  0  0  0  0  0
    0.7069    0.9932    2.3634 C   0  0  0  0  0  0  0  0  0  0  0  0
    0.1268    0.1266    1.5480 C   0  0  0  0  0  3  0  0  0  0  0  0
   -1.0930   -0.6748    1.8704 C   0  0  0  0  0  0  0  0  0  0  0  0
    1.5913    1.5438    2.0687 H   0  0  0  0  0  0  0  0  0  0  0  0
    0.3167    1.1833    3.3577 H   0  0  0  0  0  0  0  0  0  0  0  0
   -0.8840   -1.7456    1.8025 H   0  0  0  0  0  0  0  0  0  0  0  0
   -1.4575   -0.4591    2.8755 H   0  0  0  0  0  0  0  0  0  0  0  0
   -1.8963   -0.4634    1.1600 H   0  0  0  0  0  0  0  0  0  0  0  0
  1  2  1  0
  1  4  1  0
  1  5  1  0
  1  6  1  0
  2  3  2  3
  2  7  1  0
  3  8  1  0
  9 10  2  3
  9 12  1  0
  9 13  1  0
 10 11  1  0
 11 14  1  0
 11 15  1  0
 11 16  1  0
M  RAD  1  10   2
M  END
>  <reaction>  (8) 
rmg_rxn_16511

>  <mol_properties>  (8) 
{"1": {"label": "*0", "atom_type": "Cd"}, "2": {"label": "*1", "atom_type": "N3d"}, "7": {"label": "*2", "atom_type": "H0"}, "8": {"label": "*4", "atom_type": "Cd"}, "9": {"label": "*3", "atom_type": "Cd"}}

>  <type>  (8) 
unop_4

>  <geom_source>  (8) 
Heuristics

$$$$

     RDKit          3D

 16 14  0  0  0  0  0  0  0  0999 V2000
    0.0344   -0.5476   -3.1125 C   0  0  0  0  0  0  0  0  0  0  0  0
    0.0344   -0.5476   -1.6202 C   0  0  0  0  0  0  0  0  0  0  0  0
    0.0344    0.5250   -0.9525 N   0  0  0  0  0  0  0  0  0  0  0  0
    0.9127   -1.0776   -3.4899 H   0  0  0  0  0  0  0  0  0  0  0  0
   -0.8439   -1.0776   -3.4899 H   0  0  0  0  0  0  0  0  0  0  0  0
    0.0344    0.4730   -3.4911 H   0  0  0  0  0  0  0  0  0  0  0  0
    0.0344   -1.5373   -1.1455 H   0  0  0  0  0  0  0  0  0  0  0  0
    0.0344    0.2948    0.2471 H   0  0  0  0  0  0  0  0  0  0  0  0
   -0.9703   -0.6408    2.0450 C   0  0  0  0  0  0  0  0  0  0  0  0
    0.0344    0.0490    1.5281 C   0  0  0  0  0  3  0  0  0  0  0  0
    0.7955    1.1228    2.2367 C   0  0  0  0  0  0  0  0  0  0  0  0
   -1.4817   -1.4081    1.4775 H   0  0  0  0  0  0  0  0  0  0  0  0
   -1.3181   -0.4621    3.0570 H   0  0  0  0  0  0  0  0  0  0  0  0
    0.7250    2.0705    1.6967 H   0  0  0  0  0  0  0  0  0  0  0  0
    0.4201    1.2756    3.2493 H   0  0  0  0  0  0  0  0  0  0  0  0
    1.8575    0.8713    2.2975 H   0  0  0  0  0  0  0  0  0  0  0  0
  1  2  1  0
  1  4  1  0
  1  5  1  0
  1  6  1  0
  2  3  2  3
  2  7  1  0
  3  8  1  0
  9 10  2  3
  9 12  1  0
  9 13  1  0
 10 11  1  0
 11 14  1  0
 11 15  1  0
 11 16  1  0
M  RAD  1  10   2
M  END
>  <reaction>  (9) 
rmg_rxn_16511

>  <mol_properties>  (9) 
{"1": {"label": "*0", "atom_type": "Cd"}, "2": {"label": "*1", "atom_type": "N3d"}, "7": {"label": "*2", "atom_type": "H0"}, "8": {"label": "*4", "atom_type": "Cd"}, "9": {"label": "*3", "atom_type": "Cd"}}

>  <type>  (9) 
unop_5

>  <geom_source>  (9) 
Heuristics

$$$$

     RDKit          3D

 16 14  0  0  0  0  0  0  0  0999 V2000
   -0.0000   -0.3765   -3.1109 C   0  0  0  0  0  0  0  0  0  0  0  0
   -0.0000   -0.3765   -1.6186 C   0  0  0  0  0  0  0  0  0  0  0  0
   -0.0000    0.6961   -0.9509 N   0  0  0  0  0  0  0  0  0  0  0  0
    0.8783   -0.9065   -3.4883 H   0  0  0  0  0  0  0  0  0  0  0  0
   -0.8783   -0.9065   -3.4883 H   0  0  0  0  0  0  0  0  0  0  0  0
   -0.0000    0.6441   -3.4895 H   0  0  0  0  0  0  0  0  0  0  0  0
    0.0000   -1.3662   -1.1439 H   0  0  0  0  0  0  0  0  0  0  0  0
   -0.0000    0.4659    0.2487 H   0  0  0  0  0  0  0  0  0  0  0  0
   -0.0000    1.2393    2.3745 C   0  0  0  0  0  0  0  0  0  0  0  0
   -0.0000    0.2202    1.5298 C   0  0  0  0  0  3  0  0  0  0  0  0
    0.0000   -1.2223    1.9216 C   0  0  0  0  0  0  0  0  0  0  0  0
   -0.0000    2.2643    2.0255 H   0  0  0  0  0  0  0  0  0  0  0  0
    0.0000    1.0845    3.4483 H   0  0  0  0  0  0  0  0  0  0  0  0
    0.8777   -1.7346    1.5192 H   0  0  0  0  0  0  0  0  0  0  0  0
    0.0000   -1.3409    3.0059 H   0  0  0  0  0  0  0  0  0  0  0  0
   -0.8777   -1.7346    1.5192 H   0  0  0  0  0  0  0  0  0  0  0  0
  1  2  1  0
  1  4  1  0
  1  5  1  0
  1  6  1  0
  2  3  2  3
  2  7  1  0
  3  8  1  0
  9 10  2  3
  9 12  1  0
  9 13  1  0
 10 11  1  0
 11 14  1  0
 11 15  1  0
 11 16  1  0
M  RAD  1  10   2
M  END
>  <reaction>  (10) 
rmg_rxn_16511

>  <mol_properties>  (10) 
{"1": {"label": "*0", "atom_type": "Cd"}, "2": {"label": "*1", "atom_type": "N3d"}, "7": {"label": "*2", "atom_type": "H0"}, "8": {"label": "*4", "atom_type": "Cd"}, "9": {"label": "*3", "atom_type": "Cd"}}

>  <type>  (10) 
unop_6

>  <geom_source>  (10) 
Heuristics

$$$$

     RDKit          3D

 16 14  0  0  0  0  0  0  0  0999 V2000
   -0.0201   -0.5811   -3.0994 C   0  0  0  0  0  0  0  0  0  0  0  0
   -0.0201   -0.5811   -1.6071 C   0  0  0  0  0  0  0  0  0  0  0  0
   -0.0201    0.4915   -0.9394 N   0  0  0  0  0  0  0  0  0  0  0  0
    0.8581   -1.1111   -3.4768 H   0  0  0  0  0  0  0  0  0  0  0  0
   -0.8984   -1.1111   -3.4768 H   0  0  0  0  0  0  0  0  0  0  0  0
   -0.0201    0.4395   -3.4780 H   0  0  0  0  0  0  0  0  0  0  0  0
   -0.0201   -1.5708   -1.1325 H   0  0  0  0  0  0  0  0  0  0  0  0
   -0.0201    0.2614    0.2602 H   0  0  0  0  0  0  0  0  0  0  0  0
   -1.1802   -0.1046    2.1673 C   0  0  0  0  0  0  0  0  0  0  0  0
   -0.0201    0.0156    1.5412 C   0  0  0  0  0  3  0  0  0  0  0  0
    1.1771    0.7320    2.0776 C   0  0  0  0  0  0  0  0  0  0  0  0
   -2.0112   -0.6379    1.7230 H   0  0  0  0  0  0  0  0  0  0  0  0
   -1.3407    0.3275    3.1495 H   0  0  0  0  0  0  0  0  0  0  0  0
    1.4756    1.5443    1.4099 H   0  0  0  0  0  0  0  0  0  0  0  0
    0.9807    1.1531    3.0644 H   0  0  0  0  0  0  0  0  0  0  0  0
    2.0323    0.0559    2.1557 H   0  0  0  0  0  0  0  0  0  0  0  0
  1  2  1  0
  1  4  1  0
  1  5  1  0
  1  6  1  0
  2  3  2  3
  2  7  1  0
  3  8  1  0
  9 10  2  3
  9 12  1  0
  9 13  1  0
 10 11  1  0
 11 14  1  0
 11 15  1  0
 11 16  1  0
M  RAD  1  10   2
M  END
>  <reaction>  (11) 
rmg_rxn_16511

>  <mol_properties>  (11) 
{"1": {"label": "*0", "atom_type": "Cd"}, "2": {"label": "*1", "atom_type": "N3d"}, "7": {"label": "*2", "atom_type": "H0"}, "8": {"label": "*4", "atom_type": "Cd"}, "9": {"label": "*3", "atom_type": "Cd"}}

>  <type>  (11) 
unop_7

>  <geom_source>  (11) 
Heuristics

$$$$

     RDKit          3D

 16 14  0  0  0  0  0  0  0  0999 V2000
   -0.0940   -0.5608   -3.0892 C   0  0  0  0  0  0  0  0  0  0  0  0
   -0.0940   -0.5608   -1.5968 C   0  0  0  0  0  0  0  0  0  0  0  0
   -0.0940    0.5118   -0.9291 N   0  0  0  0  0  0  0  0  0  0  0  0
    0.7843   -1.0908   -3.4666 H   0  0  0  0  0  0  0  0  0  0  0  0
   -0.9722   -1.0908   -3.4666 H   0  0  0  0  0  0  0  0  0  0  0  0
   -0.0940    0.4598   -3.4677 H   0  0  0  0  0  0  0  0  0  0  0  0
   -0.0940   -1.5505   -1.1222 H   0  0  0  0  0  0  0  0  0  0  0  0
   -0.0940    0.2816    0.2705 H   0  0  0  0  0  0  0  0  0  0  0  0
   -1.0987    0.4854    2.2869 C   0  0  0  0  0  0  0  0  0  0  0  0
   -0.0940    0.0358    1.5515 C   0  0  0  0  0  3  0  0  0  0  0  0
    1.3501    0.1092    1.9304 C   0  0  0  0  0  0  0  0  0  0  0  0
   -2.1257    0.4017    1.9546 H   0  0  0  0  0  0  0  0  0  0  0  0
   -0.9292    0.9545    3.2504 H   0  0  0  0  0  0  0  0  0  0  0  0
    1.9185    0.6759    1.1885 H   0  0  0  0  0  0  0  0  0  0  0  0
    1.4834    0.5856    2.9025 H   0  0  0  0  0  0  0  0  0  0  0  0
    1.7922   -0.8895    1.9728 H   0  0  0  0  0  0  0  0  0  0  0  0
  1  2  1  0
  1  4  1  0
  1  5  1  0
  1  6  1  0
  2  3  2  3
  2  7  1  0
  3  8  1  0
  9 10  2  3
  9 12  1  0
  9 13  1  0
 10 11  1  0
 11 14  1  0
 11 15  1  0
 11 16  1  0
M  RAD  1  10   2
M  END
>  <reaction>  (12) 
rmg_rxn_16511

>  <mol_properties>  (12) 
{"1": {"label": "*0", "atom_type": "Cd"}, "2": {"label": "*1", "atom_type": "N3d"}, "7": {"label": "*2", "atom_type": "H0"}, "8": {"label": "*4", "atom_type": "Cd"}, "9": {"label": "*3", "atom_type": "Cd"}}

>  <type>  (12) 
unop_8

>  <geom_source>  (12) 
Heuristics

$$$$

     RDKit          3D

 16 14  0  0  0  0  0  0  0  0999 V2000
    0.0201   -0.5811   -3.0994 C   0  0  0  0  0  0  0  0  0  0  0  0
    0.0201   -0.5811   -1.6071 C   0  0  0  0  0  0  0  0  0  0  0  0
    0.0201    0.4915   -0.9394 N   0  0  0  0  0  0  0  0  0  0  0  0
    0.8984   -1.1111   -3.4768 H   0  0  0  0  0  0  0  0  0  0  0  0
   -0.8581   -1.1111   -3.4768 H   0  0  0  0  0  0  0  0  0  0  0  0
    0.0201    0.4395   -3.4780 H   0  0  0  0  0  0  0  0  0  0  0  0
    0.0201   -1.5708   -1.1325 H   0  0  0  0  0  0  0  0  0  0  0  0
    0.0201    0.2614    0.2602 H   0  0  0  0  0  0  0  0  0  0  0  0
    1.1802   -0.1046    2.1673 C   0  0  0  0  0  0  0  0  0  0  0  0
    0.0201    0.0156    1.5412 C   0  0  0  0  0  3  0  0  0  0  0  0
   -1.1771    0.7320    2.0776 C   0  0  0  0  0  0  0  0  0  0  0  0
    2.0112   -0.6379    1.7230 H   0  0  0  0  0  0  0  0  0  0  0  0
    1.3407    0.3275    3.1495 H   0  0  0  0  0  0  0  0  0  0  0  0
   -2.0323    0.0559    2.1557 H   0  0  0  0  0  0  0  0  0  0  0  0
   -0.9807    1.1531    3.0644 H   0  0  0  0  0  0  0  0  0  0  0  0
   -1.4756    1.5443    1.4099 H   0  0  0  0  0  0  0  0  0  0  0  0
  1  2  1  0
  1  4  1  0
  1  5  1  0
  1  6  1  0
  2  3  2  3
  2  7  1  0
  3  8  1  0
  9 10  2  3
  9 12  1  0
  9 13  1  0
 10 11  1  0
 11 14  1  0
 11 15  1  0
 11 16  1  0
M  RAD  1  10   2
M  END
>  <reaction>  (13) 
rmg_rxn_16511

>  <mol_properties>  (13) 
{"1": {"label": "*0", "atom_type": "Cd"}, "2": {"label": "*1", "atom_type": "N3d"}, "7": {"label": "*2", "atom_type": "H0"}, "8": {"label": "*4", "atom_type": "Cd"}, "9": {"label": "*3", "atom_type": "Cd"}}

>  <type>  (13) 
unop_9

>  <geom_source>  (13) 
Heuristics

$$$$

     RDKit          3D

 16 14  0  0  0  0  0  0  0  0999 V2000
   -3.1684    0.0031   -0.0007 C   0  0  0  0  0  0  0  0  0  0  0  0
   -1.6875   -0.2336   -0.0000 C   0  0  0  0  0  0  0  0  0  0  0  0
   -0.8620    0.6894    0.0013 N   0  0  0  0  0  0  0  0  0  0  0  0
   -3.6081   -0.4605    0.8810 H   0  0  0  0  0  0  0  0  0  0  0  0
   -3.3803    1.0685    0.0006 H   0  0  0  0  0  0  0  0  0  0  0  0
   -3.6069   -0.4582   -0.8841 H   0  0  0  0  0  0  0  0  0  0  0  0
   -1.4136   -1.3002   -0.0014 H   0  0  0  0  0  0  0  0  0  0  0  0
    0.3399    0.3241    0.0012 H   0  0  0  0  0  0  0  0  0  0  0  0
    1.7548   -1.3989    0.0002 C   0  0  0  0  0  0  0  0  0  0  0  0
    1.5491   -0.1050    0.0002 C   0  0  0  0  0  3  0  0  0  0  0  0
    2.5282    1.0044   -0.0007 C   0  0  0  0  0  0  0  0  0  0  0  0
    0.9484   -2.1149    0.0010 H   0  0  0  0  0  0  0  0  0  0  0  0
    2.7504   -1.8300   -0.0009 H   0  0  0  0  0  0  0  0  0  0  0  0
    2.3806    1.6311   -0.8795 H   0  0  0  0  0  0  0  0  0  0  0  0
    2.3834    1.6301    0.8793 H   0  0  0  0  0  0  0  0  0  0  0  0
    3.5528    0.6276   -0.0025 H   0  0  0  0  0  0  0  0  0  0  0  0
  1  2  1  0
  1  4  1  0
  1  5  1  0
  1  6  1  0
  2  3  2  3
  2  7  1  0
  3  8  1  0
  9 10  2  3
  9 12  1  0
  9 13  1  0
 10 11  1  0
 11 14  1  0
 11 15  1  0
 11 16  1  0
M  RAD  1  10   2
M  END
>  <reaction>  (14) 
rmg_rxn_16511

>  <mol_properties>  (14) 
{"1": {"label": "*0", "atom_type": "Cd"}, "2": {"label": "*1", "atom_type": "N3d"}, "7": {"label": "*2", "atom_type": "H0"}, "8": {"label": "*4", "atom_type": "Cd"}, "9": {"label": "*3", "atom_type": "Cd"}}

>  <type>  (14) 
unop_10

>  <geom_source>  (14) 
Heuristics

$$$$

     RDKit          3D

 16 14  0  0  0  0  0  0  0  0999 V2000
    0.0396   -0.4953   -3.1239 C   0  0  0  0  0  0  0  0  0  0  0  0
    0.0396   -0.4953   -1.6316 C   0  0  0  0  0  0  0  0  0  0  0  0
    0.0396    0.5773   -0.9639 N   0  0  0  0  0  0  0  0  0  0  0  0
    0.9179   -1.0253   -3.5013 H   0  0  0  0  0  0  0  0  0  0  0  0
   -0.8386   -1.0253   -3.5013 H   0  0  0  0  0  0  0  0  0  0  0  0
    0.0396    0.5253   -3.5025 H   0  0  0  0  0  0  0  0  0  0  0  0
    0.0396   -1.4850   -1.1569 H   0  0  0  0  0  0  0  0  0  0  0  0
    0.0396    0.3472    0.2357 H   0  0  0  0  0  0  0  0  0  0  0  0
   -0.5404   -1.0054    1.9536 C   0  0  0  0  0  0  0  0  0  0  0  0
    0.0396    0.1014    1.5167 C   0  0  0  0  0  3  0  0  0  0  0  0
    0.3739    1.2886    2.3611 C   0  0  0  0  0  0  0  0  0  0  0  0
   -0.7564   -1.8322    1.2886 H   0  0  0  0  0  0  0  0  0  0  0  0
   -0.8208   -1.1245    2.9949 H   0  0  0  0  0  0  0  0  0  0  0  0
   -0.1297    2.1846    1.9892 H   0  0  0  0  0  0  0  0  0  0  0  0
    0.0789    1.1348    3.3999 H   0  0  0  0  0  0  0  0  0  0  0  0
    1.4471    1.4947    2.3349 H   0  0  0  0  0  0  0  0  0  0  0  0
  1  2  1  0
  1  4  1  0
  1  5  1  0
  1  6  1  0
  2  3  2  3
  2  7  1  0
  3  8  1  0
  9 10  2  3
  9 12  1  0
  9 13  1  0
 10 11  1  0
 11 14  1  0
 11 15  1  0
 11 16  1  0
M  RAD  1  10   2
M  END
>  <reaction>  (15) 
rmg_rxn_16511

>  <mol_properties>  (15) 
{"1": {"label": "*0", "atom_type": "Cd"}, "2": {"label": "*1", "atom_type": "N3d"}, "7": {"label": "*2", "atom_type": "H0"}, "8": {"label": "*4", "atom_type": "Cd"}, "9": {"label": "*3", "atom_type": "Cd"}}

>  <type>  (15) 
unop_11

>  <geom_source>  (15) 
Heuristics

$$$$

     RDKit          3D

 16 14  0  0  0  0  0  0  0  0999 V2000
   -0.0344   -0.5476   -3.1125 C   0  0  0  0  0  0  0  0  0  0  0  0
   -0.0344   -0.5476   -1.6202 C   0  0  0  0  0  0  0  0  0  0  0  0
   -0.0344    0.5250   -0.9525 N   0  0  0  0  0  0  0  0  0  0  0  0
    0.8439   -1.0776   -3.4899 H   0  0  0  0  0  0  0  0  0  0  0  0
   -0.9127   -1.0776   -3.4899 H   0  0  0  0  0  0  0  0  0  0  0  0
   -0.0344    0.4730   -3.4911 H   0  0  0  0  0  0  0  0  0  0  0  0
   -0.0344   -1.5373   -1.1455 H   0  0  0  0  0  0  0  0  0  0  0  0
   -0.0344    0.2948    0.2471 H   0  0  0  0  0  0  0  0  0  0  0  0
    0.9703   -0.6408    2.0450 C   0  0  0  0  0  0  0  0  0  0  0  0
   -0.0344    0.0490    1.5281 C   0  0  0  0  0  3  0  0  0  0  0  0
   -0.7955    1.1228    2.2367 C   0  0  0  0  0  0  0  0  0  0  0  0
    1.4817   -1.4081    1.4775 H   0  0  0  0  0  0  0  0  0  0  0  0
    1.3181   -0.4621    3.0570 H   0  0  0  0  0  0  0  0  0  0  0  0
   -1.8575    0.8713    2.2975 H   0  0  0  0  0  0  0  0  0  0  0  0
   -0.4201    1.2756    3.2493 H   0  0  0  0  0  0  0  0  0  0  0  0
   -0.7250    2.0705    1.6967 H   0  0  0  0  0  0  0  0  0  0  0  0
  1  2  1  0
  1  4  1  0
  1  5  1  0
  1  6  1  0
  2  3  2  3
  2  7  1  0
  3  8  1  0
  9 10  2  3
  9 12  1  0
  9 13  1  0
 10 11  1  0
 11 14  1  0
 11 15  1  0
 11 16  1  0
M  RAD  1  10   2
M  END
>  <reaction>  (16) 
rmg_rxn_16511

>  <mol_properties>  (16) 
{"1": {"label": "*0", "atom_type": "Cd"}, "2": {"label": "*1", "atom_type": "N3d"}, "7": {"label": "*2", "atom_type": "H0"}, "8": {"label": "*4", "atom_type": "Cd"}, "9": {"label": "*3", "atom_type": "Cd"}}

>  <type>  (16) 
unop_12

>  <geom_source>  (16) 
Heuristics

$$$$

     RDKit          3D

 16 14  0  0  0  0  0  0  0  0999 V2000
   -0.1268   -0.4700   -3.0927 C   0  0  0  0  0  0  0  0  0  0  0  0
   -0.1268   -0.4700   -1.6003 C   0  0  0  0  0  0  0  0  0  0  0  0
   -0.1268    0.6026   -0.9327 N   0  0  0  0  0  0  0  0  0  0  0  0
    0.7514   -1.0000   -3.4701 H   0  0  0  0  0  0  0  0  0  0  0  0
   -1.0051   -1.0000   -3.4701 H   0  0  0  0  0  0  0  0  0  0  0  0
   -0.1268    0.5506   -3.4713 H   0  0  0  0  0  0  0  0  0  0  0  0
   -0.1268   -1.4597   -1.1257 H   0  0  0  0  0  0  0  0  0  0  0  0
   -0.1268    0.3724    0.2669 H   0  0  0  0  0  0  0  0  0  0  0  0
   -0.7069    0.9932    2.3634 C   0  0  0  0  0  0  0  0  0  0  0  0
   -0.1268    0.1266    1.5480 C   0  0  0  0  0  3  0  0  0  0  0  0
    1.0930   -0.6748    1.8704 C   0  0  0  0  0  0  0  0  0  0  0  0
   -1.5913    1.5438    2.0687 H   0  0  0  0  0  0  0  0  0  0  0  0
   -0.3167    1.1833    3.3577 H   0  0  0  0  0  0  0  0  0  0  0  0
    1.8963   -0.4634    1.1600 H   0  0  0  0  0  0  0  0  0  0  0  0
    1.4575   -0.4591    2.8755 H   0  0  0  0  0  0  0  0  0  0  0  0
    0.8840   -1.7456    1.8025 H   0  0  0  0  0  0  0  0  0  0  0  0
  1  2  1  0
  1  4  1  0
  1  5  1  0
  1  6  1  0
  2  3  2  3
  2  7  1  0
  3  8  1  0
  9 10  2  3
  9 12  1  0
  9 13  1  0
 10 11  1  0
 11 14  1  0
 11 15  1  0
 11 16  1  0
M  RAD  1  10   2
M  END
>  <reaction>  (17) 
rmg_rxn_16511

>  <mol_properties>  (17) 
{"1": {"label": "*0", "atom_type": "Cd"}, "2": {"label": "*1", "atom_type": "N3d"}, "7": {"label": "*2", "atom_type": "H0"}, "8": {"label": "*4", "atom_type": "Cd"}, "9": {"label": "*3", "atom_type": "Cd"}}

>  <type>  (17) 
unop_13

>  <geom_source>  (17) 
Heuristics

$$$$

     RDKit          3D

 16 14  0  0  0  0  0  0  0  0999 V2000
    0.0000   -0.4698   -3.1288 C   0  0  0  0  0  0  0  0  0  0  0  0
    0.0000   -0.4698   -1.6365 C   0  0  0  0  0  0  0  0  0  0  0  0
    0.0000    0.6028   -0.9688 N   0  0  0  0  0  0  0  0  0  0  0  0
    0.8783   -0.9998   -3.5062 H   0  0  0  0  0  0  0  0  0  0  0  0
   -0.8783   -0.9998   -3.5062 H   0  0  0  0  0  0  0  0  0  0  0  0
   -0.0000    0.5508   -3.5074 H   0  0  0  0  0  0  0  0  0  0  0  0
    0.0000   -1.4595   -1.1618 H   0  0  0  0  0  0  0  0  0  0  0  0
    0.0000    0.3727    0.2308 H   0  0  0  0  0  0  0  0  0  0  0  0
    0.0000   -1.1326    1.9194 C   0  0  0  0  0  0  0  0  0  0  0  0
    0.0000    0.1269    1.5119 C   0  0  0  0  0  3  0  0  0  0  0  0
   -0.0000    1.3218    2.4098 C   0  0  0  0  0  0  0  0  0  0  0  0
    0.0000   -1.9556    1.2159 H   0  0  0  0  0  0  0  0  0  0  0  0
   -0.0000   -1.3862    2.9743 H   0  0  0  0  0  0  0  0  0  0  0  0
   -0.8777    1.9467    2.2256 H   0  0  0  0  0  0  0  0  0  0  0  0
   -0.0000    1.0307    3.4609 H   0  0  0  0  0  0  0  0  0  0  0  0
    0.8777    1.9467    2.2256 H   0  0  0  0  0  0  0  0  0  0  0  0
  1  2  1  0
  1  4  1  0
  1  5  1  0
  1  6  1  0
  2  3  2  3
  2  7  1  0
  3  8  1  0
  9 10  2  3
  9 12  1  0
  9 13  1  0
 10 11  1  0
 11 14  1  0
 11 15  1  0
 11 16  1  0
M  RAD  1  10   2
M  END
>  <reaction>  (18) 
rmg_rxn_16511

>  <mol_properties>  (18) 
{"1": {"label": "*0", "atom_type": "Cd"}, "2": {"label": "*1", "atom_type": "N3d"}, "7": {"label": "*2", "atom_type": "H0"}, "8": {"label": "*4", "atom_type": "Cd"}, "9": {"label": "*3", "atom_type": "Cd"}}

>  <type>  (18) 
unop_14

>  <geom_source>  (18) 
Heuristics

$$$$

     RDKit          3D

 16 14  0  0  0  0  0  0  0  0999 V2000
   -0.0396   -0.4953   -3.1239 C   0  0  0  0  0  0  0  0  0  0  0  0
   -0.0396   -0.4953   -1.6316 C   0  0  0  0  0  0  0  0  0  0  0  0
   -0.0396    0.5773   -0.9639 N   0  0  0  0  0  0  0  0  0  0  0  0
    0.8387   -1.0253   -3.5013 H   0  0  0  0  0  0  0  0  0  0  0  0
   -0.9179   -1.0253   -3.5013 H   0  0  0  0  0  0  0  0  0  0  0  0
   -0.0396    0.5253   -3.5025 H   0  0  0  0  0  0  0  0  0  0  0  0
   -0.0396   -1.4850   -1.1569 H   0  0  0  0  0  0  0  0  0  0  0  0
   -0.0396    0.3472    0.2357 H   0  0  0  0  0  0  0  0  0  0  0  0
    0.5404   -1.0054    1.9535 C   0  0  0  0  0  0  0  0  0  0  0  0
   -0.0396    0.1014    1.5168 C   0  0  0  0  0  3  0  0  0  0  0  0
   -0.3740    1.2886    2.3611 C   0  0  0  0  0  0  0  0  0  0  0  0
    0.7564   -1.8322    1.2886 H   0  0  0  0  0  0  0  0  0  0  0  0
    0.8208   -1.1245    2.9949 H   0  0  0  0  0  0  0  0  0  0  0  0
   -1.4471    1.4947    2.3349 H   0  0  0  0  0  0  0  0  0  0  0  0
   -0.0789    1.1348    3.3999 H   0  0  0  0  0  0  0  0  0  0  0  0
    0.1297    2.1846    1.9892 H   0  0  0  0  0  0  0  0  0  0  0  0
  1  2  1  0
  1  4  1  0
  1  5  1  0
  1  6  1  0
  2  3  2  3
  2  7  1  0
  3  8  1  0
  9 10  2  3
  9 12  1  0
  9 13  1  0
 10 11  1  0
 11 14  1  0
 11 15  1  0
 11 16  1  0
M  RAD  1  10   2
M  END
>  <reaction>  (19) 
rmg_rxn_16511

>  <mol_properties>  (19) 
{"1": {"label": "*0", "atom_type": "Cd"}, "2": {"label": "*1", "atom_type": "N3d"}, "7": {"label": "*2", "atom_type": "H0"}, "8": {"label": "*4", "atom_type": "Cd"}, "9": {"label": "*3", "atom_type": "Cd"}}

>  <type>  (19) 
unop_15

>  <geom_source>  (19) 
gaussian_log

$$$$
