
     RDKit          3D

 15 14  0  0  0  0  0  0  0  0999 V2000
   -1.2811   -0.4129    1.0228 C   0  0  0  0  0  0  0  0  0  0  0  0
   -1.0023   -0.5809   -0.4650 C   0  0  0  0  0  0  0  0  0  0  0  0
   -2.0576    0.0568   -1.3449 C   0  0  0  0  0  0  0  0  0  0  0  0
   -2.0663    1.4464   -1.1307 O   0  0  0  0  0  0  0  0  0  0  0  0
   -3.0424    2.1072   -1.8849 C   0  0  0  0  0  0  0  0  0  0  0  0
   -2.2382   -0.8657    1.2935 H   0  0  0  0  0  0  0  0  0  0  0  0
   -1.3219    0.6426    1.2914 H   0  0  0  0  0  0  0  0  0  0  0  0
   -0.5042   -0.8881    1.6236 H   0  0  0  0  0  0  0  0  0  0  0  0
   -0.0316   -0.1460   -0.7167 H   0  0  0  0  0  0  0  0  0  0  0  0
   -0.9494   -1.6429   -0.7203 H   0  0  0  0  0  0  0  0  0  0  0  0
   -1.8518   -0.1570   -2.4041 H   0  0  0  0  0  0  0  0  0  0  0  0
   -3.0491   -0.3636   -1.1124 H   0  0  0  0  0  0  0  0  0  0  0  0
   -4.0521    1.7545   -1.6343 H   0  0  0  0  0  0  0  0  0  0  0  0
   -2.8850    1.9634   -2.9626 H   0  0  0  0  0  0  0  0  0  0  0  0
   -2.9730    3.1700   -1.6570 H   0  0  0  0  0  0  0  0  0  0  0  0
  1  2  1  0
  1  6  1  0
  1  7  1  0
  1  8  1  0
  2  3  1  0
  2  9  1  0
  2 10  1  0
  3  4  1  0
  3 11  1  0
  3 12  1  0
  4  5  1  0
  5 13  1  0
  5 14  1  0
  5 15  1  0
M  END
>  <reaction>  (1) 
rmg_rxn_671

>  <mol_properties>  (1) 
{"4": {"label": "donator", "atom_type": "Cs"}, "12": {"label": "d_hydrogen", "atom_type": "H0"}}

>  <type>  (1) 
r1h

$$$$

     RDKit          3D

  8  7  0  0  0  0  0  0  0  0999 V2000
   -1.0336    0.3440   -0.0356 C   0  0  0  0  0  3  0  0  0  0  0  0
    0.1991   -0.4326   -0.0698 C   0  0  0  0  0  0  0  0  0  0  0  0
    0.9631   -0.0368    1.2269 N   0  0  0  0  0  0  0  0  0  0  0  0
    0.8138   -0.8074    2.1160 O   0  0  0  0  0  0  0  0  0  0  0  0
   -1.0668    1.3490   -0.4321 H   0  0  0  0  0  0  0  0  0  0  0  0
   -1.8598    0.0102    0.5774 H   0  0  0  0  0  0  0  0  0  0  0  0
    0.0447   -1.5108   -0.0264 H   0  0  0  0  0  0  0  0  0  0  0  0
    0.8639   -0.1518   -0.8851 H   0  0  0  0  0  0  0  0  0  0  0  0
  1  2  1  0
  1  5  1  0
  1  6  1  0
  2  3  1  0
  2  7  1  0
  2  8  1  0
  3  4  2  0
M  RAD  1   1   2
M  END
>  <reaction>  (2) 
rmg_rxn_671

>  <mol_properties>  (2) 
{"0": {"label": "acceptor", "atom_type": "Cs"}}

>  <type>  (2) 
r2

$$$$

     RDKit          3D

  9  8  0  0  0  0  0  0  0  0999 V2000
   -1.0314    0.2323   -0.1227 C   0  0  0  0  0  0  0  0  0  0  0  0
    0.3094   -0.4511    0.0063 C   0  0  0  0  0  0  0  0  0  0  0  0
    0.3197   -1.7698    0.6841 N   0  0  0  0  0  0  0  0  0  0  0  0
   -0.7498   -2.1455    1.0557 O   0  0  0  0  0  0  0  0  0  0  0  0
   -1.4744    0.4198    0.8552 H   0  0  0  0  0  0  0  0  0  0  0  0
   -0.9073    1.1865   -0.6350 H   0  0  0  0  0  0  0  0  0  0  0  0
   -1.7319   -0.3778   -0.6927 H   0  0  0  0  0  0  0  0  0  0  0  0
    1.0375    0.1401    0.5713 H   0  0  0  0  0  0  0  0  0  0  0  0
    0.7826   -0.6494   -0.9609 H   0  0  0  0  0  0  0  0  0  0  0  0
  1  2  1  0
  1  5  1  0
  1  6  1  0
  1  7  1  0
  2  3  1  0
  2  8  1  0
  2  9  1  0
  3  4  2  0
M  END
>  <reaction>  (3) 
rmg_rxn_671

>  <mol_properties>  (3) 
{"0": {"label": "acceptor", "atom_type": "Cs"}, "8": {"label": "a_hydrogen", "atom_type": "H0"}}

>  <type>  (3) 
r2h

$$$$

     RDKit          3D

 23 21  0  0  0  0  0  0  0  0999 V2000
   -0.0843    2.0981    0.0932 C   0  0  0  0  0  3  0  0  0  0  0  0
    0.4957    1.2512   -0.9905 C   0  0  0  0  0  0  0  0  0  0  0  0
    1.7683    0.5487   -0.7054 N   0  0  0  0  0  0  0  0  0  0  0  0
    2.2511    0.7851    0.3608 O   0  0  0  0  0  0  0  0  0  0  0  0
    0.6401    2.5306    0.7769 H   0  0  0  0  0  0  0  0  0  0  0  0
   -0.8178    2.8170   -0.2620 H   0  0  0  0  0  0  0  0  0  0  0  0
   -0.1775    0.4472   -1.3131 H   0  0  0  0  0  0  0  0  0  0  0  0
    0.7267    1.8096   -1.9079 H   0  0  0  0  0  0  0  0  0  0  0  0
   -0.2024   -2.5655   -1.1047 C   0  0  0  0  0  0  0  0  0  0  0  0
   -0.4647   -2.8499    0.3683 C   0  0  0  0  0  0  0  0  0  0  0  0
   -0.5324   -1.5987    1.2169 C   0  0  0  0  0  0  0  0  0  0  0  0
   -1.6309   -0.8083    0.7995 O   0  0  0  0  0  0  0  0  0  0  0  0
   -1.7194    0.4083    1.4331 C   0  0  0  0  0  0  0  0  0  0  0  0
    0.7369   -2.0232   -1.2384 H   0  0  0  0  0  0  0  0  0  0  0  0
   -1.0064   -1.9646   -1.5320 H   0  0  0  0  0  0  0  0  0  0  0  0
   -0.1375   -3.4924   -1.6759 H   0  0  0  0  0  0  0  0  0  0  0  0
   -1.3996   -3.4039    0.4855 H   0  0  0  0  0  0  0  0  0  0  0  0
    0.3303   -3.4807    0.7746 H   0  0  0  0  0  0  0  0  0  0  0  0
   -0.6571   -1.8560    2.2767 H   0  0  0  0  0  0  0  0  0  0  0  0
    0.3951   -1.0210    1.1237 H   0  0  0  0  0  0  0  0  0  0  0  0
   -0.8773    1.2509    0.8845 H   0  0  0  0  0  0  0  0  0  0  0  0
   -1.4573    0.3790    2.4961 H   0  0  0  0  0  0  0  0  0  0  0  0
   -2.6995    0.8464    1.2539 H   0  0  0  0  0  0  0  0  0  0  0  0
  1  2  1  0
  1  5  1  0
  1  6  1  0
  2  3  1  0
  2  7  1  0
  2  8  1  0
  3  4  2  0
  9 10  1  0
  9 14  1  0
  9 15  1  0
  9 16  1  0
 10 11  1  0
 10 17  1  0
 10 18  1  0
 11 12  1  0
 11 19  1  0
 11 20  1  0
 12 13  1  0
 13 21  1  0
 13 22  1  0
 13 23  1  0
M  RAD  1   1   2
M  END
>  <reaction>  (4) 
rmg_rxn_671

>  <mol_properties>  (4) 
{"0": {"label": "*3", "atom_type": "Cs"}, "1": {"label": "*4", "atom_type": "Cs"}, "11": {"label": "*0", "atom_type": "O2s"}, "12": {"label": "*1", "atom_type": "Cs"}, "20": {"label": "*2", "atom_type": "H0"}}

>  <type>  (4) 
ts

$$$$

     RDKit          3D

 23 21  0  0  0  0  0  0  0  0999 V2000
    0.5984    1.2438    0.0090 C   0  0  0  0  0  0  0  0  0  0  0  0
    0.0369    2.4103   -0.7692 C   0  0  0  0  0  0  0  0  0  0  0  0
    0.7340    3.7096   -0.6125 N   0  0  0  0  0  0  0  0  0  0  0  0
    1.6735    3.6837    0.1221 O   0  0  0  0  0  0  0  0  0  0  0  0
    1.6307    1.0405   -0.2750 H   0  0  0  0  0  0  0  0  0  0  0  0
    0.5816    1.4399    1.0808 H   0  0  0  0  0  0  0  0  0  0  0  0
    0.0363    2.2415   -1.8510 H   0  0  0  0  0  0  0  0  0  0  0  0
   -1.0022    2.6368   -0.5089 H   0  0  0  0  0  0  0  0  0  0  0  0
   -0.1257   -3.5880   -1.2970 C   0  0  0  0  0  0  0  0  0  0  0  0
   -0.1257   -3.5880    0.2259 C   0  0  0  0  0  0  0  0  0  0  0  0
   -0.1257   -2.1954    0.8219 C   0  0  0  0  0  0  0  0  0  0  0  0
   -1.3107   -1.5319    0.4578 O   0  0  0  0  0  0  0  0  0  0  0  0
   -1.3715   -0.2208    0.9430 C   0  0  0  0  0  3  0  0  0  0  0  0
    0.7567   -3.0743   -1.6867 H   0  0  0  0  0  0  0  0  0  0  0  0
   -1.0081   -3.0781   -1.6834 H   0  0  0  0  0  0  0  0  0  0  0  0
   -0.1207   -4.6059   -1.6893 H   0  0  0  0  0  0  0  0  0  0  0  0
   -0.9998   -4.1261    0.6015 H   0  0  0  0  0  0  0  0  0  0  0  0
    0.7561   -4.1141    0.6021 H   0  0  0  0  0  0  0  0  0  0  0  0
   -0.0488   -2.2491    1.9180 H   0  0  0  0  0  0  0  0  0  0  0  0
    0.7467   -1.6283    0.4597 H   0  0  0  0  0  0  0  0  0  0  0  0
   -0.3828    0.5142    0.4742 H   0  0  0  0  0  0  0  0  0  0  0  0
   -1.3295   -0.1947    2.0404 H   0  0  0  0  0  0  0  0  0  0  0  0
   -2.3172    0.2093    0.6158 H   0  0  0  0  0  0  0  0  0  0  0  0
  1  2  1  0
  1  5  1  0
  1  6  1  0
  1 21  1  0
  2  3  1  0
  2  7  1  0
  2  8  1  0
  3  4  2  0
  9 10  1  0
  9 14  1  0
  9 15  1  0
  9 16  1  0
 10 11  1  0
 10 17  1  0
 10 18  1  0
 11 12  1  0
 11 19  1  0
 11 20  1  0
 12 13  1  0
 13 22  1  0
 13 23  1  0
M  RAD  1  13   2
M  END
>  <reaction>  (5) 
rmg_rxn_671

>  <mol_properties>  (5) 
{"0": {"label": "*3", "atom_type": "Cs"}, "1": {"label": "*4", "atom_type": "Cs"}, "11": {"label": "*0", "atom_type": "O2s"}, "12": {"label": "*1", "atom_type": "Cs"}, "20": {"label": "*2", "atom_type": "H0"}}

>  <type>  (5) 
unop_1

>  <geom_source>  (5) 
Heuristics

$$$$

     RDKit          3D

 23 21  0  0  0  0  0  0  0  0999 V2000
    0.3437    1.7526    0.4607 C   0  0  0  0  0  0  0  0  0  0  0  0
    0.7424    1.2516   -0.9073 C   0  0  0  0  0  0  0  0  0  0  0  0
    1.5286    2.1827   -1.7519 N   0  0  0  0  0  0  0  0  0  0  0  0
    1.7596    3.2378   -1.2455 O   0  0  0  0  0  0  0  0  0  0  0  0
    1.2192    1.9993    1.0610 H   0  0  0  0  0  0  0  0  0  0  0  0
   -0.2723    2.6487    0.3885 H   0  0  0  0  0  0  0  0  0  0  0  0
    1.3595    0.3480   -0.8682 H   0  0  0  0  0  0  0  0  0  0  0  0
   -0.1169    0.9908   -1.5339 H   0  0  0  0  0  0  0  0  0  0  0  0
   -0.3804   -3.0791   -0.8453 C   0  0  0  0  0  0  0  0  0  0  0  0
   -0.3804   -3.0791    0.6776 C   0  0  0  0  0  0  0  0  0  0  0  0
   -0.3804   -1.6865    1.2737 C   0  0  0  0  0  0  0  0  0  0  0  0
   -1.5654   -1.0231    0.9095 O   0  0  0  0  0  0  0  0  0  0  0  0
   -1.6262    0.2880    1.3947 C   0  0  0  0  0  3  0  0  0  0  0  0
    0.5020   -2.5654   -1.2350 H   0  0  0  0  0  0  0  0  0  0  0  0
   -1.2628   -2.5692   -1.2317 H   0  0  0  0  0  0  0  0  0  0  0  0
   -0.3754   -4.0971   -1.2376 H   0  0  0  0  0  0  0  0  0  0  0  0
   -1.2545   -3.6172    1.0532 H   0  0  0  0  0  0  0  0  0  0  0  0
    0.5014   -3.6052    1.0539 H   0  0  0  0  0  0  0  0  0  0  0  0
   -0.3035   -1.7402    2.3697 H   0  0  0  0  0  0  0  0  0  0  0  0
    0.4920   -1.1195    0.9115 H   0  0  0  0  0  0  0  0  0  0  0  0
   -0.6375    1.0231    0.9259 H   0  0  0  0  0  0  0  0  0  0  0  0
   -1.5842    0.3142    2.4922 H   0  0  0  0  0  0  0  0  0  0  0  0
   -2.5719    0.7182    1.0676 H   0  0  0  0  0  0  0  0  0  0  0  0
  1  2  1  0
  1  5  1  0
  1  6  1  0
  1 21  1  0
  2  3  1  0
  2  7  1  0
  2  8  1  0
  3  4  2  0
  9 10  1  0
  9 14  1  0
  9 15  1  0
  9 16  1  0
 10 11  1  0
 10 17  1  0
 10 18  1  0
 11 12  1  0
 11 19  1  0
 11 20  1  0
 12 13  1  0
 13 22  1  0
 13 23  1  0
M  RAD  1  13   2
M  END
>  <reaction>  (6) 
rmg_rxn_671

>  <mol_properties>  (6) 
{"0": {"label": "*3", "atom_type": "Cs"}, "1": {"label": "*4", "atom_type": "Cs"}, "11": {"label": "*0", "atom_type": "O2s"}, "12": {"label": "*1", "atom_type": "Cs"}, "20": {"label": "*2", "atom_type": "H0"}}

>  <type>  (6) 
unop_2

>  <geom_source>  (6) 
Heuristics

$$$$

     RDKit          3D

 23 21  0  0  0  0  0  0  0  0999 V2000
    0.4583    1.2626   -0.1391 C   0  0  0  0  0  0  0  0  0  0  0  0
    0.0133    2.7023   -0.2431 C   0  0  0  0  0  0  0  0  0  0  0  0
    1.0712    3.7342   -0.1223 N   0  0  0  0  0  0  0  0  0  0  0  0
    2.1702    3.3015    0.0458 O   0  0  0  0  0  0  0  0  0  0  0  0
    1.1776    1.0147   -0.9194 H   0  0  0  0  0  0  0  0  0  0  0  0
    0.9305    1.0642    0.8228 H   0  0  0  0  0  0  0  0  0  0  0  0
   -0.4697    2.9322   -1.1984 H   0  0  0  0  0  0  0  0  0  0  0  0
   -0.7143    2.9812    0.5260 H   0  0  0  0  0  0  0  0  0  0  0  0
   -0.2658   -3.5691   -1.4451 C   0  0  0  0  0  0  0  0  0  0  0  0
   -0.2658   -3.5691    0.0778 C   0  0  0  0  0  0  0  0  0  0  0  0
   -0.2658   -2.1765    0.6738 C   0  0  0  0  0  0  0  0  0  0  0  0
   -1.4508   -1.5131    0.3097 O   0  0  0  0  0  0  0  0  0  0  0  0
   -1.5116   -0.2020    0.7949 C   0  0  0  0  0  3  0  0  0  0  0  0
    0.6166   -3.0554   -1.8348 H   0  0  0  0  0  0  0  0  0  0  0  0
   -1.1482   -3.0592   -1.8315 H   0  0  0  0  0  0  0  0  0  0  0  0
   -0.2609   -4.5871   -1.8374 H   0  0  0  0  0  0  0  0  0  0  0  0
   -1.1399   -4.1072    0.4534 H   0  0  0  0  0  0  0  0  0  0  0  0
    0.6160   -4.0952    0.4540 H   0  0  0  0  0  0  0  0  0  0  0  0
   -0.1889   -2.2302    1.7699 H   0  0  0  0  0  0  0  0  0  0  0  0
    0.6066   -1.6095    0.3116 H   0  0  0  0  0  0  0  0  0  0  0  0
   -0.5229    0.5331    0.3261 H   0  0  0  0  0  0  0  0  0  0  0  0
   -1.4696   -0.1758    1.8923 H   0  0  0  0  0  0  0  0  0  0  0  0
   -2.4573    0.2282    0.4677 H   0  0  0  0  0  0  0  0  0  0  0  0
  1  2  1  0
  1  5  1  0
  1  6  1  0
  1 21  1  0
  2  3  1  0
  2  7  1  0
  2  8  1  0
  3  4  2  0
  9 10  1  0
  9 14  1  0
  9 15  1  0
  9 16  1  0
 10 11  1  0
 10 17  1  0
 10 18  1  0
 11 12  1  0
 11 19  1  0
 11 20  1  0
 12 13  1  0
 13 22  1  0
 13 23  1  0
M  RAD  1  13   2
M  END
>  <reaction>  (7) 
rmg_rxn_671

>  <mol_properties>  (7) 
{"0": {"label": "*3", "atom_type": "Cs"}, "1": {"label": "*4", "atom_type": "Cs"}, "11": {"label": "*0", "atom_type": "O2s"}, "12": {"label": "*1", "atom_type": "Cs"}, "20": {"label": "*2", "atom_type": "H0"}}

>  <type>  (7) 
unop_3

>  <geom_source>  (7) 
Heuristics

$$$$

     RDKit          3D

 23 21  0  0  0  0  0  0  0  0999 V2000
    0.0224    1.7716   -0.2964 C   0  0  0  0  0  0  0  0  0  0  0  0
    1.3431    1.1696    0.1218 C   0  0  0  0  0  0  0  0  0  0  0  0
    2.4610    2.1163    0.3511 N   0  0  0  0  0  0  0  0  0  0  0  0
    2.1842    3.2634    0.1761 O   0  0  0  0  0  0  0  0  0  0  0  0
   -0.3514    2.4647    0.4571 H   0  0  0  0  0  0  0  0  0  0  0  0
    0.1178    2.3200   -1.2333 H   0  0  0  0  0  0  0  0  0  0  0  0
    1.2786    0.6075    1.0592 H   0  0  0  0  0  0  0  0  0  0  0  0
    1.7431    0.4643   -0.6140 H   0  0  0  0  0  0  0  0  0  0  0  0
   -0.7017   -3.0601   -1.6024 C   0  0  0  0  0  0  0  0  0  0  0  0
   -0.7017   -3.0601   -0.0795 C   0  0  0  0  0  0  0  0  0  0  0  0
   -0.7017   -1.6675    0.5166 C   0  0  0  0  0  0  0  0  0  0  0  0
   -1.8867   -1.0040    0.1524 O   0  0  0  0  0  0  0  0  0  0  0  0
   -1.9475    0.3071    0.6376 C   0  0  0  0  0  3  0  0  0  0  0  0
    0.1807   -2.5464   -1.9921 H   0  0  0  0  0  0  0  0  0  0  0  0
   -1.5841   -2.5502   -1.9888 H   0  0  0  0  0  0  0  0  0  0  0  0
   -0.6968   -4.0781   -1.9947 H   0  0  0  0  0  0  0  0  0  0  0  0
   -1.5758   -3.5982    0.2962 H   0  0  0  0  0  0  0  0  0  0  0  0
    0.1801   -3.5862    0.2968 H   0  0  0  0  0  0  0  0  0  0  0  0
   -0.6248   -1.7212    1.6126 H   0  0  0  0  0  0  0  0  0  0  0  0
    0.1707   -1.1005    0.1544 H   0  0  0  0  0  0  0  0  0  0  0  0
   -0.9588    1.0421    0.1689 H   0  0  0  0  0  0  0  0  0  0  0  0
   -1.9055    0.3332    1.7351 H   0  0  0  0  0  0  0  0  0  0  0  0
   -2.8932    0.7372    0.3105 H   0  0  0  0  0  0  0  0  0  0  0  0
  1  2  1  0
  1  5  1  0
  1  6  1  0
  1 21  1  0
  2  3  1  0
  2  7  1  0
  2  8  1  0
  3  4  2  0
  9 10  1  0
  9 14  1  0
  9 15  1  0
  9 16  1  0
 10 11  1  0
 10 17  1  0
 10 18  1  0
 11 12  1  0
 11 19  1  0
 11 20  1  0
 12 13  1  0
 13 22  1  0
 13 23  1  0
M  RAD  1  13   2
M  END
>  <reaction>  (8) 
rmg_rxn_671

>  <mol_properties>  (8) 
{"0": {"label": "*3", "atom_type": "Cs"}, "1": {"label": "*4", "atom_type": "Cs"}, "11": {"label": "*0", "atom_type": "O2s"}, "12": {"label": "*1", "atom_type": "Cs"}, "20": {"label": "*2", "atom_type": "H0"}}

>  <type>  (8) 
unop_4

>  <geom_source>  (8) 
Heuristics

$$$$

     RDKit          3D

 23 21  0  0  0  0  0  0  0  0999 V2000
    0.3835    1.2928   -0.1216 C   0  0  0  0  0  0  0  0  0  0  0  0
    0.2761    2.6956    0.4282 C   0  0  0  0  0  0  0  0  0  0  0  0
    1.3179    3.6587   -0.0024 N   0  0  0  0  0  0  0  0  0  0  0  0
    2.1346    3.2075   -0.7457 O   0  0  0  0  0  0  0  0  0  0  0  0
    0.3302    1.2906   -1.2101 H   0  0  0  0  0  0  0  0  0  0  0  0
    1.3265    0.8278    0.1653 H   0  0  0  0  0  0  0  0  0  0  0  0
   -0.6641    3.1886    0.1601 H   0  0  0  0  0  0  0  0  0  0  0  0
    0.3221    2.7305    1.5216 H   0  0  0  0  0  0  0  0  0  0  0  0
   -0.3405   -3.5389   -1.4276 C   0  0  0  0  0  0  0  0  0  0  0  0
   -0.3405   -3.5389    0.0953 C   0  0  0  0  0  0  0  0  0  0  0  0
   -0.3405   -2.1463    0.6914 C   0  0  0  0  0  0  0  0  0  0  0  0
   -1.5255   -1.4829    0.3272 O   0  0  0  0  0  0  0  0  0  0  0  0
   -1.5863   -0.1718    0.8124 C   0  0  0  0  0  3  0  0  0  0  0  0
    0.5419   -3.0253   -1.8173 H   0  0  0  0  0  0  0  0  0  0  0  0
   -1.2229   -3.0290   -1.8140 H   0  0  0  0  0  0  0  0  0  0  0  0
   -0.3356   -4.5569   -1.8199 H   0  0  0  0  0  0  0  0  0  0  0  0
   -1.2146   -4.0771    0.4709 H   0  0  0  0  0  0  0  0  0  0  0  0
    0.5412   -4.0650    0.4716 H   0  0  0  0  0  0  0  0  0  0  0  0
   -0.2637   -2.2000    1.7874 H   0  0  0  0  0  0  0  0  0  0  0  0
    0.5319   -1.5793    0.3292 H   0  0  0  0  0  0  0  0  0  0  0  0
   -0.5977    0.5633    0.3436 H   0  0  0  0  0  0  0  0  0  0  0  0
   -1.5443   -0.1457    1.9099 H   0  0  0  0  0  0  0  0  0  0  0  0
   -2.5320    0.2584    0.4852 H   0  0  0  0  0  0  0  0  0  0  0  0
  1  2  1  0
  1  5  1  0
  1  6  1  0
  1 21  1  0
  2  3  1  0
  2  7  1  0
  2  8  1  0
  3  4  2  0
  9 10  1  0
  9 14  1  0
  9 15  1  0
  9 16  1  0
 10 11  1  0
 10 17  1  0
 10 18  1  0
 11 12  1  0
 11 19  1  0
 11 20  1  0
 12 13  1  0
 13 22  1  0
 13 23  1  0
M  RAD  1  13   2
M  END
>  <reaction>  (9) 
rmg_rxn_671

>  <mol_properties>  (9) 
{"0": {"label": "*3", "atom_type": "Cs"}, "1": {"label": "*4", "atom_type": "Cs"}, "11": {"label": "*0", "atom_type": "O2s"}, "12": {"label": "*1", "atom_type": "Cs"}, "20": {"label": "*2", "atom_type": "H0"}}

>  <type>  (9) 
unop_5

>  <geom_source>  (9) 
Heuristics

$$$$

     RDKit          3D

 23 21  0  0  0  0  0  0  0  0999 V2000
    0.1639    1.5568   -0.4159 C   0  0  0  0  0  0  0  0  0  0  0  0
    1.3489    1.4648    0.5161 C   0  0  0  0  0  0  0  0  0  0  0  0
    2.1160    2.7139    0.7394 N   0  0  0  0  0  0  0  0  0  0  0  0
    1.7022    3.6634    0.1475 O   0  0  0  0  0  0  0  0  0  0  0  0
   -0.5719    2.2721   -0.0491 H   0  0  0  0  0  0  0  0  0  0  0  0
    0.4693    1.8763   -1.4121 H   0  0  0  0  0  0  0  0  0  0  0  0
    1.0744    1.1414    1.5255 H   0  0  0  0  0  0  0  0  0  0  0  0
    2.1051    0.7496    0.1764 H   0  0  0  0  0  0  0  0  0  0  0  0
   -0.5602   -3.2749   -1.7219 C   0  0  0  0  0  0  0  0  0  0  0  0
   -0.5602   -3.2749   -0.1990 C   0  0  0  0  0  0  0  0  0  0  0  0
   -0.5602   -1.8824    0.3971 C   0  0  0  0  0  0  0  0  0  0  0  0
   -1.7452   -1.2189    0.0329 O   0  0  0  0  0  0  0  0  0  0  0  0
   -1.8060    0.0922    0.5181 C   0  0  0  0  0  3  0  0  0  0  0  0
    0.3222   -2.7613   -2.1116 H   0  0  0  0  0  0  0  0  0  0  0  0
   -1.4426   -2.7650   -2.1083 H   0  0  0  0  0  0  0  0  0  0  0  0
   -0.5553   -4.2929   -2.1142 H   0  0  0  0  0  0  0  0  0  0  0  0
   -1.4343   -3.8131    0.1766 H   0  0  0  0  0  0  0  0  0  0  0  0
    0.3215   -3.8011    0.1773 H   0  0  0  0  0  0  0  0  0  0  0  0
   -0.4834   -1.9361    1.4931 H   0  0  0  0  0  0  0  0  0  0  0  0
    0.3122   -1.3153    0.0349 H   0  0  0  0  0  0  0  0  0  0  0  0
   -0.8173    0.8273    0.0493 H   0  0  0  0  0  0  0  0  0  0  0  0
   -1.7640    0.1183    1.6156 H   0  0  0  0  0  0  0  0  0  0  0  0
   -2.7517    0.5223    0.1910 H   0  0  0  0  0  0  0  0  0  0  0  0
  1  2  1  0
  1  5  1  0
  1  6  1  0
  1 21  1  0
  2  3  1  0
  2  7  1  0
  2  8  1  0
  3  4  2  0
  9 10  1  0
  9 14  1  0
  9 15  1  0
  9 16  1  0
 10 11  1  0
 10 17  1  0
 10 18  1  0
 11 12  1  0
 11 19  1  0
 11 20  1  0
 12 13  1  0
 13 22  1  0
 13 23  1  0
M  RAD  1  13   2
M  END
>  <reaction>  (10) 
rmg_rxn_671

>  <mol_properties>  (10) 
{"0": {"label": "*3", "atom_type": "Cs"}, "1": {"label": "*4", "atom_type": "Cs"}, "11": {"label": "*0", "atom_type": "O2s"}, "12": {"label": "*1", "atom_type": "Cs"}, "20": {"label": "*2", "atom_type": "H0"}}

>  <type>  (10) 
unop_6

>  <geom_source>  (10) 
Heuristics

$$$$

     RDKit          3D

 23 21  0  0  0  0  0  0  0  0999 V2000
    0.3307    1.3681   -0.3607 C   0  0  0  0  0  0  0  0  0  0  0  0
    1.1643    1.8866    0.7873 C   0  0  0  0  0  0  0  0  0  0  0  0
    1.6629    3.2780    0.6700 N   0  0  0  0  0  0  0  0  0  0  0  0
    1.3431    3.8372   -0.3341 O   0  0  0  0  0  0  0  0  0  0  0  0
   -0.5651    1.9725   -0.5022 H   0  0  0  0  0  0  0  0  0  0  0  0
    0.8923    1.3835   -1.2945 H   0  0  0  0  0  0  0  0  0  0  0  0
    0.6281    1.8795    1.7419 H   0  0  0  0  0  0  0  0  0  0  0  0
    2.0706    1.2964    0.9577 H   0  0  0  0  0  0  0  0  0  0  0  0
   -0.3934   -3.4636   -1.6667 C   0  0  0  0  0  0  0  0  0  0  0  0
   -0.3934   -3.4636   -0.1437 C   0  0  0  0  0  0  0  0  0  0  0  0
   -0.3934   -2.0710    0.4523 C   0  0  0  0  0  0  0  0  0  0  0  0
   -1.5784   -1.4076    0.0882 O   0  0  0  0  0  0  0  0  0  0  0  0
   -1.6392   -0.0965    0.5733 C   0  0  0  0  0  3  0  0  0  0  0  0
    0.4890   -2.9499   -2.0564 H   0  0  0  0  0  0  0  0  0  0  0  0
   -1.2758   -2.9537   -2.0531 H   0  0  0  0  0  0  0  0  0  0  0  0
   -0.3885   -4.4816   -2.0590 H   0  0  0  0  0  0  0  0  0  0  0  0
   -1.2675   -4.0017    0.2319 H   0  0  0  0  0  0  0  0  0  0  0  0
    0.4883   -3.9897    0.2325 H   0  0  0  0  0  0  0  0  0  0  0  0
   -0.3166   -2.1247    1.5484 H   0  0  0  0  0  0  0  0  0  0  0  0
    0.4790   -1.5040    0.0901 H   0  0  0  0  0  0  0  0  0  0  0  0
   -0.6505    0.6386    0.1046 H   0  0  0  0  0  0  0  0  0  0  0  0
   -1.5972   -0.0703    1.6708 H   0  0  0  0  0  0  0  0  0  0  0  0
   -2.5849    0.3337    0.2462 H   0  0  0  0  0  0  0  0  0  0  0  0
  1  2  1  0
  1  5  1  0
  1  6  1  0
  1 21  1  0
  2  3  1  0
  2  7  1  0
  2  8  1  0
  3  4  2  0
  9 10  1  0
  9 14  1  0
  9 15  1  0
  9 16  1  0
 10 11  1  0
 10 17  1  0
 10 18  1  0
 11 12  1  0
 11 19  1  0
 11 20  1  0
 12 13  1  0
 13 22  1  0
 13 23  1  0
M  RAD  1  13   2
M  END
>  <reaction>  (11) 
rmg_rxn_671

>  <mol_properties>  (11) 
{"0": {"label": "*3", "atom_type": "Cs"}, "1": {"label": "*4", "atom_type": "Cs"}, "11": {"label": "*0", "atom_type": "O2s"}, "12": {"label": "*1", "atom_type": "Cs"}, "20": {"label": "*2", "atom_type": "H0"}}

>  <type>  (11) 
unop_7

>  <geom_source>  (11) 
Heuristics

$$$$

     RDKit          3D

 23 21  0  0  0  0  0  0  0  0999 V2000
    0.6434    1.3340    0.2462 C   0  0  0  0  0  0  0  0  0  0  0  0
    0.2176    1.9904   -1.0458 C   0  0  0  0  0  0  0  0  0  0  0  0
    0.6675    3.3868   -1.2605 N   0  0  0  0  0  0  0  0  0  0  0  0
    1.3249    3.8387   -0.3735 O   0  0  0  0  0  0  0  0  0  0  0  0
    1.7293    1.2909    0.3276 H   0  0  0  0  0  0  0  0  0  0  0  0
    0.2675    1.8822    1.1098 H   0  0  0  0  0  0  0  0  0  0  0  0
    0.5769    1.4594   -1.9334 H   0  0  0  0  0  0  0  0  0  0  0  0
   -0.8701    2.0447   -1.1591 H   0  0  0  0  0  0  0  0  0  0  0  0
   -0.0806   -3.4977   -1.0598 C   0  0  0  0  0  0  0  0  0  0  0  0
   -0.0806   -3.4977    0.4631 C   0  0  0  0  0  0  0  0  0  0  0  0
   -0.0806   -2.1051    1.0592 C   0  0  0  0  0  0  0  0  0  0  0  0
   -1.2656   -1.4417    0.6950 O   0  0  0  0  0  0  0  0  0  0  0  0
   -1.3264   -0.1306    1.1802 C   0  0  0  0  0  3  0  0  0  0  0  0
    0.8018   -2.9841   -1.4495 H   0  0  0  0  0  0  0  0  0  0  0  0
   -0.9631   -2.9878   -1.4462 H   0  0  0  0  0  0  0  0  0  0  0  0
   -0.0757   -4.5157   -1.4521 H   0  0  0  0  0  0  0  0  0  0  0  0
   -0.9547   -4.0359    0.8388 H   0  0  0  0  0  0  0  0  0  0  0  0
    0.8011   -4.0239    0.8394 H   0  0  0  0  0  0  0  0  0  0  0  0
   -0.0038   -2.1588    2.1552 H   0  0  0  0  0  0  0  0  0  0  0  0
    0.7918   -1.5381    0.6970 H   0  0  0  0  0  0  0  0  0  0  0  0
   -0.3378    0.6045    0.7114 H   0  0  0  0  0  0  0  0  0  0  0  0
   -1.2844   -0.1045    2.2777 H   0  0  0  0  0  0  0  0  0  0  0  0
   -2.2721    0.2995    0.8531 H   0  0  0  0  0  0  0  0  0  0  0  0
  1  2  1  0
  1  5  1  0
  1  6  1  0
  1 21  1  0
  2  3  1  0
  2  7  1  0
  2  8  1  0
  3  4  2  0
  9 10  1  0
  9 14  1  0
  9 15  1  0
  9 16  1  0
 10 11  1  0
 10 17  1  0
 10 18  1  0
 11 12  1  0
 11 19  1  0
 11 20  1  0
 12 13  1  0
 13 22  1  0
 13 23  1  0
M  RAD  1  13   2
M  END
>  <reaction>  (12) 
rmg_rxn_671

>  <mol_properties>  (12) 
{"0": {"label": "*3", "atom_type": "Cs"}, "1": {"label": "*4", "atom_type": "Cs"}, "11": {"label": "*0", "atom_type": "O2s"}, "12": {"label": "*1", "atom_type": "Cs"}, "20": {"label": "*2", "atom_type": "H0"}}

>  <type>  (12) 
unop_8

>  <geom_source>  (12) 
Heuristics

$$$$

     RDKit          3D

 23 21  0  0  0  0  0  0  0  0999 V2000
   -0.0090    1.9165   -0.0262 C   0  0  0  0  0  0  0  0  0  0  0  0
    1.1952    1.0412   -0.2822 C   0  0  0  0  0  0  0  0  0  0  0  0
    2.5018    1.7306   -0.4083 N   0  0  0  0  0  0  0  0  0  0  0  0
    2.4510    2.9167   -0.2911 O   0  0  0  0  0  0  0  0  0  0  0  0
    0.1001    2.4757    0.9028 H   0  0  0  0  0  0  0  0  0  0  0  0
   -0.1519    2.6363   -0.8319 H   0  0  0  0  0  0  0  0  0  0  0  0
    1.3629    0.3034    0.5091 H   0  0  0  0  0  0  0  0  0  0  0  0
    1.1134    0.4623   -1.2080 H   0  0  0  0  0  0  0  0  0  0  0  0
   -0.7330   -2.9153   -1.3322 C   0  0  0  0  0  0  0  0  0  0  0  0
   -0.7330   -2.9153    0.1907 C   0  0  0  0  0  0  0  0  0  0  0  0
   -0.7330   -1.5227    0.7868 C   0  0  0  0  0  0  0  0  0  0  0  0
   -1.9181   -0.8592    0.4226 O   0  0  0  0  0  0  0  0  0  0  0  0
   -1.9789    0.4519    0.9078 C   0  0  0  0  0  3  0  0  0  0  0  0
    0.1494   -2.4016   -1.7219 H   0  0  0  0  0  0  0  0  0  0  0  0
   -1.6155   -2.4054   -1.7186 H   0  0  0  0  0  0  0  0  0  0  0  0
   -0.7281   -3.9332   -1.7245 H   0  0  0  0  0  0  0  0  0  0  0  0
   -1.6071   -3.4534    0.5663 H   0  0  0  0  0  0  0  0  0  0  0  0
    0.1487   -3.4414    0.5670 H   0  0  0  0  0  0  0  0  0  0  0  0
   -0.6562   -1.5764    1.8828 H   0  0  0  0  0  0  0  0  0  0  0  0
    0.1394   -0.9556    0.4246 H   0  0  0  0  0  0  0  0  0  0  0  0
   -0.9902    1.1869    0.4390 H   0  0  0  0  0  0  0  0  0  0  0  0
   -1.9369    0.4780    2.0053 H   0  0  0  0  0  0  0  0  0  0  0  0
   -2.9245    0.8820    0.5806 H   0  0  0  0  0  0  0  0  0  0  0  0
  1  2  1  0
  1  5  1  0
  1  6  1  0
  1 21  1  0
  2  3  1  0
  2  7  1  0
  2  8  1  0
  3  4  2  0
  9 10  1  0
  9 14  1  0
  9 15  1  0
  9 16  1  0
 10 11  1  0
 10 17  1  0
 10 18  1  0
 11 12  1  0
 11 19  1  0
 11 20  1  0
 12 13  1  0
 13 22  1  0
 13 23  1  0
M  RAD  1  13   2
M  END
>  <reaction>  (13) 
rmg_rxn_671

>  <mol_properties>  (13) 
{"0": {"label": "*3", "atom_type": "Cs"}, "1": {"label": "*4", "atom_type": "Cs"}, "11": {"label": "*0", "atom_type": "O2s"}, "12": {"label": "*1", "atom_type": "Cs"}, "20": {"label": "*2", "atom_type": "H0"}}

>  <type>  (13) 
unop_9

>  <geom_source>  (13) 
Heuristics

$$$$

     RDKit          3D

 23 21  0  0  0  0  0  0  0  0999 V2000
    0.5508    1.5262    0.4332 C   0  0  0  0  0  0  0  0  0  0  0  0
    0.4764    1.5722   -1.0747 C   0  0  0  0  0  0  0  0  0  0  0  0
    0.9570    2.8149   -1.7252 N   0  0  0  0  0  0  0  0  0  0  0  0
    1.3537    3.6491   -0.9704 O   0  0  0  0  0  0  0  0  0  0  0  0
    1.5770    1.6422    0.7812 H   0  0  0  0  0  0  0  0  0  0  0  0
   -0.0437    2.3217    0.8820 H   0  0  0  0  0  0  0  0  0  0  0  0
    1.0611    0.7811   -1.5556 H   0  0  0  0  0  0  0  0  0  0  0  0
   -0.5432    1.4538   -1.4559 H   0  0  0  0  0  0  0  0  0  0  0  0
   -0.1732   -3.3056   -0.8728 C   0  0  0  0  0  0  0  0  0  0  0  0
   -0.1732   -3.3056    0.6501 C   0  0  0  0  0  0  0  0  0  0  0  0
   -0.1732   -1.9130    1.2462 C   0  0  0  0  0  0  0  0  0  0  0  0
   -1.3583   -1.2495    0.8820 O   0  0  0  0  0  0  0  0  0  0  0  0
   -1.4191    0.0616    1.3672 C   0  0  0  0  0  3  0  0  0  0  0  0
    0.7092   -2.7919   -1.2625 H   0  0  0  0  0  0  0  0  0  0  0  0
   -1.0557   -2.7957   -1.2592 H   0  0  0  0  0  0  0  0  0  0  0  0
   -0.1683   -4.3236   -1.2651 H   0  0  0  0  0  0  0  0  0  0  0  0
   -1.0473   -3.8437    1.0257 H   0  0  0  0  0  0  0  0  0  0  0  0
    0.7085   -3.8317    1.0264 H   0  0  0  0  0  0  0  0  0  0  0  0
   -0.0964   -1.9667    2.3422 H   0  0  0  0  0  0  0  0  0  0  0  0
    0.6991   -1.3459    0.8840 H   0  0  0  0  0  0  0  0  0  0  0  0
   -0.4304    0.7966    0.8984 H   0  0  0  0  0  0  0  0  0  0  0  0
   -1.3771    0.0877    2.4647 H   0  0  0  0  0  0  0  0  0  0  0  0
   -2.3647    0.4917    1.0401 H   0  0  0  0  0  0  0  0  0  0  0  0
  1  2  1  0
  1  5  1  0
  1  6  1  0
  1 21  1  0
  2  3  1  0
  2  7  1  0
  2  8  1  0
  3  4  2  0
  9 10  1  0
  9 14  1  0
  9 15  1  0
  9 16  1  0
 10 11  1  0
 10 17  1  0
 10 18  1  0
 11 12  1  0
 11 19  1  0
 11 20  1  0
 12 13  1  0
 13 22  1  0
 13 23  1  0
M  RAD  1  13   2
M  END
>  <reaction>  (14) 
rmg_rxn_671

>  <mol_properties>  (14) 
{"0": {"label": "*3", "atom_type": "Cs"}, "1": {"label": "*4", "atom_type": "Cs"}, "11": {"label": "*0", "atom_type": "O2s"}, "12": {"label": "*1", "atom_type": "Cs"}, "20": {"label": "*2", "atom_type": "H0"}}

>  <type>  (14) 
unop_10

>  <geom_source>  (14) 
Heuristics

$$$$

     RDKit          3D

 23 21  0  0  0  0  0  0  0  0999 V2000
    0.4169    1.2819   -0.1963 C   0  0  0  0  0  0  0  0  0  0  0  0
    0.7774    2.3474    0.8118 C   0  0  0  0  0  0  0  0  0  0  0  0
    1.3579    3.6011    0.2734 N   0  0  0  0  0  0  0  0  0  0  0  0
    1.4753    3.6243   -0.9135 O   0  0  0  0  0  0  0  0  0  0  0  0
   -0.3232    1.6466   -0.9082 H   0  0  0  0  0  0  0  0  0  0  0  0
    1.2917    0.9617   -0.7618 H   0  0  0  0  0  0  0  0  0  0  0  0
   -0.0814    2.6871    1.3999 H   0  0  0  0  0  0  0  0  0  0  0  0
    1.5172    2.0092    1.5448 H   0  0  0  0  0  0  0  0  0  0  0  0
   -0.3071   -3.5499   -1.5022 C   0  0  0  0  0  0  0  0  0  0  0  0
   -0.3071   -3.5499    0.0207 C   0  0  0  0  0  0  0  0  0  0  0  0
   -0.3071   -2.1573    0.6167 C   0  0  0  0  0  0  0  0  0  0  0  0
   -1.4922   -1.4938    0.2526 O   0  0  0  0  0  0  0  0  0  0  0  0
   -1.5530   -0.1827    0.7378 C   0  0  0  0  0  3  0  0  0  0  0  0
    0.5752   -3.0362   -1.8919 H   0  0  0  0  0  0  0  0  0  0  0  0
   -1.1896   -3.0400   -1.8886 H   0  0  0  0  0  0  0  0  0  0  0  0
   -0.3022   -4.5679   -1.8945 H   0  0  0  0  0  0  0  0  0  0  0  0
   -1.1812   -4.0880    0.3963 H   0  0  0  0  0  0  0  0  0  0  0  0
    0.5746   -4.0760    0.3969 H   0  0  0  0  0  0  0  0  0  0  0  0
   -0.2303   -2.2110    1.7128 H   0  0  0  0  0  0  0  0  0  0  0  0
    0.5652   -1.5903    0.2545 H   0  0  0  0  0  0  0  0  0  0  0  0
   -0.5643    0.5523    0.2690 H   0  0  0  0  0  0  0  0  0  0  0  0
   -1.5110   -0.1566    1.8352 H   0  0  0  0  0  0  0  0  0  0  0  0
   -2.4987    0.2474    0.4106 H   0  0  0  0  0  0  0  0  0  0  0  0
  1  2  1  0
  1  5  1  0
  1  6  1  0
  1 21  1  0
  2  3  1  0
  2  7  1  0
  2  8  1  0
  3  4  2  0
  9 10  1  0
  9 14  1  0
  9 15  1  0
  9 16  1  0
 10 11  1  0
 10 17  1  0
 10 18  1  0
 11 12  1  0
 11 19  1  0
 11 20  1  0
 12 13  1  0
 13 22  1  0
 13 23  1  0
M  RAD  1  13   2
M  END
>  <reaction>  (15) 
rmg_rxn_671

>  <mol_properties>  (15) 
{"0": {"label": "*3", "atom_type": "Cs"}, "1": {"label": "*4", "atom_type": "Cs"}, "11": {"label": "*0", "atom_type": "O2s"}, "12": {"label": "*1", "atom_type": "Cs"}, "20": {"label": "*2", "atom_type": "H0"}}

>  <type>  (15) 
unop_11

>  <geom_source>  (15) 
Heuristics

$$$$

     RDKit          3D

 23 21  0  0  0  0  0  0  0  0999 V2000
    0.1147    1.9112    0.2812 C   0  0  0  0  0  0  0  0  0  0  0  0
    0.9814    1.0729   -0.6286 C   0  0  0  0  0  0  0  0  0  0  0  0
    2.1471    1.7511   -1.2448 N   0  0  0  0  0  0  0  0  0  0  0  0
    2.2684    2.8997   -0.9462 O   0  0  0  0  0  0  0  0  0  0  0  0
    0.6869    2.2992    1.1237 H   0  0  0  0  0  0  0  0  0  0  0  0
   -0.3094    2.7620   -0.2518 H   0  0  0  0  0  0  0  0  0  0  0  0
    1.4192    0.2064   -0.1224 H   0  0  0  0  0  0  0  0  0  0  0  0
    0.4331    0.6645   -1.4838 H   0  0  0  0  0  0  0  0  0  0  0  0
   -0.6093   -2.9205   -1.0248 C   0  0  0  0  0  0  0  0  0  0  0  0
   -0.6093   -2.9205    0.4981 C   0  0  0  0  0  0  0  0  0  0  0  0
   -0.6093   -1.5279    1.0941 C   0  0  0  0  0  0  0  0  0  0  0  0
   -1.7944   -0.8645    0.7300 O   0  0  0  0  0  0  0  0  0  0  0  0
   -1.8551    0.4466    1.2152 C   0  0  0  0  0  3  0  0  0  0  0  0
    0.2731   -2.4068   -1.4145 H   0  0  0  0  0  0  0  0  0  0  0  0
   -1.4918   -2.4106   -1.4112 H   0  0  0  0  0  0  0  0  0  0  0  0
   -0.6044   -3.9385   -1.4171 H   0  0  0  0  0  0  0  0  0  0  0  0
   -1.4834   -3.4587    0.8737 H   0  0  0  0  0  0  0  0  0  0  0  0
    0.2724   -3.4466    0.8743 H   0  0  0  0  0  0  0  0  0  0  0  0
   -0.5325   -1.5816    2.1902 H   0  0  0  0  0  0  0  0  0  0  0  0
    0.2631   -0.9609    0.7319 H   0  0  0  0  0  0  0  0  0  0  0  0
   -0.8665    1.1817    0.7464 H   0  0  0  0  0  0  0  0  0  0  0  0
   -1.8131    0.4727    2.3126 H   0  0  0  0  0  0  0  0  0  0  0  0
   -2.8008    0.8768    0.8880 H   0  0  0  0  0  0  0  0  0  0  0  0
  1  2  1  0
  1  5  1  0
  1  6  1  0
  1 21  1  0
  2  3  1  0
  2  7  1  0
  2  8  1  0
  3  4  2  0
  9 10  1  0
  9 14  1  0
  9 15  1  0
  9 16  1  0
 10 11  1  0
 10 17  1  0
 10 18  1  0
 11 12  1  0
 11 19  1  0
 11 20  1  0
 12 13  1  0
 13 22  1  0
 13 23  1  0
M  RAD  1  13   2
M  END
>  <reaction>  (16) 
rmg_rxn_671

>  <mol_properties>  (16) 
{"0": {"label": "*3", "atom_type": "Cs"}, "1": {"label": "*4", "atom_type": "Cs"}, "11": {"label": "*0", "atom_type": "O2s"}, "12": {"label": "*1", "atom_type": "Cs"}, "20": {"label": "*2", "atom_type": "H0"}}

>  <type>  (16) 
unop_12

>  <geom_source>  (16) 
Heuristics

$$$$

     RDKit          3D

 23 21  0  0  0  0  0  0  0  0999 V2000
   -0.9003    0.1797    0.9655 O   0  0  0  0  0  0  0  0  0  0  0  0
    2.2328    1.9742   -0.0268 O   0  0  0  0  0  0  0  0  0  0  0  0
    3.2400    1.3373   -0.1012 N   0  0  0  0  0  0  0  0  0  0  0  0
   -2.2898    0.7301   -0.9163 C   0  0  0  0  0  0  0  0  0  0  0  0
   -1.1479   -0.1372   -0.3838 C   0  0  0  0  0  0  0  0  0  0  0  0
    3.2168   -0.0263   -0.5698 C   0  0  0  0  0  0  0  0  0  0  0  0
   -3.6114    0.4262   -0.2136 C   0  0  0  0  0  0  0  0  0  0  0  0
    2.5120   -0.9264    0.4376 C   0  0  0  0  0  0  0  0  0  0  0  0
    0.1450   -0.6454    1.4024 C   0  0  0  0  0  3  0  0  0  0  0  0
   -2.0367    1.8038   -0.7782 H   0  0  0  0  0  0  0  0  0  0  0  0
   -2.4105    0.5414   -2.0051 H   0  0  0  0  0  0  0  0  0  0  0  0
    4.2612   -0.3784   -0.7049 H   0  0  0  0  0  0  0  0  0  0  0  0
    2.6966   -0.0784   -1.5506 H   0  0  0  0  0  0  0  0  0  0  0  0
   -1.4268   -1.2114   -0.4988 H   0  0  0  0  0  0  0  0  0  0  0  0
   -0.2439    0.0704   -1.0029 H   0  0  0  0  0  0  0  0  0  0  0  0
    2.5283   -1.9760    0.0757 H   0  0  0  0  0  0  0  0  0  0  0  0
    3.0269   -0.8773    1.4206 H   0  0  0  0  0  0  0  0  0  0  0  0
    1.2800   -0.5541    0.5805 H   0  0  0  0  0  0  0  0  0  0  0  0
   -4.4149    1.0595   -0.6454 H   0  0  0  0  0  0  0  0  0  0  0  0
   -3.8872   -0.6407   -0.3539 H   0  0  0  0  0  0  0  0  0  0  0  0
   -3.5342    0.6459    0.8723 H   0  0  0  0  0  0  0  0  0  0  0  0
   -0.2173   -1.2992    2.2227 H   0  0  0  0  0  0  0  0  0  0  0  0
    0.9813   -0.0179    1.7740 H   0  0  0  0  0  0  0  0  0  0  0  0
  1  9  1  0
  1  5  1  0
  2  3  2  0
  3  6  1  0
  4  7  1  0
  4  5  1  0
  4 10  1  0
  4 11  1  0
  5 14  1  0
  5 15  1  0
  6  8  1  0
  6 12  1  0
  6 13  1  0
  7 19  1  0
  7 20  1  0
  7 21  1  0
  8 16  1  0
  8 17  1  0
  8 18  1  0
  9 22  1  0
  9 23  1  0
M  RAD  1   9   2
M  END
>  <reaction>  (17) 
rmg_rxn_671

>  <mol_properties>  (17) 
{"0": {"label": "*3", "atom_type": "Cs"}, "1": {"label": "*4", "atom_type": "Cs"}, "11": {"label": "*0", "atom_type": "O2s"}, "12": {"label": "*1", "atom_type": "Cs"}, "20": {"label": "*2", "atom_type": "H0"}}

>  <type>  (17) 
unop_13

>  <geom_source>  (17) 
AutoTST

$$$$

     RDKit          3D

 23 21  0  0  0  0  0  0  0  0999 V2000
    0.3437    1.7526    0.4607 C   0  0  0  0  0  0  0  0  0  0  0  0
    0.7424    1.2516   -0.9073 C   0  0  0  0  0  0  0  0  0  0  0  0
    1.5286    2.1827   -1.7519 N   0  0  0  0  0  0  0  0  0  0  0  0
    1.7596    3.2378   -1.2455 O   0  0  0  0  0  0  0  0  0  0  0  0
    1.2191    1.9993    1.0610 H   0  0  0  0  0  0  0  0  0  0  0  0
   -0.2723    2.6487    0.3885 H   0  0  0  0  0  0  0  0  0  0  0  0
    1.3595    0.3480   -0.8682 H   0  0  0  0  0  0  0  0  0  0  0  0
   -0.1169    0.9908   -1.5338 H   0  0  0  0  0  0  0  0  0  0  0  0
   -0.3804   -3.0791   -0.8453 C   0  0  0  0  0  0  0  0  0  0  0  0
   -0.3804   -3.0791    0.6776 C   0  0  0  0  0  0  0  0  0  0  0  0
   -0.3804   -1.6865    1.2737 C   0  0  0  0  0  0  0  0  0  0  0  0
   -1.5654   -1.0231    0.9095 O   0  0  0  0  0  0  0  0  0  0  0  0
   -1.6262    0.2880    1.3947 C   0  0  0  0  0  3  0  0  0  0  0  0
    0.5020   -2.5654   -1.2350 H   0  0  0  0  0  0  0  0  0  0  0  0
   -1.2628   -2.5692   -1.2317 H   0  0  0  0  0  0  0  0  0  0  0  0
   -0.3754   -4.0971   -1.2376 H   0  0  0  0  0  0  0  0  0  0  0  0
   -1.2545   -3.6172    1.0532 H   0  0  0  0  0  0  0  0  0  0  0  0
    0.5014   -3.6052    1.0539 H   0  0  0  0  0  0  0  0  0  0  0  0
   -0.3035   -1.7402    2.3697 H   0  0  0  0  0  0  0  0  0  0  0  0
    0.4920   -1.1195    0.9115 H   0  0  0  0  0  0  0  0  0  0  0  0
   -0.6375    1.0231    0.9259 H   0  0  0  0  0  0  0  0  0  0  0  0
   -1.5842    0.3142    2.4922 H   0  0  0  0  0  0  0  0  0  0  0  0
   -2.5719    0.7182    1.0676 H   0  0  0  0  0  0  0  0  0  0  0  0
  1  2  1  0
  1  5  1  0
  1  6  1  0
  1 21  1  0
  2  3  1  0
  2  7  1  0
  2  8  1  0
  3  4  2  0
  9 10  1  0
  9 14  1  0
  9 15  1  0
  9 16  1  0
 10 11  1  0
 10 17  1  0
 10 18  1  0
 11 12  1  0
 11 19  1  0
 11 20  1  0
 12 13  1  0
 13 22  1  0
 13 23  1  0
M  RAD  1  13   2
M  END
>  <reaction>  (18) 
rmg_rxn_671

>  <mol_properties>  (18) 
{"0": {"label": "*3", "atom_type": "Cs"}, "1": {"label": "*4", "atom_type": "Cs"}, "11": {"label": "*0", "atom_type": "O2s"}, "12": {"label": "*1", "atom_type": "Cs"}, "20": {"label": "*2", "atom_type": "H0"}}

>  <type>  (18) 
unop_14

>  <geom_source>  (18) 
gaussian_log

$$$$
