
     RDKit          3D

  9  8  0  0  0  0  0  0  0  0999 V2000
   -0.8818   -0.3578    0.1297 C   0  0  0  0  0  0  0  0  0  0  0  0
    0.6153   -0.3021   -0.1188 C   0  0  0  0  0  0  0  0  0  0  0  0
    1.5354   -1.7170    0.5545 S   0  0  0  0  0  0  0  0  0  0  0  0
   -1.1018   -0.3317    1.1984 H   0  0  0  0  0  0  0  0  0  0  0  0
   -1.3114   -1.2723   -0.2799 H   0  0  0  0  0  0  0  0  0  0  0  0
   -1.3767    0.4976   -0.3363 H   0  0  0  0  0  0  0  0  0  0  0  0
    1.0467    0.6194    0.2718 H   0  0  0  0  0  0  0  0  0  0  0  0
    0.8295   -0.3275   -1.1882 H   0  0  0  0  0  0  0  0  0  0  0  0
    1.2306   -1.5077    1.8423 H   0  0  0  0  0  0  0  0  0  0  0  0
  1  2  1  0
  1  4  1  0
  1  5  1  0
  1  6  1  0
  2  3  1  0
  2  7  1  0
  2  8  1  0
  3  9  1  0
M  END
>  <reaction>  (1) 
rmg_rxn_14

>  <mol_properties>  (1) 
{"2": {"label": "donator", "atom_type": "S2s"}, "8": {"label": "d_hydrogen", "atom_type": "H0"}}

>  <type>  (1) 
r1h

$$$$

     RDKit          3D

  9  8  0  0  0  0  0  0  0  0999 V2000
    1.3246   -0.8124   -0.0809 C   0  0  0  0  0  2  0  0  0  0  0  0
    0.4082    0.3080    0.1518 C   0  0  0  0  0  0  0  0  0  0  0  0
   -1.0545   -0.0277   -0.1520 C   0  0  0  0  0  0  0  0  0  0  0  0
    2.3933   -0.9471    0.0203 H   0  0  0  0  0  0  0  0  0  0  0  0
    0.4898    0.6406    1.1970 H   0  0  0  0  0  0  0  0  0  0  0  0
    0.7134    1.1680   -0.4624 H   0  0  0  0  0  0  0  0  0  0  0  0
   -1.4014   -0.8515    0.4727 H   0  0  0  0  0  0  0  0  0  0  0  0
   -1.1767   -0.3214   -1.1952 H   0  0  0  0  0  0  0  0  0  0  0  0
   -1.6915    0.8372    0.0370 H   0  0  0  0  0  0  0  0  0  0  0  0
  1  2  1  0
  1  4  1  0
  2  3  1  0
  2  5  1  0
  2  6  1  0
  3  7  1  0
  3  8  1  0
  3  9  1  0
M  RAD  1   1   3
M  END
>  <reaction>  (2) 
rmg_rxn_14

>  <mol_properties>  (2) 
{"0": {"label": "acceptor", "atom_type": "Cs"}}

>  <type>  (2) 
r2

$$$$

     RDKit          3D

 10  9  0  0  0  0  0  0  0  0999 V2000
    1.4352    0.2660   -0.1351 C   0  0  0  0  0  3  0  0  0  0  0  0
    0.2236   -0.3243    0.4850 C   0  0  0  0  0  0  0  0  0  0  0  0
   -0.8893    0.6872    0.7364 C   0  0  0  0  0  0  0  0  0  0  0  0
    2.3577   -0.2958   -0.1940 H   0  0  0  0  0  0  0  0  0  0  0  0
    1.3935    1.2286   -0.6287 H   0  0  0  0  0  0  0  0  0  0  0  0
   -0.1633   -1.1318   -0.1556 H   0  0  0  0  0  0  0  0  0  0  0  0
    0.4945   -0.8215    1.4240 H   0  0  0  0  0  0  0  0  0  0  0  0
   -1.1991    1.1627   -0.1967 H   0  0  0  0  0  0  0  0  0  0  0  0
   -1.7660    0.2103    1.1768 H   0  0  0  0  0  0  0  0  0  0  0  0
   -0.5545    1.4732    1.4159 H   0  0  0  0  0  0  0  0  0  0  0  0
  1  2  1  0
  1  4  1  0
  1  5  1  0
  2  3  1  0
  2  6  1  0
  2  7  1  0
  3  8  1  0
  3  9  1  0
  3 10  1  0
M  RAD  1   1   2
M  END
>  <reaction>  (3) 
rmg_rxn_14

>  <mol_properties>  (3) 
{"0": {"label": "a_hydrogen", "atom_type": "H0"}, "1": {"label": "acceptor", "atom_type": "Cs"}}

>  <type>  (3) 
r2h

$$$$

     RDKit          3D

 18 16  0  0  0  0  0  0  0  0999 V2000
   -0.8003   -1.5915   -1.4390 C   0  0  0  0  0  0  0  0  0  0  0  0
   -1.2648   -1.2372   -0.0370 C   0  0  0  0  0  0  0  0  0  0  0  0
   -1.7262    0.5059    0.1736 S   0  0  0  0  0  0  0  0  0  0  0  0
    0.1019   -1.0333   -1.6982 H   0  0  0  0  0  0  0  0  0  0  0  0
   -1.5670   -1.3517   -2.1763 H   0  0  0  0  0  0  0  0  0  0  0  0
   -0.5723   -2.6581   -1.5079 H   0  0  0  0  0  0  0  0  0  0  0  0
   -0.5061   -1.4966    0.7016 H   0  0  0  0  0  0  0  0  0  0  0  0
   -2.1672   -1.7939    0.2221 H   0  0  0  0  0  0  0  0  0  0  0  0
   -0.4808    1.0451   -0.2307 H   0  0  0  0  0  0  0  0  0  0  0  0
    1.0224    1.5058   -0.7615 C   0  0  0  0  0  2  0  0  0  0  0  0
    2.1399    1.3296    0.1748 C   0  0  0  0  0  0  0  0  0  0  0  0
    1.9910    0.1136    1.0911 C   0  0  0  0  0  0  0  0  0  0  0  0
    0.9282    2.0660   -1.6823 H   0  0  0  0  0  0  0  0  0  0  0  0
    3.0712    1.2434   -0.4014 H   0  0  0  0  0  0  0  0  0  0  0  0
    2.2510    2.2318    0.7935 H   0  0  0  0  0  0  0  0  0  0  0  0
    1.9287   -0.8059    0.5070 H   0  0  0  0  0  0  0  0  0  0  0  0
    1.0856    0.1959    1.6940 H   0  0  0  0  0  0  0  0  0  0  0  0
    2.8455    0.0343    1.7636 H   0  0  0  0  0  0  0  0  0  0  0  0
  1  2  1  0
  1  4  1  0
  1  5  1  0
  1  6  1  0
  2  3  1  0
  2  7  1  0
  2  8  1  0
  3  9  1  0
 10 11  1  0
 10 13  1  0
 11 12  1  0
 11 14  1  0
 11 15  1  0
 12 16  1  0
 12 17  1  0
 12 18  1  0
M  RAD  1  10   3
M  END
>  <reaction>  (4) 
rmg_rxn_14

>  <mol_properties>  (4) 
{"1": {"label": "*0", "atom_type": "Cs"}, "2": {"label": "*1", "atom_type": "S2s"}, "8": {"label": "*2", "atom_type": "H0"}, "9": {"label": "*3", "atom_type": "Cs"}, "10": {"label": "*4", "atom_type": "Cs"}}

>  <type>  (4) 
ts

$$$$

     RDKit          3D

 18 16  0  0  0  0  0  0  0  0999 V2000
   -0.9621   -1.8599   -0.9523 C   0  0  0  0  0  0  0  0  0  0  0  0
   -0.9621   -1.8599    0.5664 C   0  0  0  0  0  0  0  0  0  0  0  0
   -0.9621   -0.2025    1.3114 S   0  0  0  0  0  1  0  0  0  0  0  0
   -0.0554   -1.3945   -1.3430 H   0  0  0  0  0  0  0  0  0  0  0  0
   -1.8180   -1.3087   -1.3424 H   0  0  0  0  0  0  0  0  0  0  0  0
   -1.0051   -2.8833   -1.3326 H   0  0  0  0  0  0  0  0  0  0  0  0
   -0.1188   -2.4260    0.9615 H   0  0  0  0  0  0  0  0  0  0  0  0
   -1.8697   -2.3269    0.9515 H   0  0  0  0  0  0  0  0  0  0  0  0
    0.4477    0.2795    0.7071 H   0  0  0  0  0  0  0  0  0  0  0  0
    1.5868    0.6690    0.2189 C   0  0  0  0  0  3  0  0  0  0  0  0
    1.6696    1.8585   -0.6638 C   0  0  0  0  0  0  0  0  0  0  0  0
    0.9009    1.7041   -1.9716 C   0  0  0  0  0  0  0  0  0  0  0  0
    2.2316    0.5732    1.0821 H   0  0  0  0  0  0  0  0  0  0  0  0
    1.2925    2.7432   -0.1281 H   0  0  0  0  0  0  0  0  0  0  0  0
    2.7206    2.0894   -0.8743 H   0  0  0  0  0  0  0  0  0  0  0  0
   -0.1572    1.5138   -1.7792 H   0  0  0  0  0  0  0  0  0  0  0  0
    1.2895    0.8673   -2.5549 H   0  0  0  0  0  0  0  0  0  0  0  0
    0.9737    2.6049   -2.5826 H   0  0  0  0  0  0  0  0  0  0  0  0
  1  2  1  0
  1  4  1  0
  1  5  1  0
  1  6  1  0
  2  3  1  0
  2  7  1  0
  2  8  1  0
  9 10  1  0
 10 11  1  0
 10 13  1  0
 11 12  1  0
 11 14  1  0
 11 15  1  0
 12 16  1  0
 12 17  1  0
 12 18  1  0
M  RAD  2   3   2  10   2
M  END
>  <reaction>  (5) 
rmg_rxn_14

>  <mol_properties>  (5) 
{"1": {"label": "*0", "atom_type": "Cs"}, "2": {"label": "*1", "atom_type": "S2s"}, "8": {"label": "*2", "atom_type": "H0"}, "9": {"label": "*3", "atom_type": "Cs"}, "10": {"label": "*4", "atom_type": "Cs"}}

>  <type>  (5) 
unop_1

>  <geom_source>  (5) 
Heuristics

$$$$

     RDKit          3D

 18 16  0  0  0  0  0  0  0  0999 V2000
   -1.1328   -1.1930   -0.9781 C   0  0  0  0  0  0  0  0  0  0  0  0
   -1.1328   -1.1930    0.5405 C   0  0  0  0  0  0  0  0  0  0  0  0
   -1.1328    0.4643    1.2855 S   0  0  0  0  0  1  0  0  0  0  0  0
   -0.2261   -0.7276   -1.3689 H   0  0  0  0  0  0  0  0  0  0  0  0
   -1.9888   -0.6418   -1.3682 H   0  0  0  0  0  0  0  0  0  0  0  0
   -1.1759   -2.2164   -1.3584 H   0  0  0  0  0  0  0  0  0  0  0  0
   -0.2895   -1.7591    0.9357 H   0  0  0  0  0  0  0  0  0  0  0  0
   -2.0404   -1.6601    0.9257 H   0  0  0  0  0  0  0  0  0  0  0  0
    0.2770    0.9464    0.6813 H   0  0  0  0  0  0  0  0  0  0  0  0
    1.4161    1.3358    0.1931 C   0  0  0  0  0  3  0  0  0  0  0  0
    1.9009    0.8211   -1.1111 C   0  0  0  0  0  0  0  0  0  0  0  0
    1.5364   -0.6373   -1.3666 C   0  0  0  0  0  0  0  0  0  0  0  0
    1.7625    2.2857    0.5776 H   0  0  0  0  0  0  0  0  0  0  0  0
    1.4962    1.4404   -1.9264 H   0  0  0  0  0  0  0  0  0  0  0  0
    2.9876    0.9508   -1.1781 H   0  0  0  0  0  0  0  0  0  0  0  0
    0.4533   -0.7759   -1.3436 H   0  0  0  0  0  0  0  0  0  0  0  0
    1.9719   -1.2865   -0.6048 H   0  0  0  0  0  0  0  0  0  0  0  0
    1.8963   -0.9707   -2.3409 H   0  0  0  0  0  0  0  0  0  0  0  0
  1  2  1  0
  1  4  1  0
  1  5  1  0
  1  6  1  0
  2  3  1  0
  2  7  1  0
  2  8  1  0
  9 10  1  0
 10 11  1  0
 10 13  1  0
 11 12  1  0
 11 14  1  0
 11 15  1  0
 12 16  1  0
 12 17  1  0
 12 18  1  0
M  RAD  2   3   2  10   2
M  END
>  <reaction>  (6) 
rmg_rxn_14

>  <mol_properties>  (6) 
{"1": {"label": "*0", "atom_type": "Cs"}, "2": {"label": "*1", "atom_type": "S2s"}, "8": {"label": "*2", "atom_type": "H0"}, "9": {"label": "*3", "atom_type": "Cs"}, "10": {"label": "*4", "atom_type": "Cs"}}

>  <type>  (6) 
unop_2

>  <geom_source>  (6) 
Heuristics

$$$$

     RDKit          3D

 18 16  0  0  0  0  0  0  0  0999 V2000
   -0.9723   -2.0374   -1.1740 C   0  0  0  0  0  0  0  0  0  0  0  0
   -0.9723   -2.0374    0.3447 C   0  0  0  0  0  0  0  0  0  0  0  0
   -0.9723   -0.3801    1.0896 S   0  0  0  0  0  1  0  0  0  0  0  0
   -0.0656   -1.5720   -1.5648 H   0  0  0  0  0  0  0  0  0  0  0  0
   -1.8282   -1.4862   -1.5641 H   0  0  0  0  0  0  0  0  0  0  0  0
   -1.0153   -3.0608   -1.5543 H   0  0  0  0  0  0  0  0  0  0  0  0
   -0.1290   -2.6035    0.7398 H   0  0  0  0  0  0  0  0  0  0  0  0
   -1.8799   -2.5045    0.7298 H   0  0  0  0  0  0  0  0  0  0  0  0
    0.4375    0.1020    0.4854 H   0  0  0  0  0  0  0  0  0  0  0  0
    1.5766    0.4914   -0.0028 C   0  0  0  0  0  3  0  0  0  0  0  0
    1.8289    1.9236   -0.2965 C   0  0  0  0  0  0  0  0  0  0  0  0
    0.7855    2.5528   -1.2132 C   0  0  0  0  0  0  0  0  0  0  0  0
    2.3316   -0.1178    0.4758 H   0  0  0  0  0  0  0  0  0  0  0  0
    1.8691    2.4924    0.6452 H   0  0  0  0  0  0  0  0  0  0  0  0
    2.8277    2.0403   -0.7334 H   0  0  0  0  0  0  0  0  0  0  0  0
   -0.2113    2.4809   -0.7728 H   0  0  0  0  0  0  0  0  0  0  0  0
    0.7603    2.0461   -2.1797 H   0  0  0  0  0  0  0  0  0  0  0  0
    0.9984    3.6080   -1.3901 H   0  0  0  0  0  0  0  0  0  0  0  0
  1  2  1  0
  1  4  1  0
  1  5  1  0
  1  6  1  0
  2  3  1  0
  2  7  1  0
  2  8  1  0
  9 10  1  0
 10 11  1  0
 10 13  1  0
 11 12  1  0
 11 14  1  0
 11 15  1  0
 12 16  1  0
 12 17  1  0
 12 18  1  0
M  RAD  2   3   2  10   2
M  END
>  <reaction>  (7) 
rmg_rxn_14

>  <mol_properties>  (7) 
{"1": {"label": "*0", "atom_type": "Cs"}, "2": {"label": "*1", "atom_type": "S2s"}, "8": {"label": "*2", "atom_type": "H0"}, "9": {"label": "*3", "atom_type": "Cs"}, "10": {"label": "*4", "atom_type": "Cs"}}

>  <type>  (7) 
unop_3

>  <geom_source>  (7) 
Heuristics

$$$$

     RDKit          3D

 18 16  0  0  0  0  0  0  0  0999 V2000
   -1.3687   -1.1429   -1.5602 C   0  0  0  0  0  0  0  0  0  0  0  0
   -1.3687   -1.1429   -0.0416 C   0  0  0  0  0  0  0  0  0  0  0  0
   -1.3687    0.5145    0.7034 S   0  0  0  0  0  1  0  0  0  0  0  0
   -0.4621   -0.6775   -1.9510 H   0  0  0  0  0  0  0  0  0  0  0  0
   -2.2247   -0.5917   -1.9503 H   0  0  0  0  0  0  0  0  0  0  0  0
   -1.4118   -2.1663   -1.9405 H   0  0  0  0  0  0  0  0  0  0  0  0
   -0.5255   -1.7090    0.3536 H   0  0  0  0  0  0  0  0  0  0  0  0
   -2.2763   -1.6099    0.3436 H   0  0  0  0  0  0  0  0  0  0  0  0
    0.0410    0.9965    0.0992 H   0  0  0  0  0  0  0  0  0  0  0  0
    1.1801    1.3860   -0.3890 C   0  0  0  0  0  3  0  0  0  0  0  0
    2.4318    0.6528   -0.0783 C   0  0  0  0  0  0  0  0  0  0  0  0
    2.1981   -0.7242    0.5335 C   0  0  0  0  0  0  0  0  0  0  0  0
    1.2025    2.4358   -0.6490 H   0  0  0  0  0  0  0  0  0  0  0  0
    3.0320    0.5413   -0.9945 H   0  0  0  0  0  0  0  0  0  0  0  0
    3.0569    1.2564    0.5904 H   0  0  0  0  0  0  0  0  0  0  0  0
    1.6104   -1.3526   -0.1392 H   0  0  0  0  0  0  0  0  0  0  0  0
    1.6531   -0.6439    1.4759 H   0  0  0  0  0  0  0  0  0  0  0  0
    3.1414   -1.2353    0.7310 H   0  0  0  0  0  0  0  0  0  0  0  0
  1  2  1  0
  1  4  1  0
  1  5  1  0
  1  6  1  0
  2  3  1  0
  2  7  1  0
  2  8  1  0
  9 10  1  0
 10 11  1  0
 10 13  1  0
 11 12  1  0
 11 14  1  0
 11 15  1  0
 12 16  1  0
 12 17  1  0
 12 18  1  0
M  RAD  2   3   2  10   2
M  END
>  <reaction>  (8) 
rmg_rxn_14

>  <mol_properties>  (8) 
{"1": {"label": "*0", "atom_type": "Cs"}, "2": {"label": "*1", "atom_type": "S2s"}, "8": {"label": "*2", "atom_type": "H0"}, "9": {"label": "*3", "atom_type": "Cs"}, "10": {"label": "*4", "atom_type": "Cs"}}

>  <type>  (8) 
unop_4

>  <geom_source>  (8) 
Heuristics

$$$$

     RDKit          3D

 18 16  0  0  0  0  0  0  0  0999 V2000
   -1.0499   -2.0627   -1.5406 C   0  0  0  0  0  0  0  0  0  0  0  0
   -1.0499   -2.0627   -0.0219 C   0  0  0  0  0  0  0  0  0  0  0  0
   -1.0499   -0.4053    0.7231 S   0  0  0  0  0  1  0  0  0  0  0  0
   -0.1432   -1.5973   -1.9313 H   0  0  0  0  0  0  0  0  0  0  0  0
   -1.9058   -1.5115   -1.9307 H   0  0  0  0  0  0  0  0  0  0  0  0
   -1.0929   -3.0860   -1.9209 H   0  0  0  0  0  0  0  0  0  0  0  0
   -0.2066   -2.6288    0.3732 H   0  0  0  0  0  0  0  0  0  0  0  0
   -1.9575   -2.5297    0.3632 H   0  0  0  0  0  0  0  0  0  0  0  0
    0.3599    0.0767    0.1188 H   0  0  0  0  0  0  0  0  0  0  0  0
    1.4990    0.4662   -0.3694 C   0  0  0  0  0  3  0  0  0  0  0  0
    2.0320    1.8183   -0.0720 C   0  0  0  0  0  0  0  0  0  0  0  0
    0.9781    2.7905    0.4469 C   0  0  0  0  0  0  0  0  0  0  0  0
    2.0920   -0.2560   -0.9143 H   0  0  0  0  0  0  0  0  0  0  0  0
    2.8440    1.7411    0.6674 H   0  0  0  0  0  0  0  0  0  0  0  0
    2.5112    2.2313   -0.9675 H   0  0  0  0  0  0  0  0  0  0  0  0
    0.5191    2.4121    1.3628 H   0  0  0  0  0  0  0  0  0  0  0  0
    0.1847    2.9336   -0.2891 H   0  0  0  0  0  0  0  0  0  0  0  0
    1.4137    3.7658    0.6684 H   0  0  0  0  0  0  0  0  0  0  0  0
  1  2  1  0
  1  4  1  0
  1  5  1  0
  1  6  1  0
  2  3  1  0
  2  7  1  0
  2  8  1  0
  9 10  1  0
 10 11  1  0
 10 13  1  0
 11 12  1  0
 11 14  1  0
 11 15  1  0
 12 16  1  0
 12 17  1  0
 12 18  1  0
M  RAD  2   3   2  10   2
M  END
>  <reaction>  (9) 
rmg_rxn_14

>  <mol_properties>  (9) 
{"1": {"label": "*0", "atom_type": "Cs"}, "2": {"label": "*1", "atom_type": "S2s"}, "8": {"label": "*2", "atom_type": "H0"}, "9": {"label": "*3", "atom_type": "Cs"}, "10": {"label": "*4", "atom_type": "Cs"}}

>  <type>  (9) 
unop_5

>  <geom_source>  (9) 
Heuristics

$$$$

     RDKit          3D

 18 16  0  0  0  0  0  0  0  0999 V2000
   -1.3942   -1.3158   -1.7338 C   0  0  0  0  0  0  0  0  0  0  0  0
   -1.3942   -1.3158   -0.2151 C   0  0  0  0  0  0  0  0  0  0  0  0
   -1.3942    0.3416    0.5299 S   0  0  0  0  0  1  0  0  0  0  0  0
   -0.4875   -0.8503   -2.1245 H   0  0  0  0  0  0  0  0  0  0  0  0
   -2.2501   -0.7645   -2.1239 H   0  0  0  0  0  0  0  0  0  0  0  0
   -1.4372   -2.3391   -2.1141 H   0  0  0  0  0  0  0  0  0  0  0  0
   -0.5509   -1.8819    0.1800 H   0  0  0  0  0  0  0  0  0  0  0  0
   -2.3018   -1.7828    0.1700 H   0  0  0  0  0  0  0  0  0  0  0  0
    0.0156    0.8236   -0.0744 H   0  0  0  0  0  0  0  0  0  0  0  0
    1.1547    1.2131   -0.5626 C   0  0  0  0  0  3  0  0  0  0  0  0
    2.4193    0.9801    0.1773 C   0  0  0  0  0  0  0  0  0  0  0  0
    2.3471   -0.1831    1.1604 C   0  0  0  0  0  0  0  0  0  0  0  0
    1.0115    2.1125   -1.1464 H   0  0  0  0  0  0  0  0  0  0  0  0
    3.2368    0.7963   -0.5368 H   0  0  0  0  0  0  0  0  0  0  0  0
    2.7126    1.8958    0.7043 H   0  0  0  0  0  0  0  0  0  0  0  0
    2.0954   -1.1120    0.6441 H   0  0  0  0  0  0  0  0  0  0  0  0
    1.5820   -0.0051    1.9184 H   0  0  0  0  0  0  0  0  0  0  0  0
    3.3002   -0.3306    1.6703 H   0  0  0  0  0  0  0  0  0  0  0  0
  1  2  1  0
  1  4  1  0
  1  5  1  0
  1  6  1  0
  2  3  1  0
  2  7  1  0
  2  8  1  0
  9 10  1  0
 10 11  1  0
 10 13  1  0
 11 12  1  0
 11 14  1  0
 11 15  1  0
 12 16  1  0
 12 17  1  0
 12 18  1  0
M  RAD  2   3   2  10   2
M  END
>  <reaction>  (10) 
rmg_rxn_14

>  <mol_properties>  (10) 
{"1": {"label": "*0", "atom_type": "Cs"}, "2": {"label": "*1", "atom_type": "S2s"}, "8": {"label": "*2", "atom_type": "H0"}, "9": {"label": "*3", "atom_type": "Cs"}, "10": {"label": "*4", "atom_type": "Cs"}}

>  <type>  (10) 
unop_6

>  <geom_source>  (10) 
Heuristics

$$$$

     RDKit          3D

 18 16  0  0  0  0  0  0  0  0999 V2000
   -1.3563   -1.5603   -1.8295 C   0  0  0  0  0  0  0  0  0  0  0  0
   -1.3563   -1.5603   -0.3109 C   0  0  0  0  0  0  0  0  0  0  0  0
   -1.3563    0.0970    0.4341 S   0  0  0  0  0  1  0  0  0  0  0  0
   -0.4496   -1.0949   -2.2203 H   0  0  0  0  0  0  0  0  0  0  0  0
   -2.2122   -1.0091   -2.2196 H   0  0  0  0  0  0  0  0  0  0  0  0
   -1.3993   -2.5837   -2.2098 H   0  0  0  0  0  0  0  0  0  0  0  0
   -0.5130   -2.1265    0.0843 H   0  0  0  0  0  0  0  0  0  0  0  0
   -2.2639   -2.0274    0.0743 H   0  0  0  0  0  0  0  0  0  0  0  0
    0.0535    0.5790   -0.1701 H   0  0  0  0  0  0  0  0  0  0  0  0
    1.1926    0.9685   -0.6583 C   0  0  0  0  0  3  0  0  0  0  0  0
    2.3100    1.3593    0.2358 C   0  0  0  0  0  0  0  0  0  0  0  0
    2.2712    0.6751    1.5979 C   0  0  0  0  0  0  0  0  0  0  0  0
    0.9968    1.5137   -1.5719 H   0  0  0  0  0  0  0  0  0  0  0  0
    3.2704    1.1330   -0.2523 H   0  0  0  0  0  0  0  0  0  0  0  0
    2.3153    2.4481    0.3657 H   0  0  0  0  0  0  0  0  0  0  0  0
    2.3065   -0.4109    1.4873 H   0  0  0  0  0  0  0  0  0  0  0  0
    1.3538    0.9260    2.1335 H   0  0  0  0  0  0  0  0  0  0  0  0
    3.1174    0.9766    2.2169 H   0  0  0  0  0  0  0  0  0  0  0  0
  1  2  1  0
  1  4  1  0
  1  5  1  0
  1  6  1  0
  2  3  1  0
  2  7  1  0
  2  8  1  0
  9 10  1  0
 10 11  1  0
 10 13  1  0
 11 12  1  0
 11 14  1  0
 11 15  1  0
 12 16  1  0
 12 17  1  0
 12 18  1  0
M  RAD  2   3   2  10   2
M  END
>  <reaction>  (11) 
rmg_rxn_14

>  <mol_properties>  (11) 
{"1": {"label": "*0", "atom_type": "Cs"}, "2": {"label": "*1", "atom_type": "S2s"}, "8": {"label": "*2", "atom_type": "H0"}, "9": {"label": "*3", "atom_type": "Cs"}, "10": {"label": "*4", "atom_type": "Cs"}}

>  <type>  (11) 
unop_7

>  <geom_source>  (11) 
Heuristics

$$$$

     RDKit          3D

 18 16  0  0  0  0  0  0  0  0999 V2000
   -0.9896   -1.6236   -0.8508 C   0  0  0  0  0  0  0  0  0  0  0  0
   -0.9896   -1.6236    0.6679 C   0  0  0  0  0  0  0  0  0  0  0  0
   -0.9896    0.0338    1.4129 S   0  0  0  0  0  1  0  0  0  0  0  0
   -0.0830   -1.1582   -1.2415 H   0  0  0  0  0  0  0  0  0  0  0  0
   -1.8456   -1.0724   -1.2409 H   0  0  0  0  0  0  0  0  0  0  0  0
   -1.0327   -2.6469   -1.2310 H   0  0  0  0  0  0  0  0  0  0  0  0
   -0.1464   -2.1897    1.0630 H   0  0  0  0  0  0  0  0  0  0  0  0
   -1.8972   -2.0906    1.0530 H   0  0  0  0  0  0  0  0  0  0  0  0
    0.4201    0.5158    0.8087 H   0  0  0  0  0  0  0  0  0  0  0  0
    1.5592    0.9053    0.3204 C   0  0  0  0  0  3  0  0  0  0  0  0
    1.6291    1.5945   -0.9914 C   0  0  0  0  0  0  0  0  0  0  0  0
    1.0861    0.7633   -2.1486 C   0  0  0  0  0  0  0  0  0  0  0  0
    2.0763    1.3024    1.1837 H   0  0  0  0  0  0  0  0  0  0  0  0
    1.0743    2.5440   -0.9401 H   0  0  0  0  0  0  0  0  0  0  0  0
    2.6646    1.8898   -1.1985 H   0  0  0  0  0  0  0  0  0  0  0  0
    0.0415    0.4950   -1.9764 H   0  0  0  0  0  0  0  0  0  0  0  0
    1.6535   -0.1622   -2.2629 H   0  0  0  0  0  0  0  0  0  0  0  0
    1.1404    1.3117   -3.0901 H   0  0  0  0  0  0  0  0  0  0  0  0
  1  2  1  0
  1  4  1  0
  1  5  1  0
  1  6  1  0
  2  3  1  0
  2  7  1  0
  2  8  1  0
  9 10  1  0
 10 11  1  0
 10 13  1  0
 11 12  1  0
 11 14  1  0
 11 15  1  0
 12 16  1  0
 12 17  1  0
 12 18  1  0
M  RAD  2   3   2  10   2
M  END
>  <reaction>  (12) 
rmg_rxn_14

>  <mol_properties>  (12) 
{"1": {"label": "*0", "atom_type": "Cs"}, "2": {"label": "*1", "atom_type": "S2s"}, "8": {"label": "*2", "atom_type": "H0"}, "9": {"label": "*3", "atom_type": "Cs"}, "10": {"label": "*4", "atom_type": "Cs"}}

>  <type>  (12) 
unop_8

>  <geom_source>  (12) 
Heuristics

$$$$

     RDKit          3D

 18 16  0  0  0  0  0  0  0  0999 V2000
   -1.3019   -1.0645   -1.3546 C   0  0  0  0  0  0  0  0  0  0  0  0
   -1.3019   -1.0645    0.1640 C   0  0  0  0  0  0  0  0  0  0  0  0
   -1.3019    0.5928    0.9090 S   0  0  0  0  0  1  0  0  0  0  0  0
   -0.3952   -0.5991   -1.7454 H   0  0  0  0  0  0  0  0  0  0  0  0
   -2.1578   -0.5133   -1.7447 H   0  0  0  0  0  0  0  0  0  0  0  0
   -1.3450   -2.0879   -1.7349 H   0  0  0  0  0  0  0  0  0  0  0  0
   -0.4586   -1.6306    0.5591 H   0  0  0  0  0  0  0  0  0  0  0  0
   -2.2095   -1.5316    0.5492 H   0  0  0  0  0  0  0  0  0  0  0  0
    0.1079    1.0748    0.3048 H   0  0  0  0  0  0  0  0  0  0  0  0
    1.2470    1.4643   -0.1834 C   0  0  0  0  0  3  0  0  0  0  0  0
    2.3292    0.4885   -0.4618 C   0  0  0  0  0  0  0  0  0  0  0  0
    1.9580   -0.9503   -0.1197 C   0  0  0  0  0  0  0  0  0  0  0  0
    1.4412    2.5283   -0.2035 H   0  0  0  0  0  0  0  0  0  0  0  0
    2.6119    0.5433   -1.5243 H   0  0  0  0  0  0  0  0  0  0  0  0
    3.2363    0.7785    0.0815 H   0  0  0  0  0  0  0  0  0  0  0  0
    1.0788   -1.2685   -0.6841 H   0  0  0  0  0  0  0  0  0  0  0  0
    1.7266   -1.0505    0.9424 H   0  0  0  0  0  0  0  0  0  0  0  0
    2.7732   -1.6362   -0.3543 H   0  0  0  0  0  0  0  0  0  0  0  0
  1  2  1  0
  1  4  1  0
  1  5  1  0
  1  6  1  0
  2  3  1  0
  2  7  1  0
  2  8  1  0
  9 10  1  0
 10 11  1  0
 10 13  1  0
 11 12  1  0
 11 14  1  0
 11 15  1  0
 12 16  1  0
 12 17  1  0
 12 18  1  0
M  RAD  2   3   2  10   2
M  END
>  <reaction>  (13) 
rmg_rxn_14

>  <mol_properties>  (13) 
{"1": {"label": "*0", "atom_type": "Cs"}, "2": {"label": "*1", "atom_type": "S2s"}, "8": {"label": "*2", "atom_type": "H0"}, "9": {"label": "*3", "atom_type": "Cs"}, "10": {"label": "*4", "atom_type": "Cs"}}

>  <type>  (13) 
unop_9

>  <geom_source>  (13) 
Heuristics

$$$$

     RDKit          3D

 18 16  0  0  0  0  0  0  0  0999 V2000
   -1.0518   -1.3840   -0.8653 C   0  0  0  0  0  0  0  0  0  0  0  0
   -1.0518   -1.3840    0.6534 C   0  0  0  0  0  0  0  0  0  0  0  0
   -1.0518    0.2733    1.3983 S   0  0  0  0  0  1  0  0  0  0  0  0
   -0.1451   -0.9186   -1.2561 H   0  0  0  0  0  0  0  0  0  0  0  0
   -1.9077   -0.8328   -1.2554 H   0  0  0  0  0  0  0  0  0  0  0  0
   -1.0948   -2.4074   -1.2456 H   0  0  0  0  0  0  0  0  0  0  0  0
   -0.2085   -1.9501    1.0485 H   0  0  0  0  0  0  0  0  0  0  0  0
   -1.9594   -1.8511    1.0385 H   0  0  0  0  0  0  0  0  0  0  0  0
    0.3580    0.7554    0.7941 H   0  0  0  0  0  0  0  0  0  0  0  0
    1.4971    1.1448    0.3059 C   0  0  0  0  0  3  0  0  0  0  0  0
    1.7142    1.2103   -1.1602 C   0  0  0  0  0  0  0  0  0  0  0  0
    1.3165   -0.0653   -1.8948 C   0  0  0  0  0  0  0  0  0  0  0  0
    1.9066    1.9017    0.9613 H   0  0  0  0  0  0  0  0  0  0  0  0
    1.1495    2.0570   -1.5800 H   0  0  0  0  0  0  0  0  0  0  0  0
    2.7643    1.4478   -1.3676 H   0  0  0  0  0  0  0  0  0  0  0  0
    0.2612   -0.2939   -1.7312 H   0  0  0  0  0  0  0  0  0  0  0  0
    1.9008   -0.9166   -1.5406 H   0  0  0  0  0  0  0  0  0  0  0  0
    1.4761    0.0304   -2.9697 H   0  0  0  0  0  0  0  0  0  0  0  0
  1  2  1  0
  1  4  1  0
  1  5  1  0
  1  6  1  0
  2  3  1  0
  2  7  1  0
  2  8  1  0
  9 10  1  0
 10 11  1  0
 10 13  1  0
 11 12  1  0
 11 14  1  0
 11 15  1  0
 12 16  1  0
 12 17  1  0
 12 18  1  0
M  RAD  2   3   2  10   2
M  END
>  <reaction>  (14) 
rmg_rxn_14

>  <mol_properties>  (14) 
{"1": {"label": "*0", "atom_type": "Cs"}, "2": {"label": "*1", "atom_type": "S2s"}, "8": {"label": "*2", "atom_type": "H0"}, "9": {"label": "*3", "atom_type": "Cs"}, "10": {"label": "*4", "atom_type": "Cs"}}

>  <type>  (14) 
unop_10

>  <geom_source>  (14) 
Heuristics

$$$$

     RDKit          3D

 18 16  0  0  0  0  0  0  0  0999 V2000
   -1.2379   -1.8363   -1.7988 C   0  0  0  0  0  0  0  0  0  0  0  0
   -1.2379   -1.8363   -0.2801 C   0  0  0  0  0  0  0  0  0  0  0  0
   -1.2379   -0.1790    0.4649 S   0  0  0  0  0  1  0  0  0  0  0  0
   -0.3313   -1.3709   -2.1895 H   0  0  0  0  0  0  0  0  0  0  0  0
   -2.0939   -1.2851   -2.1889 H   0  0  0  0  0  0  0  0  0  0  0  0
   -1.2810   -2.8597   -2.1790 H   0  0  0  0  0  0  0  0  0  0  0  0
   -0.3947   -2.4025    0.1150 H   0  0  0  0  0  0  0  0  0  0  0  0
   -2.1455   -2.3034    0.1050 H   0  0  0  0  0  0  0  0  0  0  0  0
    0.1719    0.3030   -0.1393 H   0  0  0  0  0  0  0  0  0  0  0  0
    1.3110    0.6925   -0.6276 C   0  0  0  0  0  3  0  0  0  0  0  0
    2.1606    1.6635    0.1046 C   0  0  0  0  0  0  0  0  0  0  0  0
    1.8198    1.7787    1.5864 C   0  0  0  0  0  0  0  0  0  0  0  0
    1.3211    0.6516   -1.7085 H   0  0  0  0  0  0  0  0  0  0  0  0
    3.2193    1.3801    0.0008 H   0  0  0  0  0  0  0  0  0  0  0  0
    2.0897    2.6486   -0.3717 H   0  0  0  0  0  0  0  0  0  0  0  0
    1.9251    0.8125    2.0846 H   0  0  0  0  0  0  0  0  0  0  0  0
    0.7902    2.1142    1.7239 H   0  0  0  0  0  0  0  0  0  0  0  0
    2.4770    2.4889    2.0900 H   0  0  0  0  0  0  0  0  0  0  0  0
  1  2  1  0
  1  4  1  0
  1  5  1  0
  1  6  1  0
  2  3  1  0
  2  7  1  0
  2  8  1  0
  9 10  1  0
 10 11  1  0
 10 13  1  0
 11 12  1  0
 11 14  1  0
 11 15  1  0
 12 16  1  0
 12 17  1  0
 12 18  1  0
M  RAD  2   3   2  10   2
M  END
>  <reaction>  (15) 
rmg_rxn_14

>  <mol_properties>  (15) 
{"1": {"label": "*0", "atom_type": "Cs"}, "2": {"label": "*1", "atom_type": "S2s"}, "8": {"label": "*2", "atom_type": "H0"}, "9": {"label": "*3", "atom_type": "Cs"}, "10": {"label": "*4", "atom_type": "Cs"}}

>  <type>  (15) 
unop_11

>  <geom_source>  (15) 
Heuristics

$$$$

     RDKit          3D

 18 16  0  0  0  0  0  0  0  0999 V2000
   -1.2185   -1.0829   -1.1524 C   0  0  0  0  0  0  0  0  0  0  0  0
   -1.2185   -1.0829    0.3663 C   0  0  0  0  0  0  0  0  0  0  0  0
   -1.2185    0.5745    1.1113 S   0  0  0  0  0  1  0  0  0  0  0  0
   -0.3118   -0.6175   -1.5431 H   0  0  0  0  0  0  0  0  0  0  0  0
   -2.0745   -0.5317   -1.5425 H   0  0  0  0  0  0  0  0  0  0  0  0
   -1.2616   -2.1063   -1.5327 H   0  0  0  0  0  0  0  0  0  0  0  0
   -0.3752   -1.6490    0.7614 H   0  0  0  0  0  0  0  0  0  0  0  0
   -2.1261   -1.5500    0.7514 H   0  0  0  0  0  0  0  0  0  0  0  0
    0.1913    1.0565    0.5070 H   0  0  0  0  0  0  0  0  0  0  0  0
    1.3304    1.4460    0.0188 C   0  0  0  0  0  3  0  0  0  0  0  0
    2.1319    0.5501   -0.8506 C   0  0  0  0  0  0  0  0  0  0  0  0
    1.7343   -0.9183   -0.7473 C   0  0  0  0  0  0  0  0  0  0  0  0
    1.6287    2.4729    0.1816 H   0  0  0  0  0  0  0  0  0  0  0  0
    2.0406    0.8738   -1.8989 H   0  0  0  0  0  0  0  0  0  0  0  0
    3.1970    0.6651   -0.6170 H   0  0  0  0  0  0  0  0  0  0  0  0
    0.6849   -1.0557   -1.0168 H   0  0  0  0  0  0  0  0  0  0  0  0
    1.8680   -1.2870    0.2714 H   0  0  0  0  0  0  0  0  0  0  0  0
    2.3354   -1.5392   -1.4132 H   0  0  0  0  0  0  0  0  0  0  0  0
  1  2  1  0
  1  4  1  0
  1  5  1  0
  1  6  1  0
  2  3  1  0
  2  7  1  0
  2  8  1  0
  9 10  1  0
 10 11  1  0
 10 13  1  0
 11 12  1  0
 11 14  1  0
 11 15  1  0
 12 16  1  0
 12 17  1  0
 12 18  1  0
M  RAD  2   3   2  10   2
M  END
>  <reaction>  (16) 
rmg_rxn_14

>  <mol_properties>  (16) 
{"1": {"label": "*0", "atom_type": "Cs"}, "2": {"label": "*1", "atom_type": "S2s"}, "8": {"label": "*2", "atom_type": "H0"}, "9": {"label": "*3", "atom_type": "Cs"}, "10": {"label": "*4", "atom_type": "Cs"}}

>  <type>  (16) 
unop_12

>  <geom_source>  (16) 
Heuristics

$$$$

     RDKit          3D

 18 16  0  0  0  0  0  0  0  0999 V2000
   -1.1328   -1.1930   -0.9781 C   0  0  0  0  0  0  0  0  0  0  0  0
   -1.1328   -1.1930    0.5405 C   0  0  0  0  0  0  0  0  0  0  0  0
   -1.1328    0.4643    1.2855 S   0  0  0  0  0  1  0  0  0  0  0  0
   -0.2261   -0.7276   -1.3689 H   0  0  0  0  0  0  0  0  0  0  0  0
   -1.9888   -0.6418   -1.3682 H   0  0  0  0  0  0  0  0  0  0  0  0
   -1.1759   -2.2164   -1.3584 H   0  0  0  0  0  0  0  0  0  0  0  0
   -0.2895   -1.7591    0.9357 H   0  0  0  0  0  0  0  0  0  0  0  0
   -2.0404   -1.6601    0.9257 H   0  0  0  0  0  0  0  0  0  0  0  0
    0.2770    0.9464    0.6813 H   0  0  0  0  0  0  0  0  0  0  0  0
    1.4161    1.3358    0.1931 C   0  0  0  0  0  3  0  0  0  0  0  0
    1.9009    0.8211   -1.1111 C   0  0  0  0  0  0  0  0  0  0  0  0
    1.5364   -0.6373   -1.3666 C   0  0  0  0  0  0  0  0  0  0  0  0
    1.7625    2.2857    0.5776 H   0  0  0  0  0  0  0  0  0  0  0  0
    1.4962    1.4404   -1.9264 H   0  0  0  0  0  0  0  0  0  0  0  0
    2.9876    0.9508   -1.1781 H   0  0  0  0  0  0  0  0  0  0  0  0
    0.4533   -0.7759   -1.3436 H   0  0  0  0  0  0  0  0  0  0  0  0
    1.9719   -1.2865   -0.6048 H   0  0  0  0  0  0  0  0  0  0  0  0
    1.8963   -0.9707   -2.3409 H   0  0  0  0  0  0  0  0  0  0  0  0
  1  2  1  0
  1  4  1  0
  1  5  1  0
  1  6  1  0
  2  3  1  0
  2  7  1  0
  2  8  1  0
  9 10  1  0
 10 11  1  0
 10 13  1  0
 11 12  1  0
 11 14  1  0
 11 15  1  0
 12 16  1  0
 12 17  1  0
 12 18  1  0
M  RAD  2   3   2  10   2
M  END
>  <reaction>  (17) 
rmg_rxn_14

>  <mol_properties>  (17) 
{"1": {"label": "*0", "atom_type": "Cs"}, "2": {"label": "*1", "atom_type": "S2s"}, "8": {"label": "*2", "atom_type": "H0"}, "9": {"label": "*3", "atom_type": "Cs"}, "10": {"label": "*4", "atom_type": "Cs"}}

>  <type>  (17) 
unop_13

>  <geom_source>  (17) 
gaussian_log

$$$$
