
     RDKit          3D

 18 17  0  0  0  0  0  0  0  0999 V2000
    1.2952   -1.2294    0.8974 C   0  0  0  0  0  0  0  0  0  0  0  0
    0.9866    0.0007    0.0906 C   0  0  0  0  0  0  0  0  0  0  0  0
    0.3534   -0.0733   -1.0557 C   0  0  0  0  0  0  0  0  0  0  0  0
   -0.2134   -0.1912   -2.2217 C   0  0  0  0  0  0  0  0  0  0  0  0
    1.4692    1.1933    0.6363 N   0  0  0  0  0  0  0  0  0  0  0  0
    1.0588    2.4466    0.0389 C   0  0  0  0  0  0  0  0  0  0  0  0
    1.6511    3.6217    0.7933 C   0  0  0  0  0  0  0  0  0  0  0  0
    2.3742   -1.3246    1.0379 H   0  0  0  0  0  0  0  0  0  0  0  0
    0.8319   -1.1664    1.8866 H   0  0  0  0  0  0  0  0  0  0  0  0
    0.9219   -2.1223    0.4017 H   0  0  0  0  0  0  0  0  0  0  0  0
    0.3708   -0.3040   -3.1311 H   0  0  0  0  0  0  0  0  0  0  0  0
   -1.2935   -0.1811   -2.3359 H   0  0  0  0  0  0  0  0  0  0  0  0
    1.4189    1.2001    1.6444 H   0  0  0  0  0  0  0  0  0  0  0  0
    1.4061    2.4525   -0.9971 H   0  0  0  0  0  0  0  0  0  0  0  0
   -0.0368    2.5320   -0.0010 H   0  0  0  0  0  0  0  0  0  0  0  0
    2.7405    3.5649    0.8051 H   0  0  0  0  0  0  0  0  0  0  0  0
    1.2988    3.6441    1.8280 H   0  0  0  0  0  0  0  0  0  0  0  0
    1.3588    4.5620    0.3252 H   0  0  0  0  0  0  0  0  0  0  0  0
  1  2  1  0
  1  8  1  0
  1  9  1  0
  1 10  1  0
  2  3  2  0
  2  5  1  0
  3  4  2  0
  4 11  1  0
  4 12  1  0
  5  6  1  0
  5 13  1  0
  6  7  1  0
  6 14  1  0
  6 15  1  0
  7 16  1  0
  7 17  1  0
  7 18  1  0
M  END
>  <reaction>  (1) 
rmg_rxn_15476

>  <mol_properties>  (1) 
{"4": {"label": "donator", "atom_type": "N3s"}, "12": {"label": "d_hydrogen", "atom_type": "H0"}}

>  <type>  (1) 
r1h

$$$$

     RDKit          3D

  5  4  0  0  0  0  0  0  0  0999 V2000
    0.8934    0.3742    0.4948 O   0  0  0  0  0  0  0  0  0  0  0  0
    0.1582   -0.1610   -0.5904 N   0  0  0  0  0  0  0  0  0  0  0  0
   -1.0297   -0.3739   -0.4689 C   0  0  0  0  0  3  0  0  0  0  0  0
    1.7805    0.4382    0.1306 H   0  0  0  0  0  0  0  0  0  0  0  0
   -1.8023   -0.2775    0.2859 H   0  0  0  0  0  0  0  0  0  0  0  0
  1  2  1  0
  1  4  1  0
  2  3  2  3
  3  5  1  0
M  RAD  1   3   2
M  END
>  <reaction>  (2) 
rmg_rxn_15476

>  <mol_properties>  (2) 
{"2": {"label": "acceptor", "atom_type": "Cd"}}

>  <type>  (2) 
r2

$$$$

     RDKit          3D

  6  5  0  0  0  0  0  0  0  0999 V2000
    1.2314    0.0428    0.5088 O   0  0  0  0  0  0  0  0  0  0  0  0
    0.2987    0.2341   -0.4915 N   0  0  0  0  0  0  0  0  0  0  0  0
   -0.8599   -0.1122   -0.1290 C   0  0  0  0  0  0  0  0  0  0  0  0
    2.0507    0.3401    0.1082 H   0  0  0  0  0  0  0  0  0  0  0  0
   -1.0700   -0.5112    0.8610 H   0  0  0  0  0  0  0  0  0  0  0  0
   -1.6509    0.0064   -0.8574 H   0  0  0  0  0  0  0  0  0  0  0  0
  1  2  1  0
  1  4  1  0
  2  3  2  3
  3  5  1  0
  3  6  1  0
M  END
>  <reaction>  (3) 
rmg_rxn_15476

>  <mol_properties>  (3) 
{"2": {"label": "acceptor", "atom_type": "Cd"}, "5": {"label": "a_hydrogen", "atom_type": "H0"}}

>  <type>  (3) 
r2h

$$$$

     RDKit          3D

 23 21  0  0  0  0  0  0  0  0999 V2000
   -2.6969   -1.7737   -1.5135 O   0  0  0  0  0  0  0  0  0  0  0  0
   -1.6449   -1.1288   -0.8443 N   0  0  0  0  0  0  0  0  0  0  0  0
   -0.5347   -1.6687   -0.9502 C   0  0  0  0  0  3  0  0  0  0  0  0
   -3.4490   -1.2107   -1.3159 H   0  0  0  0  0  0  0  0  0  0  0  0
   -0.2863   -2.5807   -1.4969 H   0  0  0  0  0  0  0  0  0  0  0  0
    1.4593    1.1273   -1.5373 C   0  0  0  0  0  0  0  0  0  0  0  0
    0.9212    1.0957   -0.1353 C   0  0  0  0  0  0  0  0  0  0  0  0
    0.4435    2.1808    0.4444 C   0  0  0  0  0  0  0  0  0  0  0  0
    0.0642    3.2777    1.0261 C   0  0  0  0  0  0  0  0  0  0  0  0
    0.9930   -0.1388    0.4924 N   0  0  0  0  0  0  0  0  0  0  0  0
    0.3658   -0.2621    1.7970 C   0  0  0  0  0  0  0  0  0  0  0  0
    0.5663   -1.6545    2.3635 C   0  0  0  0  0  0  0  0  0  0  0  0
    2.4883    0.7644   -1.5510 H   0  0  0  0  0  0  0  0  0  0  0  0
    0.8619    0.4713   -2.1766 H   0  0  0  0  0  0  0  0  0  0  0  0
    1.4271    2.1341   -1.9476 H   0  0  0  0  0  0  0  0  0  0  0  0
    0.7527    3.8767    1.6154 H   0  0  0  0  0  0  0  0  0  0  0  0
   -0.9572    3.6366    0.9458 H   0  0  0  0  0  0  0  0  0  0  0  0
    0.5541   -0.9289   -0.1936 H   0  0  0  0  0  0  0  0  0  0  0  0
    0.8218    0.4830    2.4537 H   0  0  0  0  0  0  0  0  0  0  0  0
   -0.7030   -0.0188    1.7379 H   0  0  0  0  0  0  0  0  0  0  0  0
    1.6280   -1.8940    2.4340 H   0  0  0  0  0  0  0  0  0  0  0  0
    0.0855   -2.4058    1.7341 H   0  0  0  0  0  0  0  0  0  0  0  0
    0.1282   -1.7239    3.3599 H   0  0  0  0  0  0  0  0  0  0  0  0
  1  2  1  0
  1  4  1  0
  2  3  2  3
  3  5  1  0
  6  7  1  0
  6 13  1  0
  6 14  1  0
  6 15  1  0
  7  8  2  0
  7 10  1  0
  8  9  2  0
  9 16  1  0
  9 17  1  0
 10 11  1  0
 10 18  1  0
 11 12  1  0
 11 19  1  0
 11 20  1  0
 12 21  1  0
 12 22  1  0
 12 23  1  0
M  RAD  1   3   2
M  END
>  <reaction>  (4) 
rmg_rxn_15476

>  <mol_properties>  (4) 
{"1": {"label": "*4", "atom_type": "N3d"}, "2": {"label": "*3", "atom_type": "Cd"}, "6": {"label": "*0", "atom_type": "Cd"}, "9": {"label": "*1", "atom_type": "N3s"}, "17": {"label": "*2", "atom_type": "H0"}}

>  <type>  (4) 
ts

$$$$

     RDKit          3D

 23 21  0  0  0  0  0  0  0  0999 V2000
    3.7603   -0.2865    0.7054 O   0  0  0  0  0  0  0  0  0  0  0  0
    2.3940   -0.3213    0.3467 N   0  0  0  0  0  0  0  0  0  0  0  0
    1.9996    0.3468   -0.6222 C   0  0  0  0  0  0  0  0  0  0  0  0
    3.8226   -0.8712    1.4725 H   0  0  0  0  0  0  0  0  0  0  0  0
    2.5894    0.9929   -1.2646 H   0  0  0  0  0  0  0  0  0  0  0  0
   -0.4871   -2.0861   -0.5819 C   0  0  0  0  0  0  0  0  0  0  0  0
   -1.1073   -0.7338   -0.3524 C   0  0  0  0  0  0  0  0  0  0  0  0
   -2.1846   -0.6250    0.4281 C   0  0  0  0  0  0  0  0  0  0  0  0
   -3.3278   -0.5373    1.0230 C   0  0  0  0  0  0  0  0  0  0  0  0
   -0.5128    0.2898   -0.9958 N   0  0  0  0  0  2  0  0  0  0  0  0
   -0.9736    1.6327   -0.7574 C   0  0  0  0  0  0  0  0  0  0  0  0
   -0.6414    2.1704    0.6371 C   0  0  0  0  0  0  0  0  0  0  0  0
   -0.3887   -2.2645   -1.6502 H   0  0  0  0  0  0  0  0  0  0  0  0
    0.5077   -2.1020   -0.1404 H   0  0  0  0  0  0  0  0  0  0  0  0
   -1.0939   -2.8693   -0.1367 H   0  0  0  0  0  0  0  0  0  0  0  0
   -4.2696   -0.5793    0.4898 H   0  0  0  0  0  0  0  0  0  0  0  0
   -3.4095   -0.4244    2.0954 H   0  0  0  0  0  0  0  0  0  0  0  0
    0.7543    0.2688   -0.8689 H   0  0  0  0  0  0  0  0  0  0  0  0
   -0.5027    2.2660   -1.5160 H   0  0  0  0  0  0  0  0  0  0  0  0
   -2.0597    1.6675   -0.9037 H   0  0  0  0  0  0  0  0  0  0  0  0
    0.4358    2.1782    0.7882 H   0  0  0  0  0  0  0  0  0  0  0  0
   -1.0946    1.5424    1.4000 H   0  0  0  0  0  0  0  0  0  0  0  0
   -1.0196    3.1835    0.7455 H   0  0  0  0  0  0  0  0  0  0  0  0
  1  2  1  0
  1  4  1  0
  2  3  2  3
  3  5  1  0
  3 18  1  0
  6  7  1  0
  6 13  1  0
  6 14  1  0
  6 15  1  0
  7  8  2  0
  7 10  1  0
  8  9  2  0
  9 16  1  0
  9 17  1  0
 10 11  1  0
 11 12  1  0
 11 19  1  0
 11 20  1  0
 12 21  1  0
 12 22  1  0
 12 23  1  0
M  RAD  1  10   2
M  END
>  <reaction>  (5) 
rmg_rxn_15476

>  <mol_properties>  (5) 
{"1": {"label": "*4", "atom_type": "N3d"}, "2": {"label": "*3", "atom_type": "Cd"}, "6": {"label": "*0", "atom_type": "Cd"}, "9": {"label": "*1", "atom_type": "N3s"}, "17": {"label": "*2", "atom_type": "H0"}}

>  <type>  (5) 
unop_1

>  <geom_source>  (5) 
crest_best.xyz

$$$$

     RDKit          3D

 23 21  0  0  0  0  0  0  0  0999 V2000
   -0.9474   -3.5952   -1.2469 O   0  0  0  0  0  0  0  0  0  0  0  0
   -0.2580   -2.4108   -1.4169 N   0  0  0  0  0  0  0  0  0  0  0  0
   -0.9037   -1.4210   -0.9732 C   0  0  0  0  0  3  0  0  0  0  0  0
   -0.3558   -4.2519   -1.6196 H   0  0  0  0  0  0  0  0  0  0  0  0
   -1.8859   -1.5187   -0.5156 H   0  0  0  0  0  0  0  0  0  0  0  0
    0.3520    1.5467   -1.7545 C   0  0  0  0  0  0  0  0  0  0  0  0
    0.3520    1.5467   -0.2513 C   0  0  0  0  0  0  0  0  0  0  0  0
    0.3520    2.6655    0.4333 C   0  0  0  0  0  0  0  0  0  0  0  0
    0.4236    3.7936    1.0791 C   0  0  0  0  0  0  0  0  0  0  0  0
    0.4022    0.2781    0.3327 N   0  0  0  0  0  0  0  0  0  0  0  0
    0.2113    0.1640    1.7632 C   0  0  0  0  0  0  0  0  0  0  0  0
    0.2594   -1.2883    2.1983 C   0  0  0  0  0  0  0  0  0  0  0  0
    1.2369    1.0278   -2.1293 H   0  0  0  0  0  0  0  0  0  0  0  0
   -0.5305    1.0265   -2.1388 H   0  0  0  0  0  0  0  0  0  0  0  0
    0.3454    2.5625   -2.1425 H   0  0  0  0  0  0  0  0  0  0  0  0
    1.3784    4.2333    1.3549 H   0  0  0  0  0  0  0  0  0  0  0  0
   -0.4669    4.3430    1.3705 H   0  0  0  0  0  0  0  0  0  0  0  0
   -0.2282   -0.5420   -0.2977 H   0  0  0  0  0  0  0  0  0  0  0  0
    1.0082    0.7288    2.2528 H   0  0  0  0  0  0  0  0  0  0  0  0
   -0.7353    0.6258    2.0795 H   0  0  0  0  0  0  0  0  0  0  0  0
    1.2112   -1.7440    1.9218 H   0  0  0  0  0  0  0  0  0  0  0  0
   -0.5439   -1.8661    1.7336 H   0  0  0  0  0  0  0  0  0  0  0  0
    0.1393   -1.3669    3.2791 H   0  0  0  0  0  0  0  0  0  0  0  0
  1  2  1  0
  1  4  1  0
  2  3  2  3
  3  5  1  0
  6  7  1  0
  6 13  1  0
  6 14  1  0
  6 15  1  0
  7  8  2  0
  7 10  1  0
  8  9  2  0
  9 16  1  0
  9 17  1  0
 10 11  1  0
 10 18  1  0
 11 12  1  0
 11 19  1  0
 11 20  1  0
 12 21  1  0
 12 22  1  0
 12 23  1  0
M  RAD  1   3   2
M  END
>  <reaction>  (6) 
rmg_rxn_15476

>  <mol_properties>  (6) 
{"1": {"label": "*4", "atom_type": "N3d"}, "2": {"label": "*3", "atom_type": "Cd"}, "6": {"label": "*0", "atom_type": "Cd"}, "9": {"label": "*1", "atom_type": "N3s"}, "17": {"label": "*2", "atom_type": "H0"}}

>  <type>  (6) 
unop_2

>  <geom_source>  (6) 
Heuristics

$$$$

     RDKit          3D

 23 21  0  0  0  0  0  0  0  0999 V2000
   -3.7588    0.2873   -0.7063 O   0  0  0  0  0  0  0  0  0  0  0  0
   -2.3919    0.3181   -0.3491 N   0  0  0  0  0  0  0  0  0  0  0  0
   -2.0000   -0.3434    0.6252 C   0  0  0  0  0  0  0  0  0  0  0  0
   -3.8186    0.8653   -1.4786 H   0  0  0  0  0  0  0  0  0  0  0  0
   -2.5922   -0.9808    1.2741 H   0  0  0  0  0  0  0  0  0  0  0  0
    0.4865    2.0857    0.5830 C   0  0  0  0  0  0  0  0  0  0  0  0
    1.1069    0.7336    0.3527 C   0  0  0  0  0  0  0  0  0  0  0  0
    2.1833    0.6253   -0.4291 C   0  0  0  0  0  0  0  0  0  0  0  0
    3.3265    0.5380   -1.0239 C   0  0  0  0  0  0  0  0  0  0  0  0
    0.5130   -0.2903    0.9962 N   0  0  0  0  0  2  0  0  0  0  0  0
    0.9740   -1.6330    0.7573 C   0  0  0  0  0  0  0  0  0  0  0  0
    0.6405   -2.1711   -0.6366 C   0  0  0  0  0  0  0  0  0  0  0  0
    1.0936    2.8693    0.1389 H   0  0  0  0  0  0  0  0  0  0  0  0
   -0.5080    2.1021    0.1408 H   0  0  0  0  0  0  0  0  0  0  0  0
    0.3875    2.2631    1.6513 H   0  0  0  0  0  0  0  0  0  0  0  0
    3.4083    0.4256   -2.0964 H   0  0  0  0  0  0  0  0  0  0  0  0
    4.2684    0.5811   -0.4908 H   0  0  0  0  0  0  0  0  0  0  0  0
   -0.7542   -0.2686    0.8703 H   0  0  0  0  0  0  0  0  0  0  0  0
    2.0603   -1.6672    0.9023 H   0  0  0  0  0  0  0  0  0  0  0  0
    0.5044   -2.2665    1.5166 H   0  0  0  0  0  0  0  0  0  0  0  0
    1.0924   -1.5428   -1.4002 H   0  0  0  0  0  0  0  0  0  0  0  0
   -0.4369   -2.1797   -0.7864 H   0  0  0  0  0  0  0  0  0  0  0  0
    1.0193   -3.1839   -0.7454 H   0  0  0  0  0  0  0  0  0  0  0  0
  1  2  1  0
  1  4  1  0
  2  3  2  3
  3  5  1  0
  3 18  1  0
  6  7  1  0
  6 13  1  0
  6 14  1  0
  6 15  1  0
  7  8  2  0
  7 10  1  0
  8  9  2  0
  9 16  1  0
  9 17  1  0
 10 11  1  0
 11 12  1  0
 11 19  1  0
 11 20  1  0
 12 21  1  0
 12 22  1  0
 12 23  1  0
M  RAD  1  10   2
M  END
>  <reaction>  (7) 
rmg_rxn_15476

>  <mol_properties>  (7) 
{"1": {"label": "*4", "atom_type": "N3d"}, "2": {"label": "*3", "atom_type": "Cd"}, "6": {"label": "*0", "atom_type": "Cd"}, "9": {"label": "*1", "atom_type": "N3s"}, "17": {"label": "*2", "atom_type": "H0"}}

>  <type>  (7) 
unop_3

>  <geom_source>  (7) 
Heuristics

$$$$

     RDKit          3D

 23 21  0  0  0  0  0  0  0  0999 V2000
    3.7579   -0.2869    0.7072 O   0  0  0  0  0  0  0  0  0  0  0  0
    2.3920   -0.3206    0.3470 N   0  0  0  0  0  0  0  0  0  0  0  0
    1.9991    0.3484   -0.6218 C   0  0  0  0  0  0  0  0  0  0  0  0
    3.8191   -0.8722    1.4739 H   0  0  0  0  0  0  0  0  0  0  0  0
    2.5899    0.9948   -1.2631 H   0  0  0  0  0  0  0  0  0  0  0  0
   -0.4853   -2.0854   -0.5866 C   0  0  0  0  0  0  0  0  0  0  0  0
   -1.1060   -0.7338   -0.3540 C   0  0  0  0  0  0  0  0  0  0  0  0
   -2.1815   -0.6269    0.4293 C   0  0  0  0  0  0  0  0  0  0  0  0
   -3.3233   -0.5406    1.0270 C   0  0  0  0  0  0  0  0  0  0  0  0
   -0.5131    0.2910   -0.9969 N   0  0  0  0  0  2  0  0  0  0  0  0
   -0.9756    1.6331   -0.7575 C   0  0  0  0  0  0  0  0  0  0  0  0
   -0.6436    2.1711    0.6368 C   0  0  0  0  0  0  0  0  0  0  0  0
    0.5098   -2.1018   -0.1458 H   0  0  0  0  0  0  0  0  0  0  0  0
   -1.0916   -2.8698   -0.1427 H   0  0  0  0  0  0  0  0  0  0  0  0
   -0.3877   -2.2615   -1.6553 H   0  0  0  0  0  0  0  0  0  0  0  0
   -4.2665   -0.5831    0.4965 H   0  0  0  0  0  0  0  0  0  0  0  0
   -3.4022   -0.4295    2.0999 H   0  0  0  0  0  0  0  0  0  0  0  0
    0.7540    0.2711   -0.8695 H   0  0  0  0  0  0  0  0  0  0  0  0
   -0.5062    2.2674   -1.5162 H   0  0  0  0  0  0  0  0  0  0  0  0
   -2.0619    1.6663   -0.9033 H   0  0  0  0  0  0  0  0  0  0  0  0
   -1.0240    3.1833    0.7459 H   0  0  0  0  0  0  0  0  0  0  0  0
    0.4337    2.1813    0.7872 H   0  0  0  0  0  0  0  0  0  0  0  0
   -1.0949    1.5418    1.3999 H   0  0  0  0  0  0  0  0  0  0  0  0
  1  2  1  0
  1  4  1  0
  2  3  2  3
  3  5  1  0
  3 18  1  0
  6  7  1  0
  6 13  1  0
  6 14  1  0
  6 15  1  0
  7  8  2  0
  7 10  1  0
  8  9  2  0
  9 16  1  0
  9 17  1  0
 10 11  1  0
 11 12  1  0
 11 19  1  0
 11 20  1  0
 12 21  1  0
 12 22  1  0
 12 23  1  0
M  RAD  1  10   2
M  END
>  <reaction>  (8) 
rmg_rxn_15476

>  <mol_properties>  (8) 
{"1": {"label": "*4", "atom_type": "N3d"}, "2": {"label": "*3", "atom_type": "Cd"}, "6": {"label": "*0", "atom_type": "Cd"}, "9": {"label": "*1", "atom_type": "N3s"}, "17": {"label": "*2", "atom_type": "H0"}}

>  <type>  (8) 
unop_4

>  <geom_source>  (8) 
Heuristics

$$$$

     RDKit          3D

 23 21  0  0  0  0  0  0  0  0999 V2000
   -3.7615    0.2856    0.7050 O   0  0  0  0  0  0  0  0  0  0  0  0
   -2.3939    0.3176    0.3504 N   0  0  0  0  0  0  0  0  0  0  0  0
   -2.0007   -0.3391   -0.6266 C   0  0  0  0  0  0  0  0  0  0  0  0
   -3.8225    0.8597    1.4801 H   0  0  0  0  0  0  0  0  0  0  0  0
   -2.5922   -0.9730   -1.2796 H   0  0  0  0  0  0  0  0  0  0  0  0
    0.4902    2.0876   -0.5782 C   0  0  0  0  0  0  0  0  0  0  0  0
    1.1087    0.7342   -0.3509 C   0  0  0  0  0  0  0  0  0  0  0  0
    2.1861    0.6226    0.4290 C   0  0  0  0  0  0  0  0  0  0  0  0
    3.3301    0.5318    1.0218 C   0  0  0  0  0  0  0  0  0  0  0  0
    0.5126   -0.2877   -0.9955 N   0  0  0  0  0  2  0  0  0  0  0  0
    0.9712   -1.6316   -0.7588 C   0  0  0  0  0  0  0  0  0  0  0  0
    0.6384   -2.1705    0.6350 C   0  0  0  0  0  0  0  0  0  0  0  0
    1.0998    2.8697   -0.1349 H   0  0  0  0  0  0  0  0  0  0  0  0
    0.3888    2.2664   -1.6462 H   0  0  0  0  0  0  0  0  0  0  0  0
   -0.5032    2.1053   -0.1336 H   0  0  0  0  0  0  0  0  0  0  0  0
    4.2712    0.5737    0.4872 H   0  0  0  0  0  0  0  0  0  0  0  0
    3.4135    0.4171    2.0940 H   0  0  0  0  0  0  0  0  0  0  0  0
   -0.7545   -0.2644   -0.8697 H   0  0  0  0  0  0  0  0  0  0  0  0
    0.4993   -2.2633   -1.5182 H   0  0  0  0  0  0  0  0  0  0  0  0
    2.0572   -1.6680   -0.9053 H   0  0  0  0  0  0  0  0  0  0  0  0
    1.0136   -3.1849    0.7416 H   0  0  0  0  0  0  0  0  0  0  0  0
   -0.4388   -2.1753    0.7867 H   0  0  0  0  0  0  0  0  0  0  0  0
    1.0940   -1.5451    1.3987 H   0  0  0  0  0  0  0  0  0  0  0  0
  1  2  1  0
  1  4  1  0
  2  3  2  3
  3  5  1  0
  3 18  1  0
  6  7  1  0
  6 13  1  0
  6 14  1  0
  6 15  1  0
  7  8  2  0
  7 10  1  0
  8  9  2  0
  9 16  1  0
  9 17  1  0
 10 11  1  0
 11 12  1  0
 11 19  1  0
 11 20  1  0
 12 21  1  0
 12 22  1  0
 12 23  1  0
M  RAD  1  10   2
M  END
>  <reaction>  (9) 
rmg_rxn_15476

>  <mol_properties>  (9) 
{"1": {"label": "*4", "atom_type": "N3d"}, "2": {"label": "*3", "atom_type": "Cd"}, "6": {"label": "*0", "atom_type": "Cd"}, "9": {"label": "*1", "atom_type": "N3s"}, "17": {"label": "*2", "atom_type": "H0"}}

>  <type>  (9) 
unop_5

>  <geom_source>  (9) 
Heuristics

$$$$

     RDKit          3D

 23 21  0  0  0  0  0  0  0  0999 V2000
   -3.7594    0.2857    0.7071 O   0  0  0  0  0  0  0  0  0  0  0  0
   -2.3917    0.3156    0.3528 N   0  0  0  0  0  0  0  0  0  0  0  0
   -2.0010   -0.3328   -0.6307 C   0  0  0  0  0  0  0  0  0  0  0  0
   -3.8180    0.8520    1.4881 H   0  0  0  0  0  0  0  0  0  0  0  0
   -2.5949   -0.9577   -1.2902 H   0  0  0  0  0  0  0  0  0  0  0  0
    0.4944    2.0888   -0.5783 C   0  0  0  0  0  0  0  0  0  0  0  0
    1.1100    0.7341   -0.3510 C   0  0  0  0  0  0  0  0  0  0  0  0
    2.1860    0.6200    0.4305 C   0  0  0  0  0  0  0  0  0  0  0  0
    3.3287    0.5265    1.0254 C   0  0  0  0  0  0  0  0  0  0  0  0
    0.5127   -0.2863   -0.9971 N   0  0  0  0  0  2  0  0  0  0  0  0
    0.9685   -1.6312   -0.7605 C   0  0  0  0  0  0  0  0  0  0  0  0
    0.6328   -2.1703    0.6326 C   0  0  0  0  0  0  0  0  0  0  0  0
    0.3935    2.2680   -1.6462 H   0  0  0  0  0  0  0  0  0  0  0  0
   -0.4990    2.1086   -0.1337 H   0  0  0  0  0  0  0  0  0  0  0  0
    1.1056    2.8695   -0.1347 H   0  0  0  0  0  0  0  0  0  0  0  0
    4.2709    0.5671    0.4928 H   0  0  0  0  0  0  0  0  0  0  0  0
    3.4096    0.4108    2.0977 H   0  0  0  0  0  0  0  0  0  0  0  0
   -0.7544   -0.2605   -0.8727 H   0  0  0  0  0  0  0  0  0  0  0  0
    0.4963   -2.2616   -1.5207 H   0  0  0  0  0  0  0  0  0  0  0  0
    2.0546   -1.6695   -0.9057 H   0  0  0  0  0  0  0  0  0  0  0  0
   -0.4445   -2.1738    0.7828 H   0  0  0  0  0  0  0  0  0  0  0  0
    1.0881   -1.5457    1.3971 H   0  0  0  0  0  0  0  0  0  0  0  0
    1.0067   -3.1851    0.7393 H   0  0  0  0  0  0  0  0  0  0  0  0
  1  2  1  0
  1  4  1  0
  2  3  2  3
  3  5  1  0
  3 18  1  0
  6  7  1  0
  6 13  1  0
  6 14  1  0
  6 15  1  0
  7  8  2  0
  7 10  1  0
  8  9  2  0
  9 16  1  0
  9 17  1  0
 10 11  1  0
 11 12  1  0
 11 19  1  0
 11 20  1  0
 12 21  1  0
 12 22  1  0
 12 23  1  0
M  RAD  1  10   2
M  END
>  <reaction>  (10) 
rmg_rxn_15476

>  <mol_properties>  (10) 
{"1": {"label": "*4", "atom_type": "N3d"}, "2": {"label": "*3", "atom_type": "Cd"}, "6": {"label": "*0", "atom_type": "Cd"}, "9": {"label": "*1", "atom_type": "N3s"}, "17": {"label": "*2", "atom_type": "H0"}}

>  <type>  (10) 
unop_6

>  <geom_source>  (10) 
Heuristics

$$$$

     RDKit          3D

 23 21  0  0  0  0  0  0  0  0999 V2000
   -1.2385   -2.6478   -2.6071 O   0  0  0  0  0  0  0  0  0  0  0  0
   -0.8627   -1.4996   -1.9382 N   0  0  0  0  0  0  0  0  0  0  0  0
   -0.7833   -1.6839   -0.6919 C   0  0  0  0  0  3  0  0  0  0  0  0
   -1.2598   -2.3727   -3.5257 H   0  0  0  0  0  0  0  0  0  0  0  0
   -0.9920   -2.6448   -0.2265 H   0  0  0  0  0  0  0  0  0  0  0  0
    0.4724    1.2839   -1.4732 C   0  0  0  0  0  0  0  0  0  0  0  0
    0.4724    1.2839    0.0299 C   0  0  0  0  0  0  0  0  0  0  0  0
    0.4724    2.4026    0.7146 C   0  0  0  0  0  0  0  0  0  0  0  0
    0.5440    3.5307    1.3604 C   0  0  0  0  0  0  0  0  0  0  0  0
    0.5225    0.0153    0.6139 N   0  0  0  0  0  0  0  0  0  0  0  0
    0.3316   -0.0989    2.0445 C   0  0  0  0  0  0  0  0  0  0  0  0
    0.3798   -1.5511    2.4796 C   0  0  0  0  0  0  0  0  0  0  0  0
    1.3573    0.7650   -1.8480 H   0  0  0  0  0  0  0  0  0  0  0  0
   -0.4101    0.7636   -1.8575 H   0  0  0  0  0  0  0  0  0  0  0  0
    0.4658    2.2997   -1.8612 H   0  0  0  0  0  0  0  0  0  0  0  0
    1.4988    3.9704    1.6362 H   0  0  0  0  0  0  0  0  0  0  0  0
   -0.3465    4.0802    1.6517 H   0  0  0  0  0  0  0  0  0  0  0  0
   -0.1078   -0.8049   -0.0164 H   0  0  0  0  0  0  0  0  0  0  0  0
    1.1286    0.4660    2.5340 H   0  0  0  0  0  0  0  0  0  0  0  0
   -0.6149    0.3629    2.3607 H   0  0  0  0  0  0  0  0  0  0  0  0
    1.3316   -2.0069    2.2031 H   0  0  0  0  0  0  0  0  0  0  0  0
   -0.4235   -2.1289    2.0149 H   0  0  0  0  0  0  0  0  0  0  0  0
    0.2597   -1.6297    3.5604 H   0  0  0  0  0  0  0  0  0  0  0  0
  1  2  1  0
  1  4  1  0
  2  3  2  3
  3  5  1  0
  6  7  1  0
  6 13  1  0
  6 14  1  0
  6 15  1  0
  7  8  2  0
  7 10  1  0
  8  9  2  0
  9 16  1  0
  9 17  1  0
 10 11  1  0
 10 18  1  0
 11 12  1  0
 11 19  1  0
 11 20  1  0
 12 21  1  0
 12 22  1  0
 12 23  1  0
M  RAD  1   3   2
M  END
>  <reaction>  (11) 
rmg_rxn_15476

>  <mol_properties>  (11) 
{"1": {"label": "*4", "atom_type": "N3d"}, "2": {"label": "*3", "atom_type": "Cd"}, "6": {"label": "*0", "atom_type": "Cd"}, "9": {"label": "*1", "atom_type": "N3s"}, "17": {"label": "*2", "atom_type": "H0"}}

>  <type>  (11) 
unop_7

>  <geom_source>  (11) 
Heuristics

$$$$

     RDKit          3D

 23 21  0  0  0  0  0  0  0  0999 V2000
   -3.7569   -0.2868   -0.7086 O   0  0  0  0  0  0  0  0  0  0  0  0
   -2.3899   -0.3161   -0.3518 N   0  0  0  0  0  0  0  0  0  0  0  0
   -2.0004    0.3353    0.6303 C   0  0  0  0  0  0  0  0  0  0  0  0
   -3.8143   -0.8556   -1.4879 H   0  0  0  0  0  0  0  0  0  0  0  0
   -2.5948    0.9624    1.2871 H   0  0  0  0  0  0  0  0  0  0  0  0
    0.4922   -2.0876    0.5816 C   0  0  0  0  0  0  0  0  0  0  0  0
    1.1088   -0.7336    0.3523 C   0  0  0  0  0  0  0  0  0  0  0  0
    2.1839   -0.6214   -0.4307 C   0  0  0  0  0  0  0  0  0  0  0  0
    3.3258   -0.5302   -1.0275 C   0  0  0  0  0  0  0  0  0  0  0  0
    0.5130    0.2879    0.9979 N   0  0  0  0  0  2  0  0  0  0  0  0
    0.9700    1.6322    0.7596 C   0  0  0  0  0  0  0  0  0  0  0  0
    0.6337    2.1704   -0.6336 C   0  0  0  0  0  0  0  0  0  0  0  0
    0.3896   -2.2643    1.6498 H   0  0  0  0  0  0  0  0  0  0  0  0
   -0.5005   -2.1080    0.1356 H   0  0  0  0  0  0  0  0  0  0  0  0
    1.1037   -2.8696    0.1407 H   0  0  0  0  0  0  0  0  0  0  0  0
    4.2687   -0.5712   -0.4960 H   0  0  0  0  0  0  0  0  0  0  0  0
    3.4054   -0.4164   -2.1000 H   0  0  0  0  0  0  0  0  0  0  0  0
   -0.7541    0.2630    0.8737 H   0  0  0  0  0  0  0  0  0  0  0  0
    0.4992    2.2637    1.5198 H   0  0  0  0  0  0  0  0  0  0  0  0
    2.0563    1.6694    0.9037 H   0  0  0  0  0  0  0  0  0  0  0  0
    1.0874    1.5446   -1.3981 H   0  0  0  0  0  0  0  0  0  0  0  0
    1.0086    3.1847   -0.7416 H   0  0  0  0  0  0  0  0  0  0  0  0
   -0.4438    2.1751   -0.7827 H   0  0  0  0  0  0  0  0  0  0  0  0
  1  2  1  0
  1  4  1  0
  2  3  2  3
  3  5  1  0
  3 18  1  0
  6  7  1  0
  6 13  1  0
  6 14  1  0
  6 15  1  0
  7  8  2  0
  7 10  1  0
  8  9  2  0
  9 16  1  0
  9 17  1  0
 10 11  1  0
 11 12  1  0
 11 19  1  0
 11 20  1  0
 12 21  1  0
 12 22  1  0
 12 23  1  0
M  RAD  1  10   2
M  END
>  <reaction>  (12) 
rmg_rxn_15476

>  <mol_properties>  (12) 
{"1": {"label": "*4", "atom_type": "N3d"}, "2": {"label": "*3", "atom_type": "Cd"}, "6": {"label": "*0", "atom_type": "Cd"}, "9": {"label": "*1", "atom_type": "N3s"}, "17": {"label": "*2", "atom_type": "H0"}}

>  <type>  (12) 
unop_8

>  <geom_source>  (12) 
Heuristics

$$$$

     RDKit          3D

 23 21  0  0  0  0  0  0  0  0999 V2000
   -1.4336   -3.5118   -1.0722 O   0  0  0  0  0  0  0  0  0  0  0  0
   -0.3965   -2.6028   -0.9996 N   0  0  0  0  0  0  0  0  0  0  0  0
   -0.8090   -1.4109   -1.0521 C   0  0  0  0  0  3  0  0  0  0  0  0
   -0.9891   -4.3603   -1.0223 H   0  0  0  0  0  0  0  0  0  0  0  0
   -1.8633   -1.1585   -1.1438 H   0  0  0  0  0  0  0  0  0  0  0  0
    0.4467    1.5568   -1.8334 C   0  0  0  0  0  0  0  0  0  0  0  0
    0.4467    1.5568   -0.3302 C   0  0  0  0  0  0  0  0  0  0  0  0
    0.4467    2.6755    0.3545 C   0  0  0  0  0  0  0  0  0  0  0  0
    0.5183    3.8037    1.0002 C   0  0  0  0  0  0  0  0  0  0  0  0
    0.4969    0.2882    0.2538 N   0  0  0  0  0  0  0  0  0  0  0  0
    0.3060    0.1741    1.6843 C   0  0  0  0  0  0  0  0  0  0  0  0
    0.3541   -1.2782    2.1194 C   0  0  0  0  0  0  0  0  0  0  0  0
    1.3316    1.0379   -2.2082 H   0  0  0  0  0  0  0  0  0  0  0  0
   -0.4358    1.0366   -2.2177 H   0  0  0  0  0  0  0  0  0  0  0  0
    0.4402    2.5726   -2.2214 H   0  0  0  0  0  0  0  0  0  0  0  0
    1.4731    4.2434    1.2760 H   0  0  0  0  0  0  0  0  0  0  0  0
   -0.3722    4.3531    1.2916 H   0  0  0  0  0  0  0  0  0  0  0  0
   -0.1334   -0.5319   -0.3766 H   0  0  0  0  0  0  0  0  0  0  0  0
    1.1029    0.7389    2.1739 H   0  0  0  0  0  0  0  0  0  0  0  0
   -0.6406    0.6359    2.0006 H   0  0  0  0  0  0  0  0  0  0  0  0
    1.3059   -1.7339    1.8429 H   0  0  0  0  0  0  0  0  0  0  0  0
   -0.4492   -1.8560    1.6547 H   0  0  0  0  0  0  0  0  0  0  0  0
    0.2340   -1.3568    3.2002 H   0  0  0  0  0  0  0  0  0  0  0  0
  1  2  1  0
  1  4  1  0
  2  3  2  3
  3  5  1  0
  6  7  1  0
  6 13  1  0
  6 14  1  0
  6 15  1  0
  7  8  2  0
  7 10  1  0
  8  9  2  0
  9 16  1  0
  9 17  1  0
 10 11  1  0
 10 18  1  0
 11 12  1  0
 11 19  1  0
 11 20  1  0
 12 21  1  0
 12 22  1  0
 12 23  1  0
M  RAD  1   3   2
M  END
>  <reaction>  (13) 
rmg_rxn_15476

>  <mol_properties>  (13) 
{"1": {"label": "*4", "atom_type": "N3d"}, "2": {"label": "*3", "atom_type": "Cd"}, "6": {"label": "*0", "atom_type": "Cd"}, "9": {"label": "*1", "atom_type": "N3s"}, "17": {"label": "*2", "atom_type": "H0"}}

>  <type>  (13) 
unop_9

>  <geom_source>  (13) 
Heuristics

$$$$

     RDKit          3D

 23 21  0  0  0  0  0  0  0  0999 V2000
   -2.4528   -2.6338   -1.2111 O   0  0  0  0  0  0  0  0  0  0  0  0
   -1.7183   -1.4656   -1.1553 N   0  0  0  0  0  0  0  0  0  0  0  0
   -0.4846   -1.6902   -1.0109 C   0  0  0  0  0  3  0  0  0  0  0  0
   -3.3541   -2.3243   -1.3200 H   0  0  0  0  0  0  0  0  0  0  0  0
   -0.0756   -2.6960   -0.9415 H   0  0  0  0  0  0  0  0  0  0  0  0
    0.7711    1.2775   -1.7922 C   0  0  0  0  0  0  0  0  0  0  0  0
    0.7711    1.2775   -0.2890 C   0  0  0  0  0  0  0  0  0  0  0  0
    0.7711    2.3962    0.3957 C   0  0  0  0  0  0  0  0  0  0  0  0
    0.8427    3.5243    1.0414 C   0  0  0  0  0  0  0  0  0  0  0  0
    0.8213    0.0089    0.2950 N   0  0  0  0  0  0  0  0  0  0  0  0
    0.6304   -0.1053    1.7255 C   0  0  0  0  0  0  0  0  0  0  0  0
    0.6785   -1.5575    2.1606 C   0  0  0  0  0  0  0  0  0  0  0  0
    1.6561    0.7586   -2.1670 H   0  0  0  0  0  0  0  0  0  0  0  0
   -0.1114    0.7573   -2.1764 H   0  0  0  0  0  0  0  0  0  0  0  0
    0.7646    2.2933   -2.1802 H   0  0  0  0  0  0  0  0  0  0  0  0
    1.7975    3.9641    1.3172 H   0  0  0  0  0  0  0  0  0  0  0  0
   -0.0478    4.0738    1.3328 H   0  0  0  0  0  0  0  0  0  0  0  0
    0.1910   -0.8113   -0.3353 H   0  0  0  0  0  0  0  0  0  0  0  0
    1.4274    0.4596    2.2151 H   0  0  0  0  0  0  0  0  0  0  0  0
   -0.3162    0.3566    2.0418 H   0  0  0  0  0  0  0  0  0  0  0  0
    1.6304   -2.0133    1.8841 H   0  0  0  0  0  0  0  0  0  0  0  0
   -0.1248   -2.1353    1.6959 H   0  0  0  0  0  0  0  0  0  0  0  0
    0.5584   -1.6361    3.2415 H   0  0  0  0  0  0  0  0  0  0  0  0
  1  2  1  0
  1  4  1  0
  2  3  2  3
  3  5  1  0
  6  7  1  0
  6 13  1  0
  6 14  1  0
  6 15  1  0
  7  8  2  0
  7 10  1  0
  8  9  2  0
  9 16  1  0
  9 17  1  0
 10 11  1  0
 10 18  1  0
 11 12  1  0
 11 19  1  0
 11 20  1  0
 12 21  1  0
 12 22  1  0
 12 23  1  0
M  RAD  1   3   2
M  END
>  <reaction>  (14) 
rmg_rxn_15476

>  <mol_properties>  (14) 
{"1": {"label": "*4", "atom_type": "N3d"}, "2": {"label": "*3", "atom_type": "Cd"}, "6": {"label": "*0", "atom_type": "Cd"}, "9": {"label": "*1", "atom_type": "N3s"}, "17": {"label": "*2", "atom_type": "H0"}}

>  <type>  (14) 
unop_10

>  <geom_source>  (14) 
Heuristics

$$$$

     RDKit          3D

 23 21  0  0  0  0  0  0  0  0999 V2000
    3.7590   -0.2868   -0.7065 O   0  0  0  0  0  0  0  0  0  0  0  0
    2.3928   -0.3207   -0.3471 N   0  0  0  0  0  0  0  0  0  0  0  0
    1.9993    0.3471    0.6223 C   0  0  0  0  0  0  0  0  0  0  0  0
    3.8204   -0.8710   -1.4739 H   0  0  0  0  0  0  0  0  0  0  0  0
    2.5898    0.9924    1.2649 H   0  0  0  0  0  0  0  0  0  0  0  0
   -0.4863   -2.0857    0.5844 C   0  0  0  0  0  0  0  0  0  0  0  0
   -1.1067   -0.7338    0.3532 C   0  0  0  0  0  0  0  0  0  0  0  0
   -2.1831   -0.6259   -0.4286 C   0  0  0  0  0  0  0  0  0  0  0  0
   -3.3253   -0.5388   -1.0255 C   0  0  0  0  0  0  0  0  0  0  0  0
   -0.5130    0.2904    0.9964 N   0  0  0  0  0  2  0  0  0  0  0  0
   -0.9747    1.6329    0.7575 C   0  0  0  0  0  0  0  0  0  0  0  0
   -0.6421    2.1709   -0.6368 C   0  0  0  0  0  0  0  0  0  0  0  0
    0.5085   -2.1022    0.1429 H   0  0  0  0  0  0  0  0  0  0  0  0
   -0.3878   -2.2627    1.6529 H   0  0  0  0  0  0  0  0  0  0  0  0
   -1.0930   -2.8697    0.1404 H   0  0  0  0  0  0  0  0  0  0  0  0
   -3.4051   -0.4270   -2.0982 H   0  0  0  0  0  0  0  0  0  0  0  0
   -4.2681   -0.5814   -0.4941 H   0  0  0  0  0  0  0  0  0  0  0  0
    0.7541    0.2698    0.8694 H   0  0  0  0  0  0  0  0  0  0  0  0
   -2.0609    1.6668    0.9032 H   0  0  0  0  0  0  0  0  0  0  0  0
   -0.5048    2.2666    1.5164 H   0  0  0  0  0  0  0  0  0  0  0  0
    0.4351    2.1786   -0.7877 H   0  0  0  0  0  0  0  0  0  0  0  0
   -1.0201    3.1841   -0.7449 H   0  0  0  0  0  0  0  0  0  0  0  0
   -1.0954    1.5432   -1.4000 H   0  0  0  0  0  0  0  0  0  0  0  0
  1  2  1  0
  1  4  1  0
  2  3  2  3
  3  5  1  0
  3 18  1  0
  6  7  1  0
  6 13  1  0
  6 14  1  0
  6 15  1  0
  7  8  2  0
  7 10  1  0
  8  9  2  0
  9 16  1  0
  9 17  1  0
 10 11  1  0
 11 12  1  0
 11 19  1  0
 11 20  1  0
 12 21  1  0
 12 22  1  0
 12 23  1  0
M  RAD  1  10   2
M  END
>  <reaction>  (15) 
rmg_rxn_15476

>  <mol_properties>  (15) 
{"1": {"label": "*4", "atom_type": "N3d"}, "2": {"label": "*3", "atom_type": "Cd"}, "6": {"label": "*0", "atom_type": "Cd"}, "9": {"label": "*1", "atom_type": "N3s"}, "17": {"label": "*2", "atom_type": "H0"}}

>  <type>  (15) 
unop_11

>  <geom_source>  (15) 
Heuristics

$$$$

     RDKit          3D

 23 21  0  0  0  0  0  0  0  0999 V2000
   -1.5070   -3.4516   -1.3859 O   0  0  0  0  0  0  0  0  0  0  0  0
   -0.7626   -2.5982   -0.5955 N   0  0  0  0  0  0  0  0  0  0  0  0
   -0.7526   -1.4211   -1.0513 C   0  0  0  0  0  3  0  0  0  0  0  0
   -1.4319   -4.2946   -0.9343 H   0  0  0  0  0  0  0  0  0  0  0  0
   -1.2774   -1.1401   -1.9618 H   0  0  0  0  0  0  0  0  0  0  0  0
    0.5031    1.5466   -1.8326 C   0  0  0  0  0  0  0  0  0  0  0  0
    0.5031    1.5466   -0.3294 C   0  0  0  0  0  0  0  0  0  0  0  0
    0.5031    2.6654    0.3553 C   0  0  0  0  0  0  0  0  0  0  0  0
    0.5747    3.7935    1.0011 C   0  0  0  0  0  0  0  0  0  0  0  0
    0.5533    0.2780    0.2546 N   0  0  0  0  0  0  0  0  0  0  0  0
    0.3624    0.1639    1.6852 C   0  0  0  0  0  0  0  0  0  0  0  0
    0.4105   -1.2884    2.1203 C   0  0  0  0  0  0  0  0  0  0  0  0
    1.3881    1.0277   -2.2074 H   0  0  0  0  0  0  0  0  0  0  0  0
   -0.3794    1.0264   -2.2168 H   0  0  0  0  0  0  0  0  0  0  0  0
    0.4966    2.5624   -2.2205 H   0  0  0  0  0  0  0  0  0  0  0  0
    1.5295    4.2332    1.2769 H   0  0  0  0  0  0  0  0  0  0  0  0
   -0.3158    4.3429    1.2924 H   0  0  0  0  0  0  0  0  0  0  0  0
   -0.0770   -0.5421   -0.3757 H   0  0  0  0  0  0  0  0  0  0  0  0
    1.1594    0.7287    2.1747 H   0  0  0  0  0  0  0  0  0  0  0  0
   -0.5842    0.6257    2.0014 H   0  0  0  0  0  0  0  0  0  0  0  0
    1.3624   -1.7441    1.8438 H   0  0  0  0  0  0  0  0  0  0  0  0
   -0.3928   -1.8662    1.6556 H   0  0  0  0  0  0  0  0  0  0  0  0
    0.2904   -1.3670    3.2011 H   0  0  0  0  0  0  0  0  0  0  0  0
  1  2  1  0
  1  4  1  0
  2  3  2  3
  3  5  1  0
  6  7  1  0
  6 13  1  0
  6 14  1  0
  6 15  1  0
  7  8  2  0
  7 10  1  0
  8  9  2  0
  9 16  1  0
  9 17  1  0
 10 11  1  0
 10 18  1  0
 11 12  1  0
 11 19  1  0
 11 20  1  0
 12 21  1  0
 12 22  1  0
 12 23  1  0
M  RAD  1   3   2
M  END
>  <reaction>  (16) 
rmg_rxn_15476

>  <mol_properties>  (16) 
{"1": {"label": "*4", "atom_type": "N3d"}, "2": {"label": "*3", "atom_type": "Cd"}, "6": {"label": "*0", "atom_type": "Cd"}, "9": {"label": "*1", "atom_type": "N3s"}, "17": {"label": "*2", "atom_type": "H0"}}

>  <type>  (16) 
unop_12

>  <geom_source>  (16) 
Heuristics

$$$$

     RDKit          3D

 23 21  0  0  0  0  0  0  0  0999 V2000
   -3.7600    0.2866    0.7058 O   0  0  0  0  0  0  0  0  0  0  0  0
   -2.3928    0.3178    0.3500 N   0  0  0  0  0  0  0  0  0  0  0  0
   -2.0004   -0.3404   -0.6264 C   0  0  0  0  0  0  0  0  0  0  0  0
   -3.8203    0.8617    1.4802 H   0  0  0  0  0  0  0  0  0  0  0  0
   -2.5925   -0.9752   -1.2779 H   0  0  0  0  0  0  0  0  0  0  0  0
    0.4890    2.0867   -0.5803 C   0  0  0  0  0  0  0  0  0  0  0  0
    1.1081    0.7337   -0.3519 C   0  0  0  0  0  0  0  0  0  0  0  0
    2.1851    0.6234    0.4288 C   0  0  0  0  0  0  0  0  0  0  0  0
    3.3285    0.5342    1.0231 C   0  0  0  0  0  0  0  0  0  0  0  0
    0.5127   -0.2888   -0.9961 N   0  0  0  0  0  2  0  0  0  0  0  0
    0.9719   -1.6324   -0.7582 C   0  0  0  0  0  0  0  0  0  0  0  0
    0.6386   -2.1706    0.6358 C   0  0  0  0  0  0  0  0  0  0  0  0
   -0.5044    2.1043   -0.1356 H   0  0  0  0  0  0  0  0  0  0  0  0
    1.0983    2.8694   -0.1375 H   0  0  0  0  0  0  0  0  0  0  0  0
    0.3875    2.2646   -1.6483 H   0  0  0  0  0  0  0  0  0  0  0  0
    4.2702    0.5766    0.4897 H   0  0  0  0  0  0  0  0  0  0  0  0
    3.4105    0.4205    2.0955 H   0  0  0  0  0  0  0  0  0  0  0  0
   -0.7544   -0.2658   -0.8703 H   0  0  0  0  0  0  0  0  0  0  0  0
    0.5007   -2.2648   -1.5174 H   0  0  0  0  0  0  0  0  0  0  0  0
    2.0580   -1.6683   -0.9041 H   0  0  0  0  0  0  0  0  0  0  0  0
   -0.4386   -2.1768    0.7866 H   0  0  0  0  0  0  0  0  0  0  0  0
    1.0926   -1.5437    1.3992 H   0  0  0  0  0  0  0  0  0  0  0  0
    1.0153   -3.1843    0.7436 H   0  0  0  0  0  0  0  0  0  0  0  0
  1  2  1  0
  1  4  1  0
  2  3  2  3
  3  5  1  0
  3 18  1  0
  6  7  1  0
  6 13  1  0
  6 14  1  0
  6 15  1  0
  7  8  2  0
  7 10  1  0
  8  9  2  0
  9 16  1  0
  9 17  1  0
 10 11  1  0
 11 12  1  0
 11 19  1  0
 11 20  1  0
 12 21  1  0
 12 22  1  0
 12 23  1  0
M  RAD  1  10   2
M  END
>  <reaction>  (17) 
rmg_rxn_15476

>  <mol_properties>  (17) 
{"1": {"label": "*4", "atom_type": "N3d"}, "2": {"label": "*3", "atom_type": "Cd"}, "6": {"label": "*0", "atom_type": "Cd"}, "9": {"label": "*1", "atom_type": "N3s"}, "17": {"label": "*2", "atom_type": "H0"}}

>  <type>  (17) 
unop_13

>  <geom_source>  (17) 
Heuristics

$$$$

     RDKit          3D

 23 21  0  0  0  0  0  0  0  0999 V2000
    3.7582   -0.2864    0.7079 O   0  0  0  0  0  0  0  0  0  0  0  0
    2.3910   -0.3167    0.3518 N   0  0  0  0  0  0  0  0  0  0  0  0
    2.0006    0.3353   -0.6295 C   0  0  0  0  0  0  0  0  0  0  0  0
    3.8166   -0.8560    1.4865 H   0  0  0  0  0  0  0  0  0  0  0  0
    2.5945    0.9635   -1.2858 H   0  0  0  0  0  0  0  0  0  0  0  0
   -0.4929   -2.0878   -0.5813 C   0  0  0  0  0  0  0  0  0  0  0  0
   -1.1091   -0.7336   -0.3520 C   0  0  0  0  0  0  0  0  0  0  0  0
   -2.1845   -0.6213    0.4306 C   0  0  0  0  0  0  0  0  0  0  0  0
   -3.3267   -0.5300    1.0269 C   0  0  0  0  0  0  0  0  0  0  0  0
   -0.5129    0.2877   -0.9974 N   0  0  0  0  0  2  0  0  0  0  0  0
   -0.9698    1.6321   -0.7599 C   0  0  0  0  0  0  0  0  0  0  0  0
   -0.6344    2.1707    0.6334 C   0  0  0  0  0  0  0  0  0  0  0  0
   -0.3947   -2.2665   -1.6495 H   0  0  0  0  0  0  0  0  0  0  0  0
    0.5016   -2.1070   -0.1393 H   0  0  0  0  0  0  0  0  0  0  0  0
   -1.1023   -2.8692   -0.1364 H   0  0  0  0  0  0  0  0  0  0  0  0
   -4.2694   -0.5712    0.4952 H   0  0  0  0  0  0  0  0  0  0  0  0
   -3.4066   -0.4163    2.0994 H   0  0  0  0  0  0  0  0  0  0  0  0
    0.7543    0.2629   -0.8727 H   0  0  0  0  0  0  0  0  0  0  0  0
   -0.4983    2.2633   -1.5199 H   0  0  0  0  0  0  0  0  0  0  0  0
   -2.0560    1.6695   -0.9049 H   0  0  0  0  0  0  0  0  0  0  0  0
   -1.0097    3.1850    0.7410 H   0  0  0  0  0  0  0  0  0  0  0  0
    0.4430    2.1756    0.7832 H   0  0  0  0  0  0  0  0  0  0  0  0
   -1.0885    1.5449    1.3977 H   0  0  0  0  0  0  0  0  0  0  0  0
  1  2  1  0
  1  4  1  0
  2  3  2  3
  3  5  1  0
  3 18  1  0
  6  7  1  0
  6 13  1  0
  6 14  1  0
  6 15  1  0
  7  8  2  0
  7 10  1  0
  8  9  2  0
  9 16  1  0
  9 17  1  0
 10 11  1  0
 11 12  1  0
 11 19  1  0
 11 20  1  0
 12 21  1  0
 12 22  1  0
 12 23  1  0
M  RAD  1  10   2
M  END
>  <reaction>  (18) 
rmg_rxn_15476

>  <mol_properties>  (18) 
{"1": {"label": "*4", "atom_type": "N3d"}, "2": {"label": "*3", "atom_type": "Cd"}, "6": {"label": "*0", "atom_type": "Cd"}, "9": {"label": "*1", "atom_type": "N3s"}, "17": {"label": "*2", "atom_type": "H0"}}

>  <type>  (18) 
unop_14

>  <geom_source>  (18) 
Heuristics

$$$$

     RDKit          3D

 23 21  0  0  0  0  0  0  0  0999 V2000
   -2.1314   -3.0569   -0.8082 O   0  0  0  0  0  0  0  0  0  0  0  0
   -1.7476   -1.7304   -0.8063 N   0  0  0  0  0  0  0  0  0  0  0  0
   -0.5324   -1.5902   -1.1180 C   0  0  0  0  0  3  0  0  0  0  0  0
   -3.0571   -3.0206   -0.5595 H   0  0  0  0  0  0  0  0  0  0  0  0
    0.1133   -2.4330   -1.3554 H   0  0  0  0  0  0  0  0  0  0  0  0
    0.7233    1.3775   -1.8993 C   0  0  0  0  0  0  0  0  0  0  0  0
    0.7233    1.3775   -0.3961 C   0  0  0  0  0  0  0  0  0  0  0  0
    0.7233    2.4963    0.2886 C   0  0  0  0  0  0  0  0  0  0  0  0
    0.7949    3.6244    0.9343 C   0  0  0  0  0  0  0  0  0  0  0  0
    0.7735    0.1089    0.1879 N   0  0  0  0  0  0  0  0  0  0  0  0
    0.5826   -0.0052    1.6185 C   0  0  0  0  0  0  0  0  0  0  0  0
    0.6307   -1.4575    2.0535 C   0  0  0  0  0  0  0  0  0  0  0  0
    1.6082    0.8586   -2.2741 H   0  0  0  0  0  0  0  0  0  0  0  0
   -0.1592    0.8573   -2.2835 H   0  0  0  0  0  0  0  0  0  0  0  0
    0.7167    2.3933   -2.2872 H   0  0  0  0  0  0  0  0  0  0  0  0
    1.7497    4.0641    1.2102 H   0  0  0  0  0  0  0  0  0  0  0  0
   -0.0956    4.1738    1.2257 H   0  0  0  0  0  0  0  0  0  0  0  0
    0.1431   -0.7112   -0.4424 H   0  0  0  0  0  0  0  0  0  0  0  0
    1.3795    0.5596    2.1080 H   0  0  0  0  0  0  0  0  0  0  0  0
   -0.3640    0.4566    1.9347 H   0  0  0  0  0  0  0  0  0  0  0  0
    1.5825   -1.9132    1.7771 H   0  0  0  0  0  0  0  0  0  0  0  0
   -0.1726   -2.0353    1.5889 H   0  0  0  0  0  0  0  0  0  0  0  0
    0.5106   -1.5361    3.1344 H   0  0  0  0  0  0  0  0  0  0  0  0
  1  2  1  0
  1  4  1  0
  2  3  2  3
  3  5  1  0
  6  7  1  0
  6 13  1  0
  6 14  1  0
  6 15  1  0
  7  8  2  0
  7 10  1  0
  8  9  2  0
  9 16  1  0
  9 17  1  0
 10 11  1  0
 10 18  1  0
 11 12  1  0
 11 19  1  0
 11 20  1  0
 12 21  1  0
 12 22  1  0
 12 23  1  0
M  RAD  1   3   2
M  END
>  <reaction>  (19) 
rmg_rxn_15476

>  <mol_properties>  (19) 
{"1": {"label": "*4", "atom_type": "N3d"}, "2": {"label": "*3", "atom_type": "Cd"}, "6": {"label": "*0", "atom_type": "Cd"}, "9": {"label": "*1", "atom_type": "N3s"}, "17": {"label": "*2", "atom_type": "H0"}}

>  <type>  (19) 
unop_15

>  <geom_source>  (19) 
Heuristics

$$$$

     RDKit          3D

 23 21  0  0  0  0  0  0  0  0999 V2000
    3.7584   -0.2864    0.7072 O   0  0  0  0  0  0  0  0  0  0  0  0
    2.3923   -0.3203    0.3471 N   0  0  0  0  0  0  0  0  0  0  0  0
    1.9993    0.3479   -0.6222 C   0  0  0  0  0  0  0  0  0  0  0  0
    3.8195   -0.8710    1.4744 H   0  0  0  0  0  0  0  0  0  0  0  0
    2.5901    0.9932   -1.2646 H   0  0  0  0  0  0  0  0  0  0  0  0
   -0.4850   -2.0855   -0.5858 C   0  0  0  0  0  0  0  0  0  0  0  0
   -1.1060   -0.7340   -0.3537 C   0  0  0  0  0  0  0  0  0  0  0  0
   -2.1821   -0.6268    0.4285 C   0  0  0  0  0  0  0  0  0  0  0  0
   -3.3236   -0.5403    1.0269 C   0  0  0  0  0  0  0  0  0  0  0  0
   -0.5130    0.2908   -0.9966 N   0  0  0  0  0  2  0  0  0  0  0  0
   -0.9758    1.6329   -0.7576 C   0  0  0  0  0  0  0  0  0  0  0  0
   -0.6441    2.1712    0.6367 C   0  0  0  0  0  0  0  0  0  0  0  0
    0.5099   -2.1017   -0.1446 H   0  0  0  0  0  0  0  0  0  0  0  0
   -1.0912   -2.8699   -0.1420 H   0  0  0  0  0  0  0  0  0  0  0  0
   -0.3868   -2.2619   -1.6545 H   0  0  0  0  0  0  0  0  0  0  0  0
   -4.2671   -0.5837    0.4968 H   0  0  0  0  0  0  0  0  0  0  0  0
   -3.4020   -0.4287    2.0997 H   0  0  0  0  0  0  0  0  0  0  0  0
    0.7540    0.2710   -0.8693 H   0  0  0  0  0  0  0  0  0  0  0  0
   -0.5066    2.2672   -1.5163 H   0  0  0  0  0  0  0  0  0  0  0  0
   -2.0621    1.6657   -0.9033 H   0  0  0  0  0  0  0  0  0  0  0  0
   -1.0944    1.5412    1.3998 H   0  0  0  0  0  0  0  0  0  0  0  0
   -1.0257    3.1829    0.7460 H   0  0  0  0  0  0  0  0  0  0  0  0
    0.4333    2.1826    0.7867 H   0  0  0  0  0  0  0  0  0  0  0  0
  1  2  1  0
  1  4  1  0
  2  3  2  3
  3  5  1  0
  3 18  1  0
  6  7  1  0
  6 13  1  0
  6 14  1  0
  6 15  1  0
  7  8  2  0
  7 10  1  0
  8  9  2  0
  9 16  1  0
  9 17  1  0
 10 11  1  0
 11 12  1  0
 11 19  1  0
 11 20  1  0
 12 21  1  0
 12 22  1  0
 12 23  1  0
M  RAD  1  10   2
M  END
>  <reaction>  (20) 
rmg_rxn_15476

>  <mol_properties>  (20) 
{"1": {"label": "*4", "atom_type": "N3d"}, "2": {"label": "*3", "atom_type": "Cd"}, "6": {"label": "*0", "atom_type": "Cd"}, "9": {"label": "*1", "atom_type": "N3s"}, "17": {"label": "*2", "atom_type": "H0"}}

>  <type>  (20) 
unop_16

>  <geom_source>  (20) 
Heuristics

$$$$

     RDKit          3D

 23 21  0  0  0  0  0  0  0  0999 V2000
   -1.6213   -3.4179   -0.8038 O   0  0  0  0  0  0  0  0  0  0  0  0
   -1.5838   -2.0619   -0.5451 N   0  0  0  0  0  0  0  0  0  0  0  0
   -0.6340   -1.4920   -1.1505 C   0  0  0  0  0  3  0  0  0  0  0  0
   -2.3741   -3.7208   -0.2924 H   0  0  0  0  0  0  0  0  0  0  0  0
    0.0585   -2.0304   -1.7941 H   0  0  0  0  0  0  0  0  0  0  0  0
    0.6217    1.4758   -1.9319 C   0  0  0  0  0  0  0  0  0  0  0  0
    0.6217    1.4758   -0.4287 C   0  0  0  0  0  0  0  0  0  0  0  0
    0.6217    2.5945    0.2560 C   0  0  0  0  0  0  0  0  0  0  0  0
    0.6933    3.7226    0.9018 C   0  0  0  0  0  0  0  0  0  0  0  0
    0.6718    0.2071    0.1553 N   0  0  0  0  0  0  0  0  0  0  0  0
    0.4809    0.0930    1.5859 C   0  0  0  0  0  0  0  0  0  0  0  0
    0.5291   -1.3592    2.0210 C   0  0  0  0  0  0  0  0  0  0  0  0
    1.5066    0.9568   -2.3067 H   0  0  0  0  0  0  0  0  0  0  0  0
   -0.2609    0.9555   -2.3161 H   0  0  0  0  0  0  0  0  0  0  0  0
    0.6151    2.4916   -2.3198 H   0  0  0  0  0  0  0  0  0  0  0  0
    1.6481    4.1623    1.1776 H   0  0  0  0  0  0  0  0  0  0  0  0
   -0.1972    4.2720    1.1931 H   0  0  0  0  0  0  0  0  0  0  0  0
    0.0415   -0.6130   -0.4750 H   0  0  0  0  0  0  0  0  0  0  0  0
    1.2779    0.6579    2.0754 H   0  0  0  0  0  0  0  0  0  0  0  0
   -0.4656    0.5548    1.9021 H   0  0  0  0  0  0  0  0  0  0  0  0
    1.4809   -1.8150    1.7445 H   0  0  0  0  0  0  0  0  0  0  0  0
   -0.2743   -1.9371    1.5563 H   0  0  0  0  0  0  0  0  0  0  0  0
    0.4089   -1.4379    3.1018 H   0  0  0  0  0  0  0  0  0  0  0  0
  1  2  1  0
  1  4  1  0
  2  3  2  3
  3  5  1  0
  6  7  1  0
  6 13  1  0
  6 14  1  0
  6 15  1  0
  7  8  2  0
  7 10  1  0
  8  9  2  0
  9 16  1  0
  9 17  1  0
 10 11  1  0
 10 18  1  0
 11 12  1  0
 11 19  1  0
 11 20  1  0
 12 21  1  0
 12 22  1  0
 12 23  1  0
M  RAD  1   3   2
M  END
>  <reaction>  (21) 
rmg_rxn_15476

>  <mol_properties>  (21) 
{"1": {"label": "*4", "atom_type": "N3d"}, "2": {"label": "*3", "atom_type": "Cd"}, "6": {"label": "*0", "atom_type": "Cd"}, "9": {"label": "*1", "atom_type": "N3s"}, "17": {"label": "*2", "atom_type": "H0"}}

>  <type>  (21) 
unop_17

>  <geom_source>  (21) 
Heuristics

$$$$

     RDKit          3D

 23 21  0  0  0  0  0  0  0  0999 V2000
   -3.7553   -0.2876    0.7095 O   0  0  0  0  0  0  0  0  0  0  0  0
   -2.3887   -0.3166    0.3511 N   0  0  0  0  0  0  0  0  0  0  0  0
   -1.9999    0.3378   -0.6292 C   0  0  0  0  0  0  0  0  0  0  0  0
   -3.8122   -0.8589    1.4870 H   0  0  0  0  0  0  0  0  0  0  0  0
   -2.5947    0.9678   -1.2830 H   0  0  0  0  0  0  0  0  0  0  0  0
    0.4902   -2.0866   -0.5851 C   0  0  0  0  0  0  0  0  0  0  0  0
    1.1078   -0.7334   -0.3535 C   0  0  0  0  0  0  0  0  0  0  0  0
    2.1822   -0.6231    0.4307 C   0  0  0  0  0  0  0  0  0  0  0  0
    3.3229   -0.5339    1.0299 C   0  0  0  0  0  0  0  0  0  0  0  0
    0.5134    0.2894   -0.9983 N   0  0  0  0  0  2  0  0  0  0  0  0
    0.9721    1.6328   -0.7589 C   0  0  0  0  0  0  0  0  0  0  0  0
    0.6348    2.1712    0.6340 C   0  0  0  0  0  0  0  0  0  0  0  0
    0.3909   -2.2630   -1.6536 H   0  0  0  0  0  0  0  0  0  0  0  0
    1.0992   -2.8695   -0.1422 H   0  0  0  0  0  0  0  0  0  0  0  0
   -0.5040   -2.1058   -0.1423 H   0  0  0  0  0  0  0  0  0  0  0  0
    3.4003   -0.4208    2.1026 H   0  0  0  0  0  0  0  0  0  0  0  0
    4.2668   -0.5755    0.5004 H   0  0  0  0  0  0  0  0  0  0  0  0
   -0.7538    0.2656   -0.8737 H   0  0  0  0  0  0  0  0  0  0  0  0
    2.0587    1.6683   -0.9015 H   0  0  0  0  0  0  0  0  0  0  0  0
    0.5035    2.2654   -1.5196 H   0  0  0  0  0  0  0  0  0  0  0  0
    1.0131    3.1841    0.7435 H   0  0  0  0  0  0  0  0  0  0  0  0
    1.0847    1.5431    1.3989 H   0  0  0  0  0  0  0  0  0  0  0  0
   -0.4430    2.1796    0.7809 H   0  0  0  0  0  0  0  0  0  0  0  0
  1  2  1  0
  1  4  1  0
  2  3  2  3
  3  5  1  0
  3 18  1  0
  6  7  1  0
  6 13  1  0
  6 14  1  0
  6 15  1  0
  7  8  2  0
  7 10  1  0
  8  9  2  0
  9 16  1  0
  9 17  1  0
 10 11  1  0
 11 12  1  0
 11 19  1  0
 11 20  1  0
 12 21  1  0
 12 22  1  0
 12 23  1  0
M  RAD  1  10   2
M  END
>  <reaction>  (22) 
rmg_rxn_15476

>  <mol_properties>  (22) 
{"1": {"label": "*4", "atom_type": "N3d"}, "2": {"label": "*3", "atom_type": "Cd"}, "6": {"label": "*0", "atom_type": "Cd"}, "9": {"label": "*1", "atom_type": "N3s"}, "17": {"label": "*2", "atom_type": "H0"}}

>  <type>  (22) 
unop_18

>  <geom_source>  (22) 
Heuristics

$$$$

     RDKit          3D

 23 21  0  0  0  0  0  0  0  0999 V2000
   -0.6554   -3.4454   -1.7787 O   0  0  0  0  0  0  0  0  0  0  0  0
   -0.3162   -2.1071   -1.7475 N   0  0  0  0  0  0  0  0  0  0  0  0
   -0.9433   -1.4821   -0.8478 C   0  0  0  0  0  3  0  0  0  0  0  0
   -0.1177   -3.7941   -2.4924 H   0  0  0  0  0  0  0  0  0  0  0  0
   -1.6609   -1.9661   -0.1887 H   0  0  0  0  0  0  0  0  0  0  0  0
    0.3124    1.4857   -1.6291 C   0  0  0  0  0  0  0  0  0  0  0  0
    0.3124    1.4857   -0.1259 C   0  0  0  0  0  0  0  0  0  0  0  0
    0.3124    2.6044    0.5588 C   0  0  0  0  0  0  0  0  0  0  0  0
    0.3840    3.7325    1.2046 C   0  0  0  0  0  0  0  0  0  0  0  0
    0.3625    0.2170    0.4581 N   0  0  0  0  0  0  0  0  0  0  0  0
    0.1716    0.1029    1.8887 C   0  0  0  0  0  0  0  0  0  0  0  0
    0.2198   -1.3493    2.3237 C   0  0  0  0  0  0  0  0  0  0  0  0
    1.1973    0.9667   -2.0039 H   0  0  0  0  0  0  0  0  0  0  0  0
   -0.5702    0.9654   -2.0133 H   0  0  0  0  0  0  0  0  0  0  0  0
    0.3058    2.5015   -2.0170 H   0  0  0  0  0  0  0  0  0  0  0  0
    1.3388    4.1722    1.4804 H   0  0  0  0  0  0  0  0  0  0  0  0
   -0.5065    4.2819    1.4959 H   0  0  0  0  0  0  0  0  0  0  0  0
   -0.2678   -0.6031   -0.1722 H   0  0  0  0  0  0  0  0  0  0  0  0
    0.9686    0.6678    2.3782 H   0  0  0  0  0  0  0  0  0  0  0  0
   -0.7749    0.5647    2.2049 H   0  0  0  0  0  0  0  0  0  0  0  0
    1.1716   -1.8051    2.0473 H   0  0  0  0  0  0  0  0  0  0  0  0
   -0.5835   -1.9271    1.8591 H   0  0  0  0  0  0  0  0  0  0  0  0
    0.0996   -1.4279    3.4046 H   0  0  0  0  0  0  0  0  0  0  0  0
  1  2  1  0
  1  4  1  0
  2  3  2  3
  3  5  1  0
  6  7  1  0
  6 13  1  0
  6 14  1  0
  6 15  1  0
  7  8  2  0
  7 10  1  0
  8  9  2  0
  9 16  1  0
  9 17  1  0
 10 11  1  0
 10 18  1  0
 11 12  1  0
 11 19  1  0
 11 20  1  0
 12 21  1  0
 12 22  1  0
 12 23  1  0
M  RAD  1   3   2
M  END
>  <reaction>  (23) 
rmg_rxn_15476

>  <mol_properties>  (23) 
{"1": {"label": "*4", "atom_type": "N3d"}, "2": {"label": "*3", "atom_type": "Cd"}, "6": {"label": "*0", "atom_type": "Cd"}, "9": {"label": "*1", "atom_type": "N3s"}, "17": {"label": "*2", "atom_type": "H0"}}

>  <type>  (23) 
unop_19

>  <geom_source>  (23) 
Heuristics

$$$$

     RDKit          3D

 23 21  0  0  0  0  0  0  0  0999 V2000
    3.7603   -0.2865    0.7054 O   0  0  0  0  0  0  0  0  0  0  0  0
    2.3940   -0.3213    0.3467 N   0  0  0  0  0  0  0  0  0  0  0  0
    1.9996    0.3468   -0.6222 C   0  0  0  0  0  0  0  0  0  0  0  0
    3.8226   -0.8712    1.4725 H   0  0  0  0  0  0  0  0  0  0  0  0
    2.5894    0.9929   -1.2646 H   0  0  0  0  0  0  0  0  0  0  0  0
   -0.4871   -2.0861   -0.5819 C   0  0  0  0  0  0  0  0  0  0  0  0
   -1.1073   -0.7338   -0.3524 C   0  0  0  0  0  0  0  0  0  0  0  0
   -2.1846   -0.6250    0.4281 C   0  0  0  0  0  0  0  0  0  0  0  0
   -3.3278   -0.5373    1.0230 C   0  0  0  0  0  0  0  0  0  0  0  0
   -0.5128    0.2898   -0.9958 N   0  0  0  0  0  2  0  0  0  0  0  0
   -0.9736    1.6327   -0.7574 C   0  0  0  0  0  0  0  0  0  0  0  0
   -0.6414    2.1704    0.6371 C   0  0  0  0  0  0  0  0  0  0  0  0
   -0.3887   -2.2645   -1.6502 H   0  0  0  0  0  0  0  0  0  0  0  0
    0.5077   -2.1020   -0.1404 H   0  0  0  0  0  0  0  0  0  0  0  0
   -1.0939   -2.8693   -0.1367 H   0  0  0  0  0  0  0  0  0  0  0  0
   -4.2696   -0.5793    0.4898 H   0  0  0  0  0  0  0  0  0  0  0  0
   -3.4095   -0.4244    2.0954 H   0  0  0  0  0  0  0  0  0  0  0  0
    0.7543    0.2688   -0.8689 H   0  0  0  0  0  0  0  0  0  0  0  0
   -0.5027    2.2660   -1.5160 H   0  0  0  0  0  0  0  0  0  0  0  0
   -2.0597    1.6675   -0.9037 H   0  0  0  0  0  0  0  0  0  0  0  0
    0.4358    2.1782    0.7882 H   0  0  0  0  0  0  0  0  0  0  0  0
   -1.0946    1.5424    1.4000 H   0  0  0  0  0  0  0  0  0  0  0  0
   -1.0196    3.1835    0.7455 H   0  0  0  0  0  0  0  0  0  0  0  0
  1  2  1  0
  1  4  1  0
  2  3  2  3
  3  5  1  0
  3 18  1  0
  6  7  1  0
  6 13  1  0
  6 14  1  0
  6 15  1  0
  7  8  2  0
  7 10  1  0
  8  9  2  0
  9 16  1  0
  9 17  1  0
 10 11  1  0
 11 12  1  0
 11 19  1  0
 11 20  1  0
 12 21  1  0
 12 22  1  0
 12 23  1  0
M  RAD  1  10   2
M  END
>  <reaction>  (24) 
rmg_rxn_15476

>  <mol_properties>  (24) 
{"1": {"label": "*4", "atom_type": "N3d"}, "2": {"label": "*3", "atom_type": "Cd"}, "6": {"label": "*0", "atom_type": "Cd"}, "9": {"label": "*1", "atom_type": "N3s"}, "17": {"label": "*2", "atom_type": "H0"}}

>  <type>  (24) 
unop_20

>  <geom_source>  (24) 
Heuristics

$$$$

     RDKit          3D

 23 21  0  0  0  0  0  0  0  0999 V2000
   -2.3839   -2.3464   -1.8539 O   0  0  0  0  0  0  0  0  0  0  0  0
   -1.5203   -1.3265   -1.5058 N   0  0  0  0  0  0  0  0  0  0  0  0
   -0.5198   -1.7532   -0.8652 C   0  0  0  0  0  3  0  0  0  0  0  0
   -3.0849   -1.8924   -2.3256 H   0  0  0  0  0  0  0  0  0  0  0  0
   -0.3797   -2.8059   -0.6291 H   0  0  0  0  0  0  0  0  0  0  0  0
    0.7359    1.2145   -1.6466 C   0  0  0  0  0  0  0  0  0  0  0  0
    0.7359    1.2145   -0.1434 C   0  0  0  0  0  0  0  0  0  0  0  0
    0.7359    2.3333    0.5413 C   0  0  0  0  0  0  0  0  0  0  0  0
    0.8075    3.4614    1.1871 C   0  0  0  0  0  0  0  0  0  0  0  0
    0.7861   -0.0541    0.4406 N   0  0  0  0  0  0  0  0  0  0  0  0
    0.5952   -0.1682    1.8712 C   0  0  0  0  0  0  0  0  0  0  0  0
    0.6433   -1.6205    2.3063 C   0  0  0  0  0  0  0  0  0  0  0  0
    1.6209    0.6956   -2.0214 H   0  0  0  0  0  0  0  0  0  0  0  0
   -0.1466    0.6943   -2.0308 H   0  0  0  0  0  0  0  0  0  0  0  0
    0.7294    2.2303   -2.0345 H   0  0  0  0  0  0  0  0  0  0  0  0
    1.7623    3.9011    1.4629 H   0  0  0  0  0  0  0  0  0  0  0  0
   -0.0830    4.0108    1.4784 H   0  0  0  0  0  0  0  0  0  0  0  0
    0.1558   -0.8742   -0.1897 H   0  0  0  0  0  0  0  0  0  0  0  0
    1.3922    0.3966    2.3607 H   0  0  0  0  0  0  0  0  0  0  0  0
   -0.3514    0.2936    2.1874 H   0  0  0  0  0  0  0  0  0  0  0  0
    1.5952   -2.0762    2.0298 H   0  0  0  0  0  0  0  0  0  0  0  0
   -0.1600   -2.1983    1.8416 H   0  0  0  0  0  0  0  0  0  0  0  0
    0.5232   -1.6991    3.3871 H   0  0  0  0  0  0  0  0  0  0  0  0
  1  2  1  0
  1  4  1  0
  2  3  2  3
  3  5  1  0
  6  7  1  0
  6 13  1  0
  6 14  1  0
  6 15  1  0
  7  8  2  0
  7 10  1  0
  8  9  2  0
  9 16  1  0
  9 17  1  0
 10 11  1  0
 10 18  1  0
 11 12  1  0
 11 19  1  0
 11 20  1  0
 12 21  1  0
 12 22  1  0
 12 23  1  0
M  RAD  1   3   2
M  END
>  <reaction>  (25) 
rmg_rxn_15476

>  <mol_properties>  (25) 
{"1": {"label": "*4", "atom_type": "N3d"}, "2": {"label": "*3", "atom_type": "Cd"}, "6": {"label": "*0", "atom_type": "Cd"}, "9": {"label": "*1", "atom_type": "N3s"}, "17": {"label": "*2", "atom_type": "H0"}}

>  <type>  (25) 
unop_21

>  <geom_source>  (25) 
Heuristics

$$$$

     RDKit          3D

 23 21  0  0  0  0  0  0  0  0999 V2000
   -0.7534   -3.0810   -2.3286 O   0  0  0  0  0  0  0  0  0  0  0  0
   -0.5388   -1.7760   -1.9309 N   0  0  0  0  0  0  0  0  0  0  0  0
   -0.9005   -1.5808   -0.7374 C   0  0  0  0  0  3  0  0  0  0  0  0
   -0.4412   -3.0909   -3.2355 H   0  0  0  0  0  0  0  0  0  0  0  0
   -1.3280   -2.3664   -0.1180 H   0  0  0  0  0  0  0  0  0  0  0  0
    0.3552    1.3870   -1.5187 C   0  0  0  0  0  0  0  0  0  0  0  0
    0.3552    1.3870   -0.0155 C   0  0  0  0  0  0  0  0  0  0  0  0
    0.3552    2.5057    0.6692 C   0  0  0  0  0  0  0  0  0  0  0  0
    0.4268    3.6338    1.3149 C   0  0  0  0  0  0  0  0  0  0  0  0
    0.4054    0.1183    0.5685 N   0  0  0  0  0  0  0  0  0  0  0  0
    0.2145    0.0042    1.9990 C   0  0  0  0  0  0  0  0  0  0  0  0
    0.2626   -1.4481    2.4341 C   0  0  0  0  0  0  0  0  0  0  0  0
    1.2402    0.8680   -1.8935 H   0  0  0  0  0  0  0  0  0  0  0  0
   -0.5273    0.8667   -1.9029 H   0  0  0  0  0  0  0  0  0  0  0  0
    0.3487    2.4028   -1.9067 H   0  0  0  0  0  0  0  0  0  0  0  0
    1.3816    4.0735    1.5907 H   0  0  0  0  0  0  0  0  0  0  0  0
   -0.4637    4.1832    1.6063 H   0  0  0  0  0  0  0  0  0  0  0  0
   -0.2249   -0.7018   -0.0618 H   0  0  0  0  0  0  0  0  0  0  0  0
    1.0114    0.5690    2.4886 H   0  0  0  0  0  0  0  0  0  0  0  0
   -0.7321    0.4660    2.3153 H   0  0  0  0  0  0  0  0  0  0  0  0
    1.2144   -1.9038    2.1576 H   0  0  0  0  0  0  0  0  0  0  0  0
   -0.5407   -2.0259    1.9694 H   0  0  0  0  0  0  0  0  0  0  0  0
    0.1425   -1.5267    3.5150 H   0  0  0  0  0  0  0  0  0  0  0  0
  1  2  1  0
  1  4  1  0
  2  3  2  3
  3  5  1  0
  6  7  1  0
  6 13  1  0
  6 14  1  0
  6 15  1  0
  7  8  2  0
  7 10  1  0
  8  9  2  0
  9 16  1  0
  9 17  1  0
 10 11  1  0
 10 18  1  0
 11 12  1  0
 11 19  1  0
 11 20  1  0
 12 21  1  0
 12 22  1  0
 12 23  1  0
M  RAD  1   3   2
M  END
>  <reaction>  (26) 
rmg_rxn_15476

>  <mol_properties>  (26) 
{"1": {"label": "*4", "atom_type": "N3d"}, "2": {"label": "*3", "atom_type": "Cd"}, "6": {"label": "*0", "atom_type": "Cd"}, "9": {"label": "*1", "atom_type": "N3s"}, "17": {"label": "*2", "atom_type": "H0"}}

>  <type>  (26) 
unop_22

>  <geom_source>  (26) 
Heuristics

$$$$

     RDKit          3D

 23 21  0  0  0  0  0  0  0  0999 V2000
   -1.2777   -3.5528   -1.1748 O   0  0  0  0  0  0  0  0  0  0  0  0
   -1.2397   -2.3809   -0.4452 N   0  0  0  0  0  0  0  0  0  0  0  0
   -0.7310   -1.4314   -1.1034 C   0  0  0  0  0  3  0  0  0  0  0  0
   -1.6789   -4.1787   -0.5687 H   0  0  0  0  0  0  0  0  0  0  0  0
   -0.3730   -1.5507   -2.1238 H   0  0  0  0  0  0  0  0  0  0  0  0
    0.5247    1.5363   -1.8847 C   0  0  0  0  0  0  0  0  0  0  0  0
    0.5247    1.5363   -0.3815 C   0  0  0  0  0  0  0  0  0  0  0  0
    0.5247    2.6550    0.3032 C   0  0  0  0  0  0  0  0  0  0  0  0
    0.5963    3.7831    0.9489 C   0  0  0  0  0  0  0  0  0  0  0  0
    0.5748    0.2677    0.2025 N   0  0  0  0  0  0  0  0  0  0  0  0
    0.3839    0.1535    1.6331 C   0  0  0  0  0  0  0  0  0  0  0  0
    0.4321   -1.2987    2.0681 C   0  0  0  0  0  0  0  0  0  0  0  0
    1.4096    1.0174   -2.2595 H   0  0  0  0  0  0  0  0  0  0  0  0
   -0.3579    1.0161   -2.2689 H   0  0  0  0  0  0  0  0  0  0  0  0
    0.5181    2.5521   -2.2727 H   0  0  0  0  0  0  0  0  0  0  0  0
    1.5511    4.2229    1.2247 H   0  0  0  0  0  0  0  0  0  0  0  0
   -0.2942    4.3326    1.2403 H   0  0  0  0  0  0  0  0  0  0  0  0
   -0.0555   -0.5525   -0.4278 H   0  0  0  0  0  0  0  0  0  0  0  0
    1.1809    0.7184    2.1226 H   0  0  0  0  0  0  0  0  0  0  0  0
   -0.5626    0.6153    1.9493 H   0  0  0  0  0  0  0  0  0  0  0  0
    1.3839   -1.7545    1.7916 H   0  0  0  0  0  0  0  0  0  0  0  0
   -0.3712   -1.8765    1.6034 H   0  0  0  0  0  0  0  0  0  0  0  0
    0.3120   -1.3773    3.1490 H   0  0  0  0  0  0  0  0  0  0  0  0
  1  2  1  0
  1  4  1  0
  2  3  2  3
  3  5  1  0
  6  7  1  0
  6 13  1  0
  6 14  1  0
  6 15  1  0
  7  8  2  0
  7 10  1  0
  8  9  2  0
  9 16  1  0
  9 17  1  0
 10 11  1  0
 10 18  1  0
 11 12  1  0
 11 19  1  0
 11 20  1  0
 12 21  1  0
 12 22  1  0
 12 23  1  0
M  RAD  1   3   2
M  END
>  <reaction>  (27) 
rmg_rxn_15476

>  <mol_properties>  (27) 
{"1": {"label": "*4", "atom_type": "N3d"}, "2": {"label": "*3", "atom_type": "Cd"}, "6": {"label": "*0", "atom_type": "Cd"}, "9": {"label": "*1", "atom_type": "N3s"}, "17": {"label": "*2", "atom_type": "H0"}}

>  <type>  (27) 
unop_23

>  <geom_source>  (27) 
Heuristics

$$$$

     RDKit          3D

 23 21  0  0  0  0  0  0  0  0999 V2000
   -1.9008   -2.3497   -2.4258 O   0  0  0  0  0  0  0  0  0  0  0  0
   -1.2126   -1.3392   -1.7837 N   0  0  0  0  0  0  0  0  0  0  0  0
   -0.6346   -1.7511   -0.7398 C   0  0  0  0  0  3  0  0  0  0  0  0
   -2.2847   -1.9086   -3.1861 H   0  0  0  0  0  0  0  0  0  0  0  0
   -0.6891   -2.7860   -0.4086 H   0  0  0  0  0  0  0  0  0  0  0  0
    0.6211    1.2166   -1.5211 C   0  0  0  0  0  0  0  0  0  0  0  0
    0.6211    1.2166   -0.0179 C   0  0  0  0  0  0  0  0  0  0  0  0
    0.6211    2.3353    0.6668 C   0  0  0  0  0  0  0  0  0  0  0  0
    0.6927    3.4635    1.3125 C   0  0  0  0  0  0  0  0  0  0  0  0
    0.6712   -0.0520    0.5661 N   0  0  0  0  0  0  0  0  0  0  0  0
    0.4803   -0.1662    1.9966 C   0  0  0  0  0  0  0  0  0  0  0  0
    0.5285   -1.6184    2.4317 C   0  0  0  0  0  0  0  0  0  0  0  0
    1.5060    0.6977   -1.8959 H   0  0  0  0  0  0  0  0  0  0  0  0
   -0.2614    0.6964   -1.9054 H   0  0  0  0  0  0  0  0  0  0  0  0
    0.6145    2.2324   -1.9091 H   0  0  0  0  0  0  0  0  0  0  0  0
    1.6475    3.9032    1.5883 H   0  0  0  0  0  0  0  0  0  0  0  0
   -0.1978    4.0129    1.6039 H   0  0  0  0  0  0  0  0  0  0  0  0
    0.0409   -0.8721   -0.0643 H   0  0  0  0  0  0  0  0  0  0  0  0
    1.2773    0.3987    2.4862 H   0  0  0  0  0  0  0  0  0  0  0  0
   -0.4662    0.2957    2.3129 H   0  0  0  0  0  0  0  0  0  0  0  0
    1.4803   -2.0742    2.1552 H   0  0  0  0  0  0  0  0  0  0  0  0
   -0.2748   -2.1962    1.9670 H   0  0  0  0  0  0  0  0  0  0  0  0
    0.4084   -1.6970    3.5125 H   0  0  0  0  0  0  0  0  0  0  0  0
  1  2  1  0
  1  4  1  0
  2  3  2  3
  3  5  1  0
  6  7  1  0
  6 13  1  0
  6 14  1  0
  6 15  1  0
  7  8  2  0
  7 10  1  0
  8  9  2  0
  9 16  1  0
  9 17  1  0
 10 11  1  0
 10 18  1  0
 11 12  1  0
 11 19  1  0
 11 20  1  0
 12 21  1  0
 12 22  1  0
 12 23  1  0
M  RAD  1   3   2
M  END
>  <reaction>  (28) 
rmg_rxn_15476

>  <mol_properties>  (28) 
{"1": {"label": "*4", "atom_type": "N3d"}, "2": {"label": "*3", "atom_type": "Cd"}, "6": {"label": "*0", "atom_type": "Cd"}, "9": {"label": "*1", "atom_type": "N3s"}, "17": {"label": "*2", "atom_type": "H0"}}

>  <type>  (28) 
unop_24

>  <geom_source>  (28) 
Heuristics

$$$$

     RDKit          3D

 23 21  0  0  0  0  0  0  0  0999 V2000
   -3.7586    0.2866    0.7070 O   0  0  0  0  0  0  0  0  0  0  0  0
   -2.3915    0.3176    0.3506 N   0  0  0  0  0  0  0  0  0  0  0  0
   -2.0001   -0.3391   -0.6272 C   0  0  0  0  0  0  0  0  0  0  0  0
   -3.8181    0.8604    1.4825 H   0  0  0  0  0  0  0  0  0  0  0  0
   -2.5931   -0.9721   -1.2797 H   0  0  0  0  0  0  0  0  0  0  0  0
    0.4901    2.0870   -0.5821 C   0  0  0  0  0  0  0  0  0  0  0  0
    1.1083    0.7338   -0.3525 C   0  0  0  0  0  0  0  0  0  0  0  0
    2.1842    0.6231    0.4296 C   0  0  0  0  0  0  0  0  0  0  0  0
    3.3263    0.5333    1.0263 C   0  0  0  0  0  0  0  0  0  0  0  0
    0.5130   -0.2887   -0.9970 N   0  0  0  0  0  2  0  0  0  0  0  0
    0.9718   -1.6323   -0.7589 C   0  0  0  0  0  0  0  0  0  0  0  0
    0.6370   -2.1709    0.6346 C   0  0  0  0  0  0  0  0  0  0  0  0
    1.1012    2.8699   -0.1425 H   0  0  0  0  0  0  0  0  0  0  0  0
    0.3860    2.2627   -1.6502 H   0  0  0  0  0  0  0  0  0  0  0  0
   -0.5021    2.1066   -0.1349 H   0  0  0  0  0  0  0  0  0  0  0  0
    4.2692    0.5747    0.4948 H   0  0  0  0  0  0  0  0  0  0  0  0
    3.4060    0.4201    2.0988 H   0  0  0  0  0  0  0  0  0  0  0  0
   -0.7541   -0.2653   -0.8713 H   0  0  0  0  0  0  0  0  0  0  0  0
    0.5013   -2.2645   -1.5187 H   0  0  0  0  0  0  0  0  0  0  0  0
    2.0581   -1.6683   -0.9036 H   0  0  0  0  0  0  0  0  0  0  0  0
    1.0900   -1.5442    1.3987 H   0  0  0  0  0  0  0  0  0  0  0  0
    1.0137   -3.1846    0.7426 H   0  0  0  0  0  0  0  0  0  0  0  0
   -0.4404   -2.1774    0.7842 H   0  0  0  0  0  0  0  0  0  0  0  0
  1  2  1  0
  1  4  1  0
  2  3  2  3
  3  5  1  0
  3 18  1  0
  6  7  1  0
  6 13  1  0
  6 14  1  0
  6 15  1  0
  7  8  2  0
  7 10  1  0
  8  9  2  0
  9 16  1  0
  9 17  1  0
 10 11  1  0
 11 12  1  0
 11 19  1  0
 11 20  1  0
 12 21  1  0
 12 22  1  0
 12 23  1  0
M  RAD  1  10   2
M  END
>  <reaction>  (29) 
rmg_rxn_15476

>  <mol_properties>  (29) 
{"1": {"label": "*4", "atom_type": "N3d"}, "2": {"label": "*3", "atom_type": "Cd"}, "6": {"label": "*0", "atom_type": "Cd"}, "9": {"label": "*1", "atom_type": "N3s"}, "17": {"label": "*2", "atom_type": "H0"}}

>  <type>  (29) 
unop_25

>  <geom_source>  (29) 
Heuristics

$$$$

     RDKit          3D

 23 21  0  0  0  0  0  0  0  0999 V2000
   -1.2385   -2.6478   -2.6071 O   0  0  0  0  0  0  0  0  0  0  0  0
   -0.8627   -1.4996   -1.9382 N   0  0  0  0  0  0  0  0  0  0  0  0
   -0.7833   -1.6839   -0.6919 C   0  0  0  0  0  3  0  0  0  0  0  0
   -1.2598   -2.3727   -3.5257 H   0  0  0  0  0  0  0  0  0  0  0  0
   -0.9920   -2.6448   -0.2265 H   0  0  0  0  0  0  0  0  0  0  0  0
    0.4724    1.2839   -1.4732 C   0  0  0  0  0  0  0  0  0  0  0  0
    0.4724    1.2839    0.0300 C   0  0  0  0  0  0  0  0  0  0  0  0
    0.4724    2.4026    0.7146 C   0  0  0  0  0  0  0  0  0  0  0  0
    0.5440    3.5307    1.3604 C   0  0  0  0  0  0  0  0  0  0  0  0
    0.5225    0.0153    0.6139 N   0  0  0  0  0  0  0  0  0  0  0  0
    0.3316   -0.0989    2.0445 C   0  0  0  0  0  0  0  0  0  0  0  0
    0.3798   -1.5511    2.4796 C   0  0  0  0  0  0  0  0  0  0  0  0
    1.3573    0.7650   -1.8480 H   0  0  0  0  0  0  0  0  0  0  0  0
   -0.4102    0.7637   -1.8575 H   0  0  0  0  0  0  0  0  0  0  0  0
    0.4658    2.2997   -1.8612 H   0  0  0  0  0  0  0  0  0  0  0  0
    1.4988    3.9705    1.6362 H   0  0  0  0  0  0  0  0  0  0  0  0
   -0.3465    4.0802    1.6517 H   0  0  0  0  0  0  0  0  0  0  0  0
   -0.1078   -0.8049   -0.0164 H   0  0  0  0  0  0  0  0  0  0  0  0
    1.1286    0.4660    2.5340 H   0  0  0  0  0  0  0  0  0  0  0  0
   -0.6149    0.3629    2.3607 H   0  0  0  0  0  0  0  0  0  0  0  0
    1.3316   -2.0069    2.2031 H   0  0  0  0  0  0  0  0  0  0  0  0
   -0.4235   -2.1289    2.0149 H   0  0  0  0  0  0  0  0  0  0  0  0
    0.2597   -1.6297    3.5604 H   0  0  0  0  0  0  0  0  0  0  0  0
  1  2  1  0
  1  4  1  0
  2  3  2  3
  3  5  1  0
  6  7  1  0
  6 13  1  0
  6 14  1  0
  6 15  1  0
  7  8  2  0
  7 10  1  0
  8  9  2  0
  9 16  1  0
  9 17  1  0
 10 11  1  0
 10 18  1  0
 11 12  1  0
 11 19  1  0
 11 20  1  0
 12 21  1  0
 12 22  1  0
 12 23  1  0
M  RAD  1   3   2
M  END
>  <reaction>  (30) 
rmg_rxn_15476

>  <mol_properties>  (30) 
{"1": {"label": "*4", "atom_type": "N3d"}, "2": {"label": "*3", "atom_type": "Cd"}, "6": {"label": "*0", "atom_type": "Cd"}, "9": {"label": "*1", "atom_type": "N3s"}, "17": {"label": "*2", "atom_type": "H0"}}

>  <type>  (30) 
unop_26

>  <geom_source>  (30) 
gaussian_log

$$$$
