
     RDKit          3D

 12 11  0  0  0  0  0  0  0  0999 V2000
    1.8075    0.1979    0.4695 C   0  0  0  0  0  0  0  0  0  0  0  0
    1.0072   -0.8859   -0.7259 S   0  0  0  0  0  0  0  0  0  0  0  0
   -0.7258   -0.6904   -0.2447 C   0  0  0  0  0  0  0  0  0  0  0  0
   -1.0856   -1.2776    1.1108 C   0  0  0  0  0  0  0  0  0  0  0  0
    1.7126   -0.1777    1.4878 H   0  0  0  0  0  0  0  0  0  0  0  0
    1.4024    1.2089    0.4095 H   0  0  0  0  0  0  0  0  0  0  0  0
    2.8647    0.2298    0.2095 H   0  0  0  0  0  0  0  0  0  0  0  0
   -1.2866   -1.1892   -1.0369 H   0  0  0  0  0  0  0  0  0  0  0  0
   -0.9814    0.3707   -0.2917 H   0  0  0  0  0  0  0  0  0  0  0  0
   -0.5492   -0.7768    1.9180 H   0  0  0  0  0  0  0  0  0  0  0  0
   -0.8418   -2.3397    1.1503 H   0  0  0  0  0  0  0  0  0  0  0  0
   -2.1545   -1.1604    1.3035 H   0  0  0  0  0  0  0  0  0  0  0  0
  1  2  1  0
  1  5  1  0
  1  6  1  0
  1  7  1  0
  2  3  1  0
  3  4  1  0
  3  8  1  0
  3  9  1  0
  4 10  1  0
  4 11  1  0
  4 12  1  0
M  END
>  <reaction>  (1) 
rmg_rxn_527

>  <mol_properties>  (1) 
{"0": {"label": "donator", "atom_type": "Cs"}, "4": {"label": "d_hydrogen", "atom_type": "H0"}}

>  <type>  (1) 
r1h

$$$$

     RDKit          3D

 13 13  0  0  0  0  0  0  0  0999 V2000
   -0.9087    1.0135    0.2744 C   0  0  0  0  0  3  0  0  0  0  0  0
   -1.1528   -0.4306   -0.0132 C   0  0  0  0  0  0  0  0  0  0  0  0
    0.1597   -1.1985    0.0580 C   0  0  0  0  0  0  0  0  0  0  0  0
    1.1497   -0.5125   -0.6902 O   0  0  0  0  0  0  0  0  0  0  0  0
    1.3593    0.7608   -0.1866 C   0  0  0  0  0  0  0  0  0  0  0  0
    0.2092    1.5798   -0.2538 O   0  0  0  0  0  0  0  0  0  0  0  0
   -1.7260    1.7182    0.3534 H   0  0  0  0  0  0  0  0  0  0  0  0
   -1.8796   -0.8393    0.6913 H   0  0  0  0  0  0  0  0  0  0  0  0
   -1.5725   -0.5507   -1.0227 H   0  0  0  0  0  0  0  0  0  0  0  0
    0.4914   -1.2968    1.1007 H   0  0  0  0  0  0  0  0  0  0  0  0
    0.0732   -2.1931   -0.3758 H   0  0  0  0  0  0  0  0  0  0  0  0
    1.6805    0.7077    0.8652 H   0  0  0  0  0  0  0  0  0  0  0  0
    2.1167    1.2415   -0.8007 H   0  0  0  0  0  0  0  0  0  0  0  0
  1  2  1  0
  1  6  1  0
  1  7  1  0
  2  3  1  0
  2  8  1  0
  2  9  1  0
  3  4  1  0
  3 10  1  0
  3 11  1  0
  4  5  1  0
  5  6  1  0
  5 12  1  0
  5 13  1  0
M  RAD  1   1   2
M  END
>  <reaction>  (2) 
rmg_rxn_527

>  <mol_properties>  (2) 
{"0": {"label": "acceptor", "atom_type": "Cs"}}

>  <type>  (2) 
r2

$$$$

     RDKit          3D

 14 14  0  0  0  0  0  0  0  0999 V2000
   -1.1778    0.2241    0.1818 C   0  0  0  0  0  0  0  0  0  0  0  0
   -0.5633   -1.1636    0.0678 C   0  0  0  0  0  0  0  0  0  0  0  0
    0.6943   -1.1996    0.7146 O   0  0  0  0  0  0  0  0  0  0  0  0
    1.5547   -0.2288    0.2011 C   0  0  0  0  0  0  0  0  0  0  0  0
    1.0729    1.0696    0.3698 O   0  0  0  0  0  0  0  0  0  0  0  0
   -0.1607    1.2493   -0.2989 C   0  0  0  0  0  0  0  0  0  0  0  0
   -2.0927    0.2866   -0.4117 H   0  0  0  0  0  0  0  0  0  0  0  0
   -1.4303    0.4248    1.2248 H   0  0  0  0  0  0  0  0  0  0  0  0
   -1.1822   -1.9235    0.5431 H   0  0  0  0  0  0  0  0  0  0  0  0
   -0.4389   -1.4347   -0.9919 H   0  0  0  0  0  0  0  0  0  0  0  0
    1.7250   -0.4207   -0.8742 H   0  0  0  0  0  0  0  0  0  0  0  0
    2.4896   -0.3010    0.7524 H   0  0  0  0  0  0  0  0  0  0  0  0
   -0.0080    1.1481   -1.3844 H   0  0  0  0  0  0  0  0  0  0  0  0
   -0.4826    2.2695   -0.0942 H   0  0  0  0  0  0  0  0  0  0  0  0
  1  2  1  0
  1  6  1  0
  1  7  1  0
  1  8  1  0
  2  3  1  0
  2  9  1  0
  2 10  1  0
  3  4  1  0
  4  5  1  0
  4 11  1  0
  4 12  1  0
  5  6  1  0
  6 13  1  0
  6 14  1  0
M  END
>  <reaction>  (3) 
rmg_rxn_527

>  <mol_properties>  (3) 
{"0": {"label": "a_hydrogen", "atom_type": "H0"}, "1": {"label": "acceptor", "atom_type": "Cs"}}

>  <type>  (3) 
r2h

$$$$

     RDKit          3D

 25 24  0  0  0  0  0  0  0  0999 V2000
   -0.6946    0.3076    1.7419 C   0  0  0  0  0  0  0  0  0  0  0  0
   -2.3317   -0.3409    1.8176 S   0  0  0  0  0  0  0  0  0  0  0  0
   -2.0284   -2.0983    1.5123 C   0  0  0  0  0  0  0  0  0  0  0  0
   -1.5023   -2.4288    0.1249 C   0  0  0  0  0  0  0  0  0  0  0  0
   -0.2869    0.4340    0.5041 H   0  0  0  0  0  0  0  0  0  0  0  0
    0.0545   -0.3217    2.2215 H   0  0  0  0  0  0  0  0  0  0  0  0
   -0.6796    1.3239    2.1308 H   0  0  0  0  0  0  0  0  0  0  0  0
   -2.9965   -2.5725    1.6820 H   0  0  0  0  0  0  0  0  0  0  0  0
   -1.3491   -2.4652    2.2846 H   0  0  0  0  0  0  0  0  0  0  0  0
   -0.5137   -1.9995   -0.0408 H   0  0  0  0  0  0  0  0  0  0  0  0
   -2.1751   -2.0494   -0.6456 H   0  0  0  0  0  0  0  0  0  0  0  0
   -1.4195   -3.5116    0.0055 H   0  0  0  0  0  0  0  0  0  0  0  0
    0.2365    0.5658   -0.7681 C   0  0  0  0  0  3  0  0  0  0  0  0
    0.7122    1.9805   -0.9570 C   0  0  0  0  0  0  0  0  0  0  0  0
    1.6159    2.0344   -2.1880 C   0  0  0  0  0  0  0  0  0  0  0  0
    2.6167    1.0381   -2.0975 O   0  0  0  0  0  0  0  0  0  0  0  0
    2.0623   -0.2294   -1.9574 C   0  0  0  0  0  0  0  0  0  0  0  0
    1.2860   -0.3529   -0.7919 O   0  0  0  0  0  0  0  0  0  0  0  0
   -0.5958    0.2632   -1.4150 H   0  0  0  0  0  0  0  0  0  0  0  0
   -0.1357    2.6582   -1.0720 H   0  0  0  0  0  0  0  0  0  0  0  0
    1.2886    2.2936   -0.0824 H   0  0  0  0  0  0  0  0  0  0  0  0
    1.0218    1.8790   -3.1003 H   0  0  0  0  0  0  0  0  0  0  0  0
    2.1327    2.9898   -2.2713 H   0  0  0  0  0  0  0  0  0  0  0  0
    1.4342   -0.4631   -2.8344 H   0  0  0  0  0  0  0  0  0  0  0  0
    2.8826   -0.9386   -1.8722 H   0  0  0  0  0  0  0  0  0  0  0  0
  1  2  1  0
  1  5  1  0
  1  6  1  0
  1  7  1  0
  2  3  1  0
  3  4  1  0
  3  8  1  0
  3  9  1  0
  4 10  1  0
  4 11  1  0
  4 12  1  0
 13 14  1  0
 13 18  1  0
 13 19  1  0
 14 15  1  0
 14 20  1  0
 14 21  1  0
 15 16  1  0
 15 22  1  0
 15 23  1  0
 16 17  1  0
 17 18  1  0
 17 24  1  0
 17 25  1  0
M  RAD  1  13   2
M  END
>  <reaction>  (4) 
rmg_rxn_527

>  <mol_properties>  (4) 
{"0": {"label": "*1", "atom_type": "Cs"}, "1": {"label": "*0", "atom_type": "S2s"}, "4": {"label": "*2", "atom_type": "H0"}, "12": {"label": "*3", "atom_type": "Cs"}, "17": {"label": "*4", "atom_type": "O2s"}}

>  <type>  (4) 
ts

$$$$

     RDKit          3D

 25 24  0  0  0  0  0  0  0  0999 V2000
   -0.2253    0.1342    1.7214 C   0  0  0  0  0  3  0  0  0  0  0  0
   -1.8684   -0.4446    2.1792 S   0  0  0  0  0  0  0  0  0  0  0  0
   -1.8684   -2.0847    1.4156 C   0  0  0  0  0  0  0  0  0  0  0  0
   -1.8684   -2.0847   -0.1048 C   0  0  0  0  0  0  0  0  0  0  0  0
   -0.1104    0.3099    0.4310 H   0  0  0  0  0  0  0  0  0  0  0  0
    0.5417   -0.5588    2.0695 H   0  0  0  0  0  0  0  0  0  0  0  0
   -0.0788    1.0936    2.2158 H   0  0  0  0  0  0  0  0  0  0  0  0
   -2.7724   -2.5627    1.7965 H   0  0  0  0  0  0  0  0  0  0  0  0
   -1.0191   -2.6496    1.8068 H   0  0  0  0  0  0  0  0  0  0  0  0
   -0.9614   -1.6286   -0.5041 H   0  0  0  0  0  0  0  0  0  0  0  0
   -2.7244   -1.5315   -0.4925 H   0  0  0  0  0  0  0  0  0  0  0  0
   -1.9168   -3.1080   -0.4843 H   0  0  0  0  0  0  0  0  0  0  0  0
    0.0044    0.4855   -0.8590 C   0  0  0  0  0  0  0  0  0  0  0  0
    0.3505    1.9258   -1.2088 C   0  0  0  0  0  0  0  0  0  0  0  0
    1.5278    1.9243   -2.1735 C   0  0  0  0  0  0  0  0  0  0  0  0
    2.5901    1.1490   -1.6523 O   0  0  0  0  0  0  0  0  0  0  0  0
    2.1746   -0.1525   -1.3696 C   0  0  0  0  0  0  0  0  0  0  0  0
    1.1575   -0.2041   -0.4161 O   0  0  0  0  0  0  0  0  0  0  0  0
   -0.4136   -0.0260   -1.7396 H   0  0  0  0  0  0  0  0  0  0  0  0
   -0.5101    2.4272   -1.6573 H   0  0  0  0  0  0  0  0  0  0  0  0
    0.6266    2.4638   -0.2999 H   0  0  0  0  0  0  0  0  0  0  0  0
    1.2169    1.5140   -3.1466 H   0  0  0  0  0  0  0  0  0  0  0  0
    1.9218    2.9265   -2.3369 H   0  0  0  0  0  0  0  0  0  0  0  0
    1.8301   -0.6385   -2.3009 H   0  0  0  0  0  0  0  0  0  0  0  0
    3.0305   -0.6832   -0.9586 H   0  0  0  0  0  0  0  0  0  0  0  0
  1  2  1  0
  1  6  1  0
  1  7  1  0
  2  3  1  0
  3  4  1  0
  3  8  1  0
  3  9  1  0
  4 10  1  0
  4 11  1  0
  4 12  1  0
  5 13  1  0
 13 14  1  0
 13 18  1  0
 13 19  1  0
 14 15  1  0
 14 20  1  0
 14 21  1  0
 15 16  1  0
 15 22  1  0
 15 23  1  0
 16 17  1  0
 17 18  1  0
 17 24  1  0
 17 25  1  0
M  RAD  1   1   2
M  END
>  <reaction>  (5) 
rmg_rxn_527

>  <mol_properties>  (5) 
{"0": {"label": "*1", "atom_type": "Cs"}, "1": {"label": "*0", "atom_type": "S2s"}, "4": {"label": "*2", "atom_type": "H0"}, "12": {"label": "*3", "atom_type": "Cs"}, "17": {"label": "*4", "atom_type": "O2s"}}

>  <type>  (5) 
unop_1

>  <geom_source>  (5) 
Heuristics

$$$$

     RDKit          3D

 25 24  0  0  0  0  0  0  0  0999 V2000
    0.5382   -0.2964    1.9439 C   0  0  0  0  0  3  0  0  0  0  0  0
   -1.1049   -0.8753    2.4017 S   0  0  0  0  0  0  0  0  0  0  0  0
   -1.1049   -2.5154    1.6380 C   0  0  0  0  0  0  0  0  0  0  0  0
   -1.1049   -2.5154    0.1177 C   0  0  0  0  0  0  0  0  0  0  0  0
    0.6531   -0.1208    0.6535 H   0  0  0  0  0  0  0  0  0  0  0  0
    1.3052   -0.9895    2.2920 H   0  0  0  0  0  0  0  0  0  0  0  0
    0.6847    0.6629    2.4382 H   0  0  0  0  0  0  0  0  0  0  0  0
   -2.0089   -2.9934    2.0190 H   0  0  0  0  0  0  0  0  0  0  0  0
   -0.2557   -3.0803    2.0293 H   0  0  0  0  0  0  0  0  0  0  0  0
   -0.1979   -2.0592   -0.2816 H   0  0  0  0  0  0  0  0  0  0  0  0
   -1.9609   -1.9622   -0.2701 H   0  0  0  0  0  0  0  0  0  0  0  0
   -1.1533   -3.5386   -0.2619 H   0  0  0  0  0  0  0  0  0  0  0  0
    0.7679    0.0548   -0.6365 C   0  0  0  0  0  0  0  0  0  0  0  0
   -0.5567    0.4422   -1.2784 C   0  0  0  0  0  0  0  0  0  0  0  0
   -0.2718    1.2549   -2.5334 C   0  0  0  0  0  0  0  0  0  0  0  0
    0.6016    2.3277   -2.2373 O   0  0  0  0  0  0  0  0  0  0  0  0
    1.7860    1.8703   -1.6589 C   0  0  0  0  0  0  0  0  0  0  0  0
    1.5793    1.1992   -0.4534 O   0  0  0  0  0  0  0  0  0  0  0  0
    1.2963   -0.6719   -1.2725 H   0  0  0  0  0  0  0  0  0  0  0  0
   -1.1371   -0.4498   -1.5246 H   0  0  0  0  0  0  0  0  0  0  0  0
   -1.1363    1.0469   -0.5782 H   0  0  0  0  0  0  0  0  0  0  0  0
    0.1836    0.6125   -3.3028 H   0  0  0  0  0  0  0  0  0  0  0  0
   -1.1778    1.6937   -2.9490 H   0  0  0  0  0  0  0  0  0  0  0  0
    2.3061    1.2003   -2.3679 H   0  0  0  0  0  0  0  0  0  0  0  0
    2.3982    2.7429   -1.4424 H   0  0  0  0  0  0  0  0  0  0  0  0
  1  2  1  0
  1  6  1  0
  1  7  1  0
  2  3  1  0
  3  4  1  0
  3  8  1  0
  3  9  1  0
  4 10  1  0
  4 11  1  0
  4 12  1  0
  5 13  1  0
 13 14  1  0
 13 18  1  0
 13 19  1  0
 14 15  1  0
 14 20  1  0
 14 21  1  0
 15 16  1  0
 15 22  1  0
 15 23  1  0
 16 17  1  0
 17 18  1  0
 17 24  1  0
 17 25  1  0
M  RAD  1   1   2
M  END
>  <reaction>  (6) 
rmg_rxn_527

>  <mol_properties>  (6) 
{"0": {"label": "*1", "atom_type": "Cs"}, "1": {"label": "*0", "atom_type": "S2s"}, "4": {"label": "*2", "atom_type": "H0"}, "12": {"label": "*3", "atom_type": "Cs"}, "17": {"label": "*4", "atom_type": "O2s"}}

>  <type>  (6) 
unop_2

>  <geom_source>  (6) 
Heuristics

$$$$

     RDKit          3D

 25 24  0  0  0  0  0  0  0  0999 V2000
   -0.1586    0.4810    1.8839 C   0  0  0  0  0  3  0  0  0  0  0  0
   -1.8017   -0.0979    2.3417 S   0  0  0  0  0  0  0  0  0  0  0  0
   -1.8017   -1.7380    1.5780 C   0  0  0  0  0  0  0  0  0  0  0  0
   -1.8017   -1.7380    0.0577 C   0  0  0  0  0  0  0  0  0  0  0  0
   -0.0437    0.6566    0.5935 H   0  0  0  0  0  0  0  0  0  0  0  0
    0.6084   -0.2121    2.2320 H   0  0  0  0  0  0  0  0  0  0  0  0
   -0.0121    1.4404    2.3782 H   0  0  0  0  0  0  0  0  0  0  0  0
   -2.7057   -2.2160    1.9590 H   0  0  0  0  0  0  0  0  0  0  0  0
   -0.9524   -2.3028    1.9693 H   0  0  0  0  0  0  0  0  0  0  0  0
   -0.8947   -1.2818   -0.3416 H   0  0  0  0  0  0  0  0  0  0  0  0
   -2.6576   -1.1848   -0.3301 H   0  0  0  0  0  0  0  0  0  0  0  0
   -1.8501   -2.7612   -0.3219 H   0  0  0  0  0  0  0  0  0  0  0  0
    0.0711    0.8323   -0.6965 C   0  0  0  0  0  0  0  0  0  0  0  0
    1.0648    1.9344   -1.0348 C   0  0  0  0  0  0  0  0  0  0  0  0
    1.8548    1.5179   -2.2673 C   0  0  0  0  0  0  0  0  0  0  0  0
    2.4091    0.2292   -2.0842 O   0  0  0  0  0  0  0  0  0  0  0  0
    1.4204   -0.7084   -1.7845 C   0  0  0  0  0  0  0  0  0  0  0  0
    0.7317   -0.4155   -0.6071 O   0  0  0  0  0  0  0  0  0  0  0  0
   -0.7104    0.7792   -1.4701 H   0  0  0  0  0  0  0  0  0  0  0  0
    0.5429    2.8767   -1.2161 H   0  0  0  0  0  0  0  0  0  0  0  0
    1.7490    2.0763   -0.1959 H   0  0  0  0  0  0  0  0  0  0  0  0
    1.1989    1.5131   -3.1513 H   0  0  0  0  0  0  0  0  0  0  0  0
    2.6871    2.1920   -2.4646 H   0  0  0  0  0  0  0  0  0  0  0  0
    0.7038   -0.7676   -2.6242 H   0  0  0  0  0  0  0  0  0  0  0  0
    1.9158   -1.6658   -1.6398 H   0  0  0  0  0  0  0  0  0  0  0  0
  1  2  1  0
  1  6  1  0
  1  7  1  0
  2  3  1  0
  3  4  1  0
  3  8  1  0
  3  9  1  0
  4 10  1  0
  4 11  1  0
  4 12  1  0
  5 13  1  0
 13 14  1  0
 13 18  1  0
 13 19  1  0
 14 15  1  0
 14 20  1  0
 14 21  1  0
 15 16  1  0
 15 22  1  0
 15 23  1  0
 16 17  1  0
 17 18  1  0
 17 24  1  0
 17 25  1  0
M  RAD  1   1   2
M  END
>  <reaction>  (7) 
rmg_rxn_527

>  <mol_properties>  (7) 
{"0": {"label": "*1", "atom_type": "Cs"}, "1": {"label": "*0", "atom_type": "S2s"}, "4": {"label": "*2", "atom_type": "H0"}, "12": {"label": "*3", "atom_type": "Cs"}, "17": {"label": "*4", "atom_type": "O2s"}}

>  <type>  (7) 
unop_3

>  <geom_source>  (7) 
Heuristics

$$$$

     RDKit          3D

 25 24  0  0  0  0  0  0  0  0999 V2000
    0.4657    0.3327    2.2598 C   0  0  0  0  0  3  0  0  0  0  0  0
   -1.1775   -0.2462    2.7176 S   0  0  0  0  0  0  0  0  0  0  0  0
   -1.1775   -1.8863    1.9540 C   0  0  0  0  0  0  0  0  0  0  0  0
   -1.1775   -1.8863    0.4336 C   0  0  0  0  0  0  0  0  0  0  0  0
    0.5805    0.5084    0.9694 H   0  0  0  0  0  0  0  0  0  0  0  0
    1.2327   -0.3604    2.6079 H   0  0  0  0  0  0  0  0  0  0  0  0
    0.6121    1.2921    2.7542 H   0  0  0  0  0  0  0  0  0  0  0  0
   -2.0815   -2.3643    2.3349 H   0  0  0  0  0  0  0  0  0  0  0  0
   -0.3282   -2.4511    2.3452 H   0  0  0  0  0  0  0  0  0  0  0  0
   -0.2705   -1.4301    0.0343 H   0  0  0  0  0  0  0  0  0  0  0  0
   -2.0334   -1.3331    0.0459 H   0  0  0  0  0  0  0  0  0  0  0  0
   -1.2259   -2.9095    0.0541 H   0  0  0  0  0  0  0  0  0  0  0  0
    0.6953    0.6840   -0.3206 C   0  0  0  0  0  0  0  0  0  0  0  0
    0.4492   -0.6033   -1.0945 C   0  0  0  0  0  0  0  0  0  0  0  0
    1.1247   -0.4924   -2.4538 C   0  0  0  0  0  0  0  0  0  0  0  0
    0.7270    0.6987   -3.1053 O   0  0  0  0  0  0  0  0  0  0  0  0
    0.9986    1.8193   -2.3198 C   0  0  0  0  0  0  0  0  0  0  0  0
    0.3232    1.8050   -1.0992 O   0  0  0  0  0  0  0  0  0  0  0  0
    1.7592    0.7626   -0.0489 H   0  0  0  0  0  0  0  0  0  0  0  0
    0.8399   -1.4613   -0.5427 H   0  0  0  0  0  0  0  0  0  0  0  0
   -0.6246   -0.7439   -1.2331 H   0  0  0  0  0  0  0  0  0  0  0  0
    2.2188   -0.4965   -2.3322 H   0  0  0  0  0  0  0  0  0  0  0  0
    0.8524   -1.3160   -3.1125 H   0  0  0  0  0  0  0  0  0  0  0  0
    2.0869    1.8844   -2.1367 H   0  0  0  0  0  0  0  0  0  0  0  0
    0.6534    2.6915   -2.8704 H   0  0  0  0  0  0  0  0  0  0  0  0
  1  2  1  0
  1  6  1  0
  1  7  1  0
  2  3  1  0
  3  4  1  0
  3  8  1  0
  3  9  1  0
  4 10  1  0
  4 11  1  0
  4 12  1  0
  5 13  1  0
 13 14  1  0
 13 18  1  0
 13 19  1  0
 14 15  1  0
 14 20  1  0
 14 21  1  0
 15 16  1  0
 15 22  1  0
 15 23  1  0
 16 17  1  0
 17 18  1  0
 17 24  1  0
 17 25  1  0
M  RAD  1   1   2
M  END
>  <reaction>  (8) 
rmg_rxn_527

>  <mol_properties>  (8) 
{"0": {"label": "*1", "atom_type": "Cs"}, "1": {"label": "*0", "atom_type": "S2s"}, "4": {"label": "*2", "atom_type": "H0"}, "12": {"label": "*3", "atom_type": "Cs"}, "17": {"label": "*4", "atom_type": "O2s"}}

>  <type>  (8) 
unop_4

>  <geom_source>  (8) 
Heuristics

$$$$

     RDKit          3D

 25 24  0  0  0  0  0  0  0  0999 V2000
    0.1634    0.5375    2.1566 C   0  0  0  0  0  3  0  0  0  0  0  0
   -1.4797   -0.0413    2.6143 S   0  0  0  0  0  0  0  0  0  0  0  0
   -1.4797   -1.6814    1.8507 C   0  0  0  0  0  0  0  0  0  0  0  0
   -1.4797   -1.6814    0.3303 C   0  0  0  0  0  0  0  0  0  0  0  0
    0.2782    0.7132    0.8661 H   0  0  0  0  0  0  0  0  0  0  0  0
    0.9304   -0.1555    2.5047 H   0  0  0  0  0  0  0  0  0  0  0  0
    0.3099    1.4969    2.6509 H   0  0  0  0  0  0  0  0  0  0  0  0
   -2.3838   -2.1594    2.2316 H   0  0  0  0  0  0  0  0  0  0  0  0
   -0.6305   -2.2463    2.2420 H   0  0  0  0  0  0  0  0  0  0  0  0
   -0.5727   -1.2252   -0.0690 H   0  0  0  0  0  0  0  0  0  0  0  0
   -2.3357   -1.1282   -0.0574 H   0  0  0  0  0  0  0  0  0  0  0  0
   -1.5281   -2.7046   -0.0492 H   0  0  0  0  0  0  0  0  0  0  0  0
    0.3930    0.8888   -0.4239 C   0  0  0  0  0  0  0  0  0  0  0  0
    1.7815    1.3779   -0.8104 C   0  0  0  0  0  0  0  0  0  0  0  0
    1.9072    1.3418   -2.3269 C   0  0  0  0  0  0  0  0  0  0  0  0
    1.5488    0.0651   -2.8200 O   0  0  0  0  0  0  0  0  0  0  0  0
    0.2610   -0.2891   -2.4171 C   0  0  0  0  0  0  0  0  0  0  0  0
    0.1250   -0.3608   -1.0304 O   0  0  0  0  0  0  0  0  0  0  0  0
   -0.3659    1.6208   -0.7404 H   0  0  0  0  0  0  0  0  0  0  0  0
    1.9470    2.3913   -0.4376 H   0  0  0  0  0  0  0  0  0  0  0  0
    2.5337    0.7219   -0.3681 H   0  0  0  0  0  0  0  0  0  0  0  0
    1.2548    2.1056   -2.7772 H   0  0  0  0  0  0  0  0  0  0  0  0
    2.9284    1.5295   -2.6556 H   0  0  0  0  0  0  0  0  0  0  0  0
   -0.4640    0.4417   -2.8200 H   0  0  0  0  0  0  0  0  0  0  0  0
    0.0596   -1.2818   -2.8135 H   0  0  0  0  0  0  0  0  0  0  0  0
  1  2  1  0
  1  6  1  0
  1  7  1  0
  2  3  1  0
  3  4  1  0
  3  8  1  0
  3  9  1  0
  4 10  1  0
  4 11  1  0
  4 12  1  0
  5 13  1  0
 13 14  1  0
 13 18  1  0
 13 19  1  0
 14 15  1  0
 14 20  1  0
 14 21  1  0
 15 16  1  0
 15 22  1  0
 15 23  1  0
 16 17  1  0
 17 18  1  0
 17 24  1  0
 17 25  1  0
M  RAD  1   1   2
M  END
>  <reaction>  (9) 
rmg_rxn_527

>  <mol_properties>  (9) 
{"0": {"label": "*1", "atom_type": "Cs"}, "1": {"label": "*0", "atom_type": "S2s"}, "4": {"label": "*2", "atom_type": "H0"}, "12": {"label": "*3", "atom_type": "Cs"}, "17": {"label": "*4", "atom_type": "O2s"}}

>  <type>  (9) 
unop_5

>  <geom_source>  (9) 
Heuristics

$$$$

     RDKit          3D

 25 24  0  0  0  0  0  0  0  0999 V2000
    0.3184    0.3170    2.2417 C   0  0  0  0  0  3  0  0  0  0  0  0
   -1.3247   -0.2619    2.6995 S   0  0  0  0  0  0  0  0  0  0  0  0
   -1.3247   -1.9020    1.9358 C   0  0  0  0  0  0  0  0  0  0  0  0
   -1.3247   -1.9020    0.4154 C   0  0  0  0  0  0  0  0  0  0  0  0
    0.4332    0.4926    0.9513 H   0  0  0  0  0  0  0  0  0  0  0  0
    1.0854   -0.3761    2.5898 H   0  0  0  0  0  0  0  0  0  0  0  0
    0.4649    1.2763    2.7360 H   0  0  0  0  0  0  0  0  0  0  0  0
   -2.2288   -2.3800    2.3167 H   0  0  0  0  0  0  0  0  0  0  0  0
   -0.4755   -2.4669    2.3271 H   0  0  0  0  0  0  0  0  0  0  0  0
   -0.4177   -1.4458    0.0161 H   0  0  0  0  0  0  0  0  0  0  0  0
   -2.1807   -1.3488    0.0277 H   0  0  0  0  0  0  0  0  0  0  0  0
   -1.3732   -2.9252    0.0359 H   0  0  0  0  0  0  0  0  0  0  0  0
    0.5480    0.6682   -0.3388 C   0  0  0  0  0  0  0  0  0  0  0  0
    1.0289   -0.5918   -1.0442 C   0  0  0  0  0  0  0  0  0  0  0  0
    1.8356   -0.1874   -2.2698 C   0  0  0  0  0  0  0  0  0  0  0  0
    1.0972    0.7171   -3.0686 O   0  0  0  0  0  0  0  0  0  0  0  0
    0.7081    1.8380   -2.3347 C   0  0  0  0  0  0  0  0  0  0  0  0
   -0.1137    1.5217   -1.2526 O   0  0  0  0  0  0  0  0  0  0  0  0
    1.4027    1.1998    0.1071 H   0  0  0  0  0  0  0  0  0  0  0  0
    1.6373   -1.1985   -0.3697 H   0  0  0  0  0  0  0  0  0  0  0  0
    0.1668   -1.1845   -1.3564 H   0  0  0  0  0  0  0  0  0  0  0  0
    2.7809    0.2840   -1.9599 H   0  0  0  0  0  0  0  0  0  0  0  0
    2.0727   -1.0422   -2.9017 H   0  0  0  0  0  0  0  0  0  0  0  0
    1.6069    2.3688   -1.9706 H   0  0  0  0  0  0  0  0  0  0  0  0
    0.1335    2.4775   -3.0011 H   0  0  0  0  0  0  0  0  0  0  0  0
  1  2  1  0
  1  6  1  0
  1  7  1  0
  2  3  1  0
  3  4  1  0
  3  8  1  0
  3  9  1  0
  4 10  1  0
  4 11  1  0
  4 12  1  0
  5 13  1  0
 13 14  1  0
 13 18  1  0
 13 19  1  0
 14 15  1  0
 14 20  1  0
 14 21  1  0
 15 16  1  0
 15 22  1  0
 15 23  1  0
 16 17  1  0
 17 18  1  0
 17 24  1  0
 17 25  1  0
M  RAD  1   1   2
M  END
>  <reaction>  (10) 
rmg_rxn_527

>  <mol_properties>  (10) 
{"0": {"label": "*1", "atom_type": "Cs"}, "1": {"label": "*0", "atom_type": "S2s"}, "4": {"label": "*2", "atom_type": "H0"}, "12": {"label": "*3", "atom_type": "Cs"}, "17": {"label": "*4", "atom_type": "O2s"}}

>  <type>  (10) 
unop_6

>  <geom_source>  (10) 
Heuristics

$$$$

     RDKit          3D

 25 24  0  0  0  0  0  0  0  0999 V2000
    0.2799    0.2494    2.2283 C   0  0  0  0  0  3  0  0  0  0  0  0
   -1.3633   -0.3294    2.6860 S   0  0  0  0  0  0  0  0  0  0  0  0
   -1.3633   -1.9695    1.9224 C   0  0  0  0  0  0  0  0  0  0  0  0
   -1.3633   -1.9695    0.4020 C   0  0  0  0  0  0  0  0  0  0  0  0
    0.3947    0.4251    0.9378 H   0  0  0  0  0  0  0  0  0  0  0  0
    1.0469   -0.4436    2.5764 H   0  0  0  0  0  0  0  0  0  0  0  0
    0.4263    1.2088    2.7226 H   0  0  0  0  0  0  0  0  0  0  0  0
   -2.2673   -2.4475    2.3033 H   0  0  0  0  0  0  0  0  0  0  0  0
   -0.5140   -2.5344    2.3137 H   0  0  0  0  0  0  0  0  0  0  0  0
   -0.4563   -1.5134    0.0027 H   0  0  0  0  0  0  0  0  0  0  0  0
   -2.2192   -1.4163    0.0143 H   0  0  0  0  0  0  0  0  0  0  0  0
   -1.4117   -2.9928    0.0225 H   0  0  0  0  0  0  0  0  0  0  0  0
    0.5095    0.6007   -0.3522 C   0  0  0  0  0  0  0  0  0  0  0  0
    1.6019   -0.2740   -0.9507 C   0  0  0  0  0  0  0  0  0  0  0  0
    2.2103    0.4519   -2.1422 C   0  0  0  0  0  0  0  0  0  0  0  0
    1.1959    0.8630   -3.0384 O   0  0  0  0  0  0  0  0  0  0  0  0
    0.2486    1.6620   -2.3975 C   0  0  0  0  0  0  0  0  0  0  0  0
   -0.4036    1.0030   -1.3551 O   0  0  0  0  0  0  0  0  0  0  0  0
    0.9549    1.4912    0.1173 H   0  0  0  0  0  0  0  0  0  0  0  0
    2.3687   -0.4918   -0.2040 H   0  0  0  0  0  0  0  0  0  0  0  0
    1.1684   -1.2189   -1.2840 H   0  0  0  0  0  0  0  0  0  0  0  0
    2.7754    1.3320   -1.7987 H   0  0  0  0  0  0  0  0  0  0  0  0
    2.8870   -0.1880   -2.7068 H   0  0  0  0  0  0  0  0  0  0  0  0
    0.7398    2.5720   -2.0065 H   0  0  0  0  0  0  0  0  0  0  0  0
   -0.5055    1.9251   -3.1359 H   0  0  0  0  0  0  0  0  0  0  0  0
  1  2  1  0
  1  6  1  0
  1  7  1  0
  2  3  1  0
  3  4  1  0
  3  8  1  0
  3  9  1  0
  4 10  1  0
  4 11  1  0
  4 12  1  0
  5 13  1  0
 13 14  1  0
 13 18  1  0
 13 19  1  0
 14 15  1  0
 14 20  1  0
 14 21  1  0
 15 16  1  0
 15 22  1  0
 15 23  1  0
 16 17  1  0
 17 18  1  0
 17 24  1  0
 17 25  1  0
M  RAD  1   1   2
M  END
>  <reaction>  (11) 
rmg_rxn_527

>  <mol_properties>  (11) 
{"0": {"label": "*1", "atom_type": "Cs"}, "1": {"label": "*0", "atom_type": "S2s"}, "4": {"label": "*2", "atom_type": "H0"}, "12": {"label": "*3", "atom_type": "Cs"}, "17": {"label": "*4", "atom_type": "O2s"}}

>  <type>  (11) 
unop_7

>  <geom_source>  (11) 
Heuristics

$$$$

     RDKit          3D

 25 24  0  0  0  0  0  0  0  0999 V2000
   -0.0547   -0.1844    1.7002 C   0  0  0  0  0  3  0  0  0  0  0  0
   -1.6978   -0.7633    2.1580 S   0  0  0  0  0  0  0  0  0  0  0  0
   -1.6978   -2.4034    1.3944 C   0  0  0  0  0  0  0  0  0  0  0  0
   -1.6978   -2.4034   -0.1260 C   0  0  0  0  0  0  0  0  0  0  0  0
    0.0601   -0.0088    0.4098 H   0  0  0  0  0  0  0  0  0  0  0  0
    0.7123   -0.8775    2.0483 H   0  0  0  0  0  0  0  0  0  0  0  0
    0.0918    0.7750    2.1946 H   0  0  0  0  0  0  0  0  0  0  0  0
   -2.6019   -2.8814    1.7753 H   0  0  0  0  0  0  0  0  0  0  0  0
   -0.8486   -2.9683    1.7856 H   0  0  0  0  0  0  0  0  0  0  0  0
   -0.7908   -1.9472   -0.5253 H   0  0  0  0  0  0  0  0  0  0  0  0
   -2.5538   -1.8502   -0.5137 H   0  0  0  0  0  0  0  0  0  0  0  0
   -1.7463   -3.4266   -0.5055 H   0  0  0  0  0  0  0  0  0  0  0  0
    0.1749    0.1668   -0.8802 C   0  0  0  0  0  0  0  0  0  0  0  0
   -0.2059    1.5799   -1.2985 C   0  0  0  0  0  0  0  0  0  0  0  0
    0.8836    2.1301   -2.2078 C   0  0  0  0  0  0  0  0  0  0  0  0
    2.1513    1.9941   -1.5948 O   0  0  0  0  0  0  0  0  0  0  0  0
    2.4085    0.6657   -1.2548 C   0  0  0  0  0  0  0  0  0  0  0  0
    1.4849    0.1479   -0.3464 O   0  0  0  0  0  0  0  0  0  0  0  0
    0.1220   -0.5098   -1.7469 H   0  0  0  0  0  0  0  0  0  0  0  0
   -1.1691    1.5791   -1.8137 H   0  0  0  0  0  0  0  0  0  0  0  0
   -0.2911    2.2105   -0.4114 H   0  0  0  0  0  0  0  0  0  0  0  0
    0.8805    1.5916   -3.1679 H   0  0  0  0  0  0  0  0  0  0  0  0
    0.7463    3.1911   -2.4121 H   0  0  0  0  0  0  0  0  0  0  0  0
    2.4103    0.0460   -2.1703 H   0  0  0  0  0  0  0  0  0  0  0  0
    3.3844    0.6377   -0.7754 H   0  0  0  0  0  0  0  0  0  0  0  0
  1  2  1  0
  1  6  1  0
  1  7  1  0
  2  3  1  0
  3  4  1  0
  3  8  1  0
  3  9  1  0
  4 10  1  0
  4 11  1  0
  4 12  1  0
  5 13  1  0
 13 14  1  0
 13 18  1  0
 13 19  1  0
 14 15  1  0
 14 20  1  0
 14 21  1  0
 15 16  1  0
 15 22  1  0
 15 23  1  0
 16 17  1  0
 17 18  1  0
 17 24  1  0
 17 25  1  0
M  RAD  1   1   2
M  END
>  <reaction>  (12) 
rmg_rxn_527

>  <mol_properties>  (12) 
{"0": {"label": "*1", "atom_type": "Cs"}, "1": {"label": "*0", "atom_type": "S2s"}, "4": {"label": "*2", "atom_type": "H0"}, "12": {"label": "*3", "atom_type": "Cs"}, "17": {"label": "*4", "atom_type": "O2s"}}

>  <type>  (12) 
unop_8

>  <geom_source>  (12) 
Heuristics

$$$$

     RDKit          3D

 25 24  0  0  0  0  0  0  0  0999 V2000
    0.6389    0.1980    2.2342 C   0  0  0  0  0  3  0  0  0  0  0  0
   -1.0042   -0.3808    2.6920 S   0  0  0  0  0  0  0  0  0  0  0  0
   -1.0042   -2.0209    1.9283 C   0  0  0  0  0  0  0  0  0  0  0  0
   -1.0042   -2.0209    0.4079 C   0  0  0  0  0  0  0  0  0  0  0  0
    0.7538    0.3737    0.9438 H   0  0  0  0  0  0  0  0  0  0  0  0
    1.4059   -0.4950    2.5823 H   0  0  0  0  0  0  0  0  0  0  0  0
    0.7854    1.1574    2.7285 H   0  0  0  0  0  0  0  0  0  0  0  0
   -1.9082   -2.4989    2.3092 H   0  0  0  0  0  0  0  0  0  0  0  0
   -0.1550   -2.5858    2.3196 H   0  0  0  0  0  0  0  0  0  0  0  0
   -0.0972   -1.5647    0.0086 H   0  0  0  0  0  0  0  0  0  0  0  0
   -1.8602   -1.4677    0.0202 H   0  0  0  0  0  0  0  0  0  0  0  0
   -1.0526   -3.0441    0.0284 H   0  0  0  0  0  0  0  0  0  0  0  0
    0.8686    0.5493   -0.3463 C   0  0  0  0  0  0  0  0  0  0  0  0
   -0.0252   -0.3998   -1.1317 C   0  0  0  0  0  0  0  0  0  0  0  0
    0.3264   -0.2914   -2.6086 C   0  0  0  0  0  0  0  0  0  0  0  0
    0.2970    1.0608   -3.0235 O   0  0  0  0  0  0  0  0  0  0  0  0
    1.1506    1.8460   -2.2481 C   0  0  0  0  0  0  0  0  0  0  0  0
    0.8069    1.8514   -0.8959 O   0  0  0  0  0  0  0  0  0  0  0  0
    1.9092    0.1909   -0.3673 H   0  0  0  0  0  0  0  0  0  0  0  0
    0.1071   -1.4262   -0.7820 H   0  0  0  0  0  0  0  0  0  0  0  0
   -1.0700   -0.1189   -0.9857 H   0  0  0  0  0  0  0  0  0  0  0  0
    1.3289   -0.7089   -2.7889 H   0  0  0  0  0  0  0  0  0  0  0  0
   -0.3837   -0.8275   -3.2368 H   0  0  0  0  0  0  0  0  0  0  0  0
    2.1885    1.4827   -2.3618 H   0  0  0  0  0  0  0  0  0  0  0  0
    1.0648    2.8690   -2.6076 H   0  0  0  0  0  0  0  0  0  0  0  0
  1  2  1  0
  1  6  1  0
  1  7  1  0
  2  3  1  0
  3  4  1  0
  3  8  1  0
  3  9  1  0
  4 10  1  0
  4 11  1  0
  4 12  1  0
  5 13  1  0
 13 14  1  0
 13 18  1  0
 13 19  1  0
 14 15  1  0
 14 20  1  0
 14 21  1  0
 15 16  1  0
 15 22  1  0
 15 23  1  0
 16 17  1  0
 17 18  1  0
 17 24  1  0
 17 25  1  0
M  RAD  1   1   2
M  END
>  <reaction>  (13) 
rmg_rxn_527

>  <mol_properties>  (13) 
{"0": {"label": "*1", "atom_type": "Cs"}, "1": {"label": "*0", "atom_type": "S2s"}, "4": {"label": "*2", "atom_type": "H0"}, "12": {"label": "*3", "atom_type": "Cs"}, "17": {"label": "*4", "atom_type": "O2s"}}

>  <type>  (13) 
unop_9

>  <geom_source>  (13) 
Heuristics

$$$$

     RDKit          3D

 25 24  0  0  0  0  0  0  0  0999 V2000
    0.2421   -0.3458    1.7837 C   0  0  0  0  0  3  0  0  0  0  0  0
   -1.4010   -0.9247    2.2415 S   0  0  0  0  0  0  0  0  0  0  0  0
   -1.4010   -2.5648    1.4778 C   0  0  0  0  0  0  0  0  0  0  0  0
   -1.4010   -2.5648   -0.0426 C   0  0  0  0  0  0  0  0  0  0  0  0
    0.3570   -0.1702    0.4933 H   0  0  0  0  0  0  0  0  0  0  0  0
    1.0091   -1.0389    2.1318 H   0  0  0  0  0  0  0  0  0  0  0  0
    0.3886    0.6135    2.2780 H   0  0  0  0  0  0  0  0  0  0  0  0
   -2.3050   -3.0428    1.8587 H   0  0  0  0  0  0  0  0  0  0  0  0
   -0.5517   -3.1297    1.8691 H   0  0  0  0  0  0  0  0  0  0  0  0
   -0.4940   -2.1086   -0.4419 H   0  0  0  0  0  0  0  0  0  0  0  0
   -2.2570   -2.0116   -0.4303 H   0  0  0  0  0  0  0  0  0  0  0  0
   -1.4494   -3.5880   -0.4221 H   0  0  0  0  0  0  0  0  0  0  0  0
    0.4718    0.0054   -0.7968 C   0  0  0  0  0  0  0  0  0  0  0  0
   -0.5206    1.0331   -1.3219 C   0  0  0  0  0  0  0  0  0  0  0  0
    0.1813    1.9082   -2.3505 C   0  0  0  0  0  0  0  0  0  0  0  0
    1.3800    2.4339   -1.8135 O   0  0  0  0  0  0  0  0  0  0  0  0
    2.2224    1.4158   -1.3659 C   0  0  0  0  0  0  0  0  0  0  0  0
    1.6531    0.6445   -0.3523 O   0  0  0  0  0  0  0  0  0  0  0  0
    0.7210   -0.7168   -1.5893 H   0  0  0  0  0  0  0  0  0  0  0  0
   -1.3843    0.5360   -1.7692 H   0  0  0  0  0  0  0  0  0  0  0  0
   -0.8713    1.6543   -0.4955 H   0  0  0  0  0  0  0  0  0  0  0  0
    0.4102    1.3198   -3.2523 H   0  0  0  0  0  0  0  0  0  0  0  0
   -0.4299    2.7599   -2.6458 H   0  0  0  0  0  0  0  0  0  0  0  0
    2.4936    0.7631   -2.2160 H   0  0  0  0  0  0  0  0  0  0  0  0
    3.1102    1.8891   -0.9523 H   0  0  0  0  0  0  0  0  0  0  0  0
  1  2  1  0
  1  6  1  0
  1  7  1  0
  2  3  1  0
  3  4  1  0
  3  8  1  0
  3  9  1  0
  4 10  1  0
  4 11  1  0
  4 12  1  0
  5 13  1  0
 13 14  1  0
 13 18  1  0
 13 19  1  0
 14 15  1  0
 14 20  1  0
 14 21  1  0
 15 16  1  0
 15 22  1  0
 15 23  1  0
 16 17  1  0
 17 18  1  0
 17 24  1  0
 17 25  1  0
M  RAD  1   1   2
M  END
>  <reaction>  (14) 
rmg_rxn_527

>  <mol_properties>  (14) 
{"0": {"label": "*1", "atom_type": "Cs"}, "1": {"label": "*0", "atom_type": "S2s"}, "4": {"label": "*2", "atom_type": "H0"}, "12": {"label": "*3", "atom_type": "Cs"}, "17": {"label": "*4", "atom_type": "O2s"}}

>  <type>  (14) 
unop_10

>  <geom_source>  (14) 
Heuristics

$$$$

     RDKit          3D

 25 24  0  0  0  0  0  0  0  0999 V2000
    0.3130    0.2969    2.2400 C   0  0  0  0  0  3  0  0  0  0  0  0
   -1.3302   -0.2819    2.6977 S   0  0  0  0  0  0  0  0  0  0  0  0
   -1.3302   -1.9220    1.9341 C   0  0  0  0  0  0  0  0  0  0  0  0
   -1.3302   -1.9220    0.4137 C   0  0  0  0  0  0  0  0  0  0  0  0
    0.4278    0.4726    0.9495 H   0  0  0  0  0  0  0  0  0  0  0  0
    1.0800   -0.3961    2.5881 H   0  0  0  0  0  0  0  0  0  0  0  0
    0.4594    1.2563    2.7343 H   0  0  0  0  0  0  0  0  0  0  0  0
   -2.2342   -2.4000    2.3150 H   0  0  0  0  0  0  0  0  0  0  0  0
   -0.4809   -2.4869    2.3254 H   0  0  0  0  0  0  0  0  0  0  0  0
   -0.4232   -1.4659    0.0144 H   0  0  0  0  0  0  0  0  0  0  0  0
   -2.1861   -1.3688    0.0260 H   0  0  0  0  0  0  0  0  0  0  0  0
   -1.3786   -2.9453    0.0342 H   0  0  0  0  0  0  0  0  0  0  0  0
    0.5426    0.6482   -0.3405 C   0  0  0  0  0  0  0  0  0  0  0  0
    1.9672    0.4138   -0.8223 C   0  0  0  0  0  0  0  0  0  0  0  0
    2.1469    1.1022   -2.1678 C   0  0  0  0  0  0  0  0  0  0  0  0
    1.1253    0.7069   -3.0631 O   0  0  0  0  0  0  0  0  0  0  0  0
   -0.1391    0.9672   -2.5340 C   0  0  0  0  0  0  0  0  0  0  0  0
   -0.3834    0.2800   -1.3446 O   0  0  0  0  0  0  0  0  0  0  0  0
    0.4019    1.7091   -0.0826 H   0  0  0  0  0  0  0  0  0  0  0  0
    2.6847    0.8019   -0.0959 H   0  0  0  0  0  0  0  0  0  0  0  0
    2.1398   -0.6581   -0.9370 H   0  0  0  0  0  0  0  0  0  0  0  0
    2.1190    2.1950   -2.0386 H   0  0  0  0  0  0  0  0  0  0  0  0
    3.0939    0.8388   -2.6369 H   0  0  0  0  0  0  0  0  0  0  0  0
   -0.2477    2.0535   -2.3595 H   0  0  0  0  0  0  0  0  0  0  0  0
   -0.8712    0.6245   -3.2618 H   0  0  0  0  0  0  0  0  0  0  0  0
  1  2  1  0
  1  6  1  0
  1  7  1  0
  2  3  1  0
  3  4  1  0
  3  8  1  0
  3  9  1  0
  4 10  1  0
  4 11  1  0
  4 12  1  0
  5 13  1  0
 13 14  1  0
 13 18  1  0
 13 19  1  0
 14 15  1  0
 14 20  1  0
 14 21  1  0
 15 16  1  0
 15 22  1  0
 15 23  1  0
 16 17  1  0
 17 18  1  0
 17 24  1  0
 17 25  1  0
M  RAD  1   1   2
M  END
>  <reaction>  (15) 
rmg_rxn_527

>  <mol_properties>  (15) 
{"0": {"label": "*1", "atom_type": "Cs"}, "1": {"label": "*0", "atom_type": "S2s"}, "4": {"label": "*2", "atom_type": "H0"}, "12": {"label": "*3", "atom_type": "Cs"}, "17": {"label": "*4", "atom_type": "O2s"}}

>  <type>  (15) 
unop_11

>  <geom_source>  (15) 
Heuristics

$$$$

     RDKit          3D

 25 24  0  0  0  0  0  0  0  0999 V2000
    0.6928   -0.0652    2.1216 C   0  0  0  0  0  3  0  0  0  0  0  0
   -0.9503   -0.6440    2.5794 S   0  0  0  0  0  0  0  0  0  0  0  0
   -0.9503   -2.2841    1.8158 C   0  0  0  0  0  0  0  0  0  0  0  0
   -0.9503   -2.2841    0.2954 C   0  0  0  0  0  0  0  0  0  0  0  0
    0.8077    0.1105    0.8312 H   0  0  0  0  0  0  0  0  0  0  0  0
    1.4598   -0.7582    2.4697 H   0  0  0  0  0  0  0  0  0  0  0  0
    0.8393    0.8942    2.6160 H   0  0  0  0  0  0  0  0  0  0  0  0
   -1.8543   -2.7621    2.1967 H   0  0  0  0  0  0  0  0  0  0  0  0
   -0.1011   -2.8490    2.2070 H   0  0  0  0  0  0  0  0  0  0  0  0
   -0.0433   -1.8280   -0.1039 H   0  0  0  0  0  0  0  0  0  0  0  0
   -1.8063   -1.7309   -0.0923 H   0  0  0  0  0  0  0  0  0  0  0  0
   -0.9987   -3.3074   -0.0841 H   0  0  0  0  0  0  0  0  0  0  0  0
    0.9225    0.2861   -0.4588 C   0  0  0  0  0  0  0  0  0  0  0  0
   -0.3660   -0.0500   -1.1960 C   0  0  0  0  0  0  0  0  0  0  0  0
   -0.2276    0.3900   -2.6464 C   0  0  0  0  0  0  0  0  0  0  0  0
    0.1805    1.7429   -2.7134 O   0  0  0  0  0  0  0  0  0  0  0  0
    1.3703    1.9471   -2.0139 C   0  0  0  0  0  0  0  0  0  0  0  0
    1.2621    1.6452   -0.6561 O   0  0  0  0  0  0  0  0  0  0  0  0
    1.7418   -0.3534   -0.8215 H   0  0  0  0  0  0  0  0  0  0  0  0
   -0.5696   -1.1218   -1.1398 H   0  0  0  0  0  0  0  0  0  0  0  0
   -1.1988    0.4828   -0.7328 H   0  0  0  0  0  0  0  0  0  0  0  0
    0.5108   -0.2422   -3.1630 H   0  0  0  0  0  0  0  0  0  0  0  0
   -1.1716    0.3203   -3.1851 H   0  0  0  0  0  0  0  0  0  0  0  0
    2.1712    1.3324   -2.4642 H   0  0  0  0  0  0  0  0  0  0  0  0
    1.6139    3.0043   -2.0918 H   0  0  0  0  0  0  0  0  0  0  0  0
  1  2  1  0
  1  6  1  0
  1  7  1  0
  2  3  1  0
  3  4  1  0
  3  8  1  0
  3  9  1  0
  4 10  1  0
  4 11  1  0
  4 12  1  0
  5 13  1  0
 13 14  1  0
 13 18  1  0
 13 19  1  0
 14 15  1  0
 14 20  1  0
 14 21  1  0
 15 16  1  0
 15 22  1  0
 15 23  1  0
 16 17  1  0
 17 18  1  0
 17 24  1  0
 17 25  1  0
M  RAD  1   1   2
M  END
>  <reaction>  (16) 
rmg_rxn_527

>  <mol_properties>  (16) 
{"0": {"label": "*1", "atom_type": "Cs"}, "1": {"label": "*0", "atom_type": "S2s"}, "4": {"label": "*2", "atom_type": "H0"}, "12": {"label": "*3", "atom_type": "Cs"}, "17": {"label": "*4", "atom_type": "O2s"}}

>  <type>  (16) 
unop_12

>  <geom_source>  (16) 
Heuristics

$$$$

     RDKit          3D

 25 24  0  0  0  0  0  0  0  0999 V2000
    2.6642    0.8149    1.5595 S   0  0  0  0  0  0  0  0  0  0  0  0
   -1.0989   -1.0237    0.1564 O   0  0  0  0  0  0  0  0  0  0  0  0
   -3.2745   -1.1955   -0.6633 O   0  0  0  0  0  0  0  0  0  0  0  0
   -2.1447    0.9418   -0.7931 C   0  0  0  0  0  0  0  0  0  0  0  0
   -1.1591    0.3861    0.2326 C   0  0  0  0  0  3  0  0  0  0  0  0
   -3.4739    0.2033   -0.6397 C   0  0  0  0  0  0  0  0  0  0  0  0
    3.1260   -0.7232    0.6899 C   0  0  0  0  0  0  0  0  0  0  0  0
    4.0373   -0.4259   -0.4940 C   0  0  0  0  0  0  0  0  0  0  0  0
   -2.3894   -1.5614    0.3792 C   0  0  0  0  0  0  0  0  0  0  0  0
    1.2906    1.2229    0.4387 C   0  0  0  0  0  0  0  0  0  0  0  0
   -2.2887    2.0318   -0.6340 H   0  0  0  0  0  0  0  0  0  0  0  0
   -1.7425    0.7760   -1.8158 H   0  0  0  0  0  0  0  0  0  0  0  0
   -1.4368    0.7131    1.2608 H   0  0  0  0  0  0  0  0  0  0  0  0
    0.0818    0.8938   -0.0362 H   0  0  0  0  0  0  0  0  0  0  0  0
   -4.1390    0.4827   -1.4838 H   0  0  0  0  0  0  0  0  0  0  0  0
   -3.9862    0.5113    0.3005 H   0  0  0  0  0  0  0  0  0  0  0  0
    3.6702   -1.3752    1.4052 H   0  0  0  0  0  0  0  0  0  0  0  0
    2.2206   -1.2698    0.3487 H   0  0  0  0  0  0  0  0  0  0  0  0
    4.9416    0.1212   -0.1528 H   0  0  0  0  0  0  0  0  0  0  0  0
    4.3545   -1.3792   -0.9668 H   0  0  0  0  0  0  0  0  0  0  0  0
    3.5042    0.1837   -1.2525 H   0  0  0  0  0  0  0  0  0  0  0  0
   -2.3031   -2.6673    0.3821 H   0  0  0  0  0  0  0  0  0  0  0  0
   -2.7896   -1.2773    1.3819 H   0  0  0  0  0  0  0  0  0  0  0  0
    0.6474    1.9924    0.9126 H   0  0  0  0  0  0  0  0  0  0  0  0
    1.6881    1.6237   -0.5161 H   0  0  0  0  0  0  0  0  0  0  0  0
  1 10  1  0
  1  7  1  0
  2  5  1  0
  2  9  1  0
  3  6  1  0
  3  9  1  0
  4  5  1  0
  4  6  1  0
  4 11  1  0
  4 12  1  0
  5 13  1  0
  6 15  1  0
  6 16  1  0
  7  8  1  0
  7 17  1  0
  7 18  1  0
  8 19  1  0
  8 20  1  0
  8 21  1  0
  9 22  1  0
  9 23  1  0
 10 14  1  0
 10 24  1  0
 10 25  1  0
M  RAD  1   5   2
M  END
>  <reaction>  (17) 
rmg_rxn_527

>  <mol_properties>  (17) 
{"0": {"label": "*1", "atom_type": "Cs"}, "1": {"label": "*0", "atom_type": "S2s"}, "4": {"label": "*2", "atom_type": "H0"}, "12": {"label": "*3", "atom_type": "Cs"}, "17": {"label": "*4", "atom_type": "O2s"}}

>  <type>  (17) 
unop_13

>  <geom_source>  (17) 
AutoTST

$$$$

     RDKit          3D

 25 24  0  0  0  0  0  0  0  0999 V2000
    0.5382   -0.2964    1.9439 C   0  0  0  0  0  3  0  0  0  0  0  0
   -1.1049   -0.8753    2.4017 S   0  0  0  0  0  0  0  0  0  0  0  0
   -1.1049   -2.5154    1.6380 C   0  0  0  0  0  0  0  0  0  0  0  0
   -1.1049   -2.5154    0.1177 C   0  0  0  0  0  0  0  0  0  0  0  0
    0.6531   -0.1208    0.6535 H   0  0  0  0  0  0  0  0  0  0  0  0
    1.3052   -0.9895    2.2920 H   0  0  0  0  0  0  0  0  0  0  0  0
    0.6847    0.6629    2.4382 H   0  0  0  0  0  0  0  0  0  0  0  0
   -2.0089   -2.9934    2.0189 H   0  0  0  0  0  0  0  0  0  0  0  0
   -0.2556   -3.0803    2.0293 H   0  0  0  0  0  0  0  0  0  0  0  0
   -0.1979   -2.0592   -0.2816 H   0  0  0  0  0  0  0  0  0  0  0  0
   -1.9609   -1.9622   -0.2701 H   0  0  0  0  0  0  0  0  0  0  0  0
   -1.1533   -3.5386   -0.2619 H   0  0  0  0  0  0  0  0  0  0  0  0
    0.7679    0.0548   -0.6365 C   0  0  0  0  0  0  0  0  0  0  0  0
   -0.5567    0.4422   -1.2784 C   0  0  0  0  0  0  0  0  0  0  0  0
   -0.2718    1.2549   -2.5334 C   0  0  0  0  0  0  0  0  0  0  0  0
    0.6016    2.3277   -2.2373 O   0  0  0  0  0  0  0  0  0  0  0  0
    1.7860    1.8703   -1.6589 C   0  0  0  0  0  0  0  0  0  0  0  0
    1.5793    1.1992   -0.4534 O   0  0  0  0  0  0  0  0  0  0  0  0
    1.2963   -0.6719   -1.2725 H   0  0  0  0  0  0  0  0  0  0  0  0
   -1.1371   -0.4498   -1.5246 H   0  0  0  0  0  0  0  0  0  0  0  0
   -1.1363    1.0470   -0.5782 H   0  0  0  0  0  0  0  0  0  0  0  0
    0.1836    0.6126   -3.3028 H   0  0  0  0  0  0  0  0  0  0  0  0
   -1.1778    1.6937   -2.9490 H   0  0  0  0  0  0  0  0  0  0  0  0
    2.3061    1.2003   -2.3679 H   0  0  0  0  0  0  0  0  0  0  0  0
    2.3982    2.7429   -1.4424 H   0  0  0  0  0  0  0  0  0  0  0  0
  1  2  1  0
  1  6  1  0
  1  7  1  0
  2  3  1  0
  3  4  1  0
  3  8  1  0
  3  9  1  0
  4 10  1  0
  4 11  1  0
  4 12  1  0
  5 13  1  0
 13 14  1  0
 13 18  1  0
 13 19  1  0
 14 15  1  0
 14 20  1  0
 14 21  1  0
 15 16  1  0
 15 22  1  0
 15 23  1  0
 16 17  1  0
 17 18  1  0
 17 24  1  0
 17 25  1  0
M  RAD  1   1   2
M  END
>  <reaction>  (18) 
rmg_rxn_527

>  <mol_properties>  (18) 
{"0": {"label": "*1", "atom_type": "Cs"}, "1": {"label": "*0", "atom_type": "S2s"}, "4": {"label": "*2", "atom_type": "H0"}, "12": {"label": "*3", "atom_type": "Cs"}, "17": {"label": "*4", "atom_type": "O2s"}}

>  <type>  (18) 
unop_14

>  <geom_source>  (18) 
gaussian_log

$$$$
