
     RDKit          3D

  8  7  0  0  0  0  0  0  0  0999 V2000
    1.2099   -0.1388    0.0025 C   0  0  0  0  0  0  0  0  0  0  0  0
   -0.1788    0.4141    0.0007 C   0  0  0  0  0  0  0  0  0  0  0  0
   -1.2100   -0.3603    0.0013 N   0  0  0  0  0  0  0  0  0  0  0  0
    1.7355    0.2223   -0.8851 H   0  0  0  0  0  0  0  0  0  0  0  0
    1.7521    0.1663    0.9007 H   0  0  0  0  0  0  0  0  0  0  0  0
    1.1564   -1.2296   -0.0424 H   0  0  0  0  0  0  0  0  0  0  0  0
   -0.2911    1.5112   -0.0010 H   0  0  0  0  0  0  0  0  0  0  0  0
   -2.0699    0.2005   -0.0002 H   0  0  0  0  0  0  0  0  0  0  0  0
  1  2  1  0
  1  4  1  0
  1  5  1  0
  1  6  1  0
  2  3  2  3
  2  7  1  0
  3  8  1  0
M  END
>  <reaction>  (1) 
rmg_rxn_16773

>  <mol_properties>  (1) 
{"2": {"label": "donator", "atom_type": "N3d"}, "7": {"label": "d_hydrogen", "atom_type": "H0"}}

>  <type>  (1) 
r1h

$$$$

     RDKit          3D

  9  8  0  0  0  0  0  0  0  0999 V2000
   -1.1985   -0.3171   -0.0433 C   0  0  0  0  0  3  0  0  0  0  0  0
   -0.0279    0.5813    0.0746 C   0  0  0  0  0  0  0  0  0  0  0  0
    1.1983   -0.1803   -0.0447 N   0  0  0  0  0  0  0  0  0  0  0  0
   -1.2197   -1.2811    0.4508 H   0  0  0  0  0  0  0  0  0  0  0  0
   -2.1352    0.0829   -0.4154 H   0  0  0  0  0  0  0  0  0  0  0  0
   -0.0525    1.0996    1.0379 H   0  0  0  0  0  0  0  0  0  0  0  0
   -0.0624    1.3408   -0.7126 H   0  0  0  0  0  0  0  0  0  0  0  0
    1.2423   -0.8800    0.6930 H   0  0  0  0  0  0  0  0  0  0  0  0
    1.1979   -0.6858   -0.9288 H   0  0  0  0  0  0  0  0  0  0  0  0
  1  2  1  0
  1  4  1  0
  1  5  1  0
  2  3  1  0
  2  6  1  0
  2  7  1  0
  3  8  1  0
  3  9  1  0
M  RAD  1   1   2
M  END
>  <reaction>  (2) 
rmg_rxn_16773

>  <mol_properties>  (2) 
{"0": {"label": "acceptor", "atom_type": "Cs"}}

>  <type>  (2) 
r2

$$$$

     RDKit          3D

 10  9  0  0  0  0  0  0  0  0999 V2000
   -1.1931   -0.2772    0.0000 C   0  0  0  0  0  0  0  0  0  0  0  0
    0.0433    0.6056    0.0000 C   0  0  0  0  0  0  0  0  0  0  0  0
    1.2617   -0.1946    0.0000 N   0  0  0  0  0  0  0  0  0  0  0  0
   -1.2226   -0.9183    0.8874 H   0  0  0  0  0  0  0  0  0  0  0  0
   -1.2226   -0.9183   -0.8874 H   0  0  0  0  0  0  0  0  0  0  0  0
   -2.0972    0.3401   -0.0000 H   0  0  0  0  0  0  0  0  0  0  0  0
    0.0379    1.2535    0.8825 H   0  0  0  0  0  0  0  0  0  0  0  0
    0.0379    1.2535   -0.8825 H   0  0  0  0  0  0  0  0  0  0  0  0
    1.2666   -0.8092   -0.8134 H   0  0  0  0  0  0  0  0  0  0  0  0
    1.2666   -0.8092    0.8134 H   0  0  0  0  0  0  0  0  0  0  0  0
  1  2  1  0
  1  4  1  0
  1  5  1  0
  1  6  1  0
  2  3  1  0
  2  7  1  0
  2  8  1  0
  3  9  1  0
  3 10  1  0
M  END
>  <reaction>  (3) 
rmg_rxn_16773

>  <mol_properties>  (3) 
{"0": {"label": "a_hydrogen", "atom_type": "H0"}, "1": {"label": "acceptor", "atom_type": "Cs"}}

>  <type>  (3) 
r2h

$$$$

     RDKit          3D

 17 15  0  0  0  0  0  0  0  0999 V2000
   -3.5318   -0.1415    0.1090 C   0  0  0  0  0  0  0  0  0  0  0  0
   -2.0934    0.2624    0.1517 C   0  0  0  0  0  0  0  0  0  0  0  0
   -1.1954   -0.3798   -0.5150 N   0  0  0  0  0  0  0  0  0  0  0  0
   -3.8632   -0.3775    1.1234 H   0  0  0  0  0  0  0  0  0  0  0  0
   -4.1514    0.6584   -0.3037 H   0  0  0  0  0  0  0  0  0  0  0  0
   -3.6293   -1.0381   -0.5083 H   0  0  0  0  0  0  0  0  0  0  0  0
   -1.8257    1.1318    0.7753 H   0  0  0  0  0  0  0  0  0  0  0  0
   -0.0888    0.1287   -0.3287 H   0  0  0  0  0  0  0  0  0  0  0  0
    1.0911    0.6710   -0.1302 C   0  0  0  0  0  3  0  0  0  0  0  0
    2.0381   -0.3464    0.4831 C   0  0  0  0  0  0  0  0  0  0  0  0
    3.3782   -0.2230   -0.0770 N   0  0  0  0  0  0  0  0  0  0  0  0
    1.0072    0.5321   -1.2133 H   0  0  0  0  0  0  0  0  0  0  0  0
    1.4320    1.6945    0.0589 H   0  0  0  0  0  0  0  0  0  0  0  0
    1.6639   -1.3593    0.3023 H   0  0  0  0  0  0  0  0  0  0  0  0
    2.0863   -0.2035    1.5675 H   0  0  0  0  0  0  0  0  0  0  0  0
    3.3379   -0.3431   -1.0886 H   0  0  0  0  0  0  0  0  0  0  0  0
    3.7272    0.7223    0.0776 H   0  0  0  0  0  0  0  0  0  0  0  0
  1  2  1  0
  1  4  1  0
  1  5  1  0
  1  6  1  0
  2  3  2  3
  2  7  1  0
  3  8  1  0
  9 10  1  0
  9 12  1  0
  9 13  1  0
 10 11  1  0
 10 14  1  0
 10 15  1  0
 11 16  1  0
 11 17  1  0
M  RAD  1   9   2
M  END
>  <reaction>  (4) 
rmg_rxn_16773

>  <mol_properties>  (4) 
{"1": {"label": "*0", "atom_type": "Cd"}, "2": {"label": "*1", "atom_type": "N3d"}, "7": {"label": "*2", "atom_type": "H0"}, "8": {"label": "*3", "atom_type": "Cs"}, "9": {"label": "*4", "atom_type": "Cs"}}

>  <type>  (4) 
ts

$$$$

     RDKit          3D

 17 15  0  0  0  0  0  0  0  0999 V2000
   -3.2986   -0.5315    0.0006 C   0  0  0  0  0  0  0  0  0  0  0  0
   -1.8221   -0.2682   -0.0009 C   0  0  0  0  0  0  0  0  0  0  0  0
   -1.3493    0.8767    0.0010 N   0  0  0  0  0  0  0  0  0  0  0  0
   -3.8491    0.4048    0.0041 H   0  0  0  0  0  0  0  0  0  0  0  0
   -3.5618   -1.1103   -0.8833 H   0  0  0  0  0  0  0  0  0  0  0  0
   -3.5591   -1.1155    0.8817 H   0  0  0  0  0  0  0  0  0  0  0  0
   -1.2120   -1.1839   -0.0038 H   0  0  0  0  0  0  0  0  0  0  0  0
   -0.0871    0.9402   -0.0001 H   0  0  0  0  0  0  0  0  0  0  0  0
    1.2047    0.9550   -0.0009 C   0  0  0  0  0  3  0  0  0  0  0  0
    1.7272   -0.4620   -0.0014 C   0  0  0  0  0  0  0  0  0  0  0  0
    3.1863   -0.5298    0.0014 N   0  0  0  0  0  0  0  0  0  0  0  0
    1.4732    1.5075   -0.8965 H   0  0  0  0  0  0  0  0  0  0  0  0
    1.4740    1.5071    0.8947 H   0  0  0  0  0  0  0  0  0  0  0  0
    1.3828   -0.9978   -0.8904 H   0  0  0  0  0  0  0  0  0  0  0  0
    1.3795   -0.9996    0.8853 H   0  0  0  0  0  0  0  0  0  0  0  0
    3.5592   -0.0578   -0.8164 H   0  0  0  0  0  0  0  0  0  0  0  0
    3.5559   -0.0604    0.8222 H   0  0  0  0  0  0  0  0  0  0  0  0
  1  2  1  0
  1  4  1  0
  1  5  1  0
  1  6  1  0
  2  3  2  3
  2  7  1  0
  3  8  1  0
  9 10  1  0
  9 12  1  0
  9 13  1  0
 10 11  1  0
 10 14  1  0
 10 15  1  0
 11 16  1  0
 11 17  1  0
M  RAD  1   9   2
M  END
>  <reaction>  (5) 
rmg_rxn_16773

>  <mol_properties>  (5) 
{"1": {"label": "*0", "atom_type": "Cd"}, "2": {"label": "*1", "atom_type": "N3d"}, "7": {"label": "*2", "atom_type": "H0"}, "8": {"label": "*3", "atom_type": "Cs"}, "9": {"label": "*4", "atom_type": "Cs"}}

>  <type>  (5) 
unop_1

>  <geom_source>  (5) 
crest_best.xyz

$$$$

     RDKit          3D

 17 15  0  0  0  0  0  0  0  0999 V2000
   -0.3552   -0.7865   -3.4326 C   0  0  0  0  0  0  0  0  0  0  0  0
   -0.3552   -0.7865   -1.9379 C   0  0  0  0  0  0  0  0  0  0  0  0
   -0.3552    0.3144   -1.2662 N   0  0  0  0  0  0  0  0  0  0  0  0
    0.5322   -1.3176   -3.7863 H   0  0  0  0  0  0  0  0  0  0  0  0
   -1.2535   -1.2695   -3.8245 H   0  0  0  0  0  0  0  0  0  0  0  0
   -0.3087    0.2466   -3.7863 H   0  0  0  0  0  0  0  0  0  0  0  0
   -0.3552   -1.7643   -1.4276 H   0  0  0  0  0  0  0  0  0  0  0  0
   -0.3552    0.0709   -0.0586 H   0  0  0  0  0  0  0  0  0  0  0  0
   -0.3552   -0.1889    1.2291 C   0  0  0  0  0  3  0  0  0  0  0  0
    0.8800    0.4067    1.8832 C   0  0  0  0  0  0  0  0  0  0  0  0
    0.5643    0.9696    3.1902 N   0  0  0  0  0  0  0  0  0  0  0  0
   -1.1301    0.5706    1.0800 H   0  0  0  0  0  0  0  0  0  0  0  0
   -0.7774   -0.9945    1.8392 H   0  0  0  0  0  0  0  0  0  0  0  0
    1.2975    1.1916    1.2442 H   0  0  0  0  0  0  0  0  0  0  0  0
    1.6482   -0.3647    1.9991 H   0  0  0  0  0  0  0  0  0  0  0  0
   -0.1597    1.6803    3.0901 H   0  0  0  0  0  0  0  0  0  0  0  0
    0.1636    0.2458    3.7859 H   0  0  0  0  0  0  0  0  0  0  0  0
  1  2  1  0
  1  4  1  0
  1  5  1  0
  1  6  1  0
  2  3  2  3
  2  7  1  0
  3  8  1  0
  9 10  1  0
  9 12  1  0
  9 13  1  0
 10 11  1  0
 10 14  1  0
 10 15  1  0
 11 16  1  0
 11 17  1  0
M  RAD  1   9   2
M  END
>  <reaction>  (6) 
rmg_rxn_16773

>  <mol_properties>  (6) 
{"1": {"label": "*0", "atom_type": "Cd"}, "2": {"label": "*1", "atom_type": "N3d"}, "7": {"label": "*2", "atom_type": "H0"}, "8": {"label": "*3", "atom_type": "Cs"}, "9": {"label": "*4", "atom_type": "Cs"}}

>  <type>  (6) 
unop_2

>  <geom_source>  (6) 
Heuristics

$$$$

     RDKit          3D

 17 15  0  0  0  0  0  0  0  0999 V2000
   -0.3151   -0.0149   -3.3209 C   0  0  0  0  0  0  0  0  0  0  0  0
   -0.3151   -0.0149   -1.8262 C   0  0  0  0  0  0  0  0  0  0  0  0
   -0.3151    1.0861   -1.1546 N   0  0  0  0  0  0  0  0  0  0  0  0
    0.5723   -0.5459   -3.6746 H   0  0  0  0  0  0  0  0  0  0  0  0
   -1.2135   -0.4978   -3.7128 H   0  0  0  0  0  0  0  0  0  0  0  0
   -0.2686    1.0182   -3.6746 H   0  0  0  0  0  0  0  0  0  0  0  0
   -0.3151   -0.9926   -1.3159 H   0  0  0  0  0  0  0  0  0  0  0  0
   -0.3151    0.8425    0.0531 H   0  0  0  0  0  0  0  0  0  0  0  0
   -0.3151    0.5828    1.3408 C   0  0  0  0  0  3  0  0  0  0  0  0
    0.3980   -0.7315    1.6096 C   0  0  0  0  0  0  0  0  0  0  0  0
    0.7880   -0.8423    3.0098 N   0  0  0  0  0  0  0  0  0  0  0  0
    0.3298    1.4379    1.5696 H   0  0  0  0  0  0  0  0  0  0  0  0
   -1.2263    0.6698    1.9422 H   0  0  0  0  0  0  0  0  0  0  0  0
    1.2906   -0.8060    0.9801 H   0  0  0  0  0  0  0  0  0  0  0  0
   -0.2567   -1.5698    1.3506 H   0  0  0  0  0  0  0  0  0  0  0  0
    1.3882   -0.0572    3.2603 H   0  0  0  0  0  0  0  0  0  0  0  0
   -0.0381   -0.7612    3.6018 H   0  0  0  0  0  0  0  0  0  0  0  0
  1  2  1  0
  1  4  1  0
  1  5  1  0
  1  6  1  0
  2  3  2  3
  2  7  1  0
  3  8  1  0
  9 10  1  0
  9 12  1  0
  9 13  1  0
 10 11  1  0
 10 14  1  0
 10 15  1  0
 11 16  1  0
 11 17  1  0
M  RAD  1   9   2
M  END
>  <reaction>  (7) 
rmg_rxn_16773

>  <mol_properties>  (7) 
{"1": {"label": "*0", "atom_type": "Cd"}, "2": {"label": "*1", "atom_type": "N3d"}, "7": {"label": "*2", "atom_type": "H0"}, "8": {"label": "*3", "atom_type": "Cs"}, "9": {"label": "*4", "atom_type": "Cs"}}

>  <type>  (7) 
unop_3

>  <geom_source>  (7) 
Heuristics

$$$$

     RDKit          3D

 17 15  0  0  0  0  0  0  0  0999 V2000
   -0.1414   -0.8745   -3.4771 C   0  0  0  0  0  0  0  0  0  0  0  0
   -0.1414   -0.8745   -1.9824 C   0  0  0  0  0  0  0  0  0  0  0  0
   -0.1414    0.2264   -1.3108 N   0  0  0  0  0  0  0  0  0  0  0  0
    0.7459   -1.4056   -3.8308 H   0  0  0  0  0  0  0  0  0  0  0  0
   -1.0398   -1.3575   -3.8690 H   0  0  0  0  0  0  0  0  0  0  0  0
   -0.0950    0.1586   -3.8308 H   0  0  0  0  0  0  0  0  0  0  0  0
   -0.1414   -1.8523   -1.4721 H   0  0  0  0  0  0  0  0  0  0  0  0
   -0.1414   -0.0172   -0.1031 H   0  0  0  0  0  0  0  0  0  0  0  0
   -0.1414   -0.2769    1.1846 C   0  0  0  0  0  3  0  0  0  0  0  0
    0.5717    0.8305    1.9418 C   0  0  0  0  0  0  0  0  0  0  0  0
    0.0573    0.9555    3.3000 N   0  0  0  0  0  0  0  0  0  0  0  0
   -1.2160   -0.0783    1.1107 H   0  0  0  0  0  0  0  0  0  0  0  0
   -0.0047   -1.2456    1.6769 H   0  0  0  0  0  0  0  0  0  0  0  0
    0.4414    1.7830    1.4181 H   0  0  0  0  0  0  0  0  0  0  0  0
    1.6458    0.6223    1.9811 H   0  0  0  0  0  0  0  0  0  0  0  0
   -0.9454    1.1373    3.2700 H   0  0  0  0  0  0  0  0  0  0  0  0
    0.1648    0.0674    3.7890 H   0  0  0  0  0  0  0  0  0  0  0  0
  1  2  1  0
  1  4  1  0
  1  5  1  0
  1  6  1  0
  2  3  2  3
  2  7  1  0
  3  8  1  0
  9 10  1  0
  9 12  1  0
  9 13  1  0
 10 11  1  0
 10 14  1  0
 10 15  1  0
 11 16  1  0
 11 17  1  0
M  RAD  1   9   2
M  END
>  <reaction>  (8) 
rmg_rxn_16773

>  <mol_properties>  (8) 
{"1": {"label": "*0", "atom_type": "Cd"}, "2": {"label": "*1", "atom_type": "N3d"}, "7": {"label": "*2", "atom_type": "H0"}, "8": {"label": "*3", "atom_type": "Cs"}, "9": {"label": "*4", "atom_type": "Cs"}}

>  <type>  (8) 
unop_4

>  <geom_source>  (8) 
Heuristics

$$$$

     RDKit          3D

 17 15  0  0  0  0  0  0  0  0999 V2000
    0.4994   -0.2674   -3.3470 C   0  0  0  0  0  0  0  0  0  0  0  0
    0.4994   -0.2674   -1.8523 C   0  0  0  0  0  0  0  0  0  0  0  0
    0.4994    0.8336   -1.1807 N   0  0  0  0  0  0  0  0  0  0  0  0
    1.3867   -0.7984   -3.7007 H   0  0  0  0  0  0  0  0  0  0  0  0
   -0.3990   -0.7503   -3.7389 H   0  0  0  0  0  0  0  0  0  0  0  0
    0.5458    0.7657   -3.7007 H   0  0  0  0  0  0  0  0  0  0  0  0
    0.4994   -1.2451   -1.3420 H   0  0  0  0  0  0  0  0  0  0  0  0
    0.4994    0.5900    0.0270 H   0  0  0  0  0  0  0  0  0  0  0  0
    0.4994    0.3303    1.3147 C   0  0  0  0  0  3  0  0  0  0  0  0
   -0.7358   -0.4722    1.6867 C   0  0  0  0  0  0  0  0  0  0  0  0
   -1.1753   -0.1645    3.0421 N   0  0  0  0  0  0  0  0  0  0  0  0
    1.3342    0.1081    1.9879 H   0  0  0  0  0  0  0  0  0  0  0  0
    0.3009    1.4065    1.3580 H   0  0  0  0  0  0  0  0  0  0  0  0
   -0.5201   -1.5430    1.6123 H   0  0  0  0  0  0  0  0  0  0  0  0
   -1.5476   -0.2519    0.9860 H   0  0  0  0  0  0  0  0  0  0  0  0
   -0.4188   -0.3561    3.6981 H   0  0  0  0  0  0  0  0  0  0  0  0
   -1.3659    0.8339    3.1208 H   0  0  0  0  0  0  0  0  0  0  0  0
  1  2  1  0
  1  4  1  0
  1  5  1  0
  1  6  1  0
  2  3  2  3
  2  7  1  0
  3  8  1  0
  9 10  1  0
  9 12  1  0
  9 13  1  0
 10 11  1  0
 10 14  1  0
 10 15  1  0
 11 16  1  0
 11 17  1  0
M  RAD  1   9   2
M  END
>  <reaction>  (9) 
rmg_rxn_16773

>  <mol_properties>  (9) 
{"1": {"label": "*0", "atom_type": "Cd"}, "2": {"label": "*1", "atom_type": "N3d"}, "7": {"label": "*2", "atom_type": "H0"}, "8": {"label": "*3", "atom_type": "Cs"}, "9": {"label": "*4", "atom_type": "Cs"}}

>  <type>  (9) 
unop_5

>  <geom_source>  (9) 
Heuristics

$$$$

     RDKit          3D

 17 15  0  0  0  0  0  0  0  0999 V2000
   -0.0004   -0.8631   -3.5043 C   0  0  0  0  0  0  0  0  0  0  0  0
   -0.0004   -0.8631   -2.0096 C   0  0  0  0  0  0  0  0  0  0  0  0
   -0.0004    0.2378   -1.3380 N   0  0  0  0  0  0  0  0  0  0  0  0
    0.8870   -1.3942   -3.8580 H   0  0  0  0  0  0  0  0  0  0  0  0
   -0.8988   -1.3460   -3.8962 H   0  0  0  0  0  0  0  0  0  0  0  0
    0.0461    0.1700   -3.8580 H   0  0  0  0  0  0  0  0  0  0  0  0
   -0.0004   -1.8408   -1.4994 H   0  0  0  0  0  0  0  0  0  0  0  0
   -0.0004   -0.0057   -0.1304 H   0  0  0  0  0  0  0  0  0  0  0  0
   -0.0004   -0.2654    1.1574 C   0  0  0  0  0  3  0  0  0  0  0  0
   -0.0004    1.0292    1.9524 C   0  0  0  0  0  0  0  0  0  0  0  0
   -0.0004    0.7667    3.3862 N   0  0  0  0  0  0  0  0  0  0  0  0
   -0.8878   -0.8674    1.3799 H   0  0  0  0  0  0  0  0  0  0  0  0
    0.8870   -0.8674    1.3799 H   0  0  0  0  0  0  0  0  0  0  0  0
   -0.8829    1.6239    1.6950 H   0  0  0  0  0  0  0  0  0  0  0  0
    0.8820    1.6239    1.6950 H   0  0  0  0  0  0  0  0  0  0  0  0
   -0.8138    0.2026    3.6301 H   0  0  0  0  0  0  0  0  0  0  0  0
    0.8130    0.2026    3.6301 H   0  0  0  0  0  0  0  0  0  0  0  0
  1  2  1  0
  1  4  1  0
  1  5  1  0
  1  6  1  0
  2  3  2  3
  2  7  1  0
  3  8  1  0
  9 10  1  0
  9 12  1  0
  9 13  1  0
 10 11  1  0
 10 14  1  0
 10 15  1  0
 11 16  1  0
 11 17  1  0
M  RAD  1   9   2
M  END
>  <reaction>  (10) 
rmg_rxn_16773

>  <mol_properties>  (10) 
{"1": {"label": "*0", "atom_type": "Cd"}, "2": {"label": "*1", "atom_type": "N3d"}, "7": {"label": "*2", "atom_type": "H0"}, "8": {"label": "*3", "atom_type": "Cs"}, "9": {"label": "*4", "atom_type": "Cs"}}

>  <type>  (10) 
unop_6

>  <geom_source>  (10) 
Heuristics

$$$$

     RDKit          3D

 17 15  0  0  0  0  0  0  0  0999 V2000
    0.5043   -0.5600   -3.3874 C   0  0  0  0  0  0  0  0  0  0  0  0
    0.5043   -0.5600   -1.8927 C   0  0  0  0  0  0  0  0  0  0  0  0
    0.5043    0.5410   -1.2211 N   0  0  0  0  0  0  0  0  0  0  0  0
    1.3917   -1.0910   -3.7411 H   0  0  0  0  0  0  0  0  0  0  0  0
   -0.3940   -1.0429   -3.7793 H   0  0  0  0  0  0  0  0  0  0  0  0
    0.5508    0.4731   -3.7411 H   0  0  0  0  0  0  0  0  0  0  0  0
    0.5043   -1.5377   -1.3824 H   0  0  0  0  0  0  0  0  0  0  0  0
    0.5043    0.2974   -0.0134 H   0  0  0  0  0  0  0  0  0  0  0  0
    0.5043    0.0377    1.2743 C   0  0  0  0  0  3  0  0  0  0  0  0
   -0.9219   -0.0658    1.7873 C   0  0  0  0  0  0  0  0  0  0  0  0
   -1.0527    0.5416    3.1060 N   0  0  0  0  0  0  0  0  0  0  0  0
    1.2042   -0.4759    1.9421 H   0  0  0  0  0  0  0  0  0  0  0  0
    0.8191    1.0829    1.1859 H   0  0  0  0  0  0  0  0  0  0  0  0
   -1.2217   -1.1173    1.8437 H   0  0  0  0  0  0  0  0  0  0  0  0
   -1.6046    0.4329    1.0917 H   0  0  0  0  0  0  0  0  0  0  0  0
   -0.4101    0.0893    3.7555 H   0  0  0  0  0  0  0  0  0  0  0  0
   -0.7630    1.5181    3.0624 H   0  0  0  0  0  0  0  0  0  0  0  0
  1  2  1  0
  1  4  1  0
  1  5  1  0
  1  6  1  0
  2  3  2  3
  2  7  1  0
  3  8  1  0
  9 10  1  0
  9 12  1  0
  9 13  1  0
 10 11  1  0
 10 14  1  0
 10 15  1  0
 11 16  1  0
 11 17  1  0
M  RAD  1   9   2
M  END
>  <reaction>  (11) 
rmg_rxn_16773

>  <mol_properties>  (11) 
{"1": {"label": "*0", "atom_type": "Cd"}, "2": {"label": "*1", "atom_type": "N3d"}, "7": {"label": "*2", "atom_type": "H0"}, "8": {"label": "*3", "atom_type": "Cs"}, "9": {"label": "*4", "atom_type": "Cs"}}

>  <type>  (11) 
unop_7

>  <geom_source>  (11) 
Heuristics

$$$$

     RDKit          3D

 17 15  0  0  0  0  0  0  0  0999 V2000
    0.3543   -0.7865   -3.4326 C   0  0  0  0  0  0  0  0  0  0  0  0
    0.3543   -0.7865   -1.9378 C   0  0  0  0  0  0  0  0  0  0  0  0
    0.3543    0.3144   -1.2662 N   0  0  0  0  0  0  0  0  0  0  0  0
    1.2417   -1.3176   -3.7863 H   0  0  0  0  0  0  0  0  0  0  0  0
   -0.5440   -1.2695   -3.8245 H   0  0  0  0  0  0  0  0  0  0  0  0
    0.4008    0.2466   -3.7863 H   0  0  0  0  0  0  0  0  0  0  0  0
    0.3543   -1.7643   -1.4276 H   0  0  0  0  0  0  0  0  0  0  0  0
    0.3543    0.0709   -0.0586 H   0  0  0  0  0  0  0  0  0  0  0  0
    0.3543   -0.1889    1.2291 C   0  0  0  0  0  3  0  0  0  0  0  0
   -0.8808    0.4067    1.8832 C   0  0  0  0  0  0  0  0  0  0  0  0
   -0.5651    0.9696    3.1902 N   0  0  0  0  0  0  0  0  0  0  0  0
    0.7766   -0.9945    1.8392 H   0  0  0  0  0  0  0  0  0  0  0  0
    1.1292    0.5706    1.0800 H   0  0  0  0  0  0  0  0  0  0  0  0
   -1.6490   -0.3647    1.9991 H   0  0  0  0  0  0  0  0  0  0  0  0
   -1.2983    1.1916    1.2442 H   0  0  0  0  0  0  0  0  0  0  0  0
   -0.1644    0.2458    3.7859 H   0  0  0  0  0  0  0  0  0  0  0  0
    0.1589    1.6803    3.0900 H   0  0  0  0  0  0  0  0  0  0  0  0
  1  2  1  0
  1  4  1  0
  1  5  1  0
  1  6  1  0
  2  3  2  3
  2  7  1  0
  3  8  1  0
  9 10  1  0
  9 12  1  0
  9 13  1  0
 10 11  1  0
 10 14  1  0
 10 15  1  0
 11 16  1  0
 11 17  1  0
M  RAD  1   9   2
M  END
>  <reaction>  (12) 
rmg_rxn_16773

>  <mol_properties>  (12) 
{"1": {"label": "*0", "atom_type": "Cd"}, "2": {"label": "*1", "atom_type": "N3d"}, "7": {"label": "*2", "atom_type": "H0"}, "8": {"label": "*3", "atom_type": "Cs"}, "9": {"label": "*4", "atom_type": "Cs"}}

>  <type>  (12) 
unop_8

>  <geom_source>  (12) 
Heuristics

$$$$

     RDKit          3D

 17 15  0  0  0  0  0  0  0  0999 V2000
   -0.5052   -0.5600   -3.3874 C   0  0  0  0  0  0  0  0  0  0  0  0
   -0.5052   -0.5600   -1.8927 C   0  0  0  0  0  0  0  0  0  0  0  0
   -0.5052    0.5410   -1.2211 N   0  0  0  0  0  0  0  0  0  0  0  0
    0.3822   -1.0910   -3.7411 H   0  0  0  0  0  0  0  0  0  0  0  0
   -1.4035   -1.0429   -3.7793 H   0  0  0  0  0  0  0  0  0  0  0  0
   -0.4587    0.4731   -3.7411 H   0  0  0  0  0  0  0  0  0  0  0  0
   -0.5052   -1.5377   -1.3824 H   0  0  0  0  0  0  0  0  0  0  0  0
   -0.5052    0.2974   -0.0134 H   0  0  0  0  0  0  0  0  0  0  0  0
   -0.5052    0.0377    1.2743 C   0  0  0  0  0  3  0  0  0  0  0  0
    0.9211   -0.0658    1.7873 C   0  0  0  0  0  0  0  0  0  0  0  0
    1.0518    0.5416    3.1060 N   0  0  0  0  0  0  0  0  0  0  0  0
   -0.8199    1.0830    1.1859 H   0  0  0  0  0  0  0  0  0  0  0  0
   -1.2050   -0.4759    1.9421 H   0  0  0  0  0  0  0  0  0  0  0  0
    1.6038    0.4329    1.0918 H   0  0  0  0  0  0  0  0  0  0  0  0
    1.2209   -1.1172    1.8437 H   0  0  0  0  0  0  0  0  0  0  0  0
    0.7622    1.5181    3.0624 H   0  0  0  0  0  0  0  0  0  0  0  0
    0.4092    0.0892    3.7555 H   0  0  0  0  0  0  0  0  0  0  0  0
  1  2  1  0
  1  4  1  0
  1  5  1  0
  1  6  1  0
  2  3  2  3
  2  7  1  0
  3  8  1  0
  9 10  1  0
  9 12  1  0
  9 13  1  0
 10 11  1  0
 10 14  1  0
 10 15  1  0
 11 16  1  0
 11 17  1  0
M  RAD  1   9   2
M  END
>  <reaction>  (13) 
rmg_rxn_16773

>  <mol_properties>  (13) 
{"1": {"label": "*0", "atom_type": "Cd"}, "2": {"label": "*1", "atom_type": "N3d"}, "7": {"label": "*2", "atom_type": "H0"}, "8": {"label": "*3", "atom_type": "Cs"}, "9": {"label": "*4", "atom_type": "Cs"}}

>  <type>  (13) 
unop_9

>  <geom_source>  (13) 
Heuristics

$$$$

     RDKit          3D

 17 15  0  0  0  0  0  0  0  0999 V2000
   -3.2986   -0.5315    0.0006 C   0  0  0  0  0  0  0  0  0  0  0  0
   -1.8221   -0.2682   -0.0009 C   0  0  0  0  0  0  0  0  0  0  0  0
   -1.3493    0.8767    0.0010 N   0  0  0  0  0  0  0  0  0  0  0  0
   -3.8491    0.4048    0.0041 H   0  0  0  0  0  0  0  0  0  0  0  0
   -3.5618   -1.1103   -0.8833 H   0  0  0  0  0  0  0  0  0  0  0  0
   -3.5591   -1.1155    0.8817 H   0  0  0  0  0  0  0  0  0  0  0  0
   -1.2120   -1.1839   -0.0038 H   0  0  0  0  0  0  0  0  0  0  0  0
   -0.0871    0.9402   -0.0001 H   0  0  0  0  0  0  0  0  0  0  0  0
    1.2047    0.9550   -0.0009 C   0  0  0  0  0  3  0  0  0  0  0  0
    1.7272   -0.4620   -0.0014 C   0  0  0  0  0  0  0  0  0  0  0  0
    3.1863   -0.5298    0.0014 N   0  0  0  0  0  0  0  0  0  0  0  0
    1.4732    1.5075   -0.8965 H   0  0  0  0  0  0  0  0  0  0  0  0
    1.4740    1.5071    0.8947 H   0  0  0  0  0  0  0  0  0  0  0  0
    1.3828   -0.9978   -0.8904 H   0  0  0  0  0  0  0  0  0  0  0  0
    1.3795   -0.9996    0.8853 H   0  0  0  0  0  0  0  0  0  0  0  0
    3.5592   -0.0578   -0.8164 H   0  0  0  0  0  0  0  0  0  0  0  0
    3.5559   -0.0604    0.8222 H   0  0  0  0  0  0  0  0  0  0  0  0
  1  2  1  0
  1  4  1  0
  1  5  1  0
  1  6  1  0
  2  3  2  3
  2  7  1  0
  3  8  1  0
  9 10  1  0
  9 12  1  0
  9 13  1  0
 10 11  1  0
 10 14  1  0
 10 15  1  0
 11 16  1  0
 11 17  1  0
M  RAD  1   9   2
M  END
>  <reaction>  (14) 
rmg_rxn_16773

>  <mol_properties>  (14) 
{"1": {"label": "*0", "atom_type": "Cd"}, "2": {"label": "*1", "atom_type": "N3d"}, "7": {"label": "*2", "atom_type": "H0"}, "8": {"label": "*3", "atom_type": "Cs"}, "9": {"label": "*4", "atom_type": "Cs"}}

>  <type>  (14) 
unop_10

>  <geom_source>  (14) 
Heuristics

$$$$

     RDKit          3D

 17 15  0  0  0  0  0  0  0  0999 V2000
    0.3143   -0.0149   -3.3209 C   0  0  0  0  0  0  0  0  0  0  0  0
    0.3143   -0.0149   -1.8262 C   0  0  0  0  0  0  0  0  0  0  0  0
    0.3143    1.0861   -1.1546 N   0  0  0  0  0  0  0  0  0  0  0  0
    1.2017   -0.5459   -3.6746 H   0  0  0  0  0  0  0  0  0  0  0  0
   -0.5840   -0.4978   -3.7128 H   0  0  0  0  0  0  0  0  0  0  0  0
    0.3608    1.0182   -3.6746 H   0  0  0  0  0  0  0  0  0  0  0  0
    0.3143   -0.9926   -1.3159 H   0  0  0  0  0  0  0  0  0  0  0  0
    0.3143    0.8425    0.0531 H   0  0  0  0  0  0  0  0  0  0  0  0
    0.3143    0.5828    1.3408 C   0  0  0  0  0  3  0  0  0  0  0  0
   -0.3988   -0.7315    1.6096 C   0  0  0  0  0  0  0  0  0  0  0  0
   -0.7888   -0.8423    3.0098 N   0  0  0  0  0  0  0  0  0  0  0  0
    1.2254    0.6698    1.9422 H   0  0  0  0  0  0  0  0  0  0  0  0
   -0.3306    1.4379    1.5696 H   0  0  0  0  0  0  0  0  0  0  0  0
    0.2559   -1.5698    1.3506 H   0  0  0  0  0  0  0  0  0  0  0  0
   -1.2914   -0.8060    0.9801 H   0  0  0  0  0  0  0  0  0  0  0  0
    0.0372   -0.7612    3.6018 H   0  0  0  0  0  0  0  0  0  0  0  0
   -1.3890   -0.0572    3.2602 H   0  0  0  0  0  0  0  0  0  0  0  0
  1  2  1  0
  1  4  1  0
  1  5  1  0
  1  6  1  0
  2  3  2  3
  2  7  1  0
  3  8  1  0
  9 10  1  0
  9 12  1  0
  9 13  1  0
 10 11  1  0
 10 14  1  0
 10 15  1  0
 11 16  1  0
 11 17  1  0
M  RAD  1   9   2
M  END
>  <reaction>  (15) 
rmg_rxn_16773

>  <mol_properties>  (15) 
{"1": {"label": "*0", "atom_type": "Cd"}, "2": {"label": "*1", "atom_type": "N3d"}, "7": {"label": "*2", "atom_type": "H0"}, "8": {"label": "*3", "atom_type": "Cs"}, "9": {"label": "*4", "atom_type": "Cs"}}

>  <type>  (15) 
unop_11

>  <geom_source>  (15) 
Heuristics

$$$$

     RDKit          3D

 17 15  0  0  0  0  0  0  0  0999 V2000
   -0.5002   -0.2673   -3.3470 C   0  0  0  0  0  0  0  0  0  0  0  0
   -0.5002   -0.2673   -1.8523 C   0  0  0  0  0  0  0  0  0  0  0  0
   -0.5002    0.8336   -1.1807 N   0  0  0  0  0  0  0  0  0  0  0  0
    0.3872   -0.7984   -3.7007 H   0  0  0  0  0  0  0  0  0  0  0  0
   -1.3985   -0.7503   -3.7389 H   0  0  0  0  0  0  0  0  0  0  0  0
   -0.4537    0.7657   -3.7007 H   0  0  0  0  0  0  0  0  0  0  0  0
   -0.5002   -1.2451   -1.3420 H   0  0  0  0  0  0  0  0  0  0  0  0
   -0.5002    0.5900    0.0270 H   0  0  0  0  0  0  0  0  0  0  0  0
   -0.5002    0.3303    1.3147 C   0  0  0  0  0  3  0  0  0  0  0  0
    0.7350   -0.4722    1.6867 C   0  0  0  0  0  0  0  0  0  0  0  0
    1.1744   -0.1645    3.0421 N   0  0  0  0  0  0  0  0  0  0  0  0
   -0.3017    1.4065    1.3580 H   0  0  0  0  0  0  0  0  0  0  0  0
   -1.3350    0.1081    1.9879 H   0  0  0  0  0  0  0  0  0  0  0  0
    1.5468   -0.2519    0.9860 H   0  0  0  0  0  0  0  0  0  0  0  0
    0.5193   -1.5430    1.6123 H   0  0  0  0  0  0  0  0  0  0  0  0
    1.3651    0.8339    3.1209 H   0  0  0  0  0  0  0  0  0  0  0  0
    0.4180   -0.3562    3.6981 H   0  0  0  0  0  0  0  0  0  0  0  0
  1  2  1  0
  1  4  1  0
  1  5  1  0
  1  6  1  0
  2  3  2  3
  2  7  1  0
  3  8  1  0
  9 10  1  0
  9 12  1  0
  9 13  1  0
 10 11  1  0
 10 14  1  0
 10 15  1  0
 11 16  1  0
 11 17  1  0
M  RAD  1   9   2
M  END
>  <reaction>  (16) 
rmg_rxn_16773

>  <mol_properties>  (16) 
{"1": {"label": "*0", "atom_type": "Cd"}, "2": {"label": "*1", "atom_type": "N3d"}, "7": {"label": "*2", "atom_type": "H0"}, "8": {"label": "*3", "atom_type": "Cs"}, "9": {"label": "*4", "atom_type": "Cs"}}

>  <type>  (16) 
unop_12

>  <geom_source>  (16) 
Heuristics

$$$$

     RDKit          3D

 17 15  0  0  0  0  0  0  0  0999 V2000
    0.1406   -0.8745   -3.4771 C   0  0  0  0  0  0  0  0  0  0  0  0
    0.1406   -0.8745   -1.9824 C   0  0  0  0  0  0  0  0  0  0  0  0
    0.1406    0.2264   -1.3108 N   0  0  0  0  0  0  0  0  0  0  0  0
    1.0280   -1.4056   -3.8308 H   0  0  0  0  0  0  0  0  0  0  0  0
   -0.7577   -1.3575   -3.8690 H   0  0  0  0  0  0  0  0  0  0  0  0
    0.1871    0.1586   -3.8308 H   0  0  0  0  0  0  0  0  0  0  0  0
    0.1406   -1.8523   -1.4721 H   0  0  0  0  0  0  0  0  0  0  0  0
    0.1406   -0.0172   -0.1031 H   0  0  0  0  0  0  0  0  0  0  0  0
    0.1406   -0.2769    1.1846 C   0  0  0  0  0  3  0  0  0  0  0  0
   -0.5725    0.8305    1.9418 C   0  0  0  0  0  0  0  0  0  0  0  0
   -0.0581    0.9555    3.3000 N   0  0  0  0  0  0  0  0  0  0  0  0
    0.0039   -1.2456    1.6769 H   0  0  0  0  0  0  0  0  0  0  0  0
    1.2151   -0.0783    1.1107 H   0  0  0  0  0  0  0  0  0  0  0  0
   -1.6466    0.6223    1.9812 H   0  0  0  0  0  0  0  0  0  0  0  0
   -0.4422    1.7830    1.4181 H   0  0  0  0  0  0  0  0  0  0  0  0
   -0.1656    0.0674    3.7890 H   0  0  0  0  0  0  0  0  0  0  0  0
    0.9446    1.1373    3.2700 H   0  0  0  0  0  0  0  0  0  0  0  0
  1  2  1  0
  1  4  1  0
  1  5  1  0
  1  6  1  0
  2  3  2  3
  2  7  1  0
  3  8  1  0
  9 10  1  0
  9 12  1  0
  9 13  1  0
 10 11  1  0
 10 14  1  0
 10 15  1  0
 11 16  1  0
 11 17  1  0
M  RAD  1   9   2
M  END
>  <reaction>  (17) 
rmg_rxn_16773

>  <mol_properties>  (17) 
{"1": {"label": "*0", "atom_type": "Cd"}, "2": {"label": "*1", "atom_type": "N3d"}, "7": {"label": "*2", "atom_type": "H0"}, "8": {"label": "*3", "atom_type": "Cs"}, "9": {"label": "*4", "atom_type": "Cs"}}

>  <type>  (17) 
unop_13

>  <geom_source>  (17) 
Heuristics

$$$$

     RDKit          3D

 17 15  0  0  0  0  0  0  0  0999 V2000
   -0.0004    0.0871   -3.3127 C   0  0  0  0  0  0  0  0  0  0  0  0
   -0.0004    0.0871   -1.8180 C   0  0  0  0  0  0  0  0  0  0  0  0
   -0.0004    1.1880   -1.1464 N   0  0  0  0  0  0  0  0  0  0  0  0
    0.8870   -0.4440   -3.6664 H   0  0  0  0  0  0  0  0  0  0  0  0
   -0.8988   -0.3958   -3.7046 H   0  0  0  0  0  0  0  0  0  0  0  0
    0.0461    1.1202   -3.6664 H   0  0  0  0  0  0  0  0  0  0  0  0
   -0.0004   -0.8906   -1.3077 H   0  0  0  0  0  0  0  0  0  0  0  0
   -0.0004    0.9445    0.0613 H   0  0  0  0  0  0  0  0  0  0  0  0
   -0.0004    0.6848    1.3490 C   0  0  0  0  0  3  0  0  0  0  0  0
   -0.0004   -0.8168    1.5801 C   0  0  0  0  0  0  0  0  0  0  0  0
   -0.0004   -1.1306    3.0035 N   0  0  0  0  0  0  0  0  0  0  0  0
    0.8870    1.1534    1.7875 H   0  0  0  0  0  0  0  0  0  0  0  0
   -0.8878    1.1534    1.7875 H   0  0  0  0  0  0  0  0  0  0  0  0
    0.8820   -1.2652    1.1123 H   0  0  0  0  0  0  0  0  0  0  0  0
   -0.8829   -1.2652    1.1123 H   0  0  0  0  0  0  0  0  0  0  0  0
    0.8130   -0.7051    3.4470 H   0  0  0  0  0  0  0  0  0  0  0  0
   -0.8138   -0.7051    3.4470 H   0  0  0  0  0  0  0  0  0  0  0  0
  1  2  1  0
  1  4  1  0
  1  5  1  0
  1  6  1  0
  2  3  2  3
  2  7  1  0
  3  8  1  0
  9 10  1  0
  9 12  1  0
  9 13  1  0
 10 11  1  0
 10 14  1  0
 10 15  1  0
 11 16  1  0
 11 17  1  0
M  RAD  1   9   2
M  END
>  <reaction>  (18) 
rmg_rxn_16773

>  <mol_properties>  (18) 
{"1": {"label": "*0", "atom_type": "Cd"}, "2": {"label": "*1", "atom_type": "N3d"}, "7": {"label": "*2", "atom_type": "H0"}, "8": {"label": "*3", "atom_type": "Cs"}, "9": {"label": "*4", "atom_type": "Cs"}}

>  <type>  (18) 
unop_14

>  <geom_source>  (18) 
Heuristics

$$$$

     RDKit          3D

 17 15  0  0  0  0  0  0  0  0999 V2000
   -0.3151   -0.0149   -3.3209 C   0  0  0  0  0  0  0  0  0  0  0  0
   -0.3151   -0.0149   -1.8262 C   0  0  0  0  0  0  0  0  0  0  0  0
   -0.3151    1.0861   -1.1546 N   0  0  0  0  0  0  0  0  0  0  0  0
    0.5723   -0.5459   -3.6746 H   0  0  0  0  0  0  0  0  0  0  0  0
   -1.2135   -0.4978   -3.7128 H   0  0  0  0  0  0  0  0  0  0  0  0
   -0.2686    1.0182   -3.6746 H   0  0  0  0  0  0  0  0  0  0  0  0
   -0.3151   -0.9926   -1.3159 H   0  0  0  0  0  0  0  0  0  0  0  0
   -0.3151    0.8425    0.0531 H   0  0  0  0  0  0  0  0  0  0  0  0
   -0.3151    0.5828    1.3408 C   0  0  0  0  0  3  0  0  0  0  0  0
    0.3980   -0.7315    1.6096 C   0  0  0  0  0  0  0  0  0  0  0  0
    0.7880   -0.8423    3.0098 N   0  0  0  0  0  0  0  0  0  0  0  0
    0.3298    1.4379    1.5696 H   0  0  0  0  0  0  0  0  0  0  0  0
   -1.2263    0.6698    1.9422 H   0  0  0  0  0  0  0  0  0  0  0  0
    1.2906   -0.8060    0.9801 H   0  0  0  0  0  0  0  0  0  0  0  0
   -0.2567   -1.5698    1.3506 H   0  0  0  0  0  0  0  0  0  0  0  0
    1.3882   -0.0572    3.2603 H   0  0  0  0  0  0  0  0  0  0  0  0
   -0.0381   -0.7612    3.6018 H   0  0  0  0  0  0  0  0  0  0  0  0
  1  2  1  0
  1  4  1  0
  1  5  1  0
  1  6  1  0
  2  3  2  3
  2  7  1  0
  3  8  1  0
  9 10  1  0
  9 12  1  0
  9 13  1  0
 10 11  1  0
 10 14  1  0
 10 15  1  0
 11 16  1  0
 11 17  1  0
M  RAD  1   9   2
M  END
>  <reaction>  (19) 
rmg_rxn_16773

>  <mol_properties>  (19) 
{"1": {"label": "*0", "atom_type": "Cd"}, "2": {"label": "*1", "atom_type": "N3d"}, "7": {"label": "*2", "atom_type": "H0"}, "8": {"label": "*3", "atom_type": "Cs"}, "9": {"label": "*4", "atom_type": "Cs"}}

>  <type>  (19) 
unop_15

>  <geom_source>  (19) 
gaussian_log

$$$$
