
     RDKit          3D

  8  7  0  0  0  0  0  0  0  0999 V2000
    0.9548    0.1194   -0.0790 C   0  0  0  0  0  0  0  0  0  0  0  0
   -0.4838   -0.2649    0.0193 C   0  0  0  0  0  0  0  0  0  0  0  0
   -0.8933   -1.1081    0.8664 N   0  0  0  0  0  0  0  0  0  0  0  0
    1.3360   -0.0983   -1.0800 H   0  0  0  0  0  0  0  0  0  0  0  0
    1.0698    1.1948    0.0786 H   0  0  0  0  0  0  0  0  0  0  0  0
    1.5426   -0.4219    0.6602 H   0  0  0  0  0  0  0  0  0  0  0  0
   -1.1575    0.2324   -0.6905 H   0  0  0  0  0  0  0  0  0  0  0  0
   -1.8989   -1.2455    0.7886 H   0  0  0  0  0  0  0  0  0  0  0  0
  1  2  1  0
  1  4  1  0
  1  5  1  0
  1  6  1  0
  2  3  2  3
  2  7  1  0
  3  8  1  0
M  END
>  <reaction>  (1) 
rmg_rxn_16461

>  <mol_properties>  (1) 
{"2": {"label": "donator", "atom_type": "N3d"}, "7": {"label": "d_hydrogen", "atom_type": "H0"}}

>  <type>  (1) 
r1h

$$$$

     RDKit          3D

 13 12  0  0  0  0  0  0  0  0999 V2000
    2.0654   -0.2739   -0.0844 C   0  0  0  0  0  3  0  0  0  0  0  0
    0.6326   -0.4110   -0.4406 C   0  0  0  0  0  0  0  0  0  0  0  0
   -0.3055    0.4151    0.4359 C   0  0  0  0  0  0  0  0  0  0  0  0
   -1.7714    0.2357    0.0671 C   0  0  0  0  0  0  0  0  0  0  0  0
    2.3610    0.0676    0.8995 H   0  0  0  0  0  0  0  0  0  0  0  0
    2.8408   -0.6127   -0.7582 H   0  0  0  0  0  0  0  0  0  0  0  0
    0.3313   -1.4695   -0.3768 H   0  0  0  0  0  0  0  0  0  0  0  0
    0.4826   -0.1432   -1.4940 H   0  0  0  0  0  0  0  0  0  0  0  0
   -0.1518    0.1351    1.4826 H   0  0  0  0  0  0  0  0  0  0  0  0
   -0.0303    1.4705    0.3565 H   0  0  0  0  0  0  0  0  0  0  0  0
   -2.0768   -0.8084    0.1692 H   0  0  0  0  0  0  0  0  0  0  0  0
   -1.9546    0.5339   -0.9679 H   0  0  0  0  0  0  0  0  0  0  0  0
   -2.4194    0.8370    0.7066 H   0  0  0  0  0  0  0  0  0  0  0  0
  1  2  1  0
  1  5  1  0
  1  6  1  0
  2  3  1  0
  2  7  1  0
  2  8  1  0
  3  4  1  0
  3  9  1  0
  3 10  1  0
  4 11  1  0
  4 12  1  0
  4 13  1  0
M  RAD  1   1   2
M  END
>  <reaction>  (2) 
rmg_rxn_16461

>  <mol_properties>  (2) 
{"0": {"label": "acceptor", "atom_type": "Cs"}}

>  <type>  (2) 
r2

$$$$

     RDKit          3D

 14 13  0  0  0  0  0  0  0  0999 V2000
    1.8106   -0.5953    0.5577 C   0  0  0  0  0  0  0  0  0  0  0  0
    0.5197    0.2064    0.6554 C   0  0  0  0  0  0  0  0  0  0  0  0
   -0.5206   -0.2080   -0.3788 C   0  0  0  0  0  0  0  0  0  0  0  0
   -1.8114    0.5937   -0.2812 C   0  0  0  0  0  0  0  0  0  0  0  0
    2.2725   -0.4752   -0.4251 H   0  0  0  0  0  0  0  0  0  0  0  0
    1.6214   -1.6612    0.7052 H   0  0  0  0  0  0  0  0  0  0  0  0
    2.5364   -0.2784    1.3084 H   0  0  0  0  0  0  0  0  0  0  0  0
    0.0930    0.0950    1.6574 H   0  0  0  0  0  0  0  0  0  0  0  0
    0.7393    1.2723    0.5354 H   0  0  0  0  0  0  0  0  0  0  0  0
   -0.7402   -1.2739   -0.2588 H   0  0  0  0  0  0  0  0  0  0  0  0
   -0.0938   -0.0965   -1.3808 H   0  0  0  0  0  0  0  0  0  0  0  0
   -1.6222    1.6596   -0.4287 H   0  0  0  0  0  0  0  0  0  0  0  0
   -2.2734    0.4736    0.7017 H   0  0  0  0  0  0  0  0  0  0  0  0
   -2.5373    0.2768   -1.0318 H   0  0  0  0  0  0  0  0  0  0  0  0
  1  2  1  0
  1  5  1  0
  1  6  1  0
  1  7  1  0
  2  3  1  0
  2  8  1  0
  2  9  1  0
  3  4  1  0
  3 10  1  0
  3 11  1  0
  4 12  1  0
  4 13  1  0
  4 14  1  0
M  END
>  <reaction>  (3) 
rmg_rxn_16461

>  <mol_properties>  (3) 
{"0": {"label": "a_hydrogen", "atom_type": "H0"}, "1": {"label": "acceptor", "atom_type": "Cs"}}

>  <type>  (3) 
r2h

$$$$

     RDKit          3D

 21 19  0  0  0  0  0  0  0  0999 V2000
   -0.6632    0.7174   -3.2463 C   0  0  0  0  0  0  0  0  0  0  0  0
   -0.6412    0.8118   -1.7513 C   0  0  0  0  0  0  0  0  0  0  0  0
    0.3125    1.3351   -1.1230 N   0  0  0  0  0  0  0  0  0  0  0  0
   -0.7409   -0.3285   -3.5529 H   0  0  0  0  0  0  0  0  0  0  0  0
   -1.5404    1.2364   -3.6399 H   0  0  0  0  0  0  0  0  0  0  0  0
    0.2382    1.1545   -3.6718 H   0  0  0  0  0  0  0  0  0  0  0  0
   -1.5145    0.3934   -1.2312 H   0  0  0  0  0  0  0  0  0  0  0  0
    0.0630    1.2608    0.0703 H   0  0  0  0  0  0  0  0  0  0  0  0
   -0.3857    1.0168    1.3511 C   0  0  0  0  0  3  0  0  0  0  0  0
   -0.3128   -0.4689    1.5637 C   0  0  0  0  0  0  0  0  0  0  0  0
    1.1032   -1.0267    1.4624 C   0  0  0  0  0  0  0  0  0  0  0  0
    1.1614   -2.5335    1.6708 C   0  0  0  0  0  0  0  0  0  0  0  0
    0.3190    1.6063    1.9363 H   0  0  0  0  0  0  0  0  0  0  0  0
   -1.3858    1.4465    1.3508 H   0  0  0  0  0  0  0  0  0  0  0  0
   -0.9566   -0.9787    0.8376 H   0  0  0  0  0  0  0  0  0  0  0  0
   -0.7284   -0.7193    2.5498 H   0  0  0  0  0  0  0  0  0  0  0  0
    1.5170   -0.7703    0.4834 H   0  0  0  0  0  0  0  0  0  0  0  0
    1.7358   -0.5270    2.2024 H   0  0  0  0  0  0  0  0  0  0  0  0
    0.5614   -3.0558    0.9216 H   0  0  0  0  0  0  0  0  0  0  0  0
    0.7751   -2.8102    2.6549 H   0  0  0  0  0  0  0  0  0  0  0  0
    2.1840   -2.9064    1.5968 H   0  0  0  0  0  0  0  0  0  0  0  0
  1  2  1  0
  1  4  1  0
  1  5  1  0
  1  6  1  0
  2  3  2  3
  2  7  1  0
  3  8  1  0
  9 10  1  0
  9 13  1  0
  9 14  1  0
 10 11  1  0
 10 15  1  0
 10 16  1  0
 11 12  1  0
 11 17  1  0
 11 18  1  0
 12 19  1  0
 12 20  1  0
 12 21  1  0
M  RAD  1   9   2
M  END
>  <reaction>  (4) 
rmg_rxn_16461

>  <mol_properties>  (4) 
{"1": {"label": "*0", "atom_type": "Cd"}, "2": {"label": "*1", "atom_type": "N3d"}, "7": {"label": "*2", "atom_type": "H0"}, "8": {"label": "*3", "atom_type": "Cs"}, "9": {"label": "*4", "atom_type": "Cs"}}

>  <type>  (4) 
ts

$$$$

     RDKit          3D

 21 19  0  0  0  0  0  0  0  0999 V2000
   -3.2208   -0.9856    0.1208 C   0  0  0  0  0  0  0  0  0  0  0  0
   -1.9569   -0.1919    0.2662 C   0  0  0  0  0  0  0  0  0  0  0  0
   -1.5997    0.6547   -0.5646 N   0  0  0  0  0  0  0  0  0  0  0  0
   -2.9789   -2.0470    0.0921 H   0  0  0  0  0  0  0  0  0  0  0  0
   -3.8616   -0.8044    0.9823 H   0  0  0  0  0  0  0  0  0  0  0  0
   -3.7411   -0.7029   -0.7898 H   0  0  0  0  0  0  0  0  0  0  0  0
   -1.3872   -0.4385    1.1758 H   0  0  0  0  0  0  0  0  0  0  0  0
   -0.5143    1.2331   -0.3041 H   0  0  0  0  0  0  0  0  0  0  0  0
    0.6059    1.7721    0.0425 C   0  0  0  0  0  3  0  0  0  0  0  0
    1.5134    0.6881    0.5590 C   0  0  0  0  0  0  0  0  0  0  0  0
    1.8280   -0.3615   -0.5058 C   0  0  0  0  0  0  0  0  0  0  0  0
    2.7264   -1.4678    0.0331 C   0  0  0  0  0  0  0  0  0  0  0  0
    0.9659    2.2371   -0.8681 H   0  0  0  0  0  0  0  0  0  0  0  0
    0.3438    2.5113    0.7917 H   0  0  0  0  0  0  0  0  0  0  0  0
    1.0552    0.2018    1.4259 H   0  0  0  0  0  0  0  0  0  0  0  0
    2.4547    1.1321    0.9080 H   0  0  0  0  0  0  0  0  0  0  0  0
    0.8927   -0.7930   -0.8691 H   0  0  0  0  0  0  0  0  0  0  0  0
    2.3167    0.1239   -1.3532 H   0  0  0  0  0  0  0  0  0  0  0  0
    2.9372   -2.2015   -0.7413 H   0  0  0  0  0  0  0  0  0  0  0  0
    2.2478   -1.9782    0.8668 H   0  0  0  0  0  0  0  0  0  0  0  0
    3.6717   -1.0571    0.3826 H   0  0  0  0  0  0  0  0  0  0  0  0
  1  2  1  0
  1  4  1  0
  1  5  1  0
  1  6  1  0
  2  3  2  3
  2  7  1  0
  3  8  1  0
  9 10  1  0
  9 13  1  0
  9 14  1  0
 10 11  1  0
 10 15  1  0
 10 16  1  0
 11 12  1  0
 11 17  1  0
 11 18  1  0
 12 19  1  0
 12 20  1  0
 12 21  1  0
M  RAD  1   9   2
M  END
>  <reaction>  (5) 
rmg_rxn_16461

>  <mol_properties>  (5) 
{"1": {"label": "*0", "atom_type": "Cd"}, "2": {"label": "*1", "atom_type": "N3d"}, "7": {"label": "*2", "atom_type": "H0"}, "8": {"label": "*3", "atom_type": "Cs"}, "9": {"label": "*4", "atom_type": "Cs"}}

>  <type>  (5) 
unop_1

>  <geom_source>  (5) 
crest_best.xyz

$$$$

     RDKit          3D

 21 19  0  0  0  0  0  0  0  0999 V2000
   -0.9003   -1.1585   -3.3324 C   0  0  0  0  0  0  0  0  0  0  0  0
   -0.9003   -1.1585   -1.8401 C   0  0  0  0  0  0  0  0  0  0  0  0
   -0.9003   -0.0858   -1.1724 N   0  0  0  0  0  0  0  0  0  0  0  0
   -0.0220   -1.6885   -3.7098 H   0  0  0  0  0  0  0  0  0  0  0  0
   -1.7785   -1.6885   -3.7098 H   0  0  0  0  0  0  0  0  0  0  0  0
   -0.9003   -0.1379   -3.7110 H   0  0  0  0  0  0  0  0  0  0  0  0
   -0.9003   -2.1482   -1.3655 H   0  0  0  0  0  0  0  0  0  0  0  0
   -0.9003   -0.3160    0.0272 H   0  0  0  0  0  0  0  0  0  0  0  0
   -0.9003   -0.5631    1.3148 C   0  0  0  0  0  3  0  0  0  0  0  0
    0.3309    0.0322    1.9844 C   0  0  0  0  0  0  0  0  0  0  0  0
    0.9810    1.1396    1.1631 C   0  0  0  0  0  0  0  0  0  0  0  0
    2.2122    1.7350    1.8327 C   0  0  0  0  0  0  0  0  0  0  0  0
   -1.6635    0.2009    1.1490 H   0  0  0  0  0  0  0  0  0  0  0  0
   -1.3449   -1.3521    1.9234 H   0  0  0  0  0  0  0  0  0  0  0  0
    1.0671   -0.7571    2.1678 H   0  0  0  0  0  0  0  0  0  0  0  0
    0.0587    0.4284    2.9680 H   0  0  0  0  0  0  0  0  0  0  0  0
    1.2532    0.7434    0.1794 H   0  0  0  0  0  0  0  0  0  0  0  0
    0.2448    1.9289    0.9797 H   0  0  0  0  0  0  0  0  0  0  0  0
    2.9754    0.9709    1.9985 H   0  0  0  0  0  0  0  0  0  0  0  0
    1.9595    2.1652    2.8047 H   0  0  0  0  0  0  0  0  0  0  0  0
    2.6568    2.5240    1.2240 H   0  0  0  0  0  0  0  0  0  0  0  0
  1  2  1  0
  1  4  1  0
  1  5  1  0
  1  6  1  0
  2  3  2  3
  2  7  1  0
  3  8  1  0
  9 10  1  0
  9 13  1  0
  9 14  1  0
 10 11  1  0
 10 15  1  0
 10 16  1  0
 11 12  1  0
 11 17  1  0
 11 18  1  0
 12 19  1  0
 12 20  1  0
 12 21  1  0
M  RAD  1   9   2
M  END
>  <reaction>  (6) 
rmg_rxn_16461

>  <mol_properties>  (6) 
{"1": {"label": "*0", "atom_type": "Cd"}, "2": {"label": "*1", "atom_type": "N3d"}, "7": {"label": "*2", "atom_type": "H0"}, "8": {"label": "*3", "atom_type": "Cs"}, "9": {"label": "*4", "atom_type": "Cs"}}

>  <type>  (6) 
unop_2

>  <geom_source>  (6) 
Heuristics

$$$$

     RDKit          3D

 21 19  0  0  0  0  0  0  0  0999 V2000
   -0.7850    0.3295   -3.1232 C   0  0  0  0  0  0  0  0  0  0  0  0
   -0.7850    0.3295   -1.6309 C   0  0  0  0  0  0  0  0  0  0  0  0
   -0.7850    1.4021   -0.9632 N   0  0  0  0  0  0  0  0  0  0  0  0
    0.0933   -0.2005   -3.5006 H   0  0  0  0  0  0  0  0  0  0  0  0
   -1.6632   -0.2005   -3.5006 H   0  0  0  0  0  0  0  0  0  0  0  0
   -0.7850    1.3501   -3.5018 H   0  0  0  0  0  0  0  0  0  0  0  0
   -0.7850   -0.6602   -1.1562 H   0  0  0  0  0  0  0  0  0  0  0  0
   -0.7850    1.1719    0.2364 H   0  0  0  0  0  0  0  0  0  0  0  0
   -0.7850    0.9249    1.5240 C   0  0  0  0  0  3  0  0  0  0  0  0
   -0.0742   -0.3870    1.8277 C   0  0  0  0  0  0  0  0  0  0  0  0
    1.2006   -0.5780    1.0141 C   0  0  0  0  0  0  0  0  0  0  0  0
    1.9115   -1.8899    1.3177 C   0  0  0  0  0  0  0  0  0  0  0  0
   -0.1385    1.7791    1.7389 H   0  0  0  0  0  0  0  0  0  0  0  0
   -1.6928    1.0355    2.1194 H   0  0  0  0  0  0  0  0  0  0  0  0
   -0.7515   -1.2251    1.6343 H   0  0  0  0  0  0  0  0  0  0  0  0
    0.1708   -0.4339    2.8937 H   0  0  0  0  0  0  0  0  0  0  0  0
    0.9557   -0.5311   -0.0519 H   0  0  0  0  0  0  0  0  0  0  0  0
    1.8780    0.2601    1.2074 H   0  0  0  0  0  0  0  0  0  0  0  0
    1.2650   -2.7442    1.1029 H   0  0  0  0  0  0  0  0  0  0  0  0
    2.1942   -1.9471    2.3716 H   0  0  0  0  0  0  0  0  0  0  0  0
    2.8192   -2.0005    0.7224 H   0  0  0  0  0  0  0  0  0  0  0  0
  1  2  1  0
  1  4  1  0
  1  5  1  0
  1  6  1  0
  2  3  2  3
  2  7  1  0
  3  8  1  0
  9 10  1  0
  9 13  1  0
  9 14  1  0
 10 11  1  0
 10 15  1  0
 10 16  1  0
 11 12  1  0
 11 17  1  0
 11 18  1  0
 12 19  1  0
 12 20  1  0
 12 21  1  0
M  RAD  1   9   2
M  END
>  <reaction>  (7) 
rmg_rxn_16461

>  <mol_properties>  (7) 
{"1": {"label": "*0", "atom_type": "Cd"}, "2": {"label": "*1", "atom_type": "N3d"}, "7": {"label": "*2", "atom_type": "H0"}, "8": {"label": "*3", "atom_type": "Cs"}, "9": {"label": "*4", "atom_type": "Cs"}}

>  <type>  (7) 
unop_3

>  <geom_source>  (7) 
Heuristics

$$$$

     RDKit          3D

 21 19  0  0  0  0  0  0  0  0999 V2000
   -0.3696   -1.5268   -3.4361 C   0  0  0  0  0  0  0  0  0  0  0  0
   -0.3696   -1.5268   -1.9438 C   0  0  0  0  0  0  0  0  0  0  0  0
   -0.3696   -0.4542   -1.2761 N   0  0  0  0  0  0  0  0  0  0  0  0
    0.5086   -2.0568   -3.8135 H   0  0  0  0  0  0  0  0  0  0  0  0
   -1.2479   -2.0568   -3.8135 H   0  0  0  0  0  0  0  0  0  0  0  0
   -0.3696   -0.5062   -3.8147 H   0  0  0  0  0  0  0  0  0  0  0  0
   -0.3696   -2.5165   -1.4691 H   0  0  0  0  0  0  0  0  0  0  0  0
   -0.3696   -0.6844   -0.0765 H   0  0  0  0  0  0  0  0  0  0  0  0
   -0.3696   -0.9314    1.2111 C   0  0  0  0  0  3  0  0  0  0  0  0
    0.3412    0.1749    1.9788 C   0  0  0  0  0  0  0  0  0  0  0  0
    0.2078    1.5418    1.3174 C   0  0  0  0  0  0  0  0  0  0  0  0
    0.9186    2.6481    2.0850 C   0  0  0  0  0  0  0  0  0  0  0  0
   -1.4385   -0.7225    1.1235 H   0  0  0  0  0  0  0  0  0  0  0  0
   -0.2581   -1.8975    1.7060 H   0  0  0  0  0  0  0  0  0  0  0  0
    1.4030   -0.0720    2.0800 H   0  0  0  0  0  0  0  0  0  0  0  0
   -0.0566    0.2294    2.9973 H   0  0  0  0  0  0  0  0  0  0  0  0
    0.6056    1.4873    0.2989 H   0  0  0  0  0  0  0  0  0  0  0  0
   -0.8540    1.7887    1.2162 H   0  0  0  0  0  0  0  0  0  0  0  0
    1.9874    2.4392    2.1727 H   0  0  0  0  0  0  0  0  0  0  0  0
    0.5170    2.7428    3.0967 H   0  0  0  0  0  0  0  0  0  0  0  0
    0.8070    3.6142    1.5901 H   0  0  0  0  0  0  0  0  0  0  0  0
  1  2  1  0
  1  4  1  0
  1  5  1  0
  1  6  1  0
  2  3  2  3
  2  7  1  0
  3  8  1  0
  9 10  1  0
  9 13  1  0
  9 14  1  0
 10 11  1  0
 10 15  1  0
 10 16  1  0
 11 12  1  0
 11 17  1  0
 11 18  1  0
 12 19  1  0
 12 20  1  0
 12 21  1  0
M  RAD  1   9   2
M  END
>  <reaction>  (8) 
rmg_rxn_16461

>  <mol_properties>  (8) 
{"1": {"label": "*0", "atom_type": "Cd"}, "2": {"label": "*1", "atom_type": "N3d"}, "7": {"label": "*2", "atom_type": "H0"}, "8": {"label": "*3", "atom_type": "Cs"}, "9": {"label": "*4", "atom_type": "Cs"}}

>  <type>  (8) 
unop_4

>  <geom_source>  (8) 
Heuristics

$$$$

     RDKit          3D

 21 19  0  0  0  0  0  0  0  0999 V2000
    0.6510    0.4115   -3.4050 C   0  0  0  0  0  0  0  0  0  0  0  0
    0.6510    0.4115   -1.9126 C   0  0  0  0  0  0  0  0  0  0  0  0
    0.6510    1.4841   -1.2449 N   0  0  0  0  0  0  0  0  0  0  0  0
    1.5292   -0.1185   -3.7824 H   0  0  0  0  0  0  0  0  0  0  0  0
   -0.2273   -0.1185   -3.7824 H   0  0  0  0  0  0  0  0  0  0  0  0
    0.6510    1.4321   -3.7836 H   0  0  0  0  0  0  0  0  0  0  0  0
    0.6510   -0.5782   -1.4380 H   0  0  0  0  0  0  0  0  0  0  0  0
    0.6510    1.2540   -0.0454 H   0  0  0  0  0  0  0  0  0  0  0  0
    0.6510    1.0069    1.2423 C   0  0  0  0  0  3  0  0  0  0  0  0
   -0.5802    0.2060    1.6440 C   0  0  0  0  0  0  0  0  0  0  0  0
   -0.3511   -1.3005    1.6069 C   0  0  0  0  0  0  0  0  0  0  0  0
   -1.5823   -2.1014    2.0087 C   0  0  0  0  0  0  0  0  0  0  0  0
    1.4902    0.7955    1.9092 H   0  0  0  0  0  0  0  0  0  0  0  0
    0.4592    2.0806    1.2776 H   0  0  0  0  0  0  0  0  0  0  0  0
   -1.4146    0.4580    0.9814 H   0  0  0  0  0  0  0  0  0  0  0  0
   -0.8943    0.4960    2.6519 H   0  0  0  0  0  0  0  0  0  0  0  0
   -0.0371   -1.5905    0.5990 H   0  0  0  0  0  0  0  0  0  0  0  0
    0.4832   -1.5524    2.2695 H   0  0  0  0  0  0  0  0  0  0  0  0
   -2.4215   -1.8899    1.3417 H   0  0  0  0  0  0  0  0  0  0  0  0
   -1.8974   -1.8516    3.0246 H   0  0  0  0  0  0  0  0  0  0  0  0
   -1.3906   -3.1750    1.9734 H   0  0  0  0  0  0  0  0  0  0  0  0
  1  2  1  0
  1  4  1  0
  1  5  1  0
  1  6  1  0
  2  3  2  3
  2  7  1  0
  3  8  1  0
  9 10  1  0
  9 13  1  0
  9 14  1  0
 10 11  1  0
 10 15  1  0
 10 16  1  0
 11 12  1  0
 11 17  1  0
 11 18  1  0
 12 19  1  0
 12 20  1  0
 12 21  1  0
M  RAD  1   9   2
M  END
>  <reaction>  (9) 
rmg_rxn_16461

>  <mol_properties>  (9) 
{"1": {"label": "*0", "atom_type": "Cd"}, "2": {"label": "*1", "atom_type": "N3d"}, "7": {"label": "*2", "atom_type": "H0"}, "8": {"label": "*3", "atom_type": "Cs"}, "9": {"label": "*4", "atom_type": "Cs"}}

>  <type>  (9) 
unop_5

>  <geom_source>  (9) 
Heuristics

$$$$

     RDKit          3D

 21 19  0  0  0  0  0  0  0  0999 V2000
    0.3515   -1.4911   -3.5670 C   0  0  0  0  0  0  0  0  0  0  0  0
    0.3515   -1.4911   -2.0746 C   0  0  0  0  0  0  0  0  0  0  0  0
    0.3515   -0.4184   -1.4069 N   0  0  0  0  0  0  0  0  0  0  0  0
    1.2298   -2.0210   -3.9444 H   0  0  0  0  0  0  0  0  0  0  0  0
   -0.5267   -2.0210   -3.9444 H   0  0  0  0  0  0  0  0  0  0  0  0
    0.3515   -0.4704   -3.9455 H   0  0  0  0  0  0  0  0  0  0  0  0
    0.3515   -2.4807   -1.6000 H   0  0  0  0  0  0  0  0  0  0  0  0
    0.3515   -0.6486   -0.2073 H   0  0  0  0  0  0  0  0  0  0  0  0
    0.3515   -0.8957    1.0803 C   0  0  0  0  0  3  0  0  0  0  0  0
    0.3515    0.3978    1.8838 C   0  0  0  0  0  0  0  0  0  0  0  0
   -0.8603    1.2776    1.5996 C   0  0  0  0  0  0  0  0  0  0  0  0
   -0.8603    2.5710    2.4032 C   0  0  0  0  0  0  0  0  0  0  0  0
   -0.5357   -1.4938    1.3014 H   0  0  0  0  0  0  0  0  0  0  0  0
    1.2287   -1.5053    1.3029 H   0  0  0  0  0  0  0  0  0  0  0  0
    1.2636    0.9638    1.6687 H   0  0  0  0  0  0  0  0  0  0  0  0
    0.3829    0.1658    2.9533 H   0  0  0  0  0  0  0  0  0  0  0  0
   -0.8917    1.5096    0.5301 H   0  0  0  0  0  0  0  0  0  0  0  0
   -1.7724    0.7115    1.8147 H   0  0  0  0  0  0  0  0  0  0  0  0
    0.0269    3.1691    2.1821 H   0  0  0  0  0  0  0  0  0  0  0  0
   -0.8603    2.3651    3.4762 H   0  0  0  0  0  0  0  0  0  0  0  0
   -1.7375    3.1807    2.1805 H   0  0  0  0  0  0  0  0  0  0  0  0
  1  2  1  0
  1  4  1  0
  1  5  1  0
  1  6  1  0
  2  3  2  3
  2  7  1  0
  3  8  1  0
  9 10  1  0
  9 13  1  0
  9 14  1  0
 10 11  1  0
 10 15  1  0
 10 16  1  0
 11 12  1  0
 11 17  1  0
 11 18  1  0
 12 19  1  0
 12 20  1  0
 12 21  1  0
M  RAD  1   9   2
M  END
>  <reaction>  (10) 
rmg_rxn_16461

>  <mol_properties>  (10) 
{"1": {"label": "*0", "atom_type": "Cd"}, "2": {"label": "*1", "atom_type": "N3d"}, "7": {"label": "*2", "atom_type": "H0"}, "8": {"label": "*3", "atom_type": "Cs"}, "9": {"label": "*4", "atom_type": "Cs"}}

>  <type>  (10) 
unop_6

>  <geom_source>  (10) 
Heuristics

$$$$

     RDKit          3D

 21 19  0  0  0  0  0  0  0  0999 V2000
    0.9645   -0.0152   -3.5369 C   0  0  0  0  0  0  0  0  0  0  0  0
    0.9645   -0.0152   -2.0446 C   0  0  0  0  0  0  0  0  0  0  0  0
    0.9645    1.0574   -1.3769 N   0  0  0  0  0  0  0  0  0  0  0  0
    1.8427   -0.5452   -3.9143 H   0  0  0  0  0  0  0  0  0  0  0  0
    0.0862   -0.5452   -3.9143 H   0  0  0  0  0  0  0  0  0  0  0  0
    0.9645    1.0054   -3.9155 H   0  0  0  0  0  0  0  0  0  0  0  0
    0.9645   -1.0049   -1.5699 H   0  0  0  0  0  0  0  0  0  0  0  0
    0.9645    0.8273   -0.1773 H   0  0  0  0  0  0  0  0  0  0  0  0
    0.9645    0.5802    1.1104 C   0  0  0  0  0  3  0  0  0  0  0  0
   -0.4572    0.4774    1.6460 C   0  0  0  0  0  0  0  0  0  0  0  0
   -0.9361   -0.9618    1.7970 C   0  0  0  0  0  0  0  0  0  0  0  0
   -2.3577   -1.0646    2.3327 C   0  0  0  0  0  0  0  0  0  0  0  0
    1.6706    0.0773    1.7754 H   0  0  0  0  0  0  0  0  0  0  0  0
    1.2812    1.6198    1.0123 H   0  0  0  0  0  0  0  0  0  0  0  0
   -1.1404    1.0143    0.9800 H   0  0  0  0  0  0  0  0  0  0  0  0
   -0.5213    0.9800    2.6165 H   0  0  0  0  0  0  0  0  0  0  0  0
   -0.8720   -1.4644    0.8265 H   0  0  0  0  0  0  0  0  0  0  0  0
   -0.2529   -1.4987    2.4631 H   0  0  0  0  0  0  0  0  0  0  0  0
   -3.0638   -0.5616    1.6677 H   0  0  0  0  0  0  0  0  0  0  0  0
   -2.4401   -0.5962    3.3163 H   0  0  0  0  0  0  0  0  0  0  0  0
   -2.6744   -2.1042    2.4307 H   0  0  0  0  0  0  0  0  0  0  0  0
  1  2  1  0
  1  4  1  0
  1  5  1  0
  1  6  1  0
  2  3  2  3
  2  7  1  0
  3  8  1  0
  9 10  1  0
  9 13  1  0
  9 14  1  0
 10 11  1  0
 10 15  1  0
 10 16  1  0
 11 12  1  0
 11 17  1  0
 11 18  1  0
 12 19  1  0
 12 20  1  0
 12 21  1  0
M  RAD  1   9   2
M  END
>  <reaction>  (11) 
rmg_rxn_16461

>  <mol_properties>  (11) 
{"1": {"label": "*0", "atom_type": "Cd"}, "2": {"label": "*1", "atom_type": "N3d"}, "7": {"label": "*2", "atom_type": "H0"}, "8": {"label": "*3", "atom_type": "Cs"}, "9": {"label": "*4", "atom_type": "Cs"}}

>  <type>  (11) 
unop_7

>  <geom_source>  (11) 
Heuristics

$$$$

     RDKit          3D

 21 19  0  0  0  0  0  0  0  0999 V2000
    1.0318   -0.5403   -3.6403 C   0  0  0  0  0  0  0  0  0  0  0  0
    1.0318   -0.5403   -2.1480 C   0  0  0  0  0  0  0  0  0  0  0  0
    1.0318    0.5324   -1.4803 N   0  0  0  0  0  0  0  0  0  0  0  0
    1.9100   -1.0702   -4.0177 H   0  0  0  0  0  0  0  0  0  0  0  0
    0.1535   -1.0702   -4.0177 H   0  0  0  0  0  0  0  0  0  0  0  0
    1.0318    0.4804   -4.0189 H   0  0  0  0  0  0  0  0  0  0  0  0
    1.0318   -1.5299   -1.6733 H   0  0  0  0  0  0  0  0  0  0  0  0
    1.0318    0.3022   -0.2807 H   0  0  0  0  0  0  0  0  0  0  0  0
    1.0318    0.0551    1.0070 C   0  0  0  0  0  3  0  0  0  0  0  0
   -0.1994    0.6505    1.6766 C   0  0  0  0  0  0  0  0  0  0  0  0
   -1.3028   -0.3735    1.9165 C   0  0  0  0  0  0  0  0  0  0  0  0
   -2.5340    0.2218    2.5861 C   0  0  0  0  0  0  0  0  0  0  0  0
    1.4631   -0.7412    1.6181 H   0  0  0  0  0  0  0  0  0  0  0  0
    1.8046    0.8088    0.8474 H   0  0  0  0  0  0  0  0  0  0  0  0
   -0.5944    1.4652    1.0612 H   0  0  0  0  0  0  0  0  0  0  0  0
    0.0846    1.1019    2.6327 H   0  0  0  0  0  0  0  0  0  0  0  0
   -1.5868   -0.8249    0.9604 H   0  0  0  0  0  0  0  0  0  0  0  0
   -0.9078   -1.1883    2.5319 H   0  0  0  0  0  0  0  0  0  0  0  0
   -2.9654    1.0182    1.9750 H   0  0  0  0  0  0  0  0  0  0  0  0
   -2.2814    0.6521    3.5581 H   0  0  0  0  0  0  0  0  0  0  0  0
   -3.3068   -0.5318    2.7457 H   0  0  0  0  0  0  0  0  0  0  0  0
  1  2  1  0
  1  4  1  0
  1  5  1  0
  1  6  1  0
  2  3  2  3
  2  7  1  0
  3  8  1  0
  9 10  1  0
  9 13  1  0
  9 14  1  0
 10 11  1  0
 10 15  1  0
 10 16  1  0
 11 12  1  0
 11 17  1  0
 11 18  1  0
 12 19  1  0
 12 20  1  0
 12 21  1  0
M  RAD  1   9   2
M  END
>  <reaction>  (12) 
rmg_rxn_16461

>  <mol_properties>  (12) 
{"1": {"label": "*0", "atom_type": "Cd"}, "2": {"label": "*1", "atom_type": "N3d"}, "7": {"label": "*2", "atom_type": "H0"}, "8": {"label": "*3", "atom_type": "Cs"}, "9": {"label": "*4", "atom_type": "Cs"}}

>  <type>  (12) 
unop_8

>  <geom_source>  (12) 
Heuristics

$$$$

     RDKit          3D

 21 19  0  0  0  0  0  0  0  0999 V2000
   -1.1238   -0.6281   -3.2317 C   0  0  0  0  0  0  0  0  0  0  0  0
   -1.1238   -0.6281   -1.7393 C   0  0  0  0  0  0  0  0  0  0  0  0
   -1.1238    0.4445   -1.0716 N   0  0  0  0  0  0  0  0  0  0  0  0
   -0.2455   -1.1581   -3.6091 H   0  0  0  0  0  0  0  0  0  0  0  0
   -2.0021   -1.1581   -3.6091 H   0  0  0  0  0  0  0  0  0  0  0  0
   -1.1238    0.3925   -3.6103 H   0  0  0  0  0  0  0  0  0  0  0  0
   -1.1238   -1.6178   -1.2647 H   0  0  0  0  0  0  0  0  0  0  0  0
   -1.1238    0.2143    0.1279 H   0  0  0  0  0  0  0  0  0  0  0  0
   -1.1238   -0.0327    1.4156 C   0  0  0  0  0  3  0  0  0  0  0  0
    0.2979   -0.1355    1.9512 C   0  0  0  0  0  0  0  0  0  0  0  0
    1.3260    0.5384    1.0500 C   0  0  0  0  0  0  0  0  0  0  0  0
    2.7476    0.4356    1.5856 C   0  0  0  0  0  0  0  0  0  0  0  0
   -1.4278    1.0114    1.3102 H   0  0  0  0  0  0  0  0  0  0  0  0
   -1.8381   -0.5227    2.0792 H   0  0  0  0  0  0  0  0  0  0  0  0
    0.5677   -1.1891    2.0772 H   0  0  0  0  0  0  0  0  0  0  0  0
    0.3477    0.3124    2.9490 H   0  0  0  0  0  0  0  0  0  0  0  0
    1.2761    0.0905    0.0522 H   0  0  0  0  0  0  0  0  0  0  0  0
    1.0562    1.5920    0.9241 H   0  0  0  0  0  0  0  0  0  0  0  0
    3.0516   -0.6085    1.6910 H   0  0  0  0  0  0  0  0  0  0  0  0
    2.8301    0.9040    2.5693 H   0  0  0  0  0  0  0  0  0  0  0  0
    3.4619    0.9256    0.9220 H   0  0  0  0  0  0  0  0  0  0  0  0
  1  2  1  0
  1  4  1  0
  1  5  1  0
  1  6  1  0
  2  3  2  3
  2  7  1  0
  3  8  1  0
  9 10  1  0
  9 13  1  0
  9 14  1  0
 10 11  1  0
 10 15  1  0
 10 16  1  0
 11 12  1  0
 11 17  1  0
 11 18  1  0
 12 19  1  0
 12 20  1  0
 12 21  1  0
M  RAD  1   9   2
M  END
>  <reaction>  (13) 
rmg_rxn_16461

>  <mol_properties>  (13) 
{"1": {"label": "*0", "atom_type": "Cd"}, "2": {"label": "*1", "atom_type": "N3d"}, "7": {"label": "*2", "atom_type": "H0"}, "8": {"label": "*3", "atom_type": "Cs"}, "9": {"label": "*4", "atom_type": "Cs"}}

>  <type>  (13) 
unop_9

>  <geom_source>  (13) 
Heuristics

$$$$

     RDKit          3D

 21 19  0  0  0  0  0  0  0  0999 V2000
   -3.2208   -0.9856    0.1208 C   0  0  0  0  0  0  0  0  0  0  0  0
   -1.9569   -0.1919    0.2662 C   0  0  0  0  0  0  0  0  0  0  0  0
   -1.5997    0.6547   -0.5646 N   0  0  0  0  0  0  0  0  0  0  0  0
   -2.9789   -2.0470    0.0921 H   0  0  0  0  0  0  0  0  0  0  0  0
   -3.8616   -0.8044    0.9823 H   0  0  0  0  0  0  0  0  0  0  0  0
   -3.7411   -0.7029   -0.7898 H   0  0  0  0  0  0  0  0  0  0  0  0
   -1.3872   -0.4385    1.1758 H   0  0  0  0  0  0  0  0  0  0  0  0
   -0.5143    1.2331   -0.3041 H   0  0  0  0  0  0  0  0  0  0  0  0
    0.6059    1.7721    0.0425 C   0  0  0  0  0  3  0  0  0  0  0  0
    1.5134    0.6881    0.5590 C   0  0  0  0  0  0  0  0  0  0  0  0
    1.8280   -0.3615   -0.5058 C   0  0  0  0  0  0  0  0  0  0  0  0
    2.7264   -1.4678    0.0331 C   0  0  0  0  0  0  0  0  0  0  0  0
    0.9659    2.2371   -0.8681 H   0  0  0  0  0  0  0  0  0  0  0  0
    0.3438    2.5113    0.7917 H   0  0  0  0  0  0  0  0  0  0  0  0
    1.0552    0.2018    1.4259 H   0  0  0  0  0  0  0  0  0  0  0  0
    2.4547    1.1321    0.9080 H   0  0  0  0  0  0  0  0  0  0  0  0
    0.8927   -0.7930   -0.8691 H   0  0  0  0  0  0  0  0  0  0  0  0
    2.3167    0.1239   -1.3532 H   0  0  0  0  0  0  0  0  0  0  0  0
    2.9372   -2.2015   -0.7413 H   0  0  0  0  0  0  0  0  0  0  0  0
    2.2478   -1.9782    0.8668 H   0  0  0  0  0  0  0  0  0  0  0  0
    3.6717   -1.0571    0.3826 H   0  0  0  0  0  0  0  0  0  0  0  0
  1  2  1  0
  1  4  1  0
  1  5  1  0
  1  6  1  0
  2  3  2  3
  2  7  1  0
  3  8  1  0
  9 10  1  0
  9 13  1  0
  9 14  1  0
 10 11  1  0
 10 15  1  0
 10 16  1  0
 11 12  1  0
 11 17  1  0
 11 18  1  0
 12 19  1  0
 12 20  1  0
 12 21  1  0
M  RAD  1   9   2
M  END
>  <reaction>  (14) 
rmg_rxn_16461

>  <mol_properties>  (14) 
{"1": {"label": "*0", "atom_type": "Cd"}, "2": {"label": "*1", "atom_type": "N3d"}, "7": {"label": "*2", "atom_type": "H0"}, "8": {"label": "*3", "atom_type": "Cs"}, "9": {"label": "*4", "atom_type": "Cs"}}

>  <type>  (14) 
unop_10

>  <geom_source>  (14) 
Heuristics

$$$$

     RDKit          3D

 21 19  0  0  0  0  0  0  0  0999 V2000
    0.1671    0.6297   -3.2727 C   0  0  0  0  0  0  0  0  0  0  0  0
    0.1671    0.6297   -1.7804 C   0  0  0  0  0  0  0  0  0  0  0  0
    0.1671    1.7023   -1.1127 N   0  0  0  0  0  0  0  0  0  0  0  0
    1.0454    0.0997   -3.6501 H   0  0  0  0  0  0  0  0  0  0  0  0
   -0.7112    0.0997   -3.6501 H   0  0  0  0  0  0  0  0  0  0  0  0
    0.1671    1.6503   -3.6513 H   0  0  0  0  0  0  0  0  0  0  0  0
    0.1671   -0.3600   -1.3057 H   0  0  0  0  0  0  0  0  0  0  0  0
    0.1671    1.4721    0.0869 H   0  0  0  0  0  0  0  0  0  0  0  0
    0.1671    1.2251    1.3746 C   0  0  0  0  0  3  0  0  0  0  0  0
   -0.5437   -0.0868    1.6782 C   0  0  0  0  0  0  0  0  0  0  0  0
    0.3117   -1.3127    1.3799 C   0  0  0  0  0  0  0  0  0  0  0  0
   -0.3991   -2.6246    1.6836 C   0  0  0  0  0  0  0  0  0  0  0  0
    1.0802    1.3216    1.9667 H   0  0  0  0  0  0  0  0  0  0  0  0
   -0.4671    2.0848    1.5969 H   0  0  0  0  0  0  0  0  0  0  0  0
   -1.4696   -0.1460    1.0970 H   0  0  0  0  0  0  0  0  0  0  0  0
   -0.8439   -0.1069    2.7309 H   0  0  0  0  0  0  0  0  0  0  0  0
    0.6118   -1.2927    0.3273 H   0  0  0  0  0  0  0  0  0  0  0  0
    1.2376   -1.2535    1.9612 H   0  0  0  0  0  0  0  0  0  0  0  0
   -1.3123   -2.7212    1.0914 H   0  0  0  0  0  0  0  0  0  0  0  0
   -0.6819   -2.6818    2.7374 H   0  0  0  0  0  0  0  0  0  0  0  0
    0.2350   -3.4844    1.4613 H   0  0  0  0  0  0  0  0  0  0  0  0
  1  2  1  0
  1  4  1  0
  1  5  1  0
  1  6  1  0
  2  3  2  3
  2  7  1  0
  3  8  1  0
  9 10  1  0
  9 13  1  0
  9 14  1  0
 10 11  1  0
 10 15  1  0
 10 16  1  0
 11 12  1  0
 11 17  1  0
 11 18  1  0
 12 19  1  0
 12 20  1  0
 12 21  1  0
M  RAD  1   9   2
M  END
>  <reaction>  (15) 
rmg_rxn_16461

>  <mol_properties>  (15) 
{"1": {"label": "*0", "atom_type": "Cd"}, "2": {"label": "*1", "atom_type": "N3d"}, "7": {"label": "*2", "atom_type": "H0"}, "8": {"label": "*3", "atom_type": "Cs"}, "9": {"label": "*4", "atom_type": "Cs"}}

>  <type>  (15) 
unop_11

>  <geom_source>  (15) 
Heuristics

$$$$

     RDKit          3D

 21 19  0  0  0  0  0  0  0  0999 V2000
   -1.0646   -0.0973   -3.1516 C   0  0  0  0  0  0  0  0  0  0  0  0
   -1.0646   -0.0973   -1.6592 C   0  0  0  0  0  0  0  0  0  0  0  0
   -1.0646    0.9753   -0.9916 N   0  0  0  0  0  0  0  0  0  0  0  0
   -0.1864   -0.6273   -3.5290 H   0  0  0  0  0  0  0  0  0  0  0  0
   -1.9429   -0.6273   -3.5290 H   0  0  0  0  0  0  0  0  0  0  0  0
   -1.0646    0.9233   -3.5302 H   0  0  0  0  0  0  0  0  0  0  0  0
   -1.0646   -1.0870   -1.1846 H   0  0  0  0  0  0  0  0  0  0  0  0
   -1.0646    0.7451    0.2080 H   0  0  0  0  0  0  0  0  0  0  0  0
   -1.0646    0.4981    1.4957 C   0  0  0  0  0  3  0  0  0  0  0  0
    0.1665   -0.3028    1.8974 C   0  0  0  0  0  0  0  0  0  0  0  0
    1.3636   -0.0551    0.9868 C   0  0  0  0  0  0  0  0  0  0  0  0
    2.5948   -0.8559    1.3885 C   0  0  0  0  0  0  0  0  0  0  0  0
   -0.8597    1.5709    1.5231 H   0  0  0  0  0  0  0  0  0  0  0  0
   -1.9052    0.3019    2.1633 H   0  0  0  0  0  0  0  0  0  0  0  0
   -0.0725   -1.3712    1.8923 H   0  0  0  0  0  0  0  0  0  0  0  0
    0.4437   -0.0583    2.9279 H   0  0  0  0  0  0  0  0  0  0  0  0
    1.0865   -0.2996   -0.0438 H   0  0  0  0  0  0  0  0  0  0  0  0
    1.6026    1.0133    0.9919 H   0  0  0  0  0  0  0  0  0  0  0  0
    2.3899   -1.9288    1.3611 H   0  0  0  0  0  0  0  0  0  0  0  0
    2.9098   -0.6062    2.4044 H   0  0  0  0  0  0  0  0  0  0  0  0
    3.4354   -0.6598    0.7209 H   0  0  0  0  0  0  0  0  0  0  0  0
  1  2  1  0
  1  4  1  0
  1  5  1  0
  1  6  1  0
  2  3  2  3
  2  7  1  0
  3  8  1  0
  9 10  1  0
  9 13  1  0
  9 14  1  0
 10 11  1  0
 10 15  1  0
 10 16  1  0
 11 12  1  0
 11 17  1  0
 11 18  1  0
 12 19  1  0
 12 20  1  0
 12 21  1  0
M  RAD  1   9   2
M  END
>  <reaction>  (16) 
rmg_rxn_16461

>  <mol_properties>  (16) 
{"1": {"label": "*0", "atom_type": "Cd"}, "2": {"label": "*1", "atom_type": "N3d"}, "7": {"label": "*2", "atom_type": "H0"}, "8": {"label": "*3", "atom_type": "Cs"}, "9": {"label": "*4", "atom_type": "Cs"}}

>  <type>  (16) 
unop_12

>  <geom_source>  (16) 
Heuristics

$$$$

     RDKit          3D

 21 19  0  0  0  0  0  0  0  0999 V2000
    0.8433   -1.0618   -3.6677 C   0  0  0  0  0  0  0  0  0  0  0  0
    0.8433   -1.0618   -2.1753 C   0  0  0  0  0  0  0  0  0  0  0  0
    0.8433    0.0108   -1.5077 N   0  0  0  0  0  0  0  0  0  0  0  0
    1.7216   -1.5918   -4.0451 H   0  0  0  0  0  0  0  0  0  0  0  0
   -0.0349   -1.5918   -4.0451 H   0  0  0  0  0  0  0  0  0  0  0  0
    0.8433   -0.0412   -4.0463 H   0  0  0  0  0  0  0  0  0  0  0  0
    0.8433   -2.0515   -1.7007 H   0  0  0  0  0  0  0  0  0  0  0  0
    0.8433   -0.2193   -0.3081 H   0  0  0  0  0  0  0  0  0  0  0  0
    0.8433   -0.4664    0.9796 C   0  0  0  0  0  3  0  0  0  0  0  0
    0.1325    0.6400    1.7472 C   0  0  0  0  0  0  0  0  0  0  0  0
   -1.3671    0.4036    1.8841 C   0  0  0  0  0  0  0  0  0  0  0  0
   -2.0780    1.5100    2.6518 C   0  0  0  0  0  0  0  0  0  0  0  0
    0.7166   -1.4312    1.4764 H   0  0  0  0  0  0  0  0  0  0  0  0
    1.9139   -0.2721    0.8966 H   0  0  0  0  0  0  0  0  0  0  0  0
    0.2998    1.5996    1.2476 H   0  0  0  0  0  0  0  0  0  0  0  0
    0.5726    0.7359    2.7451 H   0  0  0  0  0  0  0  0  0  0  0  0
   -1.8073    0.3077    0.8863 H   0  0  0  0  0  0  0  0  0  0  0  0
   -1.5345   -0.5561    2.3837 H   0  0  0  0  0  0  0  0  0  0  0  0
   -1.9512    2.4748    2.1550 H   0  0  0  0  0  0  0  0  0  0  0  0
   -1.6764    1.6047    3.6635 H   0  0  0  0  0  0  0  0  0  0  0  0
   -3.1485    1.3156    2.7347 H   0  0  0  0  0  0  0  0  0  0  0  0
  1  2  1  0
  1  4  1  0
  1  5  1  0
  1  6  1  0
  2  3  2  3
  2  7  1  0
  3  8  1  0
  9 10  1  0
  9 13  1  0
  9 14  1  0
 10 11  1  0
 10 15  1  0
 10 16  1  0
 11 12  1  0
 11 17  1  0
 11 18  1  0
 12 19  1  0
 12 20  1  0
 12 21  1  0
M  RAD  1   9   2
M  END
>  <reaction>  (17) 
rmg_rxn_16461

>  <mol_properties>  (17) 
{"1": {"label": "*0", "atom_type": "Cd"}, "2": {"label": "*1", "atom_type": "N3d"}, "7": {"label": "*2", "atom_type": "H0"}, "8": {"label": "*3", "atom_type": "Cs"}, "9": {"label": "*4", "atom_type": "Cs"}}

>  <type>  (17) 
unop_13

>  <geom_source>  (17) 
Heuristics

$$$$

     RDKit          3D

 21 19  0  0  0  0  0  0  0  0999 V2000
   -0.3515    0.5907   -3.1675 C   0  0  0  0  0  0  0  0  0  0  0  0
   -0.3515    0.5907   -1.6752 C   0  0  0  0  0  0  0  0  0  0  0  0
   -0.3515    1.6633   -1.0075 N   0  0  0  0  0  0  0  0  0  0  0  0
    0.5267    0.0607   -3.5449 H   0  0  0  0  0  0  0  0  0  0  0  0
   -1.2298    0.0607   -3.5449 H   0  0  0  0  0  0  0  0  0  0  0  0
   -0.3515    1.6113   -3.5461 H   0  0  0  0  0  0  0  0  0  0  0  0
   -0.3515   -0.3990   -1.2006 H   0  0  0  0  0  0  0  0  0  0  0  0
   -0.3515    1.4331    0.1921 H   0  0  0  0  0  0  0  0  0  0  0  0
   -0.3515    1.1861    1.4797 C   0  0  0  0  0  3  0  0  0  0  0  0
   -0.3515   -0.3129    1.7475 C   0  0  0  0  0  0  0  0  0  0  0  0
    0.8603   -1.0251    1.1578 C   0  0  0  0  0  0  0  0  0  0  0  0
    0.8603   -2.5240    1.4256 C   0  0  0  0  0  0  0  0  0  0  0  0
    0.5357    1.6599    1.9065 H   0  0  0  0  0  0  0  0  0  0  0  0
   -1.2287    1.6700    1.9122 H   0  0  0  0  0  0  0  0  0  0  0  0
   -1.2636   -0.7591    1.3381 H   0  0  0  0  0  0  0  0  0  0  0  0
   -0.3829   -0.4932    2.8269 H   0  0  0  0  0  0  0  0  0  0  0  0
    0.8917   -0.8448    0.0784 H   0  0  0  0  0  0  0  0  0  0  0  0
    1.7724   -0.5788    1.5672 H   0  0  0  0  0  0  0  0  0  0  0  0
   -0.0269   -2.9978    0.9988 H   0  0  0  0  0  0  0  0  0  0  0  0
    0.8603   -2.7299    2.4986 H   0  0  0  0  0  0  0  0  0  0  0  0
    1.7375   -3.0080    0.9931 H   0  0  0  0  0  0  0  0  0  0  0  0
  1  2  1  0
  1  4  1  0
  1  5  1  0
  1  6  1  0
  2  3  2  3
  2  7  1  0
  3  8  1  0
  9 10  1  0
  9 13  1  0
  9 14  1  0
 10 11  1  0
 10 15  1  0
 10 16  1  0
 11 12  1  0
 11 17  1  0
 11 18  1  0
 12 19  1  0
 12 20  1  0
 12 21  1  0
M  RAD  1   9   2
M  END
>  <reaction>  (18) 
rmg_rxn_16461

>  <mol_properties>  (18) 
{"1": {"label": "*0", "atom_type": "Cd"}, "2": {"label": "*1", "atom_type": "N3d"}, "7": {"label": "*2", "atom_type": "H0"}, "8": {"label": "*3", "atom_type": "Cs"}, "9": {"label": "*4", "atom_type": "Cs"}}

>  <type>  (18) 
unop_14

>  <geom_source>  (18) 
Heuristics

$$$$

     RDKit          3D

 21 19  0  0  0  0  0  0  0  0999 V2000
   -0.7850    0.3295   -3.1232 C   0  0  0  0  0  0  0  0  0  0  0  0
   -0.7850    0.3295   -1.6309 C   0  0  0  0  0  0  0  0  0  0  0  0
   -0.7850    1.4021   -0.9632 N   0  0  0  0  0  0  0  0  0  0  0  0
    0.0933   -0.2005   -3.5006 H   0  0  0  0  0  0  0  0  0  0  0  0
   -1.6632   -0.2005   -3.5006 H   0  0  0  0  0  0  0  0  0  0  0  0
   -0.7850    1.3501   -3.5018 H   0  0  0  0  0  0  0  0  0  0  0  0
   -0.7850   -0.6602   -1.1562 H   0  0  0  0  0  0  0  0  0  0  0  0
   -0.7850    1.1719    0.2364 H   0  0  0  0  0  0  0  0  0  0  0  0
   -0.7850    0.9249    1.5240 C   0  0  0  0  0  3  0  0  0  0  0  0
   -0.0742   -0.3870    1.8277 C   0  0  0  0  0  0  0  0  0  0  0  0
    1.2006   -0.5780    1.0141 C   0  0  0  0  0  0  0  0  0  0  0  0
    1.9115   -1.8899    1.3177 C   0  0  0  0  0  0  0  0  0  0  0  0
   -0.1386    1.7791    1.7389 H   0  0  0  0  0  0  0  0  0  0  0  0
   -1.6928    1.0355    2.1194 H   0  0  0  0  0  0  0  0  0  0  0  0
   -0.7515   -1.2251    1.6343 H   0  0  0  0  0  0  0  0  0  0  0  0
    0.1708   -0.4339    2.8937 H   0  0  0  0  0  0  0  0  0  0  0  0
    0.9557   -0.5311   -0.0519 H   0  0  0  0  0  0  0  0  0  0  0  0
    1.8780    0.2601    1.2074 H   0  0  0  0  0  0  0  0  0  0  0  0
    1.2650   -2.7442    1.1029 H   0  0  0  0  0  0  0  0  0  0  0  0
    2.1942   -1.9471    2.3716 H   0  0  0  0  0  0  0  0  0  0  0  0
    2.8192   -2.0005    0.7224 H   0  0  0  0  0  0  0  0  0  0  0  0
  1  2  1  0
  1  4  1  0
  1  5  1  0
  1  6  1  0
  2  3  2  3
  2  7  1  0
  3  8  1  0
  9 10  1  0
  9 13  1  0
  9 14  1  0
 10 11  1  0
 10 15  1  0
 10 16  1  0
 11 12  1  0
 11 17  1  0
 11 18  1  0
 12 19  1  0
 12 20  1  0
 12 21  1  0
M  RAD  1   9   2
M  END
>  <reaction>  (19) 
rmg_rxn_16461

>  <mol_properties>  (19) 
{"1": {"label": "*0", "atom_type": "Cd"}, "2": {"label": "*1", "atom_type": "N3d"}, "7": {"label": "*2", "atom_type": "H0"}, "8": {"label": "*3", "atom_type": "Cs"}, "9": {"label": "*4", "atom_type": "Cs"}}

>  <type>  (19) 
unop_15

>  <geom_source>  (19) 
gaussian_log

$$$$
