
     RDKit          3D

  8  7  0  0  0  0  0  0  0  0999 V2000
    0.9548    0.1194   -0.0790 C   0  0  0  0  0  0  0  0  0  0  0  0
   -0.4838   -0.2649    0.0193 C   0  0  0  0  0  0  0  0  0  0  0  0
   -0.8933   -1.1081    0.8664 N   0  0  0  0  0  0  0  0  0  0  0  0
    1.3360   -0.0983   -1.0800 H   0  0  0  0  0  0  0  0  0  0  0  0
    1.0698    1.1948    0.0786 H   0  0  0  0  0  0  0  0  0  0  0  0
    1.5426   -0.4219    0.6602 H   0  0  0  0  0  0  0  0  0  0  0  0
   -1.1575    0.2324   -0.6905 H   0  0  0  0  0  0  0  0  0  0  0  0
   -1.8989   -1.2455    0.7886 H   0  0  0  0  0  0  0  0  0  0  0  0
  1  2  1  0
  1  4  1  0
  1  5  1  0
  1  6  1  0
  2  3  2  3
  2  7  1  0
  3  8  1  0
M  END
>  <reaction>  (1) 
rmg_rxn_16528

>  <mol_properties>  (1) 
{"2": {"label": "donator", "atom_type": "N3d"}, "7": {"label": "d_hydrogen", "atom_type": "H0"}}

>  <type>  (1) 
r1h

$$$$

     RDKit          3D

 14 13  0  0  0  0  0  0  0  0999 V2000
   -2.4803   -0.3698   -0.1229 C   0  0  0  0  0  0  0  0  0  0  0  0
   -1.1475    0.2507   -0.2967 C   0  0  0  0  0  3  0  0  0  0  0  0
   -1.0074    1.4744    0.2664 O   0  0  0  0  0  0  0  0  0  0  0  0
    0.2422    2.1039    0.0486 C   0  0  0  0  0  0  0  0  0  0  0  0
    0.2255    3.4586    0.7150 C   0  0  0  0  0  0  0  0  0  0  0  0
   -3.2683    0.1812   -0.6553 H   0  0  0  0  0  0  0  0  0  0  0  0
   -2.4720   -1.3915   -0.5031 H   0  0  0  0  0  0  0  0  0  0  0  0
   -2.7626   -0.3964    0.9325 H   0  0  0  0  0  0  0  0  0  0  0  0
   -0.5432    0.0541   -1.1800 H   0  0  0  0  0  0  0  0  0  0  0  0
    0.4141    2.2031   -1.0306 H   0  0  0  0  0  0  0  0  0  0  0  0
    1.0402    1.4749    0.4587 H   0  0  0  0  0  0  0  0  0  0  0  0
    0.0592    3.3565    1.7877 H   0  0  0  0  0  0  0  0  0  0  0  0
   -0.5674    4.0820    0.3003 H   0  0  0  0  0  0  0  0  0  0  0  0
    1.1802    3.9629    0.5591 H   0  0  0  0  0  0  0  0  0  0  0  0
  1  2  1  0
  1  6  1  0
  1  7  1  0
  1  8  1  0
  2  3  1  0
  2  9  1  0
  3  4  1  0
  4  5  1  0
  4 10  1  0
  4 11  1  0
  5 12  1  0
  5 13  1  0
  5 14  1  0
M  RAD  1   2   2
M  END
>  <reaction>  (2) 
rmg_rxn_16528

>  <mol_properties>  (2) 
{"1": {"label": "acceptor", "atom_type": "Cs"}}

>  <type>  (2) 
r2

$$$$

     RDKit          3D

 15 14  0  0  0  0  0  0  0  0999 V2000
    2.4145    0.0817    0.4065 C   0  0  0  0  0  0  0  0  0  0  0  0
    1.1257   -0.2220   -0.3219 C   0  0  0  0  0  0  0  0  0  0  0  0
    1.0983   -1.5879   -0.6512 O   0  0  0  0  0  0  0  0  0  0  0  0
   -0.0685   -1.9694   -1.3352 C   0  0  0  0  0  0  0  0  0  0  0  0
    0.0024   -3.4478   -1.6403 C   0  0  0  0  0  0  0  0  0  0  0  0
    3.2736   -0.1534   -0.2229 H   0  0  0  0  0  0  0  0  0  0  0  0
    2.4581    1.1389    0.6728 H   0  0  0  0  0  0  0  0  0  0  0  0
    2.4855   -0.5095    1.3201 H   0  0  0  0  0  0  0  0  0  0  0  0
    0.2597    0.0294    0.3083 H   0  0  0  0  0  0  0  0  0  0  0  0
    1.0482    0.3858   -1.2356 H   0  0  0  0  0  0  0  0  0  0  0  0
   -0.9535   -1.7457   -0.7211 H   0  0  0  0  0  0  0  0  0  0  0  0
   -0.1650   -1.3894   -2.2650 H   0  0  0  0  0  0  0  0  0  0  0  0
    0.0831   -4.0247   -0.7183 H   0  0  0  0  0  0  0  0  0  0  0  0
   -0.8950   -3.7674   -2.1724 H   0  0  0  0  0  0  0  0  0  0  0  0
    0.8712   -3.6686   -2.2613 H   0  0  0  0  0  0  0  0  0  0  0  0
  1  2  1  0
  1  6  1  0
  1  7  1  0
  1  8  1  0
  2  3  1  0
  2  9  1  0
  2 10  1  0
  3  4  1  0
  4  5  1  0
  4 11  1  0
  4 12  1  0
  5 13  1  0
  5 14  1  0
  5 15  1  0
M  END
>  <reaction>  (3) 
rmg_rxn_16528

>  <mol_properties>  (3) 
{"0": {"label": "a_hydrogen", "atom_type": "H0"}, "2": {"label": "acceptor", "atom_type": "Cs"}}

>  <type>  (3) 
r2h

$$$$

     RDKit          3D

 22 20  0  0  0  0  0  0  0  0999 V2000
   -0.0053   -0.4812   -3.3142 C   0  0  0  0  0  0  0  0  0  0  0  0
   -0.3082   -0.4530   -1.8452 C   0  0  0  0  0  0  0  0  0  0  0  0
   -1.4605   -0.2471   -1.3916 N   0  0  0  0  0  0  0  0  0  0  0  0
    0.7433    0.2773   -3.5556 H   0  0  0  0  0  0  0  0  0  0  0  0
    0.4168   -1.4509   -3.5886 H   0  0  0  0  0  0  0  0  0  0  0  0
   -0.9066   -0.3000   -3.8969 H   0  0  0  0  0  0  0  0  0  0  0  0
    0.5469   -0.6232   -1.1724 H   0  0  0  0  0  0  0  0  0  0  0  0
   -1.3578   -0.3016   -0.1240 H   0  0  0  0  0  0  0  0  0  0  0  0
   -1.1185   -1.9202    1.4556 C   0  0  0  0  0  0  0  0  0  0  0  0
   -0.9809   -0.4591    1.1544 C   0  0  0  0  0  3  0  0  0  0  0  0
    0.3277   -0.0400    1.2657 O   0  0  0  0  0  0  0  0  0  0  0  0
    0.5001    1.3613    1.1623 C   0  0  0  0  0  0  0  0  0  0  0  0
    1.9766    1.6728    1.2074 C   0  0  0  0  0  0  0  0  0  0  0  0
   -0.8566   -2.1382    2.4949 H   0  0  0  0  0  0  0  0  0  0  0  0
   -2.1457   -2.2408    1.2809 H   0  0  0  0  0  0  0  0  0  0  0  0
   -0.4615   -2.5051    0.8095 H   0  0  0  0  0  0  0  0  0  0  0  0
   -1.6800    0.1918    1.6938 H   0  0  0  0  0  0  0  0  0  0  0  0
   -0.0289    1.8527    1.9889 H   0  0  0  0  0  0  0  0  0  0  0  0
    0.0538    1.7158    0.2258 H   0  0  0  0  0  0  0  0  0  0  0  0
    2.4949    1.1988    0.3728 H   0  0  0  0  0  0  0  0  0  0  0  0
    2.4182    1.3119    2.1367 H   0  0  0  0  0  0  0  0  0  0  0  0
    2.1339    2.7504    1.1440 H   0  0  0  0  0  0  0  0  0  0  0  0
  1  2  1  0
  1  4  1  0
  1  5  1  0
  1  6  1  0
  2  3  2  3
  2  7  1  0
  3  8  1  0
  9 10  1  0
  9 14  1  0
  9 15  1  0
  9 16  1  0
 10 11  1  0
 10 17  1  0
 11 12  1  0
 12 13  1  0
 12 18  1  0
 12 19  1  0
 13 20  1  0
 13 21  1  0
 13 22  1  0
M  RAD  1  10   2
M  END
>  <reaction>  (4) 
rmg_rxn_16528

>  <mol_properties>  (4) 
{"1": {"label": "*0", "atom_type": "Cd"}, "2": {"label": "*1", "atom_type": "N3d"}, "7": {"label": "*2", "atom_type": "H0"}, "9": {"label": "*3", "atom_type": "Cs"}, "10": {"label": "*4", "atom_type": "O2s"}}

>  <type>  (4) 
ts

$$$$

     RDKit          3D

 22 20  0  0  0  0  0  0  0  0999 V2000
   -3.4314    0.3822   -0.3040 C   0  0  0  0  0  0  0  0  0  0  0  0
   -2.0033   -0.0684   -0.2569 C   0  0  0  0  0  0  0  0  0  0  0  0
   -1.3685   -0.1716    0.8054 N   0  0  0  0  0  0  0  0  0  0  0  0
   -3.5078    1.2818   -0.9130 H   0  0  0  0  0  0  0  0  0  0  0  0
   -4.0409   -0.3934   -0.7652 H   0  0  0  0  0  0  0  0  0  0  0  0
   -3.7959    0.5866    0.6988 H   0  0  0  0  0  0  0  0  0  0  0  0
   -1.5765   -0.2928   -1.2472 H   0  0  0  0  0  0  0  0  0  0  0  0
   -0.2041   -0.5499    0.6582 H   0  0  0  0  0  0  0  0  0  0  0  0
    0.9265   -2.3685   -0.1008 C   0  0  0  0  0  0  0  0  0  0  0  0
    1.0381   -0.9528    0.4069 C   0  0  0  0  0  3  0  0  0  0  0  0
    1.6004   -0.1193   -0.5540 O   0  0  0  0  0  0  0  0  0  0  0  0
    2.0790    1.1241   -0.0981 C   0  0  0  0  0  0  0  0  0  0  0  0
    0.9706    2.1388    0.1736 C   0  0  0  0  0  0  0  0  0  0  0  0
    1.9142   -2.8110   -0.2431 H   0  0  0  0  0  0  0  0  0  0  0  0
    0.3694   -2.9728    0.6100 H   0  0  0  0  0  0  0  0  0  0  0  0
    0.4132   -2.3790   -1.0593 H   0  0  0  0  0  0  0  0  0  0  0  0
    1.5385   -0.8705    1.3778 H   0  0  0  0  0  0  0  0  0  0  0  0
    2.7294    1.4872   -0.8994 H   0  0  0  0  0  0  0  0  0  0  0  0
    2.6826    0.9822    0.8106 H   0  0  0  0  0  0  0  0  0  0  0  0
    1.4115    3.0874    0.4673 H   0  0  0  0  0  0  0  0  0  0  0  0
    0.3156    1.7899    0.9680 H   0  0  0  0  0  0  0  0  0  0  0  0
    0.3757    2.2878   -0.7241 H   0  0  0  0  0  0  0  0  0  0  0  0
  1  2  1  0
  1  4  1  0
  1  5  1  0
  1  6  1  0
  2  3  2  3
  2  7  1  0
  3  8  1  0
  9 10  1  0
  9 14  1  0
  9 15  1  0
  9 16  1  0
 10 11  1  0
 10 17  1  0
 11 12  1  0
 12 13  1  0
 12 18  1  0
 12 19  1  0
 13 20  1  0
 13 21  1  0
 13 22  1  0
M  RAD  1  10   2
M  END
>  <reaction>  (5) 
rmg_rxn_16528

>  <mol_properties>  (5) 
{"1": {"label": "*0", "atom_type": "Cd"}, "2": {"label": "*1", "atom_type": "N3d"}, "7": {"label": "*2", "atom_type": "H0"}, "9": {"label": "*3", "atom_type": "Cs"}, "10": {"label": "*4", "atom_type": "O2s"}}

>  <type>  (5) 
unop_1

>  <geom_source>  (5) 
crest_best.xyz

$$$$

     RDKit          3D

 22 20  0  0  0  0  0  0  0  0999 V2000
    0.6429   -0.9963   -3.2460 C   0  0  0  0  0  0  0  0  0  0  0  0
    0.6429   -0.9963   -1.7537 C   0  0  0  0  0  0  0  0  0  0  0  0
    0.6429    0.0763   -1.0860 N   0  0  0  0  0  0  0  0  0  0  0  0
    1.5211   -1.5263   -3.6234 H   0  0  0  0  0  0  0  0  0  0  0  0
   -0.2354   -1.5263   -3.6234 H   0  0  0  0  0  0  0  0  0  0  0  0
    0.6429    0.0243   -3.6246 H   0  0  0  0  0  0  0  0  0  0  0  0
    0.6429   -1.9860   -1.2790 H   0  0  0  0  0  0  0  0  0  0  0  0
    0.6429   -0.1539    0.1136 H   0  0  0  0  0  0  0  0  0  0  0  0
    1.8691    0.1932    2.0620 C   0  0  0  0  0  0  0  0  0  0  0  0
    0.6429   -0.4026    1.4101 C   0  0  0  0  0  3  0  0  0  0  0  0
   -0.3269    0.6029    1.2569 O   0  0  0  0  0  0  0  0  0  0  0  0
   -1.5111    0.1433    0.6557 C   0  0  0  0  0  0  0  0  0  0  0  0
   -2.4814    1.2959    0.5383 C   0  0  0  0  0  0  0  0  0  0  0  0
    1.6199    0.6041    3.0410 H   0  0  0  0  0  0  0  0  0  0  0  0
    2.6374   -0.5708    2.1914 H   0  0  0  0  0  0  0  0  0  0  0  0
    2.2776    0.9953    1.4463 H   0  0  0  0  0  0  0  0  0  0  0  0
    0.2403   -1.2214    2.0248 H   0  0  0  0  0  0  0  0  0  0  0  0
   -1.9478   -0.6668    1.2584 H   0  0  0  0  0  0  0  0  0  0  0  0
   -1.2897   -0.2754   -0.3372 H   0  0  0  0  0  0  0  0  0  0  0  0
   -2.0553    2.0935   -0.0713 H   0  0  0  0  0  0  0  0  0  0  0  0
   -2.7130    1.7023    1.5234 H   0  0  0  0  0  0  0  0  0  0  0  0
   -3.4103    0.9620    0.0733 H   0  0  0  0  0  0  0  0  0  0  0  0
  1  2  1  0
  1  4  1  0
  1  5  1  0
  1  6  1  0
  2  3  2  3
  2  7  1  0
  3  8  1  0
  9 10  1  0
  9 14  1  0
  9 15  1  0
  9 16  1  0
 10 11  1  0
 10 17  1  0
 11 12  1  0
 12 13  1  0
 12 18  1  0
 12 19  1  0
 13 20  1  0
 13 21  1  0
 13 22  1  0
M  RAD  1  10   2
M  END
>  <reaction>  (6) 
rmg_rxn_16528

>  <mol_properties>  (6) 
{"1": {"label": "*0", "atom_type": "Cd"}, "2": {"label": "*1", "atom_type": "N3d"}, "7": {"label": "*2", "atom_type": "H0"}, "9": {"label": "*3", "atom_type": "Cs"}, "10": {"label": "*4", "atom_type": "O2s"}}

>  <type>  (6) 
unop_2

>  <geom_source>  (6) 
Heuristics

$$$$

     RDKit          3D

 22 20  0  0  0  0  0  0  0  0999 V2000
   -0.4024   -1.2009   -3.5401 C   0  0  0  0  0  0  0  0  0  0  0  0
   -0.4024   -1.2009   -2.0477 C   0  0  0  0  0  0  0  0  0  0  0  0
   -0.4024   -0.1283   -1.3800 N   0  0  0  0  0  0  0  0  0  0  0  0
    0.4759   -1.7309   -3.9175 H   0  0  0  0  0  0  0  0  0  0  0  0
   -1.2806   -1.7309   -3.9175 H   0  0  0  0  0  0  0  0  0  0  0  0
   -0.4024   -0.1803   -3.9186 H   0  0  0  0  0  0  0  0  0  0  0  0
   -0.4024   -2.1906   -1.5731 H   0  0  0  0  0  0  0  0  0  0  0  0
   -0.4024   -0.3585   -0.1804 H   0  0  0  0  0  0  0  0  0  0  0  0
    0.3056   -1.9110    1.4035 C   0  0  0  0  0  0  0  0  0  0  0  0
   -0.4024   -0.6072    1.1161 C   0  0  0  0  0  3  0  0  0  0  0  0
    0.4542    0.4586    1.4405 O   0  0  0  0  0  0  0  0  0  0  0  0
   -0.1184    1.7204    1.2061 C   0  0  0  0  0  0  0  0  0  0  0  0
    0.8791    2.7904    1.5854 C   0  0  0  0  0  0  0  0  0  0  0  0
    0.5751   -1.9750    2.4583 H   0  0  0  0  0  0  0  0  0  0  0  0
   -0.3417   -2.7546    1.1587 H   0  0  0  0  0  0  0  0  0  0  0  0
    1.2173   -1.9896    0.8103 H   0  0  0  0  0  0  0  0  0  0  0  0
   -1.3295   -0.5356    1.7039 H   0  0  0  0  0  0  0  0  0  0  0  0
   -1.0411    1.8289    1.7954 H   0  0  0  0  0  0  0  0  0  0  0  0
   -0.3985    1.8144    0.1464 H   0  0  0  0  0  0  0  0  0  0  0  0
    1.7884    2.6927    0.9914 H   0  0  0  0  0  0  0  0  0  0  0  0
    1.1462    2.7073    2.6394 H   0  0  0  0  0  0  0  0  0  0  0  0
    0.4555    3.7808    1.4116 H   0  0  0  0  0  0  0  0  0  0  0  0
  1  2  1  0
  1  4  1  0
  1  5  1  0
  1  6  1  0
  2  3  2  3
  2  7  1  0
  3  8  1  0
  9 10  1  0
  9 14  1  0
  9 15  1  0
  9 16  1  0
 10 11  1  0
 10 17  1  0
 11 12  1  0
 12 13  1  0
 12 18  1  0
 12 19  1  0
 13 20  1  0
 13 21  1  0
 13 22  1  0
M  RAD  1  10   2
M  END
>  <reaction>  (7) 
rmg_rxn_16528

>  <mol_properties>  (7) 
{"1": {"label": "*0", "atom_type": "Cd"}, "2": {"label": "*1", "atom_type": "N3d"}, "7": {"label": "*2", "atom_type": "H0"}, "9": {"label": "*3", "atom_type": "Cs"}, "10": {"label": "*4", "atom_type": "O2s"}}

>  <type>  (7) 
unop_3

>  <geom_source>  (7) 
Heuristics

$$$$

     RDKit          3D

 22 20  0  0  0  0  0  0  0  0999 V2000
    0.8161   -0.5565   -3.2949 C   0  0  0  0  0  0  0  0  0  0  0  0
    0.8161   -0.5565   -1.8026 C   0  0  0  0  0  0  0  0  0  0  0  0
    0.8161    0.5161   -1.1349 N   0  0  0  0  0  0  0  0  0  0  0  0
    1.6944   -1.0865   -3.6723 H   0  0  0  0  0  0  0  0  0  0  0  0
   -0.0621   -1.0865   -3.6723 H   0  0  0  0  0  0  0  0  0  0  0  0
    0.8161    0.4641   -3.6735 H   0  0  0  0  0  0  0  0  0  0  0  0
    0.8161   -1.5462   -1.3279 H   0  0  0  0  0  0  0  0  0  0  0  0
    0.8161    0.2860    0.0647 H   0  0  0  0  0  0  0  0  0  0  0  0
    1.5241    1.1420    2.1108 C   0  0  0  0  0  0  0  0  0  0  0  0
    0.8161    0.0372    1.3612 C   0  0  0  0  0  3  0  0  0  0  0  0
   -0.5585    0.3257    1.3140 O   0  0  0  0  0  0  0  0  0  0  0  0
   -1.3061   -0.6502    0.6329 C   0  0  0  0  0  0  0  0  0  0  0  0
   -2.7623   -0.2464    0.6397 C   0  0  0  0  0  0  0  0  0  0  0  0
    1.1387    1.2216    3.1278 H   0  0  0  0  0  0  0  0  0  0  0  0
    2.5951    0.9392    2.1602 H   0  0  0  0  0  0  0  0  0  0  0  0
    1.3750    2.0995    1.6106 H   0  0  0  0  0  0  0  0  0  0  0  0
    0.9795   -0.9305    1.8584 H   0  0  0  0  0  0  0  0  0  0  0  0
   -1.1764   -1.6288    1.1185 H   0  0  0  0  0  0  0  0  0  0  0  0
   -0.9399   -0.7503   -0.3997 H   0  0  0  0  0  0  0  0  0  0  0  0
   -2.8940    0.7168    0.1454 H   0  0  0  0  0  0  0  0  0  0  0  0
   -3.1304   -0.1611    1.6627 H   0  0  0  0  0  0  0  0  0  0  0  0
   -3.3634   -0.9908    0.1153 H   0  0  0  0  0  0  0  0  0  0  0  0
  1  2  1  0
  1  4  1  0
  1  5  1  0
  1  6  1  0
  2  3  2  3
  2  7  1  0
  3  8  1  0
  9 10  1  0
  9 14  1  0
  9 15  1  0
  9 16  1  0
 10 11  1  0
 10 17  1  0
 11 12  1  0
 12 13  1  0
 12 18  1  0
 12 19  1  0
 13 20  1  0
 13 21  1  0
 13 22  1  0
M  RAD  1  10   2
M  END
>  <reaction>  (8) 
rmg_rxn_16528

>  <mol_properties>  (8) 
{"1": {"label": "*0", "atom_type": "Cd"}, "2": {"label": "*1", "atom_type": "N3d"}, "7": {"label": "*2", "atom_type": "H0"}, "9": {"label": "*3", "atom_type": "Cs"}, "10": {"label": "*4", "atom_type": "O2s"}}

>  <type>  (8) 
unop_4

>  <geom_source>  (8) 
Heuristics

$$$$

     RDKit          3D

 22 20  0  0  0  0  0  0  0  0999 V2000
   -0.6733   -0.4197   -3.8465 C   0  0  0  0  0  0  0  0  0  0  0  0
   -0.6733   -0.4197   -2.3542 C   0  0  0  0  0  0  0  0  0  0  0  0
   -0.6733    0.6529   -1.6865 N   0  0  0  0  0  0  0  0  0  0  0  0
    0.2049   -0.9497   -4.2239 H   0  0  0  0  0  0  0  0  0  0  0  0
   -1.5516   -0.9497   -4.2239 H   0  0  0  0  0  0  0  0  0  0  0  0
   -0.6733    0.6009   -4.2251 H   0  0  0  0  0  0  0  0  0  0  0  0
   -0.6733   -1.4094   -1.8796 H   0  0  0  0  0  0  0  0  0  0  0  0
   -0.6733    0.4227   -0.4869 H   0  0  0  0  0  0  0  0  0  0  0  0
   -1.8996   -0.6208    1.1946 C   0  0  0  0  0  0  0  0  0  0  0  0
   -0.6733    0.1740    0.8096 C   0  0  0  0  0  3  0  0  0  0  0  0
    0.3615   -0.1158    1.7152 O   0  0  0  0  0  0  0  0  0  0  0  0
    1.5509    0.5797    1.4382 C   0  0  0  0  0  0  0  0  0  0  0  0
    2.5928    0.1987    2.4643 C   0  0  0  0  0  0  0  0  0  0  0  0
   -2.2219   -0.3610    2.2035 H   0  0  0  0  0  0  0  0  0  0  0  0
   -2.7179   -0.4115    0.5040 H   0  0  0  0  0  0  0  0  0  0  0  0
   -1.6864   -1.6899    1.1663 H   0  0  0  0  0  0  0  0  0  0  0  0
   -0.8936    1.2517    0.8241 H   0  0  0  0  0  0  0  0  0  0  0  0
    1.3658    1.6639    1.4626 H   0  0  0  0  0  0  0  0  0  0  0  0
    1.9017    0.3343    0.4248 H   0  0  0  0  0  0  0  0  0  0  0  0
    2.7878   -0.8737    2.4308 H   0  0  0  0  0  0  0  0  0  0  0  0
    2.2522    0.4552    3.4680 H   0  0  0  0  0  0  0  0  0  0  0  0
    3.5269    0.7277    2.2689 H   0  0  0  0  0  0  0  0  0  0  0  0
  1  2  1  0
  1  4  1  0
  1  5  1  0
  1  6  1  0
  2  3  2  3
  2  7  1  0
  3  8  1  0
  9 10  1  0
  9 14  1  0
  9 15  1  0
  9 16  1  0
 10 11  1  0
 10 17  1  0
 11 12  1  0
 12 13  1  0
 12 18  1  0
 12 19  1  0
 13 20  1  0
 13 21  1  0
 13 22  1  0
M  RAD  1  10   2
M  END
>  <reaction>  (9) 
rmg_rxn_16528

>  <mol_properties>  (9) 
{"1": {"label": "*0", "atom_type": "Cd"}, "2": {"label": "*1", "atom_type": "N3d"}, "7": {"label": "*2", "atom_type": "H0"}, "9": {"label": "*3", "atom_type": "Cs"}, "10": {"label": "*4", "atom_type": "O2s"}}

>  <type>  (9) 
unop_5

>  <geom_source>  (9) 
Heuristics

$$$$

     RDKit          3D

 22 20  0  0  0  0  0  0  0  0999 V2000
    0.6201    0.0246   -3.5054 C   0  0  0  0  0  0  0  0  0  0  0  0
    0.6201    0.0246   -2.0130 C   0  0  0  0  0  0  0  0  0  0  0  0
    0.6201    1.0972   -1.3453 N   0  0  0  0  0  0  0  0  0  0  0  0
    1.4984   -0.5054   -3.8828 H   0  0  0  0  0  0  0  0  0  0  0  0
   -0.2582   -0.5054   -3.8828 H   0  0  0  0  0  0  0  0  0  0  0  0
    0.6201    1.0452   -3.8839 H   0  0  0  0  0  0  0  0  0  0  0  0
    0.6201   -0.9651   -1.5384 H   0  0  0  0  0  0  0  0  0  0  0  0
    0.6201    0.8671   -0.1457 H   0  0  0  0  0  0  0  0  0  0  0  0
    0.6201    1.9094    1.9361 C   0  0  0  0  0  0  0  0  0  0  0  0
    0.6201    0.6183    1.1508 C   0  0  0  0  0  3  0  0  0  0  0  0
   -0.5209   -0.1260    1.4959 O   0  0  0  0  0  0  0  0  0  0  0  0
   -0.6104   -1.3512    0.8133 C   0  0  0  0  0  0  0  0  0  0  0  0
   -1.8652   -2.0685    1.2544 C   0  0  0  0  0  0  0  0  0  0  0  0
    0.6350    1.7051    3.0072 H   0  0  0  0  0  0  0  0  0  0  0  0
    1.4988    2.5052    1.6840 H   0  0  0  0  0  0  0  0  0  0  0  0
   -0.2722    2.4942    1.7099 H   0  0  0  0  0  0  0  0  0  0  0  0
    1.5278    0.0361    1.3684 H   0  0  0  0  0  0  0  0  0  0  0  0
    0.2778   -1.9646    1.0256 H   0  0  0  0  0  0  0  0  0  0  0  0
   -0.6299   -1.1751   -0.2725 H   0  0  0  0  0  0  0  0  0  0  0  0
   -2.7474   -1.4676    1.0310 H   0  0  0  0  0  0  0  0  0  0  0  0
   -1.8402   -2.2566    2.3283 H   0  0  0  0  0  0  0  0  0  0  0  0
   -1.9560   -3.0245    0.7364 H   0  0  0  0  0  0  0  0  0  0  0  0
  1  2  1  0
  1  4  1  0
  1  5  1  0
  1  6  1  0
  2  3  2  3
  2  7  1  0
  3  8  1  0
  9 10  1  0
  9 14  1  0
  9 15  1  0
  9 16  1  0
 10 11  1  0
 10 17  1  0
 11 12  1  0
 12 13  1  0
 12 18  1  0
 12 19  1  0
 13 20  1  0
 13 21  1  0
 13 22  1  0
M  RAD  1  10   2
M  END
>  <reaction>  (10) 
rmg_rxn_16528

>  <mol_properties>  (10) 
{"1": {"label": "*0", "atom_type": "Cd"}, "2": {"label": "*1", "atom_type": "N3d"}, "7": {"label": "*2", "atom_type": "H0"}, "9": {"label": "*3", "atom_type": "Cs"}, "10": {"label": "*4", "atom_type": "O2s"}}

>  <type>  (10) 
unop_6

>  <geom_source>  (10) 
Heuristics

$$$$

     RDKit          3D

 22 20  0  0  0  0  0  0  0  0999 V2000
   -0.5999   -0.1664   -3.8335 C   0  0  0  0  0  0  0  0  0  0  0  0
   -0.5999   -0.1664   -2.3411 C   0  0  0  0  0  0  0  0  0  0  0  0
   -0.5999    0.9062   -1.6734 N   0  0  0  0  0  0  0  0  0  0  0  0
    0.2784   -0.6964   -4.2109 H   0  0  0  0  0  0  0  0  0  0  0  0
   -1.4781   -0.6964   -4.2109 H   0  0  0  0  0  0  0  0  0  0  0  0
   -0.5999    0.8542   -4.2121 H   0  0  0  0  0  0  0  0  0  0  0  0
   -0.5999   -1.1561   -1.8665 H   0  0  0  0  0  0  0  0  0  0  0  0
   -0.5999    0.6760   -0.4739 H   0  0  0  0  0  0  0  0  0  0  0  0
   -2.0158    0.3278    1.3411 C   0  0  0  0  0  0  0  0  0  0  0  0
   -0.5999    0.4273    0.8226 C   0  0  0  0  0  3  0  0  0  0  0  0
    0.2637   -0.2135    1.7275 O   0  0  0  0  0  0  0  0  0  0  0  0
    1.6111   -0.1738    1.3298 C   0  0  0  0  0  0  0  0  0  0  0  0
    2.4498   -0.8862    2.3655 C   0  0  0  0  0  0  0  0  0  0  0  0
   -2.0996    0.8060    2.3176 H   0  0  0  0  0  0  0  0  0  0  0  0
   -2.7056    0.8195    0.6534 H   0  0  0  0  0  0  0  0  0  0  0  0
   -2.3129   -0.7165    1.4430 H   0  0  0  0  0  0  0  0  0  0  0  0
   -0.3064    1.4811    0.7061 H   0  0  0  0  0  0  0  0  0  0  0  0
    1.9396    0.8705    1.2214 H   0  0  0  0  0  0  0  0  0  0  0  0
    1.7262   -0.6529    0.3462 H   0  0  0  0  0  0  0  0  0  0  0  0
    2.1346   -1.9256    2.4633 H   0  0  0  0  0  0  0  0  0  0  0  0
    2.3479   -0.4031    3.3379 H   0  0  0  0  0  0  0  0  0  0  0  0
    3.5020   -0.8681    2.0774 H   0  0  0  0  0  0  0  0  0  0  0  0
  1  2  1  0
  1  4  1  0
  1  5  1  0
  1  6  1  0
  2  3  2  3
  2  7  1  0
  3  8  1  0
  9 10  1  0
  9 14  1  0
  9 15  1  0
  9 16  1  0
 10 11  1  0
 10 17  1  0
 11 12  1  0
 12 13  1  0
 12 18  1  0
 12 19  1  0
 13 20  1  0
 13 21  1  0
 13 22  1  0
M  RAD  1  10   2
M  END
>  <reaction>  (11) 
rmg_rxn_16528

>  <mol_properties>  (11) 
{"1": {"label": "*0", "atom_type": "Cd"}, "2": {"label": "*1", "atom_type": "N3d"}, "7": {"label": "*2", "atom_type": "H0"}, "9": {"label": "*3", "atom_type": "Cs"}, "10": {"label": "*4", "atom_type": "O2s"}}

>  <type>  (11) 
unop_7

>  <geom_source>  (11) 
Heuristics

$$$$

     RDKit          3D

 22 20  0  0  0  0  0  0  0  0999 V2000
   -0.3994    0.0940   -3.7844 C   0  0  0  0  0  0  0  0  0  0  0  0
   -0.3994    0.0940   -2.2921 C   0  0  0  0  0  0  0  0  0  0  0  0
   -0.3994    1.1666   -1.6244 N   0  0  0  0  0  0  0  0  0  0  0  0
    0.4789   -0.4360   -4.1619 H   0  0  0  0  0  0  0  0  0  0  0  0
   -1.2776   -0.4360   -4.1619 H   0  0  0  0  0  0  0  0  0  0  0  0
   -0.3994    1.1146   -4.1630 H   0  0  0  0  0  0  0  0  0  0  0  0
   -0.3994   -0.8957   -1.8175 H   0  0  0  0  0  0  0  0  0  0  0  0
   -0.3994    0.9365   -0.4248 H   0  0  0  0  0  0  0  0  0  0  0  0
   -1.6256    1.2835    1.5236 C   0  0  0  0  0  0  0  0  0  0  0  0
   -0.3994    0.6877    0.8717 C   0  0  0  0  0  3  0  0  0  0  0  0
    0.1223   -0.3130    1.7092 O   0  0  0  0  0  0  0  0  0  0  0  0
    1.2714   -0.9299    1.1857 C   0  0  0  0  0  0  0  0  0  0  0  0
    1.7489   -1.9837    2.1579 C   0  0  0  0  0  0  0  0  0  0  0  0
   -1.3706    1.7205    2.4896 H   0  0  0  0  0  0  0  0  0  0  0  0
   -2.0488    2.0646    0.8900 H   0  0  0  0  0  0  0  0  0  0  0  0
   -2.3845    0.5167    1.6826 H   0  0  0  0  0  0  0  0  0  0  0  0
    0.3596    1.4649    0.6981 H   0  0  0  0  0  0  0  0  0  0  0  0
    2.0569   -0.1784    1.0171 H   0  0  0  0  0  0  0  0  0  0  0  0
    1.0424   -1.3830    0.2097 H   0  0  0  0  0  0  0  0  0  0  0  0
    0.9764   -2.7373    2.3144 H   0  0  0  0  0  0  0  0  0  0  0  0
    1.9903   -1.5335    3.1213 H   0  0  0  0  0  0  0  0  0  0  0  0
    2.6422   -2.4772    1.7717 H   0  0  0  0  0  0  0  0  0  0  0  0
  1  2  1  0
  1  4  1  0
  1  5  1  0
  1  6  1  0
  2  3  2  3
  2  7  1  0
  3  8  1  0
  9 10  1  0
  9 14  1  0
  9 15  1  0
  9 16  1  0
 10 11  1  0
 10 17  1  0
 11 12  1  0
 12 13  1  0
 12 18  1  0
 12 19  1  0
 13 20  1  0
 13 21  1  0
 13 22  1  0
M  RAD  1  10   2
M  END
>  <reaction>  (12) 
rmg_rxn_16528

>  <mol_properties>  (12) 
{"1": {"label": "*0", "atom_type": "Cd"}, "2": {"label": "*1", "atom_type": "N3d"}, "7": {"label": "*2", "atom_type": "H0"}, "9": {"label": "*3", "atom_type": "Cs"}, "10": {"label": "*4", "atom_type": "O2s"}}

>  <type>  (12) 
unop_8

>  <geom_source>  (12) 
Heuristics

$$$$

     RDKit          3D

 22 20  0  0  0  0  0  0  0  0999 V2000
    0.3275   -1.2513   -3.2977 C   0  0  0  0  0  0  0  0  0  0  0  0
    0.3275   -1.2513   -1.8054 C   0  0  0  0  0  0  0  0  0  0  0  0
    0.3275   -0.1786   -1.1377 N   0  0  0  0  0  0  0  0  0  0  0  0
    1.2057   -1.7813   -3.6751 H   0  0  0  0  0  0  0  0  0  0  0  0
   -0.5508   -1.7813   -3.6751 H   0  0  0  0  0  0  0  0  0  0  0  0
    0.3275   -0.2306   -3.6763 H   0  0  0  0  0  0  0  0  0  0  0  0
    0.3275   -2.2410   -1.3307 H   0  0  0  0  0  0  0  0  0  0  0  0
    0.3275   -0.4088    0.0619 H   0  0  0  0  0  0  0  0  0  0  0  0
    1.7434   -0.7571    1.8769 C   0  0  0  0  0  0  0  0  0  0  0  0
    0.3275   -0.6576    1.3584 C   0  0  0  0  0  3  0  0  0  0  0  0
   -0.0349    0.6979    1.2774 O   0  0  0  0  0  0  0  0  0  0  0  0
   -1.3430    0.8940    0.8025 C   0  0  0  0  0  0  0  0  0  0  0  0
   -1.6305    2.3768    0.7541 C   0  0  0  0  0  0  0  0  0  0  0  0
    1.8207   -0.3049    2.8662 H   0  0  0  0  0  0  0  0  0  0  0  0
    2.0472   -1.8026    1.9483 H   0  0  0  0  0  0  0  0  0  0  0  0
    2.4325   -0.2404    1.2079 H   0  0  0  0  0  0  0  0  0  0  0  0
   -0.3647   -1.1917    2.0261 H   0  0  0  0  0  0  0  0  0  0  0  0
   -2.0617    0.3845    1.4614 H   0  0  0  0  0  0  0  0  0  0  0  0
   -1.4495    0.4490   -0.1980 H   0  0  0  0  0  0  0  0  0  0  0  0
   -0.9277    2.8808    0.0896 H   0  0  0  0  0  0  0  0  0  0  0  0
   -1.5395    2.8163    1.7480 H   0  0  0  0  0  0  0  0  0  0  0  0
   -2.6428    2.5538    0.3875 H   0  0  0  0  0  0  0  0  0  0  0  0
  1  2  1  0
  1  4  1  0
  1  5  1  0
  1  6  1  0
  2  3  2  3
  2  7  1  0
  3  8  1  0
  9 10  1  0
  9 14  1  0
  9 15  1  0
  9 16  1  0
 10 11  1  0
 10 17  1  0
 11 12  1  0
 12 13  1  0
 12 18  1  0
 12 19  1  0
 13 20  1  0
 13 21  1  0
 13 22  1  0
M  RAD  1  10   2
M  END
>  <reaction>  (13) 
rmg_rxn_16528

>  <mol_properties>  (13) 
{"1": {"label": "*0", "atom_type": "Cd"}, "2": {"label": "*1", "atom_type": "N3d"}, "7": {"label": "*2", "atom_type": "H0"}, "9": {"label": "*3", "atom_type": "Cs"}, "10": {"label": "*4", "atom_type": "O2s"}}

>  <type>  (13) 
unop_9

>  <geom_source>  (13) 
Heuristics

$$$$

     RDKit          3D

 22 20  0  0  0  0  0  0  0  0999 V2000
   -3.4314    0.3822   -0.3040 C   0  0  0  0  0  0  0  0  0  0  0  0
   -2.0033   -0.0684   -0.2569 C   0  0  0  0  0  0  0  0  0  0  0  0
   -1.3685   -0.1716    0.8054 N   0  0  0  0  0  0  0  0  0  0  0  0
   -3.5078    1.2818   -0.9130 H   0  0  0  0  0  0  0  0  0  0  0  0
   -4.0409   -0.3934   -0.7652 H   0  0  0  0  0  0  0  0  0  0  0  0
   -3.7959    0.5866    0.6988 H   0  0  0  0  0  0  0  0  0  0  0  0
   -1.5765   -0.2928   -1.2472 H   0  0  0  0  0  0  0  0  0  0  0  0
   -0.2041   -0.5499    0.6582 H   0  0  0  0  0  0  0  0  0  0  0  0
    0.9265   -2.3685   -0.1008 C   0  0  0  0  0  0  0  0  0  0  0  0
    1.0381   -0.9528    0.4069 C   0  0  0  0  0  3  0  0  0  0  0  0
    1.6004   -0.1193   -0.5540 O   0  0  0  0  0  0  0  0  0  0  0  0
    2.0790    1.1241   -0.0981 C   0  0  0  0  0  0  0  0  0  0  0  0
    0.9706    2.1388    0.1736 C   0  0  0  0  0  0  0  0  0  0  0  0
    1.9142   -2.8110   -0.2431 H   0  0  0  0  0  0  0  0  0  0  0  0
    0.3694   -2.9728    0.6100 H   0  0  0  0  0  0  0  0  0  0  0  0
    0.4132   -2.3790   -1.0593 H   0  0  0  0  0  0  0  0  0  0  0  0
    1.5385   -0.8705    1.3778 H   0  0  0  0  0  0  0  0  0  0  0  0
    2.7294    1.4872   -0.8994 H   0  0  0  0  0  0  0  0  0  0  0  0
    2.6826    0.9822    0.8106 H   0  0  0  0  0  0  0  0  0  0  0  0
    1.4115    3.0874    0.4673 H   0  0  0  0  0  0  0  0  0  0  0  0
    0.3156    1.7899    0.9680 H   0  0  0  0  0  0  0  0  0  0  0  0
    0.3757    2.2878   -0.7241 H   0  0  0  0  0  0  0  0  0  0  0  0
  1  2  1  0
  1  4  1  0
  1  5  1  0
  1  6  1  0
  2  3  2  3
  2  7  1  0
  3  8  1  0
  9 10  1  0
  9 14  1  0
  9 15  1  0
  9 16  1  0
 10 11  1  0
 10 17  1  0
 11 12  1  0
 12 13  1  0
 12 18  1  0
 12 19  1  0
 13 20  1  0
 13 21  1  0
 13 22  1  0
M  RAD  1  10   2
M  END
>  <reaction>  (14) 
rmg_rxn_16528

>  <mol_properties>  (14) 
{"1": {"label": "*0", "atom_type": "Cd"}, "2": {"label": "*1", "atom_type": "N3d"}, "7": {"label": "*2", "atom_type": "H0"}, "9": {"label": "*3", "atom_type": "Cs"}, "10": {"label": "*4", "atom_type": "O2s"}}

>  <type>  (14) 
unop_10

>  <geom_source>  (14) 
Heuristics

$$$$

     RDKit          3D

 22 20  0  0  0  0  0  0  0  0999 V2000
   -0.6861   -0.6679   -3.8033 C   0  0  0  0  0  0  0  0  0  0  0  0
   -0.6861   -0.6679   -2.3109 C   0  0  0  0  0  0  0  0  0  0  0  0
   -0.6861    0.4047   -1.6433 N   0  0  0  0  0  0  0  0  0  0  0  0
    0.1922   -1.1979   -4.1807 H   0  0  0  0  0  0  0  0  0  0  0  0
   -1.5643   -1.1979   -4.1807 H   0  0  0  0  0  0  0  0  0  0  0  0
   -0.6861    0.3527   -4.1819 H   0  0  0  0  0  0  0  0  0  0  0  0
   -0.6861   -1.6576   -1.8363 H   0  0  0  0  0  0  0  0  0  0  0  0
   -0.6861    0.1745   -0.4437 H   0  0  0  0  0  0  0  0  0  0  0  0
   -1.3940   -1.3780    1.1402 C   0  0  0  0  0  0  0  0  0  0  0  0
   -0.6861   -0.0742    0.8528 C   0  0  0  0  0  3  0  0  0  0  0  0
    0.4601    0.0108    1.6616 O   0  0  0  0  0  0  0  0  0  0  0  0
    1.1898    1.1958    1.4652 C   0  0  0  0  0  0  0  0  0  0  0  0
    2.3948    1.1871    2.3772 C   0  0  0  0  0  0  0  0  0  0  0  0
   -1.6896   -1.4292    2.1887 H   0  0  0  0  0  0  0  0  0  0  0  0
   -2.2891   -1.4663    0.5225 H   0  0  0  0  0  0  0  0  0  0  0  0
   -0.7395   -2.2235    0.9258 H   0  0  0  0  0  0  0  0  0  0  0  0
   -1.3521    0.7776    1.0553 H   0  0  0  0  0  0  0  0  0  0  0  0
    0.5535    2.0677    1.6775 H   0  0  0  0  0  0  0  0  0  0  0  0
    1.5041    1.2729    0.4138 H   0  0  0  0  0  0  0  0  0  0  0  0
    3.0339    0.3312    2.1577 H   0  0  0  0  0  0  0  0  0  0  0  0
    2.0838    1.1255    3.4206 H   0  0  0  0  0  0  0  0  0  0  0  0
    2.9778    2.0995    2.2419 H   0  0  0  0  0  0  0  0  0  0  0  0
  1  2  1  0
  1  4  1  0
  1  5  1  0
  1  6  1  0
  2  3  2  3
  2  7  1  0
  3  8  1  0
  9 10  1  0
  9 14  1  0
  9 15  1  0
  9 16  1  0
 10 11  1  0
 10 17  1  0
 11 12  1  0
 12 13  1  0
 12 18  1  0
 12 19  1  0
 13 20  1  0
 13 21  1  0
 13 22  1  0
M  RAD  1  10   2
M  END
>  <reaction>  (15) 
rmg_rxn_16528

>  <mol_properties>  (15) 
{"1": {"label": "*0", "atom_type": "Cd"}, "2": {"label": "*1", "atom_type": "N3d"}, "7": {"label": "*2", "atom_type": "H0"}, "9": {"label": "*3", "atom_type": "Cs"}, "10": {"label": "*4", "atom_type": "O2s"}}

>  <type>  (15) 
unop_11

>  <geom_source>  (15) 
Heuristics

$$$$

     RDKit          3D

 22 20  0  0  0  0  0  0  0  0999 V2000
   -0.0515   -1.3220   -3.4009 C   0  0  0  0  0  0  0  0  0  0  0  0
   -0.0515   -1.3220   -1.9086 C   0  0  0  0  0  0  0  0  0  0  0  0
   -0.0515   -0.2494   -1.2409 N   0  0  0  0  0  0  0  0  0  0  0  0
    0.8268   -1.8520   -3.7783 H   0  0  0  0  0  0  0  0  0  0  0  0
   -0.9297   -1.8520   -3.7783 H   0  0  0  0  0  0  0  0  0  0  0  0
   -0.0515   -0.3014   -3.7795 H   0  0  0  0  0  0  0  0  0  0  0  0
   -0.0515   -2.3117   -1.4339 H   0  0  0  0  0  0  0  0  0  0  0  0
   -0.0515   -0.4796   -0.0413 H   0  0  0  0  0  0  0  0  0  0  0  0
    1.1748   -1.5231    1.6403 C   0  0  0  0  0  0  0  0  0  0  0  0
   -0.0515   -0.7283    1.2552 C   0  0  0  0  0  3  0  0  0  0  0  0
    0.2473    0.6422    1.3408 O   0  0  0  0  0  0  0  0  0  0  0  0
   -0.8375    1.4679    0.9995 C   0  0  0  0  0  0  0  0  0  0  0  0
   -0.4128    2.9129    1.1239 C   0  0  0  0  0  0  0  0  0  0  0  0
    1.4798   -1.2850    2.6598 H   0  0  0  0  0  0  0  0  0  0  0  0
    0.9661   -2.5925    1.5810 H   0  0  0  0  0  0  0  0  0  0  0  0
    2.0045   -1.2938    0.9707 H   0  0  0  0  0  0  0  0  0  0  0  0
   -0.8920   -0.9714    1.9220 H   0  0  0  0  0  0  0  0  0  0  0  0
   -1.6905    1.2597    1.6623 H   0  0  0  0  0  0  0  0  0  0  0  0
   -1.1655    1.2508   -0.0279 H   0  0  0  0  0  0  0  0  0  0  0  0
    0.4234    3.1241    0.4565 H   0  0  0  0  0  0  0  0  0  0  0  0
   -0.1013    3.1330    2.1456 H   0  0  0  0  0  0  0  0  0  0  0  0
   -1.2407    3.5740    0.8633 H   0  0  0  0  0  0  0  0  0  0  0  0
  1  2  1  0
  1  4  1  0
  1  5  1  0
  1  6  1  0
  2  3  2  3
  2  7  1  0
  3  8  1  0
  9 10  1  0
  9 14  1  0
  9 15  1  0
  9 16  1  0
 10 11  1  0
 10 17  1  0
 11 12  1  0
 12 13  1  0
 12 18  1  0
 12 19  1  0
 13 20  1  0
 13 21  1  0
 13 22  1  0
M  RAD  1  10   2
M  END
>  <reaction>  (16) 
rmg_rxn_16528

>  <mol_properties>  (16) 
{"1": {"label": "*0", "atom_type": "Cd"}, "2": {"label": "*1", "atom_type": "N3d"}, "7": {"label": "*2", "atom_type": "H0"}, "9": {"label": "*3", "atom_type": "Cs"}, "10": {"label": "*4", "atom_type": "O2s"}}

>  <type>  (16) 
unop_12

>  <geom_source>  (16) 
Heuristics

$$$$

     RDKit          3D

 22 20  0  0  0  0  0  0  0  0999 V2000
    0.0286    0.2576   -3.6969 C   0  0  0  0  0  0  0  0  0  0  0  0
    0.0286    0.2576   -2.2046 C   0  0  0  0  0  0  0  0  0  0  0  0
    0.0286    1.3303   -1.5369 N   0  0  0  0  0  0  0  0  0  0  0  0
    0.9069   -0.2724   -4.0744 H   0  0  0  0  0  0  0  0  0  0  0  0
   -0.8496   -0.2724   -4.0744 H   0  0  0  0  0  0  0  0  0  0  0  0
    0.0286    1.2782   -4.0755 H   0  0  0  0  0  0  0  0  0  0  0  0
    0.0286   -0.7321   -1.7300 H   0  0  0  0  0  0  0  0  0  0  0  0
    0.0286    1.1001   -0.3373 H   0  0  0  0  0  0  0  0  0  0  0  0
   -0.6793    1.9561    1.7087 C   0  0  0  0  0  0  0  0  0  0  0  0
    0.0286    0.8513    0.9592 C   0  0  0  0  0  3  0  0  0  0  0  0
   -0.1512   -0.3583    1.6517 O   0  0  0  0  0  0  0  0  0  0  0  0
    0.4745   -1.4515    1.0286 C   0  0  0  0  0  0  0  0  0  0  0  0
    0.2213   -2.6951    1.8490 C   0  0  0  0  0  0  0  0  0  0  0  0
   -0.2736    2.0553    2.7161 H   0  0  0  0  0  0  0  0  0  0  0  0
   -0.5532    2.9069    1.1885 H   0  0  0  0  0  0  0  0  0  0  0  0
   -1.7458    1.7422    1.7870 H   0  0  0  0  0  0  0  0  0  0  0  0
    1.1018    1.0753    0.8678 H   0  0  0  0  0  0  0  0  0  0  0  0
    1.5548   -1.2640    0.9383 H   0  0  0  0  0  0  0  0  0  0  0  0
    0.0817   -1.5773    0.0087 H   0  0  0  0  0  0  0  0  0  0  0  0
   -0.8488   -2.8902    1.9267 H   0  0  0  0  0  0  0  0  0  0  0  0
    0.6234   -2.5771    2.8558 H   0  0  0  0  0  0  0  0  0  0  0  0
    0.6987   -3.5588    1.3835 H   0  0  0  0  0  0  0  0  0  0  0  0
  1  2  1  0
  1  4  1  0
  1  5  1  0
  1  6  1  0
  2  3  2  3
  2  7  1  0
  3  8  1  0
  9 10  1  0
  9 14  1  0
  9 15  1  0
  9 16  1  0
 10 11  1  0
 10 17  1  0
 11 12  1  0
 12 13  1  0
 12 18  1  0
 12 19  1  0
 13 20  1  0
 13 21  1  0
 13 22  1  0
M  RAD  1  10   2
M  END
>  <reaction>  (17) 
rmg_rxn_16528

>  <mol_properties>  (17) 
{"1": {"label": "*0", "atom_type": "Cd"}, "2": {"label": "*1", "atom_type": "N3d"}, "7": {"label": "*2", "atom_type": "H0"}, "9": {"label": "*3", "atom_type": "Cs"}, "10": {"label": "*4", "atom_type": "O2s"}}

>  <type>  (17) 
unop_13

>  <geom_source>  (17) 
Heuristics

$$$$

     RDKit          3D

 22 20  0  0  0  0  0  0  0  0999 V2000
   -0.6201   -0.9440   -3.6912 C   0  0  0  0  0  0  0  0  0  0  0  0
   -0.6201   -0.9440   -2.1989 C   0  0  0  0  0  0  0  0  0  0  0  0
   -0.6201    0.1286   -1.5312 N   0  0  0  0  0  0  0  0  0  0  0  0
    0.2582   -1.4740   -4.0686 H   0  0  0  0  0  0  0  0  0  0  0  0
   -1.4984   -1.4740   -4.0686 H   0  0  0  0  0  0  0  0  0  0  0  0
   -0.6201    0.0766   -4.0698 H   0  0  0  0  0  0  0  0  0  0  0  0
   -0.6201   -1.9337   -1.7242 H   0  0  0  0  0  0  0  0  0  0  0  0
   -0.6201   -0.1016   -0.3316 H   0  0  0  0  0  0  0  0  0  0  0  0
   -0.6201   -1.8404    1.2166 C   0  0  0  0  0  0  0  0  0  0  0  0
   -0.6201   -0.3503    0.9649 C   0  0  0  0  0  3  0  0  0  0  0  0
    0.5209    0.2134    1.5610 O   0  0  0  0  0  0  0  0  0  0  0  0
    0.6104    1.6042    1.3803 C   0  0  0  0  0  0  0  0  0  0  0  0
    1.8652    2.1073    2.0556 C   0  0  0  0  0  0  0  0  0  0  0  0
   -0.6350   -2.0470    2.2873 H   0  0  0  0  0  0  0  0  0  0  0  0
   -1.4988   -2.3005    0.7619 H   0  0  0  0  0  0  0  0  0  0  0  0
    0.2722   -2.2999    0.7900 H   0  0  0  0  0  0  0  0  0  0  0  0
   -1.5278    0.1100    1.3826 H   0  0  0  0  0  0  0  0  0  0  0  0
   -0.2778    2.0955    1.8046 H   0  0  0  0  0  0  0  0  0  0  0  0
    0.6299    1.8425    0.3065 H   0  0  0  0  0  0  0  0  0  0  0  0
    2.7474    1.6318    1.6257 H   0  0  0  0  0  0  0  0  0  0  0  0
    1.8402    1.8847    3.1229 H   0  0  0  0  0  0  0  0  0  0  0  0
    1.9560    3.1872    1.9282 H   0  0  0  0  0  0  0  0  0  0  0  0
  1  2  1  0
  1  4  1  0
  1  5  1  0
  1  6  1  0
  2  3  2  3
  2  7  1  0
  3  8  1  0
  9 10  1  0
  9 14  1  0
  9 15  1  0
  9 16  1  0
 10 11  1  0
 10 17  1  0
 11 12  1  0
 12 13  1  0
 12 18  1  0
 12 19  1  0
 13 20  1  0
 13 21  1  0
 13 22  1  0
M  RAD  1  10   2
M  END
>  <reaction>  (18) 
rmg_rxn_16528

>  <mol_properties>  (18) 
{"1": {"label": "*0", "atom_type": "Cd"}, "2": {"label": "*1", "atom_type": "N3d"}, "7": {"label": "*2", "atom_type": "H0"}, "9": {"label": "*3", "atom_type": "Cs"}, "10": {"label": "*4", "atom_type": "O2s"}}

>  <type>  (18) 
unop_14

>  <geom_source>  (18) 
Heuristics

$$$$

     RDKit          3D

 22 20  0  0  0  0  0  0  0  0999 V2000
   -0.4024   -1.2009   -3.5400 C   0  0  0  0  0  0  0  0  0  0  0  0
   -0.4024   -1.2009   -2.0477 C   0  0  0  0  0  0  0  0  0  0  0  0
   -0.4024   -0.1283   -1.3800 N   0  0  0  0  0  0  0  0  0  0  0  0
    0.4759   -1.7309   -3.9175 H   0  0  0  0  0  0  0  0  0  0  0  0
   -1.2806   -1.7309   -3.9175 H   0  0  0  0  0  0  0  0  0  0  0  0
   -0.4024   -0.1803   -3.9186 H   0  0  0  0  0  0  0  0  0  0  0  0
   -0.4024   -2.1906   -1.5731 H   0  0  0  0  0  0  0  0  0  0  0  0
   -0.4024   -0.3585   -0.1804 H   0  0  0  0  0  0  0  0  0  0  0  0
    0.3056   -1.9110    1.4035 C   0  0  0  0  0  0  0  0  0  0  0  0
   -0.4024   -0.6072    1.1161 C   0  0  0  0  0  3  0  0  0  0  0  0
    0.4542    0.4586    1.4405 O   0  0  0  0  0  0  0  0  0  0  0  0
   -0.1184    1.7205    1.2061 C   0  0  0  0  0  0  0  0  0  0  0  0
    0.8791    2.7904    1.5854 C   0  0  0  0  0  0  0  0  0  0  0  0
    0.5751   -1.9750    2.4583 H   0  0  0  0  0  0  0  0  0  0  0  0
   -0.3417   -2.7546    1.1587 H   0  0  0  0  0  0  0  0  0  0  0  0
    1.2173   -1.9896    0.8103 H   0  0  0  0  0  0  0  0  0  0  0  0
   -1.3295   -0.5356    1.7039 H   0  0  0  0  0  0  0  0  0  0  0  0
   -1.0411    1.8289    1.7954 H   0  0  0  0  0  0  0  0  0  0  0  0
   -0.3985    1.8144    0.1464 H   0  0  0  0  0  0  0  0  0  0  0  0
    1.7885    2.6927    0.9915 H   0  0  0  0  0  0  0  0  0  0  0  0
    1.1462    2.7073    2.6394 H   0  0  0  0  0  0  0  0  0  0  0  0
    0.4555    3.7808    1.4116 H   0  0  0  0  0  0  0  0  0  0  0  0
  1  2  1  0
  1  4  1  0
  1  5  1  0
  1  6  1  0
  2  3  2  3
  2  7  1  0
  3  8  1  0
  9 10  1  0
  9 14  1  0
  9 15  1  0
  9 16  1  0
 10 11  1  0
 10 17  1  0
 11 12  1  0
 12 13  1  0
 12 18  1  0
 12 19  1  0
 13 20  1  0
 13 21  1  0
 13 22  1  0
M  RAD  1  10   2
M  END
>  <reaction>  (19) 
rmg_rxn_16528

>  <mol_properties>  (19) 
{"1": {"label": "*0", "atom_type": "Cd"}, "2": {"label": "*1", "atom_type": "N3d"}, "7": {"label": "*2", "atom_type": "H0"}, "9": {"label": "*3", "atom_type": "Cs"}, "10": {"label": "*4", "atom_type": "O2s"}}

>  <type>  (19) 
unop_15

>  <geom_source>  (19) 
gaussian_log

$$$$
