
     RDKit          3D

 14 14  0  0  0  0  0  0  0  0999 V2000
   -1.1778    0.2241    0.1818 C   0  0  0  0  0  0  0  0  0  0  0  0
   -0.5633   -1.1636    0.0678 C   0  0  0  0  0  0  0  0  0  0  0  0
    0.6943   -1.1996    0.7146 O   0  0  0  0  0  0  0  0  0  0  0  0
    1.5547   -0.2288    0.2011 C   0  0  0  0  0  0  0  0  0  0  0  0
    1.0729    1.0696    0.3698 O   0  0  0  0  0  0  0  0  0  0  0  0
   -0.1607    1.2493   -0.2989 C   0  0  0  0  0  0  0  0  0  0  0  0
   -2.0927    0.2866   -0.4117 H   0  0  0  0  0  0  0  0  0  0  0  0
   -1.4303    0.4248    1.2248 H   0  0  0  0  0  0  0  0  0  0  0  0
   -1.1822   -1.9235    0.5431 H   0  0  0  0  0  0  0  0  0  0  0  0
   -0.4389   -1.4347   -0.9919 H   0  0  0  0  0  0  0  0  0  0  0  0
    1.7250   -0.4207   -0.8742 H   0  0  0  0  0  0  0  0  0  0  0  0
    2.4896   -0.3010    0.7524 H   0  0  0  0  0  0  0  0  0  0  0  0
   -0.0080    1.1481   -1.3844 H   0  0  0  0  0  0  0  0  0  0  0  0
   -0.4826    2.2695   -0.0942 H   0  0  0  0  0  0  0  0  0  0  0  0
  1  2  1  0
  1  6  1  0
  1  7  1  0
  1  8  1  0
  2  3  1  0
  2  9  1  0
  2 10  1  0
  3  4  1  0
  4  5  1  0
  4 11  1  0
  4 12  1  0
  5  6  1  0
  6 13  1  0
  6 14  1  0
M  END
>  <reaction>  (1) 
rmg_rxn_340

>  <mol_properties>  (1) 
{"1": {"label": "donator", "atom_type": "Cs"}, "8": {"label": "d_hydrogen", "atom_type": "H0"}}

>  <type>  (1) 
r1h

$$$$

     RDKit          3D

 17 16  0  0  0  0  0  0  0  0999 V2000
   -2.5196    0.7765    0.6863 C   0  0  0  0  0  0  0  0  0  0  0  0
   -1.7832    0.2264   -0.5439 C   0  0  0  0  0  0  0  0  0  0  0  0
   -0.5364   -0.5090   -0.2164 C   0  0  0  0  0  3  0  0  0  0  0  0
   -0.7195   -1.6896    0.4220 O   0  0  0  0  0  0  0  0  0  0  0  0
    0.4618   -2.3470    0.8423 C   0  0  0  0  0  0  0  0  0  0  0  0
    0.0797   -3.6206    1.5573 C   0  0  0  0  0  0  0  0  0  0  0  0
   -1.8902    1.4809    1.2340 H   0  0  0  0  0  0  0  0  0  0  0  0
   -3.4347    1.2951    0.3937 H   0  0  0  0  0  0  0  0  0  0  0  0
   -2.7882   -0.0345    1.3642 H   0  0  0  0  0  0  0  0  0  0  0  0
   -2.4551   -0.4399   -1.0937 H   0  0  0  0  0  0  0  0  0  0  0  0
   -1.5294    1.0480   -1.2176 H   0  0  0  0  0  0  0  0  0  0  0  0
    0.3864    0.0229    0.0104 H   0  0  0  0  0  0  0  0  0  0  0  0
    1.0871   -2.5604   -0.0319 H   0  0  0  0  0  0  0  0  0  0  0  0
    1.0283   -1.6824    1.5065 H   0  0  0  0  0  0  0  0  0  0  0  0
   -0.4799   -4.2803    0.8934 H   0  0  0  0  0  0  0  0  0  0  0  0
    0.9764   -4.1449    1.8908 H   0  0  0  0  0  0  0  0  0  0  0  0
   -0.5383   -3.4025    2.4289 H   0  0  0  0  0  0  0  0  0  0  0  0
  1  2  1  0
  1  7  1  0
  1  8  1  0
  1  9  1  0
  2  3  1  0
  2 10  1  0
  2 11  1  0
  3  4  1  0
  3 12  1  0
  4  5  1  0
  5  6  1  0
  5 13  1  0
  5 14  1  0
  6 15  1  0
  6 16  1  0
  6 17  1  0
M  RAD  1   3   2
M  END
>  <reaction>  (2) 
rmg_rxn_340

>  <mol_properties>  (2) 
{"2": {"label": "acceptor", "atom_type": "Cs"}}

>  <type>  (2) 
r2

$$$$

     RDKit          3D

 18 17  0  0  0  0  0  0  0  0999 V2000
    2.2026   -0.7213   -0.2612 C   0  0  0  0  0  0  0  0  0  0  0  0
    1.5384    0.2638    0.6915 C   0  0  0  0  0  0  0  0  0  0  0  0
    2.2584    1.5946    0.7694 C   0  0  0  0  0  0  0  0  0  0  0  0
    2.2212    2.2185   -0.4893 O   0  0  0  0  0  0  0  0  0  0  0  0
    2.8988    3.4488   -0.5204 C   0  0  0  0  0  0  0  0  0  0  0  0
    2.7981    4.0296   -1.9118 C   0  0  0  0  0  0  0  0  0  0  0  0
    3.2294   -0.9309    0.0486 H   0  0  0  0  0  0  0  0  0  0  0  0
    2.2338   -0.3181   -1.2734 H   0  0  0  0  0  0  0  0  0  0  0  0
    1.6610   -1.6680   -0.2875 H   0  0  0  0  0  0  0  0  0  0  0  0
    1.4990   -0.1566    1.7002 H   0  0  0  0  0  0  0  0  0  0  0  0
    0.5055    0.4455    0.3835 H   0  0  0  0  0  0  0  0  0  0  0  0
    3.3038    1.4410    1.0808 H   0  0  0  0  0  0  0  0  0  0  0  0
    1.7844    2.2410    1.5226 H   0  0  0  0  0  0  0  0  0  0  0  0
    2.4596    4.1376    0.2164 H   0  0  0  0  0  0  0  0  0  0  0  0
    3.9524    3.3035   -0.2397 H   0  0  0  0  0  0  0  0  0  0  0  0
    1.7543    4.1869   -2.1856 H   0  0  0  0  0  0  0  0  0  0  0  0
    3.2472    3.3545   -2.6411 H   0  0  0  0  0  0  0  0  0  0  0  0
    3.3178    4.9878   -1.9600 H   0  0  0  0  0  0  0  0  0  0  0  0
  1  2  1  0
  1  7  1  0
  1  8  1  0
  1  9  1  0
  2  3  1  0
  2 10  1  0
  2 11  1  0
  3  4  1  0
  3 12  1  0
  3 13  1  0
  4  5  1  0
  5  6  1  0
  5 14  1  0
  5 15  1  0
  6 16  1  0
  6 17  1  0
  6 18  1  0
M  END
>  <reaction>  (3) 
rmg_rxn_340

>  <mol_properties>  (3) 
{"0": {"label": "a_hydrogen", "atom_type": "H0"}, "3": {"label": "acceptor", "atom_type": "Cs"}}

>  <type>  (3) 
r2h

$$$$

     RDKit          3D

 31 30  0  0  0  0  0  0  0  0999 V2000
   -0.0184    0.6999   -1.3200 C   0  0  0  0  0  0  0  0  0  0  0  0
    1.1427    0.6623   -0.3609 C   0  0  0  0  0  3  0  0  0  0  0  0
    1.0128    1.5945    0.6733 O   0  0  0  0  0  0  0  0  0  0  0  0
    0.7736    2.8898    0.1890 C   0  0  0  0  0  0  0  0  0  0  0  0
   -0.3821    2.9680   -0.5818 O   0  0  0  0  0  0  0  0  0  0  0  0
   -0.2888    2.1454   -1.7302 C   0  0  0  0  0  0  0  0  0  0  0  0
    0.1922    0.0866   -2.1978 H   0  0  0  0  0  0  0  0  0  0  0  0
   -0.9084    0.2910   -0.8343 H   0  0  0  0  0  0  0  0  0  0  0  0
    1.0759   -0.5644    0.3188 H   0  0  0  0  0  0  0  0  0  0  0  0
    2.1334    0.7029   -0.8290 H   0  0  0  0  0  0  0  0  0  0  0  0
    1.6426    3.2203   -0.4063 H   0  0  0  0  0  0  0  0  0  0  0  0
    0.6346    3.5348    1.0541 H   0  0  0  0  0  0  0  0  0  0  0  0
    0.5189    2.5130   -2.3798 H   0  0  0  0  0  0  0  0  0  0  0  0
   -1.2332    2.2459   -2.2642 H   0  0  0  0  0  0  0  0  0  0  0  0
    1.0579   -2.8946   -1.2327 C   0  0  0  0  0  0  0  0  0  0  0  0
    1.4594   -2.8000    0.2351 C   0  0  0  0  0  0  0  0  0  0  0  0
    0.7914   -1.6679    0.9679 C   0  0  0  0  0  0  0  0  0  0  0  0
   -0.5839   -1.8002    0.9634 O   0  0  0  0  0  0  0  0  0  0  0  0
   -1.2552   -0.8876    1.8132 C   0  0  0  0  0  0  0  0  0  0  0  0
   -2.7418   -1.0246    1.5893 C   0  0  0  0  0  0  0  0  0  0  0  0
    1.3664   -2.0007   -1.7789 H   0  0  0  0  0  0  0  0  0  0  0  0
    1.5261   -3.7560   -1.7106 H   0  0  0  0  0  0  0  0  0  0  0  0
   -0.0231   -2.9940   -1.3328 H   0  0  0  0  0  0  0  0  0  0  0  0
    1.2207   -3.7406    0.7439 H   0  0  0  0  0  0  0  0  0  0  0  0
    2.5404   -2.6621    0.3205 H   0  0  0  0  0  0  0  0  0  0  0  0
    1.1915   -1.4951    1.9745 H   0  0  0  0  0  0  0  0  0  0  0  0
   -0.9954   -1.1090    2.8570 H   0  0  0  0  0  0  0  0  0  0  0  0
   -0.9197    0.1332    1.6000 H   0  0  0  0  0  0  0  0  0  0  0  0
   -3.0710   -2.0445    1.7915 H   0  0  0  0  0  0  0  0  0  0  0  0
   -3.2841   -0.3466    2.2498 H   0  0  0  0  0  0  0  0  0  0  0  0
   -2.9984   -0.7781    0.5578 H   0  0  0  0  0  0  0  0  0  0  0  0
  1  2  1  0
  1  6  1  0
  1  7  1  0
  1  8  1  0
  2  3  1  0
  2 10  1  0
  3  4  1  0
  4  5  1  0
  4 11  1  0
  4 12  1  0
  5  6  1  0
  6 13  1  0
  6 14  1  0
  9 17  1  0
 15 16  1  0
 15 21  1  0
 15 22  1  0
 15 23  1  0
 16 17  1  0
 16 24  1  0
 16 25  1  0
 17 18  1  0
 17 26  1  0
 18 19  1  0
 19 20  1  0
 19 27  1  0
 19 28  1  0
 20 29  1  0
 20 30  1  0
 20 31  1  0
M  RAD  1   2   2
M  END
>  <reaction>  (4) 
rmg_rxn_340

>  <mol_properties>  (4) 
{"1": {"label": "*3", "atom_type": "Cs"}, "2": {"label": "*4", "atom_type": "O2s"}, "8": {"label": "*2", "atom_type": "H0"}, "16": {"label": "*1", "atom_type": "Cs"}, "17": {"label": "*0", "atom_type": "O2s"}}

>  <type>  (4) 
ts

$$$$

     RDKit          3D

 31 30  0  0  0  0  0  0  0  0999 V2000
    0.5936    1.1399   -1.4567 C   0  0  0  0  0  0  0  0  0  0  0  0
    0.5936    1.1399    0.0654 C   0  0  0  0  0  0  0  0  0  0  0  0
   -0.4547    1.9525    0.5575 O   0  0  0  0  0  0  0  0  0  0  0  0
   -0.3638    3.2520    0.0582 C   0  0  0  0  0  0  0  0  0  0  0  0
   -0.4547    3.3082   -1.3329 O   0  0  0  0  0  0  0  0  0  0  0  0
    0.5936    2.5815   -1.9448 C   0  0  0  0  0  0  0  0  0  0  0  0
    1.4676    0.6074   -1.8385 H   0  0  0  0  0  0  0  0  0  0  0  0
   -0.3030    0.6337   -1.8197 H   0  0  0  0  0  0  0  0  0  0  0  0
    0.4028   -0.0571    0.5542 H   0  0  0  0  0  0  0  0  0  0  0  0
    1.5572    1.5158    0.4421 H   0  0  0  0  0  0  0  0  0  0  0  0
    0.5915    3.7041    0.3824 H   0  0  0  0  0  0  0  0  0  0  0  0
   -1.2049    3.8125    0.4601 H   0  0  0  0  0  0  0  0  0  0  0  0
    1.5572    3.0589   -1.7095 H   0  0  0  0  0  0  0  0  0  0  0  0
    0.4346    2.6474   -3.0202 H   0  0  0  0  0  0  0  0  0  0  0  0
    2.4050   -2.5323    1.1544 C   0  0  0  0  0  0  0  0  0  0  0  0
    1.3930   -1.6750    1.9028 C   0  0  0  0  0  0  0  0  0  0  0  0
    0.2099   -1.2678    1.0486 C   0  0  0  0  0  3  0  0  0  0  0  0
   -0.4992   -2.4163    0.6573 O   0  0  0  0  0  0  0  0  0  0  0  0
   -1.5983   -2.1359   -0.1715 C   0  0  0  0  0  0  0  0  0  0  0  0
   -2.2850   -3.4328   -0.5318 C   0  0  0  0  0  0  0  0  0  0  0  0
    2.8044   -1.9974    0.2891 H   0  0  0  0  0  0  0  0  0  0  0  0
    3.2439   -2.8014    1.7979 H   0  0  0  0  0  0  0  0  0  0  0  0
    1.9419   -3.4514    0.7955 H   0  0  0  0  0  0  0  0  0  0  0  0
    1.0202   -2.2128    2.7784 H   0  0  0  0  0  0  0  0  0  0  0  0
    1.8714   -0.7632    2.2710 H   0  0  0  0  0  0  0  0  0  0  0  0
   -0.4514   -0.5919    1.6104 H   0  0  0  0  0  0  0  0  0  0  0  0
   -2.2967   -1.4621    0.3467 H   0  0  0  0  0  0  0  0  0  0  0  0
   -1.2597   -1.6149   -1.0793 H   0  0  0  0  0  0  0  0  0  0  0  0
   -2.6332   -3.9433    0.3668 H   0  0  0  0  0  0  0  0  0  0  0  0
   -3.1441   -3.2395   -1.1762 H   0  0  0  0  0  0  0  0  0  0  0  0
   -1.5979   -4.0953   -1.0595 H   0  0  0  0  0  0  0  0  0  0  0  0
  1  2  1  0
  1  6  1  0
  1  7  1  0
  1  8  1  0
  2  3  1  0
  2  9  1  0
  2 10  1  0
  3  4  1  0
  4  5  1  0
  4 11  1  0
  4 12  1  0
  5  6  1  0
  6 13  1  0
  6 14  1  0
 15 16  1  0
 15 21  1  0
 15 22  1  0
 15 23  1  0
 16 17  1  0
 16 24  1  0
 16 25  1  0
 17 18  1  0
 17 26  1  0
 18 19  1  0
 19 20  1  0
 19 27  1  0
 19 28  1  0
 20 29  1  0
 20 30  1  0
 20 31  1  0
M  RAD  1  17   2
M  END
>  <reaction>  (5) 
rmg_rxn_340

>  <mol_properties>  (5) 
{"1": {"label": "*3", "atom_type": "Cs"}, "2": {"label": "*4", "atom_type": "O2s"}, "8": {"label": "*2", "atom_type": "H0"}, "16": {"label": "*1", "atom_type": "Cs"}, "17": {"label": "*0", "atom_type": "O2s"}}

>  <type>  (5) 
unop_1

>  <geom_source>  (5) 
Heuristics

$$$$

     RDKit          3D

 31 30  0  0  0  0  0  0  0  0999 V2000
    0.9588    0.8439   -1.7049 C   0  0  0  0  0  0  0  0  0  0  0  0
    0.9588    0.8439   -0.1828 C   0  0  0  0  0  0  0  0  0  0  0  0
   -0.0895    1.6565    0.3093 O   0  0  0  0  0  0  0  0  0  0  0  0
    0.0014    2.9561   -0.1900 C   0  0  0  0  0  0  0  0  0  0  0  0
   -0.0895    3.0122   -1.5811 O   0  0  0  0  0  0  0  0  0  0  0  0
    0.9588    2.2855   -2.1930 C   0  0  0  0  0  0  0  0  0  0  0  0
    1.8328    0.3114   -2.0867 H   0  0  0  0  0  0  0  0  0  0  0  0
    0.0622    0.3377   -2.0679 H   0  0  0  0  0  0  0  0  0  0  0  0
    0.7681   -0.3531    0.3060 H   0  0  0  0  0  0  0  0  0  0  0  0
    1.9224    1.2199    0.1939 H   0  0  0  0  0  0  0  0  0  0  0  0
    0.9568    3.4081    0.1342 H   0  0  0  0  0  0  0  0  0  0  0  0
   -0.8396    3.5166    0.2119 H   0  0  0  0  0  0  0  0  0  0  0  0
    1.9224    2.7629   -1.9577 H   0  0  0  0  0  0  0  0  0  0  0  0
    0.7999    2.3515   -3.2684 H   0  0  0  0  0  0  0  0  0  0  0  0
    0.2485   -2.8339   -1.3695 C   0  0  0  0  0  0  0  0  0  0  0  0
    1.1294   -2.6070   -0.1482 C   0  0  0  0  0  0  0  0  0  0  0  0
    0.5752   -1.5638    0.8004 C   0  0  0  0  0  3  0  0  0  0  0  0
   -0.6561   -2.0074    1.3125 O   0  0  0  0  0  0  0  0  0  0  0  0
   -1.2636   -1.0831    2.1786 C   0  0  0  0  0  0  0  0  0  0  0  0
   -2.5734   -1.6562    2.6678 C   0  0  0  0  0  0  0  0  0  0  0  0
    0.1315   -1.9107   -1.9425 H   0  0  0  0  0  0  0  0  0  0  0  0
    0.6808   -3.5859   -2.0313 H   0  0  0  0  0  0  0  0  0  0  0  0
   -0.7443   -3.1716   -1.0721 H   0  0  0  0  0  0  0  0  0  0  0  0
    1.2572   -3.5431    0.4015 H   0  0  0  0  0  0  0  0  0  0  0  0
    2.1267   -2.2831   -0.4586 H   0  0  0  0  0  0  0  0  0  0  0  0
    1.2813   -1.3841    1.6243 H   0  0  0  0  0  0  0  0  0  0  0  0
   -0.5966   -0.8695    3.0271 H   0  0  0  0  0  0  0  0  0  0  0  0
   -1.4326   -0.1318    1.6526 H   0  0  0  0  0  0  0  0  0  0  0  0
   -2.4054   -2.5923    3.2014 H   0  0  0  0  0  0  0  0  0  0  0  0
   -3.0641   -0.9545    3.3441 H   0  0  0  0  0  0  0  0  0  0  0  0
   -3.2413   -1.8537    1.8285 H   0  0  0  0  0  0  0  0  0  0  0  0
  1  2  1  0
  1  6  1  0
  1  7  1  0
  1  8  1  0
  2  3  1  0
  2  9  1  0
  2 10  1  0
  3  4  1  0
  4  5  1  0
  4 11  1  0
  4 12  1  0
  5  6  1  0
  6 13  1  0
  6 14  1  0
 15 16  1  0
 15 21  1  0
 15 22  1  0
 15 23  1  0
 16 17  1  0
 16 24  1  0
 16 25  1  0
 17 18  1  0
 17 26  1  0
 18 19  1  0
 19 20  1  0
 19 27  1  0
 19 28  1  0
 20 29  1  0
 20 30  1  0
 20 31  1  0
M  RAD  1  17   2
M  END
>  <reaction>  (6) 
rmg_rxn_340

>  <mol_properties>  (6) 
{"1": {"label": "*3", "atom_type": "Cs"}, "2": {"label": "*4", "atom_type": "O2s"}, "8": {"label": "*2", "atom_type": "H0"}, "16": {"label": "*1", "atom_type": "Cs"}, "17": {"label": "*0", "atom_type": "O2s"}}

>  <type>  (6) 
unop_2

>  <geom_source>  (6) 
Heuristics

$$$$

     RDKit          3D

 31 30  0  0  0  0  0  0  0  0999 V2000
    0.3131    1.1307   -1.4288 C   0  0  0  0  0  0  0  0  0  0  0  0
    0.3131    1.1307    0.0933 C   0  0  0  0  0  0  0  0  0  0  0  0
   -0.7352    1.9434    0.5854 O   0  0  0  0  0  0  0  0  0  0  0  0
   -0.6443    3.2429    0.0860 C   0  0  0  0  0  0  0  0  0  0  0  0
   -0.7352    3.2991   -1.3050 O   0  0  0  0  0  0  0  0  0  0  0  0
    0.3131    2.5724   -1.9169 C   0  0  0  0  0  0  0  0  0  0  0  0
    1.1871    0.5983   -1.8106 H   0  0  0  0  0  0  0  0  0  0  0  0
   -0.5835    0.6246   -1.7918 H   0  0  0  0  0  0  0  0  0  0  0  0
    0.1223   -0.0663    0.5821 H   0  0  0  0  0  0  0  0  0  0  0  0
    1.2767    1.5067    0.4700 H   0  0  0  0  0  0  0  0  0  0  0  0
    0.3110    3.6950    0.4103 H   0  0  0  0  0  0  0  0  0  0  0  0
   -1.4854    3.8034    0.4880 H   0  0  0  0  0  0  0  0  0  0  0  0
    1.2767    3.0498   -1.6816 H   0  0  0  0  0  0  0  0  0  0  0  0
    0.1541    2.6383   -2.9923 H   0  0  0  0  0  0  0  0  0  0  0  0
    2.0932   -1.8080    2.2866 C   0  0  0  0  0  0  0  0  0  0  0  0
    0.6288   -1.4098    2.4138 C   0  0  0  0  0  0  0  0  0  0  0  0
   -0.0706   -1.2769    1.0764 C   0  0  0  0  0  3  0  0  0  0  0  0
   -0.0839   -2.5256    0.4318 O   0  0  0  0  0  0  0  0  0  0  0  0
   -0.6845   -2.4898   -0.8377 C   0  0  0  0  0  0  0  0  0  0  0  0
   -0.6447   -3.8756   -1.4389 C   0  0  0  0  0  0  0  0  0  0  0  0
    2.6495   -1.0671    1.7071 H   0  0  0  0  0  0  0  0  0  0  0  0
    2.5647   -1.8887    3.2671 H   0  0  0  0  0  0  0  0  0  0  0  0
    2.1894   -2.7692    1.7818 H   0  0  0  0  0  0  0  0  0  0  0  0
    0.0903   -2.1467    3.0154 H   0  0  0  0  0  0  0  0  0  0  0  0
    0.5431   -0.4520    2.9346 H   0  0  0  0  0  0  0  0  0  0  0  0
   -1.1003   -0.9173    1.2187 H   0  0  0  0  0  0  0  0  0  0  0  0
   -1.7232   -2.1378   -0.7515 H   0  0  0  0  0  0  0  0  0  0  0  0
   -0.1532   -1.7751   -1.4835 H   0  0  0  0  0  0  0  0  0  0  0  0
   -1.1830   -4.5822   -0.8062 H   0  0  0  0  0  0  0  0  0  0  0  0
   -1.1072   -3.8724   -2.4271 H   0  0  0  0  0  0  0  0  0  0  0  0
    0.3855   -4.2192   -1.5392 H   0  0  0  0  0  0  0  0  0  0  0  0
  1  2  1  0
  1  6  1  0
  1  7  1  0
  1  8  1  0
  2  3  1  0
  2  9  1  0
  2 10  1  0
  3  4  1  0
  4  5  1  0
  4 11  1  0
  4 12  1  0
  5  6  1  0
  6 13  1  0
  6 14  1  0
 15 16  1  0
 15 21  1  0
 15 22  1  0
 15 23  1  0
 16 17  1  0
 16 24  1  0
 16 25  1  0
 17 18  1  0
 17 26  1  0
 18 19  1  0
 19 20  1  0
 19 27  1  0
 19 28  1  0
 20 29  1  0
 20 30  1  0
 20 31  1  0
M  RAD  1  17   2
M  END
>  <reaction>  (7) 
rmg_rxn_340

>  <mol_properties>  (7) 
{"1": {"label": "*3", "atom_type": "Cs"}, "2": {"label": "*4", "atom_type": "O2s"}, "8": {"label": "*2", "atom_type": "H0"}, "16": {"label": "*1", "atom_type": "Cs"}, "17": {"label": "*0", "atom_type": "O2s"}}

>  <type>  (7) 
unop_3

>  <geom_source>  (7) 
Heuristics

$$$$

     RDKit          3D

 31 30  0  0  0  0  0  0  0  0999 V2000
    0.6291    0.3030   -2.0405 C   0  0  0  0  0  0  0  0  0  0  0  0
    0.6291    0.3030   -0.5184 C   0  0  0  0  0  0  0  0  0  0  0  0
   -0.4192    1.1156   -0.0263 O   0  0  0  0  0  0  0  0  0  0  0  0
   -0.3283    2.4151   -0.5256 C   0  0  0  0  0  0  0  0  0  0  0  0
   -0.4192    2.4713   -1.9167 O   0  0  0  0  0  0  0  0  0  0  0  0
    0.6291    1.7446   -2.5286 C   0  0  0  0  0  0  0  0  0  0  0  0
    1.5031   -0.2295   -2.4223 H   0  0  0  0  0  0  0  0  0  0  0  0
   -0.2675   -0.2032   -2.4035 H   0  0  0  0  0  0  0  0  0  0  0  0
    0.4384   -0.8940   -0.0296 H   0  0  0  0  0  0  0  0  0  0  0  0
    1.5927    0.6790   -0.1417 H   0  0  0  0  0  0  0  0  0  0  0  0
    0.6271    2.8672   -0.2014 H   0  0  0  0  0  0  0  0  0  0  0  0
   -1.1693    2.9757   -0.1237 H   0  0  0  0  0  0  0  0  0  0  0  0
    1.5927    2.2220   -2.2933 H   0  0  0  0  0  0  0  0  0  0  0  0
    0.4702    1.8106   -3.6040 H   0  0  0  0  0  0  0  0  0  0  0  0
   -2.0993   -1.5585   -0.3303 C   0  0  0  0  0  0  0  0  0  0  0  0
   -1.0893   -2.6496   -0.0007 C   0  0  0  0  0  0  0  0  0  0  0  0
    0.2455   -2.1047    0.4648 C   0  0  0  0  0  3  0  0  0  0  0  0
    0.0660   -1.3953    1.6646 O   0  0  0  0  0  0  0  0  0  0  0  0
    1.2512   -0.8216    2.1540 C   0  0  0  0  0  0  0  0  0  0  0  0
    0.9467   -0.0862    3.4386 C   0  0  0  0  0  0  0  0  0  0  0  0
   -1.7248   -0.9081   -1.1248 H   0  0  0  0  0  0  0  0  0  0  0  0
   -3.0446   -1.9870   -0.6664 H   0  0  0  0  0  0  0  0  0  0  0  0
   -2.2975   -0.9390    0.5443 H   0  0  0  0  0  0  0  0  0  0  0  0
   -1.4867   -3.3062    0.7776 H   0  0  0  0  0  0  0  0  0  0  0  0
   -0.9093   -3.2739   -0.8804 H   0  0  0  0  0  0  0  0  0  0  0  0
    0.9602   -2.9265    0.6182 H   0  0  0  0  0  0  0  0  0  0  0  0
    2.0032   -1.6054    2.3288 H   0  0  0  0  0  0  0  0  0  0  0  0
    1.6703   -0.1321    1.4064 H   0  0  0  0  0  0  0  0  0  0  0  0
    0.5440   -0.7717    4.1851 H   0  0  0  0  0  0  0  0  0  0  0  0
    1.8545    0.3682    3.8385 H   0  0  0  0  0  0  0  0  0  0  0  0
    0.2129    0.7013    3.2633 H   0  0  0  0  0  0  0  0  0  0  0  0
  1  2  1  0
  1  6  1  0
  1  7  1  0
  1  8  1  0
  2  3  1  0
  2  9  1  0
  2 10  1  0
  3  4  1  0
  4  5  1  0
  4 11  1  0
  4 12  1  0
  5  6  1  0
  6 13  1  0
  6 14  1  0
 15 16  1  0
 15 21  1  0
 15 22  1  0
 15 23  1  0
 16 17  1  0
 16 24  1  0
 16 25  1  0
 17 18  1  0
 17 26  1  0
 18 19  1  0
 19 20  1  0
 19 27  1  0
 19 28  1  0
 20 29  1  0
 20 30  1  0
 20 31  1  0
M  RAD  1  17   2
M  END
>  <reaction>  (8) 
rmg_rxn_340

>  <mol_properties>  (8) 
{"1": {"label": "*3", "atom_type": "Cs"}, "2": {"label": "*4", "atom_type": "O2s"}, "8": {"label": "*2", "atom_type": "H0"}, "16": {"label": "*1", "atom_type": "Cs"}, "17": {"label": "*0", "atom_type": "O2s"}}

>  <type>  (8) 
unop_4

>  <geom_source>  (8) 
Heuristics

$$$$

     RDKit          3D

 31 30  0  0  0  0  0  0  0  0999 V2000
   -0.0292    0.9043   -1.5658 C   0  0  0  0  0  0  0  0  0  0  0  0
   -0.0292    0.9043   -0.0438 C   0  0  0  0  0  0  0  0  0  0  0  0
   -1.0775    1.7169    0.4483 O   0  0  0  0  0  0  0  0  0  0  0  0
   -0.9866    3.0165   -0.0510 C   0  0  0  0  0  0  0  0  0  0  0  0
   -1.0775    3.0727   -1.4421 O   0  0  0  0  0  0  0  0  0  0  0  0
   -0.0292    2.3460   -2.0540 C   0  0  0  0  0  0  0  0  0  0  0  0
    0.8447    0.3719   -1.9477 H   0  0  0  0  0  0  0  0  0  0  0  0
   -0.9258    0.3982   -1.9289 H   0  0  0  0  0  0  0  0  0  0  0  0
   -0.2200   -0.2927    0.4450 H   0  0  0  0  0  0  0  0  0  0  0  0
    0.9344    1.2803    0.3329 H   0  0  0  0  0  0  0  0  0  0  0  0
   -0.0313    3.4686    0.2732 H   0  0  0  0  0  0  0  0  0  0  0  0
   -1.8277    3.5770    0.3510 H   0  0  0  0  0  0  0  0  0  0  0  0
    0.9344    2.8234   -1.8187 H   0  0  0  0  0  0  0  0  0  0  0  0
   -0.1882    2.4119   -3.1294 H   0  0  0  0  0  0  0  0  0  0  0  0
    0.8843   -0.8811    3.0270 C   0  0  0  0  0  0  0  0  0  0  0  0
   -0.4050   -1.4538    2.4535 C   0  0  0  0  0  0  0  0  0  0  0  0
   -0.4129   -1.5034    0.9394 C   0  0  0  0  0  3  0  0  0  0  0  0
    0.6025   -2.3681    0.4964 O   0  0  0  0  0  0  0  0  0  0  0  0
    0.6929   -2.4488   -0.9032 C   0  0  0  0  0  0  0  0  0  0  0  0
    1.8100   -3.3984   -1.2690 C   0  0  0  0  0  0  0  0  0  0  0  0
    1.0486    0.1397    2.6729 H   0  0  0  0  0  0  0  0  0  0  0  0
    0.8520   -0.8558    4.1173 H   0  0  0  0  0  0  0  0  0  0  0  0
    1.7418   -1.4824    2.7252 H   0  0  0  0  0  0  0  0  0  0  0  0
   -0.5686   -2.4651    2.8348 H   0  0  0  0  0  0  0  0  0  0  0  0
   -1.2597   -0.8520    2.7747 H   0  0  0  0  0  0  0  0  0  0  0  0
   -1.3896   -1.8537    0.5744 H   0  0  0  0  0  0  0  0  0  0  0  0
   -0.2623   -2.7997   -1.3212 H   0  0  0  0  0  0  0  0  0  0  0  0
    0.8833   -1.4507   -1.3245 H   0  0  0  0  0  0  0  0  0  0  0  0
    1.6153   -4.3918   -0.8633 H   0  0  0  0  0  0  0  0  0  0  0  0
    1.8989   -3.4778   -2.3536 H   0  0  0  0  0  0  0  0  0  0  0  0
    2.7601   -3.0433   -0.8682 H   0  0  0  0  0  0  0  0  0  0  0  0
  1  2  1  0
  1  6  1  0
  1  7  1  0
  1  8  1  0
  2  3  1  0
  2  9  1  0
  2 10  1  0
  3  4  1  0
  4  5  1  0
  4 11  1  0
  4 12  1  0
  5  6  1  0
  6 13  1  0
  6 14  1  0
 15 16  1  0
 15 21  1  0
 15 22  1  0
 15 23  1  0
 16 17  1  0
 16 24  1  0
 16 25  1  0
 17 18  1  0
 17 26  1  0
 18 19  1  0
 19 20  1  0
 19 27  1  0
 19 28  1  0
 20 29  1  0
 20 30  1  0
 20 31  1  0
M  RAD  1  17   2
M  END
>  <reaction>  (9) 
rmg_rxn_340

>  <mol_properties>  (9) 
{"1": {"label": "*3", "atom_type": "Cs"}, "2": {"label": "*4", "atom_type": "O2s"}, "8": {"label": "*2", "atom_type": "H0"}, "16": {"label": "*1", "atom_type": "Cs"}, "17": {"label": "*0", "atom_type": "O2s"}}

>  <type>  (9) 
unop_5

>  <geom_source>  (9) 
Heuristics

$$$$

     RDKit          3D

 31 30  0  0  0  0  0  0  0  0999 V2000
    0.3724    0.2725   -2.0465 C   0  0  0  0  0  0  0  0  0  0  0  0
    0.3724    0.2725   -0.5245 C   0  0  0  0  0  0  0  0  0  0  0  0
   -0.6759    1.0851   -0.0324 O   0  0  0  0  0  0  0  0  0  0  0  0
   -0.5850    2.3847   -0.5317 C   0  0  0  0  0  0  0  0  0  0  0  0
   -0.6759    2.4409   -1.9228 O   0  0  0  0  0  0  0  0  0  0  0  0
    0.3724    1.7142   -2.5346 C   0  0  0  0  0  0  0  0  0  0  0  0
    1.2464   -0.2599   -2.4284 H   0  0  0  0  0  0  0  0  0  0  0  0
   -0.5242   -0.2336   -2.4095 H   0  0  0  0  0  0  0  0  0  0  0  0
    0.1817   -0.9245   -0.0357 H   0  0  0  0  0  0  0  0  0  0  0  0
    1.3360    0.6485   -0.1478 H   0  0  0  0  0  0  0  0  0  0  0  0
    0.3704    2.8368   -0.2075 H   0  0  0  0  0  0  0  0  0  0  0  0
   -1.4260    2.9452   -0.1297 H   0  0  0  0  0  0  0  0  0  0  0  0
    1.3360    2.1916   -2.2993 H   0  0  0  0  0  0  0  0  0  0  0  0
    0.2135    1.7801   -3.6101 H   0  0  0  0  0  0  0  0  0  0  0  0
   -2.3185   -1.1083    0.6830 C   0  0  0  0  0  0  0  0  0  0  0  0
   -1.4924   -2.3873    0.6531 C   0  0  0  0  0  0  0  0  0  0  0  0
   -0.0112   -2.1352    0.4587 C   0  0  0  0  0  3  0  0  0  0  0  0
    0.4839   -1.4033    1.5514 O   0  0  0  0  0  0  0  0  0  0  0  0
    1.8491   -1.0915    1.4392 C   0  0  0  0  0  0  0  0  0  0  0  0
    2.2756   -0.3078    2.6589 C   0  0  0  0  0  0  0  0  0  0  0  0
   -2.2088   -0.5516   -0.2510 H   0  0  0  0  0  0  0  0  0  0  0  0
   -3.3784   -1.3285    0.8188 H   0  0  0  0  0  0  0  0  0  0  0  0
   -1.9976   -0.4604    1.4987 H   0  0  0  0  0  0  0  0  0  0  0  0
   -1.6305   -2.9451    1.5829 H   0  0  0  0  0  0  0  0  0  0  0  0
   -1.8324   -3.0359   -0.1590 H   0  0  0  0  0  0  0  0  0  0  0  0
    0.5295   -3.0889    0.3701 H   0  0  0  0  0  0  0  0  0  0  0  0
    2.4390   -2.0158    1.3506 H   0  0  0  0  0  0  0  0  0  0  0  0
    2.0258   -0.5060    0.5249 H   0  0  0  0  0  0  0  0  0  0  0  0
    2.1136   -0.8928    3.5648 H   0  0  0  0  0  0  0  0  0  0  0  0
    3.3349   -0.0544    2.5941 H   0  0  0  0  0  0  0  0  0  0  0  0
    1.7021    0.6164    2.7390 H   0  0  0  0  0  0  0  0  0  0  0  0
  1  2  1  0
  1  6  1  0
  1  7  1  0
  1  8  1  0
  2  3  1  0
  2  9  1  0
  2 10  1  0
  3  4  1  0
  4  5  1  0
  4 11  1  0
  4 12  1  0
  5  6  1  0
  6 13  1  0
  6 14  1  0
 15 16  1  0
 15 21  1  0
 15 22  1  0
 15 23  1  0
 16 17  1  0
 16 24  1  0
 16 25  1  0
 17 18  1  0
 17 26  1  0
 18 19  1  0
 19 20  1  0
 19 27  1  0
 19 28  1  0
 20 29  1  0
 20 30  1  0
 20 31  1  0
M  RAD  1  17   2
M  END
>  <reaction>  (10) 
rmg_rxn_340

>  <mol_properties>  (10) 
{"1": {"label": "*3", "atom_type": "Cs"}, "2": {"label": "*4", "atom_type": "O2s"}, "8": {"label": "*2", "atom_type": "H0"}, "16": {"label": "*1", "atom_type": "Cs"}, "17": {"label": "*0", "atom_type": "O2s"}}

>  <type>  (10) 
unop_6

>  <geom_source>  (10) 
Heuristics

$$$$

     RDKit          3D

 31 30  0  0  0  0  0  0  0  0999 V2000
    0.1262    0.3402   -1.9739 C   0  0  0  0  0  0  0  0  0  0  0  0
    0.1262    0.3402   -0.4519 C   0  0  0  0  0  0  0  0  0  0  0  0
   -0.9221    1.1528    0.0402 O   0  0  0  0  0  0  0  0  0  0  0  0
   -0.8312    2.4523   -0.4591 C   0  0  0  0  0  0  0  0  0  0  0  0
   -0.9221    2.5085   -1.8502 O   0  0  0  0  0  0  0  0  0  0  0  0
    0.1262    1.7818   -2.4620 C   0  0  0  0  0  0  0  0  0  0  0  0
    1.0002   -0.1923   -2.3558 H   0  0  0  0  0  0  0  0  0  0  0  0
   -0.7704   -0.1660   -2.3370 H   0  0  0  0  0  0  0  0  0  0  0  0
   -0.0646   -0.8569    0.0369 H   0  0  0  0  0  0  0  0  0  0  0  0
    1.0898    0.7161   -0.0752 H   0  0  0  0  0  0  0  0  0  0  0  0
    0.1241    2.9044   -0.1349 H   0  0  0  0  0  0  0  0  0  0  0  0
   -1.6723    3.0128   -0.0571 H   0  0  0  0  0  0  0  0  0  0  0  0
    1.0898    2.2592   -2.2268 H   0  0  0  0  0  0  0  0  0  0  0  0
   -0.0328    1.8477   -3.5375 H   0  0  0  0  0  0  0  0  0  0  0  0
   -1.9526   -0.6991    1.8283 C   0  0  0  0  0  0  0  0  0  0  0  0
   -1.5085   -2.0869    1.3856 C   0  0  0  0  0  0  0  0  0  0  0  0
   -0.2575   -2.0675    0.5313 C   0  0  0  0  0  3  0  0  0  0  0  0
    0.8145   -1.5621    1.2866 O   0  0  0  0  0  0  0  0  0  0  0  0
    2.0139   -1.4744    0.5605 C   0  0  0  0  0  0  0  0  0  0  0  0
    3.0938   -0.9215    1.4613 C   0  0  0  0  0  0  0  0  0  0  0  0
   -2.1649   -0.0639    0.9646 H   0  0  0  0  0  0  0  0  0  0  0  0
   -2.8573   -0.7514    2.4356 H   0  0  0  0  0  0  0  0  0  0  0  0
   -1.1741   -0.2142    2.4173 H   0  0  0  0  0  0  0  0  0  0  0  0
   -1.3229   -2.7178    2.2586 H   0  0  0  0  0  0  0  0  0  0  0  0
   -2.3021   -2.5697    0.8086 H   0  0  0  0  0  0  0  0  0  0  0  0
   -0.0217   -3.0819    0.1775 H   0  0  0  0  0  0  0  0  0  0  0  0
    2.2984   -2.4684    0.1845 H   0  0  0  0  0  0  0  0  0  0  0  0
    1.8745   -0.8247   -0.3162 H   0  0  0  0  0  0  0  0  0  0  0  0
    3.2423   -1.5723    2.3237 H   0  0  0  0  0  0  0  0  0  0  0  0
    4.0369   -0.8448    0.9179 H   0  0  0  0  0  0  0  0  0  0  0  0
    2.8197    0.0705    1.8221 H   0  0  0  0  0  0  0  0  0  0  0  0
  1  2  1  0
  1  6  1  0
  1  7  1  0
  1  8  1  0
  2  3  1  0
  2  9  1  0
  2 10  1  0
  3  4  1  0
  4  5  1  0
  4 11  1  0
  4 12  1  0
  5  6  1  0
  6 13  1  0
  6 14  1  0
 15 16  1  0
 15 21  1  0
 15 22  1  0
 15 23  1  0
 16 17  1  0
 16 24  1  0
 16 25  1  0
 17 18  1  0
 17 26  1  0
 18 19  1  0
 19 20  1  0
 19 27  1  0
 19 28  1  0
 20 29  1  0
 20 30  1  0
 20 31  1  0
M  RAD  1  17   2
M  END
>  <reaction>  (11) 
rmg_rxn_340

>  <mol_properties>  (11) 
{"1": {"label": "*3", "atom_type": "Cs"}, "2": {"label": "*4", "atom_type": "O2s"}, "8": {"label": "*2", "atom_type": "H0"}, "16": {"label": "*1", "atom_type": "Cs"}, "17": {"label": "*0", "atom_type": "O2s"}}

>  <type>  (11) 
unop_7

>  <geom_source>  (11) 
Heuristics

$$$$

     RDKit          3D

 31 30  0  0  0  0  0  0  0  0999 V2000
    0.7612    1.0822   -1.5308 C   0  0  0  0  0  0  0  0  0  0  0  0
    0.7612    1.0822   -0.0087 C   0  0  0  0  0  0  0  0  0  0  0  0
   -0.2871    1.8948    0.4834 O   0  0  0  0  0  0  0  0  0  0  0  0
   -0.1962    3.1944   -0.0159 C   0  0  0  0  0  0  0  0  0  0  0  0
   -0.2871    3.2506   -1.4070 O   0  0  0  0  0  0  0  0  0  0  0  0
    0.7612    2.5239   -2.0189 C   0  0  0  0  0  0  0  0  0  0  0  0
    1.6352    0.5498   -1.9126 H   0  0  0  0  0  0  0  0  0  0  0  0
   -0.1354    0.5760   -1.8938 H   0  0  0  0  0  0  0  0  0  0  0  0
    0.5704   -0.1148    0.4801 H   0  0  0  0  0  0  0  0  0  0  0  0
    1.7248    1.4582    0.3680 H   0  0  0  0  0  0  0  0  0  0  0  0
    0.7591    3.6464    0.3083 H   0  0  0  0  0  0  0  0  0  0  0  0
   -1.0373    3.7549    0.3860 H   0  0  0  0  0  0  0  0  0  0  0  0
    1.7248    3.0013   -1.7836 H   0  0  0  0  0  0  0  0  0  0  0  0
    0.6022    2.5898   -3.0943 H   0  0  0  0  0  0  0  0  0  0  0  0
    2.0749   -2.9439    0.0111 C   0  0  0  0  0  0  0  0  0  0  0  0
    1.7070   -2.0255    1.1688 C   0  0  0  0  0  0  0  0  0  0  0  0
    0.3775   -1.3255    0.9744 C   0  0  0  0  0  3  0  0  0  0  0  0
   -0.6499   -2.2830    0.9240 O   0  0  0  0  0  0  0  0  0  0  0  0
   -1.9208   -1.7242    0.7094 C   0  0  0  0  0  0  0  0  0  0  0  0
   -2.9452   -2.8344    0.6715 C   0  0  0  0  0  0  0  0  0  0  0  0
    2.1425   -2.3833   -0.9246 H   0  0  0  0  0  0  0  0  0  0  0  0
    3.0386   -3.4256    0.1829 H   0  0  0  0  0  0  0  0  0  0  0  0
    1.3229   -3.7222   -0.1183 H   0  0  0  0  0  0  0  0  0  0  0  0
    1.6666   -2.5946    2.1011 H   0  0  0  0  0  0  0  0  0  0  0  0
    2.4751   -1.2581    1.2991 H   0  0  0  0  0  0  0  0  0  0  0  0
    0.1935   -0.6209    1.7988 H   0  0  0  0  0  0  0  0  0  0  0  0
   -2.1572   -1.0102    1.5123 H   0  0  0  0  0  0  0  0  0  0  0  0
   -1.9281   -1.1619   -0.2360 H   0  0  0  0  0  0  0  0  0  0  0  0
   -2.9483   -3.3838    1.6136 H   0  0  0  0  0  0  0  0  0  0  0  0
   -3.9423   -2.4234    0.5062 H   0  0  0  0  0  0  0  0  0  0  0  0
   -2.7206   -3.5343   -0.1341 H   0  0  0  0  0  0  0  0  0  0  0  0
  1  2  1  0
  1  6  1  0
  1  7  1  0
  1  8  1  0
  2  3  1  0
  2  9  1  0
  2 10  1  0
  3  4  1  0
  4  5  1  0
  4 11  1  0
  4 12  1  0
  5  6  1  0
  6 13  1  0
  6 14  1  0
 15 16  1  0
 15 21  1  0
 15 22  1  0
 15 23  1  0
 16 17  1  0
 16 24  1  0
 16 25  1  0
 17 18  1  0
 17 26  1  0
 18 19  1  0
 19 20  1  0
 19 27  1  0
 19 28  1  0
 20 29  1  0
 20 30  1  0
 20 31  1  0
M  RAD  1  17   2
M  END
>  <reaction>  (12) 
rmg_rxn_340

>  <mol_properties>  (12) 
{"1": {"label": "*3", "atom_type": "Cs"}, "2": {"label": "*4", "atom_type": "O2s"}, "8": {"label": "*2", "atom_type": "H0"}, "16": {"label": "*1", "atom_type": "Cs"}, "17": {"label": "*0", "atom_type": "O2s"}}

>  <type>  (12) 
unop_8

>  <geom_source>  (12) 
Heuristics

$$$$

     RDKit          3D

 31 30  0  0  0  0  0  0  0  0999 V2000
    0.8504    0.4317   -1.9590 C   0  0  0  0  0  0  0  0  0  0  0  0
    0.8504    0.4317   -0.4369 C   0  0  0  0  0  0  0  0  0  0  0  0
   -0.1979    1.2443    0.0552 O   0  0  0  0  0  0  0  0  0  0  0  0
   -0.1069    2.5439   -0.4441 C   0  0  0  0  0  0  0  0  0  0  0  0
   -0.1979    2.6001   -1.8352 O   0  0  0  0  0  0  0  0  0  0  0  0
    0.8504    1.8734   -2.4471 C   0  0  0  0  0  0  0  0  0  0  0  0
    1.7244   -0.1007   -2.3408 H   0  0  0  0  0  0  0  0  0  0  0  0
   -0.0461   -0.0744   -2.3220 H   0  0  0  0  0  0  0  0  0  0  0  0
    0.6597   -0.7653    0.0519 H   0  0  0  0  0  0  0  0  0  0  0  0
    1.8141    0.8077   -0.0602 H   0  0  0  0  0  0  0  0  0  0  0  0
    0.8484    2.9960   -0.1199 H   0  0  0  0  0  0  0  0  0  0  0  0
   -0.9480    3.1044   -0.0422 H   0  0  0  0  0  0  0  0  0  0  0  0
    1.8141    2.3508   -2.2118 H   0  0  0  0  0  0  0  0  0  0  0  0
    0.6915    1.9393   -3.5225 H   0  0  0  0  0  0  0  0  0  0  0  0
   -1.5123   -1.9939   -1.0385 C   0  0  0  0  0  0  0  0  0  0  0  0
   -0.3842   -2.7952   -0.4023 C   0  0  0  0  0  0  0  0  0  0  0  0
    0.4668   -1.9760    0.5462 C   0  0  0  0  0  3  0  0  0  0  0  0
   -0.3247   -1.5377    1.6217 O   0  0  0  0  0  0  0  0  0  0  0  0
    0.3767   -0.7367    2.5382 C   0  0  0  0  0  0  0  0  0  0  0  0
   -0.5626   -0.3220    3.6469 C   0  0  0  0  0  0  0  0  0  0  0  0
   -1.1167   -1.1509   -1.6107 H   0  0  0  0  0  0  0  0  0  0  0  0
   -2.0993   -2.6135   -1.7180 H   0  0  0  0  0  0  0  0  0  0  0  0
   -2.1814   -1.5963   -0.2754 H   0  0  0  0  0  0  0  0  0  0  0  0
   -0.7927   -3.6479    0.1462 H   0  0  0  0  0  0  0  0  0  0  0  0
    0.2719   -3.2016   -1.1770 H   0  0  0  0  0  0  0  0  0  0  0  0
    1.3079   -2.5779    0.9204 H   0  0  0  0  0  0  0  0  0  0  0  0
    1.2315   -1.2955    2.9474 H   0  0  0  0  0  0  0  0  0  0  0  0
    0.7834    0.1486    2.0275 H   0  0  0  0  0  0  0  0  0  0  0  0
   -0.9557   -1.1987    4.1627 H   0  0  0  0  0  0  0  0  0  0  0  0
   -0.0387    0.3019    4.3727 H   0  0  0  0  0  0  0  0  0  0  0  0
   -1.4023    0.2454    3.2441 H   0  0  0  0  0  0  0  0  0  0  0  0
  1  2  1  0
  1  6  1  0
  1  7  1  0
  1  8  1  0
  2  3  1  0
  2  9  1  0
  2 10  1  0
  3  4  1  0
  4  5  1  0
  4 11  1  0
  4 12  1  0
  5  6  1  0
  6 13  1  0
  6 14  1  0
 15 16  1  0
 15 21  1  0
 15 22  1  0
 15 23  1  0
 16 17  1  0
 16 24  1  0
 16 25  1  0
 17 18  1  0
 17 26  1  0
 18 19  1  0
 19 20  1  0
 19 27  1  0
 19 28  1  0
 20 29  1  0
 20 30  1  0
 20 31  1  0
M  RAD  1  17   2
M  END
>  <reaction>  (13) 
rmg_rxn_340

>  <mol_properties>  (13) 
{"1": {"label": "*3", "atom_type": "Cs"}, "2": {"label": "*4", "atom_type": "O2s"}, "8": {"label": "*2", "atom_type": "H0"}, "16": {"label": "*1", "atom_type": "Cs"}, "17": {"label": "*0", "atom_type": "O2s"}}

>  <type>  (13) 
unop_9

>  <geom_source>  (13) 
Heuristics

$$$$

     RDKit          3D

 31 30  0  0  0  0  0  0  0  0999 V2000
    0.8758    0.9898   -1.6108 C   0  0  0  0  0  0  0  0  0  0  0  0
    0.8758    0.9898   -0.0888 C   0  0  0  0  0  0  0  0  0  0  0  0
   -0.1725    1.8024    0.4033 O   0  0  0  0  0  0  0  0  0  0  0  0
   -0.0815    3.1019   -0.0960 C   0  0  0  0  0  0  0  0  0  0  0  0
   -0.1725    3.1581   -1.4870 O   0  0  0  0  0  0  0  0  0  0  0  0
    0.8758    2.4314   -2.0989 C   0  0  0  0  0  0  0  0  0  0  0  0
    1.7498    0.4573   -1.9927 H   0  0  0  0  0  0  0  0  0  0  0  0
   -0.0207    0.4836   -1.9738 H   0  0  0  0  0  0  0  0  0  0  0  0
    0.6851   -0.2073    0.4000 H   0  0  0  0  0  0  0  0  0  0  0  0
    1.8395    1.3657    0.2879 H   0  0  0  0  0  0  0  0  0  0  0  0
    0.8738    3.5540    0.2282 H   0  0  0  0  0  0  0  0  0  0  0  0
   -0.9226    3.6624    0.3060 H   0  0  0  0  0  0  0  0  0  0  0  0
    1.8395    2.9088   -1.8636 H   0  0  0  0  0  0  0  0  0  0  0  0
    0.7169    2.4973   -3.1744 H   0  0  0  0  0  0  0  0  0  0  0  0
    1.2718   -3.0416   -0.8901 C   0  0  0  0  0  0  0  0  0  0  0  0
    1.5915   -2.3507    0.4289 C   0  0  0  0  0  0  0  0  0  0  0  0
    0.4922   -1.4179    0.8944 C   0  0  0  0  0  3  0  0  0  0  0  0
   -0.6749   -2.1606    1.1419 O   0  0  0  0  0  0  0  0  0  0  0  0
   -1.7627   -1.3688    1.5461 C   0  0  0  0  0  0  0  0  0  0  0  0
   -2.9586   -2.2617    1.7831 C   0  0  0  0  0  0  0  0  0  0  0  0
    1.1158   -2.3089   -1.6859 H   0  0  0  0  0  0  0  0  0  0  0  0
    2.0863   -3.6997   -1.1961 H   0  0  0  0  0  0  0  0  0  0  0  0
    0.3647   -3.6395   -0.8027 H   0  0  0  0  0  0  0  0  0  0  0  0
    1.7686   -3.0953    1.2093 H   0  0  0  0  0  0  0  0  0  0  0  0
    2.5108   -1.7661    0.3343 H   0  0  0  0  0  0  0  0  0  0  0  0
    0.8017   -0.8900    1.8083 H   0  0  0  0  0  0  0  0  0  0  0  0
   -1.5059   -0.8186    2.4635 H   0  0  0  0  0  0  0  0  0  0  0  0
   -1.9891   -0.6202    0.7725 H   0  0  0  0  0  0  0  0  0  0  0  0
   -2.7397   -2.9954    2.5596 H   0  0  0  0  0  0  0  0  0  0  0  0
   -3.8174   -1.6674    2.0992 H   0  0  0  0  0  0  0  0  0  0  0  0
   -3.2236   -2.7958    0.8699 H   0  0  0  0  0  0  0  0  0  0  0  0
  1  2  1  0
  1  6  1  0
  1  7  1  0
  1  8  1  0
  2  3  1  0
  2  9  1  0
  2 10  1  0
  3  4  1  0
  4  5  1  0
  4 11  1  0
  4 12  1  0
  5  6  1  0
  6 13  1  0
  6 14  1  0
 15 16  1  0
 15 21  1  0
 15 22  1  0
 15 23  1  0
 16 17  1  0
 16 24  1  0
 16 25  1  0
 17 18  1  0
 17 26  1  0
 18 19  1  0
 19 20  1  0
 19 27  1  0
 19 28  1  0
 20 29  1  0
 20 30  1  0
 20 31  1  0
M  RAD  1  17   2
M  END
>  <reaction>  (14) 
rmg_rxn_340

>  <mol_properties>  (14) 
{"1": {"label": "*3", "atom_type": "Cs"}, "2": {"label": "*4", "atom_type": "O2s"}, "8": {"label": "*2", "atom_type": "H0"}, "16": {"label": "*1", "atom_type": "Cs"}, "17": {"label": "*0", "atom_type": "O2s"}}

>  <type>  (14) 
unop_10

>  <geom_source>  (14) 
Heuristics

$$$$

     RDKit          3D

 31 30  0  0  0  0  0  0  0  0999 V2000
   -0.0658    0.5410   -1.8135 C   0  0  0  0  0  0  0  0  0  0  0  0
   -0.0658    0.5410   -0.2914 C   0  0  0  0  0  0  0  0  0  0  0  0
   -1.1140    1.3536    0.2007 O   0  0  0  0  0  0  0  0  0  0  0  0
   -1.0231    2.6531   -0.2987 C   0  0  0  0  0  0  0  0  0  0  0  0
   -1.1140    2.7093   -1.6897 O   0  0  0  0  0  0  0  0  0  0  0  0
   -0.0658    1.9826   -2.3016 C   0  0  0  0  0  0  0  0  0  0  0  0
    0.8082    0.0085   -2.1954 H   0  0  0  0  0  0  0  0  0  0  0  0
   -0.9623    0.0348   -2.1765 H   0  0  0  0  0  0  0  0  0  0  0  0
   -0.2565   -0.6561    0.1974 H   0  0  0  0  0  0  0  0  0  0  0  0
    0.8979    0.9169    0.0853 H   0  0  0  0  0  0  0  0  0  0  0  0
   -0.0678    3.1052    0.0256 H   0  0  0  0  0  0  0  0  0  0  0  0
   -1.8642    3.2136    0.1033 H   0  0  0  0  0  0  0  0  0  0  0  0
    0.8979    2.4600   -2.0663 H   0  0  0  0  0  0  0  0  0  0  0  0
   -0.2247    2.0485   -3.3770 H   0  0  0  0  0  0  0  0  0  0  0  0
   -0.8374   -0.4941    2.7878 C   0  0  0  0  0  0  0  0  0  0  0  0
   -1.1554   -1.7757    2.0291 C   0  0  0  0  0  0  0  0  0  0  0  0
   -0.4494   -1.8667    0.6917 C   0  0  0  0  0  3  0  0  0  0  0  0
    0.9401   -1.8978    0.8998 O   0  0  0  0  0  0  0  0  0  0  0  0
    1.6802   -1.9466   -0.2933 C   0  0  0  0  0  0  0  0  0  0  0  0
    3.1530   -1.9756    0.0435 C   0  0  0  0  0  0  0  0  0  0  0  0
   -1.1334    0.3847    2.2095 H   0  0  0  0  0  0  0  0  0  0  0  0
   -1.3664   -0.4608    3.7414 H   0  0  0  0  0  0  0  0  0  0  0  0
    0.2314   -0.4189    2.9879 H   0  0  0  0  0  0  0  0  0  0  0  0
   -0.8765   -2.6459    2.6289 H   0  0  0  0  0  0  0  0  0  0  0  0
   -2.2312   -1.8480    1.8469 H   0  0  0  0  0  0  0  0  0  0  0  0
   -0.7684   -2.7711    0.1530 H   0  0  0  0  0  0  0  0  0  0  0  0
    1.4005   -2.8393   -0.8721 H   0  0  0  0  0  0  0  0  0  0  0  0
    1.4453   -1.0706   -0.9159 H   0  0  0  0  0  0  0  0  0  0  0  0
    3.3893   -2.8512    0.6492 H   0  0  0  0  0  0  0  0  0  0  0  0
    3.7490   -2.0143   -0.8697 H   0  0  0  0  0  0  0  0  0  0  0  0
    3.4346   -1.0834    0.6038 H   0  0  0  0  0  0  0  0  0  0  0  0
  1  2  1  0
  1  6  1  0
  1  7  1  0
  1  8  1  0
  2  3  1  0
  2  9  1  0
  2 10  1  0
  3  4  1  0
  4  5  1  0
  4 11  1  0
  4 12  1  0
  5  6  1  0
  6 13  1  0
  6 14  1  0
 15 16  1  0
 15 21  1  0
 15 22  1  0
 15 23  1  0
 16 17  1  0
 16 24  1  0
 16 25  1  0
 17 18  1  0
 17 26  1  0
 18 19  1  0
 19 20  1  0
 19 27  1  0
 19 28  1  0
 20 29  1  0
 20 30  1  0
 20 31  1  0
M  RAD  1  17   2
M  END
>  <reaction>  (15) 
rmg_rxn_340

>  <mol_properties>  (15) 
{"1": {"label": "*3", "atom_type": "Cs"}, "2": {"label": "*4", "atom_type": "O2s"}, "8": {"label": "*2", "atom_type": "H0"}, "16": {"label": "*1", "atom_type": "Cs"}, "17": {"label": "*0", "atom_type": "O2s"}}

>  <type>  (15) 
unop_11

>  <geom_source>  (15) 
Heuristics

$$$$

     RDKit          3D

 31 30  0  0  0  0  0  0  0  0999 V2000
    0.9688    0.6378   -1.8292 C   0  0  0  0  0  0  0  0  0  0  0  0
    0.9688    0.6378   -0.3072 C   0  0  0  0  0  0  0  0  0  0  0  0
   -0.0795    1.4504    0.1849 O   0  0  0  0  0  0  0  0  0  0  0  0
    0.0114    2.7499   -0.3144 C   0  0  0  0  0  0  0  0  0  0  0  0
   -0.0795    2.8061   -1.7054 O   0  0  0  0  0  0  0  0  0  0  0  0
    0.9688    2.0794   -2.3173 C   0  0  0  0  0  0  0  0  0  0  0  0
    1.8428    0.1053   -2.2111 H   0  0  0  0  0  0  0  0  0  0  0  0
    0.0722    0.1316   -2.1922 H   0  0  0  0  0  0  0  0  0  0  0  0
    0.7781   -0.5592    0.1816 H   0  0  0  0  0  0  0  0  0  0  0  0
    1.9324    1.0137    0.0696 H   0  0  0  0  0  0  0  0  0  0  0  0
    0.9667    3.2020    0.0098 H   0  0  0  0  0  0  0  0  0  0  0  0
   -0.8296    3.3104    0.0876 H   0  0  0  0  0  0  0  0  0  0  0  0
    1.9324    2.5568   -2.0820 H   0  0  0  0  0  0  0  0  0  0  0  0
    0.8098    2.1453   -3.3928 H   0  0  0  0  0  0  0  0  0  0  0  0
   -0.7183   -2.4317   -1.3955 C   0  0  0  0  0  0  0  0  0  0  0  0
    0.4255   -2.7716   -0.4494 C   0  0  0  0  0  0  0  0  0  0  0  0
    0.5851   -1.7699    0.6760 C   0  0  0  0  0  3  0  0  0  0  0  0
   -0.5698   -1.7810    1.4766 O   0  0  0  0  0  0  0  0  0  0  0  0
   -0.5251   -0.8527    2.5301 C   0  0  0  0  0  0  0  0  0  0  0  0
   -1.8086   -0.9470    3.3222 C   0  0  0  0  0  0  0  0  0  0  0  0
   -0.5641   -1.4534   -1.8577 H   0  0  0  0  0  0  0  0  0  0  0  0
   -0.7996   -3.1701   -2.1945 H   0  0  0  0  0  0  0  0  0  0  0  0
   -1.6671   -2.4032   -0.8597 H   0  0  0  0  0  0  0  0  0  0  0  0
    0.2703   -3.7618   -0.0133 H   0  0  0  0  0  0  0  0  0  0  0  0
    1.3697   -2.8122   -0.9997 H   0  0  0  0  0  0  0  0  0  0  0  0
    1.4664   -2.0184    1.2855 H   0  0  0  0  0  0  0  0  0  0  0  0
    0.3412   -1.0595    3.1759 H   0  0  0  0  0  0  0  0  0  0  0  0
   -0.3946    0.1632    2.1290 H   0  0  0  0  0  0  0  0  0  0  0  0
   -1.9320   -1.9502    3.7318 H   0  0  0  0  0  0  0  0  0  0  0  0
   -1.7965   -0.2340    4.1480 H   0  0  0  0  0  0  0  0  0  0  0  0
   -2.6670   -0.7269    2.6866 H   0  0  0  0  0  0  0  0  0  0  0  0
  1  2  1  0
  1  6  1  0
  1  7  1  0
  1  8  1  0
  2  3  1  0
  2  9  1  0
  2 10  1  0
  3  4  1  0
  4  5  1  0
  4 11  1  0
  4 12  1  0
  5  6  1  0
  6 13  1  0
  6 14  1  0
 15 16  1  0
 15 21  1  0
 15 22  1  0
 15 23  1  0
 16 17  1  0
 16 24  1  0
 16 25  1  0
 17 18  1  0
 17 26  1  0
 18 19  1  0
 19 20  1  0
 19 27  1  0
 19 28  1  0
 20 29  1  0
 20 30  1  0
 20 31  1  0
M  RAD  1  17   2
M  END
>  <reaction>  (16) 
rmg_rxn_340

>  <mol_properties>  (16) 
{"1": {"label": "*3", "atom_type": "Cs"}, "2": {"label": "*4", "atom_type": "O2s"}, "8": {"label": "*2", "atom_type": "H0"}, "16": {"label": "*1", "atom_type": "Cs"}, "17": {"label": "*0", "atom_type": "O2s"}}

>  <type>  (16) 
unop_12

>  <geom_source>  (16) 
Heuristics

$$$$

     RDKit          3D

 31 30  0  0  0  0  0  0  0  0999 V2000
   -1.9064   -0.7527    0.4104 O   0  0  0  0  0  0  0  0  0  0  0  0
    3.6715   -0.3694   -1.3728 O   0  0  0  0  0  0  0  0  0  0  0  0
    2.0843    1.1656   -0.4353 O   0  0  0  0  0  0  0  0  0  0  0  0
   -1.3394    0.9827    1.9764 C   0  0  0  0  0  0  0  0  0  0  0  0
    2.1993   -1.0951    0.3868 C   0  0  0  0  0  0  0  0  0  0  0  0
   -1.0896    0.3847    0.5931 C   0  0  0  0  0  0  0  0  0  0  0  0
    3.6470   -0.8975   -0.0648 C   0  0  0  0  0  0  0  0  0  0  0  0
   -1.7472   -1.2657   -0.8979 C   0  0  0  0  0  0  0  0  0  0  0  0
   -2.7601    1.5264    2.1125 C   0  0  0  0  0  0  0  0  0  0  0  0
   -2.8629   -0.7555   -1.8030 C   0  0  0  0  0  0  0  0  0  0  0  0
    3.1179    0.9437   -1.3902 C   0  0  0  0  0  0  0  0  0  0  0  0
    1.3315   -0.0123   -0.2495 C   0  0  0  0  0  3  0  0  0  0  0  0
   -0.6180    1.8106    2.1456 H   0  0  0  0  0  0  0  0  0  0  0  0
   -1.1634    0.2068    2.7524 H   0  0  0  0  0  0  0  0  0  0  0  0
    1.8298   -2.0960    0.0751 H   0  0  0  0  0  0  0  0  0  0  0  0
    2.1380   -1.0202    1.4931 H   0  0  0  0  0  0  0  0  0  0  0  0
   -1.2941    1.1609   -0.1798 H   0  0  0  0  0  0  0  0  0  0  0  0
    0.2097    0.0290    0.5239 H   0  0  0  0  0  0  0  0  0  0  0  0
   -1.8252   -2.3721   -0.8436 H   0  0  0  0  0  0  0  0  0  0  0  0
   -0.7537   -1.0413   -1.3544 H   0  0  0  0  0  0  0  0  0  0  0  0
    4.1896   -0.2248    0.6392 H   0  0  0  0  0  0  0  0  0  0  0  0
    4.1721   -1.8760   -0.0586 H   0  0  0  0  0  0  0  0  0  0  0  0
   -2.8921    1.9703    3.1216 H   0  0  0  0  0  0  0  0  0  0  0  0
   -3.5027    0.7102    1.9857 H   0  0  0  0  0  0  0  0  0  0  0  0
   -2.9469    2.3137    1.3513 H   0  0  0  0  0  0  0  0  0  0  0  0
   -2.7954    0.3467   -1.9157 H   0  0  0  0  0  0  0  0  0  0  0  0
   -2.7739   -1.2228   -2.8064 H   0  0  0  0  0  0  0  0  0  0  0  0
   -3.8521   -1.0170   -1.3709 H   0  0  0  0  0  0  0  0  0  0  0  0
    2.7179    1.1462   -2.4064 H   0  0  0  0  0  0  0  0  0  0  0  0
    3.9312    1.6777   -1.2080 H   0  0  0  0  0  0  0  0  0  0  0  0
    0.8832   -0.3569   -1.2098 H   0  0  0  0  0  0  0  0  0  0  0  0
  1  8  1  0
  1  6  1  0
  2  7  1  0
  2 11  1  0
  3 12  1  0
  3 11  1  0
  4  9  1  0
  4  6  1  0
  4 13  1  0
  4 14  1  0
  5 12  1  0
  5  7  1  0
  5 15  1  0
  5 16  1  0
  6 17  1  0
  6 18  1  0
  7 21  1  0
  7 22  1  0
  8 10  1  0
  8 19  1  0
  8 20  1  0
  9 23  1  0
  9 24  1  0
  9 25  1  0
 10 26  1  0
 10 27  1  0
 10 28  1  0
 11 29  1  0
 11 30  1  0
 12 31  1  0
M  RAD  1  12   2
M  END
>  <reaction>  (17) 
rmg_rxn_340

>  <mol_properties>  (17) 
{"1": {"label": "*3", "atom_type": "Cs"}, "2": {"label": "*4", "atom_type": "O2s"}, "8": {"label": "*2", "atom_type": "H0"}, "16": {"label": "*1", "atom_type": "Cs"}, "17": {"label": "*0", "atom_type": "O2s"}}

>  <type>  (17) 
unop_13

>  <geom_source>  (17) 
AutoTST

$$$$

     RDKit          3D

 31 30  0  0  0  0  0  0  0  0999 V2000
    0.9588    0.8439   -1.7048 C   0  0  0  0  0  0  0  0  0  0  0  0
    0.9588    0.8439   -0.1828 C   0  0  0  0  0  0  0  0  0  0  0  0
   -0.0895    1.6565    0.3093 O   0  0  0  0  0  0  0  0  0  0  0  0
    0.0014    2.9561   -0.1900 C   0  0  0  0  0  0  0  0  0  0  0  0
   -0.0895    3.0122   -1.5811 O   0  0  0  0  0  0  0  0  0  0  0  0
    0.9588    2.2855   -2.1930 C   0  0  0  0  0  0  0  0  0  0  0  0
    1.8328    0.3114   -2.0867 H   0  0  0  0  0  0  0  0  0  0  0  0
    0.0622    0.3377   -2.0679 H   0  0  0  0  0  0  0  0  0  0  0  0
    0.7681   -0.3531    0.3060 H   0  0  0  0  0  0  0  0  0  0  0  0
    1.9224    1.2199    0.1939 H   0  0  0  0  0  0  0  0  0  0  0  0
    0.9568    3.4081    0.1342 H   0  0  0  0  0  0  0  0  0  0  0  0
   -0.8396    3.5166    0.2119 H   0  0  0  0  0  0  0  0  0  0  0  0
    1.9224    2.7629   -1.9577 H   0  0  0  0  0  0  0  0  0  0  0  0
    0.7999    2.3515   -3.2684 H   0  0  0  0  0  0  0  0  0  0  0  0
    0.2485   -2.8339   -1.3695 C   0  0  0  0  0  0  0  0  0  0  0  0
    1.1294   -2.6070   -0.1482 C   0  0  0  0  0  0  0  0  0  0  0  0
    0.5752   -1.5638    0.8004 C   0  0  0  0  0  3  0  0  0  0  0  0
   -0.6561   -2.0074    1.3125 O   0  0  0  0  0  0  0  0  0  0  0  0
   -1.2636   -1.0831    2.1786 C   0  0  0  0  0  0  0  0  0  0  0  0
   -2.5734   -1.6562    2.6678 C   0  0  0  0  0  0  0  0  0  0  0  0
    0.1315   -1.9107   -1.9425 H   0  0  0  0  0  0  0  0  0  0  0  0
    0.6808   -3.5859   -2.0313 H   0  0  0  0  0  0  0  0  0  0  0  0
   -0.7443   -3.1716   -1.0721 H   0  0  0  0  0  0  0  0  0  0  0  0
    1.2572   -3.5431    0.4015 H   0  0  0  0  0  0  0  0  0  0  0  0
    2.1267   -2.2831   -0.4586 H   0  0  0  0  0  0  0  0  0  0  0  0
    1.2813   -1.3841    1.6243 H   0  0  0  0  0  0  0  0  0  0  0  0
   -0.5966   -0.8695    3.0271 H   0  0  0  0  0  0  0  0  0  0  0  0
   -1.4326   -0.1318    1.6526 H   0  0  0  0  0  0  0  0  0  0  0  0
   -2.4054   -2.5923    3.2014 H   0  0  0  0  0  0  0  0  0  0  0  0
   -3.0641   -0.9545    3.3441 H   0  0  0  0  0  0  0  0  0  0  0  0
   -3.2413   -1.8537    1.8285 H   0  0  0  0  0  0  0  0  0  0  0  0
  1  2  1  0
  1  6  1  0
  1  7  1  0
  1  8  1  0
  2  3  1  0
  2  9  1  0
  2 10  1  0
  3  4  1  0
  4  5  1  0
  4 11  1  0
  4 12  1  0
  5  6  1  0
  6 13  1  0
  6 14  1  0
 15 16  1  0
 15 21  1  0
 15 22  1  0
 15 23  1  0
 16 17  1  0
 16 24  1  0
 16 25  1  0
 17 18  1  0
 17 26  1  0
 18 19  1  0
 19 20  1  0
 19 27  1  0
 19 28  1  0
 20 29  1  0
 20 30  1  0
 20 31  1  0
M  RAD  1  17   2
M  END
>  <reaction>  (18) 
rmg_rxn_340

>  <mol_properties>  (18) 
{"1": {"label": "*3", "atom_type": "Cs"}, "2": {"label": "*4", "atom_type": "O2s"}, "8": {"label": "*2", "atom_type": "H0"}, "16": {"label": "*1", "atom_type": "Cs"}, "17": {"label": "*0", "atom_type": "O2s"}}

>  <type>  (18) 
unop_14

>  <geom_source>  (18) 
gaussian_log

$$$$
