
     RDKit          3D

 18 17  0  0  0  0  0  0  0  0999 V2000
    2.2026   -0.7213   -0.2612 C   0  0  0  0  0  0  0  0  0  0  0  0
    1.5384    0.2638    0.6915 C   0  0  0  0  0  0  0  0  0  0  0  0
    2.2584    1.5946    0.7694 C   0  0  0  0  0  0  0  0  0  0  0  0
    2.2212    2.2185   -0.4893 O   0  0  0  0  0  0  0  0  0  0  0  0
    2.8988    3.4488   -0.5204 C   0  0  0  0  0  0  0  0  0  0  0  0
    2.7981    4.0296   -1.9118 C   0  0  0  0  0  0  0  0  0  0  0  0
    3.2294   -0.9309    0.0486 H   0  0  0  0  0  0  0  0  0  0  0  0
    2.2338   -0.3181   -1.2734 H   0  0  0  0  0  0  0  0  0  0  0  0
    1.6610   -1.6680   -0.2875 H   0  0  0  0  0  0  0  0  0  0  0  0
    1.4990   -0.1566    1.7002 H   0  0  0  0  0  0  0  0  0  0  0  0
    0.5055    0.4455    0.3835 H   0  0  0  0  0  0  0  0  0  0  0  0
    3.3038    1.4410    1.0808 H   0  0  0  0  0  0  0  0  0  0  0  0
    1.7844    2.2410    1.5226 H   0  0  0  0  0  0  0  0  0  0  0  0
    2.4596    4.1376    0.2164 H   0  0  0  0  0  0  0  0  0  0  0  0
    3.9524    3.3035   -0.2397 H   0  0  0  0  0  0  0  0  0  0  0  0
    1.7543    4.1869   -2.1856 H   0  0  0  0  0  0  0  0  0  0  0  0
    3.2472    3.3545   -2.6411 H   0  0  0  0  0  0  0  0  0  0  0  0
    3.3178    4.9878   -1.9600 H   0  0  0  0  0  0  0  0  0  0  0  0
  1  2  1  0
  1  7  1  0
  1  8  1  0
  1  9  1  0
  2  3  1  0
  2 10  1  0
  2 11  1  0
  3  4  1  0
  3 12  1  0
  3 13  1  0
  4  5  1  0
  5  6  1  0
  5 14  1  0
  5 15  1  0
  6 16  1  0
  6 17  1  0
  6 18  1  0
M  END
>  <reaction>  (1) 
rmg_rxn_280

>  <mol_properties>  (1) 
{"4": {"label": "donator", "atom_type": "Cs"}, "13": {"label": "d_hydrogen", "atom_type": "H0"}}

>  <type>  (1) 
r1h

$$$$

     RDKit          3D

 13 13  0  0  0  0  0  0  0  0999 V2000
    0.5794    1.5990    0.2108 C   0  0  0  0  0  3  0  0  0  0  0  0
    1.4528    0.6621   -0.2496 O   0  0  0  0  0  0  0  0  0  0  0  0
    1.0751   -0.6763    0.0423 C   0  0  0  0  0  0  0  0  0  0  0  0
   -0.3579   -0.9282   -0.3924 C   0  0  0  0  0  0  0  0  0  0  0  0
   -1.2426    0.1393    0.2269 C   0  0  0  0  0  0  0  0  0  0  0  0
   -0.7410    1.4341   -0.0749 O   0  0  0  0  0  0  0  0  0  0  0  0
    0.9183    2.6078    0.0084 H   0  0  0  0  0  0  0  0  0  0  0  0
    1.1839   -0.8508    1.1199 H   0  0  0  0  0  0  0  0  0  0  0  0
    1.7816   -1.3130   -0.4874 H   0  0  0  0  0  0  0  0  0  0  0  0
   -0.6818   -1.9210   -0.0736 H   0  0  0  0  0  0  0  0  0  0  0  0
   -0.4271   -0.8785   -1.4810 H   0  0  0  0  0  0  0  0  0  0  0  0
   -1.2832    0.0173    1.3164 H   0  0  0  0  0  0  0  0  0  0  0  0
   -2.2575    0.1083   -0.1657 H   0  0  0  0  0  0  0  0  0  0  0  0
  1  2  1  0
  1  6  1  0
  1  7  1  0
  2  3  1  0
  3  4  1  0
  3  8  1  0
  3  9  1  0
  4  5  1  0
  4 10  1  0
  4 11  1  0
  5  6  1  0
  5 12  1  0
  5 13  1  0
M  RAD  1   1   2
M  END
>  <reaction>  (2) 
rmg_rxn_280

>  <mol_properties>  (2) 
{"0": {"label": "acceptor", "atom_type": "Cs"}}

>  <type>  (2) 
r2

$$$$

     RDKit          3D

 14 14  0  0  0  0  0  0  0  0999 V2000
   -1.1778    0.2241    0.1818 C   0  0  0  0  0  0  0  0  0  0  0  0
   -0.5633   -1.1636    0.0678 C   0  0  0  0  0  0  0  0  0  0  0  0
    0.6943   -1.1996    0.7146 O   0  0  0  0  0  0  0  0  0  0  0  0
    1.5547   -0.2288    0.2011 C   0  0  0  0  0  0  0  0  0  0  0  0
    1.0729    1.0696    0.3698 O   0  0  0  0  0  0  0  0  0  0  0  0
   -0.1607    1.2493   -0.2989 C   0  0  0  0  0  0  0  0  0  0  0  0
   -2.0927    0.2866   -0.4117 H   0  0  0  0  0  0  0  0  0  0  0  0
   -1.4303    0.4248    1.2248 H   0  0  0  0  0  0  0  0  0  0  0  0
   -1.1822   -1.9235    0.5431 H   0  0  0  0  0  0  0  0  0  0  0  0
   -0.4389   -1.4347   -0.9919 H   0  0  0  0  0  0  0  0  0  0  0  0
    1.7250   -0.4207   -0.8742 H   0  0  0  0  0  0  0  0  0  0  0  0
    2.4896   -0.3010    0.7524 H   0  0  0  0  0  0  0  0  0  0  0  0
   -0.0080    1.1481   -1.3844 H   0  0  0  0  0  0  0  0  0  0  0  0
   -0.4826    2.2695   -0.0942 H   0  0  0  0  0  0  0  0  0  0  0  0
  1  2  1  0
  1  6  1  0
  1  7  1  0
  1  8  1  0
  2  3  1  0
  2  9  1  0
  2 10  1  0
  3  4  1  0
  4  5  1  0
  4 11  1  0
  4 12  1  0
  5  6  1  0
  6 13  1  0
  6 14  1  0
M  END
>  <reaction>  (3) 
rmg_rxn_280

>  <mol_properties>  (3) 
{"0": {"label": "acceptor", "atom_type": "Cs"}, "13": {"label": "a_hydrogen", "atom_type": "H0"}}

>  <type>  (3) 
r2h

$$$$

     RDKit          3D

 31 30  0  0  0  0  0  0  0  0999 V2000
    0.3146    1.2151    1.0790 C   0  0  0  0  0  3  0  0  0  0  0  0
   -1.0263    0.9895    0.8564 O   0  0  0  0  0  0  0  0  0  0  0  0
   -1.7792    0.9839    2.0620 C   0  0  0  0  0  0  0  0  0  0  0  0
   -1.1982   -0.0278    3.0373 C   0  0  0  0  0  0  0  0  0  0  0  0
    0.2913    0.2383    3.1888 C   0  0  0  0  0  0  0  0  0  0  0  0
    0.9117    0.2895    1.9109 O   0  0  0  0  0  0  0  0  0  0  0  0
    0.5201    2.2521    1.3909 H   0  0  0  0  0  0  0  0  0  0  0  0
   -1.7642    1.9905    2.5044 H   0  0  0  0  0  0  0  0  0  0  0  0
   -2.8054    0.7444    1.7866 H   0  0  0  0  0  0  0  0  0  0  0  0
   -1.6988    0.0451    4.0055 H   0  0  0  0  0  0  0  0  0  0  0  0
   -1.3501   -1.0369    2.6484 H   0  0  0  0  0  0  0  0  0  0  0  0
    0.7932   -0.5508    3.7474 H   0  0  0  0  0  0  0  0  0  0  0  0
    0.4560    1.1919    3.7112 H   0  0  0  0  0  0  0  0  0  0  0  0
   -0.2217   -2.6675   -3.4111 C   0  0  0  0  0  0  0  0  0  0  0  0
   -0.5854   -2.3542   -1.9658 C   0  0  0  0  0  0  0  0  0  0  0  0
    0.4272   -1.4698   -1.2705 C   0  0  0  0  0  0  0  0  0  0  0  0
    0.4797   -0.2216   -1.9323 O   0  0  0  0  0  0  0  0  0  0  0  0
    1.3555    0.6791   -1.3660 C   0  0  0  0  0  0  0  0  0  0  0  0
    1.4034    1.9557   -2.1530 C   0  0  0  0  0  0  0  0  0  0  0  0
    0.7422   -3.1794   -3.4685 H   0  0  0  0  0  0  0  0  0  0  0  0
   -0.1500   -1.7521   -3.9987 H   0  0  0  0  0  0  0  0  0  0  0  0
   -0.9709   -3.3113   -3.8744 H   0  0  0  0  0  0  0  0  0  0  0  0
   -0.6698   -3.2803   -1.3902 H   0  0  0  0  0  0  0  0  0  0  0  0
   -1.5605   -1.8628   -1.9205 H   0  0  0  0  0  0  0  0  0  0  0  0
    1.4239   -1.9357   -1.2916 H   0  0  0  0  0  0  0  0  0  0  0  0
    0.1513   -1.3168   -0.2218 H   0  0  0  0  0  0  0  0  0  0  0  0
    0.9178    0.9859   -0.1857 H   0  0  0  0  0  0  0  0  0  0  0  0
    2.3403    0.2359   -1.1657 H   0  0  0  0  0  0  0  0  0  0  0  0
    0.4064    2.3936   -2.2234 H   0  0  0  0  0  0  0  0  0  0  0  0
    1.7723    1.7810   -3.1670 H   0  0  0  0  0  0  0  0  0  0  0  0
    2.0650    2.6729   -1.6648 H   0  0  0  0  0  0  0  0  0  0  0  0
  1  2  1  0
  1  6  1  0
  1  7  1  0
  2  3  1  0
  3  4  1  0
  3  8  1  0
  3  9  1  0
  4  5  1  0
  4 10  1  0
  4 11  1  0
  5  6  1  0
  5 12  1  0
  5 13  1  0
 14 15  1  0
 14 20  1  0
 14 21  1  0
 14 22  1  0
 15 16  1  0
 15 23  1  0
 15 24  1  0
 16 17  1  0
 16 25  1  0
 16 26  1  0
 17 18  1  0
 18 19  1  0
 18 27  1  0
 18 28  1  0
 19 29  1  0
 19 30  1  0
 19 31  1  0
M  RAD  1   1   2
M  END
>  <reaction>  (4) 
rmg_rxn_280

>  <mol_properties>  (4) 
{"0": {"label": "*3", "atom_type": "Cs"}, "1": {"label": "*4", "atom_type": "O2s"}, "16": {"label": "*0", "atom_type": "O2s"}, "17": {"label": "*1", "atom_type": "Cs"}, "26": {"label": "*2", "atom_type": "H0"}}

>  <type>  (4) 
ts

$$$$

     RDKit          3D

 31 30  0  0  0  0  0  0  0  0999 V2000
   -0.0482    0.1958    1.3531 C   0  0  0  0  0  0  0  0  0  0  0  0
    1.0748    0.9483    1.6980 O   0  0  0  0  0  0  0  0  0  0  0  0
    0.8267    1.7453    2.8401 C   0  0  0  0  0  0  0  0  0  0  0  0
   -0.3801    2.6431    2.6072 C   0  0  0  0  0  0  0  0  0  0  0  0
   -1.5452    1.7830    2.1389 C   0  0  0  0  0  0  0  0  0  0  0  0
   -1.1557    0.9837    1.0385 O   0  0  0  0  0  0  0  0  0  0  0  0
   -0.3054   -0.4834    2.1866 H   0  0  0  0  0  0  0  0  0  0  0  0
    0.6498    1.0947    3.7103 H   0  0  0  0  0  0  0  0  0  0  0  0
    1.7330    2.3207    3.0238 H   0  0  0  0  0  0  0  0  0  0  0  0
   -0.6428    3.1754    3.5242 H   0  0  0  0  0  0  0  0  0  0  0  0
   -0.1411    3.3803    1.8383 H   0  0  0  0  0  0  0  0  0  0  0  0
   -2.3885    2.3861    1.8053 H   0  0  0  0  0  0  0  0  0  0  0  0
   -1.8889    1.1350    2.9597 H   0  0  0  0  0  0  0  0  0  0  0  0
    1.0450   -3.1858   -3.4992 C   0  0  0  0  0  0  0  0  0  0  0  0
    1.0450   -3.1858   -1.9763 C   0  0  0  0  0  0  0  0  0  0  0  0
    1.0450   -1.7927   -1.3807 C   0  0  0  0  0  0  0  0  0  0  0  0
   -0.1380   -1.1291   -1.7483 O   0  0  0  0  0  0  0  0  0  0  0  0
   -0.2087    0.1889   -1.2674 C   0  0  0  0  0  3  0  0  0  0  0  0
   -1.5120    0.8067   -1.7183 C   0  0  0  0  0  0  0  0  0  0  0  0
    1.9271   -2.6714   -3.8888 H   0  0  0  0  0  0  0  0  0  0  0  0
    0.1623   -2.6761   -3.8852 H   0  0  0  0  0  0  0  0  0  0  0  0
    1.0505   -4.2036   -3.8918 H   0  0  0  0  0  0  0  0  0  0  0  0
    1.9266   -3.7122   -1.6000 H   0  0  0  0  0  0  0  0  0  0  0  0
    0.1707   -3.7237   -1.6010 H   0  0  0  0  0  0  0  0  0  0  0  0
    1.9192   -1.2276   -1.7411 H   0  0  0  0  0  0  0  0  0  0  0  0
    1.1198   -1.8466   -0.2847 H   0  0  0  0  0  0  0  0  0  0  0  0
   -0.1280    0.1924    0.0503 H   0  0  0  0  0  0  0  0  0  0  0  0
    0.6442    0.7719   -1.6453 H   0  0  0  0  0  0  0  0  0  0  0  0
   -2.3584    0.2373   -1.3326 H   0  0  0  0  0  0  0  0  0  0  0  0
   -1.5728    0.8186   -2.8071 H   0  0  0  0  0  0  0  0  0  0  0  0
   -1.5896    1.8328   -1.3552 H   0  0  0  0  0  0  0  0  0  0  0  0
  1  2  1  0
  1  6  1  0
  1  7  1  0
  1 27  1  0
  2  3  1  0
  3  4  1  0
  3  8  1  0
  3  9  1  0
  4  5  1  0
  4 10  1  0
  4 11  1  0
  5  6  1  0
  5 12  1  0
  5 13  1  0
 14 15  1  0
 14 20  1  0
 14 21  1  0
 14 22  1  0
 15 16  1  0
 15 23  1  0
 15 24  1  0
 16 17  1  0
 16 25  1  0
 16 26  1  0
 17 18  1  0
 18 19  1  0
 18 28  1  0
 19 29  1  0
 19 30  1  0
 19 31  1  0
M  RAD  1  18   2
M  END
>  <reaction>  (5) 
rmg_rxn_280

>  <mol_properties>  (5) 
{"0": {"label": "*3", "atom_type": "Cs"}, "1": {"label": "*4", "atom_type": "O2s"}, "16": {"label": "*0", "atom_type": "O2s"}, "17": {"label": "*1", "atom_type": "Cs"}, "26": {"label": "*2", "atom_type": "H0"}}

>  <type>  (5) 
unop_1

>  <geom_source>  (5) 
Heuristics

$$$$

     RDKit          3D

 31 30  0  0  0  0  0  0  0  0999 V2000
   -0.6304    0.7033    1.2230 C   0  0  0  0  0  0  0  0  0  0  0  0
    0.1452   -0.3955    1.5940 O   0  0  0  0  0  0  0  0  0  0  0  0
    0.6552   -0.2436    2.9048 C   0  0  0  0  0  0  0  0  0  0  0  0
    1.4522    1.0483    3.0164 C   0  0  0  0  0  0  0  0  0  0  0  0
    0.5935    2.1971    2.5070 C   0  0  0  0  0  0  0  0  0  0  0  0
    0.0871    1.8998    1.2199 O   0  0  0  0  0  0  0  0  0  0  0  0
   -1.4919    0.7935    1.9099 H   0  0  0  0  0  0  0  0  0  0  0  0
   -0.1779   -0.2356    3.6242 H   0  0  0  0  0  0  0  0  0  0  0  0
    1.2699   -1.1200    3.1055 H   0  0  0  0  0  0  0  0  0  0  0  0
    1.7505    1.2247    4.0523 H   0  0  0  0  0  0  0  0  0  0  0  0
    2.3548    0.9718    2.4071 H   0  0  0  0  0  0  0  0  0  0  0  0
    1.1626    3.1210    2.4142 H   0  0  0  0  0  0  0  0  0  0  0  0
   -0.2440    2.3768    3.1984 H   0  0  0  0  0  0  0  0  0  0  0  0
    0.4628   -2.6782   -3.6292 C   0  0  0  0  0  0  0  0  0  0  0  0
    0.4628   -2.6782   -2.1063 C   0  0  0  0  0  0  0  0  0  0  0  0
    0.4628   -1.2852   -1.5108 C   0  0  0  0  0  0  0  0  0  0  0  0
   -0.7202   -0.6216   -1.8784 O   0  0  0  0  0  0  0  0  0  0  0  0
   -0.7909    0.6965   -1.3975 C   0  0  0  0  0  3  0  0  0  0  0  0
   -2.0942    1.3143   -1.8483 C   0  0  0  0  0  0  0  0  0  0  0  0
    1.3449   -2.1639   -4.0189 H   0  0  0  0  0  0  0  0  0  0  0  0
   -0.4199   -2.1685   -4.0153 H   0  0  0  0  0  0  0  0  0  0  0  0
    0.4683   -3.6961   -4.0219 H   0  0  0  0  0  0  0  0  0  0  0  0
    1.3443   -3.2047   -1.7300 H   0  0  0  0  0  0  0  0  0  0  0  0
   -0.4116   -3.2162   -1.7310 H   0  0  0  0  0  0  0  0  0  0  0  0
    1.3370   -0.7201   -1.8712 H   0  0  0  0  0  0  0  0  0  0  0  0
    0.5376   -1.3391   -0.4148 H   0  0  0  0  0  0  0  0  0  0  0  0
   -0.7102    0.6999   -0.0798 H   0  0  0  0  0  0  0  0  0  0  0  0
    0.0620    1.2795   -1.7754 H   0  0  0  0  0  0  0  0  0  0  0  0
   -2.9406    0.7449   -1.4627 H   0  0  0  0  0  0  0  0  0  0  0  0
   -2.1550    1.3261   -2.9372 H   0  0  0  0  0  0  0  0  0  0  0  0
   -2.1718    2.3403   -1.4853 H   0  0  0  0  0  0  0  0  0  0  0  0
  1  2  1  0
  1  6  1  0
  1  7  1  0
  1 27  1  0
  2  3  1  0
  3  4  1  0
  3  8  1  0
  3  9  1  0
  4  5  1  0
  4 10  1  0
  4 11  1  0
  5  6  1  0
  5 12  1  0
  5 13  1  0
 14 15  1  0
 14 20  1  0
 14 21  1  0
 14 22  1  0
 15 16  1  0
 15 23  1  0
 15 24  1  0
 16 17  1  0
 16 25  1  0
 16 26  1  0
 17 18  1  0
 18 19  1  0
 18 28  1  0
 19 29  1  0
 19 30  1  0
 19 31  1  0
M  RAD  1  18   2
M  END
>  <reaction>  (6) 
rmg_rxn_280

>  <mol_properties>  (6) 
{"0": {"label": "*3", "atom_type": "Cs"}, "1": {"label": "*4", "atom_type": "O2s"}, "16": {"label": "*0", "atom_type": "O2s"}, "17": {"label": "*1", "atom_type": "Cs"}, "26": {"label": "*2", "atom_type": "H0"}}

>  <type>  (6) 
unop_2

>  <geom_source>  (6) 
Heuristics

$$$$

     RDKit          3D

 31 30  0  0  0  0  0  0  0  0999 V2000
    0.1935    0.3734    1.2389 C   0  0  0  0  0  0  0  0  0  0  0  0
    0.7944    1.5751    1.6146 O   0  0  0  0  0  0  0  0  0  0  0  0
    0.3794    1.9735    2.9071 C   0  0  0  0  0  0  0  0  0  0  0  0
   -1.1376    2.0811    2.9664 C   0  0  0  0  0  0  0  0  0  0  0  0
   -1.7396    0.7807    2.4534 C   0  0  0  0  0  0  0  0  0  0  0  0
   -1.1984    0.4534    1.1880 O   0  0  0  0  0  0  0  0  0  0  0  0
    0.4900   -0.4225    1.9466 H   0  0  0  0  0  0  0  0  0  0  0  0
    0.7345    1.2413    3.6485 H   0  0  0  0  0  0  0  0  0  0  0  0
    0.8637    2.9273    3.1117 H   0  0  0  0  0  0  0  0  0  0  0  0
   -1.4669    2.2769    3.9894 H   0  0  0  0  0  0  0  0  0  0  0  0
   -1.4679    2.9080    2.3348 H   0  0  0  0  0  0  0  0  0  0  0  0
   -2.8184    0.8546    2.3234 H   0  0  0  0  0  0  0  0  0  0  0  0
   -1.5337   -0.0355    3.1629 H   0  0  0  0  0  0  0  0  0  0  0  0
    1.2867   -3.0082   -3.6133 C   0  0  0  0  0  0  0  0  0  0  0  0
    1.2867   -3.0082   -2.0904 C   0  0  0  0  0  0  0  0  0  0  0  0
    1.2867   -1.6151   -1.4949 C   0  0  0  0  0  0  0  0  0  0  0  0
    0.1037   -0.9515   -1.8625 O   0  0  0  0  0  0  0  0  0  0  0  0
    0.0330    0.3665   -1.3816 C   0  0  0  0  0  3  0  0  0  0  0  0
   -1.2703    0.9843   -1.8324 C   0  0  0  0  0  0  0  0  0  0  0  0
    2.1688   -2.4939   -4.0030 H   0  0  0  0  0  0  0  0  0  0  0  0
    0.4040   -2.4985   -3.9994 H   0  0  0  0  0  0  0  0  0  0  0  0
    1.2922   -4.0260   -4.0060 H   0  0  0  0  0  0  0  0  0  0  0  0
    2.1682   -3.5346   -1.7141 H   0  0  0  0  0  0  0  0  0  0  0  0
    0.4123   -3.5461   -1.7152 H   0  0  0  0  0  0  0  0  0  0  0  0
    2.1609   -1.0500   -1.8553 H   0  0  0  0  0  0  0  0  0  0  0  0
    1.3615   -1.6690   -0.3989 H   0  0  0  0  0  0  0  0  0  0  0  0
    0.1137    0.3700   -0.0639 H   0  0  0  0  0  0  0  0  0  0  0  0
    0.8859    0.9495   -1.7595 H   0  0  0  0  0  0  0  0  0  0  0  0
   -2.1167    0.4149   -1.4468 H   0  0  0  0  0  0  0  0  0  0  0  0
   -1.3311    0.9962   -2.9213 H   0  0  0  0  0  0  0  0  0  0  0  0
   -1.3479    2.0103   -1.4694 H   0  0  0  0  0  0  0  0  0  0  0  0
  1  2  1  0
  1  6  1  0
  1  7  1  0
  1 27  1  0
  2  3  1  0
  3  4  1  0
  3  8  1  0
  3  9  1  0
  4  5  1  0
  4 10  1  0
  4 11  1  0
  5  6  1  0
  5 12  1  0
  5 13  1  0
 14 15  1  0
 14 20  1  0
 14 21  1  0
 14 22  1  0
 15 16  1  0
 15 23  1  0
 15 24  1  0
 16 17  1  0
 16 25  1  0
 16 26  1  0
 17 18  1  0
 18 19  1  0
 18 28  1  0
 19 29  1  0
 19 30  1  0
 19 31  1  0
M  RAD  1  18   2
M  END
>  <reaction>  (7) 
rmg_rxn_280

>  <mol_properties>  (7) 
{"0": {"label": "*3", "atom_type": "Cs"}, "1": {"label": "*4", "atom_type": "O2s"}, "16": {"label": "*0", "atom_type": "O2s"}, "17": {"label": "*1", "atom_type": "Cs"}, "26": {"label": "*2", "atom_type": "H0"}}

>  <type>  (7) 
unop_3

>  <geom_source>  (7) 
Heuristics

$$$$

     RDKit          3D

 31 30  0  0  0  0  0  0  0  0999 V2000
   -0.0447    0.8553    0.9947 C   0  0  0  0  0  0  0  0  0  0  0  0
   -1.1170    0.1050    1.4780 O   0  0  0  0  0  0  0  0  0  0  0  0
   -1.5480    0.5800    2.7389 C   0  0  0  0  0  0  0  0  0  0  0  0
   -0.3918    0.5781    3.7288 C   0  0  0  0  0  0  0  0  0  0  0  0
    0.7816    1.3244    3.1102 C   0  0  0  0  0  0  0  0  0  0  0  0
    1.0738    0.8049    1.8271 O   0  0  0  0  0  0  0  0  0  0  0  0
   -0.3604    1.9071    0.8669 H   0  0  0  0  0  0  0  0  0  0  0  0
   -1.9487    1.5995    2.6297 H   0  0  0  0  0  0  0  0  0  0  0  0
   -2.3594   -0.0722    3.0591 H   0  0  0  0  0  0  0  0  0  0  0  0
   -0.6920    1.0494    4.6674 H   0  0  0  0  0  0  0  0  0  0  0  0
   -0.0965   -0.4514    3.9401 H   0  0  0  0  0  0  0  0  0  0  0  0
    1.6887    1.2212    3.7042 H   0  0  0  0  0  0  0  0  0  0  0  0
    0.5448    2.3962    3.0270 H   0  0  0  0  0  0  0  0  0  0  0  0
    1.0485   -2.5262   -3.8575 C   0  0  0  0  0  0  0  0  0  0  0  0
    1.0485   -2.5262   -2.3346 C   0  0  0  0  0  0  0  0  0  0  0  0
    1.0485   -1.1332   -1.7391 C   0  0  0  0  0  0  0  0  0  0  0  0
   -0.1345   -0.4696   -2.1067 O   0  0  0  0  0  0  0  0  0  0  0  0
   -0.2052    0.8485   -1.6258 C   0  0  0  0  0  3  0  0  0  0  0  0
   -1.5085    1.4663   -2.0766 C   0  0  0  0  0  0  0  0  0  0  0  0
    1.9306   -2.0119   -4.2471 H   0  0  0  0  0  0  0  0  0  0  0  0
    0.1658   -2.0165   -4.2436 H   0  0  0  0  0  0  0  0  0  0  0  0
    1.0540   -3.5441   -4.2502 H   0  0  0  0  0  0  0  0  0  0  0  0
    1.9301   -3.0527   -1.9583 H   0  0  0  0  0  0  0  0  0  0  0  0
    0.1742   -3.0642   -1.9593 H   0  0  0  0  0  0  0  0  0  0  0  0
    1.9227   -0.5681   -2.0995 H   0  0  0  0  0  0  0  0  0  0  0  0
    1.1233   -1.1871   -0.6430 H   0  0  0  0  0  0  0  0  0  0  0  0
   -0.1245    0.8519   -0.3081 H   0  0  0  0  0  0  0  0  0  0  0  0
    0.6477    1.4315   -2.0037 H   0  0  0  0  0  0  0  0  0  0  0  0
   -2.3548    0.8969   -1.6909 H   0  0  0  0  0  0  0  0  0  0  0  0
   -1.5693    1.4781   -3.1654 H   0  0  0  0  0  0  0  0  0  0  0  0
   -1.5861    2.4923   -1.7136 H   0  0  0  0  0  0  0  0  0  0  0  0
  1  2  1  0
  1  6  1  0
  1  7  1  0
  1 27  1  0
  2  3  1  0
  3  4  1  0
  3  8  1  0
  3  9  1  0
  4  5  1  0
  4 10  1  0
  4 11  1  0
  5  6  1  0
  5 12  1  0
  5 13  1  0
 14 15  1  0
 14 20  1  0
 14 21  1  0
 14 22  1  0
 15 16  1  0
 15 23  1  0
 15 24  1  0
 16 17  1  0
 16 25  1  0
 16 26  1  0
 17 18  1  0
 18 19  1  0
 18 28  1  0
 19 29  1  0
 19 30  1  0
 19 31  1  0
M  RAD  1  18   2
M  END
>  <reaction>  (8) 
rmg_rxn_280

>  <mol_properties>  (8) 
{"0": {"label": "*3", "atom_type": "Cs"}, "1": {"label": "*4", "atom_type": "O2s"}, "16": {"label": "*0", "atom_type": "O2s"}, "17": {"label": "*1", "atom_type": "Cs"}, "26": {"label": "*2", "atom_type": "H0"}}

>  <type>  (8) 
unop_4

>  <geom_source>  (8) 
Heuristics

$$$$

     RDKit          3D

 31 30  0  0  0  0  0  0  0  0999 V2000
    0.1455    0.6418    1.0617 C   0  0  0  0  0  0  0  0  0  0  0  0
    0.0700    1.9711    1.4785 O   0  0  0  0  0  0  0  0  0  0  0  0
    0.1259    2.0701    2.8886 C   0  0  0  0  0  0  0  0  0  0  0  0
   -0.9792    1.2370    3.5220 C   0  0  0  0  0  0  0  0  0  0  0  0
   -0.9104   -0.1750    2.9579 C   0  0  0  0  0  0  0  0  0  0  0  0
   -0.9045   -0.1402    1.5437 O   0  0  0  0  0  0  0  0  0  0  0  0
    1.1077    0.2079    1.3906 H   0  0  0  0  0  0  0  0  0  0  0  0
    1.1090    1.7231    3.2422 H   0  0  0  0  0  0  0  0  0  0  0  0
    0.0300    3.1271    3.1328 H   0  0  0  0  0  0  0  0  0  0  0  0
   -0.8694    1.2198    4.6087 H   0  0  0  0  0  0  0  0  0  0  0  0
   -1.9489    1.6771    3.2815 H   0  0  0  0  0  0  0  0  0  0  0  0
   -1.7707   -0.7740    3.2532 H   0  0  0  0  0  0  0  0  0  0  0  0
   -0.0002   -0.6799    3.3164 H   0  0  0  0  0  0  0  0  0  0  0  0
    1.2387   -2.7397   -3.7905 C   0  0  0  0  0  0  0  0  0  0  0  0
    1.2387   -2.7397   -2.2676 C   0  0  0  0  0  0  0  0  0  0  0  0
    1.2387   -1.3466   -1.6721 C   0  0  0  0  0  0  0  0  0  0  0  0
    0.0557   -0.6830   -2.0397 O   0  0  0  0  0  0  0  0  0  0  0  0
   -0.0150    0.6350   -1.5588 C   0  0  0  0  0  3  0  0  0  0  0  0
   -1.3183    1.2528   -2.0096 C   0  0  0  0  0  0  0  0  0  0  0  0
    2.1208   -2.2254   -4.1801 H   0  0  0  0  0  0  0  0  0  0  0  0
    0.3560   -2.2300   -4.1766 H   0  0  0  0  0  0  0  0  0  0  0  0
    1.2442   -3.7576   -4.1832 H   0  0  0  0  0  0  0  0  0  0  0  0
    2.1203   -3.2662   -1.8913 H   0  0  0  0  0  0  0  0  0  0  0  0
    0.3644   -3.2777   -1.8923 H   0  0  0  0  0  0  0  0  0  0  0  0
    2.1129   -0.7816   -2.0325 H   0  0  0  0  0  0  0  0  0  0  0  0
    1.3135   -1.4006   -0.5761 H   0  0  0  0  0  0  0  0  0  0  0  0
    0.0657    0.6384   -0.2411 H   0  0  0  0  0  0  0  0  0  0  0  0
    0.8379    1.2180   -1.9367 H   0  0  0  0  0  0  0  0  0  0  0  0
   -2.1647    0.6834   -1.6240 H   0  0  0  0  0  0  0  0  0  0  0  0
   -1.3791    1.2647   -3.0985 H   0  0  0  0  0  0  0  0  0  0  0  0
   -1.3959    2.2788   -1.6466 H   0  0  0  0  0  0  0  0  0  0  0  0
  1  2  1  0
  1  6  1  0
  1  7  1  0
  1 27  1  0
  2  3  1  0
  3  4  1  0
  3  8  1  0
  3  9  1  0
  4  5  1  0
  4 10  1  0
  4 11  1  0
  5  6  1  0
  5 12  1  0
  5 13  1  0
 14 15  1  0
 14 20  1  0
 14 21  1  0
 14 22  1  0
 15 16  1  0
 15 23  1  0
 15 24  1  0
 16 17  1  0
 16 25  1  0
 16 26  1  0
 17 18  1  0
 18 19  1  0
 18 28  1  0
 19 29  1  0
 19 30  1  0
 19 31  1  0
M  RAD  1  18   2
M  END
>  <reaction>  (9) 
rmg_rxn_280

>  <mol_properties>  (9) 
{"0": {"label": "*3", "atom_type": "Cs"}, "1": {"label": "*4", "atom_type": "O2s"}, "16": {"label": "*0", "atom_type": "O2s"}, "17": {"label": "*1", "atom_type": "Cs"}, "26": {"label": "*2", "atom_type": "H0"}}

>  <type>  (9) 
unop_5

>  <geom_source>  (9) 
Heuristics

$$$$

     RDKit          3D

 31 30  0  0  0  0  0  0  0  0999 V2000
   -0.0184    0.7151    0.9988 C   0  0  0  0  0  0  0  0  0  0  0  0
   -1.3188    0.6153    1.4943 O   0  0  0  0  0  0  0  0  0  0  0  0
   -1.4882    1.4095    2.6527 C   0  0  0  0  0  0  0  0  0  0  0  0
   -0.4693    1.0210    3.7146 C   0  0  0  0  0  0  0  0  0  0  0  0
    0.9196    1.0516    3.0927 C   0  0  0  0  0  0  0  0  0  0  0  0
    0.9455    0.2787    1.9081 O   0  0  0  0  0  0  0  0  0  0  0  0
    0.1886    1.7645    0.7193 H   0  0  0  0  0  0  0  0  0  0  0  0
   -1.3715    2.4720    2.3896 H   0  0  0  0  0  0  0  0  0  0  0  0
   -2.5109    1.2534    2.9931 H   0  0  0  0  0  0  0  0  0  0  0  0
   -0.5226    1.7060    4.5638 H   0  0  0  0  0  0  0  0  0  0  0  0
   -0.6846    0.0124    4.0725 H   0  0  0  0  0  0  0  0  0  0  0  0
    1.6730    0.6314    3.7577 H   0  0  0  0  0  0  0  0  0  0  0  0
    1.2056    2.0889    2.8605 H   0  0  0  0  0  0  0  0  0  0  0  0
    1.0748   -2.6665   -3.8535 C   0  0  0  0  0  0  0  0  0  0  0  0
    1.0748   -2.6665   -2.3306 C   0  0  0  0  0  0  0  0  0  0  0  0
    1.0748   -1.2734   -1.7351 C   0  0  0  0  0  0  0  0  0  0  0  0
   -0.1082   -0.6098   -2.1027 O   0  0  0  0  0  0  0  0  0  0  0  0
   -0.1789    0.7083   -1.6218 C   0  0  0  0  0  3  0  0  0  0  0  0
   -1.4823    1.3260   -2.0726 C   0  0  0  0  0  0  0  0  0  0  0  0
    1.9569   -2.1521   -4.2431 H   0  0  0  0  0  0  0  0  0  0  0  0
    0.1921   -2.1568   -4.2396 H   0  0  0  0  0  0  0  0  0  0  0  0
    1.0803   -3.6843   -4.2461 H   0  0  0  0  0  0  0  0  0  0  0  0
    1.9563   -3.1929   -1.9543 H   0  0  0  0  0  0  0  0  0  0  0  0
    0.2004   -3.2044   -1.9553 H   0  0  0  0  0  0  0  0  0  0  0  0
    1.9490   -0.7083   -2.0954 H   0  0  0  0  0  0  0  0  0  0  0  0
    1.1496   -1.3273   -0.6390 H   0  0  0  0  0  0  0  0  0  0  0  0
   -0.0982    0.7117   -0.3041 H   0  0  0  0  0  0  0  0  0  0  0  0
    0.6739    1.2912   -1.9996 H   0  0  0  0  0  0  0  0  0  0  0  0
   -2.3286    0.7566   -1.6869 H   0  0  0  0  0  0  0  0  0  0  0  0
   -1.5431    1.3379   -3.1614 H   0  0  0  0  0  0  0  0  0  0  0  0
   -1.5599    2.3521   -1.7095 H   0  0  0  0  0  0  0  0  0  0  0  0
  1  2  1  0
  1  6  1  0
  1  7  1  0
  1 27  1  0
  2  3  1  0
  3  4  1  0
  3  8  1  0
  3  9  1  0
  4  5  1  0
  4 10  1  0
  4 11  1  0
  5  6  1  0
  5 12  1  0
  5 13  1  0
 14 15  1  0
 14 20  1  0
 14 21  1  0
 14 22  1  0
 15 16  1  0
 15 23  1  0
 15 24  1  0
 16 17  1  0
 16 25  1  0
 16 26  1  0
 17 18  1  0
 18 19  1  0
 18 28  1  0
 19 29  1  0
 19 30  1  0
 19 31  1  0
M  RAD  1  18   2
M  END
>  <reaction>  (10) 
rmg_rxn_280

>  <mol_properties>  (10) 
{"0": {"label": "*3", "atom_type": "Cs"}, "1": {"label": "*4", "atom_type": "O2s"}, "16": {"label": "*0", "atom_type": "O2s"}, "17": {"label": "*1", "atom_type": "Cs"}, "26": {"label": "*2", "atom_type": "H0"}}

>  <type>  (10) 
unop_6

>  <geom_source>  (10) 
Heuristics

$$$$

     RDKit          3D

 31 30  0  0  0  0  0  0  0  0999 V2000
   -0.0711    0.6543    1.0015 C   0  0  0  0  0  0  0  0  0  0  0  0
   -1.2442    1.2322    1.4875 O   0  0  0  0  0  0  0  0  0  0  0  0
   -0.9882    2.0317    2.6262 C   0  0  0  0  0  0  0  0  0  0  0  0
   -0.2979    1.2102    3.7056 C   0  0  0  0  0  0  0  0  0  0  0  0
    0.9167    0.5251    3.0957 C   0  0  0  0  0  0  0  0  0  0  0  0
    0.5471   -0.1847    1.9291 O   0  0  0  0  0  0  0  0  0  0  0  0
    0.6335    1.4512    0.7003 H   0  0  0  0  0  0  0  0  0  0  0  0
   -0.3552    2.8858    2.3401 H   0  0  0  0  0  0  0  0  0  0  0  0
   -1.9501    2.4179    2.9608 H   0  0  0  0  0  0  0  0  0  0  0  0
    0.0026    1.8498    4.5386 H   0  0  0  0  0  0  0  0  0  0  0  0
   -0.9889    0.4546    4.0843 H   0  0  0  0  0  0  0  0  0  0  0  0
    1.3600   -0.2001    3.7767 H   0  0  0  0  0  0  0  0  0  0  0  0
    1.6837    1.2731    2.8427 H   0  0  0  0  0  0  0  0  0  0  0  0
    1.0222   -2.7272   -3.8507 C   0  0  0  0  0  0  0  0  0  0  0  0
    1.0222   -2.7272   -2.3278 C   0  0  0  0  0  0  0  0  0  0  0  0
    1.0222   -1.3341   -1.7323 C   0  0  0  0  0  0  0  0  0  0  0  0
   -0.1608   -0.6705   -2.0999 O   0  0  0  0  0  0  0  0  0  0  0  0
   -0.2316    0.6475   -1.6190 C   0  0  0  0  0  3  0  0  0  0  0  0
   -1.5349    1.2653   -2.0698 C   0  0  0  0  0  0  0  0  0  0  0  0
    1.9042   -2.2129   -4.2403 H   0  0  0  0  0  0  0  0  0  0  0  0
    0.1394   -2.2175   -4.2368 H   0  0  0  0  0  0  0  0  0  0  0  0
    1.0276   -3.7451   -4.2434 H   0  0  0  0  0  0  0  0  0  0  0  0
    1.9037   -3.2537   -1.9515 H   0  0  0  0  0  0  0  0  0  0  0  0
    0.1478   -3.2652   -1.9525 H   0  0  0  0  0  0  0  0  0  0  0  0
    1.8964   -0.7691   -2.0927 H   0  0  0  0  0  0  0  0  0  0  0  0
    1.0969   -1.3881   -0.6362 H   0  0  0  0  0  0  0  0  0  0  0  0
   -0.1509    0.6509   -0.3013 H   0  0  0  0  0  0  0  0  0  0  0  0
    0.6213    1.2305   -1.9969 H   0  0  0  0  0  0  0  0  0  0  0  0
   -2.3812    0.6959   -1.6841 H   0  0  0  0  0  0  0  0  0  0  0  0
   -1.5957    1.2772   -3.1586 H   0  0  0  0  0  0  0  0  0  0  0  0
   -1.6125    2.2913   -1.7068 H   0  0  0  0  0  0  0  0  0  0  0  0
  1  2  1  0
  1  6  1  0
  1  7  1  0
  1 27  1  0
  2  3  1  0
  3  4  1  0
  3  8  1  0
  3  9  1  0
  4  5  1  0
  4 10  1  0
  4 11  1  0
  5  6  1  0
  5 12  1  0
  5 13  1  0
 14 15  1  0
 14 20  1  0
 14 21  1  0
 14 22  1  0
 15 16  1  0
 15 23  1  0
 15 24  1  0
 16 17  1  0
 16 25  1  0
 16 26  1  0
 17 18  1  0
 18 19  1  0
 18 28  1  0
 19 29  1  0
 19 30  1  0
 19 31  1  0
M  RAD  1  18   2
M  END
>  <reaction>  (11) 
rmg_rxn_280

>  <mol_properties>  (11) 
{"0": {"label": "*3", "atom_type": "Cs"}, "1": {"label": "*4", "atom_type": "O2s"}, "16": {"label": "*0", "atom_type": "O2s"}, "17": {"label": "*1", "atom_type": "Cs"}, "26": {"label": "*2", "atom_type": "H0"}}

>  <type>  (11) 
unop_7

>  <geom_source>  (11) 
Heuristics

$$$$

     RDKit          3D

 31 30  0  0  0  0  0  0  0  0999 V2000
   -0.3564    0.2243    1.3761 C   0  0  0  0  0  0  0  0  0  0  0  0
    0.9947    0.3262    1.7087 O   0  0  0  0  0  0  0  0  0  0  0  0
    1.1863    1.1841    2.8172 C   0  0  0  0  0  0  0  0  0  0  0  0
    0.5899    2.5556    2.5346 C   0  0  0  0  0  0  0  0  0  0  0  0
   -0.8522    2.3769    2.0820 C   0  0  0  0  0  0  0  0  0  0  0  0
   -0.9224    1.4480    1.0173 O   0  0  0  0  0  0  0  0  0  0  0  0
   -0.9138   -0.2019    2.2304 H   0  0  0  0  0  0  0  0  0  0  0  0
    0.7130    0.7438    3.7082 H   0  0  0  0  0  0  0  0  0  0  0  0
    2.2601    1.2350    2.9923 H   0  0  0  0  0  0  0  0  0  0  0  0
    0.6350    3.1830    3.4277 H   0  0  0  0  0  0  0  0  0  0  0  0
    1.1611    3.0436    1.7425 H   0  0  0  0  0  0  0  0  0  0  0  0
   -1.2822    3.3077    1.7148 H   0  0  0  0  0  0  0  0  0  0  0  0
   -1.4690    2.0205    2.9213 H   0  0  0  0  0  0  0  0  0  0  0  0
    0.7369   -3.1572   -3.4761 C   0  0  0  0  0  0  0  0  0  0  0  0
    0.7369   -3.1572   -1.9532 C   0  0  0  0  0  0  0  0  0  0  0  0
    0.7369   -1.7642   -1.3577 C   0  0  0  0  0  0  0  0  0  0  0  0
   -0.4461   -1.1006   -1.7253 O   0  0  0  0  0  0  0  0  0  0  0  0
   -0.5168    0.2175   -1.2444 C   0  0  0  0  0  3  0  0  0  0  0  0
   -1.8202    0.8353   -1.6952 C   0  0  0  0  0  0  0  0  0  0  0  0
    1.6189   -2.6429   -3.8657 H   0  0  0  0  0  0  0  0  0  0  0  0
   -0.1459   -2.6475   -3.8622 H   0  0  0  0  0  0  0  0  0  0  0  0
    0.7423   -4.1751   -3.8688 H   0  0  0  0  0  0  0  0  0  0  0  0
    1.6184   -3.6837   -1.5769 H   0  0  0  0  0  0  0  0  0  0  0  0
   -0.1375   -3.6952   -1.5779 H   0  0  0  0  0  0  0  0  0  0  0  0
    1.6111   -1.1991   -1.7181 H   0  0  0  0  0  0  0  0  0  0  0  0
    0.8117   -1.8181   -0.2616 H   0  0  0  0  0  0  0  0  0  0  0  0
   -0.4361    0.2209    0.0733 H   0  0  0  0  0  0  0  0  0  0  0  0
    0.3360    0.8005   -1.6223 H   0  0  0  0  0  0  0  0  0  0  0  0
   -2.6665    0.2659   -1.3095 H   0  0  0  0  0  0  0  0  0  0  0  0
   -1.8810    0.8471   -2.7840 H   0  0  0  0  0  0  0  0  0  0  0  0
   -1.8978    1.8613   -1.3322 H   0  0  0  0  0  0  0  0  0  0  0  0
  1  2  1  0
  1  6  1  0
  1  7  1  0
  1 27  1  0
  2  3  1  0
  3  4  1  0
  3  8  1  0
  3  9  1  0
  4  5  1  0
  4 10  1  0
  4 11  1  0
  5  6  1  0
  5 12  1  0
  5 13  1  0
 14 15  1  0
 14 20  1  0
 14 21  1  0
 14 22  1  0
 15 16  1  0
 15 23  1  0
 15 24  1  0
 16 17  1  0
 16 25  1  0
 16 26  1  0
 17 18  1  0
 18 19  1  0
 18 28  1  0
 19 29  1  0
 19 30  1  0
 19 31  1  0
M  RAD  1  18   2
M  END
>  <reaction>  (12) 
rmg_rxn_280

>  <mol_properties>  (12) 
{"0": {"label": "*3", "atom_type": "Cs"}, "1": {"label": "*4", "atom_type": "O2s"}, "16": {"label": "*0", "atom_type": "O2s"}, "17": {"label": "*1", "atom_type": "Cs"}, "26": {"label": "*2", "atom_type": "H0"}}

>  <type>  (12) 
unop_8

>  <geom_source>  (12) 
Heuristics

$$$$

     RDKit          3D

 31 30  0  0  0  0  0  0  0  0999 V2000
   -0.2156    0.9693    1.0177 C   0  0  0  0  0  0  0  0  0  0  0  0
   -0.7657   -0.2303    1.4702 O   0  0  0  0  0  0  0  0  0  0  0  0
   -1.0873   -0.1599    2.8461 C   0  0  0  0  0  0  0  0  0  0  0  0
    0.1435    0.2157    3.6589 C   0  0  0  0  0  0  0  0  0  0  0  0
    0.7579    1.4735    3.0613 C   0  0  0  0  0  0  0  0  0  0  0  0
    0.9695    1.3058    1.6726 O   0  0  0  0  0  0  0  0  0  0  0  0
   -0.9517    1.7836    1.1490 H   0  0  0  0  0  0  0  0  0  0  0  0
   -1.8822    0.5860    2.9995 H   0  0  0  0  0  0  0  0  0  0  0  0
   -1.4784   -1.1369    3.1270 H   0  0  0  0  0  0  0  0  0  0  0  0
   -0.1255    0.3818    4.7045 H   0  0  0  0  0  0  0  0  0  0  0  0
    0.8694   -0.5986    3.6158 H   0  0  0  0  0  0  0  0  0  0  0  0
    1.7279    1.7015    3.5009 H   0  0  0  0  0  0  0  0  0  0  0  0
    0.0928    2.3343    3.2299 H   0  0  0  0  0  0  0  0  0  0  0  0
    0.8777   -2.4122   -3.8345 C   0  0  0  0  0  0  0  0  0  0  0  0
    0.8777   -2.4122   -2.3116 C   0  0  0  0  0  0  0  0  0  0  0  0
    0.8777   -1.0192   -1.7161 C   0  0  0  0  0  0  0  0  0  0  0  0
   -0.3053   -0.3556   -2.0837 O   0  0  0  0  0  0  0  0  0  0  0  0
   -0.3761    0.9625   -1.6028 C   0  0  0  0  0  3  0  0  0  0  0  0
   -1.6794    1.5803   -2.0536 C   0  0  0  0  0  0  0  0  0  0  0  0
    1.7597   -1.8979   -4.2241 H   0  0  0  0  0  0  0  0  0  0  0  0
   -0.0051   -1.9025   -4.2206 H   0  0  0  0  0  0  0  0  0  0  0  0
    0.8831   -3.4301   -4.2272 H   0  0  0  0  0  0  0  0  0  0  0  0
    1.7592   -2.9387   -1.9353 H   0  0  0  0  0  0  0  0  0  0  0  0
    0.0033   -2.9502   -1.9363 H   0  0  0  0  0  0  0  0  0  0  0  0
    1.7518   -0.4541   -2.0765 H   0  0  0  0  0  0  0  0  0  0  0  0
    0.9524   -1.0731   -0.6200 H   0  0  0  0  0  0  0  0  0  0  0  0
   -0.2954    0.9659   -0.2851 H   0  0  0  0  0  0  0  0  0  0  0  0
    0.4768    1.5455   -1.9807 H   0  0  0  0  0  0  0  0  0  0  0  0
   -2.5257    1.0109   -1.6679 H   0  0  0  0  0  0  0  0  0  0  0  0
   -1.7402    1.5921   -3.1424 H   0  0  0  0  0  0  0  0  0  0  0  0
   -1.7570    2.6063   -1.6906 H   0  0  0  0  0  0  0  0  0  0  0  0
  1  2  1  0
  1  6  1  0
  1  7  1  0
  1 27  1  0
  2  3  1  0
  3  4  1  0
  3  8  1  0
  3  9  1  0
  4  5  1  0
  4 10  1  0
  4 11  1  0
  5  6  1  0
  5 12  1  0
  5 13  1  0
 14 15  1  0
 14 20  1  0
 14 21  1  0
 14 22  1  0
 15 16  1  0
 15 23  1  0
 15 24  1  0
 16 17  1  0
 16 25  1  0
 16 26  1  0
 17 18  1  0
 18 19  1  0
 18 28  1  0
 19 29  1  0
 19 30  1  0
 19 31  1  0
M  RAD  1  18   2
M  END
>  <reaction>  (13) 
rmg_rxn_280

>  <mol_properties>  (13) 
{"0": {"label": "*3", "atom_type": "Cs"}, "1": {"label": "*4", "atom_type": "O2s"}, "16": {"label": "*0", "atom_type": "O2s"}, "17": {"label": "*1", "atom_type": "Cs"}, "26": {"label": "*2", "atom_type": "H0"}}

>  <type>  (13) 
unop_9

>  <geom_source>  (13) 
Heuristics

$$$$

     RDKit          3D

 31 30  0  0  0  0  0  0  0  0999 V2000
   -0.5824    0.4225    1.3283 C   0  0  0  0  0  0  0  0  0  0  0  0
    0.6415   -0.1532    1.6705 O   0  0  0  0  0  0  0  0  0  0  0  0
    1.1682    0.4252    2.8492 C   0  0  0  0  0  0  0  0  0  0  0  0
    1.3021    1.9324    2.6851 C   0  0  0  0  0  0  0  0  0  0  0  0
   -0.0332    2.4930    2.2167 C   0  0  0  0  0  0  0  0  0  0  0  0
   -0.4884    1.7913    1.0757 O   0  0  0  0  0  0  0  0  0  0  0  0
   -1.3105    0.2483    2.1418 H   0  0  0  0  0  0  0  0  0  0  0  0
    0.5060    0.1960    3.6981 H   0  0  0  0  0  0  0  0  0  0  0  0
    2.1305   -0.0520    3.0296 H   0  0  0  0  0  0  0  0  0  0  0  0
    1.6002    2.3943    3.6291 H   0  0  0  0  0  0  0  0  0  0  0  0
    2.0689    2.1497    1.9390 H   0  0  0  0  0  0  0  0  0  0  0  0
    0.0429    3.5411    1.9305 H   0  0  0  0  0  0  0  0  0  0  0  0
   -0.7799    2.4093    3.0212 H   0  0  0  0  0  0  0  0  0  0  0  0
    0.5108   -2.9591   -3.5239 C   0  0  0  0  0  0  0  0  0  0  0  0
    0.5108   -2.9591   -2.0010 C   0  0  0  0  0  0  0  0  0  0  0  0
    0.5108   -1.5660   -1.4055 C   0  0  0  0  0  0  0  0  0  0  0  0
   -0.6722   -0.9024   -1.7731 O   0  0  0  0  0  0  0  0  0  0  0  0
   -0.7429    0.4156   -1.2922 C   0  0  0  0  0  3  0  0  0  0  0  0
   -2.0462    1.0334   -1.7430 C   0  0  0  0  0  0  0  0  0  0  0  0
    1.3929   -2.4448   -3.9135 H   0  0  0  0  0  0  0  0  0  0  0  0
   -0.3719   -2.4494   -3.9100 H   0  0  0  0  0  0  0  0  0  0  0  0
    0.5163   -3.9769   -3.9166 H   0  0  0  0  0  0  0  0  0  0  0  0
    1.3923   -3.4855   -1.6247 H   0  0  0  0  0  0  0  0  0  0  0  0
   -0.3636   -3.4970   -1.6257 H   0  0  0  0  0  0  0  0  0  0  0  0
    1.3850   -1.0009   -1.7659 H   0  0  0  0  0  0  0  0  0  0  0  0
    0.5856   -1.6199   -0.3094 H   0  0  0  0  0  0  0  0  0  0  0  0
   -0.6622    0.4191    0.0255 H   0  0  0  0  0  0  0  0  0  0  0  0
    0.1099    0.9986   -1.6701 H   0  0  0  0  0  0  0  0  0  0  0  0
   -2.8926    0.4640   -1.3573 H   0  0  0  0  0  0  0  0  0  0  0  0
   -2.1071    1.0453   -2.8318 H   0  0  0  0  0  0  0  0  0  0  0  0
   -2.1239    2.0594   -1.3800 H   0  0  0  0  0  0  0  0  0  0  0  0
  1  2  1  0
  1  6  1  0
  1  7  1  0
  1 27  1  0
  2  3  1  0
  3  4  1  0
  3  8  1  0
  3  9  1  0
  4  5  1  0
  4 10  1  0
  4 11  1  0
  5  6  1  0
  5 12  1  0
  5 13  1  0
 14 15  1  0
 14 20  1  0
 14 21  1  0
 14 22  1  0
 15 16  1  0
 15 23  1  0
 15 24  1  0
 16 17  1  0
 16 25  1  0
 16 26  1  0
 17 18  1  0
 18 19  1  0
 18 28  1  0
 19 29  1  0
 19 30  1  0
 19 31  1  0
M  RAD  1  18   2
M  END
>  <reaction>  (14) 
rmg_rxn_280

>  <mol_properties>  (14) 
{"0": {"label": "*3", "atom_type": "Cs"}, "1": {"label": "*4", "atom_type": "O2s"}, "16": {"label": "*0", "atom_type": "O2s"}, "17": {"label": "*1", "atom_type": "Cs"}, "26": {"label": "*2", "atom_type": "H0"}}

>  <type>  (14) 
unop_10

>  <geom_source>  (14) 
Heuristics

$$$$

     RDKit          3D

 31 30  0  0  0  0  0  0  0  0999 V2000
   -0.0543    0.6899    0.9970 C   0  0  0  0  0  0  0  0  0  0  0  0
   -0.7792    1.7908    1.4541 O   0  0  0  0  0  0  0  0  0  0  0  0
   -0.3041    2.2307    2.7120 C   0  0  0  0  0  0  0  0  0  0  0  0
   -0.3472    1.0927    3.7218 C   0  0  0  0  0  0  0  0  0  0  0  0
    0.3720   -0.1116    3.1310 C   0  0  0  0  0  0  0  0  0  0  0  0
   -0.1434   -0.4120    1.8482 O   0  0  0  0  0  0  0  0  0  0  0  0
    1.0069    0.9742    0.8740 H   0  0  0  0  0  0  0  0  0  0  0  0
    0.7271    2.6013    2.6057 H   0  0  0  0  0  0  0  0  0  0  0  0
   -0.9365    3.0653    3.0115 H   0  0  0  0  0  0  0  0  0  0  0  0
    0.1235    1.3963    4.6596 H   0  0  0  0  0  0  0  0  0  0  0  0
   -1.3864    0.8297    3.9281 H   0  0  0  0  0  0  0  0  0  0  0  0
    0.2383   -1.0048    3.7396 H   0  0  0  0  0  0  0  0  0  0  0  0
    1.4507    0.0942    3.0542 H   0  0  0  0  0  0  0  0  0  0  0  0
    1.0389   -2.6917   -3.8552 C   0  0  0  0  0  0  0  0  0  0  0  0
    1.0389   -2.6917   -2.3323 C   0  0  0  0  0  0  0  0  0  0  0  0
    1.0389   -1.2986   -1.7368 C   0  0  0  0  0  0  0  0  0  0  0  0
   -0.1441   -0.6350   -2.1044 O   0  0  0  0  0  0  0  0  0  0  0  0
   -0.2148    0.6830   -1.6235 C   0  0  0  0  0  3  0  0  0  0  0  0
   -1.5181    1.3008   -2.0744 C   0  0  0  0  0  0  0  0  0  0  0  0
    1.9210   -2.1773   -4.2449 H   0  0  0  0  0  0  0  0  0  0  0  0
    0.1562   -2.1820   -4.2413 H   0  0  0  0  0  0  0  0  0  0  0  0
    1.0444   -3.7095   -4.2479 H   0  0  0  0  0  0  0  0  0  0  0  0
    1.9204   -3.2181   -1.9561 H   0  0  0  0  0  0  0  0  0  0  0  0
    0.1645   -3.2296   -1.9571 H   0  0  0  0  0  0  0  0  0  0  0  0
    1.9131   -0.7335   -2.0972 H   0  0  0  0  0  0  0  0  0  0  0  0
    1.1137   -1.3525   -0.6408 H   0  0  0  0  0  0  0  0  0  0  0  0
   -0.1341    0.6865   -0.3058 H   0  0  0  0  0  0  0  0  0  0  0  0
    0.6381    1.2660   -2.0014 H   0  0  0  0  0  0  0  0  0  0  0  0
   -2.3645    0.7314   -1.6887 H   0  0  0  0  0  0  0  0  0  0  0  0
   -1.5789    1.3127   -3.1632 H   0  0  0  0  0  0  0  0  0  0  0  0
   -1.5957    2.3269   -1.7113 H   0  0  0  0  0  0  0  0  0  0  0  0
  1  2  1  0
  1  6  1  0
  1  7  1  0
  1 27  1  0
  2  3  1  0
  3  4  1  0
  3  8  1  0
  3  9  1  0
  4  5  1  0
  4 10  1  0
  4 11  1  0
  5  6  1  0
  5 12  1  0
  5 13  1  0
 14 15  1  0
 14 20  1  0
 14 21  1  0
 14 22  1  0
 15 16  1  0
 15 23  1  0
 15 24  1  0
 16 17  1  0
 16 25  1  0
 16 26  1  0
 17 18  1  0
 18 19  1  0
 18 28  1  0
 19 29  1  0
 19 30  1  0
 19 31  1  0
M  RAD  1  18   2
M  END
>  <reaction>  (15) 
rmg_rxn_280

>  <mol_properties>  (15) 
{"0": {"label": "*3", "atom_type": "Cs"}, "1": {"label": "*4", "atom_type": "O2s"}, "16": {"label": "*0", "atom_type": "O2s"}, "17": {"label": "*1", "atom_type": "Cs"}, "26": {"label": "*2", "atom_type": "H0"}}

>  <type>  (15) 
unop_11

>  <geom_source>  (15) 
Heuristics

$$$$

     RDKit          3D

 31 30  0  0  0  0  0  0  0  0999 V2000
   -0.4704    0.9273    1.0987 C   0  0  0  0  0  0  0  0  0  0  0  0
   -0.3442   -0.3999    1.5100 O   0  0  0  0  0  0  0  0  0  0  0  0
   -0.2275   -0.4915    2.9169 C   0  0  0  0  0  0  0  0  0  0  0  0
    0.9464    0.3446    3.4064 C   0  0  0  0  0  0  0  0  0  0  0  0
    0.8088    1.7536    2.8476 C   0  0  0  0  0  0  0  0  0  0  0  0
    0.6304    1.7114    1.4449 O   0  0  0  0  0  0  0  0  0  0  0  0
   -1.3853    1.3632    1.5402 H   0  0  0  0  0  0  0  0  0  0  0  0
   -1.1602   -0.1423    3.3861 H   0  0  0  0  0  0  0  0  0  0  0  0
   -0.1022   -1.5473    3.1531 H   0  0  0  0  0  0  0  0  0  0  0  0
    0.9700    0.3674    4.4983 H   0  0  0  0  0  0  0  0  0  0  0  0
    1.8796   -0.0971    3.0516 H   0  0  0  0  0  0  0  0  0  0  0  0
    1.6985    2.3539    3.0326 H   0  0  0  0  0  0  0  0  0  0  0  0
   -0.0510    2.2607    3.3119 H   0  0  0  0  0  0  0  0  0  0  0  0
    0.6228   -2.4543   -3.7535 C   0  0  0  0  0  0  0  0  0  0  0  0
    0.6228   -2.4543   -2.2306 C   0  0  0  0  0  0  0  0  0  0  0  0
    0.6228   -1.0612   -1.6351 C   0  0  0  0  0  0  0  0  0  0  0  0
   -0.5602   -0.3976   -2.0027 O   0  0  0  0  0  0  0  0  0  0  0  0
   -0.6309    0.9205   -1.5218 C   0  0  0  0  0  3  0  0  0  0  0  0
   -1.9342    1.5382   -1.9726 C   0  0  0  0  0  0  0  0  0  0  0  0
    1.5049   -1.9399   -4.1432 H   0  0  0  0  0  0  0  0  0  0  0  0
   -0.2599   -1.9446   -4.1396 H   0  0  0  0  0  0  0  0  0  0  0  0
    0.6283   -3.4721   -4.1462 H   0  0  0  0  0  0  0  0  0  0  0  0
    1.5044   -2.9807   -1.8544 H   0  0  0  0  0  0  0  0  0  0  0  0
   -0.2516   -2.9922   -1.8554 H   0  0  0  0  0  0  0  0  0  0  0  0
    1.4970   -0.4961   -1.9955 H   0  0  0  0  0  0  0  0  0  0  0  0
    0.6976   -1.1151   -0.5391 H   0  0  0  0  0  0  0  0  0  0  0  0
   -0.5502    0.9239   -0.2041 H   0  0  0  0  0  0  0  0  0  0  0  0
    0.2220    1.5034   -1.8997 H   0  0  0  0  0  0  0  0  0  0  0  0
   -2.7806    0.9688   -1.5870 H   0  0  0  0  0  0  0  0  0  0  0  0
   -1.9950    1.5501   -3.0615 H   0  0  0  0  0  0  0  0  0  0  0  0
   -2.0118    2.5643   -1.6096 H   0  0  0  0  0  0  0  0  0  0  0  0
  1  2  1  0
  1  6  1  0
  1  7  1  0
  1 27  1  0
  2  3  1  0
  3  4  1  0
  3  8  1  0
  3  9  1  0
  4  5  1  0
  4 10  1  0
  4 11  1  0
  5  6  1  0
  5 12  1  0
  5 13  1  0
 14 15  1  0
 14 20  1  0
 14 21  1  0
 14 22  1  0
 15 16  1  0
 15 23  1  0
 15 24  1  0
 16 17  1  0
 16 25  1  0
 16 26  1  0
 17 18  1  0
 18 19  1  0
 18 28  1  0
 19 29  1  0
 19 30  1  0
 19 31  1  0
M  RAD  1  18   2
M  END
>  <reaction>  (16) 
rmg_rxn_280

>  <mol_properties>  (16) 
{"0": {"label": "*3", "atom_type": "Cs"}, "1": {"label": "*4", "atom_type": "O2s"}, "16": {"label": "*0", "atom_type": "O2s"}, "17": {"label": "*1", "atom_type": "Cs"}, "26": {"label": "*2", "atom_type": "H0"}}

>  <type>  (16) 
unop_12

>  <geom_source>  (16) 
Heuristics

$$$$

     RDKit          3D

 31 29  0  0  0  0  0  0  0  0999 V2000
    1.2764    0.9064    0.4764 O   0  0  0  0  0  0  0  0  0  0  0  0
    2.3026   -0.2340   -1.3669 O   0  0  0  0  0  0  0  0  0  0  0  0
   -1.8472   -1.4517    0.3532 O   0  0  0  0  0  0  0  0  0  0  0  0
    3.6708    0.9406    0.2258 C   0  0  0  0  0  0  0  0  0  0  0  0
   -3.6091    0.1617    0.4447 C   0  0  0  0  0  0  0  0  0  0  0  0
    2.3843    1.7639    0.3108 C   0  0  0  0  0  0  0  0  0  0  0  0
    3.3580   -0.3977   -0.4462 C   0  0  0  0  0  0  0  0  0  0  0  0
   -2.3111   -0.2633   -0.2406 C   0  0  0  0  0  0  0  0  0  0  0  0
   -4.1612    1.4502   -0.1589 C   0  0  0  0  0  0  0  0  0  0  0  0
    1.0989    0.0905   -0.6786 C   0  0  0  0  0  3  0  0  0  0  0  0
    0.4476   -2.0245    0.7261 C   0  0  0  0  0  3  0  0  0  0  0  0
   -0.6549   -1.8059   -0.2962 C   0  0  0  0  0  3  0  0  0  0  0  0
    4.4288    1.5005   -0.3640 H   0  0  0  0  0  0  0  0  0  0  0  0
    4.0785    0.7568    1.2436 H   0  0  0  0  0  0  0  0  0  0  0  0
   -3.4201    0.3201    1.5287 H   0  0  0  0  0  0  0  0  0  0  0  0
   -4.3665   -0.6447    0.3349 H   0  0  0  0  0  0  0  0  0  0  0  0
    2.4437    2.4520    1.1804 H   0  0  0  0  0  0  0  0  0  0  0  0
    2.2593    2.3917   -0.6017 H   0  0  0  0  0  0  0  0  0  0  0  0
    4.2584   -0.7582   -0.9871 H   0  0  0  0  0  0  0  0  0  0  0  0
    3.0983   -1.1688    0.3159 H   0  0  0  0  0  0  0  0  0  0  0  0
   -1.5599    0.5528   -0.1190 H   0  0  0  0  0  0  0  0  0  0  0  0
   -2.5158   -0.4236   -1.3255 H   0  0  0  0  0  0  0  0  0  0  0  0
   -4.3803    1.3078   -1.2387 H   0  0  0  0  0  0  0  0  0  0  0  0
   -3.4295    2.2774   -0.0386 H   0  0  0  0  0  0  0  0  0  0  0  0
   -5.1019    1.7302    0.3602 H   0  0  0  0  0  0  0  0  0  0  0  0
    0.4160    0.6099   -1.3837 H   0  0  0  0  0  0  0  0  0  0  0  0
    0.4822   -1.0745   -0.2985 H   0  0  0  0  0  0  0  0  0  0  0  0
    1.3882   -2.2960    0.2034 H   0  0  0  0  0  0  0  0  0  0  0  0
    0.6134   -1.0913    1.3042 H   0  0  0  0  0  0  0  0  0  0  0  0
    0.1668   -2.8441    1.4211 H   0  0  0  0  0  0  0  0  0  0  0  0
   -0.8147   -2.7344   -0.8849 H   0  0  0  0  0  0  0  0  0  0  0  0
  1  6  1  0
  1 10  1  0
  2  7  1  0
  2 10  1  0
  3 12  1  0
  3  8  1  0
  4  6  1  0
  4  7  1  0
  4 13  1  0
  4 14  1  0
  5  9  1  0
  5  8  1  0
  5 15  1  0
  5 16  1  0
  6 17  1  0
  6 18  1  0
  7 19  1  0
  7 20  1  0
  8 21  1  0
  8 22  1  0
  9 23  1  0
  9 24  1  0
  9 25  1  0
 10 26  1  0
 11 28  1  0
 11 29  1  0
 11 30  1  0
 12 27  1  0
 12 31  1  0
M  RAD  3  10   2  11   2  12   2
M  END
>  <reaction>  (17) 
rmg_rxn_280

>  <mol_properties>  (17) 
{"0": {"label": "*3", "atom_type": "Cs"}, "1": {"label": "*4", "atom_type": "O2s"}, "16": {"label": "*0", "atom_type": "O2s"}, "17": {"label": "*1", "atom_type": "Cs"}, "26": {"label": "*2", "atom_type": "H0"}}

>  <type>  (17) 
unop_13

>  <geom_source>  (17) 
AutoTST

$$$$

     RDKit          3D

 31 30  0  0  0  0  0  0  0  0999 V2000
   -0.6304    0.7033    1.2230 C   0  0  0  0  0  0  0  0  0  0  0  0
    0.1452   -0.3955    1.5940 O   0  0  0  0  0  0  0  0  0  0  0  0
    0.6552   -0.2436    2.9048 C   0  0  0  0  0  0  0  0  0  0  0  0
    1.4522    1.0483    3.0164 C   0  0  0  0  0  0  0  0  0  0  0  0
    0.5935    2.1971    2.5070 C   0  0  0  0  0  0  0  0  0  0  0  0
    0.0871    1.8998    1.2199 O   0  0  0  0  0  0  0  0  0  0  0  0
   -1.4919    0.7935    1.9099 H   0  0  0  0  0  0  0  0  0  0  0  0
   -0.1779   -0.2356    3.6242 H   0  0  0  0  0  0  0  0  0  0  0  0
    1.2699   -1.1200    3.1055 H   0  0  0  0  0  0  0  0  0  0  0  0
    1.7505    1.2247    4.0523 H   0  0  0  0  0  0  0  0  0  0  0  0
    2.3548    0.9718    2.4071 H   0  0  0  0  0  0  0  0  0  0  0  0
    1.1626    3.1210    2.4142 H   0  0  0  0  0  0  0  0  0  0  0  0
   -0.2440    2.3768    3.1984 H   0  0  0  0  0  0  0  0  0  0  0  0
    0.4628   -2.6782   -3.6292 C   0  0  0  0  0  0  0  0  0  0  0  0
    0.4628   -2.6782   -2.1063 C   0  0  0  0  0  0  0  0  0  0  0  0
    0.4628   -1.2852   -1.5108 C   0  0  0  0  0  0  0  0  0  0  0  0
   -0.7202   -0.6216   -1.8784 O   0  0  0  0  0  0  0  0  0  0  0  0
   -0.7909    0.6965   -1.3975 C   0  0  0  0  0  3  0  0  0  0  0  0
   -2.0942    1.3143   -1.8483 C   0  0  0  0  0  0  0  0  0  0  0  0
    1.3449   -2.1639   -4.0188 H   0  0  0  0  0  0  0  0  0  0  0  0
   -0.4199   -2.1686   -4.0153 H   0  0  0  0  0  0  0  0  0  0  0  0
    0.4683   -3.6961   -4.0219 H   0  0  0  0  0  0  0  0  0  0  0  0
    1.3443   -3.2047   -1.7300 H   0  0  0  0  0  0  0  0  0  0  0  0
   -0.4116   -3.2162   -1.7310 H   0  0  0  0  0  0  0  0  0  0  0  0
    1.3370   -0.7201   -1.8712 H   0  0  0  0  0  0  0  0  0  0  0  0
    0.5376   -1.3391   -0.4148 H   0  0  0  0  0  0  0  0  0  0  0  0
   -0.7102    0.6999   -0.0798 H   0  0  0  0  0  0  0  0  0  0  0  0
    0.0620    1.2795   -1.7754 H   0  0  0  0  0  0  0  0  0  0  0  0
   -2.9406    0.7449   -1.4627 H   0  0  0  0  0  0  0  0  0  0  0  0
   -2.1550    1.3261   -2.9372 H   0  0  0  0  0  0  0  0  0  0  0  0
   -2.1718    2.3403   -1.4853 H   0  0  0  0  0  0  0  0  0  0  0  0
  1  2  1  0
  1  6  1  0
  1  7  1  0
  1 27  1  0
  2  3  1  0
  3  4  1  0
  3  8  1  0
  3  9  1  0
  4  5  1  0
  4 10  1  0
  4 11  1  0
  5  6  1  0
  5 12  1  0
  5 13  1  0
 14 15  1  0
 14 20  1  0
 14 21  1  0
 14 22  1  0
 15 16  1  0
 15 23  1  0
 15 24  1  0
 16 17  1  0
 16 25  1  0
 16 26  1  0
 17 18  1  0
 18 19  1  0
 18 28  1  0
 19 29  1  0
 19 30  1  0
 19 31  1  0
M  RAD  1  18   2
M  END
>  <reaction>  (18) 
rmg_rxn_280

>  <mol_properties>  (18) 
{"0": {"label": "*3", "atom_type": "Cs"}, "1": {"label": "*4", "atom_type": "O2s"}, "16": {"label": "*0", "atom_type": "O2s"}, "17": {"label": "*1", "atom_type": "Cs"}, "26": {"label": "*2", "atom_type": "H0"}}

>  <type>  (18) 
unop_14

>  <geom_source>  (18) 
gaussian_log

$$$$
