
     RDKit          3D

 15 14  0  0  0  0  0  0  0  0999 V2000
   -2.0554    0.0723   -0.4910 C   0  0  0  0  0  0  0  0  0  0  0  0
   -0.7461   -0.6266   -0.8178 C   0  0  0  0  0  0  0  0  0  0  0  0
    0.3249    0.2591   -1.9782 S   0  0  0  0  0  0  0  0  0  0  0  0
   -0.7172    0.3642   -3.4551 C   0  0  0  0  0  0  0  0  0  0  0  0
   -1.1375   -0.9737   -4.0409 C   0  0  0  0  0  0  0  0  0  0  0  0
   -2.7005    0.1427   -1.3684 H   0  0  0  0  0  0  0  0  0  0  0  0
   -2.6016   -0.4848    0.2733 H   0  0  0  0  0  0  0  0  0  0  0  0
   -1.8758    1.0825   -0.1213 H   0  0  0  0  0  0  0  0  0  0  0  0
   -0.1320   -0.7246    0.0789 H   0  0  0  0  0  0  0  0  0  0  0  0
   -0.9254   -1.6374   -1.1879 H   0  0  0  0  0  0  0  0  0  0  0  0
   -1.5873    0.9874   -3.2422 H   0  0  0  0  0  0  0  0  0  0  0  0
   -0.1021    0.9161   -4.1678 H   0  0  0  0  0  0  0  0  0  0  0  0
   -1.7876   -1.5224   -3.3574 H   0  0  0  0  0  0  0  0  0  0  0  0
   -0.2676   -1.5962   -4.2534 H   0  0  0  0  0  0  0  0  0  0  0  0
   -1.6916   -0.8229   -4.9700 H   0  0  0  0  0  0  0  0  0  0  0  0
  1  2  1  0
  1  6  1  0
  1  7  1  0
  1  8  1  0
  2  3  1  0
  2  9  1  0
  2 10  1  0
  3  4  1  0
  4  5  1  0
  4 11  1  0
  4 12  1  0
  5 13  1  0
  5 14  1  0
  5 15  1  0
M  END
>  <reaction>  (1) 
rmg_rxn_259

>  <mol_properties>  (1) 
{"1": {"label": "donator", "atom_type": "Cs"}, "8": {"label": "d_hydrogen", "atom_type": "H0"}}

>  <type>  (1) 
r1h

$$$$

     RDKit          3D

 13 13  0  0  0  0  0  0  0  0999 V2000
   -0.9087    1.0135    0.2744 C   0  0  0  0  0  3  0  0  0  0  0  0
   -1.1528   -0.4306   -0.0132 C   0  0  0  0  0  0  0  0  0  0  0  0
    0.1597   -1.1985    0.0580 C   0  0  0  0  0  0  0  0  0  0  0  0
    1.1497   -0.5125   -0.6902 O   0  0  0  0  0  0  0  0  0  0  0  0
    1.3593    0.7608   -0.1866 C   0  0  0  0  0  0  0  0  0  0  0  0
    0.2092    1.5798   -0.2538 O   0  0  0  0  0  0  0  0  0  0  0  0
   -1.7260    1.7182    0.3534 H   0  0  0  0  0  0  0  0  0  0  0  0
   -1.8796   -0.8393    0.6913 H   0  0  0  0  0  0  0  0  0  0  0  0
   -1.5725   -0.5507   -1.0227 H   0  0  0  0  0  0  0  0  0  0  0  0
    0.4914   -1.2968    1.1007 H   0  0  0  0  0  0  0  0  0  0  0  0
    0.0732   -2.1931   -0.3758 H   0  0  0  0  0  0  0  0  0  0  0  0
    1.6805    0.7077    0.8652 H   0  0  0  0  0  0  0  0  0  0  0  0
    2.1167    1.2415   -0.8007 H   0  0  0  0  0  0  0  0  0  0  0  0
  1  2  1  0
  1  6  1  0
  1  7  1  0
  2  3  1  0
  2  8  1  0
  2  9  1  0
  3  4  1  0
  3 10  1  0
  3 11  1  0
  4  5  1  0
  5  6  1  0
  5 12  1  0
  5 13  1  0
M  RAD  1   1   2
M  END
>  <reaction>  (2) 
rmg_rxn_259

>  <mol_properties>  (2) 
{"0": {"label": "acceptor", "atom_type": "Cs"}}

>  <type>  (2) 
r2

$$$$

     RDKit          3D

 14 14  0  0  0  0  0  0  0  0999 V2000
   -1.1778    0.2241    0.1818 C   0  0  0  0  0  0  0  0  0  0  0  0
   -0.5633   -1.1636    0.0678 C   0  0  0  0  0  0  0  0  0  0  0  0
    0.6943   -1.1996    0.7146 O   0  0  0  0  0  0  0  0  0  0  0  0
    1.5547   -0.2288    0.2011 C   0  0  0  0  0  0  0  0  0  0  0  0
    1.0729    1.0696    0.3698 O   0  0  0  0  0  0  0  0  0  0  0  0
   -0.1607    1.2493   -0.2989 C   0  0  0  0  0  0  0  0  0  0  0  0
   -2.0927    0.2866   -0.4117 H   0  0  0  0  0  0  0  0  0  0  0  0
   -1.4303    0.4248    1.2248 H   0  0  0  0  0  0  0  0  0  0  0  0
   -1.1822   -1.9235    0.5431 H   0  0  0  0  0  0  0  0  0  0  0  0
   -0.4389   -1.4347   -0.9919 H   0  0  0  0  0  0  0  0  0  0  0  0
    1.7250   -0.4207   -0.8742 H   0  0  0  0  0  0  0  0  0  0  0  0
    2.4896   -0.3010    0.7524 H   0  0  0  0  0  0  0  0  0  0  0  0
   -0.0080    1.1481   -1.3844 H   0  0  0  0  0  0  0  0  0  0  0  0
   -0.4826    2.2695   -0.0942 H   0  0  0  0  0  0  0  0  0  0  0  0
  1  2  1  0
  1  6  1  0
  1  7  1  0
  1  8  1  0
  2  3  1  0
  2  9  1  0
  2 10  1  0
  3  4  1  0
  4  5  1  0
  4 11  1  0
  4 12  1  0
  5  6  1  0
  6 13  1  0
  6 14  1  0
M  END
>  <reaction>  (3) 
rmg_rxn_259

>  <mol_properties>  (3) 
{"0": {"label": "acceptor", "atom_type": "Cs"}, "13": {"label": "a_hydrogen", "atom_type": "H0"}}

>  <type>  (3) 
r2h

$$$$

     RDKit          3D

 28 27  0  0  0  0  0  0  0  0999 V2000
   -1.0049   -0.7171    0.7416 C   0  0  0  0  0  3  0  0  0  0  0  0
   -2.0294   -0.2462   -0.2562 C   0  0  0  0  0  0  0  0  0  0  0  0
   -3.2095   -1.2154   -0.2426 C   0  0  0  0  0  0  0  0  0  0  0  0
   -2.7458   -2.5448   -0.3899 O   0  0  0  0  0  0  0  0  0  0  0  0
   -1.8379   -2.8784    0.6080 C   0  0  0  0  0  0  0  0  0  0  0  0
   -0.6900   -2.0661    0.5902 O   0  0  0  0  0  0  0  0  0  0  0  0
   -1.2169   -0.4552    1.7850 H   0  0  0  0  0  0  0  0  0  0  0  0
   -2.3549    0.7681   -0.0210 H   0  0  0  0  0  0  0  0  0  0  0  0
   -1.5880   -0.2367   -1.2558 H   0  0  0  0  0  0  0  0  0  0  0  0
   -3.7672   -1.1222    0.7007 H   0  0  0  0  0  0  0  0  0  0  0  0
   -3.8952   -1.0297   -1.0683 H   0  0  0  0  0  0  0  0  0  0  0  0
   -2.3206   -2.7962    1.5971 H   0  0  0  0  0  0  0  0  0  0  0  0
   -1.5084   -3.8987    0.4254 H   0  0  0  0  0  0  0  0  0  0  0  0
    1.6321   -0.4012   -1.2212 C   0  0  0  0  0  0  0  0  0  0  0  0
    1.3051    0.4121    0.0023 C   0  0  0  0  0  0  0  0  0  0  0  0
    0.8980    2.1329   -0.2278 S   0  0  0  0  0  0  0  0  0  0  0  0
    2.3165    2.7513   -1.1788 C   0  0  0  0  0  0  0  0  0  0  0  0
    3.6444    2.6671   -0.4464 C   0  0  0  0  0  0  0  0  0  0  0  0
    2.6164   -0.1473   -1.6271 H   0  0  0  0  0  0  0  0  0  0  0  0
    1.6387   -1.4639   -0.9723 H   0  0  0  0  0  0  0  0  0  0  0  0
    0.8936   -0.2375   -2.0080 H   0  0  0  0  0  0  0  0  0  0  0  0
    0.1549   -0.0825    0.4552 H   0  0  0  0  0  0  0  0  0  0  0  0
    1.9774    0.2401    0.8421 H   0  0  0  0  0  0  0  0  0  0  0  0
    2.3599    2.2253   -2.1337 H   0  0  0  0  0  0  0  0  0  0  0  0
    2.0581    3.7890   -1.3968 H   0  0  0  0  0  0  0  0  0  0  0  0
    3.9064    1.6312   -0.2241 H   0  0  0  0  0  0  0  0  0  0  0  0
    3.6040    3.2136    0.4964 H   0  0  0  0  0  0  0  0  0  0  0  0
    4.4449    3.0893   -1.0583 H   0  0  0  0  0  0  0  0  0  0  0  0
  1  2  1  0
  1  6  1  0
  1  7  1  0
  2  3  1  0
  2  8  1  0
  2  9  1  0
  3  4  1  0
  3 10  1  0
  3 11  1  0
  4  5  1  0
  5  6  1  0
  5 12  1  0
  5 13  1  0
 14 15  1  0
 14 19  1  0
 14 20  1  0
 14 21  1  0
 15 16  1  0
 15 22  1  0
 15 23  1  0
 16 17  1  0
 17 18  1  0
 17 24  1  0
 17 25  1  0
 18 26  1  0
 18 27  1  0
 18 28  1  0
M  RAD  1   1   2
M  END
>  <reaction>  (4) 
rmg_rxn_259

>  <mol_properties>  (4) 
{"0": {"label": "*3", "atom_type": "Cs"}, "5": {"label": "*4", "atom_type": "O2s"}, "14": {"label": "*1", "atom_type": "Cs"}, "15": {"label": "*0", "atom_type": "S2s"}, "21": {"label": "*2", "atom_type": "H0"}}

>  <type>  (4) 
ts

$$$$

     RDKit          3D

 28 27  0  0  0  0  0  0  0  0999 V2000
   -1.4047   -1.2071   -0.3026 C   0  0  0  0  0  0  0  0  0  0  0  0
   -1.1057   -2.4266    0.5576 C   0  0  0  0  0  0  0  0  0  0  0  0
   -1.8849   -2.3085    1.8597 C   0  0  0  0  0  0  0  0  0  0  0  0
   -1.6391   -1.0552    2.4683 O   0  0  0  0  0  0  0  0  0  0  0  0
   -1.9483   -0.0044    1.6042 C   0  0  0  0  0  0  0  0  0  0  0  0
   -1.1875   -0.0195    0.4348 O   0  0  0  0  0  0  0  0  0  0  0  0
   -2.4489   -1.2378   -0.6497 H   0  0  0  0  0  0  0  0  0  0  0  0
   -1.3804   -3.3428    0.0299 H   0  0  0  0  0  0  0  0  0  0  0  0
   -0.0367   -2.4633    0.7763 H   0  0  0  0  0  0  0  0  0  0  0  0
   -2.9629   -2.4167    1.6647 H   0  0  0  0  0  0  0  0  0  0  0  0
   -1.5912   -3.0701    2.5807 H   0  0  0  0  0  0  0  0  0  0  0  0
   -3.0220   -0.0463    1.3444 H   0  0  0  0  0  0  0  0  0  0  0  0
   -1.7199    0.9218    2.1267 H   0  0  0  0  0  0  0  0  0  0  0  0
    0.7801   -0.0949   -2.7366 C   0  0  0  0  0  0  0  0  0  0  0  0
    0.7801   -0.0949   -1.2168 C   0  0  0  0  0  3  0  0  0  0  0  0
    0.7801    1.5461   -0.4519 S   0  0  0  0  0  0  0  0  0  0  0  0
    2.3207    2.2601   -1.0805 C   0  0  0  0  0  0  0  0  0  0  0  0
    3.5816    1.5012   -0.7013 C   0  0  0  0  0  0  0  0  0  0  0  0
    1.7031    0.3286   -3.1360 H   0  0  0  0  0  0  0  0  0  0  0  0
    0.6975   -1.1161   -3.1152 H   0  0  0  0  0  0  0  0  0  0  0  0
   -0.0556    0.4875   -3.1260 H   0  0  0  0  0  0  0  0  0  0  0  0
   -0.3134   -0.6516   -0.7593 H   0  0  0  0  0  0  0  0  0  0  0  0
    1.6163   -0.6776   -0.8268 H   0  0  0  0  0  0  0  0  0  0  0  0
    2.2495    2.3823   -2.1626 H   0  0  0  0  0  0  0  0  0  0  0  0
    2.3357    3.2632   -0.6513 H   0  0  0  0  0  0  0  0  0  0  0  0
    3.6028    0.5094   -1.1560 H   0  0  0  0  0  0  0  0  0  0  0  0
    3.6522    1.3792    0.3801 H   0  0  0  0  0  0  0  0  0  0  0  0
    4.4663    2.0396   -1.0483 H   0  0  0  0  0  0  0  0  0  0  0  0
  1  2  1  0
  1  6  1  0
  1  7  1  0
  1 22  1  0
  2  3  1  0
  2  8  1  0
  2  9  1  0
  3  4  1  0
  3 10  1  0
  3 11  1  0
  4  5  1  0
  5  6  1  0
  5 12  1  0
  5 13  1  0
 14 15  1  0
 14 19  1  0
 14 20  1  0
 14 21  1  0
 15 16  1  0
 15 23  1  0
 16 17  1  0
 17 18  1  0
 17 24  1  0
 17 25  1  0
 18 26  1  0
 18 27  1  0
 18 28  1  0
M  RAD  1  15   2
M  END
>  <reaction>  (5) 
rmg_rxn_259

>  <mol_properties>  (5) 
{"0": {"label": "*3", "atom_type": "Cs"}, "5": {"label": "*4", "atom_type": "O2s"}, "14": {"label": "*1", "atom_type": "Cs"}, "15": {"label": "*0", "atom_type": "S2s"}, "21": {"label": "*2", "atom_type": "H0"}}

>  <type>  (5) 
unop_1

>  <geom_source>  (5) 
Heuristics

$$$$

     RDKit          3D

 28 27  0  0  0  0  0  0  0  0999 V2000
   -1.3218   -0.5262    0.1696 C   0  0  0  0  0  0  0  0  0  0  0  0
   -1.8576   -1.5909   -0.7770 C   0  0  0  0  0  0  0  0  0  0  0  0
   -2.6427   -2.6131    0.0325 C   0  0  0  0  0  0  0  0  0  0  0  0
   -1.8626   -3.0905    1.1118 O   0  0  0  0  0  0  0  0  0  0  0  0
   -1.4248   -2.0421    1.9215 C   0  0  0  0  0  0  0  0  0  0  0  0
   -0.6203   -1.1279    1.2407 O   0  0  0  0  0  0  0  0  0  0  0  0
   -2.1525    0.0767    0.5675 H   0  0  0  0  0  0  0  0  0  0  0  0
   -2.4941   -1.1378   -1.5403 H   0  0  0  0  0  0  0  0  0  0  0  0
   -1.0225   -2.0867   -1.2757 H   0  0  0  0  0  0  0  0  0  0  0  0
   -3.5664   -2.1571    0.4207 H   0  0  0  0  0  0  0  0  0  0  0  0
   -2.9168   -3.4818   -0.5646 H   0  0  0  0  0  0  0  0  0  0  0  0
   -2.2995   -1.5164    2.3466 H   0  0  0  0  0  0  0  0  0  0  0  0
   -0.8205   -2.4766    2.7147 H   0  0  0  0  0  0  0  0  0  0  0  0
    0.8630    0.5860   -2.2644 C   0  0  0  0  0  0  0  0  0  0  0  0
    0.8630    0.5860   -0.7446 C   0  0  0  0  0  3  0  0  0  0  0  0
    0.8630    2.2271    0.0202 S   0  0  0  0  0  0  0  0  0  0  0  0
    2.4036    2.9410   -0.6083 C   0  0  0  0  0  0  0  0  0  0  0  0
    3.6645    2.1822   -0.2291 C   0  0  0  0  0  0  0  0  0  0  0  0
    1.7860    1.0096   -2.6638 H   0  0  0  0  0  0  0  0  0  0  0  0
    0.7804   -0.4352   -2.6430 H   0  0  0  0  0  0  0  0  0  0  0  0
    0.0273    1.1685   -2.6538 H   0  0  0  0  0  0  0  0  0  0  0  0
   -0.2305    0.0294   -0.2871 H   0  0  0  0  0  0  0  0  0  0  0  0
    1.6992    0.0034   -0.3546 H   0  0  0  0  0  0  0  0  0  0  0  0
    2.3324    3.0633   -1.6904 H   0  0  0  0  0  0  0  0  0  0  0  0
    2.4187    3.9442   -0.1791 H   0  0  0  0  0  0  0  0  0  0  0  0
    3.6857    1.1903   -0.6838 H   0  0  0  0  0  0  0  0  0  0  0  0
    3.7352    2.0601    0.8523 H   0  0  0  0  0  0  0  0  0  0  0  0
    4.5493    2.7206   -0.5761 H   0  0  0  0  0  0  0  0  0  0  0  0
  1  2  1  0
  1  6  1  0
  1  7  1  0
  1 22  1  0
  2  3  1  0
  2  8  1  0
  2  9  1  0
  3  4  1  0
  3 10  1  0
  3 11  1  0
  4  5  1  0
  5  6  1  0
  5 12  1  0
  5 13  1  0
 14 15  1  0
 14 19  1  0
 14 20  1  0
 14 21  1  0
 15 16  1  0
 15 23  1  0
 16 17  1  0
 17 18  1  0
 17 24  1  0
 17 25  1  0
 18 26  1  0
 18 27  1  0
 18 28  1  0
M  RAD  1  15   2
M  END
>  <reaction>  (6) 
rmg_rxn_259

>  <mol_properties>  (6) 
{"0": {"label": "*3", "atom_type": "Cs"}, "5": {"label": "*4", "atom_type": "O2s"}, "14": {"label": "*1", "atom_type": "Cs"}, "15": {"label": "*0", "atom_type": "S2s"}, "21": {"label": "*2", "atom_type": "H0"}}

>  <type>  (6) 
unop_2

>  <geom_source>  (6) 
Heuristics

$$$$

     RDKit          3D

 28 27  0  0  0  0  0  0  0  0999 V2000
   -1.1332   -1.4042   -0.1779 C   0  0  0  0  0  0  0  0  0  0  0  0
   -0.9077   -2.0814    1.1664 C   0  0  0  0  0  0  0  0  0  0  0  0
   -2.1322   -1.8510    2.0406 C   0  0  0  0  0  0  0  0  0  0  0  0
   -2.4458   -0.4725    2.0948 O   0  0  0  0  0  0  0  0  0  0  0  0
   -2.6387    0.0526    0.8167 C   0  0  0  0  0  0  0  0  0  0  0  0
   -1.5063   -0.0524    0.0085 O   0  0  0  0  0  0  0  0  0  0  0  0
   -1.9232   -1.9294   -0.7364 H   0  0  0  0  0  0  0  0  0  0  0  0
   -0.7313   -3.1508    1.0305 H   0  0  0  0  0  0  0  0  0  0  0  0
   -0.0301   -1.6469    1.6491 H   0  0  0  0  0  0  0  0  0  0  0  0
   -2.9924   -2.4075    1.6381 H   0  0  0  0  0  0  0  0  0  0  0  0
   -1.9668   -2.1755    3.0670 H   0  0  0  0  0  0  0  0  0  0  0  0
   -3.4860   -0.4654    0.3308 H   0  0  0  0  0  0  0  0  0  0  0  0
   -2.8568    1.1120    0.9318 H   0  0  0  0  0  0  0  0  0  0  0  0
    1.0516   -0.2920   -2.6118 C   0  0  0  0  0  0  0  0  0  0  0  0
    1.0516   -0.2920   -1.0921 C   0  0  0  0  0  3  0  0  0  0  0  0
    1.0516    1.3491   -0.3272 S   0  0  0  0  0  0  0  0  0  0  0  0
    2.5922    2.0630   -0.9558 C   0  0  0  0  0  0  0  0  0  0  0  0
    3.8531    1.3041   -0.5766 C   0  0  0  0  0  0  0  0  0  0  0  0
    1.9746    0.1315   -3.0113 H   0  0  0  0  0  0  0  0  0  0  0  0
    0.9690   -1.3132   -2.9905 H   0  0  0  0  0  0  0  0  0  0  0  0
    0.2159    0.2904   -3.0012 H   0  0  0  0  0  0  0  0  0  0  0  0
   -0.0419   -0.8487   -0.6345 H   0  0  0  0  0  0  0  0  0  0  0  0
    1.8878   -0.8747   -0.7021 H   0  0  0  0  0  0  0  0  0  0  0  0
    2.5210    2.1852   -2.0379 H   0  0  0  0  0  0  0  0  0  0  0  0
    2.6072    3.0662   -0.5265 H   0  0  0  0  0  0  0  0  0  0  0  0
    3.8743    0.3123   -1.0313 H   0  0  0  0  0  0  0  0  0  0  0  0
    3.9238    1.1821    0.5048 H   0  0  0  0  0  0  0  0  0  0  0  0
    4.7378    1.8425   -0.9235 H   0  0  0  0  0  0  0  0  0  0  0  0
  1  2  1  0
  1  6  1  0
  1  7  1  0
  1 22  1  0
  2  3  1  0
  2  8  1  0
  2  9  1  0
  3  4  1  0
  3 10  1  0
  3 11  1  0
  4  5  1  0
  5  6  1  0
  5 12  1  0
  5 13  1  0
 14 15  1  0
 14 19  1  0
 14 20  1  0
 14 21  1  0
 15 16  1  0
 15 23  1  0
 16 17  1  0
 17 18  1  0
 17 24  1  0
 17 25  1  0
 18 26  1  0
 18 27  1  0
 18 28  1  0
M  RAD  1  15   2
M  END
>  <reaction>  (7) 
rmg_rxn_259

>  <mol_properties>  (7) 
{"0": {"label": "*3", "atom_type": "Cs"}, "5": {"label": "*4", "atom_type": "O2s"}, "14": {"label": "*1", "atom_type": "Cs"}, "15": {"label": "*0", "atom_type": "S2s"}, "21": {"label": "*2", "atom_type": "H0"}}

>  <type>  (7) 
unop_3

>  <geom_source>  (7) 
Heuristics

$$$$

     RDKit          3D

 28 27  0  0  0  0  0  0  0  0999 V2000
   -0.8263   -0.9456    0.2275 C   0  0  0  0  0  0  0  0  0  0  0  0
   -2.0760   -0.2100   -0.2349 C   0  0  0  0  0  0  0  0  0  0  0  0
   -3.2100   -0.5185    0.7323 C   0  0  0  0  0  0  0  0  0  0  0  0
   -3.3489   -1.9166    0.8978 O   0  0  0  0  0  0  0  0  0  0  0  0
   -2.1547   -2.4959    1.3275 C   0  0  0  0  0  0  0  0  0  0  0  0
   -1.1073   -2.3182    0.4231 O   0  0  0  0  0  0  0  0  0  0  0  0
   -0.4584   -0.5085    1.1685 H   0  0  0  0  0  0  0  0  0  0  0  0
   -1.8922    0.8660   -0.2771 H   0  0  0  0  0  0  0  0  0  0  0  0
   -2.3490   -0.5515   -1.2352 H   0  0  0  0  0  0  0  0  0  0  0  0
   -3.0098   -0.0514    1.7088 H   0  0  0  0  0  0  0  0  0  0  0  0
   -4.1677   -0.1492    0.3682 H   0  0  0  0  0  0  0  0  0  0  0  0
   -1.8708   -2.0687    2.3068 H   0  0  0  0  0  0  0  0  0  0  0  0
   -2.3277   -3.5661    1.4158 H   0  0  0  0  0  0  0  0  0  0  0  0
    1.3584    0.1666   -2.2064 C   0  0  0  0  0  0  0  0  0  0  0  0
    1.3584    0.1666   -0.6867 C   0  0  0  0  0  3  0  0  0  0  0  0
    1.3584    1.8077    0.0782 S   0  0  0  0  0  0  0  0  0  0  0  0
    2.8990    2.5216   -0.5504 C   0  0  0  0  0  0  0  0  0  0  0  0
    4.1600    1.7628   -0.1712 C   0  0  0  0  0  0  0  0  0  0  0  0
    2.2815    0.5902   -2.6058 H   0  0  0  0  0  0  0  0  0  0  0  0
    1.2759   -0.8546   -2.5851 H   0  0  0  0  0  0  0  0  0  0  0  0
    0.5227    0.7491   -2.5958 H   0  0  0  0  0  0  0  0  0  0  0  0
    0.2650   -0.3900   -0.2291 H   0  0  0  0  0  0  0  0  0  0  0  0
    2.1946   -0.4160   -0.2966 H   0  0  0  0  0  0  0  0  0  0  0  0
    2.8279    2.6439   -1.6324 H   0  0  0  0  0  0  0  0  0  0  0  0
    2.9141    3.5248   -0.1211 H   0  0  0  0  0  0  0  0  0  0  0  0
    4.1812    0.7709   -0.6259 H   0  0  0  0  0  0  0  0  0  0  0  0
    4.2306    1.6407    0.9102 H   0  0  0  0  0  0  0  0  0  0  0  0
    5.0447    2.3012   -0.5181 H   0  0  0  0  0  0  0  0  0  0  0  0
  1  2  1  0
  1  6  1  0
  1  7  1  0
  1 22  1  0
  2  3  1  0
  2  8  1  0
  2  9  1  0
  3  4  1  0
  3 10  1  0
  3 11  1  0
  4  5  1  0
  5  6  1  0
  5 12  1  0
  5 13  1  0
 14 15  1  0
 14 19  1  0
 14 20  1  0
 14 21  1  0
 15 16  1  0
 15 23  1  0
 16 17  1  0
 17 18  1  0
 17 24  1  0
 17 25  1  0
 18 26  1  0
 18 27  1  0
 18 28  1  0
M  RAD  1  15   2
M  END
>  <reaction>  (8) 
rmg_rxn_259

>  <mol_properties>  (8) 
{"0": {"label": "*3", "atom_type": "Cs"}, "5": {"label": "*4", "atom_type": "O2s"}, "14": {"label": "*1", "atom_type": "Cs"}, "15": {"label": "*0", "atom_type": "S2s"}, "21": {"label": "*2", "atom_type": "H0"}}

>  <type>  (8) 
unop_4

>  <geom_source>  (8) 
Heuristics

$$$$

     RDKit          3D

 28 27  0  0  0  0  0  0  0  0999 V2000
   -0.8590   -1.2471    0.0540 C   0  0  0  0  0  0  0  0  0  0  0  0
   -0.8947   -1.2653    1.5755 C   0  0  0  0  0  0  0  0  0  0  0  0
   -2.2774   -1.7146    2.0259 C   0  0  0  0  0  0  0  0  0  0  0  0
   -3.2769   -0.9335    1.3996 O   0  0  0  0  0  0  0  0  0  0  0  0
   -3.1628   -0.9860    0.0101 C   0  0  0  0  0  0  0  0  0  0  0  0
   -1.9430   -0.4938   -0.4548 O   0  0  0  0  0  0  0  0  0  0  0  0
   -0.9111   -2.2750   -0.3364 H   0  0  0  0  0  0  0  0  0  0  0  0
   -0.1282   -1.9376    1.9674 H   0  0  0  0  0  0  0  0  0  0  0  0
   -0.6978   -0.2609    1.9553 H   0  0  0  0  0  0  0  0  0  0  0  0
   -2.4293   -2.7755    1.7742 H   0  0  0  0  0  0  0  0  0  0  0  0
   -2.4143   -1.5965    3.0999 H   0  0  0  0  0  0  0  0  0  0  0  0
   -3.2911   -2.0301   -0.3297 H   0  0  0  0  0  0  0  0  0  0  0  0
   -3.9454   -0.3534   -0.4028 H   0  0  0  0  0  0  0  0  0  0  0  0
    1.3258   -0.1349   -2.3800 C   0  0  0  0  0  0  0  0  0  0  0  0
    1.3258   -0.1349   -0.8603 C   0  0  0  0  0  3  0  0  0  0  0  0
    1.3258    1.5062   -0.0954 S   0  0  0  0  0  0  0  0  0  0  0  0
    2.8664    2.2201   -0.7240 C   0  0  0  0  0  0  0  0  0  0  0  0
    4.1273    1.4613   -0.3447 C   0  0  0  0  0  0  0  0  0  0  0  0
    2.2489    0.2887   -2.7794 H   0  0  0  0  0  0  0  0  0  0  0  0
    1.2433   -1.1561   -2.7587 H   0  0  0  0  0  0  0  0  0  0  0  0
    0.4901    0.4476   -2.7694 H   0  0  0  0  0  0  0  0  0  0  0  0
    0.2324   -0.6915   -0.4027 H   0  0  0  0  0  0  0  0  0  0  0  0
    2.1620   -0.7175   -0.4702 H   0  0  0  0  0  0  0  0  0  0  0  0
    2.7953    2.3423   -1.8060 H   0  0  0  0  0  0  0  0  0  0  0  0
    2.8815    3.2233   -0.2947 H   0  0  0  0  0  0  0  0  0  0  0  0
    4.1486    0.4694   -0.7994 H   0  0  0  0  0  0  0  0  0  0  0  0
    4.1980    1.3392    0.7367 H   0  0  0  0  0  0  0  0  0  0  0  0
    5.0121    1.9997   -0.6917 H   0  0  0  0  0  0  0  0  0  0  0  0
  1  2  1  0
  1  6  1  0
  1  7  1  0
  1 22  1  0
  2  3  1  0
  2  8  1  0
  2  9  1  0
  3  4  1  0
  3 10  1  0
  3 11  1  0
  4  5  1  0
  5  6  1  0
  5 12  1  0
  5 13  1  0
 14 15  1  0
 14 19  1  0
 14 20  1  0
 14 21  1  0
 15 16  1  0
 15 23  1  0
 16 17  1  0
 17 18  1  0
 17 24  1  0
 17 25  1  0
 18 26  1  0
 18 27  1  0
 18 28  1  0
M  RAD  1  15   2
M  END
>  <reaction>  (9) 
rmg_rxn_259

>  <mol_properties>  (9) 
{"0": {"label": "*3", "atom_type": "Cs"}, "5": {"label": "*4", "atom_type": "O2s"}, "14": {"label": "*1", "atom_type": "Cs"}, "15": {"label": "*0", "atom_type": "S2s"}, "21": {"label": "*2", "atom_type": "H0"}}

>  <type>  (9) 
unop_5

>  <geom_source>  (9) 
Heuristics

$$$$

     RDKit          3D

 28 27  0  0  0  0  0  0  0  0999 V2000
   -0.8587   -0.9912    0.1021 C   0  0  0  0  0  0  0  0  0  0  0  0
   -1.9744    0.0248    0.3010 C   0  0  0  0  0  0  0  0  0  0  0  0
   -2.8560   -0.4375    1.4523 C   0  0  0  0  0  0  0  0  0  0  0  0
   -3.2743   -1.7731    1.2463 O   0  0  0  0  0  0  0  0  0  0  0  0
   -2.1820   -2.6250    1.0806 C   0  0  0  0  0  0  0  0  0  0  0  0
   -1.3961   -2.2939   -0.0235 O   0  0  0  0  0  0  0  0  0  0  0  0
   -0.1651   -0.9611    0.9563 H   0  0  0  0  0  0  0  0  0  0  0  0
   -1.5583    1.0126    0.5114 H   0  0  0  0  0  0  0  0  0  0  0  0
   -2.5722    0.0906   -0.6102 H   0  0  0  0  0  0  0  0  0  0  0  0
   -2.3029   -0.3684    2.4016 H   0  0  0  0  0  0  0  0  0  0  0  0
   -3.7597    0.1640    1.5404 H   0  0  0  0  0  0  0  0  0  0  0  0
   -1.5592   -2.6056    1.9938 H   0  0  0  0  0  0  0  0  0  0  0  0
   -2.5746   -3.6250    0.9099 H   0  0  0  0  0  0  0  0  0  0  0  0
    1.3260    0.1210   -2.3319 C   0  0  0  0  0  0  0  0  0  0  0  0
    1.3260    0.1210   -0.8121 C   0  0  0  0  0  3  0  0  0  0  0  0
    1.3260    1.7621   -0.0473 S   0  0  0  0  0  0  0  0  0  0  0  0
    2.8666    2.4760   -0.6758 C   0  0  0  0  0  0  0  0  0  0  0  0
    4.1275    1.7171   -0.2966 C   0  0  0  0  0  0  0  0  0  0  0  0
    2.2491    0.5445   -2.7313 H   0  0  0  0  0  0  0  0  0  0  0  0
    1.2435   -0.9002   -2.7105 H   0  0  0  0  0  0  0  0  0  0  0  0
    0.4903    0.7034   -2.7213 H   0  0  0  0  0  0  0  0  0  0  0  0
    0.2326   -0.4357   -0.3546 H   0  0  0  0  0  0  0  0  0  0  0  0
    2.1622   -0.4617   -0.4221 H   0  0  0  0  0  0  0  0  0  0  0  0
    2.7955    2.5982   -1.7579 H   0  0  0  0  0  0  0  0  0  0  0  0
    2.8817    3.4792   -0.2466 H   0  0  0  0  0  0  0  0  0  0  0  0
    4.1488    0.7253   -0.7513 H   0  0  0  0  0  0  0  0  0  0  0  0
    4.1982    1.5951    0.7848 H   0  0  0  0  0  0  0  0  0  0  0  0
    5.0123    2.2555   -0.6436 H   0  0  0  0  0  0  0  0  0  0  0  0
  1  2  1  0
  1  6  1  0
  1  7  1  0
  1 22  1  0
  2  3  1  0
  2  8  1  0
  2  9  1  0
  3  4  1  0
  3 10  1  0
  3 11  1  0
  4  5  1  0
  5  6  1  0
  5 12  1  0
  5 13  1  0
 14 15  1  0
 14 19  1  0
 14 20  1  0
 14 21  1  0
 15 16  1  0
 15 23  1  0
 16 17  1  0
 17 18  1  0
 17 24  1  0
 17 25  1  0
 18 26  1  0
 18 27  1  0
 18 28  1  0
M  RAD  1  15   2
M  END
>  <reaction>  (10) 
rmg_rxn_259

>  <mol_properties>  (10) 
{"0": {"label": "*3", "atom_type": "Cs"}, "5": {"label": "*4", "atom_type": "O2s"}, "14": {"label": "*1", "atom_type": "Cs"}, "15": {"label": "*0", "atom_type": "S2s"}, "21": {"label": "*2", "atom_type": "H0"}}

>  <type>  (10) 
unop_6

>  <geom_source>  (10) 
Heuristics

$$$$

     RDKit          3D

 28 27  0  0  0  0  0  0  0  0999 V2000
   -0.8983   -0.9560    0.0523 C   0  0  0  0  0  0  0  0  0  0  0  0
   -1.7085    0.0033    0.9125 C   0  0  0  0  0  0  0  0  0  0  0  0
   -2.4443   -0.7981    1.9769 C   0  0  0  0  0  0  0  0  0  0  0  0
   -3.1757   -1.8524    1.3812 O   0  0  0  0  0  0  0  0  0  0  0  0
   -2.3459   -2.6764    0.6205 C   0  0  0  0  0  0  0  0  0  0  0  0
   -1.7219   -2.0009   -0.4287 O   0  0  0  0  0  0  0  0  0  0  0  0
   -0.0708   -1.3820    0.6402 H   0  0  0  0  0  0  0  0  0  0  0  0
   -1.0546    0.7450    1.3768 H   0  0  0  0  0  0  0  0  0  0  0  0
   -2.4335    0.5278    0.2871 H   0  0  0  0  0  0  0  0  0  0  0  0
   -1.7255   -1.2129    2.7002 H   0  0  0  0  0  0  0  0  0  0  0  0
   -3.1624   -0.1875    2.5226 H   0  0  0  0  0  0  0  0  0  0  0  0
   -1.5778   -3.1286    1.2745 H   0  0  0  0  0  0  0  0  0  0  0  0
   -2.9726   -3.4489    0.1805 H   0  0  0  0  0  0  0  0  0  0  0  0
    1.2864    0.1562   -2.3816 C   0  0  0  0  0  0  0  0  0  0  0  0
    1.2864    0.1562   -0.8619 C   0  0  0  0  0  3  0  0  0  0  0  0
    1.2864    1.7972   -0.0970 S   0  0  0  0  0  0  0  0  0  0  0  0
    2.8270    2.5112   -0.7256 C   0  0  0  0  0  0  0  0  0  0  0  0
    4.0880    1.7523   -0.3464 C   0  0  0  0  0  0  0  0  0  0  0  0
    2.2095    0.5797   -2.7811 H   0  0  0  0  0  0  0  0  0  0  0  0
    1.2039   -0.8650   -2.7603 H   0  0  0  0  0  0  0  0  0  0  0  0
    0.4507    0.7386   -2.7710 H   0  0  0  0  0  0  0  0  0  0  0  0
    0.1930   -0.4005   -0.4044 H   0  0  0  0  0  0  0  0  0  0  0  0
    2.1226   -0.4265   -0.4719 H   0  0  0  0  0  0  0  0  0  0  0  0
    2.7559    2.6334   -1.8077 H   0  0  0  0  0  0  0  0  0  0  0  0
    2.8421    3.5143   -0.2963 H   0  0  0  0  0  0  0  0  0  0  0  0
    4.1092    0.7605   -0.8011 H   0  0  0  0  0  0  0  0  0  0  0  0
    4.1586    1.6303    0.7350 H   0  0  0  0  0  0  0  0  0  0  0  0
    4.9727    2.2907   -0.6933 H   0  0  0  0  0  0  0  0  0  0  0  0
  1  2  1  0
  1  6  1  0
  1  7  1  0
  1 22  1  0
  2  3  1  0
  2  8  1  0
  2  9  1  0
  3  4  1  0
  3 10  1  0
  3 11  1  0
  4  5  1  0
  5  6  1  0
  5 12  1  0
  5 13  1  0
 14 15  1  0
 14 19  1  0
 14 20  1  0
 14 21  1  0
 15 16  1  0
 15 23  1  0
 16 17  1  0
 17 18  1  0
 17 24  1  0
 17 25  1  0
 18 26  1  0
 18 27  1  0
 18 28  1  0
M  RAD  1  15   2
M  END
>  <reaction>  (11) 
rmg_rxn_259

>  <mol_properties>  (11) 
{"0": {"label": "*3", "atom_type": "Cs"}, "5": {"label": "*4", "atom_type": "O2s"}, "14": {"label": "*1", "atom_type": "Cs"}, "15": {"label": "*0", "atom_type": "S2s"}, "21": {"label": "*2", "atom_type": "H0"}}

>  <type>  (11) 
unop_7

>  <geom_source>  (11) 
Heuristics

$$$$

     RDKit          3D

 28 27  0  0  0  0  0  0  0  0999 V2000
   -1.5292   -0.9027   -0.2479 C   0  0  0  0  0  0  0  0  0  0  0  0
   -1.3641   -2.4026   -0.0490 C   0  0  0  0  0  0  0  0  0  0  0  0
   -1.8751   -2.7704    1.3367 C   0  0  0  0  0  0  0  0  0  0  0  0
   -1.2676   -1.9525    2.3183 O   0  0  0  0  0  0  0  0  0  0  0  0
   -1.4796   -0.5998    2.0507 C   0  0  0  0  0  0  0  0  0  0  0  0
   -0.9424   -0.1961    0.8280 O   0  0  0  0  0  0  0  0  0  0  0  0
   -2.5978   -0.6470   -0.3156 H   0  0  0  0  0  0  0  0  0  0  0  0
   -1.9132   -2.9524   -0.8168 H   0  0  0  0  0  0  0  0  0  0  0  0
   -0.3074   -2.6651   -0.1278 H   0  0  0  0  0  0  0  0  0  0  0  0
   -2.9680   -2.6461    1.3805 H   0  0  0  0  0  0  0  0  0  0  0  0
   -1.6390   -3.8011    1.5976 H   0  0  0  0  0  0  0  0  0  0  0  0
   -2.5647   -0.3886    2.0627 H   0  0  0  0  0  0  0  0  0  0  0  0
   -0.9738   -0.0330    2.8292 H   0  0  0  0  0  0  0  0  0  0  0  0
    0.6556    0.2095   -2.6819 C   0  0  0  0  0  0  0  0  0  0  0  0
    0.6556    0.2095   -1.1621 C   0  0  0  0  0  3  0  0  0  0  0  0
    0.6556    1.8506   -0.3973 S   0  0  0  0  0  0  0  0  0  0  0  0
    2.1962    2.5645   -1.0258 C   0  0  0  0  0  0  0  0  0  0  0  0
    3.4571    1.8056   -0.6466 C   0  0  0  0  0  0  0  0  0  0  0  0
    1.5786    0.6330   -3.0813 H   0  0  0  0  0  0  0  0  0  0  0  0
    0.5730   -0.8117   -3.0605 H   0  0  0  0  0  0  0  0  0  0  0  0
   -0.1801    0.7919   -3.0713 H   0  0  0  0  0  0  0  0  0  0  0  0
   -0.4379   -0.3472   -0.7046 H   0  0  0  0  0  0  0  0  0  0  0  0
    1.4918   -0.3732   -0.7721 H   0  0  0  0  0  0  0  0  0  0  0  0
    2.1250    2.6867   -2.1079 H   0  0  0  0  0  0  0  0  0  0  0  0
    2.2112    3.5677   -0.5966 H   0  0  0  0  0  0  0  0  0  0  0  0
    3.4783    0.8138   -1.1013 H   0  0  0  0  0  0  0  0  0  0  0  0
    3.5278    1.6836    0.4348 H   0  0  0  0  0  0  0  0  0  0  0  0
    4.3418    2.3440   -0.9936 H   0  0  0  0  0  0  0  0  0  0  0  0
  1  2  1  0
  1  6  1  0
  1  7  1  0
  1 22  1  0
  2  3  1  0
  2  8  1  0
  2  9  1  0
  3  4  1  0
  3 10  1  0
  3 11  1  0
  4  5  1  0
  5  6  1  0
  5 12  1  0
  5 13  1  0
 14 15  1  0
 14 19  1  0
 14 20  1  0
 14 21  1  0
 15 16  1  0
 15 23  1  0
 16 17  1  0
 17 18  1  0
 17 24  1  0
 17 25  1  0
 18 26  1  0
 18 27  1  0
 18 28  1  0
M  RAD  1  15   2
M  END
>  <reaction>  (12) 
rmg_rxn_259

>  <mol_properties>  (12) 
{"0": {"label": "*3", "atom_type": "Cs"}, "5": {"label": "*4", "atom_type": "O2s"}, "14": {"label": "*1", "atom_type": "Cs"}, "15": {"label": "*0", "atom_type": "S2s"}, "21": {"label": "*2", "atom_type": "H0"}}

>  <type>  (12) 
unop_8

>  <geom_source>  (12) 
Heuristics

$$$$

     RDKit          3D

 28 27  0  0  0  0  0  0  0  0999 V2000
   -0.8851   -0.7864    0.3398 C   0  0  0  0  0  0  0  0  0  0  0  0
   -2.0613   -0.5932   -0.6067 C   0  0  0  0  0  0  0  0  0  0  0  0
   -3.3301   -1.0653    0.0887 C   0  0  0  0  0  0  0  0  0  0  0  0
   -3.1575   -2.3768    0.5904 O   0  0  0  0  0  0  0  0  0  0  0  0
   -2.0608   -2.4489    1.4497 C   0  0  0  0  0  0  0  0  0  0  0  0
   -0.8582   -2.1145    0.8265 O   0  0  0  0  0  0  0  0  0  0  0  0
   -0.9638   -0.0869    1.1862 H   0  0  0  0  0  0  0  0  0  0  0  0
   -2.1515    0.4568   -0.8943 H   0  0  0  0  0  0  0  0  0  0  0  0
   -1.9010   -1.1845   -1.5103 H   0  0  0  0  0  0  0  0  0  0  0  0
   -3.5808   -0.3854    0.9174 H   0  0  0  0  0  0  0  0  0  0  0  0
   -4.1793   -1.0994   -0.5924 H   0  0  0  0  0  0  0  0  0  0  0  0
   -2.2259   -1.7785    2.3131 H   0  0  0  0  0  0  0  0  0  0  0  0
   -1.9770   -3.4815    1.7812 H   0  0  0  0  0  0  0  0  0  0  0  0
    1.2997    0.3258   -2.0941 C   0  0  0  0  0  0  0  0  0  0  0  0
    1.2997    0.3258   -0.5744 C   0  0  0  0  0  3  0  0  0  0  0  0
    1.2997    1.9669    0.1905 S   0  0  0  0  0  0  0  0  0  0  0  0
    2.8403    2.6808   -0.4381 C   0  0  0  0  0  0  0  0  0  0  0  0
    4.1012    1.9219   -0.0589 C   0  0  0  0  0  0  0  0  0  0  0  0
    2.2227    0.7493   -2.4936 H   0  0  0  0  0  0  0  0  0  0  0  0
    1.2171   -0.6954   -2.4728 H   0  0  0  0  0  0  0  0  0  0  0  0
    0.4639    0.9082   -2.4835 H   0  0  0  0  0  0  0  0  0  0  0  0
    0.2062   -0.2309   -0.1169 H   0  0  0  0  0  0  0  0  0  0  0  0
    2.1359   -0.2569   -0.1844 H   0  0  0  0  0  0  0  0  0  0  0  0
    2.7691    2.8030   -1.5202 H   0  0  0  0  0  0  0  0  0  0  0  0
    2.8553    3.6839   -0.0088 H   0  0  0  0  0  0  0  0  0  0  0  0
    4.1224    0.9301   -0.5136 H   0  0  0  0  0  0  0  0  0  0  0  0
    4.1718    1.7999    1.0225 H   0  0  0  0  0  0  0  0  0  0  0  0
    4.9859    2.4603   -0.4058 H   0  0  0  0  0  0  0  0  0  0  0  0
  1  2  1  0
  1  6  1  0
  1  7  1  0
  1 22  1  0
  2  3  1  0
  2  8  1  0
  2  9  1  0
  3  4  1  0
  3 10  1  0
  3 11  1  0
  4  5  1  0
  5  6  1  0
  5 12  1  0
  5 13  1  0
 14 15  1  0
 14 19  1  0
 14 20  1  0
 14 21  1  0
 15 16  1  0
 15 23  1  0
 16 17  1  0
 17 18  1  0
 17 24  1  0
 17 25  1  0
 18 26  1  0
 18 27  1  0
 18 28  1  0
M  RAD  1  15   2
M  END
>  <reaction>  (13) 
rmg_rxn_259

>  <mol_properties>  (13) 
{"0": {"label": "*3", "atom_type": "Cs"}, "5": {"label": "*4", "atom_type": "O2s"}, "14": {"label": "*1", "atom_type": "Cs"}, "15": {"label": "*0", "atom_type": "S2s"}, "21": {"label": "*2", "atom_type": "H0"}}

>  <type>  (13) 
unop_9

>  <geom_source>  (13) 
Heuristics

$$$$

     RDKit          3D

 28 27  0  0  0  0  0  0  0  0999 V2000
   -1.4972   -0.6437   -0.0619 C   0  0  0  0  0  0  0  0  0  0  0  0
   -1.6377   -2.0869   -0.5243 C   0  0  0  0  0  0  0  0  0  0  0  0
   -2.1568   -2.9231    0.6367 C   0  0  0  0  0  0  0  0  0  0  0  0
   -1.3540   -2.7237    1.7843 O   0  0  0  0  0  0  0  0  0  0  0  0
   -1.2925   -1.3734    2.1297 C   0  0  0  0  0  0  0  0  0  0  0  0
   -0.7337   -0.5801    1.1274 O   0  0  0  0  0  0  0  0  0  0  0  0
   -2.4917   -0.2068    0.1166 H   0  0  0  0  0  0  0  0  0  0  0  0
   -2.3194   -2.1506   -1.3755 H   0  0  0  0  0  0  0  0  0  0  0  0
   -0.6621   -2.4648   -0.8362 H   0  0  0  0  0  0  0  0  0  0  0  0
   -3.1977   -2.6466    0.8643 H   0  0  0  0  0  0  0  0  0  0  0  0
   -2.1283   -3.9892    0.4156 H   0  0  0  0  0  0  0  0  0  0  0  0
   -2.3091   -1.0075    2.3638 H   0  0  0  0  0  0  0  0  0  0  0  0
   -0.6492   -1.2919    3.0030 H   0  0  0  0  0  0  0  0  0  0  0  0
    0.6876    0.4685   -2.4959 C   0  0  0  0  0  0  0  0  0  0  0  0
    0.6876    0.4685   -0.9761 C   0  0  0  0  0  3  0  0  0  0  0  0
    0.6876    2.1096   -0.2112 S   0  0  0  0  0  0  0  0  0  0  0  0
    2.2281    2.8235   -0.8398 C   0  0  0  0  0  0  0  0  0  0  0  0
    3.4891    2.0647   -0.4606 C   0  0  0  0  0  0  0  0  0  0  0  0
    1.6106    0.8921   -2.8953 H   0  0  0  0  0  0  0  0  0  0  0  0
    0.6050   -0.5527   -2.8745 H   0  0  0  0  0  0  0  0  0  0  0  0
   -0.1482    1.0510   -2.8853 H   0  0  0  0  0  0  0  0  0  0  0  0
   -0.4059   -0.0881   -0.5186 H   0  0  0  0  0  0  0  0  0  0  0  0
    1.5237   -0.1141   -0.5861 H   0  0  0  0  0  0  0  0  0  0  0  0
    2.1570    2.9457   -1.9219 H   0  0  0  0  0  0  0  0  0  0  0  0
    2.2432    3.8267   -0.4106 H   0  0  0  0  0  0  0  0  0  0  0  0
    3.5103    1.0728   -0.9153 H   0  0  0  0  0  0  0  0  0  0  0  0
    3.5597    1.9426    0.6208 H   0  0  0  0  0  0  0  0  0  0  0  0
    4.3738    2.6031   -0.8076 H   0  0  0  0  0  0  0  0  0  0  0  0
  1  2  1  0
  1  6  1  0
  1  7  1  0
  1 22  1  0
  2  3  1  0
  2  8  1  0
  2  9  1  0
  3  4  1  0
  3 10  1  0
  3 11  1  0
  4  5  1  0
  5  6  1  0
  5 12  1  0
  5 13  1  0
 14 15  1  0
 14 19  1  0
 14 20  1  0
 14 21  1  0
 15 16  1  0
 15 23  1  0
 16 17  1  0
 17 18  1  0
 17 24  1  0
 17 25  1  0
 18 26  1  0
 18 27  1  0
 18 28  1  0
M  RAD  1  15   2
M  END
>  <reaction>  (14) 
rmg_rxn_259

>  <mol_properties>  (14) 
{"0": {"label": "*3", "atom_type": "Cs"}, "5": {"label": "*4", "atom_type": "O2s"}, "14": {"label": "*1", "atom_type": "Cs"}, "15": {"label": "*0", "atom_type": "S2s"}, "21": {"label": "*2", "atom_type": "H0"}}

>  <type>  (14) 
unop_10

>  <geom_source>  (14) 
Heuristics

$$$$

     RDKit          3D

 28 27  0  0  0  0  0  0  0  0999 V2000
   -0.8681   -0.9779    0.0919 C   0  0  0  0  0  0  0  0  0  0  0  0
   -1.2830   -0.3971    1.4362 C   0  0  0  0  0  0  0  0  0  0  0  0
   -2.2099   -1.3853    2.1297 C   0  0  0  0  0  0  0  0  0  0  0  0
   -3.2704   -1.7529    1.2685 O   0  0  0  0  0  0  0  0  0  0  0  0
   -2.7886   -2.2776    0.0689 C   0  0  0  0  0  0  0  0  0  0  0  0
   -2.0086   -1.3698   -0.6479 O   0  0  0  0  0  0  0  0  0  0  0  0
   -0.2123   -1.8488    0.2440 H   0  0  0  0  0  0  0  0  0  0  0  0
   -0.4043   -0.1994    2.0543 H   0  0  0  0  0  0  0  0  0  0  0  0
   -1.8105    0.5453    1.2772 H   0  0  0  0  0  0  0  0  0  0  0  0
   -1.6485   -2.2848    2.4252 H   0  0  0  0  0  0  0  0  0  0  0  0
   -2.6648   -0.9592    3.0229 H   0  0  0  0  0  0  0  0  0  0  0  0
   -2.1955   -3.1869    0.2777 H   0  0  0  0  0  0  0  0  0  0  0  0
   -3.6512   -2.5202   -0.5476 H   0  0  0  0  0  0  0  0  0  0  0  0
    1.3166    0.1343   -2.3420 C   0  0  0  0  0  0  0  0  0  0  0  0
    1.3166    0.1343   -0.8223 C   0  0  0  0  0  3  0  0  0  0  0  0
    1.3166    1.7753   -0.0574 S   0  0  0  0  0  0  0  0  0  0  0  0
    2.8572    2.4893   -0.6860 C   0  0  0  0  0  0  0  0  0  0  0  0
    4.1182    1.7304   -0.3068 C   0  0  0  0  0  0  0  0  0  0  0  0
    2.2397    0.5578   -2.7415 H   0  0  0  0  0  0  0  0  0  0  0  0
    1.2341   -0.8869   -2.7207 H   0  0  0  0  0  0  0  0  0  0  0  0
    0.4809    0.7167   -2.7314 H   0  0  0  0  0  0  0  0  0  0  0  0
    0.2232   -0.4224   -0.3648 H   0  0  0  0  0  0  0  0  0  0  0  0
    2.1528   -0.4484   -0.4323 H   0  0  0  0  0  0  0  0  0  0  0  0
    2.7861    2.6115   -1.7681 H   0  0  0  0  0  0  0  0  0  0  0  0
    2.8723    3.4924   -0.2567 H   0  0  0  0  0  0  0  0  0  0  0  0
    4.1394    0.7386   -0.7615 H   0  0  0  0  0  0  0  0  0  0  0  0
    4.1888    1.6084    0.7746 H   0  0  0  0  0  0  0  0  0  0  0  0
    5.0029    2.2688   -0.6537 H   0  0  0  0  0  0  0  0  0  0  0  0
  1  2  1  0
  1  6  1  0
  1  7  1  0
  1 22  1  0
  2  3  1  0
  2  8  1  0
  2  9  1  0
  3  4  1  0
  3 10  1  0
  3 11  1  0
  4  5  1  0
  5  6  1  0
  5 12  1  0
  5 13  1  0
 14 15  1  0
 14 19  1  0
 14 20  1  0
 14 21  1  0
 15 16  1  0
 15 23  1  0
 16 17  1  0
 17 18  1  0
 17 24  1  0
 17 25  1  0
 18 26  1  0
 18 27  1  0
 18 28  1  0
M  RAD  1  15   2
M  END
>  <reaction>  (15) 
rmg_rxn_259

>  <mol_properties>  (15) 
{"0": {"label": "*3", "atom_type": "Cs"}, "5": {"label": "*4", "atom_type": "O2s"}, "14": {"label": "*1", "atom_type": "Cs"}, "15": {"label": "*0", "atom_type": "S2s"}, "21": {"label": "*2", "atom_type": "H0"}}

>  <type>  (15) 
unop_11

>  <geom_source>  (15) 
Heuristics

$$$$

     RDKit          3D

 28 27  0  0  0  0  0  0  0  0999 V2000
   -1.0742   -0.5963    0.3313 C   0  0  0  0  0  0  0  0  0  0  0  0
   -1.9890   -1.0620   -0.7924 C   0  0  0  0  0  0  0  0  0  0  0  0
   -3.1162   -1.8904   -0.1925 C   0  0  0  0  0  0  0  0  0  0  0  0
   -2.5906   -2.9127    0.6320 O   0  0  0  0  0  0  0  0  0  0  0  0
   -1.7721   -2.3854    1.6313 C   0  0  0  0  0  0  0  0  0  0  0  0
   -0.6702   -1.6958    1.1247 O   0  0  0  0  0  0  0  0  0  0  0  0
   -1.5967    0.1392    0.9622 H   0  0  0  0  0  0  0  0  0  0  0  0
   -2.3926   -0.2049   -1.3362 H   0  0  0  0  0  0  0  0  0  0  0  0
   -1.4200   -1.6765   -1.4927 H   0  0  0  0  0  0  0  0  0  0  0  0
   -3.7824   -1.2459    0.4015 H   0  0  0  0  0  0  0  0  0  0  0  0
   -3.7131   -2.3820   -0.9595 H   0  0  0  0  0  0  0  0  0  0  0  0
   -2.3656   -1.7087    2.2731 H   0  0  0  0  0  0  0  0  0  0  0  0
   -1.3908   -3.2223    2.2121 H   0  0  0  0  0  0  0  0  0  0  0  0
    1.1106    0.5159   -2.1026 C   0  0  0  0  0  0  0  0  0  0  0  0
    1.1106    0.5159   -0.5829 C   0  0  0  0  0  3  0  0  0  0  0  0
    1.1106    2.1570    0.1820 S   0  0  0  0  0  0  0  0  0  0  0  0
    2.6512    2.8709   -0.4466 C   0  0  0  0  0  0  0  0  0  0  0  0
    3.9121    2.1121   -0.0674 C   0  0  0  0  0  0  0  0  0  0  0  0
    2.0336    0.9395   -2.5020 H   0  0  0  0  0  0  0  0  0  0  0  0
    1.0281   -0.5053   -2.4813 H   0  0  0  0  0  0  0  0  0  0  0  0
    0.2749    1.0984   -2.4920 H   0  0  0  0  0  0  0  0  0  0  0  0
    0.0172   -0.0407   -0.1253 H   0  0  0  0  0  0  0  0  0  0  0  0
    1.9468   -0.0667   -0.1928 H   0  0  0  0  0  0  0  0  0  0  0  0
    2.5801    2.9931   -1.5286 H   0  0  0  0  0  0  0  0  0  0  0  0
    2.6663    3.8741   -0.0173 H   0  0  0  0  0  0  0  0  0  0  0  0
    3.9333    1.1202   -0.5220 H   0  0  0  0  0  0  0  0  0  0  0  0
    3.9828    1.9900    1.0140 H   0  0  0  0  0  0  0  0  0  0  0  0
    4.7969    2.6505   -0.4143 H   0  0  0  0  0  0  0  0  0  0  0  0
  1  2  1  0
  1  6  1  0
  1  7  1  0
  1 22  1  0
  2  3  1  0
  2  8  1  0
  2  9  1  0
  3  4  1  0
  3 10  1  0
  3 11  1  0
  4  5  1  0
  5  6  1  0
  5 12  1  0
  5 13  1  0
 14 15  1  0
 14 19  1  0
 14 20  1  0
 14 21  1  0
 15 16  1  0
 15 23  1  0
 16 17  1  0
 17 18  1  0
 17 24  1  0
 17 25  1  0
 18 26  1  0
 18 27  1  0
 18 28  1  0
M  RAD  1  15   2
M  END
>  <reaction>  (16) 
rmg_rxn_259

>  <mol_properties>  (16) 
{"0": {"label": "*3", "atom_type": "Cs"}, "5": {"label": "*4", "atom_type": "O2s"}, "14": {"label": "*1", "atom_type": "Cs"}, "15": {"label": "*0", "atom_type": "S2s"}, "21": {"label": "*2", "atom_type": "H0"}}

>  <type>  (16) 
unop_12

>  <geom_source>  (16) 
Heuristics

$$$$

     RDKit          3D

 28 27  0  0  0  0  0  0  0  0999 V2000
    2.5750   -1.1095   -0.9908 S   0  0  0  0  0  0  0  0  0  0  0  0
   -1.5286    1.7366   -0.6116 O   0  0  0  0  0  0  0  0  0  0  0  0
   -1.1567    0.8336    1.5785 O   0  0  0  0  0  0  0  0  0  0  0  0
   -2.4007   -0.4344   -0.0404 C   0  0  0  0  0  0  0  0  0  0  0  0
   -2.7191    0.9857   -0.5120 C   0  0  0  0  0  0  0  0  0  0  0  0
   -1.1768   -0.3862    0.8733 C   0  0  0  0  0  0  0  0  0  0  0  0
    2.5164    0.7027   -0.7760 C   0  0  0  0  0  0  0  0  0  0  0  0
    2.8526    1.0914    0.6580 C   0  0  0  0  0  0  0  0  0  0  0  0
   -0.9423    1.9134    0.6756 C   0  0  0  0  0  0  0  0  0  0  0  0
    0.3976   -2.7729   -0.7874 C   0  0  0  0  0  0  0  0  0  0  0  0
    0.8839   -1.3946   -0.3736 C   0  0  0  0  0  3  0  0  0  0  0  0
   -2.1797   -1.0892   -0.9105 H   0  0  0  0  0  0  0  0  0  0  0  0
   -3.2754   -0.8490    0.5062 H   0  0  0  0  0  0  0  0  0  0  0  0
   -3.2056    0.9428   -1.5093 H   0  0  0  0  0  0  0  0  0  0  0  0
   -3.4349    1.4792    0.1857 H   0  0  0  0  0  0  0  0  0  0  0  0
   -1.2185   -1.2271    1.5974 H   0  0  0  0  0  0  0  0  0  0  0  0
   -0.0664   -0.5229    0.1583 H   0  0  0  0  0  0  0  0  0  0  0  0
    1.5172    1.1001   -1.0564 H   0  0  0  0  0  0  0  0  0  0  0  0
    3.2685    1.1564   -1.4552 H   0  0  0  0  0  0  0  0  0  0  0  0
    2.0888    0.6950    1.3584 H   0  0  0  0  0  0  0  0  0  0  0  0
    2.8730    2.1979    0.7476 H   0  0  0  0  0  0  0  0  0  0  0  0
    3.8503    0.6923    0.9387 H   0  0  0  0  0  0  0  0  0  0  0  0
   -1.3502    2.8408    1.1304 H   0  0  0  0  0  0  0  0  0  0  0  0
    0.1507    2.0658    0.5497 H   0  0  0  0  0  0  0  0  0  0  0  0
   -0.6362   -2.9261   -0.4140 H   0  0  0  0  0  0  0  0  0  0  0  0
    0.3933   -2.8556   -1.8945 H   0  0  0  0  0  0  0  0  0  0  0  0
    1.0571   -3.5574   -0.3594 H   0  0  0  0  0  0  0  0  0  0  0  0
    0.8669   -1.3088    0.7330 H   0  0  0  0  0  0  0  0  0  0  0  0
  1 11  1  0
  1  7  1  0
  2  5  1  0
  2  9  1  0
  3  6  1  0
  3  9  1  0
  4  5  1  0
  4  6  1  0
  4 12  1  0
  4 13  1  0
  5 14  1  0
  5 15  1  0
  6 16  1  0
  6 17  1  0
  7  8  1  0
  7 18  1  0
  7 19  1  0
  8 20  1  0
  8 21  1  0
  8 22  1  0
  9 23  1  0
  9 24  1  0
 10 11  1  0
 10 25  1  0
 10 26  1  0
 10 27  1  0
 11 28  1  0
M  RAD  1  11   2
M  END
>  <reaction>  (17) 
rmg_rxn_259

>  <mol_properties>  (17) 
{"0": {"label": "*3", "atom_type": "Cs"}, "5": {"label": "*4", "atom_type": "O2s"}, "14": {"label": "*1", "atom_type": "Cs"}, "15": {"label": "*0", "atom_type": "S2s"}, "21": {"label": "*2", "atom_type": "H0"}}

>  <type>  (17) 
unop_13

>  <geom_source>  (17) 
AutoTST

$$$$

     RDKit          3D

 28 27  0  0  0  0  0  0  0  0999 V2000
   -1.3218   -0.5262    0.1696 C   0  0  0  0  0  0  0  0  0  0  0  0
   -1.8576   -1.5909   -0.7770 C   0  0  0  0  0  0  0  0  0  0  0  0
   -2.6427   -2.6131    0.0325 C   0  0  0  0  0  0  0  0  0  0  0  0
   -1.8625   -3.0905    1.1118 O   0  0  0  0  0  0  0  0  0  0  0  0
   -1.4248   -2.0421    1.9215 C   0  0  0  0  0  0  0  0  0  0  0  0
   -0.6203   -1.1279    1.2407 O   0  0  0  0  0  0  0  0  0  0  0  0
   -2.1525    0.0767    0.5675 H   0  0  0  0  0  0  0  0  0  0  0  0
   -2.4941   -1.1378   -1.5403 H   0  0  0  0  0  0  0  0  0  0  0  0
   -1.0225   -2.0867   -1.2757 H   0  0  0  0  0  0  0  0  0  0  0  0
   -3.5664   -2.1571    0.4207 H   0  0  0  0  0  0  0  0  0  0  0  0
   -2.9168   -3.4818   -0.5646 H   0  0  0  0  0  0  0  0  0  0  0  0
   -2.2995   -1.5164    2.3466 H   0  0  0  0  0  0  0  0  0  0  0  0
   -0.8205   -2.4766    2.7147 H   0  0  0  0  0  0  0  0  0  0  0  0
    0.8630    0.5860   -2.2644 C   0  0  0  0  0  0  0  0  0  0  0  0
    0.8630    0.5860   -0.7447 C   0  0  0  0  0  3  0  0  0  0  0  0
    0.8630    2.2271    0.0202 S   0  0  0  0  0  0  0  0  0  0  0  0
    2.4036    2.9410   -0.6083 C   0  0  0  0  0  0  0  0  0  0  0  0
    3.6645    2.1822   -0.2291 C   0  0  0  0  0  0  0  0  0  0  0  0
    1.7860    1.0096   -2.6638 H   0  0  0  0  0  0  0  0  0  0  0  0
    0.7804   -0.4351   -2.6431 H   0  0  0  0  0  0  0  0  0  0  0  0
    0.0273    1.1685   -2.6538 H   0  0  0  0  0  0  0  0  0  0  0  0
   -0.2304    0.0294   -0.2871 H   0  0  0  0  0  0  0  0  0  0  0  0
    1.6992    0.0034   -0.3546 H   0  0  0  0  0  0  0  0  0  0  0  0
    2.3324    3.0633   -1.6904 H   0  0  0  0  0  0  0  0  0  0  0  0
    2.4187    3.9442   -0.1791 H   0  0  0  0  0  0  0  0  0  0  0  0
    3.6857    1.1903   -0.6838 H   0  0  0  0  0  0  0  0  0  0  0  0
    3.7352    2.0601    0.8523 H   0  0  0  0  0  0  0  0  0  0  0  0
    4.5492    2.7206   -0.5761 H   0  0  0  0  0  0  0  0  0  0  0  0
  1  2  1  0
  1  6  1  0
  1  7  1  0
  1 22  1  0
  2  3  1  0
  2  8  1  0
  2  9  1  0
  3  4  1  0
  3 10  1  0
  3 11  1  0
  4  5  1  0
  5  6  1  0
  5 12  1  0
  5 13  1  0
 14 15  1  0
 14 19  1  0
 14 20  1  0
 14 21  1  0
 15 16  1  0
 15 23  1  0
 16 17  1  0
 17 18  1  0
 17 24  1  0
 17 25  1  0
 18 26  1  0
 18 27  1  0
 18 28  1  0
M  RAD  1  15   2
M  END
>  <reaction>  (18) 
rmg_rxn_259

>  <mol_properties>  (18) 
{"0": {"label": "*3", "atom_type": "Cs"}, "5": {"label": "*4", "atom_type": "O2s"}, "14": {"label": "*1", "atom_type": "Cs"}, "15": {"label": "*0", "atom_type": "S2s"}, "21": {"label": "*2", "atom_type": "H0"}}

>  <type>  (18) 
unop_14

>  <geom_source>  (18) 
gaussian_log

$$$$
