
     RDKit          3D

  9  8  0  0  0  0  0  0  0  0999 V2000
    1.3391   -0.5254   -0.0000 C   0  0  0  0  0  0  0  0  0  0  0  0
    0.5120    0.7464    0.0000 C   0  0  0  0  0  0  0  0  0  0  0  0
   -0.9678    0.5353   -0.0000 N   0  0  0  0  0  0  0  0  0  0  0  0
   -1.3095   -0.6519    0.0000 O   0  0  0  0  0  0  0  0  0  0  0  0
    1.1350   -1.1355   -0.8866 H   0  0  0  0  0  0  0  0  0  0  0  0
    2.4060   -0.2800    0.0000 H   0  0  0  0  0  0  0  0  0  0  0  0
    1.1350   -1.1355    0.8866 H   0  0  0  0  0  0  0  0  0  0  0  0
    0.7341    1.3467   -0.8875 H   0  0  0  0  0  0  0  0  0  0  0  0
    0.7341    1.3467    0.8875 H   0  0  0  0  0  0  0  0  0  0  0  0
  1  2  1  0
  1  5  1  0
  1  6  1  0
  1  7  1  0
  2  3  1  0
  2  8  1  0
  2  9  1  0
  3  4  2  0
M  END
>  <reaction>  (1) 
rmg_rxn_1154

>  <mol_properties>  (1) 
{"0": {"label": "donator", "atom_type": "Cs"}, "4": {"label": "d_hydrogen", "atom_type": "H0"}}

>  <type>  (1) 
r1h

$$$$

     RDKit          3D

  1  0  0  0  0  0  0  0  0  0999 V2000
    0.0000    0.0000    0.0000 O   0  0  0  0  0 15  0  0  0  0  0  0
M  END
>  <reaction>  (2) 
rmg_rxn_1154

>  <mol_properties>  (2) 
{"0": {"label": "acceptor", "atom_type": "O2s"}}

>  <type>  (2) 
r2

$$$$

     RDKit          3D

  2  1  0  0  0  0  0  0  0  0999 V2000
    0.0000    0.0000    0.1079 O   0  0  0  0  0  1  0  0  0  0  0  0
    0.0000    0.0000   -0.8631 H   0  0  0  0  0  0  0  0  0  0  0  0
  1  2  1  0
M  RAD  1   1   2
M  END
>  <reaction>  (3) 
rmg_rxn_1154

>  <mol_properties>  (3) 
{"0": {"label": "acceptor", "atom_type": "O2s"}, "1": {"label": "a_hydrogen", "atom_type": "H0"}}

>  <type>  (3) 
r2h

$$$$

     RDKit          3D

 10  8  0  0  0  0  0  0  0  0999 V2000
    2.2168   -0.6111   -0.2946 O   0  0  0  0  0  1  0  0  0  0  0  0
    0.5181    1.0195    0.4830 C   0  0  0  0  0  3  0  0  0  0  0  0
   -0.7504    0.9355   -0.3448 C   0  0  0  0  0  0  0  0  0  0  0  0
   -1.4364   -0.3922   -0.3131 N   0  0  0  0  0  0  0  0  0  0  0  0
   -0.8697   -1.2379    0.3868 O   0  0  0  0  0  0  0  0  0  0  0  0
    1.4186    0.1551    0.0708 H   0  0  0  0  0  0  0  0  0  0  0  0
    0.9533    2.0209    0.4034 H   0  0  0  0  0  0  0  0  0  0  0  0
    0.3186    0.8234    1.5421 H   0  0  0  0  0  0  0  0  0  0  0  0
   -0.5342    1.1417   -1.3975 H   0  0  0  0  0  0  0  0  0  0  0  0
   -1.4851    1.6664    0.0065 H   0  0  0  0  0  0  0  0  0  0  0  0
  1  6  1  0
  2  3  1  0
  2  7  1  0
  2  8  1  0
  3  4  1  0
  3  9  1  0
  3 10  1  0
  4  5  2  0
M  RAD  2   1   2   2   2
M  END
>  <reaction>  (4) 
rmg_rxn_1154

>  <mol_properties>  (4) 
{"0": {"label": "*1", "atom_type": "O2s"}, "1": {"label": "*3", "atom_type": "Cs"}, "2": {"label": "*4", "atom_type": "Cs"}, "5": {"label": "*2", "atom_type": "H0"}}

>  <type>  (4) 
ts

$$$$

     RDKit          3D

 10  8  0  0  0  0  0  0  0  0999 V2000
   -2.9471    0.0659    0.0055 O   0  0  0  0  0  1  0  0  0  0  0  0
   -0.6131   -0.6706   -0.0075 C   0  0  0  0  0  3  0  0  0  0  0  0
    0.1142    0.6212   -0.0046 C   0  0  0  0  0  0  0  0  0  0  0  0
    1.5696    0.5584    0.0003 N   0  0  0  0  0  0  0  0  0  0  0  0
    2.1484   -0.4885    0.0054 O   0  0  0  0  0  0  0  0  0  0  0  0
   -1.9004   -0.4210   -0.0040 H   0  0  0  0  0  0  0  0  0  0  0  0
   -0.5250   -1.2567   -0.9164 H   0  0  0  0  0  0  0  0  0  0  0  0
   -0.5201   -1.2629    0.8968 H   0  0  0  0  0  0  0  0  0  0  0  0
   -0.1238    1.2378    0.8700 H   0  0  0  0  0  0  0  0  0  0  0  0
   -0.1190    1.2400   -0.8788 H   0  0  0  0  0  0  0  0  0  0  0  0
  1  6  1  0
  2  3  1  0
  2  7  1  0
  2  8  1  0
  3  4  1  0
  3  9  1  0
  3 10  1  0
  4  5  2  0
M  RAD  2   1   2   2   2
M  END
>  <reaction>  (5) 
rmg_rxn_1154

>  <mol_properties>  (5) 
{"0": {"label": "*1", "atom_type": "O2s"}, "1": {"label": "*3", "atom_type": "Cs"}, "2": {"label": "*4", "atom_type": "Cs"}, "5": {"label": "*2", "atom_type": "H0"}}

>  <type>  (5) 
unop_1

>  <geom_source>  (5) 
Heuristics

$$$$

     RDKit          3D

 10  8  0  0  0  0  0  0  0  0999 V2000
   -1.5769    1.1557   -1.2246 O   0  0  0  0  0  1  0  0  0  0  0  0
    0.4302    1.2177    0.2302 C   0  0  0  0  0  3  0  0  0  0  0  0
    0.4303    0.0711    1.2236 C   0  0  0  0  0  0  0  0  0  0  0  0
    0.4303   -1.2926    0.6115 N   0  0  0  0  0  0  0  0  0  0  0  0
    0.4303   -1.2926   -0.6239 O   0  0  0  0  0  0  0  0  0  0  0  0
   -0.6337    1.1848   -0.5410 H   0  0  0  0  0  0  0  0  0  0  0  0
    0.4302    2.1750    0.7612 H   0  0  0  0  0  0  0  0  0  0  0  0
    1.3169    1.1903   -0.4125 H   0  0  0  0  0  0  0  0  0  0  0  0
   -0.4573    0.1185    1.8620 H   0  0  0  0  0  0  0  0  0  0  0  0
    1.3178    0.1185    1.8619 H   0  0  0  0  0  0  0  0  0  0  0  0
  1  6  1  0
  2  3  1  0
  2  7  1  0
  2  8  1  0
  3  4  1  0
  3  9  1  0
  3 10  1  0
  4  5  2  0
M  RAD  2   1   2   2   2
M  END
>  <reaction>  (6) 
rmg_rxn_1154

>  <mol_properties>  (6) 
{"0": {"label": "*1", "atom_type": "O2s"}, "1": {"label": "*3", "atom_type": "Cs"}, "2": {"label": "*4", "atom_type": "Cs"}, "5": {"label": "*2", "atom_type": "H0"}}

>  <type>  (6) 
unop_2

>  <geom_source>  (6) 
Heuristics

$$$$

     RDKit          3D

 10  8  0  0  0  0  0  0  0  0999 V2000
   -1.5779   -1.5746    0.5233 O   0  0  0  0  0  0  0  0  0  0  0  0
    2.1558   -1.2873   -0.0865 O   0  0  0  0  0 15  0  0  0  0  0  0
   -1.1879   -1.0391   -0.4701 N   0  0  0  0  0  0  0  0  0  0  0  0
   -0.7418    0.3313   -0.4417 C   0  0  0  0  0  0  0  0  0  0  0  0
    0.5596    0.4482    0.3386 C   0  0  0  0  0  0  0  0  0  0  0  0
   -1.5226    0.9749    0.0187 H   0  0  0  0  0  0  0  0  0  0  0  0
   -0.5685    0.6732   -1.4834 H   0  0  0  0  0  0  0  0  0  0  0  0
    0.9369    1.4914    0.2917 H   0  0  0  0  0  0  0  0  0  0  0  0
    0.4012    0.1664    1.4013 H   0  0  0  0  0  0  0  0  0  0  0  0
    1.5451   -0.1844   -0.0917 H   0  0  0  0  0  0  0  0  0  0  0  0
  1  3  2  0
  3  4  1  0
  4  5  1  0
  4  6  1  0
  4  7  1  0
  5  8  1  0
  5  9  1  0
  5 10  1  0
M  END
>  <reaction>  (7) 
rmg_rxn_1154

>  <mol_properties>  (7) 
{"0": {"label": "*1", "atom_type": "O2s"}, "1": {"label": "*3", "atom_type": "Cs"}, "2": {"label": "*4", "atom_type": "Cs"}, "5": {"label": "*2", "atom_type": "H0"}}

>  <type>  (7) 
unop_3

>  <geom_source>  (7) 
AutoTST

$$$$

     RDKit          3D

 10  8  0  0  0  0  0  0  0  0999 V2000
   -2.9471    0.0659    0.0055 O   0  0  0  0  0  1  0  0  0  0  0  0
   -0.6131   -0.6706   -0.0075 C   0  0  0  0  0  3  0  0  0  0  0  0
    0.1142    0.6212   -0.0046 C   0  0  0  0  0  0  0  0  0  0  0  0
    1.5696    0.5584    0.0003 N   0  0  0  0  0  0  0  0  0  0  0  0
    2.1484   -0.4885    0.0054 O   0  0  0  0  0  0  0  0  0  0  0  0
   -1.9004   -0.4209   -0.0040 H   0  0  0  0  0  0  0  0  0  0  0  0
   -0.5250   -1.2567   -0.9164 H   0  0  0  0  0  0  0  0  0  0  0  0
   -0.5201   -1.2629    0.8968 H   0  0  0  0  0  0  0  0  0  0  0  0
   -0.1238    1.2378    0.8700 H   0  0  0  0  0  0  0  0  0  0  0  0
   -0.1190    1.2400   -0.8788 H   0  0  0  0  0  0  0  0  0  0  0  0
  1  6  1  0
  2  3  1  0
  2  7  1  0
  2  8  1  0
  3  4  1  0
  3  9  1  0
  3 10  1  0
  4  5  2  0
M  RAD  2   1   2   2   2
M  END
>  <reaction>  (8) 
rmg_rxn_1154

>  <mol_properties>  (8) 
{"0": {"label": "*1", "atom_type": "O2s"}, "1": {"label": "*3", "atom_type": "Cs"}, "2": {"label": "*4", "atom_type": "Cs"}, "5": {"label": "*2", "atom_type": "H0"}}

>  <type>  (8) 
unop_4

>  <geom_source>  (8) 
gaussian_log

$$$$
