
     RDKit          3D

 12 11  0  0  0  0  0  0  0  0999 V2000
    1.8075    0.1979    0.4695 C   0  0  0  0  0  0  0  0  0  0  0  0
    1.0072   -0.8859   -0.7259 S   0  0  0  0  0  0  0  0  0  0  0  0
   -0.7258   -0.6904   -0.2447 C   0  0  0  0  0  0  0  0  0  0  0  0
   -1.0856   -1.2776    1.1108 C   0  0  0  0  0  0  0  0  0  0  0  0
    1.7126   -0.1777    1.4878 H   0  0  0  0  0  0  0  0  0  0  0  0
    1.4024    1.2089    0.4095 H   0  0  0  0  0  0  0  0  0  0  0  0
    2.8647    0.2298    0.2095 H   0  0  0  0  0  0  0  0  0  0  0  0
   -1.2866   -1.1892   -1.0369 H   0  0  0  0  0  0  0  0  0  0  0  0
   -0.9814    0.3707   -0.2917 H   0  0  0  0  0  0  0  0  0  0  0  0
   -0.5492   -0.7768    1.9180 H   0  0  0  0  0  0  0  0  0  0  0  0
   -0.8418   -2.3397    1.1503 H   0  0  0  0  0  0  0  0  0  0  0  0
   -2.1545   -1.1604    1.3035 H   0  0  0  0  0  0  0  0  0  0  0  0
  1  2  1  0
  1  5  1  0
  1  6  1  0
  1  7  1  0
  2  3  1  0
  3  4  1  0
  3  8  1  0
  3  9  1  0
  4 10  1  0
  4 11  1  0
  4 12  1  0
M  END
>  <reaction>  (1) 
rmg_rxn_689

>  <mol_properties>  (1) 
{"0": {"label": "donator", "atom_type": "Cs"}, "4": {"label": "d_hydrogen", "atom_type": "H0"}}

>  <type>  (1) 
r1h

$$$$

     RDKit          3D

 14 13  0  0  0  0  0  0  0  0999 V2000
    2.7687   -0.0362   -0.0732 C   0  0  0  0  0  3  0  0  0  0  0  0
    1.6543    0.2105    0.6386 O   0  0  0  0  0  0  0  0  0  0  0  0
    1.8652    0.6968    1.9544 C   0  0  0  0  0  0  0  0  0  0  0  0
    0.5252    0.9355    2.6156 C   0  0  0  0  0  0  0  0  0  0  0  0
   -0.2992    2.0181    1.9317 C   0  0  0  0  0  0  0  0  0  0  0  0
    2.5851   -0.4757   -1.0422 H   0  0  0  0  0  0  0  0  0  0  0  0
    3.6974   -0.2083    0.4611 H   0  0  0  0  0  0  0  0  0  0  0  0
    2.4441    1.6271    1.9039 H   0  0  0  0  0  0  0  0  0  0  0  0
    2.4506   -0.0397    2.5179 H   0  0  0  0  0  0  0  0  0  0  0  0
    0.7150    1.2089    3.6572 H   0  0  0  0  0  0  0  0  0  0  0  0
   -0.0287   -0.0066    2.6327 H   0  0  0  0  0  0  0  0  0  0  0  0
   -0.5056    1.7522    0.8949 H   0  0  0  0  0  0  0  0  0  0  0  0
   -1.2524    2.1635    2.4416 H   0  0  0  0  0  0  0  0  0  0  0  0
    0.2319    2.9729    1.9340 H   0  0  0  0  0  0  0  0  0  0  0  0
  1  2  1  0
  1  6  1  0
  1  7  1  0
  2  3  1  0
  3  4  1  0
  3  8  1  0
  3  9  1  0
  4  5  1  0
  4 10  1  0
  4 11  1  0
  5 12  1  0
  5 13  1  0
  5 14  1  0
M  RAD  1   1   2
M  END
>  <reaction>  (2) 
rmg_rxn_689

>  <mol_properties>  (2) 
{"0": {"label": "acceptor", "atom_type": "Cs"}}

>  <type>  (2) 
r2

$$$$

     RDKit          3D

 15 14  0  0  0  0  0  0  0  0999 V2000
   -1.2811   -0.4129    1.0228 C   0  0  0  0  0  0  0  0  0  0  0  0
   -1.0023   -0.5809   -0.4650 C   0  0  0  0  0  0  0  0  0  0  0  0
   -2.0576    0.0568   -1.3449 C   0  0  0  0  0  0  0  0  0  0  0  0
   -2.0663    1.4464   -1.1307 O   0  0  0  0  0  0  0  0  0  0  0  0
   -3.0424    2.1072   -1.8849 C   0  0  0  0  0  0  0  0  0  0  0  0
   -2.2382   -0.8657    1.2935 H   0  0  0  0  0  0  0  0  0  0  0  0
   -1.3219    0.6426    1.2914 H   0  0  0  0  0  0  0  0  0  0  0  0
   -0.5042   -0.8881    1.6236 H   0  0  0  0  0  0  0  0  0  0  0  0
   -0.0316   -0.1460   -0.7167 H   0  0  0  0  0  0  0  0  0  0  0  0
   -0.9494   -1.6429   -0.7203 H   0  0  0  0  0  0  0  0  0  0  0  0
   -1.8518   -0.1570   -2.4041 H   0  0  0  0  0  0  0  0  0  0  0  0
   -3.0491   -0.3636   -1.1124 H   0  0  0  0  0  0  0  0  0  0  0  0
   -4.0521    1.7545   -1.6343 H   0  0  0  0  0  0  0  0  0  0  0  0
   -2.8850    1.9634   -2.9626 H   0  0  0  0  0  0  0  0  0  0  0  0
   -2.9730    3.1700   -1.6570 H   0  0  0  0  0  0  0  0  0  0  0  0
  1  2  1  0
  1  6  1  0
  1  7  1  0
  1  8  1  0
  2  3  1  0
  2  9  1  0
  2 10  1  0
  3  4  1  0
  3 11  1  0
  3 12  1  0
  4  5  1  0
  5 13  1  0
  5 14  1  0
  5 15  1  0
M  END
>  <reaction>  (3) 
rmg_rxn_689

>  <mol_properties>  (3) 
{"0": {"label": "a_hydrogen", "atom_type": "H0"}, "1": {"label": "acceptor", "atom_type": "Cs"}}

>  <type>  (3) 
r2h

$$$$

     RDKit          3D

 26 24  0  0  0  0  0  0  0  0999 V2000
   -0.9961    0.3626    1.7810 C   0  0  0  0  0  0  0  0  0  0  0  0
   -2.4746   -0.5915    1.6752 S   0  0  0  0  0  0  0  0  0  0  0  0
   -1.8669   -2.0940    0.8717 C   0  0  0  0  0  0  0  0  0  0  0  0
   -1.4044   -1.9136   -0.5649 C   0  0  0  0  0  0  0  0  0  0  0  0
   -0.6864    0.9486    0.5993 H   0  0  0  0  0  0  0  0  0  0  0  0
   -0.1194   -0.2213    2.0629 H   0  0  0  0  0  0  0  0  0  0  0  0
   -1.1478    1.2090    2.4478 H   0  0  0  0  0  0  0  0  0  0  0  0
   -2.7080   -2.7875    0.9228 H   0  0  0  0  0  0  0  0  0  0  0  0
   -1.0686   -2.5102    1.4903 H   0  0  0  0  0  0  0  0  0  0  0  0
   -0.5452   -1.2458   -0.6306 H   0  0  0  0  0  0  0  0  0  0  0  0
   -2.2035   -1.4979   -1.1803 H   0  0  0  0  0  0  0  0  0  0  0  0
   -1.1125   -2.8778   -0.9880 H   0  0  0  0  0  0  0  0  0  0  0  0
   -0.3535    1.5183   -0.5925 C   0  0  0  0  0  3  0  0  0  0  0  0
    0.7273    0.8567   -1.1267 O   0  0  0  0  0  0  0  0  0  0  0  0
    1.9406    1.0947   -0.4446 C   0  0  0  0  0  0  0  0  0  0  0  0
    3.0540    0.3259   -1.1235 C   0  0  0  0  0  0  0  0  0  0  0  0
    3.3043    0.7723   -2.5578 C   0  0  0  0  0  0  0  0  0  0  0  0
   -1.2321    1.3588   -1.2134 H   0  0  0  0  0  0  0  0  0  0  0  0
   -0.1630    2.5739   -0.3696 H   0  0  0  0  0  0  0  0  0  0  0  0
    1.8395    0.7835    0.6029 H   0  0  0  0  0  0  0  0  0  0  0  0
    2.1573    2.1730   -0.4518 H   0  0  0  0  0  0  0  0  0  0  0  0
    2.8072   -0.7387   -1.0985 H   0  0  0  0  0  0  0  0  0  0  0  0
    3.9602    0.4542   -0.5254 H   0  0  0  0  0  0  0  0  0  0  0  0
    4.1157    0.2001   -3.0096 H   0  0  0  0  0  0  0  0  0  0  0  0
    2.4112    0.6358   -3.1677 H   0  0  0  0  0  0  0  0  0  0  0  0
    3.5782    1.8294   -2.5950 H   0  0  0  0  0  0  0  0  0  0  0  0
  1  2  1  0
  1  5  1  0
  1  6  1  0
  1  7  1  0
  2  3  1  0
  3  4  1  0
  3  8  1  0
  3  9  1  0
  4 10  1  0
  4 11  1  0
  4 12  1  0
 13 14  1  0
 13 18  1  0
 13 19  1  0
 14 15  1  0
 15 16  1  0
 15 20  1  0
 15 21  1  0
 16 17  1  0
 16 22  1  0
 16 23  1  0
 17 24  1  0
 17 25  1  0
 17 26  1  0
M  RAD  1  13   2
M  END
>  <reaction>  (4) 
rmg_rxn_689

>  <mol_properties>  (4) 
{"0": {"label": "*1", "atom_type": "Cs"}, "1": {"label": "*0", "atom_type": "S2s"}, "4": {"label": "*2", "atom_type": "H0"}, "12": {"label": "*3", "atom_type": "Cs"}, "13": {"label": "*4", "atom_type": "O2s"}}

>  <type>  (4) 
ts

$$$$

     RDKit          3D

 26 24  0  0  0  0  0  0  0  0999 V2000
    0.5688   -0.6295    1.8268 C   0  0  0  0  0  0  0  0  0  0  0  0
   -1.0743   -1.2083    2.2846 S   0  0  0  0  0  0  0  0  0  0  0  0
   -1.0743   -2.8485    1.5209 C   0  0  0  0  0  0  0  0  0  0  0  0
   -1.0743   -2.8485    0.0006 C   0  0  0  0  0  0  0  0  0  0  0  0
    0.6836   -0.4538    0.5364 H   0  0  0  0  0  0  0  0  0  0  0  0
    1.3358   -1.3225    2.1749 H   0  0  0  0  0  0  0  0  0  0  0  0
    0.7152    0.3299    2.3211 H   0  0  0  0  0  0  0  0  0  0  0  0
   -1.9784   -3.3265    1.9019 H   0  0  0  0  0  0  0  0  0  0  0  0
   -0.2251   -3.4133    1.9122 H   0  0  0  0  0  0  0  0  0  0  0  0
   -0.1674   -2.3923   -0.3987 H   0  0  0  0  0  0  0  0  0  0  0  0
   -1.9303   -2.2953   -0.3871 H   0  0  0  0  0  0  0  0  0  0  0  0
   -1.1228   -3.8717   -0.3790 H   0  0  0  0  0  0  0  0  0  0  0  0
    0.7994   -0.2767   -0.7648 C   0  0  0  0  0  3  0  0  0  0  0  0
    1.1176    1.0499   -1.0762 O   0  0  0  0  0  0  0  0  0  0  0  0
    0.0014    1.7966   -1.4928 C   0  0  0  0  0  0  0  0  0  0  0  0
    0.4405    3.2030   -1.8450 C   0  0  0  0  0  0  0  0  0  0  0  0
    1.4086    3.2520   -3.0196 C   0  0  0  0  0  0  0  0  0  0  0  0
    1.7177   -0.7725   -0.4528 H   0  0  0  0  0  0  0  0  0  0  0  0
    0.3863   -0.8064   -1.6340 H   0  0  0  0  0  0  0  0  0  0  0  0
   -0.7522    1.8211   -0.6919 H   0  0  0  0  0  0  0  0  0  0  0  0
   -0.4652    1.3154   -2.3672 H   0  0  0  0  0  0  0  0  0  0  0  0
    0.8986    3.6549   -0.9615 H   0  0  0  0  0  0  0  0  0  0  0  0
   -0.4556    3.7876   -2.0713 H   0  0  0  0  0  0  0  0  0  0  0  0
    1.6982    4.2791   -3.2466 H   0  0  0  0  0  0  0  0  0  0  0  0
    2.3123    2.6839   -2.7994 H   0  0  0  0  0  0  0  0  0  0  0  0
    0.9541    2.8257   -3.9173 H   0  0  0  0  0  0  0  0  0  0  0  0
  1  2  1  0
  1  5  1  0
  1  6  1  0
  1  7  1  0
  2  3  1  0
  3  4  1  0
  3  8  1  0
  3  9  1  0
  4 10  1  0
  4 11  1  0
  4 12  1  0
 13 14  1  0
 13 18  1  0
 13 19  1  0
 14 15  1  0
 15 16  1  0
 15 20  1  0
 15 21  1  0
 16 17  1  0
 16 22  1  0
 16 23  1  0
 17 24  1  0
 17 25  1  0
 17 26  1  0
M  RAD  1  13   2
M  END
>  <reaction>  (5) 
rmg_rxn_689

>  <mol_properties>  (5) 
{"0": {"label": "*1", "atom_type": "Cs"}, "1": {"label": "*0", "atom_type": "S2s"}, "4": {"label": "*2", "atom_type": "H0"}, "12": {"label": "*3", "atom_type": "Cs"}, "13": {"label": "*4", "atom_type": "O2s"}}

>  <type>  (5) 
unop_1

>  <geom_source>  (5) 
Heuristics

$$$$

     RDKit          3D

 26 24  0  0  0  0  0  0  0  0999 V2000
    1.5082    0.4209    1.9482 C   0  0  0  0  0  0  0  0  0  0  0  0
   -0.1349   -0.1579    2.4059 S   0  0  0  0  0  0  0  0  0  0  0  0
   -0.1349   -1.7980    1.6423 C   0  0  0  0  0  0  0  0  0  0  0  0
   -0.1349   -1.7980    0.1219 C   0  0  0  0  0  0  0  0  0  0  0  0
    1.6230    0.5966    0.6577 H   0  0  0  0  0  0  0  0  0  0  0  0
    2.2752   -0.2721    2.2963 H   0  0  0  0  0  0  0  0  0  0  0  0
    1.6547    1.3803    2.4425 H   0  0  0  0  0  0  0  0  0  0  0  0
   -1.0390   -2.2760    2.0232 H   0  0  0  0  0  0  0  0  0  0  0  0
    0.7143   -2.3629    2.0335 H   0  0  0  0  0  0  0  0  0  0  0  0
    0.7721   -1.3419   -0.2774 H   0  0  0  0  0  0  0  0  0  0  0  0
   -0.9909   -1.2448   -0.2658 H   0  0  0  0  0  0  0  0  0  0  0  0
   -0.1833   -2.8213   -0.2576 H   0  0  0  0  0  0  0  0  0  0  0  0
    1.7388    0.7737   -0.6435 C   0  0  0  0  0  3  0  0  0  0  0  0
    0.5164    1.1294   -1.2241 O   0  0  0  0  0  0  0  0  0  0  0  0
   -0.3418    0.0309   -1.4080 C   0  0  0  0  0  0  0  0  0  0  0  0
   -1.6200    0.4976   -2.0737 C   0  0  0  0  0  0  0  0  0  0  0  0
   -1.3968    1.0619   -3.4704 C   0  0  0  0  0  0  0  0  0  0  0  0
    2.3317    1.6814   -0.5387 H   0  0  0  0  0  0  0  0  0  0  0  0
    2.2895    0.0591   -1.2701 H   0  0  0  0  0  0  0  0  0  0  0  0
   -0.5652   -0.4358   -0.4373 H   0  0  0  0  0  0  0  0  0  0  0  0
    0.1537   -0.7304   -2.0313 H   0  0  0  0  0  0  0  0  0  0  0  0
   -2.0890    1.2504   -1.4349 H   0  0  0  0  0  0  0  0  0  0  0  0
   -2.3059   -0.3531   -2.1167 H   0  0  0  0  0  0  0  0  0  0  0  0
   -2.3382    1.3824   -3.9191 H   0  0  0  0  0  0  0  0  0  0  0  0
   -0.7253    1.9198   -3.4378 H   0  0  0  0  0  0  0  0  0  0  0  0
   -0.9509    0.3110   -4.1274 H   0  0  0  0  0  0  0  0  0  0  0  0
  1  2  1  0
  1  5  1  0
  1  6  1  0
  1  7  1  0
  2  3  1  0
  3  4  1  0
  3  8  1  0
  3  9  1  0
  4 10  1  0
  4 11  1  0
  4 12  1  0
 13 14  1  0
 13 18  1  0
 13 19  1  0
 14 15  1  0
 15 16  1  0
 15 20  1  0
 15 21  1  0
 16 17  1  0
 16 22  1  0
 16 23  1  0
 17 24  1  0
 17 25  1  0
 17 26  1  0
M  RAD  1  13   2
M  END
>  <reaction>  (6) 
rmg_rxn_689

>  <mol_properties>  (6) 
{"0": {"label": "*1", "atom_type": "Cs"}, "1": {"label": "*0", "atom_type": "S2s"}, "4": {"label": "*2", "atom_type": "H0"}, "12": {"label": "*3", "atom_type": "Cs"}, "13": {"label": "*4", "atom_type": "O2s"}}

>  <type>  (6) 
unop_2

>  <geom_source>  (6) 
Heuristics

$$$$

     RDKit          3D

 26 24  0  0  0  0  0  0  0  0999 V2000
    0.1018   -0.5592    1.7445 C   0  0  0  0  0  0  0  0  0  0  0  0
   -1.5413   -1.1380    2.2023 S   0  0  0  0  0  0  0  0  0  0  0  0
   -1.5413   -2.7782    1.4387 C   0  0  0  0  0  0  0  0  0  0  0  0
   -1.5413   -2.7782   -0.0817 C   0  0  0  0  0  0  0  0  0  0  0  0
    0.2166   -0.3835    0.4541 H   0  0  0  0  0  0  0  0  0  0  0  0
    0.8688   -1.2522    2.0926 H   0  0  0  0  0  0  0  0  0  0  0  0
    0.2482    0.4002    2.2389 H   0  0  0  0  0  0  0  0  0  0  0  0
   -2.4454   -3.2561    1.8196 H   0  0  0  0  0  0  0  0  0  0  0  0
   -0.6921   -3.3430    1.8299 H   0  0  0  0  0  0  0  0  0  0  0  0
   -0.6344   -2.3220   -0.4810 H   0  0  0  0  0  0  0  0  0  0  0  0
   -2.3973   -2.2249   -0.4694 H   0  0  0  0  0  0  0  0  0  0  0  0
   -1.5898   -3.8014   -0.4612 H   0  0  0  0  0  0  0  0  0  0  0  0
    0.3324   -0.2064   -0.8471 C   0  0  0  0  0  3  0  0  0  0  0  0
    1.2478    0.8083   -1.1478 O   0  0  0  0  0  0  0  0  0  0  0  0
    0.6517    2.0800   -1.2160 C   0  0  0  0  0  0  0  0  0  0  0  0
    1.7017    3.1085   -1.5822 C   0  0  0  0  0  0  0  0  0  0  0  0
    2.3069    2.8821   -2.9613 C   0  0  0  0  0  0  0  0  0  0  0  0
    0.8806   -1.1470   -0.8134 H   0  0  0  0  0  0  0  0  0  0  0  0
   -0.4533   -0.2794   -1.6113 H   0  0  0  0  0  0  0  0  0  0  0  0
    0.1931    2.3304   -0.2479 H   0  0  0  0  0  0  0  0  0  0  0  0
   -0.1531    2.0758   -1.9684 H   0  0  0  0  0  0  0  0  0  0  0  0
    2.4855    3.0905   -0.8206 H   0  0  0  0  0  0  0  0  0  0  0  0
    1.2353    4.0963   -1.5336 H   0  0  0  0  0  0  0  0  0  0  0  0
    3.0537    3.6432   -3.1917 H   0  0  0  0  0  0  0  0  0  0  0  0
    2.7873    1.9053   -3.0168 H   0  0  0  0  0  0  0  0  0  0  0  0
    1.5371    2.9224   -3.7360 H   0  0  0  0  0  0  0  0  0  0  0  0
  1  2  1  0
  1  5  1  0
  1  6  1  0
  1  7  1  0
  2  3  1  0
  3  4  1  0
  3  8  1  0
  3  9  1  0
  4 10  1  0
  4 11  1  0
  4 12  1  0
 13 14  1  0
 13 18  1  0
 13 19  1  0
 14 15  1  0
 15 16  1  0
 15 20  1  0
 15 21  1  0
 16 17  1  0
 16 22  1  0
 16 23  1  0
 17 24  1  0
 17 25  1  0
 17 26  1  0
M  RAD  1  13   2
M  END
>  <reaction>  (7) 
rmg_rxn_689

>  <mol_properties>  (7) 
{"0": {"label": "*1", "atom_type": "Cs"}, "1": {"label": "*0", "atom_type": "S2s"}, "4": {"label": "*2", "atom_type": "H0"}, "12": {"label": "*3", "atom_type": "Cs"}, "13": {"label": "*4", "atom_type": "O2s"}}

>  <type>  (7) 
unop_3

>  <geom_source>  (7) 
Heuristics

$$$$

     RDKit          3D

 26 23  0  0  0  0  0  0  0  0999 V2000
    0.4960    1.4352    1.7430 C   0  0  0  0  0  0  0  0  0  0  0  0
   -1.1471    0.8564    2.2008 S   0  0  0  0  0  0  0  0  0  0  0  0
   -1.1471   -0.7837    1.4372 C   0  0  0  0  0  3  0  0  0  0  0  0
   -1.1471   -0.7837   -0.0832 C   0  0  0  0  0  3  0  0  0  0  0  0
    0.6108    1.6109    0.4526 H   0  0  0  0  0  0  0  0  0  0  0  0
    1.2630    0.7422    2.0911 H   0  0  0  0  0  0  0  0  0  0  0  0
    0.6424    2.3946    2.2374 H   0  0  0  0  0  0  0  0  0  0  0  0
   -2.0512   -1.2617    1.8181 H   0  0  0  0  0  0  0  0  0  0  0  0
   -0.2979   -1.3486    1.8284 H   0  0  0  0  0  0  0  0  0  0  0  0
   -0.2401   -0.3276   -0.4825 H   0  0  0  0  0  0  0  0  0  0  0  0
   -2.0031   -0.2305   -0.4709 H   0  0  0  0  0  0  0  0  0  0  0  0
   -1.1956   -1.8070   -0.4627 H   0  0  0  0  0  0  0  0  0  0  0  0
    0.7266    1.7880   -0.8486 C   0  0  0  0  0  3  0  0  0  0  0  0
    0.4986    0.5994   -1.5509 O   0  0  0  0  0  0  0  0  0  0  0  0
    0.8393   -0.5468   -0.8112 C   0  0  0  0  0  0  0  0  0  0  0  0
    0.5986   -1.7805   -1.6565 C   0  0  0  0  0  0  0  0  0  0  0  0
    1.4780   -1.8369   -2.8986 C   0  0  0  0  0  0  0  0  0  0  0  0
    0.4342    2.6150   -1.4943 H   0  0  0  0  0  0  0  0  0  0  0  0
    1.7863    1.9016   -0.5824 H   0  0  0  0  0  0  0  0  0  0  0  0
    0.2376   -0.5907    0.1086 H   0  0  0  0  0  0  0  0  0  0  0  0
    1.8973   -0.4957   -0.5085 H   0  0  0  0  0  0  0  0  0  0  0  0
   -0.4563   -1.8052   -1.9418 H   0  0  0  0  0  0  0  0  0  0  0  0
    0.7776   -2.6578   -1.0287 H   0  0  0  0  0  0  0  0  0  0  0  0
    1.2804   -2.7396   -3.4785 H   0  0  0  0  0  0  0  0  0  0  0  0
    1.2975   -0.9738   -3.5393 H   0  0  0  0  0  0  0  0  0  0  0  0
    2.5365   -1.8381   -2.6269 H   0  0  0  0  0  0  0  0  0  0  0  0
  1  2  1  0
  1  5  1  0
  1  6  1  0
  1  7  1  0
  2  3  1  0
  3  8  1  0
  3  9  1  0
  4 10  1  0
  4 11  1  0
  4 12  1  0
 13 14  1  0
 13 18  1  0
 13 19  1  0
 14 15  1  0
 15 16  1  0
 15 20  1  0
 15 21  1  0
 16 17  1  0
 16 22  1  0
 16 23  1  0
 17 24  1  0
 17 25  1  0
 17 26  1  0
M  RAD  3   3   2   4   2  13   2
M  END
>  <reaction>  (8) 
rmg_rxn_689

>  <mol_properties>  (8) 
{"0": {"label": "*1", "atom_type": "Cs"}, "1": {"label": "*0", "atom_type": "S2s"}, "4": {"label": "*2", "atom_type": "H0"}, "12": {"label": "*3", "atom_type": "Cs"}, "13": {"label": "*4", "atom_type": "O2s"}}

>  <type>  (8) 
unop_4

>  <geom_source>  (8) 
Heuristics

$$$$

     RDKit          3D

 26 24  0  0  0  0  0  0  0  0999 V2000
   -0.3207   -0.2601    1.5972 C   0  0  0  0  0  0  0  0  0  0  0  0
   -1.9639   -0.8389    2.0549 S   0  0  0  0  0  0  0  0  0  0  0  0
   -1.9639   -2.4791    1.2913 C   0  0  0  0  0  0  0  0  0  0  0  0
   -1.9639   -2.4791   -0.2291 C   0  0  0  0  0  0  0  0  0  0  0  0
   -0.2059   -0.0844    0.3067 H   0  0  0  0  0  0  0  0  0  0  0  0
    0.4463   -0.9531    1.9453 H   0  0  0  0  0  0  0  0  0  0  0  0
   -0.1743    0.6993    2.0915 H   0  0  0  0  0  0  0  0  0  0  0  0
   -2.8679   -2.9570    1.6722 H   0  0  0  0  0  0  0  0  0  0  0  0
   -1.1146   -3.0439    1.6826 H   0  0  0  0  0  0  0  0  0  0  0  0
   -1.0569   -2.0229   -0.6284 H   0  0  0  0  0  0  0  0  0  0  0  0
   -2.8198   -1.9258   -0.6168 H   0  0  0  0  0  0  0  0  0  0  0  0
   -2.0123   -3.5023   -0.6086 H   0  0  0  0  0  0  0  0  0  0  0  0
   -0.0901    0.0927   -0.9945 C   0  0  0  0  0  3  0  0  0  0  0  0
    1.1893    0.5422   -1.3397 O   0  0  0  0  0  0  0  0  0  0  0  0
    1.5153    1.7737   -0.7446 C   0  0  0  0  0  0  0  0  0  0  0  0
    2.8948    2.2027   -1.2002 C   0  0  0  0  0  0  0  0  0  0  0  0
    2.9791    2.4547   -2.6998 C   0  0  0  0  0  0  0  0  0  0  0  0
   -0.2523   -0.8605   -1.4960 H   0  0  0  0  0  0  0  0  0  0  0  0
   -0.8660    0.8007   -1.3158 H   0  0  0  0  0  0  0  0  0  0  0  0
    1.4874    1.6786    0.3510 H   0  0  0  0  0  0  0  0  0  0  0  0
    0.7697    2.5342   -1.0265 H   0  0  0  0  0  0  0  0  0  0  0  0
    3.6121    1.4314   -0.9080 H   0  0  0  0  0  0  0  0  0  0  0  0
    3.1629    3.1093   -0.6506 H   0  0  0  0  0  0  0  0  0  0  0  0
    3.9839    2.7658   -2.9894 H   0  0  0  0  0  0  0  0  0  0  0  0
    2.7274    1.5530   -3.2579 H   0  0  0  0  0  0  0  0  0  0  0  0
    2.2842    3.2420   -3.0023 H   0  0  0  0  0  0  0  0  0  0  0  0
  1  2  1  0
  1  5  1  0
  1  6  1  0
  1  7  1  0
  2  3  1  0
  3  4  1  0
  3  8  1  0
  3  9  1  0
  4 10  1  0
  4 11  1  0
  4 12  1  0
 13 14  1  0
 13 18  1  0
 13 19  1  0
 14 15  1  0
 15 16  1  0
 15 20  1  0
 15 21  1  0
 16 17  1  0
 16 22  1  0
 16 23  1  0
 17 24  1  0
 17 25  1  0
 17 26  1  0
M  RAD  1  13   2
M  END
>  <reaction>  (9) 
rmg_rxn_689

>  <mol_properties>  (9) 
{"0": {"label": "*1", "atom_type": "Cs"}, "1": {"label": "*0", "atom_type": "S2s"}, "4": {"label": "*2", "atom_type": "H0"}, "12": {"label": "*3", "atom_type": "Cs"}, "13": {"label": "*4", "atom_type": "O2s"}}

>  <type>  (9) 
unop_5

>  <geom_source>  (9) 
Heuristics

$$$$

     RDKit          3D

 26 24  0  0  0  0  0  0  0  0999 V2000
   -0.0146    1.3025    1.6478 C   0  0  0  0  0  0  0  0  0  0  0  0
   -1.6577    0.7236    2.1056 S   0  0  0  0  0  0  0  0  0  0  0  0
   -1.6577   -0.9165    1.3419 C   0  0  0  0  0  0  0  0  0  0  0  0
   -1.6577   -0.9165   -0.1784 C   0  0  0  0  0  0  0  0  0  0  0  0
    0.1002    1.4781    0.3574 H   0  0  0  0  0  0  0  0  0  0  0  0
    0.7524    0.6094    1.9959 H   0  0  0  0  0  0  0  0  0  0  0  0
    0.1318    2.2618    2.1421 H   0  0  0  0  0  0  0  0  0  0  0  0
   -2.5618   -1.3945    1.7229 H   0  0  0  0  0  0  0  0  0  0  0  0
   -0.8085   -1.4814    1.7332 H   0  0  0  0  0  0  0  0  0  0  0  0
   -0.7508   -0.4603   -0.5777 H   0  0  0  0  0  0  0  0  0  0  0  0
   -2.5137   -0.3633   -0.5661 H   0  0  0  0  0  0  0  0  0  0  0  0
   -1.7062   -1.9397   -0.5580 H   0  0  0  0  0  0  0  0  0  0  0  0
    0.2160    1.6552   -0.9438 C   0  0  0  0  0  3  0  0  0  0  0  0
    0.6584    0.4918   -1.5831 O   0  0  0  0  0  0  0  0  0  0  0  0
    1.3135   -0.3959   -0.7113 C   0  0  0  0  0  0  0  0  0  0  0  0
    1.7909   -1.6044   -1.4898 C   0  0  0  0  0  0  0  0  0  0  0  0
    2.8250   -1.2616   -2.5538 C   0  0  0  0  0  0  0  0  0  0  0  0
   -0.2767    2.2761   -1.6909 H   0  0  0  0  0  0  0  0  0  0  0  0
    1.0526    2.2184   -0.5084 H   0  0  0  0  0  0  0  0  0  0  0  0
    0.6282   -0.7051    0.0918 H   0  0  0  0  0  0  0  0  0  0  0  0
    2.1686    0.1102   -0.2355 H   0  0  0  0  0  0  0  0  0  0  0  0
    0.9238   -2.0855   -1.9498 H   0  0  0  0  0  0  0  0  0  0  0  0
    2.2085   -2.3199   -0.7760 H   0  0  0  0  0  0  0  0  0  0  0  0
    3.1481   -2.1556   -3.0893 H   0  0  0  0  0  0  0  0  0  0  0  0
    2.4147   -0.5594   -3.2794 H   0  0  0  0  0  0  0  0  0  0  0  0
    3.7090   -0.8022   -2.1045 H   0  0  0  0  0  0  0  0  0  0  0  0
  1  2  1  0
  1  5  1  0
  1  6  1  0
  1  7  1  0
  2  3  1  0
  3  4  1  0
  3  8  1  0
  3  9  1  0
  4 10  1  0
  4 11  1  0
  4 12  1  0
 13 14  1  0
 13 18  1  0
 13 19  1  0
 14 15  1  0
 15 16  1  0
 15 20  1  0
 15 21  1  0
 16 17  1  0
 16 22  1  0
 16 23  1  0
 17 24  1  0
 17 25  1  0
 17 26  1  0
M  RAD  1  13   2
M  END
>  <reaction>  (10) 
rmg_rxn_689

>  <mol_properties>  (10) 
{"0": {"label": "*1", "atom_type": "Cs"}, "1": {"label": "*0", "atom_type": "S2s"}, "4": {"label": "*2", "atom_type": "H0"}, "12": {"label": "*3", "atom_type": "Cs"}, "13": {"label": "*4", "atom_type": "O2s"}}

>  <type>  (10) 
unop_6

>  <geom_source>  (10) 
Heuristics

$$$$

     RDKit          3D

 26 24  0  0  0  0  0  0  0  0999 V2000
   -0.4086    0.9102    1.5573 C   0  0  0  0  0  0  0  0  0  0  0  0
   -2.0517    0.3313    2.0151 S   0  0  0  0  0  0  0  0  0  0  0  0
   -2.0517   -1.3088    1.2515 C   0  0  0  0  0  0  0  0  0  0  0  0
   -2.0517   -1.3088   -0.2689 C   0  0  0  0  0  0  0  0  0  0  0  0
   -0.2938    1.0858    0.2669 H   0  0  0  0  0  0  0  0  0  0  0  0
    0.3584    0.2171    1.9054 H   0  0  0  0  0  0  0  0  0  0  0  0
   -0.2622    1.8695    2.0517 H   0  0  0  0  0  0  0  0  0  0  0  0
   -2.9558   -1.7868    1.6324 H   0  0  0  0  0  0  0  0  0  0  0  0
   -1.2025   -1.8737    1.6427 H   0  0  0  0  0  0  0  0  0  0  0  0
   -1.1447   -0.8526   -0.6682 H   0  0  0  0  0  0  0  0  0  0  0  0
   -2.9077   -0.7556   -0.6566 H   0  0  0  0  0  0  0  0  0  0  0  0
   -2.1002   -2.3320   -0.6484 H   0  0  0  0  0  0  0  0  0  0  0  0
   -0.1780    1.2630   -1.0343 C   0  0  0  0  0  3  0  0  0  0  0  0
    0.8283    0.4549   -1.5750 O   0  0  0  0  0  0  0  0  0  0  0  0
    1.7578    0.0217   -0.6130 C   0  0  0  0  0  0  0  0  0  0  0  0
    2.8282   -0.8112   -1.2875 C   0  0  0  0  0  0  0  0  0  0  0  0
    3.6481   -0.0256   -2.3024 C   0  0  0  0  0  0  0  0  0  0  0  0
   -0.8466    1.5462   -1.8461 H   0  0  0  0  0  0  0  0  0  0  0  0
    0.2369    2.1733   -0.5806 H   0  0  0  0  0  0  0  0  0  0  0  0
    1.2465   -0.5684    0.1619 H   0  0  0  0  0  0  0  0  0  0  0  0
    2.2133    0.8923   -0.1146 H   0  0  0  0  0  0  0  0  0  0  0  0
    2.3489   -1.6655   -1.7725 H   0  0  0  0  0  0  0  0  0  0  0  0
    3.4806   -1.2145   -0.5080 H   0  0  0  0  0  0  0  0  0  0  0  0
    4.4104   -0.6556   -2.7630 H   0  0  0  0  0  0  0  0  0  0  0  0
    3.0094    0.3694   -3.0924 H   0  0  0  0  0  0  0  0  0  0  0  0
    4.1536    0.8180   -1.8257 H   0  0  0  0  0  0  0  0  0  0  0  0
  1  2  1  0
  1  5  1  0
  1  6  1  0
  1  7  1  0
  2  3  1  0
  3  4  1  0
  3  8  1  0
  3  9  1  0
  4 10  1  0
  4 11  1  0
  4 12  1  0
 13 14  1  0
 13 18  1  0
 13 19  1  0
 14 15  1  0
 15 16  1  0
 15 20  1  0
 15 21  1  0
 16 17  1  0
 16 22  1  0
 16 23  1  0
 17 24  1  0
 17 25  1  0
 17 26  1  0
M  RAD  1  13   2
M  END
>  <reaction>  (11) 
rmg_rxn_689

>  <mol_properties>  (11) 
{"0": {"label": "*1", "atom_type": "Cs"}, "1": {"label": "*0", "atom_type": "S2s"}, "4": {"label": "*2", "atom_type": "H0"}, "12": {"label": "*3", "atom_type": "Cs"}, "13": {"label": "*4", "atom_type": "O2s"}}

>  <type>  (11) 
unop_7

>  <geom_source>  (11) 
Heuristics

$$$$

     RDKit          3D

 26 24  0  0  0  0  0  0  0  0999 V2000
    1.0347   -0.4764    1.8869 C   0  0  0  0  0  0  0  0  0  0  0  0
   -0.6085   -1.0552    2.3447 S   0  0  0  0  0  0  0  0  0  0  0  0
   -0.6085   -2.6953    1.5810 C   0  0  0  0  0  0  0  0  0  0  0  0
   -0.6085   -2.6953    0.0606 C   0  0  0  0  0  0  0  0  0  0  0  0
    1.1495   -0.3007    0.5965 H   0  0  0  0  0  0  0  0  0  0  0  0
    1.8017   -1.1694    2.2350 H   0  0  0  0  0  0  0  0  0  0  0  0
    1.1811    0.4830    2.3812 H   0  0  0  0  0  0  0  0  0  0  0  0
   -1.5125   -3.1733    1.9619 H   0  0  0  0  0  0  0  0  0  0  0  0
    0.2408   -3.2602    1.9723 H   0  0  0  0  0  0  0  0  0  0  0  0
    0.2985   -2.2392   -0.3387 H   0  0  0  0  0  0  0  0  0  0  0  0
   -1.4644   -2.1421   -0.3271 H   0  0  0  0  0  0  0  0  0  0  0  0
   -0.6569   -3.7186   -0.3189 H   0  0  0  0  0  0  0  0  0  0  0  0
    1.2653   -0.1236   -0.7047 C   0  0  0  0  0  3  0  0  0  0  0  0
    0.9131    1.1779   -1.0792 O   0  0  0  0  0  0  0  0  0  0  0  0
   -0.3933    1.2648   -1.5918 C   0  0  0  0  0  0  0  0  0  0  0  0
   -0.6767    2.6941   -2.0060 C   0  0  0  0  0  0  0  0  0  0  0  0
    0.2229    3.1806   -3.1344 C   0  0  0  0  0  0  0  0  0  0  0  0
    2.2841   -0.0930   -0.3208 H   0  0  0  0  0  0  0  0  0  0  0  0
    1.2274   -0.8127   -1.5593 H   0  0  0  0  0  0  0  0  0  0  0  0
   -1.1164    0.9374   -0.8303 H   0  0  0  0  0  0  0  0  0  0  0  0
   -0.5010    0.5913   -2.4570 H   0  0  0  0  0  0  0  0  0  0  0  0
   -0.5626    3.3382   -1.1303 H   0  0  0  0  0  0  0  0  0  0  0  0
   -1.7258    2.7540   -2.3088 H   0  0  0  0  0  0  0  0  0  0  0  0
   -0.0132    4.2099   -3.4083 H   0  0  0  0  0  0  0  0  0  0  0  0
    1.2711    3.1385   -2.8383 H   0  0  0  0  0  0  0  0  0  0  0  0
    0.1004    2.5601   -4.0256 H   0  0  0  0  0  0  0  0  0  0  0  0
  1  2  1  0
  1  5  1  0
  1  6  1  0
  1  7  1  0
  2  3  1  0
  3  4  1  0
  3  8  1  0
  3  9  1  0
  4 10  1  0
  4 11  1  0
  4 12  1  0
 13 14  1  0
 13 18  1  0
 13 19  1  0
 14 15  1  0
 15 16  1  0
 15 20  1  0
 15 21  1  0
 16 17  1  0
 16 22  1  0
 16 23  1  0
 17 24  1  0
 17 25  1  0
 17 26  1  0
M  RAD  1  13   2
M  END
>  <reaction>  (12) 
rmg_rxn_689

>  <mol_properties>  (12) 
{"0": {"label": "*1", "atom_type": "Cs"}, "1": {"label": "*0", "atom_type": "S2s"}, "4": {"label": "*2", "atom_type": "H0"}, "12": {"label": "*3", "atom_type": "Cs"}, "13": {"label": "*4", "atom_type": "O2s"}}

>  <type>  (12) 
unop_8

>  <geom_source>  (12) 
Heuristics

$$$$

     RDKit          3D

 26 24  0  0  0  0  0  0  0  0999 V2000
    1.3847   -0.0992    1.9345 C   0  0  0  0  0  0  0  0  0  0  0  0
   -0.2584   -0.6780    2.3923 S   0  0  0  0  0  0  0  0  0  0  0  0
   -0.2584   -2.3181    1.6286 C   0  0  0  0  0  0  0  0  0  0  0  0
   -0.2584   -2.3181    0.1083 C   0  0  0  0  0  0  0  0  0  0  0  0
    1.4996    0.0765    0.6441 H   0  0  0  0  0  0  0  0  0  0  0  0
    2.1517   -0.7922    2.2826 H   0  0  0  0  0  0  0  0  0  0  0  0
    1.5312    0.8602    2.4288 H   0  0  0  0  0  0  0  0  0  0  0  0
   -1.1624   -2.7961    2.0095 H   0  0  0  0  0  0  0  0  0  0  0  0
    0.5908   -2.8830    2.0199 H   0  0  0  0  0  0  0  0  0  0  0  0
    0.6486   -1.8619   -0.2910 H   0  0  0  0  0  0  0  0  0  0  0  0
   -1.1144   -1.7649   -0.2795 H   0  0  0  0  0  0  0  0  0  0  0  0
   -0.3068   -3.3414   -0.2713 H   0  0  0  0  0  0  0  0  0  0  0  0
    1.6154    0.2536   -0.6571 C   0  0  0  0  0  3  0  0  0  0  0  0
    0.6993    1.1997   -1.1301 O   0  0  0  0  0  0  0  0  0  0  0  0
   -0.5081    0.6233   -1.5626 C   0  0  0  0  0  0  0  0  0  0  0  0
   -1.4224    1.7089   -2.0917 C   0  0  0  0  0  0  0  0  0  0  0  0
   -0.8630    2.4188   -3.3175 C   0  0  0  0  0  0  0  0  0  0  0  0
    2.5115    0.7883   -0.3450 H   0  0  0  0  0  0  0  0  0  0  0  0
    1.8863   -0.4700   -1.4379 H   0  0  0  0  0  0  0  0  0  0  0  0
   -0.9890    0.0922   -0.7278 H   0  0  0  0  0  0  0  0  0  0  0  0
   -0.3065   -0.1196   -2.3508 H   0  0  0  0  0  0  0  0  0  0  0  0
   -1.6046    2.4299   -1.2907 H   0  0  0  0  0  0  0  0  0  0  0  0
   -2.3859    1.2498   -2.3299 H   0  0  0  0  0  0  0  0  0  0  0  0
   -1.5495    3.1889   -3.6722 H   0  0  0  0  0  0  0  0  0  0  0  0
    0.0913    2.8925   -3.0876 H   0  0  0  0  0  0  0  0  0  0  0  0
   -0.6992    1.7130   -4.1356 H   0  0  0  0  0  0  0  0  0  0  0  0
  1  2  1  0
  1  5  1  0
  1  6  1  0
  1  7  1  0
  2  3  1  0
  3  4  1  0
  3  8  1  0
  3  9  1  0
  4 10  1  0
  4 11  1  0
  4 12  1  0
 13 14  1  0
 13 18  1  0
 13 19  1  0
 14 15  1  0
 15 16  1  0
 15 20  1  0
 15 21  1  0
 16 17  1  0
 16 22  1  0
 16 23  1  0
 17 24  1  0
 17 25  1  0
 17 26  1  0
M  RAD  1  13   2
M  END
>  <reaction>  (13) 
rmg_rxn_689

>  <mol_properties>  (13) 
{"0": {"label": "*1", "atom_type": "Cs"}, "1": {"label": "*0", "atom_type": "S2s"}, "4": {"label": "*2", "atom_type": "H0"}, "12": {"label": "*3", "atom_type": "Cs"}, "13": {"label": "*4", "atom_type": "O2s"}}

>  <type>  (13) 
unop_9

>  <geom_source>  (13) 
Heuristics

$$$$

     RDKit          3D

 26 24  0  0  0  0  0  0  0  0999 V2000
   -0.5457    0.3229    1.5111 C   0  0  0  0  0  0  0  0  0  0  0  0
   -2.1888   -0.2559    1.9689 S   0  0  0  0  0  0  0  0  0  0  0  0
   -2.1888   -1.8960    1.2052 C   0  0  0  0  0  0  0  0  0  0  0  0
   -2.1888   -1.8960   -0.3151 C   0  0  0  0  0  0  0  0  0  0  0  0
   -0.4308    0.4986    0.2207 H   0  0  0  0  0  0  0  0  0  0  0  0
    0.2214   -0.3701    1.8592 H   0  0  0  0  0  0  0  0  0  0  0  0
   -0.3992    1.2823    2.0054 H   0  0  0  0  0  0  0  0  0  0  0  0
   -3.0928   -2.3740    1.5862 H   0  0  0  0  0  0  0  0  0  0  0  0
   -1.3395   -2.4609    1.5965 H   0  0  0  0  0  0  0  0  0  0  0  0
   -1.2818   -1.4399   -0.7144 H   0  0  0  0  0  0  0  0  0  0  0  0
   -3.0447   -1.3428   -0.7029 H   0  0  0  0  0  0  0  0  0  0  0  0
   -2.2372   -2.9193   -0.6947 H   0  0  0  0  0  0  0  0  0  0  0  0
   -0.3150    0.6757   -1.0805 C   0  0  0  0  0  3  0  0  0  0  0  0
    0.9977    0.4580   -1.5136 O   0  0  0  0  0  0  0  0  0  0  0  0
    1.9572    0.8024   -0.5453 C   0  0  0  0  0  0  0  0  0  0  0  0
    3.3446    0.5728   -1.1084 C   0  0  0  0  0  0  0  0  0  0  0  0
    3.6587    1.4579   -2.3072 C   0  0  0  0  0  0  0  0  0  0  0  0
   -0.9831    0.3810   -1.8887 H   0  0  0  0  0  0  0  0  0  0  0  0
   -0.4901    1.7335   -0.8417 H   0  0  0  0  0  0  0  0  0  0  0  0
    1.8079    0.1971    0.3610 H   0  0  0  0  0  0  0  0  0  0  0  0
    1.8353    1.8588   -0.2574 H   0  0  0  0  0  0  0  0  0  0  0  0
    3.4368   -0.4806   -1.3849 H   0  0  0  0  0  0  0  0  0  0  0  0
    4.0663    0.7545   -0.3072 H   0  0  0  0  0  0  0  0  0  0  0  0
    4.6657    1.2683   -2.6817 H   0  0  0  0  0  0  0  0  0  0  0  0
    2.9535    1.2750   -3.1180 H   0  0  0  0  0  0  0  0  0  0  0  0
    3.5946    2.5153   -2.0385 H   0  0  0  0  0  0  0  0  0  0  0  0
  1  2  1  0
  1  5  1  0
  1  6  1  0
  1  7  1  0
  2  3  1  0
  3  4  1  0
  3  8  1  0
  3  9  1  0
  4 10  1  0
  4 11  1  0
  4 12  1  0
 13 14  1  0
 13 18  1  0
 13 19  1  0
 14 15  1  0
 15 16  1  0
 15 20  1  0
 15 21  1  0
 16 17  1  0
 16 22  1  0
 16 23  1  0
 17 24  1  0
 17 25  1  0
 17 26  1  0
M  RAD  1  13   2
M  END
>  <reaction>  (14) 
rmg_rxn_689

>  <mol_properties>  (14) 
{"0": {"label": "*1", "atom_type": "Cs"}, "1": {"label": "*0", "atom_type": "S2s"}, "4": {"label": "*2", "atom_type": "H0"}, "12": {"label": "*3", "atom_type": "Cs"}, "13": {"label": "*4", "atom_type": "O2s"}}

>  <type>  (14) 
unop_10

>  <geom_source>  (14) 
Heuristics

$$$$

     RDKit          3D

 26 23  0  0  0  0  0  0  0  0999 V2000
    1.3616    0.9364    1.9097 C   0  0  0  0  0  0  0  0  0  0  0  0
   -0.2815    0.3575    2.3675 S   0  0  0  0  0  0  0  0  0  0  0  0
   -0.2815   -1.2826    1.6039 C   0  0  0  0  0  3  0  0  0  0  0  0
   -0.2815   -1.2826    0.0835 C   0  0  0  0  0  0  0  0  0  0  0  0
    1.4764    1.1120    0.6193 H   0  0  0  0  0  0  0  0  0  0  0  0
    2.1286    0.2433    2.2578 H   0  0  0  0  0  0  0  0  0  0  0  0
    1.5081    1.8957    2.4041 H   0  0  0  0  0  0  0  0  0  0  0  0
   -1.1856   -1.7606    1.9848 H   0  0  0  0  0  0  0  0  0  0  0  0
    0.5677   -1.8475    1.9951 H   0  0  0  0  0  0  0  0  0  0  0  0
    0.6255   -0.8264   -0.3158 H   0  0  0  0  0  0  0  0  0  0  0  0
   -1.1375   -0.7294   -0.3042 H   0  0  0  0  0  0  0  0  0  0  0  0
   -0.3300   -2.3058   -0.2960 H   0  0  0  0  0  0  0  0  0  0  0  0
    1.5922    1.2891   -0.6819 C   0  0  0  0  0  3  0  0  0  0  0  0
    0.4031    0.9777   -1.3504 O   0  0  0  0  0  3  0  0  0  0  0  0
    0.0079   -0.3595   -1.1691 C   0  0  0  0  0  0  0  0  0  0  0  0
   -1.2611   -0.6196   -1.9543 C   0  0  0  0  0  0  0  0  0  0  0  0
   -1.0782   -0.4628   -3.4580 C   0  0  0  0  0  0  0  0  0  0  0  0
    1.8163    2.3371   -0.8766 H   0  0  0  0  0  0  0  0  0  0  0  0
    2.4286    0.6736   -1.0399 H   0  0  0  0  0  0  0  0  0  0  0  0
   -0.1568   -0.5591   -0.0999 H   0  0  0  0  0  0  0  0  0  0  0  0
    0.8088   -1.0354   -1.5090 H   0  0  0  0  0  0  0  0  0  0  0  0
   -2.0362    0.0632   -1.5969 H   0  0  0  0  0  0  0  0  0  0  0  0
   -1.5990   -1.6329   -1.7200 H   0  0  0  0  0  0  0  0  0  0  0  0
   -2.0099   -0.6622   -3.9894 H   0  0  0  0  0  0  0  0  0  0  0  0
   -0.7548    0.5485   -3.7045 H   0  0  0  0  0  0  0  0  0  0  0  0
   -0.3229   -1.1578   -3.8333 H   0  0  0  0  0  0  0  0  0  0  0  0
  1  2  1  0
  1  5  1  0
  1  6  1  0
  1  7  1  0
  2  3  1  0
  3  8  1  0
  3  9  1  0
  4 10  1  0
  4 11  1  0
  4 12  1  0
  4 20  1  0
 13 14  1  0
 13 18  1  0
 13 19  1  0
 14 15  2  3
 15 16  1  0
 15 21  1  0
 16 17  1  0
 16 22  1  0
 16 23  1  0
 17 24  1  0
 17 25  1  0
 17 26  1  0
M  CHG  2  13  -1  14   1
M  RAD  1   3   2
M  END
>  <reaction>  (15) 
rmg_rxn_689

>  <mol_properties>  (15) 
{"0": {"label": "*1", "atom_type": "Cs"}, "1": {"label": "*0", "atom_type": "S2s"}, "4": {"label": "*2", "atom_type": "H0"}, "12": {"label": "*3", "atom_type": "Cs"}, "13": {"label": "*4", "atom_type": "O2s"}}

>  <type>  (15) 
unop_11

>  <geom_source>  (15) 
Heuristics

$$$$

     RDKit          3D

 26 24  0  0  0  0  0  0  0  0999 V2000
    1.9778   -0.5546    0.8360 S   0  0  0  0  0  0  0  0  0  0  0  0
   -1.4245   -0.6544   -0.2940 O   0  0  0  0  0  0  0  0  0  0  0  0
   -3.5721   -0.2467    0.7089 C   0  0  0  0  0  0  0  0  0  0  0  0
   -2.2154    0.3415    0.3182 C   0  0  0  0  0  0  0  0  0  0  0  0
    3.7839   -0.3047    0.7025 C   0  0  0  0  0  0  0  0  0  0  0  0
   -4.3843   -0.6665   -0.5147 C   0  0  0  0  0  0  0  0  0  0  0  0
    4.2228   -0.2981   -0.7560 C   0  0  0  0  0  0  0  0  0  0  0  0
   -0.2070   -0.0824   -0.7104 C   0  0  0  0  0  3  0  0  0  0  0  0
    1.5311    1.2048    0.6745 C   0  0  0  0  0  0  0  0  0  0  0  0
   -3.4192   -1.1272    1.3701 H   0  0  0  0  0  0  0  0  0  0  0  0
   -4.1475    0.5158    1.2773 H   0  0  0  0  0  0  0  0  0  0  0  0
   -1.7234    0.7081    1.2477 H   0  0  0  0  0  0  0  0  0  0  0  0
   -2.3826    1.2052   -0.3671 H   0  0  0  0  0  0  0  0  0  0  0  0
    4.2880   -1.1463    1.2226 H   0  0  0  0  0  0  0  0  0  0  0  0
    4.0957    0.6383    1.1999 H   0  0  0  0  0  0  0  0  0  0  0  0
   -3.8522   -1.4600   -1.0812 H   0  0  0  0  0  0  0  0  0  0  0  0
   -4.5590    0.2056   -1.1802 H   0  0  0  0  0  0  0  0  0  0  0  0
   -5.3676   -1.0655   -0.1877 H   0  0  0  0  0  0  0  0  0  0  0  0
    3.9217   -1.2461   -1.2501 H   0  0  0  0  0  0  0  0  0  0  0  0
    3.7676    0.5570   -1.2967 H   0  0  0  0  0  0  0  0  0  0  0  0
    5.3277   -0.2029   -0.8108 H   0  0  0  0  0  0  0  0  0  0  0  0
    0.4493   -0.8881   -1.0987 H   0  0  0  0  0  0  0  0  0  0  0  0
   -0.3729    0.6466   -1.5341 H   0  0  0  0  0  0  0  0  0  0  0  0
    0.4380    0.5147    0.3269 H   0  0  0  0  0  0  0  0  0  0  0  0
    1.8540    1.6080   -0.3067 H   0  0  0  0  0  0  0  0  0  0  0  0
    1.9700    1.7978    1.5036 H   0  0  0  0  0  0  0  0  0  0  0  0
  1  9  1  0
  1  5  1  0
  2  8  1  0
  2  4  1  0
  3  6  1  0
  3  4  1  0
  3 10  1  0
  3 11  1  0
  4 12  1  0
  4 13  1  0
  5  7  1  0
  5 14  1  0
  5 15  1  0
  6 16  1  0
  6 17  1  0
  6 18  1  0
  7 19  1  0
  7 20  1  0
  7 21  1  0
  8 22  1  0
  8 23  1  0
  9 24  1  0
  9 25  1  0
  9 26  1  0
M  RAD  1   8   2
M  END
>  <reaction>  (16) 
rmg_rxn_689

>  <mol_properties>  (16) 
{"0": {"label": "*1", "atom_type": "Cs"}, "1": {"label": "*0", "atom_type": "S2s"}, "4": {"label": "*2", "atom_type": "H0"}, "12": {"label": "*3", "atom_type": "Cs"}, "13": {"label": "*4", "atom_type": "O2s"}}

>  <type>  (16) 
unop_12

>  <geom_source>  (16) 
AutoTST

$$$$

     RDKit          3D

 26 24  0  0  0  0  0  0  0  0999 V2000
    1.5082    0.4209    1.9482 C   0  0  0  0  0  0  0  0  0  0  0  0
   -0.1349   -0.1579    2.4059 S   0  0  0  0  0  0  0  0  0  0  0  0
   -0.1349   -1.7980    1.6423 C   0  0  0  0  0  0  0  0  0  0  0  0
   -0.1349   -1.7980    0.1219 C   0  0  0  0  0  0  0  0  0  0  0  0
    1.6230    0.5966    0.6577 H   0  0  0  0  0  0  0  0  0  0  0  0
    2.2752   -0.2721    2.2963 H   0  0  0  0  0  0  0  0  0  0  0  0
    1.6547    1.3803    2.4425 H   0  0  0  0  0  0  0  0  0  0  0  0
   -1.0390   -2.2760    2.0232 H   0  0  0  0  0  0  0  0  0  0  0  0
    0.7143   -2.3629    2.0335 H   0  0  0  0  0  0  0  0  0  0  0  0
    0.7721   -1.3419   -0.2774 H   0  0  0  0  0  0  0  0  0  0  0  0
   -0.9909   -1.2448   -0.2658 H   0  0  0  0  0  0  0  0  0  0  0  0
   -0.1834   -2.8213   -0.2576 H   0  0  0  0  0  0  0  0  0  0  0  0
    1.7388    0.7737   -0.6435 C   0  0  0  0  0  3  0  0  0  0  0  0
    0.5164    1.1294   -1.2241 O   0  0  0  0  0  0  0  0  0  0  0  0
   -0.3418    0.0309   -1.4080 C   0  0  0  0  0  0  0  0  0  0  0  0
   -1.6200    0.4976   -2.0737 C   0  0  0  0  0  0  0  0  0  0  0  0
   -1.3968    1.0619   -3.4704 C   0  0  0  0  0  0  0  0  0  0  0  0
    2.3317    1.6814   -0.5387 H   0  0  0  0  0  0  0  0  0  0  0  0
    2.2895    0.0591   -1.2701 H   0  0  0  0  0  0  0  0  0  0  0  0
   -0.5652   -0.4358   -0.4373 H   0  0  0  0  0  0  0  0  0  0  0  0
    0.1537   -0.7304   -2.0313 H   0  0  0  0  0  0  0  0  0  0  0  0
   -2.0890    1.2504   -1.4349 H   0  0  0  0  0  0  0  0  0  0  0  0
   -2.3059   -0.3531   -2.1167 H   0  0  0  0  0  0  0  0  0  0  0  0
   -2.3382    1.3824   -3.9191 H   0  0  0  0  0  0  0  0  0  0  0  0
   -0.7253    1.9198   -3.4378 H   0  0  0  0  0  0  0  0  0  0  0  0
   -0.9509    0.3110   -4.1274 H   0  0  0  0  0  0  0  0  0  0  0  0
  1  2  1  0
  1  5  1  0
  1  6  1  0
  1  7  1  0
  2  3  1  0
  3  4  1  0
  3  8  1  0
  3  9  1  0
  4 10  1  0
  4 11  1  0
  4 12  1  0
 13 14  1  0
 13 18  1  0
 13 19  1  0
 14 15  1  0
 15 16  1  0
 15 20  1  0
 15 21  1  0
 16 17  1  0
 16 22  1  0
 16 23  1  0
 17 24  1  0
 17 25  1  0
 17 26  1  0
M  RAD  1  13   2
M  END
>  <reaction>  (17) 
rmg_rxn_689

>  <mol_properties>  (17) 
{"0": {"label": "*1", "atom_type": "Cs"}, "1": {"label": "*0", "atom_type": "S2s"}, "4": {"label": "*2", "atom_type": "H0"}, "12": {"label": "*3", "atom_type": "Cs"}, "13": {"label": "*4", "atom_type": "O2s"}}

>  <type>  (17) 
unop_13

>  <geom_source>  (17) 
gaussian_log

$$$$
