
     RDKit          3D

  9  8  0  0  0  0  0  0  0  0999 V2000
   -1.5470   -0.0755   -0.1976 C   0  0  0  0  0  0  0  0  0  0  0  0
   -0.2885    0.4507    0.1749 O   0  0  0  0  0  0  0  0  0  0  0  0
   -0.1502    1.7216   -0.3294 N   0  0  0  0  0  0  0  0  0  0  0  0
    0.9626    2.2353   -0.0219 C   0  0  0  0  0  0  0  0  0  0  0  0
   -1.6392   -0.1356   -1.2844 H   0  0  0  0  0  0  0  0  0  0  0  0
   -2.3597    0.5337    0.2044 H   0  0  0  0  0  0  0  0  0  0  0  0
   -1.5879   -1.0750    0.2318 H   0  0  0  0  0  0  0  0  0  0  0  0
    1.1497    3.2381   -0.3820 H   0  0  0  0  0  0  0  0  0  0  0  0
    1.7060    1.7101    0.5739 H   0  0  0  0  0  0  0  0  0  0  0  0
  1  2  1  0
  1  5  1  0
  1  6  1  0
  1  7  1  0
  2  3  1  0
  3  4  2  3
  4  8  1  0
  4  9  1  0
M  END
>  <reaction>  (1) 
rmg_rxn_15620

>  <mol_properties>  (1) 
{"0": {"label": "donator", "atom_type": "Cs"}, "4": {"label": "d_hydrogen", "atom_type": "H0"}}

>  <type>  (1) 
r1h

$$$$

     RDKit          3D

 11 10  0  0  0  0  0  0  0  0999 V2000
   -1.2230    0.3768   -0.0849 C   0  0  0  0  0  0  0  0  0  0  0  0
   -0.0734   -0.5533    0.2746 C   0  0  0  0  0  0  0  0  0  0  0  0
   -0.0853   -1.8426   -0.5372 C   0  0  0  0  0  0  0  0  0  0  0  0
    0.0319   -1.6944   -1.8815 O   0  0  0  0  0  1  0  0  0  0  0  0
   -2.1874   -0.0885    0.1341 H   0  0  0  0  0  0  0  0  0  0  0  0
   -1.1670    1.3099    0.4765 H   0  0  0  0  0  0  0  0  0  0  0  0
   -1.2014    0.6189   -1.1483 H   0  0  0  0  0  0  0  0  0  0  0  0
    0.8834   -0.0518    0.1071 H   0  0  0  0  0  0  0  0  0  0  0  0
   -0.1104   -0.8149    1.3362 H   0  0  0  0  0  0  0  0  0  0  0  0
    0.6767   -2.5604   -0.1861 H   0  0  0  0  0  0  0  0  0  0  0  0
   -1.0401   -2.3871   -0.3877 H   0  0  0  0  0  0  0  0  0  0  0  0
  1  2  1  0
  1  5  1  0
  1  6  1  0
  1  7  1  0
  2  3  1  0
  2  8  1  0
  2  9  1  0
  3  4  1  0
  3 10  1  0
  3 11  1  0
M  RAD  1   4   2
M  END
>  <reaction>  (2) 
rmg_rxn_15620

>  <mol_properties>  (2) 
{"3": {"label": "acceptor", "atom_type": "O2s"}}

>  <type>  (2) 
r2

$$$$

     RDKit          3D

 12 11  0  0  0  0  0  0  0  0999 V2000
   -1.4643   -0.2505   -0.5284 C   0  0  0  0  0  0  0  0  0  0  0  0
   -0.3946    0.4302    0.3143 C   0  0  0  0  0  0  0  0  0  0  0  0
   -0.5959    0.2382    1.8102 C   0  0  0  0  0  0  0  0  0  0  0  0
   -0.5633   -1.1190    2.2092 O   0  0  0  0  0  0  0  0  0  0  0  0
   -2.4511    0.1644   -0.3109 H   0  0  0  0  0  0  0  0  0  0  0  0
   -1.5019   -1.3198   -0.3181 H   0  0  0  0  0  0  0  0  0  0  0  0
   -1.2720   -0.1182   -1.5941 H   0  0  0  0  0  0  0  0  0  0  0  0
    0.5965    0.0515    0.0385 H   0  0  0  0  0  0  0  0  0  0  0  0
   -0.3776    1.5047    0.1078 H   0  0  0  0  0  0  0  0  0  0  0  0
   -1.5821    0.6048    2.1034 H   0  0  0  0  0  0  0  0  0  0  0  0
    0.1495    0.8220    2.3649 H   0  0  0  0  0  0  0  0  0  0  0  0
    0.3017   -1.4750    1.9997 H   0  0  0  0  0  0  0  0  0  0  0  0
  1  2  1  0
  1  5  1  0
  1  6  1  0
  1  7  1  0
  2  3  1  0
  2  8  1  0
  2  9  1  0
  3  4  1  0
  3 10  1  0
  3 11  1  0
  4 12  1  0
M  END
>  <reaction>  (3) 
rmg_rxn_15620

>  <mol_properties>  (3) 
{"0": {"label": "a_hydrogen", "atom_type": "H0"}, "4": {"label": "acceptor", "atom_type": "O2s"}}

>  <type>  (3) 
r2h

$$$$

     RDKit          3D

 20 18  0  0  0  0  0  0  0  0999 V2000
   -0.0802    1.8502   -0.3105 C   0  0  0  0  0  0  0  0  0  0  0  0
   -0.2644    1.1106   -1.4629 O   0  0  0  0  0  0  0  0  0  0  0  0
   -1.2109    0.1229   -1.2713 N   0  0  0  0  0  0  0  0  0  0  0  0
   -1.2674   -0.6615   -2.2595 C   0  0  0  0  0  0  0  0  0  0  0  0
    0.7138    1.2674    0.4436 H   0  0  0  0  0  0  0  0  0  0  0  0
   -1.0011    1.9885    0.2567 H   0  0  0  0  0  0  0  0  0  0  0  0
    0.4233    2.7768   -0.5770 H   0  0  0  0  0  0  0  0  0  0  0  0
   -1.9961   -1.4588   -2.1996 H   0  0  0  0  0  0  0  0  0  0  0  0
   -0.6262   -0.5553   -3.1310 H   0  0  0  0  0  0  0  0  0  0  0  0
    0.5303   -2.1276    1.2216 C   0  0  0  0  0  0  0  0  0  0  0  0
   -0.1834   -0.9761    1.9139 C   0  0  0  0  0  0  0  0  0  0  0  0
    0.7558    0.1567    2.3108 C   0  0  0  0  0  0  0  0  0  0  0  0
    1.5138    0.6761    1.2655 O   0  0  0  0  0  1  0  0  0  0  0  0
    1.2842   -2.5746    1.8746 H   0  0  0  0  0  0  0  0  0  0  0  0
   -0.1734   -2.9110    0.9356 H   0  0  0  0  0  0  0  0  0  0  0  0
    1.0364   -1.7778    0.3212 H   0  0  0  0  0  0  0  0  0  0  0  0
   -0.9574   -0.5758    1.2530 H   0  0  0  0  0  0  0  0  0  0  0  0
   -0.6902   -1.3291    2.8175 H   0  0  0  0  0  0  0  0  0  0  0  0
    0.1987    0.9486    2.8324 H   0  0  0  0  0  0  0  0  0  0  0  0
    1.5015   -0.2169    3.0287 H   0  0  0  0  0  0  0  0  0  0  0  0
  1  2  1  0
  1  5  1  0
  1  6  1  0
  1  7  1  0
  2  3  1  0
  3  4  2  3
  4  8  1  0
  4  9  1  0
 10 11  1  0
 10 14  1  0
 10 15  1  0
 10 16  1  0
 11 12  1  0
 11 17  1  0
 11 18  1  0
 12 13  1  0
 12 19  1  0
 12 20  1  0
M  RAD  1  13   2
M  END
>  <reaction>  (4) 
rmg_rxn_15620

>  <mol_properties>  (4) 
{"0": {"label": "*1", "atom_type": "Cs"}, "1": {"label": "*0", "atom_type": "O2s"}, "4": {"label": "*2", "atom_type": "H0"}, "11": {"label": "*4", "atom_type": "Cs"}, "12": {"label": "*3", "atom_type": "O2s"}}

>  <type>  (4) 
ts

$$$$

     RDKit          3D

 20 18  0  0  0  0  0  0  0  0999 V2000
   -1.2753   -0.8212    1.0720 C   0  0  0  0  0  3  0  0  0  0  0  0
   -1.5918    0.5064    0.9123 O   0  0  0  0  0  0  0  0  0  0  0  0
   -2.2438    0.9496   -0.1853 N   0  0  0  0  0  0  0  0  0  0  0  0
   -2.3451    0.2464   -1.2278 C   0  0  0  0  0  0  0  0  0  0  0  0
   -0.2685   -1.1493    0.2592 H   0  0  0  0  0  0  0  0  0  0  0  0
   -2.0562   -1.5218    0.7811 H   0  0  0  0  0  0  0  0  0  0  0  0
   -0.9005   -0.9579    2.0793 H   0  0  0  0  0  0  0  0  0  0  0  0
   -2.8878    0.6946   -2.0416 H   0  0  0  0  0  0  0  0  0  0  0  0
   -1.9076   -0.7365   -1.3801 H   0  0  0  0  0  0  0  0  0  0  0  0
    3.2071    1.1347    0.1180 C   0  0  0  0  0  0  0  0  0  0  0  0
    1.8122    0.5995   -0.1719 C   0  0  0  0  0  0  0  0  0  0  0  0
    1.7751   -0.9324   -0.1263 C   0  0  0  0  0  0  0  0  0  0  0  0
    0.5548   -1.4731   -0.4782 O   0  0  0  0  0  0  0  0  0  0  0  0
    3.9178    0.7753   -0.6231 H   0  0  0  0  0  0  0  0  0  0  0  0
    3.2077    2.2216    0.0968 H   0  0  0  0  0  0  0  0  0  0  0  0
    3.5435    0.8098    1.1005 H   0  0  0  0  0  0  0  0  0  0  0  0
    1.1073    0.9933    0.5644 H   0  0  0  0  0  0  0  0  0  0  0  0
    1.4815    0.9289   -1.1593 H   0  0  0  0  0  0  0  0  0  0  0  0
    2.4908   -1.3331   -0.8582 H   0  0  0  0  0  0  0  0  0  0  0  0
    2.0933   -1.2844    0.8702 H   0  0  0  0  0  0  0  0  0  0  0  0
  1  2  1  0
  1  6  1  0
  1  7  1  0
  2  3  1  0
  3  4  2  3
  4  8  1  0
  4  9  1  0
  5 13  1  0
 10 11  1  0
 10 14  1  0
 10 15  1  0
 10 16  1  0
 11 12  1  0
 11 17  1  0
 11 18  1  0
 12 13  1  0
 12 19  1  0
 12 20  1  0
M  RAD  1   1   2
M  END
>  <reaction>  (5) 
rmg_rxn_15620

>  <mol_properties>  (5) 
{"0": {"label": "*1", "atom_type": "Cs"}, "1": {"label": "*0", "atom_type": "O2s"}, "4": {"label": "*2", "atom_type": "H0"}, "11": {"label": "*4", "atom_type": "Cs"}, "12": {"label": "*3", "atom_type": "O2s"}}

>  <type>  (5) 
unop_1

>  <geom_source>  (5) 
crest_best.xyz

$$$$

     RDKit          3D

 20 18  0  0  0  0  0  0  0  0999 V2000
   -0.9151    0.2917   -0.1540 C   0  0  0  0  0  3  0  0  0  0  0  0
   -0.9151    0.3496   -1.5669 O   0  0  0  0  0  0  0  0  0  0  0  0
   -0.9151   -0.9242   -2.0826 N   0  0  0  0  0  0  0  0  0  0  0  0
   -0.9151   -0.9242   -3.3463 C   0  0  0  0  0  0  0  0  0  0  0  0
    0.1555   -0.3205    0.2901 H   0  0  0  0  0  0  0  0  0  0  0  0
   -1.8073   -0.2185    0.2161 H   0  0  0  0  0  0  0  0  0  0  0  0
   -0.9152    1.3266    0.1838 H   0  0  0  0  0  0  0  0  0  0  0  0
   -0.9152   -1.8913   -3.8311 H   0  0  0  0  0  0  0  0  0  0  0  0
   -0.9151   -0.0078   -3.9324 H   0  0  0  0  0  0  0  0  0  0  0  0
   -0.2211    0.7723    2.8413 C   0  0  0  0  0  0  0  0  0  0  0  0
    0.9708    1.2069    1.9995 C   0  0  0  0  0  0  0  0  0  0  0  0
    1.8133    0.0407    1.5039 C   0  0  0  0  0  0  0  0  0  0  0  0
    1.0950   -0.8577    0.6798 O   0  0  0  0  0  0  0  0  0  0  0  0
    0.1103    0.2483    3.7407 H   0  0  0  0  0  0  0  0  0  0  0  0
   -0.8186    1.6300    3.1534 H   0  0  0  0  0  0  0  0  0  0  0  0
   -0.8646    0.0930    2.2815 H   0  0  0  0  0  0  0  0  0  0  0  0
    0.6272    1.7881    1.1360 H   0  0  0  0  0  0  0  0  0  0  0  0
    1.6181    1.8740    2.5768 H   0  0  0  0  0  0  0  0  0  0  0  0
    2.7018    0.4178    0.9819 H   0  0  0  0  0  0  0  0  0  0  0  0
    2.1603   -0.5547    2.3513 H   0  0  0  0  0  0  0  0  0  0  0  0
  1  2  1  0
  1  6  1  0
  1  7  1  0
  2  3  1  0
  3  4  2  3
  4  8  1  0
  4  9  1  0
  5 13  1  0
 10 11  1  0
 10 14  1  0
 10 15  1  0
 10 16  1  0
 11 12  1  0
 11 17  1  0
 11 18  1  0
 12 13  1  0
 12 19  1  0
 12 20  1  0
M  RAD  1   1   2
M  END
>  <reaction>  (6) 
rmg_rxn_15620

>  <mol_properties>  (6) 
{"0": {"label": "*1", "atom_type": "Cs"}, "1": {"label": "*0", "atom_type": "O2s"}, "4": {"label": "*2", "atom_type": "H0"}, "11": {"label": "*4", "atom_type": "Cs"}, "12": {"label": "*3", "atom_type": "O2s"}}

>  <type>  (6) 
unop_2

>  <geom_source>  (6) 
Heuristics

$$$$

     RDKit          3D

 20 18  0  0  0  0  0  0  0  0999 V2000
   -1.2822   -0.8416   -1.0567 C   0  0  0  0  0  3  0  0  0  0  0  0
   -1.5940    0.4896   -0.9201 O   0  0  0  0  0  0  0  0  0  0  0  0
   -2.2370    0.9554    0.1737 N   0  0  0  0  0  0  0  0  0  0  0  0
   -2.3316    0.2724    1.2302 C   0  0  0  0  0  0  0  0  0  0  0  0
   -0.2706   -1.1578   -0.2452 H   0  0  0  0  0  0  0  0  0  0  0  0
   -0.9150   -0.9985   -2.0639 H   0  0  0  0  0  0  0  0  0  0  0  0
   -2.0629   -1.5343   -0.7470 H   0  0  0  0  0  0  0  0  0  0  0  0
   -2.8665    0.7375    2.0397 H   0  0  0  0  0  0  0  0  0  0  0  0
   -1.8946   -0.7081    1.3979 H   0  0  0  0  0  0  0  0  0  0  0  0
    3.2004    1.1375   -0.1328 C   0  0  0  0  0  0  0  0  0  0  0  0
    1.8079    0.6014    0.1673 C   0  0  0  0  0  0  0  0  0  0  0  0
    1.7739   -0.9307    0.1311 C   0  0  0  0  0  0  0  0  0  0  0  0
    0.5565   -1.4718    0.4922 O   0  0  0  0  0  0  0  0  0  0  0  0
    3.1986    2.2245   -0.1191 H   0  0  0  0  0  0  0  0  0  0  0  0
    3.9152    0.7848    0.6075 H   0  0  0  0  0  0  0  0  0  0  0  0
    3.5329    0.8065   -1.1145 H   0  0  0  0  0  0  0  0  0  0  0  0
    1.4815    0.9361    1.1544 H   0  0  0  0  0  0  0  0  0  0  0  0
    1.0986    0.9894   -0.5679 H   0  0  0  0  0  0  0  0  0  0  0  0
    2.0880   -1.2882   -0.8649 H   0  0  0  0  0  0  0  0  0  0  0  0
    2.4941   -1.3256    0.8618 H   0  0  0  0  0  0  0  0  0  0  0  0
  1  2  1  0
  1  6  1  0
  1  7  1  0
  2  3  1  0
  3  4  2  3
  4  8  1  0
  4  9  1  0
  5 13  1  0
 10 11  1  0
 10 14  1  0
 10 15  1  0
 10 16  1  0
 11 12  1  0
 11 17  1  0
 11 18  1  0
 12 13  1  0
 12 19  1  0
 12 20  1  0
M  RAD  1   1   2
M  END
>  <reaction>  (7) 
rmg_rxn_15620

>  <mol_properties>  (7) 
{"0": {"label": "*1", "atom_type": "Cs"}, "1": {"label": "*0", "atom_type": "O2s"}, "4": {"label": "*2", "atom_type": "H0"}, "11": {"label": "*4", "atom_type": "Cs"}, "12": {"label": "*3", "atom_type": "O2s"}}

>  <type>  (7) 
unop_3

>  <geom_source>  (7) 
Heuristics

$$$$

     RDKit          3D

 20 18  0  0  0  0  0  0  0  0999 V2000
   -1.2949    0.8779   -1.0293 C   0  0  0  0  0  3  0  0  0  0  0  0
   -1.5938   -0.4599   -0.9326 O   0  0  0  0  0  0  0  0  0  0  0  0
   -2.2167   -0.9675    0.1541 N   0  0  0  0  0  0  0  0  0  0  0  0
   -2.3031   -0.3204    1.2336 C   0  0  0  0  0  0  0  0  0  0  0  0
   -0.2755    1.1762   -0.2209 H   0  0  0  0  0  0  0  0  0  0  0  0
   -2.0773    1.5532   -0.6869 H   0  0  0  0  0  0  0  0  0  0  0  0
   -0.9422    1.0709   -2.0354 H   0  0  0  0  0  0  0  0  0  0  0  0
   -2.8225   -0.8171    2.0345 H   0  0  0  0  0  0  0  0  0  0  0  0
   -1.8741    0.6588    1.4274 H   0  0  0  0  0  0  0  0  0  0  0  0
    3.1824   -1.1446   -0.1568 C   0  0  0  0  0  0  0  0  0  0  0  0
    1.7942   -0.6037    0.1545 C   0  0  0  0  0  0  0  0  0  0  0  0
    1.7700    0.9291    0.1404 C   0  0  0  0  0  0  0  0  0  0  0  0
    0.5582    1.4730    0.5163 O   0  0  0  0  0  0  0  0  0  0  0  0
    3.9014   -0.8071    0.5866 H   0  0  0  0  0  0  0  0  0  0  0  0
    3.1735   -2.2317   -0.1586 H   0  0  0  0  0  0  0  0  0  0  0  0
    3.5146   -0.8018   -1.1346 H   0  0  0  0  0  0  0  0  0  0  0  0
    1.0808   -0.9767   -0.5845 H   0  0  0  0  0  0  0  0  0  0  0  0
    1.4681   -0.9503    1.1376 H   0  0  0  0  0  0  0  0  0  0  0  0
    2.4967    1.3087    0.8727 H   0  0  0  0  0  0  0  0  0  0  0  0
    2.0809    1.2987   -0.8520 H   0  0  0  0  0  0  0  0  0  0  0  0
  1  2  1  0
  1  6  1  0
  1  7  1  0
  2  3  1  0
  3  4  2  3
  4  8  1  0
  4  9  1  0
  5 13  1  0
 10 11  1  0
 10 14  1  0
 10 15  1  0
 10 16  1  0
 11 12  1  0
 11 17  1  0
 11 18  1  0
 12 13  1  0
 12 19  1  0
 12 20  1  0
M  RAD  1   1   2
M  END
>  <reaction>  (8) 
rmg_rxn_15620

>  <mol_properties>  (8) 
{"0": {"label": "*1", "atom_type": "Cs"}, "1": {"label": "*0", "atom_type": "O2s"}, "4": {"label": "*2", "atom_type": "H0"}, "11": {"label": "*4", "atom_type": "Cs"}, "12": {"label": "*3", "atom_type": "O2s"}}

>  <type>  (8) 
unop_4

>  <geom_source>  (8) 
Heuristics

$$$$

     RDKit          3D

 20 18  0  0  0  0  0  0  0  0999 V2000
   -1.2778    0.8248   -1.0687 C   0  0  0  0  0  3  0  0  0  0  0  0
   -1.5956   -0.5030   -0.9140 O   0  0  0  0  0  0  0  0  0  0  0  0
   -2.2460   -0.9499    0.1832 N   0  0  0  0  0  0  0  0  0  0  0  0
   -2.3431   -0.2512    1.2291 C   0  0  0  0  0  0  0  0  0  0  0  0
   -0.2691    1.1484   -0.2564 H   0  0  0  0  0  0  0  0  0  0  0  0
   -2.0571    1.5251   -0.7728 H   0  0  0  0  0  0  0  0  0  0  0  0
   -0.9051    0.9655   -2.0762 H   0  0  0  0  0  0  0  0  0  0  0  0
   -2.8850   -0.7018    2.0421 H   0  0  0  0  0  0  0  0  0  0  0  0
   -1.9028    0.7298    1.3849 H   0  0  0  0  0  0  0  0  0  0  0  0
    3.2114   -1.1324   -0.1193 C   0  0  0  0  0  0  0  0  0  0  0  0
    1.8145   -0.6002    0.1676 C   0  0  0  0  0  0  0  0  0  0  0  0
    1.7753    0.9317    0.1271 C   0  0  0  0  0  0  0  0  0  0  0  0
    0.5546    1.4699    0.4816 O   0  0  0  0  0  0  0  0  0  0  0  0
    3.2137   -2.2194   -0.1016 H   0  0  0  0  0  0  0  0  0  0  0  0
    3.5506   -0.8039   -1.0996 H   0  0  0  0  0  0  0  0  0  0  0  0
    3.9192   -0.7742    0.6252 H   0  0  0  0  0  0  0  0  0  0  0  0
    1.1124   -0.9923   -0.5724 H   0  0  0  0  0  0  0  0  0  0  0  0
    1.4809   -0.9330    1.1529 H   0  0  0  0  0  0  0  0  0  0  0  0
    2.4910    1.3309    0.8598 H   0  0  0  0  0  0  0  0  0  0  0  0
    2.0924    1.2873   -0.8685 H   0  0  0  0  0  0  0  0  0  0  0  0
  1  2  1  0
  1  6  1  0
  1  7  1  0
  2  3  1  0
  3  4  2  3
  4  8  1  0
  4  9  1  0
  5 13  1  0
 10 11  1  0
 10 14  1  0
 10 15  1  0
 10 16  1  0
 11 12  1  0
 11 17  1  0
 11 18  1  0
 12 13  1  0
 12 19  1  0
 12 20  1  0
M  RAD  1   1   2
M  END
>  <reaction>  (9) 
rmg_rxn_15620

>  <mol_properties>  (9) 
{"0": {"label": "*1", "atom_type": "Cs"}, "1": {"label": "*0", "atom_type": "O2s"}, "4": {"label": "*2", "atom_type": "H0"}, "11": {"label": "*4", "atom_type": "Cs"}, "12": {"label": "*3", "atom_type": "O2s"}}

>  <type>  (9) 
unop_5

>  <geom_source>  (9) 
Heuristics

$$$$

     RDKit          3D

 20 18  0  0  0  0  0  0  0  0999 V2000
   -1.4387    0.2921    0.7111 C   0  0  0  0  0  3  0  0  0  0  0  0
   -1.4387    0.3500   -0.7018 O   0  0  0  0  0  0  0  0  0  0  0  0
   -1.4387   -0.9239   -1.2175 N   0  0  0  0  0  0  0  0  0  0  0  0
   -1.4387   -0.9239   -2.4812 C   0  0  0  0  0  0  0  0  0  0  0  0
   -0.3681   -0.3201    1.1552 H   0  0  0  0  0  0  0  0  0  0  0  0
   -2.3308   -0.2181    1.0812 H   0  0  0  0  0  0  0  0  0  0  0  0
   -1.4387    1.3270    1.0489 H   0  0  0  0  0  0  0  0  0  0  0  0
   -1.4387   -1.8909   -2.9660 H   0  0  0  0  0  0  0  0  0  0  0  0
   -1.4387   -0.0074   -3.0673 H   0  0  0  0  0  0  0  0  0  0  0  0
    1.8917    1.8259    1.2015 C   0  0  0  0  0  0  0  0  0  0  0  0
    1.6777    0.7921    0.1045 C   0  0  0  0  0  0  0  0  0  0  0  0
    1.6252   -0.6360    0.6269 C   0  0  0  0  0  0  0  0  0  0  0  0
    0.5714   -0.8573    1.5449 O   0  0  0  0  0  0  0  0  0  0  0  0
    2.8473    1.6639    1.7055 H   0  0  0  0  0  0  0  0  0  0  0  0
    1.8937    2.8386    0.7958 H   0  0  0  0  0  0  0  0  0  0  0  0
    1.1059    1.7610    1.9547 H   0  0  0  0  0  0  0  0  0  0  0  0
    0.7482    1.0063   -0.4356 H   0  0  0  0  0  0  0  0  0  0  0  0
    2.4809    0.8549   -0.6359 H   0  0  0  0  0  0  0  0  0  0  0  0
    1.5594   -1.3385   -0.2135 H   0  0  0  0  0  0  0  0  0  0  0  0
    2.5420   -0.8664    1.1742 H   0  0  0  0  0  0  0  0  0  0  0  0
  1  2  1  0
  1  6  1  0
  1  7  1  0
  2  3  1  0
  3  4  2  3
  4  8  1  0
  4  9  1  0
  5 13  1  0
 10 11  1  0
 10 14  1  0
 10 15  1  0
 10 16  1  0
 11 12  1  0
 11 17  1  0
 11 18  1  0
 12 13  1  0
 12 19  1  0
 12 20  1  0
M  RAD  1   1   2
M  END
>  <reaction>  (10) 
rmg_rxn_15620

>  <mol_properties>  (10) 
{"0": {"label": "*1", "atom_type": "Cs"}, "1": {"label": "*0", "atom_type": "O2s"}, "4": {"label": "*2", "atom_type": "H0"}, "11": {"label": "*4", "atom_type": "Cs"}, "12": {"label": "*3", "atom_type": "O2s"}}

>  <type>  (10) 
unop_6

>  <geom_source>  (10) 
Heuristics

$$$$

     RDKit          3D

 20 18  0  0  0  0  0  0  0  0999 V2000
   -1.2843    0.8466   -1.0539 C   0  0  0  0  0  3  0  0  0  0  0  0
   -1.5930   -0.4859   -0.9218 O   0  0  0  0  0  0  0  0  0  0  0  0
   -2.2312   -0.9575    0.1723 N   0  0  0  0  0  0  0  0  0  0  0  0
   -2.3230   -0.2795    1.2322 C   0  0  0  0  0  0  0  0  0  0  0  0
   -0.2711    1.1615   -0.2437 H   0  0  0  0  0  0  0  0  0  0  0  0
   -2.0655    1.5363   -0.7388 H   0  0  0  0  0  0  0  0  0  0  0  0
   -0.9206    1.0083   -2.0616 H   0  0  0  0  0  0  0  0  0  0  0  0
   -2.8557   -0.7485    2.0409 H   0  0  0  0  0  0  0  0  0  0  0  0
   -1.8877    0.7014    1.4025 H   0  0  0  0  0  0  0  0  0  0  0  0
    3.1948   -1.1399   -0.1349 C   0  0  0  0  0  0  0  0  0  0  0  0
    1.8025   -0.6013    0.1614 C   0  0  0  0  0  0  0  0  0  0  0  0
    1.7730    0.9312    0.1342 C   0  0  0  0  0  0  0  0  0  0  0  0
    0.5558    1.4735    0.4946 O   0  0  0  0  0  0  0  0  0  0  0  0
    3.9072   -0.7936    0.6108 H   0  0  0  0  0  0  0  0  0  0  0  0
    3.1897   -2.2270   -0.1273 H   0  0  0  0  0  0  0  0  0  0  0  0
    3.5331   -0.8045   -1.1132 H   0  0  0  0  0  0  0  0  0  0  0  0
    1.0958   -0.9827   -0.5797 H   0  0  0  0  0  0  0  0  0  0  0  0
    1.4702   -0.9409    1.1449 H   0  0  0  0  0  0  0  0  0  0  0  0
    2.4917    1.3196    0.8698 H   0  0  0  0  0  0  0  0  0  0  0  0
    2.0914    1.2936   -0.8585 H   0  0  0  0  0  0  0  0  0  0  0  0
  1  2  1  0
  1  6  1  0
  1  7  1  0
  2  3  1  0
  3  4  2  3
  4  8  1  0
  4  9  1  0
  5 13  1  0
 10 11  1  0
 10 14  1  0
 10 15  1  0
 10 16  1  0
 11 12  1  0
 11 17  1  0
 11 18  1  0
 12 13  1  0
 12 19  1  0
 12 20  1  0
M  RAD  1   1   2
M  END
>  <reaction>  (11) 
rmg_rxn_15620

>  <mol_properties>  (11) 
{"0": {"label": "*1", "atom_type": "Cs"}, "1": {"label": "*0", "atom_type": "O2s"}, "4": {"label": "*2", "atom_type": "H0"}, "11": {"label": "*4", "atom_type": "Cs"}, "12": {"label": "*3", "atom_type": "O2s"}}

>  <type>  (11) 
unop_7

>  <geom_source>  (11) 
Heuristics

$$$$

     RDKit          3D

 20 18  0  0  0  0  0  0  0  0999 V2000
   -0.7015    0.6790   -0.3182 C   0  0  0  0  0  3  0  0  0  0  0  0
   -0.7015    0.7369   -1.7311 O   0  0  0  0  0  0  0  0  0  0  0  0
   -0.7015   -0.5370   -2.2468 N   0  0  0  0  0  0  0  0  0  0  0  0
   -0.7015   -0.5370   -3.5105 C   0  0  0  0  0  0  0  0  0  0  0  0
    0.3691    0.0668    0.1259 H   0  0  0  0  0  0  0  0  0  0  0  0
   -1.5936    0.1688    0.0519 H   0  0  0  0  0  0  0  0  0  0  0  0
   -0.7015    1.7139    0.0196 H   0  0  0  0  0  0  0  0  0  0  0  0
   -0.7015   -1.5041   -3.9953 H   0  0  0  0  0  0  0  0  0  0  0  0
   -0.7015    0.3795   -4.0966 H   0  0  0  0  0  0  0  0  0  0  0  0
   -0.5882   -0.5525    2.8514 C   0  0  0  0  0  0  0  0  0  0  0  0
    0.4208    0.5503    2.5624 C   0  0  0  0  0  0  0  0  0  0  0  0
    1.6349    0.0648    1.7842 C   0  0  0  0  0  0  0  0  0  0  0  0
    1.3086   -0.4705    0.5156 O   0  0  0  0  0  0  0  0  0  0  0  0
   -0.1404   -1.3356    3.4676 H   0  0  0  0  0  0  0  0  0  0  0  0
   -1.4579   -0.1636    3.3829 H   0  0  0  0  0  0  0  0  0  0  0  0
   -0.9321   -1.0162    1.9264 H   0  0  0  0  0  0  0  0  0  0  0  0
   -0.0598    1.3597    2.0006 H   0  0  0  0  0  0  0  0  0  0  0  0
    0.7717    0.9964    3.4979 H   0  0  0  0  0  0  0  0  0  0  0  0
    2.3639    0.8789    1.6842 H   0  0  0  0  0  0  0  0  0  0  0  0
    2.1244   -0.7473    2.3263 H   0  0  0  0  0  0  0  0  0  0  0  0
  1  2  1  0
  1  6  1  0
  1  7  1  0
  2  3  1  0
  3  4  2  3
  4  8  1  0
  4  9  1  0
  5 13  1  0
 10 11  1  0
 10 14  1  0
 10 15  1  0
 10 16  1  0
 11 12  1  0
 11 17  1  0
 11 18  1  0
 12 13  1  0
 12 19  1  0
 12 20  1  0
M  RAD  1   1   2
M  END
>  <reaction>  (12) 
rmg_rxn_15620

>  <mol_properties>  (12) 
{"0": {"label": "*1", "atom_type": "Cs"}, "1": {"label": "*0", "atom_type": "O2s"}, "4": {"label": "*2", "atom_type": "H0"}, "11": {"label": "*4", "atom_type": "Cs"}, "12": {"label": "*3", "atom_type": "O2s"}}

>  <type>  (12) 
unop_8

>  <geom_source>  (12) 
Heuristics

$$$$

     RDKit          3D

 20 18  0  0  0  0  0  0  0  0999 V2000
   -1.4070    1.3375    0.8531 C   0  0  0  0  0  3  0  0  0  0  0  0
   -1.4070    1.3954   -0.5598 O   0  0  0  0  0  0  0  0  0  0  0  0
   -1.4070    0.1215   -1.0756 N   0  0  0  0  0  0  0  0  0  0  0  0
   -1.4070    0.1215   -2.3392 C   0  0  0  0  0  0  0  0  0  0  0  0
   -0.3364    0.7253    1.2972 H   0  0  0  0  0  0  0  0  0  0  0  0
   -2.2991    0.8273    1.2232 H   0  0  0  0  0  0  0  0  0  0  0  0
   -1.4070    2.3724    1.1909 H   0  0  0  0  0  0  0  0  0  0  0  0
   -1.4070   -0.8455   -2.8240 H   0  0  0  0  0  0  0  0  0  0  0  0
   -1.4070    1.0380   -2.9253 H   0  0  0  0  0  0  0  0  0  0  0  0
    2.9334   -0.9298    0.1439 C   0  0  0  0  0  0  0  0  0  0  0  0
    1.4675   -1.2709   -0.0860 C   0  0  0  0  0  0  0  0  0  0  0  0
    0.6139   -1.1272    1.1653 C   0  0  0  0  0  0  0  0  0  0  0  0
    0.6031    0.1881    1.6869 O   0  0  0  0  0  0  0  0  0  0  0  0
    3.3774   -1.6045    0.8794 H   0  0  0  0  0  0  0  0  0  0  0  0
    3.5086   -1.0142   -0.7792 H   0  0  0  0  0  0  0  0  0  0  0  0
    3.0406    0.0874    0.5217 H   0  0  0  0  0  0  0  0  0  0  0  0
    1.0531   -0.6304   -0.8733 H   0  0  0  0  0  0  0  0  0  0  0  0
    1.3710   -2.2989   -0.4484 H   0  0  0  0  0  0  0  0  0  0  0  0
   -0.4082   -1.4702    0.9610 H   0  0  0  0  0  0  0  0  0  0  0  0
    1.0154   -1.7545    1.9642 H   0  0  0  0  0  0  0  0  0  0  0  0
  1  2  1  0
  1  6  1  0
  1  7  1  0
  2  3  1  0
  3  4  2  3
  4  8  1  0
  4  9  1  0
  5 13  1  0
 10 11  1  0
 10 14  1  0
 10 15  1  0
 10 16  1  0
 11 12  1  0
 11 17  1  0
 11 18  1  0
 12 13  1  0
 12 19  1  0
 12 20  1  0
M  RAD  1   1   2
M  END
>  <reaction>  (13) 
rmg_rxn_15620

>  <mol_properties>  (13) 
{"0": {"label": "*1", "atom_type": "Cs"}, "1": {"label": "*0", "atom_type": "O2s"}, "4": {"label": "*2", "atom_type": "H0"}, "11": {"label": "*4", "atom_type": "Cs"}, "12": {"label": "*3", "atom_type": "O2s"}}

>  <type>  (13) 
unop_9

>  <geom_source>  (13) 
Heuristics

$$$$

     RDKit          3D

 20 18  0  0  0  0  0  0  0  0999 V2000
   -1.2931   -0.8744    1.0318 C   0  0  0  0  0  3  0  0  0  0  0  0
   -1.5938    0.4627    0.9313 O   0  0  0  0  0  0  0  0  0  0  0  0
   -2.2199    0.9659   -0.1556 N   0  0  0  0  0  0  0  0  0  0  0  0
   -2.3076    0.3155   -1.2329 C   0  0  0  0  0  0  0  0  0  0  0  0
   -0.2743   -1.1743    0.2231 H   0  0  0  0  0  0  0  0  0  0  0  0
   -2.0750   -1.5518    0.6927 H   0  0  0  0  0  0  0  0  0  0  0  0
   -0.9387   -1.0636    2.0380 H   0  0  0  0  0  0  0  0  0  0  0  0
   -2.8295    0.8088   -2.0342 H   0  0  0  0  0  0  0  0  0  0  0  0
   -1.8774   -0.6637   -1.4246 H   0  0  0  0  0  0  0  0  0  0  0  0
    3.1841    1.1447    0.1545 C   0  0  0  0  0  0  0  0  0  0  0  0
    1.7961    0.6036   -0.1568 C   0  0  0  0  0  0  0  0  0  0  0  0
    1.7711   -0.9291   -0.1393 C   0  0  0  0  0  0  0  0  0  0  0  0
    0.5589   -1.4732   -0.5137 O   0  0  0  0  0  0  0  0  0  0  0  0
    3.1757    2.2318    0.1534 H   0  0  0  0  0  0  0  0  0  0  0  0
    3.5151    0.8044    1.1335 H   0  0  0  0  0  0  0  0  0  0  0  0
    3.9038    0.8050   -0.5872 H   0  0  0  0  0  0  0  0  0  0  0  0
    1.0821    0.9784    0.5807 H   0  0  0  0  0  0  0  0  0  0  0  0
    1.4710    0.9481   -1.1410 H   0  0  0  0  0  0  0  0  0  0  0  0
    2.4975   -1.3107   -0.8710 H   0  0  0  0  0  0  0  0  0  0  0  0
    2.0822   -1.2967    0.8538 H   0  0  0  0  0  0  0  0  0  0  0  0
  1  2  1  0
  1  6  1  0
  1  7  1  0
  2  3  1  0
  3  4  2  3
  4  8  1  0
  4  9  1  0
  5 13  1  0
 10 11  1  0
 10 14  1  0
 10 15  1  0
 10 16  1  0
 11 12  1  0
 11 17  1  0
 11 18  1  0
 12 13  1  0
 12 19  1  0
 12 20  1  0
M  RAD  1   1   2
M  END
>  <reaction>  (14) 
rmg_rxn_15620

>  <mol_properties>  (14) 
{"0": {"label": "*1", "atom_type": "Cs"}, "1": {"label": "*0", "atom_type": "O2s"}, "4": {"label": "*2", "atom_type": "H0"}, "11": {"label": "*4", "atom_type": "Cs"}, "12": {"label": "*3", "atom_type": "O2s"}}

>  <type>  (14) 
unop_10

>  <geom_source>  (14) 
Heuristics

$$$$

     RDKit          3D

 20 18  0  0  0  0  0  0  0  0999 V2000
   -0.6900    1.2414   -0.2234 C   0  0  0  0  0  3  0  0  0  0  0  0
   -0.6900    1.2993   -1.6363 O   0  0  0  0  0  0  0  0  0  0  0  0
   -0.6900    0.0254   -2.1521 N   0  0  0  0  0  0  0  0  0  0  0  0
   -0.6900    0.0254   -3.4157 C   0  0  0  0  0  0  0  0  0  0  0  0
    0.3806    0.6292    0.2207 H   0  0  0  0  0  0  0  0  0  0  0  0
   -1.5821    0.7312    0.1467 H   0  0  0  0  0  0  0  0  0  0  0  0
   -0.6900    2.2763    0.1144 H   0  0  0  0  0  0  0  0  0  0  0  0
   -0.6900   -0.9416   -3.9005 H   0  0  0  0  0  0  0  0  0  0  0  0
   -0.6900    0.9419   -4.0018 H   0  0  0  0  0  0  0  0  0  0  0  0
    0.0508   -2.1655    2.1445 C   0  0  0  0  0  0  0  0  0  0  0  0
    0.0666   -0.7021    2.5642 C   0  0  0  0  0  0  0  0  0  0  0  0
    1.2646    0.0649    2.0241 C   0  0  0  0  0  0  0  0  0  0  0  0
    1.3201    0.0920    0.6104 O   0  0  0  0  0  0  0  0  0  0  0  0
    0.9296   -2.6883    2.5286 H   0  0  0  0  0  0  0  0  0  0  0  0
   -0.8357   -2.6761    2.5233 H   0  0  0  0  0  0  0  0  0  0  0  0
    0.0603   -2.2578    1.0580 H   0  0  0  0  0  0  0  0  0  0  0  0
   -0.8520   -0.2065    2.2291 H   0  0  0  0  0  0  0  0  0  0  0  0
    0.0744   -0.6220    3.6555 H   0  0  0  0  0  0  0  0  0  0  0  0
    1.2691    1.0841    2.4306 H   0  0  0  0  0  0  0  0  0  0  0  0
    2.1908   -0.4182    2.3431 H   0  0  0  0  0  0  0  0  0  0  0  0
  1  2  1  0
  1  6  1  0
  1  7  1  0
  2  3  1  0
  3  4  2  3
  4  8  1  0
  4  9  1  0
  5 13  1  0
 10 11  1  0
 10 14  1  0
 10 15  1  0
 10 16  1  0
 11 12  1  0
 11 17  1  0
 11 18  1  0
 12 13  1  0
 12 19  1  0
 12 20  1  0
M  RAD  1   1   2
M  END
>  <reaction>  (15) 
rmg_rxn_15620

>  <mol_properties>  (15) 
{"0": {"label": "*1", "atom_type": "Cs"}, "1": {"label": "*0", "atom_type": "O2s"}, "4": {"label": "*2", "atom_type": "H0"}, "11": {"label": "*4", "atom_type": "Cs"}, "12": {"label": "*3", "atom_type": "O2s"}}

>  <type>  (15) 
unop_11

>  <geom_source>  (15) 
Heuristics

$$$$

     RDKit          3D

 20 18  0  0  0  0  0  0  0  0999 V2000
   -1.2825   -0.8441    1.0554 C   0  0  0  0  0  3  0  0  0  0  0  0
   -1.5927    0.4878    0.9209 O   0  0  0  0  0  0  0  0  0  0  0  0
   -2.2335    0.9563   -0.1728 N   0  0  0  0  0  0  0  0  0  0  0  0
   -2.3267    0.2760   -1.2311 C   0  0  0  0  0  0  0  0  0  0  0  0
   -0.2705   -1.1604    0.2446 H   0  0  0  0  0  0  0  0  0  0  0  0
   -2.0638   -1.5352    0.7435 H   0  0  0  0  0  0  0  0  0  0  0  0
   -0.9168   -1.0031    2.0628 H   0  0  0  0  0  0  0  0  0  0  0  0
   -2.8607    0.7431   -2.0401 H   0  0  0  0  0  0  0  0  0  0  0  0
   -1.8904   -0.7045   -1.4003 H   0  0  0  0  0  0  0  0  0  0  0  0
    3.1949    1.1406    0.1349 C   0  0  0  0  0  0  0  0  0  0  0  0
    1.8041    0.6013   -0.1665 C   0  0  0  0  0  0  0  0  0  0  0  0
    1.7737   -0.9311   -0.1327 C   0  0  0  0  0  0  0  0  0  0  0  0
    0.5570   -1.4744   -0.4927 O   0  0  0  0  0  0  0  0  0  0  0  0
    3.1905    2.2277    0.1219 H   0  0  0  0  0  0  0  0  0  0  0  0
    3.5276    0.8099    1.1166 H   0  0  0  0  0  0  0  0  0  0  0  0
    3.9112    0.7902   -0.6050 H   0  0  0  0  0  0  0  0  0  0  0  0
    1.0937    0.9862    0.5692 H   0  0  0  0  0  0  0  0  0  0  0  0
    1.4771    0.9367   -1.1532 H   0  0  0  0  0  0  0  0  0  0  0  0
    2.4935   -1.3231   -0.8653 H   0  0  0  0  0  0  0  0  0  0  0  0
    2.0904   -1.2893    0.8621 H   0  0  0  0  0  0  0  0  0  0  0  0
  1  2  1  0
  1  6  1  0
  1  7  1  0
  2  3  1  0
  3  4  2  3
  4  8  1  0
  4  9  1  0
  5 13  1  0
 10 11  1  0
 10 14  1  0
 10 15  1  0
 10 16  1  0
 11 12  1  0
 11 17  1  0
 11 18  1  0
 12 13  1  0
 12 19  1  0
 12 20  1  0
M  RAD  1   1   2
M  END
>  <reaction>  (16) 
rmg_rxn_15620

>  <mol_properties>  (16) 
{"0": {"label": "*1", "atom_type": "Cs"}, "1": {"label": "*0", "atom_type": "O2s"}, "4": {"label": "*2", "atom_type": "H0"}, "11": {"label": "*4", "atom_type": "Cs"}, "12": {"label": "*3", "atom_type": "O2s"}}

>  <type>  (16) 
unop_12

>  <geom_source>  (16) 
Heuristics

$$$$

     RDKit          3D

 20 18  0  0  0  0  0  0  0  0999 V2000
   -1.2465    1.5631    0.6208 C   0  0  0  0  0  3  0  0  0  0  0  0
   -1.2465    1.6211   -0.7921 O   0  0  0  0  0  0  0  0  0  0  0  0
   -1.2465    0.3472   -1.3078 N   0  0  0  0  0  0  0  0  0  0  0  0
   -1.2465    0.3472   -2.5714 C   0  0  0  0  0  0  0  0  0  0  0  0
   -0.1759    0.9510    1.0649 H   0  0  0  0  0  0  0  0  0  0  0  0
   -2.1386    1.0529    0.9909 H   0  0  0  0  0  0  0  0  0  0  0  0
   -1.2465    2.5980    0.9586 H   0  0  0  0  0  0  0  0  0  0  0  0
   -1.2465   -0.6199   -3.0562 H   0  0  0  0  0  0  0  0  0  0  0  0
   -1.2465    1.2637   -3.1576 H   0  0  0  0  0  0  0  0  0  0  0  0
    2.6190   -1.7136    0.4094 C   0  0  0  0  0  0  0  0  0  0  0  0
    1.0991   -1.7961    0.4430 C   0  0  0  0  0  0  0  0  0  0  0  0
    0.4771   -0.9681    1.5578 C   0  0  0  0  0  0  0  0  0  0  0  0
    0.7636    0.4137    1.4547 O   0  0  0  0  0  0  0  0  0  0  0  0
    3.0487   -2.1016    1.3358 H   0  0  0  0  0  0  0  0  0  0  0  0
    3.0284   -2.2935   -0.4190 H   0  0  0  0  0  0  0  0  0  0  0  0
    2.9493   -0.6803    0.2994 H   0  0  0  0  0  0  0  0  0  0  0  0
    0.6850   -1.4662   -0.5168 H   0  0  0  0  0  0  0  0  0  0  0  0
    0.7796   -2.8348    0.5709 H   0  0  0  0  0  0  0  0  0  0  0  0
   -0.6067   -1.1369    1.5876 H   0  0  0  0  0  0  0  0  0  0  0  0
    0.8827   -1.2788    2.5232 H   0  0  0  0  0  0  0  0  0  0  0  0
  1  2  1  0
  1  6  1  0
  1  7  1  0
  2  3  1  0
  3  4  2  3
  4  8  1  0
  4  9  1  0
  5 13  1  0
 10 11  1  0
 10 14  1  0
 10 15  1  0
 10 16  1  0
 11 12  1  0
 11 17  1  0
 11 18  1  0
 12 13  1  0
 12 19  1  0
 12 20  1  0
M  RAD  1   1   2
M  END
>  <reaction>  (17) 
rmg_rxn_15620

>  <mol_properties>  (17) 
{"0": {"label": "*1", "atom_type": "Cs"}, "1": {"label": "*0", "atom_type": "O2s"}, "4": {"label": "*2", "atom_type": "H0"}, "11": {"label": "*4", "atom_type": "Cs"}, "12": {"label": "*3", "atom_type": "O2s"}}

>  <type>  (17) 
unop_13

>  <geom_source>  (17) 
Heuristics

$$$$

     RDKit          3D

 20 18  0  0  0  0  0  0  0  0999 V2000
   -1.2876    0.8562   -1.0463 C   0  0  0  0  0  3  0  0  0  0  0  0
   -1.5940   -0.4779   -0.9253 O   0  0  0  0  0  0  0  0  0  0  0  0
   -2.2279   -0.9604    0.1664 N   0  0  0  0  0  0  0  0  0  0  0  0
   -2.3181   -0.2919    1.2325 C   0  0  0  0  0  0  0  0  0  0  0  0
   -0.2726    1.1654   -0.2365 H   0  0  0  0  0  0  0  0  0  0  0  0
   -2.0690    1.5419   -0.7230 H   0  0  0  0  0  0  0  0  0  0  0  0
   -0.9270    1.0274   -2.0535 H   0  0  0  0  0  0  0  0  0  0  0  0
   -2.8459   -0.7697    2.0392 H   0  0  0  0  0  0  0  0  0  0  0  0
   -1.8837    0.6881    1.4104 H   0  0  0  0  0  0  0  0  0  0  0  0
    3.1922   -1.1409   -0.1425 C   0  0  0  0  0  0  0  0  0  0  0  0
    1.8016   -0.6021    0.1610 C   0  0  0  0  0  0  0  0  0  0  0  0
    1.7721    0.9304    0.1359 C   0  0  0  0  0  0  0  0  0  0  0  0
    0.5566    1.4729    0.5014 O   0  0  0  0  0  0  0  0  0  0  0  0
    3.5257   -0.8047   -1.1221 H   0  0  0  0  0  0  0  0  0  0  0  0
    3.9082   -0.7950    0.5998 H   0  0  0  0  0  0  0  0  0  0  0  0
    3.1872   -2.2280   -0.1358 H   0  0  0  0  0  0  0  0  0  0  0  0
    1.0913   -0.9827   -0.5771 H   0  0  0  0  0  0  0  0  0  0  0  0
    1.4739   -0.9428    1.1456 H   0  0  0  0  0  0  0  0  0  0  0  0
    2.4938    1.3178    0.8691 H   0  0  0  0  0  0  0  0  0  0  0  0
    2.0870    1.2938   -0.8576 H   0  0  0  0  0  0  0  0  0  0  0  0
  1  2  1  0
  1  6  1  0
  1  7  1  0
  2  3  1  0
  3  4  2  3
  4  8  1  0
  4  9  1  0
  5 13  1  0
 10 11  1  0
 10 14  1  0
 10 15  1  0
 10 16  1  0
 11 12  1  0
 11 17  1  0
 11 18  1  0
 12 13  1  0
 12 19  1  0
 12 20  1  0
M  RAD  1   1   2
M  END
>  <reaction>  (18) 
rmg_rxn_15620

>  <mol_properties>  (18) 
{"0": {"label": "*1", "atom_type": "Cs"}, "1": {"label": "*0", "atom_type": "O2s"}, "4": {"label": "*2", "atom_type": "H0"}, "11": {"label": "*4", "atom_type": "Cs"}, "12": {"label": "*3", "atom_type": "O2s"}}

>  <type>  (18) 
unop_14

>  <geom_source>  (18) 
Heuristics

$$$$

     RDKit          3D

 20 18  0  0  0  0  0  0  0  0999 V2000
   -1.0896    1.6344    0.3342 C   0  0  0  0  0  3  0  0  0  0  0  0
   -1.0896    1.6923   -1.0786 O   0  0  0  0  0  0  0  0  0  0  0  0
   -1.0896    0.4184   -1.5944 N   0  0  0  0  0  0  0  0  0  0  0  0
   -1.0896    0.4184   -2.8580 C   0  0  0  0  0  0  0  0  0  0  0  0
   -0.0190    1.0222    0.7784 H   0  0  0  0  0  0  0  0  0  0  0  0
   -1.9817    1.1242    0.7044 H   0  0  0  0  0  0  0  0  0  0  0  0
   -1.0896    2.6693    0.6721 H   0  0  0  0  0  0  0  0  0  0  0  0
   -1.0896   -0.5486   -3.3428 H   0  0  0  0  0  0  0  0  0  0  0  0
   -1.0896    1.3349   -3.4441 H   0  0  0  0  0  0  0  0  0  0  0  0
    2.1690   -2.2301    0.8070 C   0  0  0  0  0  0  0  0  0  0  0  0
    0.7136   -1.9597    1.1631 C   0  0  0  0  0  0  0  0  0  0  0  0
    0.5112   -0.6490    1.9089 C   0  0  0  0  0  0  0  0  0  0  0  0
    0.9205    0.4850    1.1681 O   0  0  0  0  0  0  0  0  0  0  0  0
    2.7801   -2.3099    1.7089 H   0  0  0  0  0  0  0  0  0  0  0  0
    2.2730   -3.1609    0.2477 H   0  0  0  0  0  0  0  0  0  0  0  0
    2.5775   -1.4202    0.2019 H   0  0  0  0  0  0  0  0  0  0  0  0
    0.1016   -1.9482    0.2537 H   0  0  0  0  0  0  0  0  0  0  0  0
    0.3197   -2.7698    1.7843 H   0  0  0  0  0  0  0  0  0  0  0  0
   -0.5380   -0.5523    2.2152 H   0  0  0  0  0  0  0  0  0  0  0  0
    1.1187   -0.6392    2.8166 H   0  0  0  0  0  0  0  0  0  0  0  0
  1  2  1  0
  1  6  1  0
  1  7  1  0
  2  3  1  0
  3  4  2  3
  4  8  1  0
  4  9  1  0
  5 13  1  0
 10 11  1  0
 10 14  1  0
 10 15  1  0
 10 16  1  0
 11 12  1  0
 11 17  1  0
 11 18  1  0
 12 13  1  0
 12 19  1  0
 12 20  1  0
M  RAD  1   1   2
M  END
>  <reaction>  (19) 
rmg_rxn_15620

>  <mol_properties>  (19) 
{"0": {"label": "*1", "atom_type": "Cs"}, "1": {"label": "*0", "atom_type": "O2s"}, "4": {"label": "*2", "atom_type": "H0"}, "11": {"label": "*4", "atom_type": "Cs"}, "12": {"label": "*3", "atom_type": "O2s"}}

>  <type>  (19) 
unop_15

>  <geom_source>  (19) 
Heuristics

$$$$

     RDKit          3D

 20 18  0  0  0  0  0  0  0  0999 V2000
   -1.2757    0.8192   -1.0733 C   0  0  0  0  0  3  0  0  0  0  0  0
   -1.5936   -0.5078   -0.9119 O   0  0  0  0  0  0  0  0  0  0  0  0
   -2.2454   -0.9487    0.1869 N   0  0  0  0  0  0  0  0  0  0  0  0
   -2.3439   -0.2443    1.2289 C   0  0  0  0  0  0  0  0  0  0  0  0
   -0.2683    1.1476   -0.2612 H   0  0  0  0  0  0  0  0  0  0  0  0
   -2.0556    1.5210   -0.7828 H   0  0  0  0  0  0  0  0  0  0  0  0
   -0.9014    0.9543   -2.0811 H   0  0  0  0  0  0  0  0  0  0  0  0
   -2.8865   -0.6906    2.0438 H   0  0  0  0  0  0  0  0  0  0  0  0
   -1.9040    0.7377    1.3798 H   0  0  0  0  0  0  0  0  0  0  0  0
    3.2094   -1.1333   -0.1160 C   0  0  0  0  0  0  0  0  0  0  0  0
    1.8130   -0.5994    0.1692 C   0  0  0  0  0  0  0  0  0  0  0  0
    1.7753    0.9325    0.1265 C   0  0  0  0  0  0  0  0  0  0  0  0
    0.5539    1.4719    0.4770 O   0  0  0  0  0  0  0  0  0  0  0  0
    3.5504   -0.8051   -1.0958 H   0  0  0  0  0  0  0  0  0  0  0  0
    3.9165   -0.7761    0.6296 H   0  0  0  0  0  0  0  0  0  0  0  0
    3.2102   -2.2203   -0.0983 H   0  0  0  0  0  0  0  0  0  0  0  0
    1.1113   -0.9921   -0.5708 H   0  0  0  0  0  0  0  0  0  0  0  0
    1.4783   -0.9309    1.1546 H   0  0  0  0  0  0  0  0  0  0  0  0
    2.4892    1.3321    0.8606 H   0  0  0  0  0  0  0  0  0  0  0  0
    2.0953    1.2866   -0.8687 H   0  0  0  0  0  0  0  0  0  0  0  0
  1  2  1  0
  1  6  1  0
  1  7  1  0
  2  3  1  0
  3  4  2  3
  4  8  1  0
  4  9  1  0
  5 13  1  0
 10 11  1  0
 10 14  1  0
 10 15  1  0
 10 16  1  0
 11 12  1  0
 11 17  1  0
 11 18  1  0
 12 13  1  0
 12 19  1  0
 12 20  1  0
M  RAD  1   1   2
M  END
>  <reaction>  (20) 
rmg_rxn_15620

>  <mol_properties>  (20) 
{"0": {"label": "*1", "atom_type": "Cs"}, "1": {"label": "*0", "atom_type": "O2s"}, "4": {"label": "*2", "atom_type": "H0"}, "11": {"label": "*4", "atom_type": "Cs"}, "12": {"label": "*3", "atom_type": "O2s"}}

>  <type>  (20) 
unop_16

>  <geom_source>  (20) 
Heuristics

$$$$

     RDKit          3D

 20 18  0  0  0  0  0  0  0  0999 V2000
   -1.1313    0.1244    0.1315 C   0  0  0  0  0  3  0  0  0  0  0  0
   -1.1313    0.1823   -1.2814 O   0  0  0  0  0  0  0  0  0  0  0  0
   -1.1313   -1.0915   -1.7972 N   0  0  0  0  0  0  0  0  0  0  0  0
   -1.1313   -1.0915   -3.0608 C   0  0  0  0  0  0  0  0  0  0  0  0
   -0.0607   -0.4878    0.5756 H   0  0  0  0  0  0  0  0  0  0  0  0
   -2.0234   -0.3858    0.5016 H   0  0  0  0  0  0  0  0  0  0  0  0
   -1.1313    1.1593    0.4693 H   0  0  0  0  0  0  0  0  0  0  0  0
   -1.1313   -2.0586   -3.5456 H   0  0  0  0  0  0  0  0  0  0  0  0
   -1.1313   -0.1751   -3.6469 H   0  0  0  0  0  0  0  0  0  0  0  0
    0.4030    1.5545    2.4420 C   0  0  0  0  0  0  0  0  0  0  0  0
    1.3607    1.3607    1.2744 C   0  0  0  0  0  0  0  0  0  0  0  0
    1.8943   -0.0600    1.1646 C   0  0  0  0  0  0  0  0  0  0  0  0
    0.8788   -1.0250    0.9653 O   0  0  0  0  0  0  0  0  0  0  0  0
    0.9051    1.3569    3.3919 H   0  0  0  0  0  0  0  0  0  0  0  0
    0.0173    2.5745    2.4721 H   0  0  0  0  0  0  0  0  0  0  0  0
   -0.4433    0.8711    2.3673 H   0  0  0  0  0  0  0  0  0  0  0  0
    0.8634    1.6262    0.3343 H   0  0  0  0  0  0  0  0  0  0  0  0
    2.2141    2.0390    1.3689 H   0  0  0  0  0  0  0  0  0  0  0  0
    2.6433   -0.1164    0.3647 H   0  0  0  0  0  0  0  0  0  0  0  0
    2.3889   -0.3452    2.0958 H   0  0  0  0  0  0  0  0  0  0  0  0
  1  2  1  0
  1  6  1  0
  1  7  1  0
  2  3  1  0
  3  4  2  3
  4  8  1  0
  4  9  1  0
  5 13  1  0
 10 11  1  0
 10 14  1  0
 10 15  1  0
 10 16  1  0
 11 12  1  0
 11 17  1  0
 11 18  1  0
 12 13  1  0
 12 19  1  0
 12 20  1  0
M  RAD  1   1   2
M  END
>  <reaction>  (21) 
rmg_rxn_15620

>  <mol_properties>  (21) 
{"0": {"label": "*1", "atom_type": "Cs"}, "1": {"label": "*0", "atom_type": "O2s"}, "4": {"label": "*2", "atom_type": "H0"}, "11": {"label": "*4", "atom_type": "Cs"}, "12": {"label": "*3", "atom_type": "O2s"}}

>  <type>  (21) 
unop_17

>  <geom_source>  (21) 
Heuristics

$$$$

     RDKit          3D

 20 18  0  0  0  0  0  0  0  0999 V2000
   -1.2753   -0.8212    1.0720 C   0  0  0  0  0  3  0  0  0  0  0  0
   -1.5918    0.5064    0.9123 O   0  0  0  0  0  0  0  0  0  0  0  0
   -2.2438    0.9496   -0.1853 N   0  0  0  0  0  0  0  0  0  0  0  0
   -2.3451    0.2464   -1.2278 C   0  0  0  0  0  0  0  0  0  0  0  0
   -0.2685   -1.1493    0.2592 H   0  0  0  0  0  0  0  0  0  0  0  0
   -2.0562   -1.5218    0.7811 H   0  0  0  0  0  0  0  0  0  0  0  0
   -0.9005   -0.9579    2.0793 H   0  0  0  0  0  0  0  0  0  0  0  0
   -2.8878    0.6946   -2.0416 H   0  0  0  0  0  0  0  0  0  0  0  0
   -1.9076   -0.7365   -1.3801 H   0  0  0  0  0  0  0  0  0  0  0  0
    3.2071    1.1347    0.1180 C   0  0  0  0  0  0  0  0  0  0  0  0
    1.8122    0.5995   -0.1719 C   0  0  0  0  0  0  0  0  0  0  0  0
    1.7751   -0.9324   -0.1263 C   0  0  0  0  0  0  0  0  0  0  0  0
    0.5548   -1.4731   -0.4782 O   0  0  0  0  0  0  0  0  0  0  0  0
    3.9178    0.7753   -0.6231 H   0  0  0  0  0  0  0  0  0  0  0  0
    3.2077    2.2216    0.0968 H   0  0  0  0  0  0  0  0  0  0  0  0
    3.5435    0.8098    1.1005 H   0  0  0  0  0  0  0  0  0  0  0  0
    1.1073    0.9933    0.5644 H   0  0  0  0  0  0  0  0  0  0  0  0
    1.4815    0.9289   -1.1593 H   0  0  0  0  0  0  0  0  0  0  0  0
    2.4908   -1.3331   -0.8582 H   0  0  0  0  0  0  0  0  0  0  0  0
    2.0933   -1.2844    0.8702 H   0  0  0  0  0  0  0  0  0  0  0  0
  1  2  1  0
  1  6  1  0
  1  7  1  0
  2  3  1  0
  3  4  2  3
  4  8  1  0
  4  9  1  0
  5 13  1  0
 10 11  1  0
 10 14  1  0
 10 15  1  0
 10 16  1  0
 11 12  1  0
 11 17  1  0
 11 18  1  0
 12 13  1  0
 12 19  1  0
 12 20  1  0
M  RAD  1   1   2
M  END
>  <reaction>  (22) 
rmg_rxn_15620

>  <mol_properties>  (22) 
{"0": {"label": "*1", "atom_type": "Cs"}, "1": {"label": "*0", "atom_type": "O2s"}, "4": {"label": "*2", "atom_type": "H0"}, "11": {"label": "*4", "atom_type": "Cs"}, "12": {"label": "*3", "atom_type": "O2s"}}

>  <type>  (22) 
unop_18

>  <geom_source>  (22) 
Heuristics

$$$$

     RDKit          3D

 20 18  0  0  0  0  0  0  0  0999 V2000
   -1.5221    0.9802    0.9585 C   0  0  0  0  0  3  0  0  0  0  0  0
   -1.5221    1.0381   -0.4544 O   0  0  0  0  0  0  0  0  0  0  0  0
   -1.5221   -0.2358   -0.9701 N   0  0  0  0  0  0  0  0  0  0  0  0
   -1.5221   -0.2358   -2.2338 C   0  0  0  0  0  0  0  0  0  0  0  0
   -0.4515    0.3680    1.4026 H   0  0  0  0  0  0  0  0  0  0  0  0
   -2.4142    0.4700    1.3286 H   0  0  0  0  0  0  0  0  0  0  0  0
   -1.5221    2.0151    1.2963 H   0  0  0  0  0  0  0  0  0  0  0  0
   -1.5221   -1.2028   -2.7186 H   0  0  0  0  0  0  0  0  0  0  0  0
   -1.5221    0.6807   -2.8199 H   0  0  0  0  0  0  0  0  0  0  0  0
    3.0026    0.1298    0.1650 C   0  0  0  0  0  0  0  0  0  0  0  0
    1.7088   -0.5194   -0.3068 C   0  0  0  0  0  0  0  0  0  0  0  0
    0.8908   -1.1213    0.8262 C   0  0  0  0  0  0  0  0  0  0  0  0
    0.4880   -0.1692    1.7923 O   0  0  0  0  0  0  0  0  0  0  0  0
    3.6561   -0.6073    0.6375 H   0  0  0  0  0  0  0  0  0  0  0  0
    3.5476    0.5766   -0.6677 H   0  0  0  0  0  0  0  0  0  0  0  0
    2.8001    0.9103    0.8991 H   0  0  0  0  0  0  0  0  0  0  0  0
    1.0926    0.2160   -0.8369 H   0  0  0  0  0  0  0  0  0  0  0  0
    1.9253   -1.3120   -1.0294 H   0  0  0  0  0  0  0  0  0  0  0  0
    0.0200   -1.6495    0.4178 H   0  0  0  0  0  0  0  0  0  0  0  0
    1.4911   -1.8535    1.3709 H   0  0  0  0  0  0  0  0  0  0  0  0
  1  2  1  0
  1  6  1  0
  1  7  1  0
  2  3  1  0
  3  4  2  3
  4  8  1  0
  4  9  1  0
  5 13  1  0
 10 11  1  0
 10 14  1  0
 10 15  1  0
 10 16  1  0
 11 12  1  0
 11 17  1  0
 11 18  1  0
 12 13  1  0
 12 19  1  0
 12 20  1  0
M  RAD  1   1   2
M  END
>  <reaction>  (23) 
rmg_rxn_15620

>  <mol_properties>  (23) 
{"0": {"label": "*1", "atom_type": "Cs"}, "1": {"label": "*0", "atom_type": "O2s"}, "4": {"label": "*2", "atom_type": "H0"}, "11": {"label": "*4", "atom_type": "Cs"}, "12": {"label": "*3", "atom_type": "O2s"}}

>  <type>  (23) 
unop_19

>  <geom_source>  (23) 
Heuristics

$$$$

     RDKit          3D

 20 18  0  0  0  0  0  0  0  0999 V2000
   -1.3043    0.1341    0.4407 C   0  0  0  0  0  3  0  0  0  0  0  0
   -1.3043    0.1921   -0.9721 O   0  0  0  0  0  0  0  0  0  0  0  0
   -1.3043   -1.0818   -1.4879 N   0  0  0  0  0  0  0  0  0  0  0  0
   -1.3043   -1.0818   -2.7515 C   0  0  0  0  0  0  0  0  0  0  0  0
   -0.2337   -0.4780    0.8849 H   0  0  0  0  0  0  0  0  0  0  0  0
   -2.1964   -0.3760    0.8109 H   0  0  0  0  0  0  0  0  0  0  0  0
   -1.3043    1.1690    0.7785 H   0  0  0  0  0  0  0  0  0  0  0  0
   -1.3043   -2.0489   -3.2363 H   0  0  0  0  0  0  0  0  0  0  0  0
   -1.3043   -0.1653   -3.3376 H   0  0  0  0  0  0  0  0  0  0  0  0
    1.1103    1.9092    1.8616 C   0  0  0  0  0  0  0  0  0  0  0  0
    1.5714    1.1811    0.6065 C   0  0  0  0  0  0  0  0  0  0  0  0
    1.8442   -0.2981    0.8362 C   0  0  0  0  0  0  0  0  0  0  0  0
    0.7058   -1.0153    1.2746 O   0  0  0  0  0  0  0  0  0  0  0  0
    1.8795    1.8710    2.6364 H   0  0  0  0  0  0  0  0  0  0  0  0
    0.8952    2.9583    1.6537 H   0  0  0  0  0  0  0  0  0  0  0  0
    0.2090    1.4495    2.2680 H   0  0  0  0  0  0  0  0  0  0  0  0
    0.8189    1.2841   -0.1839 H   0  0  0  0  0  0  0  0  0  0  0  0
    2.4855    1.6399    0.2176 H   0  0  0  0  0  0  0  0  0  0  0  0
    2.2563   -0.7475   -0.0760 H   0  0  0  0  0  0  0  0  0  0  0  0
    2.5885   -0.4214    1.6261 H   0  0  0  0  0  0  0  0  0  0  0  0
  1  2  1  0
  1  6  1  0
  1  7  1  0
  2  3  1  0
  3  4  2  3
  4  8  1  0
  4  9  1  0
  5 13  1  0
 10 11  1  0
 10 14  1  0
 10 15  1  0
 10 16  1  0
 11 12  1  0
 11 17  1  0
 11 18  1  0
 12 13  1  0
 12 19  1  0
 12 20  1  0
M  RAD  1   1   2
M  END
>  <reaction>  (24) 
rmg_rxn_15620

>  <mol_properties>  (24) 
{"0": {"label": "*1", "atom_type": "Cs"}, "1": {"label": "*0", "atom_type": "O2s"}, "4": {"label": "*2", "atom_type": "H0"}, "11": {"label": "*4", "atom_type": "Cs"}, "12": {"label": "*3", "atom_type": "O2s"}}

>  <type>  (24) 
unop_20

>  <geom_source>  (24) 
Heuristics

$$$$

     RDKit          3D

 20 18  0  0  0  0  0  0  0  0999 V2000
   -0.9169    1.5611    0.0501 C   0  0  0  0  0  3  0  0  0  0  0  0
   -0.9170    1.6190   -1.3628 O   0  0  0  0  0  0  0  0  0  0  0  0
   -0.9170    0.3451   -1.8785 N   0  0  0  0  0  0  0  0  0  0  0  0
   -0.9170    0.3451   -3.1421 C   0  0  0  0  0  0  0  0  0  0  0  0
    0.1536    0.9489    0.4942 H   0  0  0  0  0  0  0  0  0  0  0  0
   -1.8091    1.0509    0.4202 H   0  0  0  0  0  0  0  0  0  0  0  0
   -0.9170    2.5960    0.3879 H   0  0  0  0  0  0  0  0  0  0  0  0
   -0.9170   -0.6219   -3.6270 H   0  0  0  0  0  0  0  0  0  0  0  0
   -0.9170    1.2616   -3.7283 H   0  0  0  0  0  0  0  0  0  0  0  0
    1.4122   -2.5518    1.3042 C   0  0  0  0  0  0  0  0  0  0  0  0
    0.3361   -1.6748    1.9294 C   0  0  0  0  0  0  0  0  0  0  0  0
    0.7684   -0.2264    2.1044 C   0  0  0  0  0  0  0  0  0  0  0  0
    1.0932    0.4117    0.8840 O   0  0  0  0  0  0  0  0  0  0  0  0
    2.3006   -2.5869    1.9389 H   0  0  0  0  0  0  0  0  0  0  0  0
    1.0580   -3.5743    1.1658 H   0  0  0  0  0  0  0  0  0  0  0  0
    1.7156   -2.1607    0.3326 H   0  0  0  0  0  0  0  0  0  0  0  0
   -0.5720   -1.7019    1.3161 H   0  0  0  0  0  0  0  0  0  0  0  0
    0.0520   -2.0667    2.9107 H   0  0  0  0  0  0  0  0  0  0  0  0
   -0.0101    0.3333    2.6379 H   0  0  0  0  0  0  0  0  0  0  0  0
    1.6769   -0.1793    2.7089 H   0  0  0  0  0  0  0  0  0  0  0  0
  1  2  1  0
  1  6  1  0
  1  7  1  0
  2  3  1  0
  3  4  2  3
  4  8  1  0
  4  9  1  0
  5 13  1  0
 10 11  1  0
 10 14  1  0
 10 15  1  0
 10 16  1  0
 11 12  1  0
 11 17  1  0
 11 18  1  0
 12 13  1  0
 12 19  1  0
 12 20  1  0
M  RAD  1   1   2
M  END
>  <reaction>  (25) 
rmg_rxn_15620

>  <mol_properties>  (25) 
{"0": {"label": "*1", "atom_type": "Cs"}, "1": {"label": "*0", "atom_type": "O2s"}, "4": {"label": "*2", "atom_type": "H0"}, "11": {"label": "*4", "atom_type": "Cs"}, "12": {"label": "*3", "atom_type": "O2s"}}

>  <type>  (25) 
unop_21

>  <geom_source>  (25) 
Heuristics

$$$$

     RDKit          3D

 20 18  0  0  0  0  0  0  0  0999 V2000
   -1.5291    0.5895    0.9007 C   0  0  0  0  0  3  0  0  0  0  0  0
   -1.5291    0.6474   -0.5122 O   0  0  0  0  0  0  0  0  0  0  0  0
   -1.5291   -0.6265   -1.0280 N   0  0  0  0  0  0  0  0  0  0  0  0
   -1.5291   -0.6265   -2.2916 C   0  0  0  0  0  0  0  0  0  0  0  0
   -0.4585   -0.0227    1.3448 H   0  0  0  0  0  0  0  0  0  0  0  0
   -2.4212    0.0793    1.2708 H   0  0  0  0  0  0  0  0  0  0  0  0
   -1.5291    1.6244    1.2385 H   0  0  0  0  0  0  0  0  0  0  0  0
   -1.5291   -1.5936   -2.7764 H   0  0  0  0  0  0  0  0  0  0  0  0
   -1.5291    0.2900   -2.8777 H   0  0  0  0  0  0  0  0  0  0  0  0
    2.6281    1.1956    0.5646 C   0  0  0  0  0  0  0  0  0  0  0  0
    1.7493    0.2257   -0.2131 C   0  0  0  0  0  0  0  0  0  0  0  0
    1.2655   -0.9497    0.6233 C   0  0  0  0  0  0  0  0  0  0  0  0
    0.4810   -0.5599    1.7345 O   0  0  0  0  0  0  0  0  0  0  0  0
    3.5333    0.6983    0.9205 H   0  0  0  0  0  0  0  0  0  0  0  0
    2.9311    2.0399   -0.0563 H   0  0  0  0  0  0  0  0  0  0  0  0
    2.1004    1.5842    1.4361 H   0  0  0  0  0  0  0  0  0  0  0  0
    0.8788    0.7532   -0.6202 H   0  0  0  0  0  0  0  0  0  0  0  0
    2.2947   -0.1708   -1.0749 H   0  0  0  0  0  0  0  0  0  0  0  0
    0.7145   -1.6564   -0.0099 H   0  0  0  0  0  0  0  0  0  0  0  0
    2.1202   -1.4849    1.0431 H   0  0  0  0  0  0  0  0  0  0  0  0
  1  2  1  0
  1  6  1  0
  1  7  1  0
  2  3  1  0
  3  4  2  3
  4  8  1  0
  4  9  1  0
  5 13  1  0
 10 11  1  0
 10 14  1  0
 10 15  1  0
 10 16  1  0
 11 12  1  0
 11 17  1  0
 11 18  1  0
 12 13  1  0
 12 19  1  0
 12 20  1  0
M  RAD  1   1   2
M  END
>  <reaction>  (26) 
rmg_rxn_15620

>  <mol_properties>  (26) 
{"0": {"label": "*1", "atom_type": "Cs"}, "1": {"label": "*0", "atom_type": "O2s"}, "4": {"label": "*2", "atom_type": "H0"}, "11": {"label": "*4", "atom_type": "Cs"}, "12": {"label": "*3", "atom_type": "O2s"}}

>  <type>  (26) 
unop_22

>  <geom_source>  (26) 
Heuristics

$$$$

     RDKit          3D

 20 18  0  0  0  0  0  0  0  0999 V2000
   -1.2798    0.8320    1.0634 C   0  0  0  0  0  3  0  0  0  0  0  0
   -1.5959   -0.4972    0.9167 O   0  0  0  0  0  0  0  0  0  0  0  0
   -2.2436   -0.9519   -0.1789 N   0  0  0  0  0  0  0  0  0  0  0  0
   -2.3397   -0.2601   -1.2293 C   0  0  0  0  0  0  0  0  0  0  0  0
   -0.2697    1.1519    0.2515 H   0  0  0  0  0  0  0  0  0  0  0  0
   -0.9093    0.9794    2.0708 H   0  0  0  0  0  0  0  0  0  0  0  0
   -2.0594    1.5295    0.7617 H   0  0  0  0  0  0  0  0  0  0  0  0
   -2.8787   -0.7171   -2.0408 H   0  0  0  0  0  0  0  0  0  0  0  0
   -1.9006    0.7205   -1.3907 H   0  0  0  0  0  0  0  0  0  0  0  0
    3.2084   -1.1338    0.1251 C   0  0  0  0  0  0  0  0  0  0  0  0
    1.8133   -0.6009   -0.1678 C   0  0  0  0  0  0  0  0  0  0  0  0
    1.7750    0.9310   -0.1286 C   0  0  0  0  0  0  0  0  0  0  0  0
    0.5556    1.4699   -0.4863 O   0  0  0  0  0  0  0  0  0  0  0  0
    3.2098   -2.2208    0.1091 H   0  0  0  0  0  0  0  0  0  0  0  0
    3.9190   -0.7774   -0.6174 H   0  0  0  0  0  0  0  0  0  0  0  0
    3.5444   -0.8040    1.1060 H   0  0  0  0  0  0  0  0  0  0  0  0
    1.4836   -0.9345   -1.1541 H   0  0  0  0  0  0  0  0  0  0  0  0
    1.1081   -0.9922    0.5695 H   0  0  0  0  0  0  0  0  0  0  0  0
    2.0903    1.2873    0.8673 H   0  0  0  0  0  0  0  0  0  0  0  0
    2.4927    1.3291   -0.8601 H   0  0  0  0  0  0  0  0  0  0  0  0
  1  2  1  0
  1  6  1  0
  1  7  1  0
  2  3  1  0
  3  4  2  3
  4  8  1  0
  4  9  1  0
  5 13  1  0
 10 11  1  0
 10 14  1  0
 10 15  1  0
 10 16  1  0
 11 12  1  0
 11 17  1  0
 11 18  1  0
 12 13  1  0
 12 19  1  0
 12 20  1  0
M  RAD  1   1   2
M  END
>  <reaction>  (27) 
rmg_rxn_15620

>  <mol_properties>  (27) 
{"0": {"label": "*1", "atom_type": "Cs"}, "1": {"label": "*0", "atom_type": "O2s"}, "4": {"label": "*2", "atom_type": "H0"}, "11": {"label": "*4", "atom_type": "Cs"}, "12": {"label": "*3", "atom_type": "O2s"}}

>  <type>  (27) 
unop_23

>  <geom_source>  (27) 
Heuristics

$$$$

     RDKit          3D

 20 18  0  0  0  0  0  0  0  0999 V2000
    0.5545   -1.6030    0.2556 O   0  0  0  0  0  0  0  0  0  0  0  0
   -1.9308   -1.0055   -1.0841 O   0  0  0  0  0  0  0  0  0  0  0  0
   -3.2768   -1.2196   -0.8309 N   0  0  0  0  0  0  0  0  0  0  0  0
    1.5717    0.5542    0.5333 C   0  0  0  0  0  0  0  0  0  0  0  0
    1.6143   -0.7989   -0.1784 C   0  0  0  0  0  0  0  0  0  0  0  0
    2.7325    1.4442    0.0991 C   0  0  0  0  0  0  0  0  0  0  0  0
   -1.1336   -0.0630   -0.3722 C   0  0  0  0  0  3  0  0  0  0  0  0
   -3.9659   -0.5953    0.0743 C   0  0  0  0  0  0  0  0  0  0  0  0
    1.6257    0.3959    1.6323 H   0  0  0  0  0  0  0  0  0  0  0  0
    0.6140    1.0677    0.2989 H   0  0  0  0  0  0  0  0  0  0  0  0
    1.5548   -0.6584   -1.2807 H   0  0  0  0  0  0  0  0  0  0  0  0
    2.5694   -1.3152    0.0567 H   0  0  0  0  0  0  0  0  0  0  0  0
    3.7022    0.9619    0.3467 H   0  0  0  0  0  0  0  0  0  0  0  0
    2.6853    1.6337   -0.9945 H   0  0  0  0  0  0  0  0  0  0  0  0
    2.6739    2.4171    0.6311 H   0  0  0  0  0  0  0  0  0  0  0  0
   -1.0958   -0.3255    0.7059 H   0  0  0  0  0  0  0  0  0  0  0  0
   -1.5305    0.9641   -0.5145 H   0  0  0  0  0  0  0  0  0  0  0  0
   -5.0141   -0.8290    0.2007 H   0  0  0  0  0  0  0  0  0  0  0  0
   -3.5222    0.1572    0.7113 H   0  0  0  0  0  0  0  0  0  0  0  0
   -0.4286   -1.1825   -0.2907 H   0  0  0  0  0  0  0  0  0  0  0  0
  1  5  1  0
  1 20  1  0
  2  7  1  0
  2  3  1  0
  3  8  2  3
  4  6  1  0
  4  5  1  0
  4  9  1  0
  4 10  1  0
  5 11  1  0
  5 12  1  0
  6 13  1  0
  6 14  1  0
  6 15  1  0
  7 16  1  0
  7 17  1  0
  8 18  1  0
  8 19  1  0
M  RAD  1   7   2
M  END
>  <reaction>  (28) 
rmg_rxn_15620

>  <mol_properties>  (28) 
{"0": {"label": "*1", "atom_type": "Cs"}, "1": {"label": "*0", "atom_type": "O2s"}, "4": {"label": "*2", "atom_type": "H0"}, "11": {"label": "*4", "atom_type": "Cs"}, "12": {"label": "*3", "atom_type": "O2s"}}

>  <type>  (28) 
unop_24

>  <geom_source>  (28) 
AutoTST

$$$$

     RDKit          3D

 20 18  0  0  0  0  0  0  0  0999 V2000
   -1.4387    0.2921    0.7111 C   0  0  0  0  0  3  0  0  0  0  0  0
   -1.4387    0.3500   -0.7018 O   0  0  0  0  0  0  0  0  0  0  0  0
   -1.4387   -0.9238   -1.2175 N   0  0  0  0  0  0  0  0  0  0  0  0
   -1.4387   -0.9238   -2.4811 C   0  0  0  0  0  0  0  0  0  0  0  0
   -0.3681   -0.3201    1.1552 H   0  0  0  0  0  0  0  0  0  0  0  0
   -2.3308   -0.2181    1.0812 H   0  0  0  0  0  0  0  0  0  0  0  0
   -1.4387    1.3270    1.0489 H   0  0  0  0  0  0  0  0  0  0  0  0
   -1.4387   -1.8909   -2.9660 H   0  0  0  0  0  0  0  0  0  0  0  0
   -1.4387   -0.0074   -3.0673 H   0  0  0  0  0  0  0  0  0  0  0  0
    1.8917    1.8259    1.2015 C   0  0  0  0  0  0  0  0  0  0  0  0
    1.6777    0.7921    0.1045 C   0  0  0  0  0  0  0  0  0  0  0  0
    1.6252   -0.6360    0.6269 C   0  0  0  0  0  0  0  0  0  0  0  0
    0.5714   -0.8573    1.5449 O   0  0  0  0  0  0  0  0  0  0  0  0
    2.8473    1.6639    1.7055 H   0  0  0  0  0  0  0  0  0  0  0  0
    1.8937    2.8386    0.7958 H   0  0  0  0  0  0  0  0  0  0  0  0
    1.1059    1.7610    1.9547 H   0  0  0  0  0  0  0  0  0  0  0  0
    0.7482    1.0063   -0.4356 H   0  0  0  0  0  0  0  0  0  0  0  0
    2.4809    0.8549   -0.6359 H   0  0  0  0  0  0  0  0  0  0  0  0
    1.5594   -1.3385   -0.2135 H   0  0  0  0  0  0  0  0  0  0  0  0
    2.5420   -0.8664    1.1742 H   0  0  0  0  0  0  0  0  0  0  0  0
  1  2  1  0
  1  6  1  0
  1  7  1  0
  2  3  1  0
  3  4  2  3
  4  8  1  0
  4  9  1  0
  5 13  1  0
 10 11  1  0
 10 14  1  0
 10 15  1  0
 10 16  1  0
 11 12  1  0
 11 17  1  0
 11 18  1  0
 12 13  1  0
 12 19  1  0
 12 20  1  0
M  RAD  1   1   2
M  END
>  <reaction>  (29) 
rmg_rxn_15620

>  <mol_properties>  (29) 
{"0": {"label": "*1", "atom_type": "Cs"}, "1": {"label": "*0", "atom_type": "O2s"}, "4": {"label": "*2", "atom_type": "H0"}, "11": {"label": "*4", "atom_type": "Cs"}, "12": {"label": "*3", "atom_type": "O2s"}}

>  <type>  (29) 
unop_25

>  <geom_source>  (29) 
gaussian_log

$$$$
