
     RDKit          3D

  3  2  0  0  0  0  0  0  0  0999 V2000
    0.0002    0.4233    0.0000 N   0  0  0  0  0  2  0  0  0  0  0  0
   -0.8051   -0.2112    0.0000 H   0  0  0  0  0  0  0  0  0  0  0  0
    0.8049   -0.2121    0.0000 H   0  0  0  0  0  0  0  0  0  0  0  0
  1  2  1  0
  1  3  1  0
M  RAD  1   1   2
M  END
>  <reaction>  (1) 
rmg_rxn_15653

>  <mol_properties>  (1) 
{"0": {"label": "donator", "atom_type": "N3s"}, "1": {"label": "d_hydrogen", "atom_type": "H0"}}

>  <type>  (1) 
r1h

$$$$

     RDKit          3D

  8  7  0  0  0  0  0  0  0  0999 V2000
    1.7077   -0.1964   -0.0607 C   0  0  0  0  0  3  0  0  0  0  0  0
    0.4209   -0.4565    0.2808 O   0  0  0  0  0  0  0  0  0  0  0  0
   -0.4607    0.4385   -0.2968 N   0  0  0  0  0  0  0  0  0  0  0  0
   -1.6584    0.1416   -0.0244 C   0  0  0  0  0  0  0  0  0  0  0  0
    2.4163   -0.7685    0.5170 H   0  0  0  0  0  0  0  0  0  0  0  0
    1.9214    0.7645   -0.5045 H   0  0  0  0  0  0  0  0  0  0  0  0
   -2.4185    0.7953   -0.4307 H   0  0  0  0  0  0  0  0  0  0  0  0
   -1.9286   -0.7185    0.5831 H   0  0  0  0  0  0  0  0  0  0  0  0
  1  2  1  0
  1  5  1  0
  1  6  1  0
  2  3  1  0
  3  4  2  3
  4  7  1  0
  4  8  1  0
M  RAD  1   1   2
M  END
>  <reaction>  (2) 
rmg_rxn_15653

>  <mol_properties>  (2) 
{"0": {"label": "acceptor", "atom_type": "Cs"}}

>  <type>  (2) 
r2

$$$$

     RDKit          3D

  9  8  0  0  0  0  0  0  0  0999 V2000
   -1.5470   -0.0755   -0.1976 C   0  0  0  0  0  0  0  0  0  0  0  0
   -0.2885    0.4507    0.1749 O   0  0  0  0  0  0  0  0  0  0  0  0
   -0.1502    1.7216   -0.3294 N   0  0  0  0  0  0  0  0  0  0  0  0
    0.9626    2.2353   -0.0219 C   0  0  0  0  0  0  0  0  0  0  0  0
   -1.6392   -0.1356   -1.2844 H   0  0  0  0  0  0  0  0  0  0  0  0
   -2.3597    0.5337    0.2044 H   0  0  0  0  0  0  0  0  0  0  0  0
   -1.5879   -1.0750    0.2318 H   0  0  0  0  0  0  0  0  0  0  0  0
    1.1497    3.2381   -0.3820 H   0  0  0  0  0  0  0  0  0  0  0  0
    1.7060    1.7101    0.5739 H   0  0  0  0  0  0  0  0  0  0  0  0
  1  2  1  0
  1  5  1  0
  1  6  1  0
  1  7  1  0
  2  3  1  0
  3  4  2  3
  4  8  1  0
  4  9  1  0
M  END
>  <reaction>  (3) 
rmg_rxn_15653

>  <mol_properties>  (3) 
{"0": {"label": "a_hydrogen", "atom_type": "H0"}, "1": {"label": "acceptor", "atom_type": "Cs"}}

>  <type>  (3) 
r2h

$$$$

     RDKit          3D

 11  9  0  0  0  0  0  0  0  0999 V2000
    0.3386   -2.5865   -0.2138 N   0  0  0  0  0  2  0  0  0  0  0  0
    0.7383   -1.5550    0.3742 H   0  0  0  0  0  0  0  0  0  0  0  0
   -0.6080   -2.2599   -0.4682 H   0  0  0  0  0  0  0  0  0  0  0  0
    0.9775   -0.3443    0.9350 C   0  0  0  0  0  3  0  0  0  0  0  0
    0.6429    0.6503    0.0376 O   0  0  0  0  0  0  0  0  0  0  0  0
   -0.7297    0.7629   -0.0760 N   0  0  0  0  0  0  0  0  0  0  0  0
   -1.0535    1.6505   -0.9145 C   0  0  0  0  0  0  0  0  0  0  0  0
    2.0515   -0.3181    1.0954 H   0  0  0  0  0  0  0  0  0  0  0  0
    0.3718   -0.3380    1.8405 H   0  0  0  0  0  0  0  0  0  0  0  0
   -2.1132    1.8086   -1.0637 H   0  0  0  0  0  0  0  0  0  0  0  0
   -0.3195    2.2346   -1.4645 H   0  0  0  0  0  0  0  0  0  0  0  0
  1  2  1  0
  1  3  1  0
  4  5  1  0
  4  8  1  0
  4  9  1  0
  5  6  1  0
  6  7  2  3
  7 10  1  0
  7 11  1  0
M  RAD  2   1   2   4   2
M  END
>  <reaction>  (4) 
rmg_rxn_15653

>  <mol_properties>  (4) 
{"0": {"label": "*1", "atom_type": "N3s"}, "1": {"label": "*2", "atom_type": "H0"}, "2": {"label": "*0", "atom_type": "H0"}, "3": {"label": "*3", "atom_type": "Cs"}, "4": {"label": "*4", "atom_type": "O2s"}}

>  <type>  (4) 
ts

$$$$

     RDKit          3D

 11  9  0  0  0  0  0  0  0  0999 V2000
    2.4491   -0.8757    0.1121 N   0  0  0  0  0  2  0  0  0  0  0  0
    1.8086    0.0915    0.0880 H   0  0  0  0  0  0  0  0  0  0  0  0
    1.9070   -1.5995   -0.3574 H   0  0  0  0  0  0  0  0  0  0  0  0
    0.8764    0.9799   -0.2179 C   0  0  0  0  0  3  0  0  0  0  0  0
   -0.2886    0.6506    0.3743 O   0  0  0  0  0  0  0  0  0  0  0  0
   -1.0871   -0.1759   -0.4183 N   0  0  0  0  0  0  0  0  0  0  0  0
   -2.1387   -0.5971    0.1303 C   0  0  0  0  0  0  0  0  0  0  0  0
    0.8737    0.9679   -1.3044 H   0  0  0  0  0  0  0  0  0  0  0  0
    1.3120    1.8541    0.2529 H   0  0  0  0  0  0  0  0  0  0  0  0
   -2.7698   -1.2282   -0.4702 H   0  0  0  0  0  0  0  0  0  0  0  0
   -2.4354   -0.3617    1.1474 H   0  0  0  0  0  0  0  0  0  0  0  0
  1  2  1  0
  1  3  1  0
  4  5  1  0
  4  8  1  0
  4  9  1  0
  5  6  1  0
  6  7  2  3
  7 10  1  0
  7 11  1  0
M  RAD  2   1   2   4   2
M  END
>  <reaction>  (5) 
rmg_rxn_15653

>  <mol_properties>  (5) 
{"0": {"label": "*1", "atom_type": "N3s"}, "1": {"label": "*2", "atom_type": "H0"}, "2": {"label": "*0", "atom_type": "H0"}, "3": {"label": "*3", "atom_type": "Cs"}, "4": {"label": "*4", "atom_type": "O2s"}}

>  <type>  (5) 
unop_1

>  <geom_source>  (5) 
crest_best.xyz

$$$$

     RDKit          3D

 11  9  0  0  0  0  0  0  0  0999 V2000
    0.7965   -2.4708   -1.4236 N   0  0  0  0  0  2  0  0  0  0  0  0
    0.7965   -1.2743   -1.1371 H   0  0  0  0  0  0  0  0  0  0  0  0
    0.7965   -2.4708   -2.4489 H   0  0  0  0  0  0  0  0  0  0  0  0
    0.7965   -0.0039   -0.8329 C   0  0  0  0  0  3  0  0  0  0  0  0
   -0.3822    0.2105   -0.0818 O   0  0  0  0  0  0  0  0  0  0  0  0
   -0.1325    1.1124    0.9247 N   0  0  0  0  0  0  0  0  0  0  0  0
   -1.1595    1.3370    1.6258 C   0  0  0  0  0  0  0  0  0  0  0  0
    1.1401    0.9248   -1.2942 H   0  0  0  0  0  0  0  0  0  0  0  0
    1.5904   -0.4151   -0.2053 H   0  0  0  0  0  0  0  0  0  0  0  0
   -1.0457    2.0382    2.4416 H   0  0  0  0  0  0  0  0  0  0  0  0
   -2.1171    0.8583    1.4327 H   0  0  0  0  0  0  0  0  0  0  0  0
  1  2  1  0
  1  3  1  0
  4  5  1  0
  4  8  1  0
  4  9  1  0
  5  6  1  0
  6  7  2  3
  7 10  1  0
  7 11  1  0
M  RAD  2   1   2   4   2
M  END
>  <reaction>  (6) 
rmg_rxn_15653

>  <mol_properties>  (6) 
{"0": {"label": "*1", "atom_type": "N3s"}, "1": {"label": "*2", "atom_type": "H0"}, "2": {"label": "*0", "atom_type": "H0"}, "3": {"label": "*3", "atom_type": "Cs"}, "4": {"label": "*4", "atom_type": "O2s"}}

>  <type>  (6) 
unop_2

>  <geom_source>  (6) 
Heuristics

$$$$

     RDKit          3D

 11  9  0  0  0  0  0  0  0  0999 V2000
    2.2688   -0.6911    0.2162 N   0  0  0  0  0  2  0  0  0  0  0  0
    1.4013    0.0688    0.0798 H   0  0  0  0  0  0  0  0  0  0  0  0
    3.1258   -0.1465    0.1392 H   0  0  0  0  0  0  0  0  0  0  0  0
    0.5696    0.9506   -0.4510 C   0  0  0  0  0  3  0  0  0  0  0  0
   -0.5580    0.9433    0.2888 O   0  0  0  0  0  0  0  0  0  0  0  0
   -1.4567   -0.0850    0.2098 N   0  0  0  0  0  0  0  0  0  0  0  0
   -1.1150   -1.2138   -0.2297 C   0  0  0  0  0  0  0  0  0  0  0  0
    0.4845    0.5829   -1.4730 H   0  0  0  0  0  0  0  0  0  0  0  0
    1.0691    1.9059   -0.3408 H   0  0  0  0  0  0  0  0  0  0  0  0
   -1.8921   -1.9587   -0.2443 H   0  0  0  0  0  0  0  0  0  0  0  0
   -0.1188   -1.5038   -0.5531 H   0  0  0  0  0  0  0  0  0  0  0  0
  1  2  1  0
  1  3  1  0
  4  5  1  0
  4  8  1  0
  4  9  1  0
  5  6  1  0
  6  7  2  3
  7 10  1  0
  7 11  1  0
M  RAD  2   1   2   4   2
M  END
>  <reaction>  (7) 
rmg_rxn_15653

>  <mol_properties>  (7) 
{"0": {"label": "*1", "atom_type": "N3s"}, "1": {"label": "*2", "atom_type": "H0"}, "2": {"label": "*0", "atom_type": "H0"}, "3": {"label": "*3", "atom_type": "Cs"}, "4": {"label": "*4", "atom_type": "O2s"}}

>  <type>  (7) 
unop_3

>  <geom_source>  (7) 
Heuristics

$$$$

     RDKit          3D

 11  9  0  0  0  0  0  0  0  0999 V2000
    0.6811   -2.9364    0.1879 N   0  0  0  0  0  2  0  0  0  0  0  0
    0.6811   -1.7399    0.4745 H   0  0  0  0  0  0  0  0  0  0  0  0
    0.6811   -2.9364   -0.8374 H   0  0  0  0  0  0  0  0  0  0  0  0
    0.6811   -0.4695    0.7787 C   0  0  0  0  0  3  0  0  0  0  0  0
    0.0006    0.1779   -0.2784 O   0  0  0  0  0  0  0  0  0  0  0  0
   -0.4120    1.4234    0.1305 N   0  0  0  0  0  0  0  0  0  0  0  0
   -1.0272    2.0427   -0.7831 C   0  0  0  0  0  0  0  0  0  0  0  0
    1.5676    0.0950    1.0763 H   0  0  0  0  0  0  0  0  0  0  0  0
    0.0256   -0.6016    1.6424 H   0  0  0  0  0  0  0  0  0  0  0  0
   -1.3859    3.0340   -0.5402 H   0  0  0  0  0  0  0  0  0  0  0  0
   -1.1965    1.6158   -1.7693 H   0  0  0  0  0  0  0  0  0  0  0  0
  1  2  1  0
  1  3  1  0
  4  5  1  0
  4  8  1  0
  4  9  1  0
  5  6  1  0
  6  7  2  3
  7 10  1  0
  7 11  1  0
M  RAD  2   1   2   4   2
M  END
>  <reaction>  (8) 
rmg_rxn_15653

>  <mol_properties>  (8) 
{"0": {"label": "*1", "atom_type": "N3s"}, "1": {"label": "*2", "atom_type": "H0"}, "2": {"label": "*0", "atom_type": "H0"}, "3": {"label": "*3", "atom_type": "Cs"}, "4": {"label": "*4", "atom_type": "O2s"}}

>  <type>  (8) 
unop_4

>  <geom_source>  (8) 
Heuristics

$$$$

     RDKit          3D

 11  9  0  0  0  0  0  0  0  0999 V2000
    2.4470    0.8770    0.1133 N   0  0  0  0  0  2  0  0  0  0  0  0
    1.8075   -0.0909    0.0894 H   0  0  0  0  0  0  0  0  0  0  0  0
    1.9089    1.5971   -0.3663 H   0  0  0  0  0  0  0  0  0  0  0  0
    0.8768   -0.9804   -0.2180 C   0  0  0  0  0  3  0  0  0  0  0  0
   -0.2891   -0.6525    0.3733 O   0  0  0  0  0  0  0  0  0  0  0  0
   -1.0859    0.1770   -0.4180 N   0  0  0  0  0  0  0  0  0  0  0  0
   -2.1378    0.5975    0.1306 C   0  0  0  0  0  0  0  0  0  0  0  0
    1.3127   -1.8544    0.2531 H   0  0  0  0  0  0  0  0  0  0  0  0
    0.8752   -0.9681   -1.3045 H   0  0  0  0  0  0  0  0  0  0  0  0
   -2.7676    1.2310   -0.4687 H   0  0  0  0  0  0  0  0  0  0  0  0
   -2.4358    0.3595    1.1467 H   0  0  0  0  0  0  0  0  0  0  0  0
  1  2  1  0
  1  3  1  0
  4  5  1  0
  4  8  1  0
  4  9  1  0
  5  6  1  0
  6  7  2  3
  7 10  1  0
  7 11  1  0
M  RAD  2   1   2   4   2
M  END
>  <reaction>  (9) 
rmg_rxn_15653

>  <mol_properties>  (9) 
{"0": {"label": "*1", "atom_type": "N3s"}, "1": {"label": "*2", "atom_type": "H0"}, "2": {"label": "*0", "atom_type": "H0"}, "3": {"label": "*3", "atom_type": "Cs"}, "4": {"label": "*4", "atom_type": "O2s"}}

>  <type>  (9) 
unop_5

>  <geom_source>  (9) 
Heuristics

$$$$

     RDKit          3D

 11  9  0  0  0  0  0  0  0  0999 V2000
    0.3476   -2.4684   -1.6606 N   0  0  0  0  0  2  0  0  0  0  0  0
    0.3476   -1.2719   -1.3741 H   0  0  0  0  0  0  0  0  0  0  0  0
    0.3476   -2.4684   -2.6859 H   0  0  0  0  0  0  0  0  0  0  0  0
    0.3476   -0.0015   -1.0698 C   0  0  0  0  0  3  0  0  0  0  0  0
   -0.3330    0.0969    0.1658 O   0  0  0  0  0  0  0  0  0  0  0  0
    0.0939    1.2146    0.8420 N   0  0  0  0  0  0  0  0  0  0  0  0
   -0.4878    1.3458    1.9561 C   0  0  0  0  0  0  0  0  0  0  0  0
    0.1430    0.8679   -1.6988 H   0  0  0  0  0  0  0  0  0  0  0  0
    1.4249   -0.0953   -0.9161 H   0  0  0  0  0  0  0  0  0  0  0  0
   -0.2067    2.2040    2.5517 H   0  0  0  0  0  0  0  0  0  0  0  0
   -1.2355    0.6410    2.3135 H   0  0  0  0  0  0  0  0  0  0  0  0
  1  2  1  0
  1  3  1  0
  4  5  1  0
  4  8  1  0
  4  9  1  0
  5  6  1  0
  6  7  2  3
  7 10  1  0
  7 11  1  0
M  RAD  2   1   2   4   2
M  END
>  <reaction>  (10) 
rmg_rxn_15653

>  <mol_properties>  (10) 
{"0": {"label": "*1", "atom_type": "N3s"}, "1": {"label": "*2", "atom_type": "H0"}, "2": {"label": "*0", "atom_type": "H0"}, "3": {"label": "*3", "atom_type": "Cs"}, "4": {"label": "*4", "atom_type": "O2s"}}

>  <type>  (10) 
unop_6

>  <geom_source>  (10) 
Heuristics

$$$$

     RDKit          3D

 11  9  0  0  0  0  0  0  0  0999 V2000
   -1.0824   -2.7627   -0.3274 N   0  0  0  0  0  2  0  0  0  0  0  0
   -1.0824   -1.5662   -0.0408 H   0  0  0  0  0  0  0  0  0  0  0  0
   -1.0824   -2.7627   -1.3526 H   0  0  0  0  0  0  0  0  0  0  0  0
   -1.0824   -0.2957    0.2634 C   0  0  0  0  0  3  0  0  0  0  0  0
    0.0964    0.2356   -0.3092 O   0  0  0  0  0  0  0  0  0  0  0  0
    0.5660    1.2658    0.4699 N   0  0  0  0  0  0  0  0  0  0  0  0
    1.6218    1.7744   -0.0027 C   0  0  0  0  0  0  0  0  0  0  0  0
   -0.8867   -0.6941    1.2615 H   0  0  0  0  0  0  0  0  0  0  0  0
   -1.8656    0.4636    0.3206 H   0  0  0  0  0  0  0  0  0  0  0  0
    2.0563    2.5940    0.5539 H   0  0  0  0  0  0  0  0  0  0  0  0
    2.0837    1.4186   -0.9211 H   0  0  0  0  0  0  0  0  0  0  0  0
  1  2  1  0
  1  3  1  0
  4  5  1  0
  4  8  1  0
  4  9  1  0
  5  6  1  0
  6  7  2  3
  7 10  1  0
  7 11  1  0
M  RAD  2   1   2   4   2
M  END
>  <reaction>  (11) 
rmg_rxn_15653

>  <mol_properties>  (11) 
{"0": {"label": "*1", "atom_type": "N3s"}, "1": {"label": "*2", "atom_type": "H0"}, "2": {"label": "*0", "atom_type": "H0"}, "3": {"label": "*3", "atom_type": "Cs"}, "4": {"label": "*4", "atom_type": "O2s"}}

>  <type>  (11) 
unop_7

>  <geom_source>  (11) 
Heuristics

$$$$

     RDKit          3D

 11  9  0  0  0  0  0  0  0  0999 V2000
    2.4576   -0.8700   -0.1158 N   0  0  0  0  0  2  0  0  0  0  0  0
    1.8047    0.0889   -0.0981 H   0  0  0  0  0  0  0  0  0  0  0  0
    1.9414   -1.5871    0.3915 H   0  0  0  0  0  0  0  0  0  0  0  0
    0.8749    0.9760    0.2195 C   0  0  0  0  0  3  0  0  0  0  0  0
   -0.2911    0.6502   -0.3724 O   0  0  0  0  0  0  0  0  0  0  0  0
   -1.0894   -0.1793    0.4173 N   0  0  0  0  0  0  0  0  0  0  0  0
   -2.1427   -0.5958   -0.1315 C   0  0  0  0  0  0  0  0  0  0  0  0
    1.3094    1.8536   -0.2460 H   0  0  0  0  0  0  0  0  0  0  0  0
    0.8743    0.9566    1.3059 H   0  0  0  0  0  0  0  0  0  0  0  0
   -2.7740   -1.2283    0.4672 H   0  0  0  0  0  0  0  0  0  0  0  0
   -2.4408   -0.3550   -1.1469 H   0  0  0  0  0  0  0  0  0  0  0  0
  1  2  1  0
  1  3  1  0
  4  5  1  0
  4  8  1  0
  4  9  1  0
  5  6  1  0
  6  7  2  3
  7 10  1  0
  7 11  1  0
M  RAD  2   1   2   4   2
M  END
>  <reaction>  (12) 
rmg_rxn_15653

>  <mol_properties>  (12) 
{"0": {"label": "*1", "atom_type": "N3s"}, "1": {"label": "*2", "atom_type": "H0"}, "2": {"label": "*0", "atom_type": "H0"}, "3": {"label": "*3", "atom_type": "Cs"}, "4": {"label": "*4", "atom_type": "O2s"}}

>  <type>  (12) 
unop_8

>  <geom_source>  (12) 
Heuristics

$$$$

     RDKit          3D

 11  9  0  0  0  0  0  0  0  0999 V2000
    0.0000   -2.5130   -1.6903 N   0  0  0  0  0  2  0  0  0  0  0  0
    0.0000   -1.3165   -1.4037 H   0  0  0  0  0  0  0  0  0  0  0  0
    0.0000   -2.5130   -2.7155 H   0  0  0  0  0  0  0  0  0  0  0  0
    0.0000   -0.0461   -1.0995 C   0  0  0  0  0  3  0  0  0  0  0  0
    0.0000    0.0098    0.3135 O   0  0  0  0  0  0  0  0  0  0  0  0
   -0.0000    1.3210    0.7251 N   0  0  0  0  0  0  0  0  0  0  0  0
   -0.0000    1.4226    1.9847 C   0  0  0  0  0  0  0  0  0  0  0  0
   -0.8921    0.4327   -1.5094 H   0  0  0  0  0  0  0  0  0  0  0  0
    0.8921    0.4327   -1.5094 H   0  0  0  0  0  0  0  0  0  0  0  0
   -0.0000    2.4255    2.3902 H   0  0  0  0  0  0  0  0  0  0  0  0
    0.0000    0.5562    2.6426 H   0  0  0  0  0  0  0  0  0  0  0  0
  1  2  1  0
  1  3  1  0
  4  5  1  0
  4  8  1  0
  4  9  1  0
  5  6  1  0
  6  7  2  3
  7 10  1  0
  7 11  1  0
M  RAD  2   1   2   4   2
M  END
>  <reaction>  (13) 
rmg_rxn_15653

>  <mol_properties>  (13) 
{"0": {"label": "*1", "atom_type": "N3s"}, "1": {"label": "*2", "atom_type": "H0"}, "2": {"label": "*0", "atom_type": "H0"}, "3": {"label": "*3", "atom_type": "Cs"}, "4": {"label": "*4", "atom_type": "O2s"}}

>  <type>  (13) 
unop_9

>  <geom_source>  (13) 
Heuristics

$$$$

     RDKit          3D

 11  9  0  0  0  0  0  0  0  0999 V2000
    2.4468   -0.8775   -0.1104 N   0  0  0  0  0  2  0  0  0  0  0  0
    1.8102    0.0923   -0.0822 H   0  0  0  0  0  0  0  0  0  0  0  0
    1.8936   -1.6053    0.3395 H   0  0  0  0  0  0  0  0  0  0  0  0
    0.8767    0.9815    0.2173 C   0  0  0  0  0  3  0  0  0  0  0  0
   -0.2877    0.6504   -0.3752 O   0  0  0  0  0  0  0  0  0  0  0  0
   -1.0864   -0.1750    0.4186 N   0  0  0  0  0  0  0  0  0  0  0  0
   -2.1376   -0.5973   -0.1298 C   0  0  0  0  0  0  0  0  0  0  0  0
    1.3130    1.8539   -0.2562 H   0  0  0  0  0  0  0  0  0  0  0  0
    0.8728    0.9732    1.3039 H   0  0  0  0  0  0  0  0  0  0  0  0
   -2.7688   -1.2277    0.4714 H   0  0  0  0  0  0  0  0  0  0  0  0
   -2.4341   -0.3635   -1.1473 H   0  0  0  0  0  0  0  0  0  0  0  0
  1  2  1  0
  1  3  1  0
  4  5  1  0
  4  8  1  0
  4  9  1  0
  5  6  1  0
  6  7  2  3
  7 10  1  0
  7 11  1  0
M  RAD  2   1   2   4   2
M  END
>  <reaction>  (14) 
rmg_rxn_15653

>  <mol_properties>  (14) 
{"0": {"label": "*1", "atom_type": "N3s"}, "1": {"label": "*2", "atom_type": "H0"}, "2": {"label": "*0", "atom_type": "H0"}, "3": {"label": "*3", "atom_type": "Cs"}, "4": {"label": "*4", "atom_type": "O2s"}}

>  <type>  (14) 
unop_10

>  <geom_source>  (14) 
Heuristics

$$$$

     RDKit          3D

 11  9  0  0  0  0  0  0  0  0999 V2000
   -1.1024   -2.5836   -0.9338 N   0  0  0  0  0  2  0  0  0  0  0  0
   -1.1024   -1.3871   -0.6473 H   0  0  0  0  0  0  0  0  0  0  0  0
   -1.1024   -2.5836   -1.9591 H   0  0  0  0  0  0  0  0  0  0  0  0
   -1.1024   -0.1166   -0.3430 C   0  0  0  0  0  3  0  0  0  0  0  0
    0.2587    0.2562   -0.2538 O   0  0  0  0  0  0  0  0  0  0  0  0
    0.4299    1.1387    0.7858 N   0  0  0  0  0  0  0  0  0  0  0  0
    1.6342    1.5020    0.9059 C   0  0  0  0  0  0  0  0  0  0  0  0
   -1.4329   -0.6114    0.5730 H   0  0  0  0  0  0  0  0  0  0  0  0
   -1.7340    0.7535   -0.5361 H   0  0  0  0  0  0  0  0  0  0  0  0
    1.8531    2.1988    1.7039 H   0  0  0  0  0  0  0  0  0  0  0  0
    2.4233    1.1423    0.2490 H   0  0  0  0  0  0  0  0  0  0  0  0
  1  2  1  0
  1  3  1  0
  4  5  1  0
  4  8  1  0
  4  9  1  0
  5  6  1  0
  6  7  2  3
  7 10  1  0
  7 11  1  0
M  RAD  2   1   2   4   2
M  END
>  <reaction>  (15) 
rmg_rxn_15653

>  <mol_properties>  (15) 
{"0": {"label": "*1", "atom_type": "N3s"}, "1": {"label": "*2", "atom_type": "H0"}, "2": {"label": "*0", "atom_type": "H0"}, "3": {"label": "*3", "atom_type": "Cs"}, "4": {"label": "*4", "atom_type": "O2s"}}

>  <type>  (15) 
unop_11

>  <geom_source>  (15) 
Heuristics

$$$$

     RDKit          3D

 11  9  0  0  0  0  0  0  0  0999 V2000
    2.4491   -0.8755   -0.1151 N   0  0  0  0  0  2  0  0  0  0  0  0
    1.8059    0.0900   -0.0922 H   0  0  0  0  0  0  0  0  0  0  0  0
    1.9218   -1.5922    0.3813 H   0  0  0  0  0  0  0  0  0  0  0  0
    0.8763    0.9794    0.2187 C   0  0  0  0  0  3  0  0  0  0  0  0
   -0.2900    0.6528   -0.3724 O   0  0  0  0  0  0  0  0  0  0  0  0
   -1.0862   -0.1786    0.4175 N   0  0  0  0  0  0  0  0  0  0  0  0
   -2.1389   -0.5971   -0.1310 C   0  0  0  0  0  0  0  0  0  0  0  0
    1.3120    1.8542   -0.2510 H   0  0  0  0  0  0  0  0  0  0  0  0
    0.8756    0.9652    1.3051 H   0  0  0  0  0  0  0  0  0  0  0  0
   -2.7681   -1.2322    0.4672 H   0  0  0  0  0  0  0  0  0  0  0  0
   -2.4380   -0.3560   -1.1461 H   0  0  0  0  0  0  0  0  0  0  0  0
  1  2  1  0
  1  3  1  0
  4  5  1  0
  4  8  1  0
  4  9  1  0
  5  6  1  0
  6  7  2  3
  7 10  1  0
  7 11  1  0
M  RAD  2   1   2   4   2
M  END
>  <reaction>  (16) 
rmg_rxn_15653

>  <mol_properties>  (16) 
{"0": {"label": "*1", "atom_type": "N3s"}, "1": {"label": "*2", "atom_type": "H0"}, "2": {"label": "*0", "atom_type": "H0"}, "3": {"label": "*3", "atom_type": "Cs"}, "4": {"label": "*4", "atom_type": "O2s"}}

>  <type>  (16) 
unop_12

>  <geom_source>  (16) 
Heuristics

$$$$

     RDKit          3D

 11  9  0  0  0  0  0  0  0  0999 V2000
   -0.7965   -2.4708   -1.4237 N   0  0  0  0  0  2  0  0  0  0  0  0
   -0.7965   -1.2743   -1.1371 H   0  0  0  0  0  0  0  0  0  0  0  0
   -0.7965   -2.4708   -2.4489 H   0  0  0  0  0  0  0  0  0  0  0  0
   -0.7965   -0.0038   -0.8329 C   0  0  0  0  0  3  0  0  0  0  0  0
    0.3822    0.2105   -0.0818 O   0  0  0  0  0  0  0  0  0  0  0  0
    0.1325    1.1123    0.9247 N   0  0  0  0  0  0  0  0  0  0  0  0
    1.1595    1.3370    1.6258 C   0  0  0  0  0  0  0  0  0  0  0  0
   -1.5904   -0.4151   -0.2053 H   0  0  0  0  0  0  0  0  0  0  0  0
   -1.1401    0.9248   -1.2942 H   0  0  0  0  0  0  0  0  0  0  0  0
    1.0457    2.0382    2.4417 H   0  0  0  0  0  0  0  0  0  0  0  0
    2.1172    0.8583    1.4327 H   0  0  0  0  0  0  0  0  0  0  0  0
  1  2  1  0
  1  3  1  0
  4  5  1  0
  4  8  1  0
  4  9  1  0
  5  6  1  0
  6  7  2  3
  7 10  1  0
  7 11  1  0
M  RAD  2   1   2   4   2
M  END
>  <reaction>  (17) 
rmg_rxn_15653

>  <mol_properties>  (17) 
{"0": {"label": "*1", "atom_type": "N3s"}, "1": {"label": "*2", "atom_type": "H0"}, "2": {"label": "*0", "atom_type": "H0"}, "3": {"label": "*3", "atom_type": "Cs"}, "4": {"label": "*4", "atom_type": "O2s"}}

>  <type>  (17) 
unop_13

>  <geom_source>  (17) 
Heuristics

$$$$

     RDKit          3D

 11  9  0  0  0  0  0  0  0  0999 V2000
   -2.4570    0.8708    0.1137 N   0  0  0  0  0  2  0  0  0  0  0  0
   -1.8075   -0.0903    0.0917 H   0  0  0  0  0  0  0  0  0  0  0  0
   -1.9362    1.5901   -0.3857 H   0  0  0  0  0  0  0  0  0  0  0  0
   -0.8749   -0.9767   -0.2185 C   0  0  0  0  0  3  0  0  0  0  0  0
    0.2894   -0.6474    0.3750 O   0  0  0  0  0  0  0  0  0  0  0  0
    1.0914    0.1745   -0.4188 N   0  0  0  0  0  0  0  0  0  0  0  0
    2.1419    0.5969    0.1311 C   0  0  0  0  0  0  0  0  0  0  0  0
   -0.8714   -0.9616   -1.3050 H   0  0  0  0  0  0  0  0  0  0  0  0
   -1.3102   -1.8527    0.2492 H   0  0  0  0  0  0  0  0  0  0  0  0
    2.7756    1.2244   -0.4706 H   0  0  0  0  0  0  0  0  0  0  0  0
    2.4347    0.3669    1.1505 H   0  0  0  0  0  0  0  0  0  0  0  0
  1  2  1  0
  1  3  1  0
  4  5  1  0
  4  8  1  0
  4  9  1  0
  5  6  1  0
  6  7  2  3
  7 10  1  0
  7 11  1  0
M  RAD  2   1   2   4   2
M  END
>  <reaction>  (18) 
rmg_rxn_15653

>  <mol_properties>  (18) 
{"0": {"label": "*1", "atom_type": "N3s"}, "1": {"label": "*2", "atom_type": "H0"}, "2": {"label": "*0", "atom_type": "H0"}, "3": {"label": "*3", "atom_type": "Cs"}, "4": {"label": "*4", "atom_type": "O2s"}}

>  <type>  (18) 
unop_14

>  <geom_source>  (18) 
Heuristics

$$$$

     RDKit          3D

 11  9  0  0  0  0  0  0  0  0999 V2000
    1.1024   -2.5836   -0.9338 N   0  0  0  0  0  2  0  0  0  0  0  0
    1.1024   -1.3871   -0.6473 H   0  0  0  0  0  0  0  0  0  0  0  0
    1.1024   -2.5836   -1.9591 H   0  0  0  0  0  0  0  0  0  0  0  0
    1.1024   -0.1166   -0.3430 C   0  0  0  0  0  3  0  0  0  0  0  0
   -0.2587    0.2562   -0.2538 O   0  0  0  0  0  0  0  0  0  0  0  0
   -0.4299    1.1388    0.7857 N   0  0  0  0  0  0  0  0  0  0  0  0
   -1.6342    1.5020    0.9059 C   0  0  0  0  0  0  0  0  0  0  0  0
    1.7340    0.7534   -0.5361 H   0  0  0  0  0  0  0  0  0  0  0  0
    1.4329   -0.6114    0.5730 H   0  0  0  0  0  0  0  0  0  0  0  0
   -1.8531    2.1989    1.7039 H   0  0  0  0  0  0  0  0  0  0  0  0
   -2.4233    1.1423    0.2490 H   0  0  0  0  0  0  0  0  0  0  0  0
  1  2  1  0
  1  3  1  0
  4  5  1  0
  4  8  1  0
  4  9  1  0
  5  6  1  0
  6  7  2  3
  7 10  1  0
  7 11  1  0
M  RAD  2   1   2   4   2
M  END
>  <reaction>  (19) 
rmg_rxn_15653

>  <mol_properties>  (19) 
{"0": {"label": "*1", "atom_type": "N3s"}, "1": {"label": "*2", "atom_type": "H0"}, "2": {"label": "*0", "atom_type": "H0"}, "3": {"label": "*3", "atom_type": "Cs"}, "4": {"label": "*4", "atom_type": "O2s"}}

>  <type>  (19) 
unop_15

>  <geom_source>  (19) 
Heuristics

$$$$

     RDKit          3D

 11  9  0  0  0  0  0  0  0  0999 V2000
    2.4491   -0.8757    0.1121 N   0  0  0  0  0  2  0  0  0  0  0  0
    1.8086    0.0915    0.0880 H   0  0  0  0  0  0  0  0  0  0  0  0
    1.9070   -1.5995   -0.3574 H   0  0  0  0  0  0  0  0  0  0  0  0
    0.8764    0.9799   -0.2179 C   0  0  0  0  0  3  0  0  0  0  0  0
   -0.2886    0.6506    0.3743 O   0  0  0  0  0  0  0  0  0  0  0  0
   -1.0871   -0.1759   -0.4183 N   0  0  0  0  0  0  0  0  0  0  0  0
   -2.1387   -0.5971    0.1303 C   0  0  0  0  0  0  0  0  0  0  0  0
    0.8737    0.9679   -1.3044 H   0  0  0  0  0  0  0  0  0  0  0  0
    1.3120    1.8541    0.2529 H   0  0  0  0  0  0  0  0  0  0  0  0
   -2.7698   -1.2282   -0.4702 H   0  0  0  0  0  0  0  0  0  0  0  0
   -2.4354   -0.3617    1.1474 H   0  0  0  0  0  0  0  0  0  0  0  0
  1  2  1  0
  1  3  1  0
  4  5  1  0
  4  8  1  0
  4  9  1  0
  5  6  1  0
  6  7  2  3
  7 10  1  0
  7 11  1  0
M  RAD  2   1   2   4   2
M  END
>  <reaction>  (20) 
rmg_rxn_15653

>  <mol_properties>  (20) 
{"0": {"label": "*1", "atom_type": "N3s"}, "1": {"label": "*2", "atom_type": "H0"}, "2": {"label": "*0", "atom_type": "H0"}, "3": {"label": "*3", "atom_type": "Cs"}, "4": {"label": "*4", "atom_type": "O2s"}}

>  <type>  (20) 
unop_16

>  <geom_source>  (20) 
Heuristics

$$$$

     RDKit          3D

 11  9  0  0  0  0  0  0  0  0999 V2000
   -0.6811   -2.9364    0.1879 N   0  0  0  0  0  2  0  0  0  0  0  0
   -0.6811   -1.7399    0.4745 H   0  0  0  0  0  0  0  0  0  0  0  0
   -0.6811   -2.9364   -0.8374 H   0  0  0  0  0  0  0  0  0  0  0  0
   -0.6811   -0.4695    0.7787 C   0  0  0  0  0  3  0  0  0  0  0  0
   -0.0006    0.1779   -0.2784 O   0  0  0  0  0  0  0  0  0  0  0  0
    0.4120    1.4234    0.1305 N   0  0  0  0  0  0  0  0  0  0  0  0
    1.0273    2.0427   -0.7831 C   0  0  0  0  0  0  0  0  0  0  0  0
   -0.0256   -0.6016    1.6424 H   0  0  0  0  0  0  0  0  0  0  0  0
   -1.5677    0.0951    1.0763 H   0  0  0  0  0  0  0  0  0  0  0  0
    1.3859    3.0340   -0.5402 H   0  0  0  0  0  0  0  0  0  0  0  0
    1.1964    1.6158   -1.7693 H   0  0  0  0  0  0  0  0  0  0  0  0
  1  2  1  0
  1  3  1  0
  4  5  1  0
  4  8  1  0
  4  9  1  0
  5  6  1  0
  6  7  2  3
  7 10  1  0
  7 11  1  0
M  RAD  2   1   2   4   2
M  END
>  <reaction>  (21) 
rmg_rxn_15653

>  <mol_properties>  (21) 
{"0": {"label": "*1", "atom_type": "N3s"}, "1": {"label": "*2", "atom_type": "H0"}, "2": {"label": "*0", "atom_type": "H0"}, "3": {"label": "*3", "atom_type": "Cs"}, "4": {"label": "*4", "atom_type": "O2s"}}

>  <type>  (21) 
unop_17

>  <geom_source>  (21) 
Heuristics

$$$$

     RDKit          3D

 11  9  0  0  0  0  0  0  0  0999 V2000
    1.0824   -2.7627   -0.3274 N   0  0  0  0  0  2  0  0  0  0  0  0
    1.0824   -1.5662   -0.0408 H   0  0  0  0  0  0  0  0  0  0  0  0
    1.0824   -2.7627   -1.3526 H   0  0  0  0  0  0  0  0  0  0  0  0
    1.0824   -0.2957    0.2634 C   0  0  0  0  0  3  0  0  0  0  0  0
   -0.0964    0.2356   -0.3091 O   0  0  0  0  0  0  0  0  0  0  0  0
   -0.5660    1.2658    0.4699 N   0  0  0  0  0  0  0  0  0  0  0  0
   -1.6218    1.7744   -0.0027 C   0  0  0  0  0  0  0  0  0  0  0  0
    1.8655    0.4636    0.3206 H   0  0  0  0  0  0  0  0  0  0  0  0
    0.8867   -0.6941    1.2615 H   0  0  0  0  0  0  0  0  0  0  0  0
   -2.0563    2.5940    0.5539 H   0  0  0  0  0  0  0  0  0  0  0  0
   -2.0837    1.4185   -0.9211 H   0  0  0  0  0  0  0  0  0  0  0  0
  1  2  1  0
  1  3  1  0
  4  5  1  0
  4  8  1  0
  4  9  1  0
  5  6  1  0
  6  7  2  3
  7 10  1  0
  7 11  1  0
M  RAD  2   1   2   4   2
M  END
>  <reaction>  (22) 
rmg_rxn_15653

>  <mol_properties>  (22) 
{"0": {"label": "*1", "atom_type": "N3s"}, "1": {"label": "*2", "atom_type": "H0"}, "2": {"label": "*0", "atom_type": "H0"}, "3": {"label": "*3", "atom_type": "Cs"}, "4": {"label": "*4", "atom_type": "O2s"}}

>  <type>  (22) 
unop_18

>  <geom_source>  (22) 
Heuristics

$$$$

     RDKit          3D

 11  9  0  0  0  0  0  0  0  0999 V2000
   -0.3475   -2.4684   -1.6606 N   0  0  0  0  0  2  0  0  0  0  0  0
   -0.3475   -1.2719   -1.3741 H   0  0  0  0  0  0  0  0  0  0  0  0
   -0.3475   -2.4684   -2.6859 H   0  0  0  0  0  0  0  0  0  0  0  0
   -0.3475   -0.0014   -1.0698 C   0  0  0  0  0  3  0  0  0  0  0  0
    0.3330    0.0969    0.1658 O   0  0  0  0  0  0  0  0  0  0  0  0
   -0.0939    1.2146    0.8420 N   0  0  0  0  0  0  0  0  0  0  0  0
    0.4878    1.3458    1.9561 C   0  0  0  0  0  0  0  0  0  0  0  0
   -1.4249   -0.0953   -0.9161 H   0  0  0  0  0  0  0  0  0  0  0  0
   -0.1430    0.8679   -1.6988 H   0  0  0  0  0  0  0  0  0  0  0  0
    0.2066    2.2040    2.5517 H   0  0  0  0  0  0  0  0  0  0  0  0
    1.2355    0.6410    2.3135 H   0  0  0  0  0  0  0  0  0  0  0  0
  1  2  1  0
  1  3  1  0
  4  5  1  0
  4  8  1  0
  4  9  1  0
  5  6  1  0
  6  7  2  3
  7 10  1  0
  7 11  1  0
M  RAD  2   1   2   4   2
M  END
>  <reaction>  (23) 
rmg_rxn_15653

>  <mol_properties>  (23) 
{"0": {"label": "*1", "atom_type": "N3s"}, "1": {"label": "*2", "atom_type": "H0"}, "2": {"label": "*0", "atom_type": "H0"}, "3": {"label": "*3", "atom_type": "Cs"}, "4": {"label": "*4", "atom_type": "O2s"}}

>  <type>  (23) 
unop_19

>  <geom_source>  (23) 
Heuristics

$$$$

     RDKit          3D

 11  9  0  0  0  0  0  0  0  0999 V2000
   -0.0000   -3.0124    0.3950 N   0  0  0  0  0  2  0  0  0  0  0  0
   -0.0000   -1.8159    0.6815 H   0  0  0  0  0  0  0  0  0  0  0  0
   -0.0000   -3.0124   -0.6303 H   0  0  0  0  0  0  0  0  0  0  0  0
   -0.0000   -0.5454    0.9858 C   0  0  0  0  0  3  0  0  0  0  0  0
   -0.0000    0.1444   -0.2486 O   0  0  0  0  0  0  0  0  0  0  0  0
    0.0000    1.4998   -0.0217 N   0  0  0  0  0  0  0  0  0  0  0  0
    0.0000    2.1609   -1.0986 C   0  0  0  0  0  0  0  0  0  0  0  0
    0.8921   -0.3043    1.5681 H   0  0  0  0  0  0  0  0  0  0  0  0
   -0.8921   -0.3043    1.5681 H   0  0  0  0  0  0  0  0  0  0  0  0
    0.0000    3.2387   -1.0059 H   0  0  0  0  0  0  0  0  0  0  0  0
   -0.0000    1.6865   -2.0776 H   0  0  0  0  0  0  0  0  0  0  0  0
  1  2  1  0
  1  3  1  0
  4  5  1  0
  4  8  1  0
  4  9  1  0
  5  6  1  0
  6  7  2  3
  7 10  1  0
  7 11  1  0
M  RAD  2   1   2   4   2
M  END
>  <reaction>  (24) 
rmg_rxn_15653

>  <mol_properties>  (24) 
{"0": {"label": "*1", "atom_type": "N3s"}, "1": {"label": "*2", "atom_type": "H0"}, "2": {"label": "*0", "atom_type": "H0"}, "3": {"label": "*3", "atom_type": "Cs"}, "4": {"label": "*4", "atom_type": "O2s"}}

>  <type>  (24) 
unop_20

>  <geom_source>  (24) 
Heuristics

$$$$

     RDKit          3D

 11  9  0  0  0  0  0  0  0  0999 V2000
    0.6811   -2.9364    0.1879 N   0  0  0  0  0  2  0  0  0  0  0  0
    0.6811   -1.7399    0.4745 H   0  0  0  0  0  0  0  0  0  0  0  0
    0.6811   -2.9364   -0.8374 H   0  0  0  0  0  0  0  0  0  0  0  0
    0.6811   -0.4695    0.7787 C   0  0  0  0  0  3  0  0  0  0  0  0
    0.0006    0.1779   -0.2784 O   0  0  0  0  0  0  0  0  0  0  0  0
   -0.4120    1.4234    0.1305 N   0  0  0  0  0  0  0  0  0  0  0  0
   -1.0272    2.0427   -0.7831 C   0  0  0  0  0  0  0  0  0  0  0  0
    1.5676    0.0950    1.0763 H   0  0  0  0  0  0  0  0  0  0  0  0
    0.0256   -0.6016    1.6424 H   0  0  0  0  0  0  0  0  0  0  0  0
   -1.3859    3.0340   -0.5402 H   0  0  0  0  0  0  0  0  0  0  0  0
   -1.1965    1.6158   -1.7693 H   0  0  0  0  0  0  0  0  0  0  0  0
  1  2  1  0
  1  3  1  0
  4  5  1  0
  4  8  1  0
  4  9  1  0
  5  6  1  0
  6  7  2  3
  7 10  1  0
  7 11  1  0
M  RAD  2   1   2   4   2
M  END
>  <reaction>  (25) 
rmg_rxn_15653

>  <mol_properties>  (25) 
{"0": {"label": "*1", "atom_type": "N3s"}, "1": {"label": "*2", "atom_type": "H0"}, "2": {"label": "*0", "atom_type": "H0"}, "3": {"label": "*3", "atom_type": "Cs"}, "4": {"label": "*4", "atom_type": "O2s"}}

>  <type>  (25) 
unop_21

>  <geom_source>  (25) 
gaussian_log

$$$$
