
     RDKit          3D

 14 14  0  0  0  0  0  0  0  0999 V2000
   -1.1778    0.2241    0.1818 C   0  0  0  0  0  0  0  0  0  0  0  0
   -0.5633   -1.1636    0.0678 C   0  0  0  0  0  0  0  0  0  0  0  0
    0.6943   -1.1996    0.7146 O   0  0  0  0  0  0  0  0  0  0  0  0
    1.5547   -0.2288    0.2011 C   0  0  0  0  0  0  0  0  0  0  0  0
    1.0729    1.0696    0.3698 O   0  0  0  0  0  0  0  0  0  0  0  0
   -0.1607    1.2493   -0.2989 C   0  0  0  0  0  0  0  0  0  0  0  0
   -2.0927    0.2866   -0.4117 H   0  0  0  0  0  0  0  0  0  0  0  0
   -1.4303    0.4248    1.2248 H   0  0  0  0  0  0  0  0  0  0  0  0
   -1.1822   -1.9235    0.5431 H   0  0  0  0  0  0  0  0  0  0  0  0
   -0.4389   -1.4347   -0.9919 H   0  0  0  0  0  0  0  0  0  0  0  0
    1.7250   -0.4207   -0.8742 H   0  0  0  0  0  0  0  0  0  0  0  0
    2.4896   -0.3010    0.7524 H   0  0  0  0  0  0  0  0  0  0  0  0
   -0.0080    1.1481   -1.3844 H   0  0  0  0  0  0  0  0  0  0  0  0
   -0.4826    2.2695   -0.0942 H   0  0  0  0  0  0  0  0  0  0  0  0
  1  2  1  0
  1  6  1  0
  1  7  1  0
  1  8  1  0
  2  3  1  0
  2  9  1  0
  2 10  1  0
  3  4  1  0
  4  5  1  0
  4 11  1  0
  4 12  1  0
  5  6  1  0
  6 13  1  0
  6 14  1  0
M  END
>  <reaction>  (1) 
rmg_rxn_629

>  <mol_properties>  (1) 
{"1": {"label": "donator", "atom_type": "Cs"}, "8": {"label": "d_hydrogen", "atom_type": "H0"}}

>  <type>  (1) 
r1h

$$$$

     RDKit          3D

 14 13  0  0  0  0  0  0  0  0999 V2000
    2.6694    0.2813   -0.6046 C   0  0  0  0  0  3  0  0  0  0  0  0
    1.5626   -0.5075   -0.0103 C   0  0  0  0  0  0  0  0  0  0  0  0
    0.5522   -0.8487   -0.9278 O   0  0  0  0  0  0  0  0  0  0  0  0
    0.9505   -1.8204   -1.8682 C   0  0  0  0  0  0  0  0  0  0  0  0
   -0.2101   -2.1029   -2.7930 C   0  0  0  0  0  0  0  0  0  0  0  0
    2.4666    0.9443   -1.4355 H   0  0  0  0  0  0  0  0  0  0  0  0
    3.6339    0.3312   -0.1179 H   0  0  0  0  0  0  0  0  0  0  0  0
    1.0573    0.0741    0.7733 H   0  0  0  0  0  0  0  0  0  0  0  0
    1.9580   -1.4106    0.4809 H   0  0  0  0  0  0  0  0  0  0  0  0
    1.8195   -1.4649   -2.4379 H   0  0  0  0  0  0  0  0  0  0  0  0
    1.2587   -2.7372   -1.3440 H   0  0  0  0  0  0  0  0  0  0  0  0
   -0.5051   -1.1971   -3.3238 H   0  0  0  0  0  0  0  0  0  0  0  0
    0.0686   -2.8601   -3.5276 H   0  0  0  0  0  0  0  0  0  0  0  0
   -1.0699   -2.4661   -2.2289 H   0  0  0  0  0  0  0  0  0  0  0  0
  1  2  1  0
  1  6  1  0
  1  7  1  0
  2  3  1  0
  2  8  1  0
  2  9  1  0
  3  4  1  0
  4  5  1  0
  4 10  1  0
  4 11  1  0
  5 12  1  0
  5 13  1  0
  5 14  1  0
M  RAD  1   1   2
M  END
>  <reaction>  (2) 
rmg_rxn_629

>  <mol_properties>  (2) 
{"0": {"label": "acceptor", "atom_type": "Cs"}}

>  <type>  (2) 
r2

$$$$

     RDKit          3D

 15 14  0  0  0  0  0  0  0  0999 V2000
    2.4145    0.0817    0.4065 C   0  0  0  0  0  0  0  0  0  0  0  0
    1.1257   -0.2220   -0.3219 C   0  0  0  0  0  0  0  0  0  0  0  0
    1.0983   -1.5879   -0.6512 O   0  0  0  0  0  0  0  0  0  0  0  0
   -0.0685   -1.9694   -1.3352 C   0  0  0  0  0  0  0  0  0  0  0  0
    0.0024   -3.4478   -1.6403 C   0  0  0  0  0  0  0  0  0  0  0  0
    3.2736   -0.1534   -0.2229 H   0  0  0  0  0  0  0  0  0  0  0  0
    2.4581    1.1389    0.6728 H   0  0  0  0  0  0  0  0  0  0  0  0
    2.4855   -0.5095    1.3201 H   0  0  0  0  0  0  0  0  0  0  0  0
    0.2597    0.0294    0.3083 H   0  0  0  0  0  0  0  0  0  0  0  0
    1.0482    0.3858   -1.2356 H   0  0  0  0  0  0  0  0  0  0  0  0
   -0.9535   -1.7457   -0.7211 H   0  0  0  0  0  0  0  0  0  0  0  0
   -0.1650   -1.3894   -2.2650 H   0  0  0  0  0  0  0  0  0  0  0  0
    0.0831   -4.0247   -0.7183 H   0  0  0  0  0  0  0  0  0  0  0  0
   -0.8950   -3.7674   -2.1724 H   0  0  0  0  0  0  0  0  0  0  0  0
    0.8712   -3.6686   -2.2613 H   0  0  0  0  0  0  0  0  0  0  0  0
  1  2  1  0
  1  6  1  0
  1  7  1  0
  1  8  1  0
  2  3  1  0
  2  9  1  0
  2 10  1  0
  3  4  1  0
  4  5  1  0
  4 11  1  0
  4 12  1  0
  5 13  1  0
  5 14  1  0
  5 15  1  0
M  END
>  <reaction>  (3) 
rmg_rxn_629

>  <mol_properties>  (3) 
{"0": {"label": "a_hydrogen", "atom_type": "H0"}, "1": {"label": "acceptor", "atom_type": "Cs"}}

>  <type>  (3) 
r2h

$$$$

     RDKit          3D

 28 27  0  0  0  0  0  0  0  0999 V2000
    0.6706    1.4745    0.4473 C   0  0  0  0  0  0  0  0  0  0  0  0
   -0.6889    0.9066    0.7703 C   0  0  0  0  0  0  0  0  0  0  0  0
   -1.2423    0.1978   -0.3004 O   0  0  0  0  0  0  0  0  0  0  0  0
   -1.2457    0.9441   -1.4879 C   0  0  0  0  0  0  0  0  0  0  0  0
    0.0277    1.3503   -1.8726 O   0  0  0  0  0  0  0  0  0  0  0  0
    0.6100    2.1950   -0.8956 C   0  0  0  0  0  0  0  0  0  0  0  0
    0.9923    2.1592    1.2346 H   0  0  0  0  0  0  0  0  0  0  0  0
    1.3866    0.6532    0.3845 H   0  0  0  0  0  0  0  0  0  0  0  0
   -0.5211   -0.0280    1.7011 H   0  0  0  0  0  0  0  0  0  0  0  0
   -1.4025    1.6270    1.1894 H   0  0  0  0  0  0  0  0  0  0  0  0
   -1.8946    1.8281   -1.3592 H   0  0  0  0  0  0  0  0  0  0  0  0
   -1.6342    0.2961   -2.2708 H   0  0  0  0  0  0  0  0  0  0  0  0
    0.0181    3.1184   -0.8127 H   0  0  0  0  0  0  0  0  0  0  0  0
    1.6034    2.4552   -1.2597 H   0  0  0  0  0  0  0  0  0  0  0  0
   -0.2708   -1.1552    2.4182 C   0  0  0  0  0  3  0  0  0  0  0  0
   -0.0335   -2.1967    1.3699 C   0  0  0  0  0  0  0  0  0  0  0  0
    1.0866   -1.8207    0.6062 O   0  0  0  0  0  0  0  0  0  0  0  0
    1.1844   -2.4925   -0.6254 C   0  0  0  0  0  0  0  0  0  0  0  0
    2.3036   -1.8713   -1.4284 C   0  0  0  0  0  0  0  0  0  0  0  0
    0.6050   -0.9096    3.0160 H   0  0  0  0  0  0  0  0  0  0  0  0
   -1.1626   -1.3185    3.0189 H   0  0  0  0  0  0  0  0  0  0  0  0
   -0.9177   -2.2761    0.7236 H   0  0  0  0  0  0  0  0  0  0  0  0
    0.1336   -3.1889    1.8214 H   0  0  0  0  0  0  0  0  0  0  0  0
    1.3706   -3.5636   -0.4584 H   0  0  0  0  0  0  0  0  0  0  0  0
    0.2342   -2.4017   -1.1690 H   0  0  0  0  0  0  0  0  0  0  0  0
    3.2449   -1.9226   -0.8794 H   0  0  0  0  0  0  0  0  0  0  0  0
    2.4266   -2.3987   -2.3758 H   0  0  0  0  0  0  0  0  0  0  0  0
    2.0757   -0.8263   -1.6434 H   0  0  0  0  0  0  0  0  0  0  0  0
  1  2  1  0
  1  6  1  0
  1  7  1  0
  1  8  1  0
  2  3  1  0
  2  9  1  0
  2 10  1  0
  3  4  1  0
  4  5  1  0
  4 11  1  0
  4 12  1  0
  5  6  1  0
  6 13  1  0
  6 14  1  0
 15 16  1  0
 15 20  1  0
 15 21  1  0
 16 17  1  0
 16 22  1  0
 16 23  1  0
 17 18  1  0
 18 19  1  0
 18 24  1  0
 18 25  1  0
 19 26  1  0
 19 27  1  0
 19 28  1  0
M  RAD  1  15   2
M  END
>  <reaction>  (4) 
rmg_rxn_629

>  <mol_properties>  (4) 
{"1": {"label": "*1", "atom_type": "Cs"}, "2": {"label": "*0", "atom_type": "O2s"}, "8": {"label": "*2", "atom_type": "H0"}, "14": {"label": "*3", "atom_type": "Cs"}, "15": {"label": "*4", "atom_type": "Cs"}}

>  <type>  (4) 
ts

$$$$

     RDKit          3D

 28 27  0  0  0  0  0  0  0  0999 V2000
   -0.4386    0.2559   -2.1790 C   0  0  0  0  0  0  0  0  0  0  0  0
   -0.4386    0.2559   -0.6570 C   0  0  0  0  0  0  0  0  0  0  0  0
   -1.4869    1.0685   -0.1649 O   0  0  0  0  0  0  0  0  0  0  0  0
   -1.3959    2.3681   -0.6642 C   0  0  0  0  0  0  0  0  0  0  0  0
   -1.4869    2.4243   -2.0552 O   0  0  0  0  0  0  0  0  0  0  0  0
   -0.4386    1.6976   -2.6671 C   0  0  0  0  0  0  0  0  0  0  0  0
    0.4354   -0.2765   -2.5609 H   0  0  0  0  0  0  0  0  0  0  0  0
   -1.3351   -0.2502   -2.5420 H   0  0  0  0  0  0  0  0  0  0  0  0
   -0.6293   -0.9411   -0.1682 H   0  0  0  0  0  0  0  0  0  0  0  0
    0.5251    0.6319   -0.2802 H   0  0  0  0  0  0  0  0  0  0  0  0
   -0.4406    2.8201   -0.3400 H   0  0  0  0  0  0  0  0  0  0  0  0
   -2.2370    2.9286   -0.2622 H   0  0  0  0  0  0  0  0  0  0  0  0
    0.5251    2.1750   -2.4318 H   0  0  0  0  0  0  0  0  0  0  0  0
   -0.5975    1.7635   -3.7426 H   0  0  0  0  0  0  0  0  0  0  0  0
   -0.8203   -2.1397    0.3213 C   0  0  0  0  0  3  0  0  0  0  0  0
    0.3546   -2.5561    1.1756 C   0  0  0  0  0  0  0  0  0  0  0  0
    1.0598   -1.4073    1.5733 O   0  0  0  0  0  0  0  0  0  0  0  0
    2.1768   -1.6936    2.3766 C   0  0  0  0  0  0  0  0  0  0  0  0
    2.8602   -0.3977    2.7470 C   0  0  0  0  0  0  0  0  0  0  0  0
   -1.4877   -1.4848    0.8825 H   0  0  0  0  0  0  0  0  0  0  0  0
   -1.3839   -3.0170    0.0001 H   0  0  0  0  0  0  0  0  0  0  0  0
    1.0194   -3.2285    0.6134 H   0  0  0  0  0  0  0  0  0  0  0  0
    0.0087   -3.1094    2.0614 H   0  0  0  0  0  0  0  0  0  0  0  0
    1.8599   -2.2332    3.2814 H   0  0  0  0  0  0  0  0  0  0  0  0
    2.8706   -2.3524    1.8335 H   0  0  0  0  0  0  0  0  0  0  0  0
    2.1779    0.2501    3.2984 H   0  0  0  0  0  0  0  0  0  0  0  0
    3.7324   -0.5955    3.3721 H   0  0  0  0  0  0  0  0  0  0  0  0
    3.1880    0.1310    1.8513 H   0  0  0  0  0  0  0  0  0  0  0  0
  1  2  1  0
  1  6  1  0
  1  7  1  0
  1  8  1  0
  2  3  1  0
  2  9  1  0
  2 10  1  0
  3  4  1  0
  4  5  1  0
  4 11  1  0
  4 12  1  0
  5  6  1  0
  6 13  1  0
  6 14  1  0
 15 16  1  0
 15 20  1  0
 15 21  1  0
 16 17  1  0
 16 22  1  0
 16 23  1  0
 17 18  1  0
 18 19  1  0
 18 24  1  0
 18 25  1  0
 19 26  1  0
 19 27  1  0
 19 28  1  0
M  RAD  1  15   2
M  END
>  <reaction>  (5) 
rmg_rxn_629

>  <mol_properties>  (5) 
{"1": {"label": "*1", "atom_type": "Cs"}, "2": {"label": "*0", "atom_type": "O2s"}, "8": {"label": "*2", "atom_type": "H0"}, "14": {"label": "*3", "atom_type": "Cs"}, "15": {"label": "*4", "atom_type": "Cs"}}

>  <type>  (5) 
unop_1

>  <geom_source>  (5) 
Heuristics

$$$$

     RDKit          3D

 28 27  0  0  0  0  0  0  0  0999 V2000
   -0.3216    0.8704   -0.8820 C   0  0  0  0  0  0  0  0  0  0  0  0
   -0.3216    0.8704    0.6400 C   0  0  0  0  0  0  0  0  0  0  0  0
   -1.3699    1.6830    1.1321 O   0  0  0  0  0  0  0  0  0  0  0  0
   -1.2790    2.9825    0.6328 C   0  0  0  0  0  0  0  0  0  0  0  0
   -1.3699    3.0387   -0.7582 O   0  0  0  0  0  0  0  0  0  0  0  0
   -0.3216    2.3120   -1.3701 C   0  0  0  0  0  0  0  0  0  0  0  0
    0.5524    0.3379   -1.2639 H   0  0  0  0  0  0  0  0  0  0  0  0
   -1.2182    0.3642   -1.2450 H   0  0  0  0  0  0  0  0  0  0  0  0
   -0.5123   -0.3267    1.1288 H   0  0  0  0  0  0  0  0  0  0  0  0
    0.6420    1.2463    1.0168 H   0  0  0  0  0  0  0  0  0  0  0  0
   -0.3236    3.4346    0.9570 H   0  0  0  0  0  0  0  0  0  0  0  0
   -2.1200    3.5430    1.0348 H   0  0  0  0  0  0  0  0  0  0  0  0
    0.6420    2.7894   -1.1348 H   0  0  0  0  0  0  0  0  0  0  0  0
   -0.4805    2.3779   -2.4456 H   0  0  0  0  0  0  0  0  0  0  0  0
   -0.7033   -1.5252    1.6183 C   0  0  0  0  0  3  0  0  0  0  0  0
   -0.1538   -2.5742    0.6795 C   0  0  0  0  0  0  0  0  0  0  0  0
    1.0858   -2.1374    0.1820 O   0  0  0  0  0  0  0  0  0  0  0  0
    1.6796   -3.0511   -0.7054 C   0  0  0  0  0  0  0  0  0  0  0  0
    2.9998   -2.4885   -1.1788 C   0  0  0  0  0  0  0  0  0  0  0  0
   -0.0191   -1.3623    2.4517 H   0  0  0  0  0  0  0  0  0  0  0  0
   -1.6676   -1.8433    2.0178 H   0  0  0  0  0  0  0  0  0  0  0  0
   -0.8517   -2.7485   -0.1529 H   0  0  0  0  0  0  0  0  0  0  0  0
   -0.0306   -3.5331    1.2044 H   0  0  0  0  0  0  0  0  0  0  0  0
    1.8319   -4.0176   -0.2024 H   0  0  0  0  0  0  0  0  0  0  0  0
    1.0108   -3.2330   -1.5597 H   0  0  0  0  0  0  0  0  0  0  0  0
    3.6690   -2.3217   -0.3341 H   0  0  0  0  0  0  0  0  0  0  0  0
    3.4801   -3.1824   -1.8705 H   0  0  0  0  0  0  0  0  0  0  0  0
    2.8484   -1.5375   -1.6906 H   0  0  0  0  0  0  0  0  0  0  0  0
  1  2  1  0
  1  6  1  0
  1  7  1  0
  1  8  1  0
  2  3  1  0
  2  9  1  0
  2 10  1  0
  3  4  1  0
  4  5  1  0
  4 11  1  0
  4 12  1  0
  5  6  1  0
  6 13  1  0
  6 14  1  0
 15 16  1  0
 15 20  1  0
 15 21  1  0
 16 17  1  0
 16 22  1  0
 16 23  1  0
 17 18  1  0
 18 19  1  0
 18 24  1  0
 18 25  1  0
 19 26  1  0
 19 27  1  0
 19 28  1  0
M  RAD  1  15   2
M  END
>  <reaction>  (6) 
rmg_rxn_629

>  <mol_properties>  (6) 
{"1": {"label": "*1", "atom_type": "Cs"}, "2": {"label": "*0", "atom_type": "O2s"}, "8": {"label": "*2", "atom_type": "H0"}, "14": {"label": "*3", "atom_type": "Cs"}, "15": {"label": "*4", "atom_type": "Cs"}}

>  <type>  (6) 
unop_2

>  <geom_source>  (6) 
Heuristics

$$$$

     RDKit          3D

 28 27  0  0  0  0  0  0  0  0999 V2000
    0.0893    0.0748   -2.5281 C   0  0  0  0  0  0  0  0  0  0  0  0
    0.0893    0.0748   -1.0061 C   0  0  0  0  0  0  0  0  0  0  0  0
   -0.9590    0.8874   -0.5140 O   0  0  0  0  0  0  0  0  0  0  0  0
   -0.8681    2.1870   -1.0133 C   0  0  0  0  0  0  0  0  0  0  0  0
   -0.9590    2.2432   -2.4044 O   0  0  0  0  0  0  0  0  0  0  0  0
    0.0893    1.5165   -3.0162 C   0  0  0  0  0  0  0  0  0  0  0  0
    0.9633   -0.4576   -2.9100 H   0  0  0  0  0  0  0  0  0  0  0  0
   -0.8073   -0.4313   -2.8911 H   0  0  0  0  0  0  0  0  0  0  0  0
   -0.1014   -1.1222   -0.5173 H   0  0  0  0  0  0  0  0  0  0  0  0
    1.0529    0.4508   -0.6294 H   0  0  0  0  0  0  0  0  0  0  0  0
    0.0873    2.6390   -0.6891 H   0  0  0  0  0  0  0  0  0  0  0  0
   -1.7091    2.7475   -0.6113 H   0  0  0  0  0  0  0  0  0  0  0  0
    1.0529    1.9939   -2.7809 H   0  0  0  0  0  0  0  0  0  0  0  0
   -0.0696    1.5824   -4.0917 H   0  0  0  0  0  0  0  0  0  0  0  0
   -0.2924   -2.3208   -0.0279 C   0  0  0  0  0  3  0  0  0  0  0  0
    0.4014   -2.4643    1.3069 C   0  0  0  0  0  0  0  0  0  0  0  0
    0.4083   -1.2170    1.9544 O   0  0  0  0  0  0  0  0  0  0  0  0
    1.0358   -1.2489    3.2114 C   0  0  0  0  0  0  0  0  0  0  0  0
    0.9891    0.1341    3.8187 C   0  0  0  0  0  0  0  0  0  0  0  0
   -1.3197   -1.9819    0.1100 H   0  0  0  0  0  0  0  0  0  0  0  0
   -0.3099   -3.2788   -0.5497 H   0  0  0  0  0  0  0  0  0  0  0  0
    1.4329   -2.8204    1.1677 H   0  0  0  0  0  0  0  0  0  0  0  0
   -0.1161   -3.2080    1.9310 H   0  0  0  0  0  0  0  0  0  0  0  0
    0.5284   -1.9733    3.8657 H   0  0  0  0  0  0  0  0  0  0  0  0
    2.0774   -1.5858    3.1023 H   0  0  0  0  0  0  0  0  0  0  0  0
   -0.0434    0.4630    3.9410 H   0  0  0  0  0  0  0  0  0  0  0  0
    1.4716    0.1336    4.7974 H   0  0  0  0  0  0  0  0  0  0  0  0
    1.5047    0.8503    3.1781 H   0  0  0  0  0  0  0  0  0  0  0  0
  1  2  1  0
  1  6  1  0
  1  7  1  0
  1  8  1  0
  2  3  1  0
  2  9  1  0
  2 10  1  0
  3  4  1  0
  4  5  1  0
  4 11  1  0
  4 12  1  0
  5  6  1  0
  6 13  1  0
  6 14  1  0
 15 16  1  0
 15 20  1  0
 15 21  1  0
 16 17  1  0
 16 22  1  0
 16 23  1  0
 17 18  1  0
 18 19  1  0
 18 24  1  0
 18 25  1  0
 19 26  1  0
 19 27  1  0
 19 28  1  0
M  RAD  1  15   2
M  END
>  <reaction>  (7) 
rmg_rxn_629

>  <mol_properties>  (7) 
{"1": {"label": "*1", "atom_type": "Cs"}, "2": {"label": "*0", "atom_type": "O2s"}, "8": {"label": "*2", "atom_type": "H0"}, "14": {"label": "*3", "atom_type": "Cs"}, "15": {"label": "*4", "atom_type": "Cs"}}

>  <type>  (7) 
unop_3

>  <geom_source>  (7) 
Heuristics

$$$$

     RDKit          3D

 28 27  0  0  0  0  0  0  0  0999 V2000
    1.0809    1.0645   -0.8671 C   0  0  0  0  0  0  0  0  0  0  0  0
    1.0809    1.0645    0.6549 C   0  0  0  0  0  0  0  0  0  0  0  0
    0.0326    1.8772    1.1470 O   0  0  0  0  0  0  0  0  0  0  0  0
    0.1235    3.1767    0.6477 C   0  0  0  0  0  0  0  0  0  0  0  0
    0.0326    3.2329   -0.7433 O   0  0  0  0  0  0  0  0  0  0  0  0
    1.0809    2.5062   -1.3552 C   0  0  0  0  0  0  0  0  0  0  0  0
    1.9549    0.5321   -1.2490 H   0  0  0  0  0  0  0  0  0  0  0  0
    0.1843    0.5584   -1.2301 H   0  0  0  0  0  0  0  0  0  0  0  0
    0.8902   -0.1325    1.1437 H   0  0  0  0  0  0  0  0  0  0  0  0
    2.0445    1.4405    1.0317 H   0  0  0  0  0  0  0  0  0  0  0  0
    1.0789    3.6288    0.9719 H   0  0  0  0  0  0  0  0  0  0  0  0
   -0.7175    3.7372    1.0497 H   0  0  0  0  0  0  0  0  0  0  0  0
    2.0445    2.9836   -1.1199 H   0  0  0  0  0  0  0  0  0  0  0  0
    0.9220    2.5721   -2.4307 H   0  0  0  0  0  0  0  0  0  0  0  0
    0.6992   -1.3310    1.6332 C   0  0  0  0  0  3  0  0  0  0  0  0
   -0.6302   -1.8844    1.1749 C   0  0  0  0  0  0  0  0  0  0  0  0
   -0.4367   -2.6143   -0.0104 O   0  0  0  0  0  0  0  0  0  0  0  0
   -1.6229   -3.1717   -0.5175 C   0  0  0  0  0  0  0  0  0  0  0  0
   -1.3059   -3.9310   -1.7851 C   0  0  0  0  0  0  0  0  0  0  0  0
    1.4057   -2.1403    1.8210 H   0  0  0  0  0  0  0  0  0  0  0  0
    0.5734   -0.7593    2.5540 H   0  0  0  0  0  0  0  0  0  0  0  0
   -1.3466   -1.0681    1.0000 H   0  0  0  0  0  0  0  0  0  0  0  0
   -1.0634   -2.5347    1.9493 H   0  0  0  0  0  0  0  0  0  0  0  0
   -2.0719   -3.8423    0.2301 H   0  0  0  0  0  0  0  0  0  0  0  0
   -2.3551   -2.3758   -0.7192 H   0  0  0  0  0  0  0  0  0  0  0  0
   -0.5913   -4.7297   -1.5834 H   0  0  0  0  0  0  0  0  0  0  0  0
   -2.2139   -4.3735   -2.1977 H   0  0  0  0  0  0  0  0  0  0  0  0
   -0.8744   -3.2640   -2.5322 H   0  0  0  0  0  0  0  0  0  0  0  0
  1  2  1  0
  1  6  1  0
  1  7  1  0
  1  8  1  0
  2  3  1  0
  2  9  1  0
  2 10  1  0
  3  4  1  0
  4  5  1  0
  4 11  1  0
  4 12  1  0
  5  6  1  0
  6 13  1  0
  6 14  1  0
 15 16  1  0
 15 20  1  0
 15 21  1  0
 16 17  1  0
 16 22  1  0
 16 23  1  0
 17 18  1  0
 18 19  1  0
 18 24  1  0
 18 25  1  0
 19 26  1  0
 19 27  1  0
 19 28  1  0
M  RAD  1  15   2
M  END
>  <reaction>  (8) 
rmg_rxn_629

>  <mol_properties>  (8) 
{"1": {"label": "*1", "atom_type": "Cs"}, "2": {"label": "*0", "atom_type": "O2s"}, "8": {"label": "*2", "atom_type": "H0"}, "14": {"label": "*3", "atom_type": "Cs"}, "15": {"label": "*4", "atom_type": "Cs"}}

>  <type>  (8) 
unop_4

>  <geom_source>  (8) 
Heuristics

$$$$

     RDKit          3D

 28 27  0  0  0  0  0  0  0  0999 V2000
    0.8553    0.1370   -2.5380 C   0  0  0  0  0  0  0  0  0  0  0  0
    0.8553    0.1370   -1.0159 C   0  0  0  0  0  0  0  0  0  0  0  0
   -0.1930    0.9496   -0.5238 O   0  0  0  0  0  0  0  0  0  0  0  0
   -0.1021    2.2492   -1.0232 C   0  0  0  0  0  0  0  0  0  0  0  0
   -0.1930    2.3054   -2.4142 O   0  0  0  0  0  0  0  0  0  0  0  0
    0.8553    1.5787   -3.0261 C   0  0  0  0  0  0  0  0  0  0  0  0
    1.7293   -0.3954   -2.9198 H   0  0  0  0  0  0  0  0  0  0  0  0
   -0.0413   -0.3691   -2.9010 H   0  0  0  0  0  0  0  0  0  0  0  0
    0.6646   -1.0600   -0.5271 H   0  0  0  0  0  0  0  0  0  0  0  0
    1.8189    0.5130   -0.6392 H   0  0  0  0  0  0  0  0  0  0  0  0
    0.8533    2.7012   -0.6989 H   0  0  0  0  0  0  0  0  0  0  0  0
   -0.9431    2.8097   -0.6212 H   0  0  0  0  0  0  0  0  0  0  0  0
    1.8189    2.0561   -2.7908 H   0  0  0  0  0  0  0  0  0  0  0  0
    0.6964    1.6446   -4.1015 H   0  0  0  0  0  0  0  0  0  0  0  0
    0.4736   -2.2586   -0.0377 C   0  0  0  0  0  3  0  0  0  0  0  0
    0.4796   -2.2207    1.4730 C   0  0  0  0  0  0  0  0  0  0  0  0
   -0.5504   -1.3717    1.9125 O   0  0  0  0  0  0  0  0  0  0  0  0
   -0.6257   -1.2710    3.3123 C   0  0  0  0  0  0  0  0  0  0  0  0
   -1.7590   -0.3403    3.6772 C   0  0  0  0  0  0  0  0  0  0  0  0
   -0.4821   -2.6324   -0.4067 H   0  0  0  0  0  0  0  0  0  0  0  0
    1.2667   -2.9130   -0.4026 H   0  0  0  0  0  0  0  0  0  0  0  0
    1.4493   -1.8575    1.8445 H   0  0  0  0  0  0  0  0  0  0  0  0
    0.3339   -3.2310    1.8833 H   0  0  0  0  0  0  0  0  0  0  0  0
   -0.7890   -2.2662    3.7518 H   0  0  0  0  0  0  0  0  0  0  0  0
    0.3264   -0.8927    3.7129 H   0  0  0  0  0  0  0  0  0  0  0  0
   -2.7056   -0.7219    3.2931 H   0  0  0  0  0  0  0  0  0  0  0  0
   -1.8368   -0.2464    4.7615 H   0  0  0  0  0  0  0  0  0  0  0  0
   -1.5908    0.6508    3.2543 H   0  0  0  0  0  0  0  0  0  0  0  0
  1  2  1  0
  1  6  1  0
  1  7  1  0
  1  8  1  0
  2  3  1  0
  2  9  1  0
  2 10  1  0
  3  4  1  0
  4  5  1  0
  4 11  1  0
  4 12  1  0
  5  6  1  0
  6 13  1  0
  6 14  1  0
 15 16  1  0
 15 20  1  0
 15 21  1  0
 16 17  1  0
 16 22  1  0
 16 23  1  0
 17 18  1  0
 18 19  1  0
 18 24  1  0
 18 25  1  0
 19 26  1  0
 19 27  1  0
 19 28  1  0
M  RAD  1  15   2
M  END
>  <reaction>  (9) 
rmg_rxn_629

>  <mol_properties>  (9) 
{"1": {"label": "*1", "atom_type": "Cs"}, "2": {"label": "*0", "atom_type": "O2s"}, "8": {"label": "*2", "atom_type": "H0"}, "14": {"label": "*3", "atom_type": "Cs"}, "15": {"label": "*4", "atom_type": "Cs"}}

>  <type>  (9) 
unop_5

>  <geom_source>  (9) 
Heuristics

$$$$

     RDKit          3D

 28 27  0  0  0  0  0  0  0  0999 V2000
    1.4192    0.9214   -1.2539 C   0  0  0  0  0  0  0  0  0  0  0  0
    1.4192    0.9214    0.2682 C   0  0  0  0  0  0  0  0  0  0  0  0
    0.3709    1.7340    0.7603 O   0  0  0  0  0  0  0  0  0  0  0  0
    0.4618    3.0336    0.2609 C   0  0  0  0  0  0  0  0  0  0  0  0
    0.3709    3.0897   -1.1301 O   0  0  0  0  0  0  0  0  0  0  0  0
    1.4192    2.3630   -1.7420 C   0  0  0  0  0  0  0  0  0  0  0  0
    2.2931    0.3889   -1.6358 H   0  0  0  0  0  0  0  0  0  0  0  0
    0.5226    0.4152   -1.6169 H   0  0  0  0  0  0  0  0  0  0  0  0
    1.2284   -0.2756    0.7570 H   0  0  0  0  0  0  0  0  0  0  0  0
    2.3828    1.2974    0.6449 H   0  0  0  0  0  0  0  0  0  0  0  0
    1.4171    3.4856    0.5852 H   0  0  0  0  0  0  0  0  0  0  0  0
   -0.3793    3.5941    0.6629 H   0  0  0  0  0  0  0  0  0  0  0  0
    2.3828    2.8404   -1.5067 H   0  0  0  0  0  0  0  0  0  0  0  0
    1.2602    2.4290   -2.8174 H   0  0  0  0  0  0  0  0  0  0  0  0
    1.0374   -1.4742    1.2464 C   0  0  0  0  0  3  0  0  0  0  0  0
   -0.4376   -1.7364    1.4444 C   0  0  0  0  0  0  0  0  0  0  0  0
   -0.9160   -2.4940    0.3617 O   0  0  0  0  0  0  0  0  0  0  0  0
   -2.2865   -2.7903    0.4558 C   0  0  0  0  0  0  0  0  0  0  0  0
   -2.6970   -3.6029   -0.7504 C   0  0  0  0  0  0  0  0  0  0  0  0
    1.5888   -2.4136    1.1938 H   0  0  0  0  0  0  0  0  0  0  0  0
    1.4317   -0.8862    2.0767 H   0  0  0  0  0  0  0  0  0  0  0  0
   -0.9908   -0.7879    1.5122 H   0  0  0  0  0  0  0  0  0  0  0  0
   -0.6085   -2.2786    2.3863 H   0  0  0  0  0  0  0  0  0  0  0  0
   -2.4868   -3.3492    1.3820 H   0  0  0  0  0  0  0  0  0  0  0  0
   -2.8691   -1.8586    0.5079 H   0  0  0  0  0  0  0  0  0  0  0  0
   -2.1305   -4.5337   -0.7948 H   0  0  0  0  0  0  0  0  0  0  0  0
   -3.7596   -3.8453   -0.6990 H   0  0  0  0  0  0  0  0  0  0  0  0
   -2.5126   -3.0439   -1.6684 H   0  0  0  0  0  0  0  0  0  0  0  0
  1  2  1  0
  1  6  1  0
  1  7  1  0
  1  8  1  0
  2  3  1  0
  2  9  1  0
  2 10  1  0
  3  4  1  0
  4  5  1  0
  4 11  1  0
  4 12  1  0
  5  6  1  0
  6 13  1  0
  6 14  1  0
 15 16  1  0
 15 20  1  0
 15 21  1  0
 16 17  1  0
 16 22  1  0
 16 23  1  0
 17 18  1  0
 18 19  1  0
 18 24  1  0
 18 25  1  0
 19 26  1  0
 19 27  1  0
 19 28  1  0
M  RAD  1  15   2
M  END
>  <reaction>  (10) 
rmg_rxn_629

>  <mol_properties>  (10) 
{"1": {"label": "*1", "atom_type": "Cs"}, "2": {"label": "*0", "atom_type": "O2s"}, "8": {"label": "*2", "atom_type": "H0"}, "14": {"label": "*3", "atom_type": "Cs"}, "15": {"label": "*4", "atom_type": "Cs"}}

>  <type>  (10) 
unop_6

>  <geom_source>  (10) 
Heuristics

$$$$

     RDKit          3D

 28 27  0  0  0  0  0  0  0  0999 V2000
    1.5232    0.7138   -1.7280 C   0  0  0  0  0  0  0  0  0  0  0  0
    1.5232    0.7138   -0.2060 C   0  0  0  0  0  0  0  0  0  0  0  0
    0.4749    1.5264    0.2861 O   0  0  0  0  0  0  0  0  0  0  0  0
    0.5659    2.8260   -0.2132 C   0  0  0  0  0  0  0  0  0  0  0  0
    0.4749    2.8822   -1.6043 O   0  0  0  0  0  0  0  0  0  0  0  0
    1.5232    2.1555   -2.2162 C   0  0  0  0  0  0  0  0  0  0  0  0
    2.3972    0.1814   -2.1099 H   0  0  0  0  0  0  0  0  0  0  0  0
    0.6267    0.2077   -2.0911 H   0  0  0  0  0  0  0  0  0  0  0  0
    1.3325   -0.4832    0.2828 H   0  0  0  0  0  0  0  0  0  0  0  0
    2.4869    1.0898    0.1707 H   0  0  0  0  0  0  0  0  0  0  0  0
    1.5212    3.2781    0.1110 H   0  0  0  0  0  0  0  0  0  0  0  0
   -0.2752    3.3865    0.1888 H   0  0  0  0  0  0  0  0  0  0  0  0
    2.4869    2.6329   -1.9809 H   0  0  0  0  0  0  0  0  0  0  0  0
    1.3643    2.2214   -3.2916 H   0  0  0  0  0  0  0  0  0  0  0  0
    1.1415   -1.6817    0.7722 C   0  0  0  0  0  3  0  0  0  0  0  0
   -0.1046   -1.7124    1.6266 C   0  0  0  0  0  0  0  0  0  0  0  0
   -1.1618   -2.2503    0.8728 O   0  0  0  0  0  0  0  0  0  0  0  0
   -2.3708   -2.3202    1.5859 C   0  0  0  0  0  0  0  0  0  0  0  0
   -3.4357   -2.9092    0.6900 C   0  0  0  0  0  0  0  0  0  0  0  0
    1.4074   -2.6885    0.4480 H   0  0  0  0  0  0  0  0  0  0  0  0
    1.9774   -1.2670    1.3377 H   0  0  0  0  0  0  0  0  0  0  0  0
   -0.3634   -0.6982    1.9653 H   0  0  0  0  0  0  0  0  0  0  0  0
    0.0619   -2.3217    2.5273 H   0  0  0  0  0  0  0  0  0  0  0  0
   -2.2403   -2.9390    2.4860 H   0  0  0  0  0  0  0  0  0  0  0  0
   -2.6655   -1.3156    1.9240 H   0  0  0  0  0  0  0  0  0  0  0  0
   -3.1513   -3.9110    0.3661 H   0  0  0  0  0  0  0  0  0  0  0  0
   -4.3854   -2.9733    1.2235 H   0  0  0  0  0  0  0  0  0  0  0  0
   -3.5763   -2.2885   -0.1955 H   0  0  0  0  0  0  0  0  0  0  0  0
  1  2  1  0
  1  6  1  0
  1  7  1  0
  1  8  1  0
  2  3  1  0
  2  9  1  0
  2 10  1  0
  3  4  1  0
  4  5  1  0
  4 11  1  0
  4 12  1  0
  5  6  1  0
  6 13  1  0
  6 14  1  0
 15 16  1  0
 15 20  1  0
 15 21  1  0
 16 17  1  0
 16 22  1  0
 16 23  1  0
 17 18  1  0
 18 19  1  0
 18 24  1  0
 18 25  1  0
 19 26  1  0
 19 27  1  0
 19 28  1  0
M  RAD  1  15   2
M  END
>  <reaction>  (11) 
rmg_rxn_629

>  <mol_properties>  (11) 
{"1": {"label": "*1", "atom_type": "Cs"}, "2": {"label": "*0", "atom_type": "O2s"}, "8": {"label": "*2", "atom_type": "H0"}, "14": {"label": "*3", "atom_type": "Cs"}, "15": {"label": "*4", "atom_type": "Cs"}}

>  <type>  (11) 
unop_7

>  <geom_source>  (11) 
Heuristics

$$$$

     RDKit          3D

 28 27  0  0  0  0  0  0  0  0999 V2000
   -0.6432    0.4843   -1.7020 C   0  0  0  0  0  0  0  0  0  0  0  0
   -0.6432    0.4843   -0.1800 C   0  0  0  0  0  0  0  0  0  0  0  0
   -1.6915    1.2969    0.3121 O   0  0  0  0  0  0  0  0  0  0  0  0
   -1.6006    2.5964   -0.1872 C   0  0  0  0  0  0  0  0  0  0  0  0
   -1.6915    2.6526   -1.5783 O   0  0  0  0  0  0  0  0  0  0  0  0
   -0.6432    1.9259   -2.1901 C   0  0  0  0  0  0  0  0  0  0  0  0
    0.2308   -0.0482   -2.0839 H   0  0  0  0  0  0  0  0  0  0  0  0
   -1.5397   -0.0219   -2.0650 H   0  0  0  0  0  0  0  0  0  0  0  0
   -0.8339   -0.7128    0.3088 H   0  0  0  0  0  0  0  0  0  0  0  0
    0.3205    0.8602    0.1967 H   0  0  0  0  0  0  0  0  0  0  0  0
   -0.6452    3.0485    0.1370 H   0  0  0  0  0  0  0  0  0  0  0  0
   -2.4416    3.1569    0.2148 H   0  0  0  0  0  0  0  0  0  0  0  0
    0.3205    2.4033   -1.9548 H   0  0  0  0  0  0  0  0  0  0  0  0
   -0.8021    1.9918   -3.2656 H   0  0  0  0  0  0  0  0  0  0  0  0
   -1.0249   -1.9113    0.7982 C   0  0  0  0  0  3  0  0  0  0  0  0
    0.2956   -2.6189    0.9963 C   0  0  0  0  0  0  0  0  0  0  0  0
    1.3221   -1.6611    1.0579 O   0  0  0  0  0  0  0  0  0  0  0  0
    2.5960   -2.2255    1.2417 C   0  0  0  0  0  0  0  0  0  0  0  0
    3.6214   -1.1167    1.2939 C   0  0  0  0  0  0  0  0  0  0  0  0
   -1.2202   -1.2282    1.6256 H   0  0  0  0  0  0  0  0  0  0  0  0
   -1.8385   -2.6366    0.7473 H   0  0  0  0  0  0  0  0  0  0  0  0
    0.4846   -3.3187    0.1686 H   0  0  0  0  0  0  0  0  0  0  0  0
    0.2790   -3.2112    1.9232 H   0  0  0  0  0  0  0  0  0  0  0  0
    2.6159   -2.8116    2.1725 H   0  0  0  0  0  0  0  0  0  0  0  0
    2.8214   -2.9190    0.4179 H   0  0  0  0  0  0  0  0  0  0  0  0
    3.4073   -0.4369    2.1192 H   0  0  0  0  0  0  0  0  0  0  0  0
    4.6203   -1.5320    1.4363 H   0  0  0  0  0  0  0  0  0  0  0  0
    3.6127   -0.5442    0.3657 H   0  0  0  0  0  0  0  0  0  0  0  0
  1  2  1  0
  1  6  1  0
  1  7  1  0
  1  8  1  0
  2  3  1  0
  2  9  1  0
  2 10  1  0
  3  4  1  0
  4  5  1  0
  4 11  1  0
  4 12  1  0
  5  6  1  0
  6 13  1  0
  6 14  1  0
 15 16  1  0
 15 20  1  0
 15 21  1  0
 16 17  1  0
 16 22  1  0
 16 23  1  0
 17 18  1  0
 18 19  1  0
 18 24  1  0
 18 25  1  0
 19 26  1  0
 19 27  1  0
 19 28  1  0
M  RAD  1  15   2
M  END
>  <reaction>  (12) 
rmg_rxn_629

>  <mol_properties>  (12) 
{"1": {"label": "*1", "atom_type": "Cs"}, "2": {"label": "*0", "atom_type": "O2s"}, "8": {"label": "*2", "atom_type": "H0"}, "14": {"label": "*3", "atom_type": "Cs"}, "15": {"label": "*4", "atom_type": "Cs"}}

>  <type>  (12) 
unop_8

>  <geom_source>  (12) 
Heuristics

$$$$

     RDKit          3D

 28 27  0  0  0  0  0  0  0  0999 V2000
    0.5890    1.1017   -0.6617 C   0  0  0  0  0  0  0  0  0  0  0  0
    0.5890    1.1017    0.8604 C   0  0  0  0  0  0  0  0  0  0  0  0
   -0.4593    1.9144    1.3525 O   0  0  0  0  0  0  0  0  0  0  0  0
   -0.3684    3.2139    0.8531 C   0  0  0  0  0  0  0  0  0  0  0  0
   -0.4593    3.2701   -0.5379 O   0  0  0  0  0  0  0  0  0  0  0  0
    0.5890    2.5434   -1.1498 C   0  0  0  0  0  0  0  0  0  0  0  0
    1.4630    0.5693   -1.0435 H   0  0  0  0  0  0  0  0  0  0  0  0
   -0.3076    0.5956   -1.0247 H   0  0  0  0  0  0  0  0  0  0  0  0
    0.3982   -0.0953    1.3492 H   0  0  0  0  0  0  0  0  0  0  0  0
    1.5526    1.4777    1.2371 H   0  0  0  0  0  0  0  0  0  0  0  0
    0.5869    3.6660    1.1774 H   0  0  0  0  0  0  0  0  0  0  0  0
   -1.2095    3.7744    1.2551 H   0  0  0  0  0  0  0  0  0  0  0  0
    1.5526    3.0208   -0.9145 H   0  0  0  0  0  0  0  0  0  0  0  0
    0.4300    2.6093   -2.2252 H   0  0  0  0  0  0  0  0  0  0  0  0
    0.2073   -1.2938    1.8386 C   0  0  0  0  0  3  0  0  0  0  0  0
   -0.6410   -2.1201    0.8998 C   0  0  0  0  0  0  0  0  0  0  0  0
    0.1618   -2.5749   -0.1602 O   0  0  0  0  0  0  0  0  0  0  0  0
   -0.5419   -3.3573   -1.0917 C   0  0  0  0  0  0  0  0  0  0  0  0
    0.4075   -3.7927   -2.1839 C   0  0  0  0  0  0  0  0  0  0  0  0
    1.0266   -1.8916    2.2394 H   0  0  0  0  0  0  0  0  0  0  0  0
   -0.3962   -0.9291    2.6713 H   0  0  0  0  0  0  0  0  0  0  0  0
   -1.4758   -1.5204    0.5076 H   0  0  0  0  0  0  0  0  0  0  0  0
   -1.0803   -2.9768    1.4321 H   0  0  0  0  0  0  0  0  0  0  0  0
   -0.9795   -4.2337   -0.5910 H   0  0  0  0  0  0  0  0  0  0  0  0
   -1.3751   -2.7773   -1.5155 H   0  0  0  0  0  0  0  0  0  0  0  0
    1.2260   -4.3804   -1.7667 H   0  0  0  0  0  0  0  0  0  0  0  0
   -0.1178   -4.4029   -2.9203 H   0  0  0  0  0  0  0  0  0  0  0  0
    0.8307   -2.9248   -2.6907 H   0  0  0  0  0  0  0  0  0  0  0  0
  1  2  1  0
  1  6  1  0
  1  7  1  0
  1  8  1  0
  2  3  1  0
  2  9  1  0
  2 10  1  0
  3  4  1  0
  4  5  1  0
  4 11  1  0
  4 12  1  0
  5  6  1  0
  6 13  1  0
  6 14  1  0
 15 16  1  0
 15 20  1  0
 15 21  1  0
 16 17  1  0
 16 22  1  0
 16 23  1  0
 17 18  1  0
 18 19  1  0
 18 24  1  0
 18 25  1  0
 19 26  1  0
 19 27  1  0
 19 28  1  0
M  RAD  1  15   2
M  END
>  <reaction>  (13) 
rmg_rxn_629

>  <mol_properties>  (13) 
{"1": {"label": "*1", "atom_type": "Cs"}, "2": {"label": "*0", "atom_type": "O2s"}, "8": {"label": "*2", "atom_type": "H0"}, "14": {"label": "*3", "atom_type": "Cs"}, "15": {"label": "*4", "atom_type": "Cs"}}

>  <type>  (13) 
unop_9

>  <geom_source>  (13) 
Heuristics

$$$$

     RDKit          3D

 28 27  0  0  0  0  0  0  0  0999 V2000
   -0.5806    0.6924   -1.2399 C   0  0  0  0  0  0  0  0  0  0  0  0
   -0.5806    0.6924    0.2822 C   0  0  0  0  0  0  0  0  0  0  0  0
   -1.6289    1.5050    0.7743 O   0  0  0  0  0  0  0  0  0  0  0  0
   -1.5380    2.8045    0.2750 C   0  0  0  0  0  0  0  0  0  0  0  0
   -1.6289    2.8607   -1.1161 O   0  0  0  0  0  0  0  0  0  0  0  0
   -0.5806    2.1340   -1.7280 C   0  0  0  0  0  0  0  0  0  0  0  0
    0.2934    0.1599   -1.6217 H   0  0  0  0  0  0  0  0  0  0  0  0
   -1.4772    0.1862   -1.6029 H   0  0  0  0  0  0  0  0  0  0  0  0
   -0.7714   -0.5047    0.7710 H   0  0  0  0  0  0  0  0  0  0  0  0
    0.3830    1.0683    0.6589 H   0  0  0  0  0  0  0  0  0  0  0  0
   -0.5827    3.2566    0.5992 H   0  0  0  0  0  0  0  0  0  0  0  0
   -2.3791    3.3650    0.6769 H   0  0  0  0  0  0  0  0  0  0  0  0
    0.3830    2.6114   -1.4927 H   0  0  0  0  0  0  0  0  0  0  0  0
   -0.7396    2.1999   -2.8034 H   0  0  0  0  0  0  0  0  0  0  0  0
   -0.9623   -1.7032    1.2604 C   0  0  0  0  0  3  0  0  0  0  0  0
    0.1292   -2.6424    0.8021 C   0  0  0  0  0  0  0  0  0  0  0  0
    1.3005   -1.9017    0.5687 O   0  0  0  0  0  0  0  0  0  0  0  0
    2.3789   -2.6924    0.1362 C   0  0  0  0  0  0  0  0  0  0  0  0
    3.5814   -1.8043   -0.0846 C   0  0  0  0  0  0  0  0  0  0  0  0
   -0.6688   -1.1961    2.1801 H   0  0  0  0  0  0  0  0  0  0  0  0
   -1.8834   -2.2572    1.4482 H   0  0  0  0  0  0  0  0  0  0  0  0
   -0.1740   -3.1645   -0.1176 H   0  0  0  0  0  0  0  0  0  0  0  0
    0.3183   -3.4130    1.5642 H   0  0  0  0  0  0  0  0  0  0  0  0
    2.6036   -3.4638    0.8877 H   0  0  0  0  0  0  0  0  0  0  0  0
    2.1113   -3.2153   -0.7941 H   0  0  0  0  0  0  0  0  0  0  0  0
    3.8565   -1.2967    0.8405 H   0  0  0  0  0  0  0  0  0  0  0  0
    4.4328   -2.3977   -0.4216 H   0  0  0  0  0  0  0  0  0  0  0  0
    3.3645   -1.0484   -0.8402 H   0  0  0  0  0  0  0  0  0  0  0  0
  1  2  1  0
  1  6  1  0
  1  7  1  0
  1  8  1  0
  2  3  1  0
  2  9  1  0
  2 10  1  0
  3  4  1  0
  4  5  1  0
  4 11  1  0
  4 12  1  0
  5  6  1  0
  6 13  1  0
  6 14  1  0
 15 16  1  0
 15 20  1  0
 15 21  1  0
 16 17  1  0
 16 22  1  0
 16 23  1  0
 17 18  1  0
 18 19  1  0
 18 24  1  0
 18 25  1  0
 19 26  1  0
 19 27  1  0
 19 28  1  0
M  RAD  1  15   2
M  END
>  <reaction>  (14) 
rmg_rxn_629

>  <mol_properties>  (14) 
{"1": {"label": "*1", "atom_type": "Cs"}, "2": {"label": "*0", "atom_type": "O2s"}, "8": {"label": "*2", "atom_type": "H0"}, "14": {"label": "*3", "atom_type": "Cs"}, "15": {"label": "*4", "atom_type": "Cs"}}

>  <type>  (14) 
unop_10

>  <geom_source>  (14) 
Heuristics

$$$$

     RDKit          3D

 28 27  0  0  0  0  0  0  0  0999 V2000
    1.3670    0.4485   -2.1903 C   0  0  0  0  0  0  0  0  0  0  0  0
    1.3670    0.4485   -0.6682 C   0  0  0  0  0  0  0  0  0  0  0  0
    0.3187    1.2612   -0.1761 O   0  0  0  0  0  0  0  0  0  0  0  0
    0.4096    2.5607   -0.6754 C   0  0  0  0  0  0  0  0  0  0  0  0
    0.3187    2.6169   -2.0665 O   0  0  0  0  0  0  0  0  0  0  0  0
    1.3670    1.8902   -2.6784 C   0  0  0  0  0  0  0  0  0  0  0  0
    2.2410   -0.0839   -2.5721 H   0  0  0  0  0  0  0  0  0  0  0  0
    0.4704   -0.0576   -2.5533 H   0  0  0  0  0  0  0  0  0  0  0  0
    1.1762   -0.7485   -0.1794 H   0  0  0  0  0  0  0  0  0  0  0  0
    2.3306    0.8245   -0.2915 H   0  0  0  0  0  0  0  0  0  0  0  0
    1.3649    3.0128   -0.3512 H   0  0  0  0  0  0  0  0  0  0  0  0
   -0.4315    3.1212   -0.2735 H   0  0  0  0  0  0  0  0  0  0  0  0
    2.3306    2.3676   -2.4431 H   0  0  0  0  0  0  0  0  0  0  0  0
    1.2080    1.9561   -3.7538 H   0  0  0  0  0  0  0  0  0  0  0  0
    0.9853   -1.9470    0.3100 C   0  0  0  0  0  3  0  0  0  0  0  0
    0.2813   -1.8679    1.6448 C   0  0  0  0  0  0  0  0  0  0  0  0
   -1.1075   -1.8722    1.4295 O   0  0  0  0  0  0  0  0  0  0  0  0
   -1.8526   -1.8010    2.6190 C   0  0  0  0  0  0  0  0  0  0  0  0
   -3.3247   -1.8120    2.2775 C   0  0  0  0  0  0  0  0  0  0  0  0
    0.7061   -2.8609   -0.2156 H   0  0  0  0  0  0  0  0  0  0  0  0
    2.0670   -1.9451    0.4525 H   0  0  0  0  0  0  0  0  0  0  0  0
    0.5749   -0.9530    2.1806 H   0  0  0  0  0  0  0  0  0  0  0  0
    0.5650   -2.7200    2.2801 H   0  0  0  0  0  0  0  0  0  0  0  0
   -1.6027   -2.6521    3.2697 H   0  0  0  0  0  0  0  0  0  0  0  0
   -1.5928   -0.8851    3.1701 H   0  0  0  0  0  0  0  0  0  0  0  0
   -3.5863   -2.7264    1.7440 H   0  0  0  0  0  0  0  0  0  0  0  0
   -3.9242   -1.7574    3.1875 H   0  0  0  0  0  0  0  0  0  0  0  0
   -3.5764   -0.9605    1.6444 H   0  0  0  0  0  0  0  0  0  0  0  0
  1  2  1  0
  1  6  1  0
  1  7  1  0
  1  8  1  0
  2  3  1  0
  2  9  1  0
  2 10  1  0
  3  4  1  0
  4  5  1  0
  4 11  1  0
  4 12  1  0
  5  6  1  0
  6 13  1  0
  6 14  1  0
 15 16  1  0
 15 20  1  0
 15 21  1  0
 16 17  1  0
 16 22  1  0
 16 23  1  0
 17 18  1  0
 18 19  1  0
 18 24  1  0
 18 25  1  0
 19 26  1  0
 19 27  1  0
 19 28  1  0
M  RAD  1  15   2
M  END
>  <reaction>  (15) 
rmg_rxn_629

>  <mol_properties>  (15) 
{"1": {"label": "*1", "atom_type": "Cs"}, "2": {"label": "*0", "atom_type": "O2s"}, "8": {"label": "*2", "atom_type": "H0"}, "14": {"label": "*3", "atom_type": "Cs"}, "15": {"label": "*4", "atom_type": "Cs"}}

>  <type>  (15) 
unop_11

>  <geom_source>  (15) 
Heuristics

$$$$

     RDKit          3D

 28 27  0  0  0  0  0  0  0  0999 V2000
    0.0833    1.0205   -0.6758 C   0  0  0  0  0  0  0  0  0  0  0  0
    0.0833    1.0205    0.8463 C   0  0  0  0  0  0  0  0  0  0  0  0
   -0.9650    1.8331    1.3384 O   0  0  0  0  0  0  0  0  0  0  0  0
   -0.8741    3.1326    0.8391 C   0  0  0  0  0  0  0  0  0  0  0  0
   -0.9650    3.1888   -0.5520 O   0  0  0  0  0  0  0  0  0  0  0  0
    0.0833    2.4621   -1.1639 C   0  0  0  0  0  0  0  0  0  0  0  0
    0.9573    0.4880   -1.0576 H   0  0  0  0  0  0  0  0  0  0  0  0
   -0.8133    0.5143   -1.0388 H   0  0  0  0  0  0  0  0  0  0  0  0
   -0.1074   -0.1766    1.3351 H   0  0  0  0  0  0  0  0  0  0  0  0
    1.0469    1.3964    1.2230 H   0  0  0  0  0  0  0  0  0  0  0  0
    0.0813    3.5847    1.1633 H   0  0  0  0  0  0  0  0  0  0  0  0
   -1.7151    3.6931    1.2410 H   0  0  0  0  0  0  0  0  0  0  0  0
    1.0469    2.9395   -0.9286 H   0  0  0  0  0  0  0  0  0  0  0  0
   -0.0756    2.5280   -2.2393 H   0  0  0  0  0  0  0  0  0  0  0  0
   -0.2984   -1.3751    1.8245 C   0  0  0  0  0  3  0  0  0  0  0  0
   -0.4590   -2.3828    0.7099 C   0  0  0  0  0  0  0  0  0  0  0  0
    0.7062   -2.3839   -0.0759 O   0  0  0  0  0  0  0  0  0  0  0  0
    0.6524   -3.2947   -1.1449 C   0  0  0  0  0  0  0  0  0  0  0  0
    1.9464   -3.2169   -1.9216 C   0  0  0  0  0  0  0  0  0  0  0  0
    0.5569   -1.6311    2.4507 H   0  0  0  0  0  0  0  0  0  0  0  0
   -1.1929   -1.3566    2.4491 H   0  0  0  0  0  0  0  0  0  0  0  0
   -1.3308   -2.1319    0.0876 H   0  0  0  0  0  0  0  0  0  0  0  0
   -0.6343   -3.3875    1.1223 H   0  0  0  0  0  0  0  0  0  0  0  0
    0.4948   -4.3138   -0.7618 H   0  0  0  0  0  0  0  0  0  0  0  0
   -0.2018   -3.0583   -1.7965 H   0  0  0  0  0  0  0  0  0  0  0  0
    2.7926   -3.4655   -1.2802 H   0  0  0  0  0  0  0  0  0  0  0  0
    1.9276   -3.9169   -2.7584 H   0  0  0  0  0  0  0  0  0  0  0  0
    2.0964   -2.2107   -2.3143 H   0  0  0  0  0  0  0  0  0  0  0  0
  1  2  1  0
  1  6  1  0
  1  7  1  0
  1  8  1  0
  2  3  1  0
  2  9  1  0
  2 10  1  0
  3  4  1  0
  4  5  1  0
  4 11  1  0
  4 12  1  0
  5  6  1  0
  6 13  1  0
  6 14  1  0
 15 16  1  0
 15 20  1  0
 15 21  1  0
 16 17  1  0
 16 22  1  0
 16 23  1  0
 17 18  1  0
 18 19  1  0
 18 24  1  0
 18 25  1  0
 19 26  1  0
 19 27  1  0
 19 28  1  0
M  RAD  1  15   2
M  END
>  <reaction>  (16) 
rmg_rxn_629

>  <mol_properties>  (16) 
{"1": {"label": "*1", "atom_type": "Cs"}, "2": {"label": "*0", "atom_type": "O2s"}, "8": {"label": "*2", "atom_type": "H0"}, "14": {"label": "*3", "atom_type": "Cs"}, "15": {"label": "*4", "atom_type": "Cs"}}

>  <type>  (16) 
unop_12

>  <geom_source>  (16) 
Heuristics

$$$$

     RDKit          3D

 28 27  0  0  0  0  0  0  0  0999 V2000
    2.5035    0.3983   -0.8056 O   0  0  0  0  0  0  0  0  0  0  0  0
   -2.9174   -0.6716   -1.0220 O   0  0  0  0  0  0  0  0  0  0  0  0
   -2.7252   -0.8371    1.3618 O   0  0  0  0  0  0  0  0  0  0  0  0
   -2.6848    1.3190    0.3208 C   0  0  0  0  0  0  0  0  0  0  0  0
   -3.5457    0.5472   -0.6827 C   0  0  0  0  0  0  0  0  0  0  0  0
    1.5799    0.2850    0.2569 C   0  0  0  0  0  0  0  0  0  0  0  0
    3.8294    0.4126   -0.3108 C   0  0  0  0  0  0  0  0  0  0  0  0
    0.1787    0.1343   -0.3122 C   0  0  0  0  0  0  0  0  0  0  0  0
    4.4391   -0.9823   -0.3932 C   0  0  0  0  0  0  0  0  0  0  0  0
   -2.8137   -1.5222    0.1193 C   0  0  0  0  0  0  0  0  0  0  0  0
   -1.9354    0.3114    1.1860 C   0  0  0  0  0  3  0  0  0  0  0  0
   -1.9443    1.9521   -0.2125 H   0  0  0  0  0  0  0  0  0  0  0  0
   -3.3319    1.9673    0.9506 H   0  0  0  0  0  0  0  0  0  0  0  0
    1.7962   -0.6074    0.8868 H   0  0  0  0  0  0  0  0  0  0  0  0
    1.6024    1.2007    0.8893 H   0  0  0  0  0  0  0  0  0  0  0  0
    4.4283    1.0899   -0.9557 H   0  0  0  0  0  0  0  0  0  0  0  0
    3.9188    0.8068    0.7297 H   0  0  0  0  0  0  0  0  0  0  0  0
   -4.5600    0.3564   -0.2621 H   0  0  0  0  0  0  0  0  0  0  0  0
   -3.6768    1.1565   -1.6017 H   0  0  0  0  0  0  0  0  0  0  0  0
    0.1195   -0.7802   -0.9398 H   0  0  0  0  0  0  0  0  0  0  0  0
   -0.0784    1.0199   -0.9313 H   0  0  0  0  0  0  0  0  0  0  0  0
   -0.6696    0.0365    0.6519 H   0  0  0  0  0  0  0  0  0  0  0  0
    4.3893   -1.3578   -1.4373 H   0  0  0  0  0  0  0  0  0  0  0  0
    5.5024   -0.9452   -0.0751 H   0  0  0  0  0  0  0  0  0  0  0  0
    3.8925   -1.6829    0.2719 H   0  0  0  0  0  0  0  0  0  0  0  0
   -3.7006   -2.1897    0.1474 H   0  0  0  0  0  0  0  0  0  0  0  0
   -1.9202   -2.1716   -0.0008 H   0  0  0  0  0  0  0  0  0  0  0  0
   -1.6762    0.7541    2.1707 H   0  0  0  0  0  0  0  0  0  0  0  0
  1  6  1  0
  1  7  1  0
  2  5  1  0
  2 10  1  0
  3 11  1  0
  3 10  1  0
  4 11  1  0
  4  5  1  0
  4 12  1  0
  4 13  1  0
  5 18  1  0
  5 19  1  0
  6  8  1  0
  6 14  1  0
  6 15  1  0
  7  9  1  0
  7 16  1  0
  7 17  1  0
  8 20  1  0
  8 21  1  0
  8 22  1  0
  9 23  1  0
  9 24  1  0
  9 25  1  0
 10 26  1  0
 10 27  1  0
 11 28  1  0
M  RAD  1  11   2
M  END
>  <reaction>  (17) 
rmg_rxn_629

>  <mol_properties>  (17) 
{"1": {"label": "*1", "atom_type": "Cs"}, "2": {"label": "*0", "atom_type": "O2s"}, "8": {"label": "*2", "atom_type": "H0"}, "14": {"label": "*3", "atom_type": "Cs"}, "15": {"label": "*4", "atom_type": "Cs"}}

>  <type>  (17) 
unop_13

>  <geom_source>  (17) 
AutoTST

$$$$

     RDKit          3D

 28 27  0  0  0  0  0  0  0  0999 V2000
   -0.3216    0.8704   -0.8820 C   0  0  0  0  0  0  0  0  0  0  0  0
   -0.3216    0.8704    0.6400 C   0  0  0  0  0  0  0  0  0  0  0  0
   -1.3699    1.6830    1.1321 O   0  0  0  0  0  0  0  0  0  0  0  0
   -1.2790    2.9825    0.6328 C   0  0  0  0  0  0  0  0  0  0  0  0
   -1.3699    3.0387   -0.7582 O   0  0  0  0  0  0  0  0  0  0  0  0
   -0.3216    2.3120   -1.3701 C   0  0  0  0  0  0  0  0  0  0  0  0
    0.5524    0.3379   -1.2639 H   0  0  0  0  0  0  0  0  0  0  0  0
   -1.2182    0.3642   -1.2450 H   0  0  0  0  0  0  0  0  0  0  0  0
   -0.5123   -0.3266    1.1288 H   0  0  0  0  0  0  0  0  0  0  0  0
    0.6420    1.2463    1.0168 H   0  0  0  0  0  0  0  0  0  0  0  0
   -0.3236    3.4346    0.9570 H   0  0  0  0  0  0  0  0  0  0  0  0
   -2.1200    3.5430    1.0348 H   0  0  0  0  0  0  0  0  0  0  0  0
    0.6420    2.7894   -1.1348 H   0  0  0  0  0  0  0  0  0  0  0  0
   -0.4805    2.3779   -2.4456 H   0  0  0  0  0  0  0  0  0  0  0  0
   -0.7033   -1.5252    1.6183 C   0  0  0  0  0  3  0  0  0  0  0  0
   -0.1538   -2.5742    0.6795 C   0  0  0  0  0  0  0  0  0  0  0  0
    1.0858   -2.1374    0.1820 O   0  0  0  0  0  0  0  0  0  0  0  0
    1.6796   -3.0511   -0.7054 C   0  0  0  0  0  0  0  0  0  0  0  0
    2.9998   -2.4885   -1.1788 C   0  0  0  0  0  0  0  0  0  0  0  0
   -0.0191   -1.3622    2.4517 H   0  0  0  0  0  0  0  0  0  0  0  0
   -1.6676   -1.8433    2.0178 H   0  0  0  0  0  0  0  0  0  0  0  0
   -0.8517   -2.7485   -0.1529 H   0  0  0  0  0  0  0  0  0  0  0  0
   -0.0306   -3.5331    1.2044 H   0  0  0  0  0  0  0  0  0  0  0  0
    1.8319   -4.0176   -0.2024 H   0  0  0  0  0  0  0  0  0  0  0  0
    1.0108   -3.2330   -1.5597 H   0  0  0  0  0  0  0  0  0  0  0  0
    3.6690   -2.3217   -0.3341 H   0  0  0  0  0  0  0  0  0  0  0  0
    3.4802   -3.1824   -1.8705 H   0  0  0  0  0  0  0  0  0  0  0  0
    2.8483   -1.5375   -1.6906 H   0  0  0  0  0  0  0  0  0  0  0  0
  1  2  1  0
  1  6  1  0
  1  7  1  0
  1  8  1  0
  2  3  1  0
  2  9  1  0
  2 10  1  0
  3  4  1  0
  4  5  1  0
  4 11  1  0
  4 12  1  0
  5  6  1  0
  6 13  1  0
  6 14  1  0
 15 16  1  0
 15 20  1  0
 15 21  1  0
 16 17  1  0
 16 22  1  0
 16 23  1  0
 17 18  1  0
 18 19  1  0
 18 24  1  0
 18 25  1  0
 19 26  1  0
 19 27  1  0
 19 28  1  0
M  RAD  1  15   2
M  END
>  <reaction>  (18) 
rmg_rxn_629

>  <mol_properties>  (18) 
{"1": {"label": "*1", "atom_type": "Cs"}, "2": {"label": "*0", "atom_type": "O2s"}, "8": {"label": "*2", "atom_type": "H0"}, "14": {"label": "*3", "atom_type": "Cs"}, "15": {"label": "*4", "atom_type": "Cs"}}

>  <type>  (18) 
unop_14

>  <geom_source>  (18) 
gaussian_log

$$$$
